# CIF file generated by openbabel 3.1.0, see https://openbabel.org
data_I
_chemical_name_common 'image0'
_cell_length_a 15.683
_cell_length_b 15.683
_cell_length_c 11.5526
_cell_angle_alpha 90
_cell_angle_beta 90
_cell_angle_gamma 120
_space_group_name_H-M_alt 'P 1'
_space_group_name_Hall 'P 1'
loop_
    _symmetry_equiv_pos_as_xyz
    x,y,z
loop_
    _atom_site_label
    _atom_site_type_symbol
    _atom_site_fract_x
    _atom_site_fract_y
    _atom_site_fract_z
    _atom_site_occupancy
    O1       O        0.93450    0.57200    0.77570    1.000
    O2       O        0.87180    0.41500    0.79110    1.000
    C1       C        0.87420    0.49310    0.82300    1.000
    C2       C        0.80820    0.49620    0.91040    1.000
    C3       C        0.73260    0.40670    0.95640    1.000
    C4       C        0.82380    0.58530    0.95350    1.000
    N1       N        0.89760    0.67900    0.91300    1.000
    N2       N        0.71300    0.31310    0.91600    1.000
    O3       O        0.42800    0.36250    0.44237    1.000
    O4       O        0.58500    0.45680    0.45777    1.000
    C5       C        0.50690    0.38110    0.48967    1.000
    C6       C        0.50380    0.31200    0.57707    1.000
    C7       C        0.59330    0.32590    0.62307    1.000
    C8       C        0.41470    0.23850    0.62017    1.000
    N3       N        0.32100    0.21860    0.57967    1.000
    N4       N        0.68690    0.39990    0.58267    1.000
    O5       O        0.63750    0.06550    0.10903    1.000
    O6       O        0.54320    0.12820    0.12443    1.000
    C9       C        0.61890    0.12580    0.15633    1.000
    C10      C        0.68800    0.19180    0.24373    1.000
    C11      C        0.67410    0.26740    0.28973    1.000
    C12      C        0.76150    0.17620    0.28683    1.000
    N5       N        0.78140    0.10240    0.24633    1.000
    N6       N        0.60010    0.28700    0.24933    1.000
    O7       O        0.06550    0.42800    0.77570    1.000
    O8       O        0.12820    0.58500    0.79110    1.000
    C13      C        0.12580    0.50690    0.82300    1.000
    C14      C        0.19180    0.50380    0.91040    1.000
    C15      C        0.26740    0.59330    0.95640    1.000
    C16      C        0.17620    0.41470    0.95350    1.000
    N7       N        0.10240    0.32100    0.91300    1.000
    N8       N        0.28700    0.68690    0.91600    1.000
    O9       O        0.57200    0.63750    0.44237    1.000
    O10      O        0.41500    0.54320    0.45777    1.000
    C17      C        0.49310    0.61890    0.48967    1.000
    C18      C        0.49620    0.68800    0.57707    1.000
    C19      C        0.40670    0.67410    0.62307    1.000
    C20      C        0.58530    0.76150    0.62017    1.000
    N9       N        0.67900    0.78140    0.57967    1.000
    N10      N        0.31310    0.60010    0.58267    1.000
    O11      O        0.36250    0.93450    0.10903    1.000
    O12      O        0.45680    0.87180    0.12443    1.000
    C21      C        0.38110    0.87420    0.15633    1.000
    C22      C        0.31200    0.80820    0.24373    1.000
    C23      C        0.32590    0.73260    0.28973    1.000
    C24      C        0.23850    0.82380    0.28683    1.000
    N11      N        0.21860    0.89760    0.24633    1.000
    N12      N        0.39990    0.71300    0.24933    1.000
    O13      O        0.57200    0.93450    0.89097    1.000
    O14      O        0.41500    0.87180    0.87557    1.000
    C25      C        0.49310    0.87420    0.84367    1.000
    C26      C        0.49620    0.80820    0.75627    1.000
    C27      C        0.40670    0.73260    0.71027    1.000
    C28      C        0.58530    0.82380    0.71317    1.000
    N13      N        0.67900    0.89760    0.75367    1.000
    N14      N        0.31310    0.71300    0.75067    1.000
    O15      O        0.36250    0.42800    0.22430    1.000
    O16      O        0.45680    0.58500    0.20890    1.000
    C29      C        0.38110    0.50690    0.17700    1.000
    C30      C        0.31200    0.50380    0.08960    1.000
    C31      C        0.32590    0.59330    0.04360    1.000
    C32      C        0.23850    0.41470    0.04650    1.000
    N15      N        0.21860    0.32100    0.08700    1.000
    N16      N        0.39990    0.68690    0.08400    1.000
    O17      O        0.06550    0.63750    0.55763    1.000
    O18      O        0.12820    0.54320    0.54223    1.000
    C33      C        0.12580    0.61890    0.51033    1.000
    C34      C        0.19180    0.68800    0.42293    1.000
    C35      C        0.26740    0.67410    0.37693    1.000
    C36      C        0.17620    0.76150    0.37983    1.000
    N17      N        0.10240    0.78140    0.42033    1.000
    N18      N        0.28700    0.60010    0.41733    1.000
    O19      O        0.42800    0.06550    0.89097    1.000
    O20      O        0.58500    0.12820    0.87557    1.000
    C37      C        0.50690    0.12580    0.84367    1.000
    C38      C        0.50380    0.19180    0.75627    1.000
    C39      C        0.59330    0.26740    0.71027    1.000
    C40      C        0.41470    0.17620    0.71317    1.000
    N19      N        0.32100    0.10240    0.75367    1.000
    N20      N        0.68690    0.28700    0.75067    1.000
    O21      O        0.63750    0.57200    0.22430    1.000
    O22      O        0.54320    0.41500    0.20890    1.000
    C41      C        0.61890    0.49310    0.17700    1.000
    C42      C        0.68800    0.49620    0.08960    1.000
    C43      C        0.67410    0.40670    0.04360    1.000
    C44      C        0.76150    0.58530    0.04650    1.000
    N21      N        0.78140    0.67900    0.08700    1.000
    N22      N        0.60010    0.31310    0.08400    1.000
    O23      O        0.93450    0.36250    0.55763    1.000
    O24      O        0.87180    0.45680    0.54223    1.000
    C45      C        0.87420    0.38110    0.51033    1.000
    C46      C        0.80820    0.31200    0.42293    1.000
    C47      C        0.73260    0.32590    0.37693    1.000
    C48      C        0.82380    0.23850    0.37983    1.000
    N23      N        0.89760    0.21860    0.42033    1.000
    N24      N        0.71300    0.39990    0.41733    1.000
    In1      In       0.00000    0.50000    0.66667    1.000
    In2      In       0.50000    0.50000    0.33333    1.000
    In3      In       0.50000    0.00000    0.00000    1.000
