# CIF file generated by openbabel 3.1.0, see https://openbabel.org
data_I
_chemical_name_common 'image0'
_cell_length_a 14.107
_cell_length_b 15.163
_cell_length_c 17.765
_cell_angle_alpha 90
_cell_angle_beta 111.025
_cell_angle_gamma 90
_space_group_name_H-M_alt 'P 1'
_space_group_name_Hall 'P 1'
loop_
    _symmetry_equiv_pos_as_xyz
    x,y,z
loop_
    _atom_site_label
    _atom_site_type_symbol
    _atom_site_fract_x
    _atom_site_fract_y
    _atom_site_fract_z
    _atom_site_occupancy
    Mn1      Mn       0.65196    0.17218    0.44483    1.000
    Mn2      Mn       0.61865    0.40549    0.37389    1.000
    O1       O        0.14650    0.26460    0.83510    1.000
    O2       O        0.02820    0.16720    0.76690    1.000
    O3       O        0.76800    0.39150    0.46020    1.000
    O4       O        0.76750    0.25830    0.51230    1.000
    O5       O        0.53700    0.35360    0.44240    1.000
    O6       O        0.49700    0.21110    0.42190    1.000
    O7       O        0.27530    0.57060    0.45020    1.000
    O8       O        0.11750    0.52710    0.40980    1.000
    C1       C        0.07080    0.24200    0.77370    1.000
    C2       C        0.02800    0.30700    0.70750    1.000
    C3       C        0.94170    0.29030    0.64250    1.000
    H1       H        0.90840    0.23690    0.64020    1.000
    C4       C        0.90130    0.35060    0.57910    1.000
    C5       C        0.95080    0.43150    0.58310    1.000
    H2       H        0.92360    0.47350    0.54290    1.000
    C6       C        0.04060    0.44930    0.64690    1.000
    C7       C        0.07900    0.38510    0.71060    1.000
    H3       H        0.13850    0.39660    0.75400    1.000
    C8       C        0.80200    0.33230    0.51160    1.000
    C9       C        0.09490    0.53230    0.64840    1.000
    C10      C        0.14560    0.58180    0.71780    1.000
    H4       H        0.14300    0.56420    0.76720    1.000
    C11      C        0.19820    0.65540    0.71360    1.000
    H5       H        0.23420    0.68690    0.76000    1.000
    C12      C        0.19750    0.68290    0.63860    1.000
    H6       H        0.23150    0.73460    0.63570    1.000
    C13      C        0.10040    0.56420    0.57680    1.000
    H7       H        0.06770    0.53220    0.53000    1.000
    C14      C        0.19780    0.26120    0.40940    1.000
    C15      C        0.17020    0.34980    0.41550    1.000
    H8       H        0.10140    0.36440    0.40860    1.000
    C16      C        0.29820    0.24380    0.42100    1.000
    H9       H        0.31840    0.18350    0.42000    1.000
    C17      C        0.97580    0.05370    0.35980    1.000
    H10      H        0.92790    0.00870    0.34880    1.000
    N1       N        0.07640    0.03410    0.37190    1.000
    C18      C        0.14800    0.10140    0.38830    1.000
    H11      H        0.21750    0.08780    0.39670    1.000
    C19      C        0.11880    0.18820    0.39270    1.000
    C20      C        0.01820    0.20780    0.38060    1.000
    H12      H        0.99870    0.26590    0.38350    1.000
    C21      C        0.94660    0.14060    0.36420    1.000
    H13      H        0.87930    0.15370    0.35610    1.000
    C22      C        0.24520    0.41740    0.43230    1.000
    C23      C        0.34230    0.39750    0.43360    1.000
    H14      H        0.38700    0.44270    0.43390    1.000
    C24      C        0.37200    0.31010    0.43440    1.000
    C25      C        0.20840    0.51100    0.43170    1.000
    C26      C        0.47730    0.28950    0.43280    1.000
    N2       N        0.14990    0.63830    0.57040    1.000
    C27      C        0.22840    0.26380    0.46300    1.000
    C28      C        0.19190    0.35060    0.45230    1.000
    H15      H        0.12870    0.36390    0.45870    1.000
    C29      C        0.32050    0.24430    0.45580    1.000
    H16      H        0.34780    0.18570    0.46570    1.000
    C30      C        0.07260    0.04390    0.51140    1.000
    H17      H        0.04040    0.99500    0.52300    1.000
    N3       N        0.12510    0.03610    0.45880    1.000
    C31      C        0.17320    0.10920    0.44160    1.000
    H18      H        0.20950    0.10380    0.40530    1.000
    C32      C        0.16880    0.19010    0.47690    1.000
    C33      C        0.11630    0.19800    0.52950    1.000
    H19      H        0.11340    0.25210    0.55320    1.000
    C34      C        0.06820    0.12490    0.54680    1.000
    H20      H        0.03310    0.13010    0.58200    1.000
    Mn3      Mn       0.15196    0.67218    0.44483    1.000
    Mn4      Mn       0.11865    0.90549    0.37389    1.000
    O9       O        0.64650    0.76460    0.83510    1.000
    O10      O        0.52820    0.66720    0.76690    1.000
    O11      O        0.26800    0.89150    0.46020    1.000
    O12      O        0.26750    0.75830    0.51230    1.000
    O13      O        0.03700    0.85360    0.44240    1.000
    O14      O        0.99700    0.71110    0.42190    1.000
    O15      O        0.77530    0.07060    0.45020    1.000
    O16      O        0.61750    0.02710    0.40980    1.000
    C35      C        0.57080    0.74200    0.77370    1.000
    C36      C        0.52800    0.80700    0.70750    1.000
    C37      C        0.44170    0.79030    0.64250    1.000
    H21      H        0.40840    0.73690    0.64020    1.000
    C38      C        0.40130    0.85060    0.57910    1.000
    C39      C        0.45080    0.93150    0.58310    1.000
    H22      H        0.42360    0.97350    0.54290    1.000
    C40      C        0.54060    0.94930    0.64690    1.000
    C41      C        0.57900    0.88510    0.71060    1.000
    H23      H        0.63850    0.89660    0.75400    1.000
    C42      C        0.30200    0.83230    0.51160    1.000
    C43      C        0.59490    0.03230    0.64840    1.000
    C44      C        0.64560    0.08180    0.71780    1.000
    H24      H        0.64300    0.06420    0.76720    1.000
    C45      C        0.69820    0.15540    0.71360    1.000
    H25      H        0.73420    0.18690    0.76000    1.000
    C46      C        0.69750    0.18290    0.63860    1.000
    H26      H        0.73150    0.23460    0.63570    1.000
    C47      C        0.60040    0.06420    0.57680    1.000
    H27      H        0.56770    0.03220    0.53000    1.000
    C48      C        0.69780    0.76120    0.40940    1.000
    C49      C        0.67020    0.84980    0.41550    1.000
    H28      H        0.60140    0.86440    0.40860    1.000
    C50      C        0.79820    0.74380    0.42100    1.000
    H29      H        0.81840    0.68350    0.42000    1.000
    C51      C        0.47580    0.55370    0.35980    1.000
    H30      H        0.42790    0.50870    0.34880    1.000
    N4       N        0.57640    0.53410    0.37190    1.000
    C52      C        0.64800    0.60140    0.38830    1.000
    H31      H        0.71750    0.58780    0.39670    1.000
    C53      C        0.61880    0.68820    0.39270    1.000
    C54      C        0.51820    0.70780    0.38060    1.000
    H32      H        0.49870    0.76590    0.38350    1.000
    C55      C        0.44660    0.64060    0.36420    1.000
    H33      H        0.37930    0.65370    0.35610    1.000
    C56      C        0.74520    0.91740    0.43230    1.000
    C57      C        0.84230    0.89750    0.43360    1.000
    H34      H        0.88700    0.94270    0.43390    1.000
    C58      C        0.87200    0.81010    0.43440    1.000
    C59      C        0.70840    0.01100    0.43170    1.000
    C60      C        0.97730    0.78950    0.43280    1.000
    N5       N        0.64990    0.13830    0.57040    1.000
    C61      C        0.72840    0.76380    0.46300    1.000
    C62      C        0.69190    0.85060    0.45230    1.000
    H35      H        0.62870    0.86390    0.45870    1.000
    C63      C        0.82050    0.74430    0.45580    1.000
    H36      H        0.84780    0.68570    0.46570    1.000
    C64      C        0.57260    0.54390    0.51140    1.000
    H37      H        0.54040    0.49500    0.52300    1.000
    N6       N        0.62510    0.53610    0.45880    1.000
    C65      C        0.67320    0.60920    0.44160    1.000
    H38      H        0.70950    0.60380    0.40530    1.000
    C66      C        0.66880    0.69010    0.47690    1.000
    C67      C        0.61630    0.69800    0.52950    1.000
    H39      H        0.61340    0.75210    0.55320    1.000
    C68      C        0.56820    0.62490    0.54680    1.000
    H40      H        0.53310    0.63010    0.58200    1.000
    Mn5      Mn       0.65196    0.82782    0.94483    1.000
    Mn6      Mn       0.61865    0.59451    0.87389    1.000
    O17      O        0.14650    0.73540    0.33510    1.000
    O18      O        0.02820    0.83280    0.26690    1.000
    O19      O        0.76800    0.60850    0.96020    1.000
    O20      O        0.76750    0.74170    0.01230    1.000
    O21      O        0.53700    0.64640    0.94240    1.000
    O22      O        0.49700    0.78890    0.92190    1.000
    O23      O        0.27530    0.42940    0.95020    1.000
    O24      O        0.11750    0.47290    0.90980    1.000
    C69      C        0.07080    0.75800    0.27370    1.000
    C70      C        0.02800    0.69300    0.20750    1.000
    C71      C        0.94170    0.70970    0.14250    1.000
    H41      H        0.90840    0.76310    0.14020    1.000
    C72      C        0.90130    0.64940    0.07910    1.000
    C73      C        0.95080    0.56850    0.08310    1.000
    H42      H        0.92360    0.52650    0.04290    1.000
    C74      C        0.04060    0.55070    0.14690    1.000
    C75      C        0.07900    0.61490    0.21060    1.000
    H43      H        0.13850    0.60340    0.25400    1.000
    C76      C        0.80200    0.66770    0.01160    1.000
    C77      C        0.09490    0.46770    0.14840    1.000
    C78      C        0.14560    0.41820    0.21780    1.000
    H44      H        0.14300    0.43580    0.26720    1.000
    C79      C        0.19820    0.34460    0.21360    1.000
    H45      H        0.23420    0.31310    0.26000    1.000
    C80      C        0.19750    0.31710    0.13860    1.000
    H46      H        0.23150    0.26540    0.13570    1.000
    C81      C        0.10040    0.43580    0.07680    1.000
    H47      H        0.06770    0.46780    0.03000    1.000
    C82      C        0.19780    0.73880    0.90940    1.000
    C83      C        0.17020    0.65020    0.91550    1.000
    H48      H        0.10140    0.63560    0.90860    1.000
    C84      C        0.29820    0.75620    0.92100    1.000
    H49      H        0.31840    0.81650    0.92000    1.000
    C85      C        0.97580    0.94630    0.85980    1.000
    H50      H        0.92790    0.99130    0.84880    1.000
    N7       N        0.07640    0.96590    0.87190    1.000
    C86      C        0.14800    0.89860    0.88830    1.000
    H51      H        0.21750    0.91220    0.89670    1.000
    C87      C        0.11880    0.81180    0.89270    1.000
    C88      C        0.01820    0.79220    0.88060    1.000
    H52      H        0.99870    0.73410    0.88350    1.000
    C89      C        0.94660    0.85940    0.86420    1.000
    H53      H        0.87930    0.84630    0.85610    1.000
    C90      C        0.24520    0.58260    0.93230    1.000
    C91      C        0.34230    0.60250    0.93360    1.000
    H54      H        0.38700    0.55730    0.93390    1.000
    C92      C        0.37200    0.68990    0.93440    1.000
    C93      C        0.20840    0.48900    0.93170    1.000
    C94      C        0.47730    0.71050    0.93280    1.000
    N8       N        0.14990    0.36170    0.07040    1.000
    C95      C        0.22840    0.73620    0.96300    1.000
    C96      C        0.19190    0.64940    0.95230    1.000
    H55      H        0.12870    0.63610    0.95870    1.000
    C97      C        0.32050    0.75570    0.95580    1.000
    H56      H        0.34780    0.81430    0.96570    1.000
    C98      C        0.07260    0.95610    0.01140    1.000
    H57      H        0.04040    0.00500    0.02300    1.000
    N9       N        0.12510    0.96390    0.95880    1.000
    C99      C        0.17320    0.89080    0.94160    1.000
    H58      H        0.20950    0.89620    0.90530    1.000
    C100     C        0.16880    0.80990    0.97690    1.000
    C101     C        0.11630    0.80200    0.02950    1.000
    H59      H        0.11340    0.74790    0.05320    1.000
    C102     C        0.06820    0.87510    0.04680    1.000
    H60      H        0.03310    0.86990    0.08200    1.000
    Mn7      Mn       0.15196    0.32782    0.94483    1.000
    Mn8      Mn       0.11865    0.09451    0.87389    1.000
    O25      O        0.64650    0.23540    0.33510    1.000
    O26      O        0.52820    0.33280    0.26690    1.000
    O27      O        0.26800    0.10850    0.96020    1.000
    O28      O        0.26750    0.24170    0.01230    1.000
    O29      O        0.03700    0.14640    0.94240    1.000
    O30      O        0.99700    0.28890    0.92190    1.000
    O31      O        0.77530    0.92940    0.95020    1.000
    O32      O        0.61750    0.97290    0.90980    1.000
    C103     C        0.57080    0.25800    0.27370    1.000
    C104     C        0.52800    0.19300    0.20750    1.000
    C105     C        0.44170    0.20970    0.14250    1.000
    H61      H        0.40840    0.26310    0.14020    1.000
    C106     C        0.40130    0.14940    0.07910    1.000
    C107     C        0.45080    0.06850    0.08310    1.000
    H62      H        0.42360    0.02650    0.04290    1.000
    C108     C        0.54060    0.05070    0.14690    1.000
    C109     C        0.57900    0.11490    0.21060    1.000
    H63      H        0.63850    0.10340    0.25400    1.000
    C110     C        0.30200    0.16770    0.01160    1.000
    C111     C        0.59490    0.96770    0.14840    1.000
    C112     C        0.64560    0.91820    0.21780    1.000
    H64      H        0.64300    0.93580    0.26720    1.000
    C113     C        0.69820    0.84460    0.21360    1.000
    H65      H        0.73420    0.81310    0.26000    1.000
    C114     C        0.69750    0.81710    0.13860    1.000
    H66      H        0.73150    0.76540    0.13570    1.000
    C115     C        0.60040    0.93580    0.07680    1.000
    H67      H        0.56770    0.96780    0.03000    1.000
    C116     C        0.69780    0.23880    0.90940    1.000
    C117     C        0.67020    0.15020    0.91550    1.000
    H68      H        0.60140    0.13560    0.90860    1.000
    C118     C        0.79820    0.25620    0.92100    1.000
    H69      H        0.81840    0.31650    0.92000    1.000
    C119     C        0.47580    0.44630    0.85980    1.000
    H70      H        0.42790    0.49130    0.84880    1.000
    N10      N        0.57640    0.46590    0.87190    1.000
    C120     C        0.64800    0.39860    0.88830    1.000
    H71      H        0.71750    0.41220    0.89670    1.000
    C121     C        0.61880    0.31180    0.89270    1.000
    C122     C        0.51820    0.29220    0.88060    1.000
    H72      H        0.49870    0.23410    0.88350    1.000
    C123     C        0.44660    0.35940    0.86420    1.000
    H73      H        0.37930    0.34630    0.85610    1.000
    C124     C        0.74520    0.08260    0.93230    1.000
    C125     C        0.84230    0.10250    0.93360    1.000
    H74      H        0.88700    0.05730    0.93390    1.000
    C126     C        0.87200    0.18990    0.93440    1.000
    C127     C        0.70840    0.98900    0.93170    1.000
    C128     C        0.97730    0.21050    0.93280    1.000
    N11      N        0.64990    0.86170    0.07040    1.000
    C129     C        0.72840    0.23620    0.96300    1.000
    C130     C        0.69190    0.14940    0.95230    1.000
    H75      H        0.62870    0.13610    0.95870    1.000
    C131     C        0.82050    0.25570    0.95580    1.000
    H76      H        0.84780    0.31430    0.96570    1.000
    C132     C        0.57260    0.45610    0.01140    1.000
    H77      H        0.54040    0.50500    0.02300    1.000
    N12      N        0.62510    0.46390    0.95880    1.000
    C133     C        0.67320    0.39080    0.94160    1.000
    H78      H        0.70950    0.39620    0.90530    1.000
    C134     C        0.66880    0.30990    0.97690    1.000
    C135     C        0.61630    0.30200    0.02950    1.000
    H79      H        0.61340    0.24790    0.05320    1.000
    C136     C        0.56820    0.37510    0.04680    1.000
    H80      H        0.53310    0.36990    0.08200    1.000
