data_functionalizedCrystal
_audit_creation_method	'EQeq! by Chris Wilmer'
_symmetry_space_group_name_H-M	'P1'
_symmetry_Int_Tables_number	1
_symmetry_cell_setting	triclinic
loop_
_symmetry_equiv_pos_as_xyz
  x,y,z
_cell_length_a	10.2724
_cell_length_b	13.3126
_cell_length_c	15.2949
_cell_angle_alpha	100.307
_cell_angle_beta	107.572
_cell_angle_gamma	100.414
loop_
_atom_site_label
_atom_site_type_symbol
_atom_site_fract_x
_atom_site_fract_y
_atom_site_fract_z
_atom_site_charge
Mof_Ba	Ba	0.52643	0.82036	0.98816	1.778
Mof_Ba	Ba	0.91322	0.07525	0.10966	1.732
Mof_C 	C 	0.3455	0.2927	0.3033	-0.032
Mof_C 	C 	0.4854	0.3128	0.3598	-0.087
Mof_H 	H 	0.5516	0.2998	0.3319	0.084
Mof_C 	C 	0.529	0.3515	0.4563	0.066
Mof_H 	H 	0.6242	0.3671	0.4926	0.025
Mof_C 	C 	0.4319	0.3674	0.4995	-0.203
Mof_H 	H 	0.4605	0.3923	0.5649	0.112
Mof_C 	C 	0.2912	0.3457	0.4441	0.228
Mof_C 	C 	0.2463	0.3115	0.3467	-0.145
Mof_C 	C 	0.3033	0.2472	0.1985	0.39
Mof_C 	C 	0.0928	0.298	0.2919	0.363
Mof_C 	C 	0.2227	0.382	0.5784	0.195
Mof_C 	C 	0.2472	0.3053	0.626	-0.122
Mof_H 	H 	0.2408	0.2377	0.5931	0.112
Mof_C 	C 	0.2814	0.3295	0.7236	-0.062
Mof_C 	C 	0.291	0.4303	0.7721	-0.002
Mof_H 	H 	0.3158	0.447	0.8377	0.036
Mof_C 	C 	0.2637	0.5068	0.7227	-0.048
Mof_C 	C 	0.2278	0.4821	0.6246	-0.116
Mof_H 	H 	0.2077	0.5323	0.5909	0.118
Mof_C 	C 	0.3062	0.2494	0.7784	0.394
Mof_C 	C 	0.2787	0.6153	0.7772	0.389
Mof_C 	C 	0.6057	0.9885	0.7904	-0.055
Mof_C 	C 	0.6775	0.9938	0.7277	-0.086
Mof_H 	H 	0.7753	0.0176	0.7505	0.052
Mof_C 	C 	0.6052	0.964	0.6312	0.066
Mof_H 	H 	0.6553	0.9682	0.5899	0.016
Mof_C 	C 	0.4624	0.9287	0.5954	-0.211
Mof_H 	H 	0.4149	0.9079	0.5303	0.113
Mof_C 	C 	0.3882	0.9241	0.6581	0.231
Mof_C 	C 	0.4583	0.9537	0.755	-0.178
Mof_C 	C 	0.6897	0.015	0.8941	0.338
Mof_C 	C 	0.3677	0.9506	0.8168	0.383
Mof_C 	C 	0.1741	0.8618	0.5308	0.221
Mof_C 	C 	0.1356	0.94	0.4868	-0.166
Mof_H 	H 	0.1505	0.008	0.5225	0.137
Mof_C 	C 	0.0746	0.9153	0.3885	-0.03
Mof_C 	C 	0.0554	0.8135	0.3359	-0.034
Mof_H 	H 	0.0165	0.7971	0.2702	0.05
Mof_C 	C 	0.0939	0.7365	0.3811	-0.013
Mof_C 	C 	0.1512	0.7602	0.4788	-0.151
Mof_H 	H 	0.1742	0.708	0.5093	0.126
Mof_C 	C 	0.0365	0.9974	0.3374	0.381
Mof_C 	C 	0.0762	0.6302	0.3208	0.334
Mof_O 	O 	0.1746	0.2059	0.1516	-0.476
Mof_O 	O 	0.3984	0.2529	0.1635	-0.441
Mof_O 	O 	0.8263	0.8598	0.0285	-0.9
Mof_H 	H 	0.821	0.829	0.9735	0.313
Mof_H 	H 	0.868	0.826	0.064	0.338
Mof_O 	O 	0.0598	0.3726	0.2589	-0.294
Mof_O 	O 	0.0055	0.2138	0.2842	-0.397
Mof_O 	O 	0.1859	0.3604	0.4801	-0.248
Mof_O 	O 	0.2958	0.1565	0.7258	-0.474
Mof_H 	H 	0.3097	0.1119	0.7588	0.278
Mof_O 	O 	0.3359	0.2691	0.8638	-0.443
Mof_O 	O 	0.3205	0.6417	0.8625	-0.456
Mof_O 	O 	0.242	0.6774	0.7203	-0.441
Mof_H 	H 	0.2567	0.7356	0.7598	0.253
Mof_O 	O 	0.822	0.0328	0.917	-0.494
Mof_O 	O 	0.6251	0.0158	0.9527	-0.559
Mof_O 	O 	0.3297	0.8675	0.8402	-0.523
Mof_O 	O 	0.3277	0.032	0.8398	-0.493
Mof_O 	O 	0.2424	0.8881	0.6287	-0.268
Mof_O 	O 	0.0734	0.0923	0.3917	-0.434
Mof_H 	H 	0.0539	0.1461	0.3662	0.267
Mof_O 	O 	0.9796	0.9744	0.2526	-0.409
Mof_O 	O 	0.0341	0.6106	0.2352	-0.282
Mof_O 	O 	0.1113	0.5614	0.369	-0.432
Mof_H 	H 	0.1104	0.5103	0.3264	0.286
Mof_Ba	Ba	0.47357	0.17964	0.01184	1.778
Mof_Ba	Ba	0.08678	0.92475	0.89034	1.732
Mof_C 	C 	0.6545	0.7073	0.6967	-0.032
Mof_C 	C 	0.5146	0.6872	0.6402	-0.087
Mof_H 	H 	0.4484	0.7002	0.6681	0.084
Mof_C 	C 	0.471	0.6485	0.5437	0.066
Mof_H 	H 	0.3758	0.6329	0.5074	0.025
Mof_C 	C 	0.5681	0.6326	0.5005	-0.203
Mof_H 	H 	0.5395	0.6077	0.4351	0.112
Mof_C 	C 	0.7088	0.6543	0.5559	0.228
Mof_C 	C 	0.7537	0.6885	0.6533	-0.145
Mof_C 	C 	0.6967	0.7528	0.8015	0.39
Mof_C 	C 	0.9072	0.702	0.7081	0.363
Mof_C 	C 	0.7773	0.618	0.4216	0.195
Mof_C 	C 	0.7528	0.6947	0.374	-0.122
Mof_H 	H 	0.7592	0.7623	0.4069	0.112
Mof_C 	C 	0.7186	0.6705	0.2764	-0.062
Mof_C 	C 	0.709	0.5697	0.2279	-0.002
Mof_H 	H 	0.6842	0.553	0.1623	0.036
Mof_C 	C 	0.7363	0.4932	0.2773	-0.048
Mof_C 	C 	0.7722	0.5179	0.3754	-0.116
Mof_H 	H 	0.7923	0.4677	0.4091	0.118
Mof_C 	C 	0.6938	0.7506	0.2216	0.394
Mof_C 	C 	0.7213	0.3847	0.2228	0.389
Mof_C 	C 	0.3943	0.0115	0.2096	-0.055
Mof_C 	C 	0.3225	0.0062	0.2723	-0.086
Mof_H 	H 	0.2247	0.9824	0.2495	0.052
Mof_C 	C 	0.3948	0.036	0.3688	0.066
Mof_H 	H 	0.3447	0.0318	0.4101	0.016
Mof_C 	C 	0.5376	0.0713	0.4046	-0.211
Mof_H 	H 	0.5851	0.0921	0.4697	0.113
Mof_C 	C 	0.6118	0.0759	0.3419	0.231
Mof_C 	C 	0.5417	0.0463	0.245	-0.178
Mof_C 	C 	0.3103	0.985	0.1059	0.338
Mof_C 	C 	0.6323	0.0494	0.1832	0.383
Mof_C 	C 	0.8259	0.1382	0.4692	0.221
Mof_C 	C 	0.8644	0.06	0.5132	-0.166
Mof_H 	H 	0.8495	0.992	0.4775	0.137
Mof_C 	C 	0.9254	0.0847	0.6115	-0.03
Mof_C 	C 	0.9446	0.1865	0.6641	-0.034
Mof_H 	H 	0.9835	0.2029	0.7298	0.05
Mof_C 	C 	0.9061	0.2635	0.6189	-0.013
Mof_C 	C 	0.8488	0.2398	0.5212	-0.151
Mof_H 	H 	0.8258	0.292	0.4907	0.126
Mof_C 	C 	0.9635	0.0026	0.6626	0.381
Mof_C 	C 	0.9238	0.3698	0.6792	0.334
Mof_O 	O 	0.8254	0.7941	0.8484	-0.476
Mof_O 	O 	0.6016	0.7471	0.8365	-0.441
Mof_O 	O 	0.1737	0.1402	0.9715	-0.9
Mof_H 	H 	0.179	0.171	0.0265	0.313
Mof_H 	H 	0.132	0.174	0.936	0.338
Mof_O 	O 	0.9402	0.6274	0.7411	-0.294
Mof_O 	O 	0.9945	0.7862	0.7158	-0.397
Mof_O 	O 	0.8141	0.6396	0.5199	-0.248
Mof_O 	O 	0.7042	0.8435	0.2742	-0.474
Mof_H 	H 	0.6903	0.8881	0.2412	0.278
Mof_O 	O 	0.6641	0.7309	0.1362	-0.443
Mof_O 	O 	0.6795	0.3583	0.1375	-0.456
Mof_O 	O 	0.758	0.3226	0.2797	-0.441
Mof_H 	H 	0.7433	0.2644	0.2402	0.253
Mof_O 	O 	0.178	0.9672	0.083	-0.494
Mof_O 	O 	0.3749	0.9842	0.0473	-0.559
Mof_O 	O 	0.6703	0.1325	0.1598	-0.523
Mof_O 	O 	0.6723	0.968	0.1602	-0.493
Mof_O 	O 	0.7576	0.1119	0.3713	-0.268
Mof_O 	O 	0.9266	0.9077	0.6083	-0.434
Mof_H 	H 	0.9461	0.8539	0.6338	0.267
Mof_O 	O 	0.0204	0.0256	0.7474	-0.409
Mof_O 	O 	0.9659	0.3894	0.7648	-0.282
Mof_O 	O 	0.8887	0.4386	0.631	-0.432
Mof_H 	H 	0.8896	0.4897	0.6736	0.286
_end
