data_functionalizedCrystal
_audit_creation_method	'EQeq! by Chris Wilmer'
_symmetry_space_group_name_H-M	'P1'
_symmetry_Int_Tables_number	1
_symmetry_cell_setting	triclinic
loop_
_symmetry_equiv_pos_as_xyz
  x,y,z
_cell_length_a	17.9831
_cell_length_b	28.2545
_cell_length_c	13.0479
_cell_angle_alpha	90
_cell_angle_beta	135.587
_cell_angle_gamma	90
loop_
_atom_site_label
_atom_site_type_symbol
_atom_site_fract_x
_atom_site_fract_y
_atom_site_fract_z
_atom_site_charge
Mof_N 	N 	0.1341	0.9399	0.998	-0.22
Mof_C 	C 	0.2075	0.9131	0.116	0.015
Mof_H 	H 	0.2234	0.919	0.2015	-0.001
Mof_C 	C 	0.2618	0.877	0.1196	-0.058
Mof_H 	H 	0.3128	0.8586	0.2059	0.036
Mof_C 	C 	0.2413	0.868	0.9972	0.06
Mof_C 	C 	0.1681	0.897	0.877	-0.003
Mof_H 	H 	0.152	0.8926	0.791	0.024
Mof_C 	C 	0.1187	0.9323	0.884	0.068
Mof_H 	H 	0.0705	0.9524	0.8009	-0.016
Mof_C 	C 	0.3027	0.8334	0.9958	0.022
Mof_C 	C 	0.4087	0.8433	0.082	-0.1
Mof_H 	H 	0.4399	0.871	0.1414	0.079
Mof_C 	C 	0.4682	0.8132	0.0826	-0.058
Mof_H 	H 	0.5412	0.8206	0.1448	0.034
Mof_C 	C 	0.4289	0.7723	0.9974	0.159
Mof_C 	C 	0.3187	0.7655	0.8993	-0.067
Mof_H 	H 	0.2858	0.74	0.8313	0.044
Mof_C 	C 	0.257	0.7948	0.8992	-0.031
Mof_H 	H 	0.1831	0.7887	0.8332	0.032
Mof_C 	C 	0.5672	0.7092	0.1385	0.104
Mof_C 	C 	0.6184	0.6693	0.1512	-0.064
Mof_H 	H 	0.6155	0.6618	0.0774	0.036
Mof_C 	C 	0.674	0.6404	0.2739	-0.026
Mof_H 	H 	0.6959	0.6101	0.2723	0.031
Mof_C 	C 	0.6986	0.6531	0.3951	0.036
Mof_C 	C 	0.6375	0.6906	0.376	-0.027
Mof_H 	H 	0.6405	0.6968	0.4507	0.035
Mof_C 	C 	0.5712	0.7193	0.247	-0.085
Mof_H 	H 	0.531	0.7446	0.2359	0.053
Mof_C 	C 	0.7649	0.6246	0.5314	-0.034
Mof_C 	C 	0.8363	0.5914	0.57	0.271
Mof_H 	H 	0.8431	0.5841	0.5062	-0.056
Mof_C 	C 	0.8954	0.5697	0.6958	-0.279
Mof_H 	H 	0.9416	0.5463	0.7141	0.105
Mof_N 	N 	0.9006	0.5754	0.8008	-0.216
Mof_C 	C 	0.8185	0.6023	0.76	0.353
Mof_H 	H 	0.8111	0.6046	0.8246	-0.127
Mof_C 	C 	0.7445	0.6268	0.623	-0.383
Mof_H 	H 	0.6856	0.6436	0.5926	0.149
Mof_H 	H 	0.097	0.8603	0.7836	0.052
Mof_H 	H 	0.0129	0.9214	0.7922	0.004
Mof_C 	C 	0.2346	0.9282	0.117	0.007
Mof_C 	C 	0.2894	0.8927	0.122	-0.064
Mof_C 	C 	0.1349	0.8778	0.8712	-0.109
Mof_C 	C 	0.0852	0.9145	0.8779	-0.023
Mof_H 	H 	0.2707	0.9457	0.2043	0.003
Mof_H 	H 	0.3602	0.8854	0.2118	0.039
Mof_C 	C 	0.3213	0.8411	0.912	-0.02
Mof_H 	H 	0.2886	0.8678	0.8483	0.063
Mof_C 	C 	0.3838	0.8128	0.9129	-0.091
Mof_H 	H 	0.3962	0.8211	0.8556	0.052
Mof_C 	C 	0.4171	0.764	0.0918	-0.134
Mof_H 	H 	0.4486	0.7371	0.1544	0.064
Mof_C 	C 	0.361	0.7946	0.0907	0.008
Mof_H 	H 	0.3599	0.7899	0.1617	0.017
Mof_C 	C 	0.5376	0.6667	0.1447	-0.057
Mof_H 	H 	0.4701	0.6547	0.0586	0.033
Mof_C 	C 	0.6001	0.6397	0.2692	-0.042
Mof_H 	H 	0.5731	0.6104	0.2668	0.036
Mof_C 	C 	0.7468	0.6891	0.382	-0.039
Mof_H 	H 	0.8217	0.6933	0.4549	0.04
Mof_C 	C 	0.6776	0.7191	0.2514	-0.067
Mof_H 	H 	0.7063	0.745	0.2425	0.05
Mof_C 	C 	0.7965	0.5724	0.6953	-0.335
Mof_H 	H 	0.7654	0.5524	0.7148	0.114
Mof_C 	C 	0.7299	0.5931	0.568	0.332
Mof_H 	H 	0.6562	0.586	0.4996	-0.079
Mof_C 	C 	0.8804	0.6237	0.6286	-0.344
Mof_H 	H 	0.9112	0.6397	0.6021	0.14
Mof_C 	C 	0.9453	0.5984	0.763	0.328
Mof_H 	H 	0.0201	0.5974	0.827	-0.123
Mof_N 	N 	0.8659	0.9399	0.002	-0.239
Mof_C 	C 	0.7925	0.9131	0.884	0.04
Mof_H 	H 	0.7766	0.919	0.7985	-0.003
Mof_C 	C 	0.7382	0.877	0.8804	-0.02
Mof_H 	H 	0.6872	0.8586	0.7941	0.027
Mof_C 	C 	0.7587	0.868	0.0028	0.012
Mof_C 	C 	0.8319	0.897	0.123	0.023
Mof_H 	H 	0.848	0.8926	0.209	0.019
Mof_C 	C 	0.8813	0.9323	0.116	0.074
Mof_H 	H 	0.9295	0.9524	0.1991	-0.012
Mof_C 	C 	0.6973	0.8334	0.0042	-0.004
Mof_C 	C 	0.5913	0.8433	0.918	-0.064
Mof_H 	H 	0.5601	0.871	0.8586	0.072
Mof_C 	C 	0.5318	0.8132	0.9174	-0.011
Mof_H 	H 	0.4588	0.8206	0.8552	0.019
Mof_C 	C 	0.5711	0.7723	0.0026	0.069
Mof_C 	C 	0.6813	0.7655	0.1007	-0.056
Mof_H 	H 	0.7142	0.74	0.1687	0.038
Mof_C 	C 	0.743	0.7948	0.1008	-0.041
Mof_H 	H 	0.8169	0.7887	0.1668	0.037
Mof_C 	C 	0.4328	0.7092	0.8615	0.119
Mof_C 	C 	0.3816	0.6693	0.8488	-0.059
Mof_H 	H 	0.3845	0.6618	0.9226	0.052
Mof_C 	C 	0.326	0.6404	0.7261	-0.045
Mof_H 	H 	0.3041	0.6101	0.7277	0.038
Mof_C 	C 	0.3014	0.6531	0.6049	0.08
Mof_C 	C 	0.3625	0.6906	0.624	-0.043
Mof_H 	H 	0.3595	0.6968	0.5493	0.043
Mof_C 	C 	0.4288	0.7193	0.753	-0.077
Mof_H 	H 	0.469	0.7446	0.7641	0.052
Mof_C 	C 	0.2351	0.6246	0.4686	-0.117
Mof_C 	C 	0.1637	0.5914	0.43	0.645
Mof_H 	H 	0.1569	0.5841	0.4938	-0.182
Mof_C 	C 	0.1046	0.5697	0.3042	-0.605
Mof_H 	H 	0.0584	0.5463	0.2859	0.187
Mof_N 	N 	0.0994	0.5754	0.1992	-0.206
Mof_C 	C 	0.1815	0.6023	0.24	0.604
Mof_H 	H 	0.1889	0.6046	0.1754	-0.237
Mof_C 	C 	0.2555	0.6268	0.377	-0.582
Mof_H 	H 	0.3144	0.6436	0.4074	0.217
Mof_H 	H 	0.903	0.8603	0.2164	0.062
Mof_H 	H 	0.9871	0.9214	0.2078	0.031
Mof_C 	C 	0.7654	0.9282	0.883	0.006
Mof_C 	C 	0.7106	0.8927	0.878	-0.055
Mof_C 	C 	0.8651	0.8778	0.1288	-0.121
Mof_C 	C 	0.9148	0.9145	0.1221	-0.046
Mof_H 	H 	0.7293	0.9457	0.7957	0.007
Mof_H 	H 	0.6398	0.8854	0.7882	0.039
Mof_C 	C 	0.6787	0.8411	0.088	-0.053
Mof_H 	H 	0.7114	0.8678	0.1517	0.075
Mof_C 	C 	0.6162	0.8128	0.0871	-0.077
Mof_H 	H 	0.6038	0.8211	0.1444	0.041
Mof_C 	C 	0.5829	0.764	0.9082	-0.078
Mof_H 	H 	0.5514	0.7371	0.8456	0.049
Mof_C 	C 	0.639	0.7946	0.9093	0.017
Mof_H 	H 	0.6401	0.7899	0.8383	0.02
Mof_C 	C 	0.4624	0.6667	0.8553	-0.063
Mof_H 	H 	0.5299	0.6547	0.9414	0.054
Mof_C 	C 	0.3999	0.6397	0.7308	-0.046
Mof_H 	H 	0.4269	0.6104	0.7332	0.038
Mof_C 	C 	0.2532	0.6891	0.618	-0.046
Mof_H 	H 	0.1783	0.6933	0.5451	0.04
Mof_C 	C 	0.3224	0.7191	0.7486	-0.07
Mof_H 	H 	0.2937	0.745	0.7575	0.048
Mof_C 	C 	0.2035	0.5724	0.3047	-0.591
Mof_H 	H 	0.2346	0.5524	0.2852	0.19
Mof_C 	C 	0.2701	0.5931	0.432	0.587
Mof_H 	H 	0.3438	0.586	0.5004	-0.161
Mof_C 	C 	0.1196	0.6237	0.3714	-0.637
Mof_H 	H 	0.0888	0.6397	0.3979	0.23
Mof_C 	C 	0.0547	0.5984	0.237	0.597
Mof_H 	H 	0.9799	0.5974	0.173	-0.221
Mof_N 	N 	0.8659	0.0601	0.002	-0.237
Mof_C 	C 	0.7925	0.0869	0.884	0.041
Mof_H 	H 	0.7766	0.081	0.7985	-0.003
Mof_C 	C 	0.7382	0.123	0.8804	-0.019
Mof_H 	H 	0.6872	0.1414	0.7941	0.027
Mof_C 	C 	0.7587	0.132	0.0028	0.012
Mof_C 	C 	0.8319	0.103	0.123	0.028
Mof_H 	H 	0.848	0.1074	0.209	0.018
Mof_C 	C 	0.8813	0.0677	0.116	0.078
Mof_H 	H 	0.9295	0.0476	0.1991	-0.011
Mof_C 	C 	0.6973	0.1666	0.0042	-0.004
Mof_C 	C 	0.5913	0.1567	0.918	-0.064
Mof_H 	H 	0.5601	0.129	0.8586	0.072
Mof_C 	C 	0.5318	0.1868	0.9174	-0.011
Mof_H 	H 	0.4588	0.1794	0.8552	0.019
Mof_C 	C 	0.5711	0.2277	0.0026	0.069
Mof_C 	C 	0.6813	0.2345	0.1007	-0.056
Mof_H 	H 	0.7142	0.26	0.1687	0.038
Mof_C 	C 	0.743	0.2052	0.1008	-0.041
Mof_H 	H 	0.8169	0.2113	0.1668	0.037
Mof_C 	C 	0.4328	0.2908	0.8615	0.119
Mof_C 	C 	0.3816	0.3307	0.8488	-0.059
Mof_H 	H 	0.3845	0.3382	0.9226	0.052
Mof_C 	C 	0.326	0.3596	0.7261	-0.045
Mof_H 	H 	0.3041	0.3899	0.7277	0.038
Mof_C 	C 	0.3014	0.3469	0.6049	0.08
Mof_C 	C 	0.3625	0.3094	0.624	-0.043
Mof_H 	H 	0.3595	0.3032	0.5493	0.043
Mof_C 	C 	0.4288	0.2807	0.753	-0.077
Mof_H 	H 	0.469	0.2554	0.7641	0.052
Mof_C 	C 	0.2351	0.3754	0.4686	-0.117
Mof_C 	C 	0.1637	0.4086	0.43	0.645
Mof_H 	H 	0.1569	0.4159	0.4938	-0.182
Mof_C 	C 	0.1046	0.4303	0.3042	-0.605
Mof_H 	H 	0.0584	0.4537	0.2859	0.187
Mof_N 	N 	0.0994	0.4246	0.1992	-0.206
Mof_C 	C 	0.1815	0.3977	0.24	0.604
Mof_H 	H 	0.1889	0.3954	0.1754	-0.237
Mof_C 	C 	0.2555	0.3732	0.377	-0.582
Mof_H 	H 	0.3144	0.3564	0.4074	0.217
Mof_H 	H 	0.903	0.1397	0.2164	0.063
Mof_H 	H 	0.9871	0.0786	0.2078	0.033
Mof_C 	C 	0.7654	0.0718	0.883	0.005
Mof_C 	C 	0.7106	0.1073	0.878	-0.055
Mof_C 	C 	0.8651	0.1222	0.1288	-0.125
Mof_C 	C 	0.9148	0.0855	0.1221	-0.05
Mof_H 	H 	0.7293	0.0543	0.7957	0.009
Mof_H 	H 	0.6398	0.1146	0.7882	0.039
Mof_C 	C 	0.6787	0.1589	0.088	-0.053
Mof_H 	H 	0.7114	0.1322	0.1517	0.075
Mof_C 	C 	0.6162	0.1872	0.0871	-0.077
Mof_H 	H 	0.6038	0.1789	0.1444	0.041
Mof_C 	C 	0.5829	0.236	0.9082	-0.078
Mof_H 	H 	0.5514	0.2629	0.8456	0.049
Mof_C 	C 	0.639	0.2054	0.9093	0.017
Mof_H 	H 	0.6401	0.2101	0.8383	0.02
Mof_C 	C 	0.4624	0.3333	0.8553	-0.063
Mof_H 	H 	0.5299	0.3453	0.9414	0.054
Mof_C 	C 	0.3999	0.3603	0.7308	-0.046
Mof_H 	H 	0.4269	0.3896	0.7332	0.038
Mof_C 	C 	0.2532	0.3109	0.618	-0.046
Mof_H 	H 	0.1783	0.3067	0.5451	0.04
Mof_C 	C 	0.3224	0.2809	0.7486	-0.07
Mof_H 	H 	0.2937	0.255	0.7575	0.048
Mof_C 	C 	0.2035	0.4276	0.3047	-0.591
Mof_H 	H 	0.2346	0.4476	0.2852	0.19
Mof_C 	C 	0.2701	0.4069	0.432	0.587
Mof_H 	H 	0.3438	0.414	0.5004	-0.161
Mof_C 	C 	0.1196	0.3763	0.3714	-0.637
Mof_H 	H 	0.0888	0.3603	0.3979	0.229
Mof_C 	C 	0.0547	0.4016	0.237	0.597
Mof_H 	H 	0.9799	0.4026	0.173	-0.221
Mof_N 	N 	0.1341	0.0601	0.998	-0.219
Mof_C 	C 	0.2075	0.0869	0.116	0.015
Mof_H 	H 	0.2234	0.081	0.2015	-0
Mof_C 	C 	0.2618	0.123	0.1196	-0.057
Mof_H 	H 	0.3128	0.1414	0.2059	0.036
Mof_C 	C 	0.2413	0.132	0.9972	0.06
Mof_C 	C 	0.1681	0.103	0.877	0.002
Mof_H 	H 	0.152	0.1074	0.791	0.023
Mof_C 	C 	0.1187	0.0677	0.884	0.072
Mof_H 	H 	0.0705	0.0476	0.8009	-0.015
Mof_C 	C 	0.3027	0.1666	0.9958	0.022
Mof_C 	C 	0.4087	0.1567	0.082	-0.1
Mof_H 	H 	0.4399	0.129	0.1414	0.079
Mof_C 	C 	0.4682	0.1868	0.0826	-0.059
Mof_H 	H 	0.5412	0.1794	0.1448	0.034
Mof_C 	C 	0.4289	0.2277	0.9974	0.159
Mof_C 	C 	0.3187	0.2345	0.8993	-0.067
Mof_H 	H 	0.2858	0.26	0.8313	0.044
Mof_C 	C 	0.257	0.2052	0.8992	-0.031
Mof_H 	H 	0.1831	0.2113	0.8332	0.032
Mof_C 	C 	0.5672	0.2908	0.1385	0.104
Mof_C 	C 	0.6184	0.3307	0.1512	-0.064
Mof_H 	H 	0.6155	0.3382	0.0774	0.036
Mof_C 	C 	0.674	0.3596	0.2739	-0.026
Mof_H 	H 	0.6959	0.3899	0.2723	0.031
Mof_C 	C 	0.6986	0.3469	0.3951	0.036
Mof_C 	C 	0.6375	0.3094	0.376	-0.027
Mof_H 	H 	0.6405	0.3032	0.4507	0.035
Mof_C 	C 	0.5712	0.2807	0.247	-0.085
Mof_H 	H 	0.531	0.2554	0.2359	0.053
Mof_C 	C 	0.7649	0.3754	0.5314	-0.034
Mof_C 	C 	0.8363	0.4086	0.57	0.271
Mof_H 	H 	0.8431	0.4159	0.5062	-0.056
Mof_C 	C 	0.8954	0.4303	0.6958	-0.278
Mof_H 	H 	0.9416	0.4537	0.7141	0.105
Mof_N 	N 	0.9006	0.4246	0.8008	-0.216
Mof_C 	C 	0.8185	0.3977	0.76	0.353
Mof_H 	H 	0.8111	0.3954	0.8246	-0.126
Mof_C 	C 	0.7445	0.3732	0.623	-0.383
Mof_H 	H 	0.6856	0.3564	0.5926	0.149
Mof_H 	H 	0.097	0.1397	0.7836	0.053
Mof_H 	H 	0.0129	0.0786	0.7922	0.006
Mof_C 	C 	0.2346	0.0718	0.117	0.006
Mof_C 	C 	0.2894	0.1073	0.122	-0.064
Mof_C 	C 	0.1349	0.1222	0.8712	-0.113
Mof_C 	C 	0.0852	0.0855	0.8779	-0.027
Mof_H 	H 	0.2707	0.0543	0.2043	0.005
Mof_H 	H 	0.3602	0.1146	0.2118	0.04
Mof_C 	C 	0.3213	0.1589	0.912	-0.02
Mof_H 	H 	0.2886	0.1322	0.8483	0.064
Mof_C 	C 	0.3838	0.1872	0.9129	-0.091
Mof_H 	H 	0.3962	0.1789	0.8556	0.052
Mof_C 	C 	0.4171	0.236	0.0918	-0.134
Mof_H 	H 	0.4486	0.2629	0.1544	0.064
Mof_C 	C 	0.361	0.2054	0.0907	0.008
Mof_H 	H 	0.3599	0.2101	0.1617	0.017
Mof_C 	C 	0.5376	0.3333	0.1447	-0.057
Mof_H 	H 	0.4701	0.3453	0.0586	0.033
Mof_C 	C 	0.6001	0.3603	0.2692	-0.042
Mof_H 	H 	0.5731	0.3896	0.2668	0.036
Mof_C 	C 	0.7468	0.3109	0.382	-0.039
Mof_H 	H 	0.8217	0.3067	0.4549	0.04
Mof_C 	C 	0.6776	0.2809	0.2514	-0.067
Mof_H 	H 	0.7063	0.255	0.2425	0.05
Mof_C 	C 	0.7965	0.4276	0.6953	-0.335
Mof_H 	H 	0.7654	0.4476	0.7148	0.114
Mof_C 	C 	0.7299	0.4069	0.568	0.332
Mof_H 	H 	0.6562	0.414	0.4996	-0.079
Mof_C 	C 	0.8804	0.3763	0.6286	-0.344
Mof_H 	H 	0.9112	0.3603	0.6021	0.14
Mof_C 	C 	0.9453	0.4016	0.763	0.328
Mof_H 	H 	0.0201	0.4026	0.827	-0.123
Mof_C 	C 	0.5	0.741	-0	-0.161
Mof_C 	C 	0.5	0.259	-0	-0.161
Mof_Cu	Cu	1.08817e-32	0.54592	-0	0.777
Mof_Cu	Cu	-0	0.45408	-0	0.777
Mof_Cu	Cu	0.07056	-5.44086e-33	0.9999	0.797
Mof_I 	I 	0.86669	-1.08817e-32	0.7443	-0.443
Mof_Cu	Cu	0.92944	-6.64168e-37	0.0001	0.792
Mof_I 	I 	0.13331	0	0.2557	-0.483
Mof_I 	I 	0.13968	0.5	0.01274	-0.464
Mof_I 	I 	0.86032	0.5	0.98726	-0.399
Mof_N 	N 	0.6341	0.4399	0.998	-0.218
Mof_C 	C 	0.7075	0.4131	0.116	0.019
Mof_H 	H 	0.7234	0.419	0.2015	0
Mof_C 	C 	0.7618	0.377	0.1196	-0.053
Mof_H 	H 	0.8128	0.3586	0.2059	0.036
Mof_C 	C 	0.7413	0.368	0.9972	0.064
Mof_C 	C 	0.6681	0.397	0.877	0.006
Mof_H 	H 	0.652	0.3926	0.791	0.024
Mof_C 	C 	0.6187	0.4323	0.884	0.074
Mof_H 	H 	0.5705	0.4524	0.8009	-0.013
Mof_C 	C 	0.8027	0.3334	0.9958	0.014
Mof_C 	C 	0.9087	0.3433	0.082	-0.154
Mof_H 	H 	0.9399	0.371	0.1414	0.109
Mof_C 	C 	0.9682	0.3132	0.0826	0.007
Mof_H 	H 	0.0412	0.3206	0.1448	0.003
Mof_C 	C 	0.9289	0.2723	0.9974	0.187
Mof_C 	C 	0.8187	0.2655	0.8993	-0.053
Mof_H 	H 	0.7858	0.24	0.8313	0.041
Mof_C 	C 	0.757	0.2948	0.8992	-0.052
Mof_H 	H 	0.6831	0.2887	0.8332	0.041
Mof_C 	C 	0.0672	0.2092	0.1385	0.13
Mof_C 	C 	0.1184	0.1693	0.1512	-0.003
Mof_H 	H 	0.1155	0.1618	0.0774	0.017
Mof_C 	C 	0.174	0.1404	0.2739	-0.096
Mof_H 	H 	0.1959	0.1101	0.2723	0.054
Mof_C 	C 	0.1986	0.1531	0.3951	0.045
Mof_C 	C 	0.1375	0.1906	0.376	-0.052
Mof_H 	H 	0.1405	0.1968	0.4507	0.043
Mof_C 	C 	0.0712	0.2193	0.247	-0.067
Mof_H 	H 	0.031	0.2446	0.2359	0.035
Mof_C 	C 	0.2649	0.1246	0.5314	-0.073
Mof_C 	C 	0.3363	0.0914	0.57	0.463
Mof_H 	H 	0.3431	0.0841	0.5062	-0.12
Mof_C 	C 	0.3954	0.0697	0.6958	-0.448
Mof_H 	H 	0.4416	0.0463	0.7141	0.151
Mof_N 	N 	0.4006	0.0754	0.8008	-0.208
Mof_C 	C 	0.3185	0.1023	0.76	0.485
Mof_H 	H 	0.3111	0.1046	0.8246	-0.182
Mof_C 	C 	0.2445	0.1268	0.623	-0.489
Mof_H 	H 	0.1856	0.1436	0.5926	0.183
Mof_H 	H 	0.597	0.3603	0.7836	0.058
Mof_H 	H 	0.5129	0.4214	0.7922	0.017
Mof_C 	C 	0.7346	0.4282	0.117	0.001
Mof_C 	C 	0.7894	0.3927	0.122	-0.07
Mof_C 	C 	0.6349	0.3778	0.8712	-0.118
Mof_C 	C 	0.5852	0.4145	0.8779	-0.031
Mof_H 	H 	0.7707	0.4457	0.2043	0.006
Mof_H 	H 	0.8602	0.3854	0.2118	0.044
Mof_C 	C 	0.8213	0.3411	0.912	0.035
Mof_H 	H 	0.7886	0.3678	0.8483	0.034
Mof_C 	C 	0.8838	0.3128	0.9129	-0.142
Mof_H 	H 	0.8962	0.3211	0.8556	0.068
Mof_C 	C 	0.9171	0.264	0.0918	-0.178
Mof_H 	H 	0.9486	0.2371	0.1544	0.091
Mof_C 	C 	0.861	0.2946	0.0907	0.048
Mof_H 	H 	0.8599	0.2899	0.1617	0.006
Mof_C 	C 	0.0376	0.1667	0.1447	-0.16
Mof_H 	H 	0.9701	0.1547	0.0586	0.077
Mof_C 	C 	0.1001	0.1397	0.2692	0.039
Mof_H 	H 	0.0731	0.1104	0.2668	0.001
Mof_C 	C 	0.2468	0.1891	0.382	-0.01
Mof_H 	H 	0.3217	0.1933	0.4549	0.029
Mof_C 	C 	0.1776	0.2191	0.2514	-0.104
Mof_H 	H 	0.2063	0.245	0.2425	0.062
Mof_C 	C 	0.2965	0.0724	0.6953	-0.47
Mof_H 	H 	0.2654	0.0524	0.7148	0.153
Mof_C 	C 	0.2299	0.0931	0.568	0.466
Mof_H 	H 	0.1562	0.086	0.4996	-0.124
Mof_C 	C 	0.3804	0.1237	0.6286	-0.496
Mof_H 	H 	0.4112	0.1397	0.6021	0.187
Mof_C 	C 	0.4453	0.0984	0.763	0.468
Mof_H 	H 	0.5201	0.0974	0.827	-0.17
Mof_N 	N 	0.3659	0.4399	0.002	-0.24
Mof_C 	C 	0.2925	0.4131	0.884	0.037
Mof_H 	H 	0.2766	0.419	0.7985	-0.003
Mof_C 	C 	0.2382	0.377	0.8804	-0.025
Mof_H 	H 	0.1872	0.3586	0.7941	0.027
Mof_C 	C 	0.2587	0.368	0.0028	0.018
Mof_C 	C 	0.3319	0.397	0.123	0.017
Mof_H 	H 	0.348	0.3926	0.209	0.019
Mof_C 	C 	0.3813	0.4323	0.116	0.074
Mof_H 	H 	0.4295	0.4524	0.1991	-0.014
Mof_C 	C 	0.1973	0.3334	0.0042	-0.02
Mof_C 	C 	0.0913	0.3433	0.918	0
Mof_H 	H 	0.0601	0.371	0.8586	0.038
Mof_C 	C 	0.0318	0.3132	0.9174	-0.091
Mof_H 	H 	0.9588	0.3206	0.8552	0.055
Mof_C 	C 	0.0711	0.2723	0.0026	0.097
Mof_C 	C 	0.1813	0.2655	0.1007	-0.09
Mof_H 	H 	0.2142	0.24	0.1687	0.047
Mof_C 	C 	0.243	0.2948	0.1008	-0.007
Mof_H 	H 	0.3169	0.2887	0.1668	0.023
Mof_C 	C 	0.9328	0.2092	0.8615	0.148
Mof_C 	C 	0.8816	0.1693	0.8488	-0.122
Mof_H 	H 	0.8845	0.1618	0.9226	0.07
Mof_C 	C 	0.826	0.1404	0.7261	0.022
Mof_H 	H 	0.8041	0.1101	0.7277	0.017
Mof_C 	C 	0.8014	0.1531	0.6049	0.051
Mof_C 	C 	0.8625	0.1906	0.624	-0.006
Mof_H 	H 	0.8595	0.1968	0.5493	0.032
Mof_C 	C 	0.9288	0.2193	0.753	-0.115
Mof_H 	H 	0.969	0.2446	0.7641	0.076
Mof_C 	C 	0.7351	0.1246	0.4686	-0.07
Mof_C 	C 	0.6637	0.0914	0.43	0.453
Mof_H 	H 	0.6569	0.0841	0.4938	-0.117
Mof_C 	C 	0.6046	0.0697	0.3042	-0.437
Mof_H 	H 	0.5584	0.0463	0.2859	0.142
Mof_N 	N 	0.5994	0.0754	0.1992	-0.216
Mof_C 	C 	0.6815	0.1023	0.24	0.478
Mof_H 	H 	0.6889	0.1046	0.1754	-0.186
Mof_C 	C 	0.7555	0.1268	0.377	-0.481
Mof_H 	H 	0.8144	0.1436	0.4074	0.185
Mof_H 	H 	0.403	0.3603	0.2164	0.058
Mof_H 	H 	0.4871	0.4214	0.2078	0.02
Mof_C 	C 	0.2654	0.4282	0.883	0.01
Mof_C 	C 	0.2106	0.3927	0.878	-0.052
Mof_C 	C 	0.3651	0.3778	0.1288	-0.119
Mof_C 	C 	0.4148	0.4145	0.1221	-0.043
Mof_H 	H 	0.2293	0.4457	0.7957	0.006
Mof_H 	H 	0.1398	0.3854	0.7882	0.036
Mof_C 	C 	0.1787	0.3411	0.088	-0.088
Mof_H 	H 	0.2114	0.3678	0.1517	0.097
Mof_C 	C 	0.1162	0.3128	0.0871	-0.051
Mof_H 	H 	0.1038	0.3211	0.1444	0.034
Mof_C 	C 	0.0829	0.264	0.9082	-0.063
Mof_H 	H 	0.0514	0.2371	0.8456	0.033
Mof_C 	C 	0.139	0.2946	0.9093	-0.001
Mof_H 	H 	0.1401	0.2899	0.8383	0.024
Mof_C 	C 	0.9624	0.1667	0.8553	0.003
Mof_H 	H 	0.0299	0.1547	0.9414	0.024
Mof_C 	C 	0.8999	0.1397	0.7308	-0.098
Mof_H 	H 	0.9269	0.1104	0.7332	0.064
Mof_C 	C 	0.7532	0.1891	0.618	-0.056
Mof_H 	H 	0.6783	0.1933	0.5451	0.044
Mof_C 	C 	0.8224	0.2191	0.7486	-0.06
Mof_H 	H 	0.7937	0.245	0.7575	0.046
Mof_C 	C 	0.7035	0.0724	0.3047	-0.458
Mof_H 	H 	0.7346	0.0524	0.2852	0.151
Mof_C 	C 	0.7701	0.0931	0.432	0.453
Mof_H 	H 	0.8438	0.086	0.5004	-0.115
Mof_C 	C 	0.6196	0.1237	0.3714	-0.49
Mof_H 	H 	0.5888	0.1397	0.3979	0.185
Mof_C 	C 	0.5547	0.0984	0.237	0.462
Mof_H 	H 	0.4799	0.0974	0.173	-0.178
Mof_N 	N 	0.3659	0.5601	0.002	-0.24
Mof_C 	C 	0.2925	0.5869	0.884	0.037
Mof_H 	H 	0.2766	0.581	0.7985	-0.003
Mof_C 	C 	0.2382	0.623	0.8804	-0.025
Mof_H 	H 	0.1872	0.6414	0.7941	0.027
Mof_C 	C 	0.2587	0.632	0.0028	0.018
Mof_C 	C 	0.3319	0.603	0.123	0.017
Mof_H 	H 	0.348	0.6074	0.209	0.019
Mof_C 	C 	0.3813	0.5677	0.116	0.074
Mof_H 	H 	0.4295	0.5476	0.1991	-0.014
Mof_C 	C 	0.1973	0.6666	0.0042	-0.02
Mof_C 	C 	0.0913	0.6567	0.918	-0
Mof_H 	H 	0.0601	0.629	0.8586	0.038
Mof_C 	C 	0.0318	0.6868	0.9174	-0.091
Mof_H 	H 	0.9588	0.6794	0.8552	0.054
Mof_C 	C 	0.0711	0.7277	0.0026	0.097
Mof_C 	C 	0.1813	0.7345	0.1007	-0.09
Mof_H 	H 	0.2142	0.76	0.1687	0.047
Mof_C 	C 	0.243	0.7052	0.1008	-0.008
Mof_H 	H 	0.3169	0.7113	0.1668	0.023
Mof_C 	C 	0.9328	0.7908	0.8615	0.148
Mof_C 	C 	0.8816	0.8307	0.8488	-0.122
Mof_H 	H 	0.8845	0.8382	0.9226	0.07
Mof_C 	C 	0.826	0.8596	0.7261	0.022
Mof_H 	H 	0.8041	0.8899	0.7277	0.016
Mof_C 	C 	0.8014	0.8469	0.6049	0.05
Mof_C 	C 	0.8625	0.8094	0.624	-0.005
Mof_H 	H 	0.8595	0.8032	0.5493	0.032
Mof_C 	C 	0.9288	0.7807	0.753	-0.115
Mof_H 	H 	0.969	0.7554	0.7641	0.076
Mof_C 	C 	0.7351	0.8754	0.4686	-0.07
Mof_C 	C 	0.6637	0.9086	0.43	0.453
Mof_H 	H 	0.6569	0.9159	0.4938	-0.118
Mof_C 	C 	0.6046	0.9303	0.3042	-0.438
Mof_H 	H 	0.5584	0.9537	0.2859	0.14
Mof_N 	N 	0.5994	0.9246	0.1992	-0.217
Mof_C 	C 	0.6815	0.8977	0.24	0.478
Mof_H 	H 	0.6889	0.8954	0.1754	-0.186
Mof_C 	C 	0.7555	0.8732	0.377	-0.481
Mof_H 	H 	0.8144	0.8564	0.4074	0.185
Mof_H 	H 	0.403	0.6397	0.2164	0.058
Mof_H 	H 	0.4871	0.5786	0.2078	0.02
Mof_C 	C 	0.2654	0.5718	0.883	0.01
Mof_C 	C 	0.2106	0.6073	0.878	-0.052
Mof_C 	C 	0.3651	0.6222	0.1288	-0.119
Mof_C 	C 	0.4148	0.5855	0.1221	-0.043
Mof_H 	H 	0.2293	0.5543	0.7957	0.006
Mof_H 	H 	0.1398	0.6146	0.7882	0.036
Mof_C 	C 	0.1787	0.6589	0.088	-0.088
Mof_H 	H 	0.2114	0.6322	0.1517	0.097
Mof_C 	C 	0.1162	0.6872	0.0871	-0.051
Mof_H 	H 	0.1038	0.6789	0.1444	0.034
Mof_C 	C 	0.0829	0.736	0.9082	-0.063
Mof_H 	H 	0.0514	0.7629	0.8456	0.033
Mof_C 	C 	0.139	0.7054	0.9093	-0.001
Mof_H 	H 	0.1401	0.7101	0.8383	0.024
Mof_C 	C 	0.9624	0.8333	0.8553	0.003
Mof_H 	H 	0.0299	0.8453	0.9414	0.024
Mof_C 	C 	0.8999	0.8603	0.7308	-0.098
Mof_H 	H 	0.9269	0.8896	0.7332	0.063
Mof_C 	C 	0.7532	0.8109	0.618	-0.056
Mof_H 	H 	0.6783	0.8067	0.5451	0.044
Mof_C 	C 	0.8224	0.7809	0.7486	-0.061
Mof_H 	H 	0.7937	0.755	0.7575	0.046
Mof_C 	C 	0.7035	0.9276	0.3047	-0.459
Mof_H 	H 	0.7346	0.9476	0.2852	0.15
Mof_C 	C 	0.7701	0.9069	0.432	0.453
Mof_H 	H 	0.8438	0.914	0.5004	-0.115
Mof_C 	C 	0.6196	0.8763	0.3714	-0.49
Mof_H 	H 	0.5888	0.8603	0.3979	0.185
Mof_C 	C 	0.5547	0.9016	0.237	0.463
Mof_H 	H 	0.4799	0.9026	0.173	-0.179
Mof_N 	N 	0.6341	0.5601	0.998	-0.218
Mof_C 	C 	0.7075	0.5869	0.116	0.019
Mof_H 	H 	0.7234	0.581	0.2015	0
Mof_C 	C 	0.7618	0.623	0.1196	-0.053
Mof_H 	H 	0.8128	0.6414	0.2059	0.036
Mof_C 	C 	0.7413	0.632	0.9972	0.064
Mof_C 	C 	0.6681	0.603	0.877	0.006
Mof_H 	H 	0.652	0.6074	0.791	0.024
Mof_C 	C 	0.6187	0.5677	0.884	0.074
Mof_H 	H 	0.5705	0.5476	0.8009	-0.013
Mof_C 	C 	0.8027	0.6666	0.9958	0.014
Mof_C 	C 	0.9087	0.6567	0.082	-0.154
Mof_H 	H 	0.9399	0.629	0.1414	0.109
Mof_C 	C 	0.9682	0.6868	0.0826	0.008
Mof_H 	H 	0.0412	0.6794	0.1448	0.003
Mof_C 	C 	0.9289	0.7277	0.9974	0.187
Mof_C 	C 	0.8187	0.7345	0.8993	-0.053
Mof_H 	H 	0.7858	0.76	0.8313	0.041
Mof_C 	C 	0.757	0.7052	0.8992	-0.052
Mof_H 	H 	0.6831	0.7113	0.8332	0.041
Mof_C 	C 	0.0672	0.7908	0.1385	0.131
Mof_C 	C 	0.1184	0.8307	0.1512	-0.003
Mof_H 	H 	0.1155	0.8382	0.0774	0.017
Mof_C 	C 	0.174	0.8596	0.2739	-0.096
Mof_H 	H 	0.1959	0.8899	0.2723	0.053
Mof_C 	C 	0.1986	0.8469	0.3951	0.045
Mof_C 	C 	0.1375	0.8094	0.376	-0.052
Mof_H 	H 	0.1405	0.8032	0.4507	0.043
Mof_C 	C 	0.0712	0.7807	0.247	-0.067
Mof_H 	H 	0.031	0.7554	0.2359	0.035
Mof_C 	C 	0.2649	0.8754	0.5314	-0.072
Mof_C 	C 	0.3363	0.9086	0.57	0.462
Mof_H 	H 	0.3431	0.9159	0.5062	-0.121
Mof_C 	C 	0.3954	0.9303	0.6958	-0.448
Mof_H 	H 	0.4416	0.9537	0.7141	0.149
Mof_N 	N 	0.4006	0.9246	0.8008	-0.209
Mof_C 	C 	0.3185	0.8977	0.76	0.486
Mof_H 	H 	0.3111	0.8954	0.8246	-0.183
Mof_C 	C 	0.2445	0.8732	0.623	-0.489
Mof_H 	H 	0.1856	0.8564	0.5926	0.183
Mof_H 	H 	0.597	0.6397	0.7836	0.058
Mof_H 	H 	0.5129	0.5786	0.7922	0.017
Mof_C 	C 	0.7346	0.5718	0.117	0.001
Mof_C 	C 	0.7894	0.6073	0.122	-0.07
Mof_C 	C 	0.6349	0.6222	0.8712	-0.118
Mof_C 	C 	0.5852	0.5855	0.8779	-0.031
Mof_H 	H 	0.7707	0.5543	0.2043	0.006
Mof_H 	H 	0.8602	0.6146	0.2118	0.044
Mof_C 	C 	0.8213	0.6589	0.912	0.035
Mof_H 	H 	0.7886	0.6322	0.8483	0.034
Mof_C 	C 	0.8838	0.6872	0.9129	-0.142
Mof_H 	H 	0.8962	0.6789	0.8556	0.068
Mof_C 	C 	0.9171	0.736	0.0918	-0.178
Mof_H 	H 	0.9486	0.7629	0.1544	0.091
Mof_C 	C 	0.861	0.7054	0.0907	0.048
Mof_H 	H 	0.8599	0.7101	0.1617	0.006
Mof_C 	C 	0.0376	0.8333	0.1447	-0.161
Mof_H 	H 	0.9701	0.8453	0.0586	0.077
Mof_C 	C 	0.1001	0.8603	0.2692	0.039
Mof_H 	H 	0.0731	0.8896	0.2668	0.001
Mof_C 	C 	0.2468	0.8109	0.382	-0.01
Mof_H 	H 	0.3217	0.8067	0.4549	0.029
Mof_C 	C 	0.1776	0.7809	0.2514	-0.104
Mof_H 	H 	0.2063	0.755	0.2425	0.062
Mof_C 	C 	0.2965	0.9276	0.6953	-0.47
Mof_H 	H 	0.2654	0.9476	0.7148	0.152
Mof_C 	C 	0.2299	0.9069	0.568	0.465
Mof_H 	H 	0.1562	0.914	0.4996	-0.125
Mof_C 	C 	0.3804	0.8763	0.6286	-0.496
Mof_H 	H 	0.4112	0.8603	0.6021	0.187
Mof_C 	C 	0.4453	0.9016	0.763	0.469
Mof_H 	H 	0.5201	0.9026	0.827	-0.171
Mof_C 	C 	2.72043e-33	0.241	-0	-0.207
Mof_C 	C 	-0	0.759	-0	-0.207
Mof_Cu	Cu	0.5	0.04592	-0	0.784
Mof_Cu	Cu	0.5	0.95408	-0	0.782
Mof_Cu	Cu	0.57056	0.5	0.9999	0.801
Mof_I 	I 	0.36669	0.5	0.7443	-0.462
Mof_Cu	Cu	0.42944	0.5	0.0001	0.786
Mof_I 	I 	0.63331	0.5	0.2557	-0.472
Mof_I 	I 	0.63968	-8.50135e-35	0.01274	-0.451
Mof_I 	I 	0.36032	0	0.98726	-0.408
_end
