# CIF file generated by openbabel 3.1.0, see https://openbabel.org
data_I
_chemical_name_common 'image0'
_cell_length_a 18.3638
_cell_length_b 10.9135
_cell_length_c 18.8942
_cell_angle_alpha 90
_cell_angle_beta 108.374
_cell_angle_gamma 90
_space_group_name_H-M_alt 'P 1'
_space_group_name_Hall 'P 1'
loop_
    _symmetry_equiv_pos_as_xyz
    x,y,z
loop_
    _atom_site_label
    _atom_site_type_symbol
    _atom_site_fract_x
    _atom_site_fract_y
    _atom_site_fract_z
    _atom_site_occupancy
    Co1      Co       0.18635    0.29472    0.47069    1.000
    Co2      Co       0.28547    0.29775    0.37667    1.000
    O1       O        0.11172    0.30150    0.36397    1.000
    O2       O        0.18544    0.30570    0.28995    1.000
    O3       O        0.25962    0.11770    0.38731    1.000
    O4       O        0.18782    0.11060    0.46227    1.000
    O5       O        0.28131    0.48150    0.39262    1.000
    O6       O        0.20443    0.47910    0.46415    1.000
    O7       O        0.78904    0.21490    0.05285    1.000
    O8       O        0.86467    0.21790    0.98065    1.000
    N1       N        0.10528    0.32570    0.52198    1.000
    N2       N        0.04164    0.40470    0.59159    1.000
    N3       N        0.92651    0.22620    0.73942    1.000
    N4       N        0.86057    0.18730    0.81585    1.000
    C1       C        0.12169    0.29680    0.30130    1.000
    C2       C        0.22508    0.06140    0.42456    1.000
    C3       C        0.23038    0.92500    0.42573    1.000
    C4       C        0.20920    0.85850    0.47964    1.000
    H1       H        0.19050    0.89960    0.51410    1.000
    C5       C        0.25712    0.86310    0.37473    1.000
    H2       H        0.27140    0.90750    0.33860    1.000
    C6       C        0.24353    0.53280    0.42987    1.000
    C7       C        0.24215    0.66990    0.43074    1.000
    C8       C        0.21584    0.73210    0.48200    1.000
    H3       H        0.20240    0.68790    0.51870    1.000
    C9       C        0.26292    0.73610    0.37662    1.000
    H4       H        0.28070    0.69480    0.34160    1.000
    C10      C        0.05139    0.27930    0.23478    1.000
    C11      C        0.05623    0.29140    0.16288    1.000
    H5       H        0.10360    0.31070    0.15630    1.000
    C12      C        0.99172    0.27530    0.10106    1.000
    H6       H        0.99560    0.28390    0.05290    1.000
    C13      C        0.92127    0.24640    0.11001    1.000
    C14      C        0.85334    0.22500    0.04217    1.000
    C15      C        0.91633    0.23560    0.18126    1.000
    H7       H        0.86890    0.21660    0.18780    1.000
    C16      C        0.98067    0.25250    0.24322    1.000
    H8       H        0.97630    0.24580    0.29130    1.000
    C17      C        0.11166    0.38780    0.58426    1.000
    C18      C        0.98850    0.35210    0.53113    1.000
    H9       H        0.93510    0.35040    0.52110    1.000
    C19      C        0.02817    0.30380    0.48918    1.000
    H10      H        0.00650    0.26140    0.44410    1.000
    C20      C        0.02440    0.46780    0.65302    1.000
    H11      H        0.97620    0.51300    0.63310    1.000
    H12      H        0.06510    0.52750    0.67530    1.000
    C21      C        0.01770    0.38000    0.71364    1.000
    H13      H        0.06580    0.33430    0.73360    1.000
    H14      H        0.00930    0.42700    0.75450    1.000
    C22      C        0.95190    0.29060    0.68308    1.000
    H15      H        0.90810    0.33550    0.65000    1.000
    H16      H        0.96750    0.22940    0.65270    1.000
    C23      C        0.88330    0.27410    0.77845    1.000
    C24      C        0.89060    0.07830    0.79902    1.000
    H17      H        0.88360    0.00070    0.81750    1.000
    C25      C        0.93120    0.10060    0.75230    1.000
    H18      H        0.95750    0.04290    0.73250    1.000
    C26      C        0.86380    0.40640    0.77830    1.000
    H19      H        0.85600    0.44020    0.72890    1.000
    H20      H        0.90550    0.44960    0.81420    1.000
    H21      H        0.81730    0.41580    0.79160    1.000
    C27      C        0.18380    0.43430    0.63750    1.000
    H22      H        0.19480    0.39010    0.68420    1.000
    H23      H        0.17850    0.52100    0.64620    1.000
    H24      H        0.22550    0.42240    0.61700    1.000
    Co3      Co       0.68635    0.20528    0.97069    1.000
    Co4      Co       0.78547    0.20225    0.87667    1.000
    O9       O        0.61172    0.19850    0.86397    1.000
    O10      O        0.68544    0.19430    0.78995    1.000
    O11      O        0.75962    0.38230    0.88731    1.000
    O12      O        0.68782    0.38940    0.96227    1.000
    O13      O        0.78131    0.01850    0.89262    1.000
    O14      O        0.70443    0.02090    0.96415    1.000
    O15      O        0.28904    0.28510    0.55285    1.000
    O16      O        0.36467    0.28210    0.48065    1.000
    N5       N        0.60528    0.17430    0.02198    1.000
    N6       N        0.54164    0.09530    0.09159    1.000
    N7       N        0.42651    0.27380    0.23942    1.000
    N8       N        0.36057    0.31270    0.31585    1.000
    C28      C        0.62169    0.20320    0.80130    1.000
    C29      C        0.72508    0.43860    0.92456    1.000
    C30      C        0.73038    0.57500    0.92573    1.000
    C31      C        0.70920    0.64150    0.97964    1.000
    H25      H        0.69050    0.60040    0.01410    1.000
    C32      C        0.75712    0.63690    0.87473    1.000
    H26      H        0.77140    0.59250    0.83860    1.000
    C33      C        0.74353    0.96720    0.92987    1.000
    C34      C        0.74215    0.83010    0.93074    1.000
    C35      C        0.71584    0.76790    0.98200    1.000
    H27      H        0.70240    0.81210    0.01870    1.000
    C36      C        0.76292    0.76390    0.87662    1.000
    H28      H        0.78070    0.80520    0.84160    1.000
    C37      C        0.55139    0.22070    0.73478    1.000
    C38      C        0.55623    0.20860    0.66288    1.000
    H29      H        0.60360    0.18930    0.65630    1.000
    C39      C        0.49172    0.22470    0.60106    1.000
    H30      H        0.49560    0.21610    0.55290    1.000
    C40      C        0.42127    0.25360    0.61001    1.000
    C41      C        0.35334    0.27500    0.54217    1.000
    C42      C        0.41633    0.26440    0.68126    1.000
    H31      H        0.36890    0.28340    0.68780    1.000
    C43      C        0.48067    0.24750    0.74322    1.000
    H32      H        0.47630    0.25420    0.79130    1.000
    C44      C        0.61166    0.11220    0.08426    1.000
    C45      C        0.48850    0.14790    0.03113    1.000
    H33      H        0.43510    0.14960    0.02110    1.000
    C46      C        0.52817    0.19620    0.98918    1.000
    H34      H        0.50650    0.23860    0.94410    1.000
    C47      C        0.52440    0.03220    0.15302    1.000
    H35      H        0.47620    0.98700    0.13310    1.000
    H36      H        0.56510    0.97250    0.17530    1.000
    C48      C        0.51770    0.12000    0.21364    1.000
    H37      H        0.56580    0.16570    0.23360    1.000
    H38      H        0.50930    0.07300    0.25450    1.000
    C49      C        0.45190    0.20940    0.18308    1.000
    H39      H        0.40810    0.16450    0.15000    1.000
    H40      H        0.46750    0.27060    0.15270    1.000
    C50      C        0.38330    0.22590    0.27845    1.000
    C51      C        0.39060    0.42170    0.29902    1.000
    H41      H        0.38360    0.49930    0.31750    1.000
    C52      C        0.43120    0.39940    0.25230    1.000
    H42      H        0.45750    0.45710    0.23250    1.000
    C53      C        0.36380    0.09360    0.27830    1.000
    H43      H        0.35600    0.05980    0.22890    1.000
    H44      H        0.40550    0.05040    0.31420    1.000
    H45      H        0.31730    0.08420    0.29160    1.000
    C54      C        0.68380    0.06570    0.13750    1.000
    H46      H        0.69480    0.10990    0.18420    1.000
    H47      H        0.67850    0.97900    0.14620    1.000
    H48      H        0.72550    0.07760    0.11700    1.000
    Co5      Co       0.31365    0.79472    0.02931    1.000
    Co6      Co       0.21453    0.79775    0.12333    1.000
    O17      O        0.38828    0.80150    0.13603    1.000
    O18      O        0.31456    0.80570    0.21005    1.000
    O19      O        0.24038    0.61770    0.11269    1.000
    O20      O        0.31218    0.61060    0.03773    1.000
    O21      O        0.21869    0.98150    0.10738    1.000
    O22      O        0.29557    0.97910    0.03585    1.000
    O23      O        0.71096    0.71490    0.44715    1.000
    O24      O        0.63533    0.71790    0.51935    1.000
    N9       N        0.39472    0.82570    0.97802    1.000
    N10      N        0.45836    0.90470    0.90841    1.000
    N11      N        0.57349    0.72620    0.76058    1.000
    N12      N        0.63943    0.68730    0.68415    1.000
    C55      C        0.37831    0.79680    0.19870    1.000
    C56      C        0.27492    0.56140    0.07544    1.000
    C57      C        0.26962    0.42500    0.07427    1.000
    C58      C        0.29080    0.35850    0.02036    1.000
    H49      H        0.30950    0.39960    0.98590    1.000
    C59      C        0.24288    0.36310    0.12527    1.000
    H50      H        0.22860    0.40750    0.16140    1.000
    C60      C        0.25647    0.03280    0.07013    1.000
    C61      C        0.25785    0.16990    0.06926    1.000
    C62      C        0.28416    0.23210    0.01800    1.000
    H51      H        0.29760    0.18790    0.98130    1.000
    C63      C        0.23708    0.23610    0.12338    1.000
    H52      H        0.21930    0.19480    0.15840    1.000
    C64      C        0.44861    0.77930    0.26522    1.000
    C65      C        0.44377    0.79140    0.33712    1.000
    H53      H        0.39640    0.81070    0.34370    1.000
    C66      C        0.50828    0.77530    0.39894    1.000
    H54      H        0.50440    0.78390    0.44710    1.000
    C67      C        0.57873    0.74640    0.38999    1.000
    C68      C        0.64666    0.72500    0.45783    1.000
    C69      C        0.58367    0.73560    0.31874    1.000
    H55      H        0.63110    0.71660    0.31220    1.000
    C70      C        0.51933    0.75250    0.25678    1.000
    H56      H        0.52370    0.74580    0.20870    1.000
    C71      C        0.38834    0.88780    0.91574    1.000
    C72      C        0.51150    0.85210    0.96887    1.000
    H57      H        0.56490    0.85040    0.97890    1.000
    C73      C        0.47183    0.80380    0.01082    1.000
    H58      H        0.49350    0.76140    0.05590    1.000
    C74      C        0.47560    0.96780    0.84698    1.000
    H59      H        0.52380    0.01300    0.86690    1.000
    H60      H        0.43490    0.02750    0.82470    1.000
    C75      C        0.48230    0.88000    0.78636    1.000
    H61      H        0.43420    0.83430    0.76640    1.000
    H62      H        0.49070    0.92700    0.74550    1.000
    C76      C        0.54810    0.79060    0.81692    1.000
    H63      H        0.59190    0.83550    0.85000    1.000
    H64      H        0.53250    0.72940    0.84730    1.000
    C77      C        0.61670    0.77410    0.72155    1.000
    C78      C        0.60940    0.57830    0.70098    1.000
    H65      H        0.61640    0.50070    0.68250    1.000
    C79      C        0.56880    0.60060    0.74770    1.000
    H66      H        0.54250    0.54290    0.76750    1.000
    C80      C        0.63620    0.90640    0.72170    1.000
    H67      H        0.64400    0.94020    0.77110    1.000
    H68      H        0.59450    0.94960    0.68580    1.000
    H69      H        0.68270    0.91580    0.70840    1.000
    C81      C        0.31620    0.93430    0.86250    1.000
    H70      H        0.30520    0.89010    0.81580    1.000
    H71      H        0.32150    0.02100    0.85380    1.000
    H72      H        0.27450    0.92240    0.88300    1.000
    Co7      Co       0.81365    0.70528    0.52931    1.000
    Co8      Co       0.71453    0.70225    0.62333    1.000
    O25      O        0.88828    0.69850    0.63603    1.000
    O26      O        0.81456    0.69430    0.71005    1.000
    O27      O        0.74038    0.88230    0.61269    1.000
    O28      O        0.81218    0.88940    0.53773    1.000
    O29      O        0.71869    0.51850    0.60738    1.000
    O30      O        0.79557    0.52090    0.53585    1.000
    O31      O        0.21096    0.78510    0.94715    1.000
    O32      O        0.13533    0.78210    0.01935    1.000
    N13      N        0.89472    0.67430    0.47802    1.000
    N14      N        0.95836    0.59530    0.40841    1.000
    N15      N        0.07349    0.77380    0.26058    1.000
    N16      N        0.13943    0.81270    0.18415    1.000
    C82      C        0.87831    0.70320    0.69870    1.000
    C83      C        0.77492    0.93860    0.57544    1.000
    C84      C        0.76962    0.07500    0.57427    1.000
    C85      C        0.79080    0.14150    0.52036    1.000
    H73      H        0.80950    0.10040    0.48590    1.000
    C86      C        0.74288    0.13690    0.62527    1.000
    H74      H        0.72860    0.09250    0.66140    1.000
    C87      C        0.75647    0.46720    0.57013    1.000
    C88      C        0.75785    0.33010    0.56926    1.000
    C89      C        0.78416    0.26790    0.51800    1.000
    H75      H        0.79760    0.31210    0.48130    1.000
    C90      C        0.73708    0.26390    0.62338    1.000
    H76      H        0.71930    0.30520    0.65840    1.000
    C91      C        0.94861    0.72070    0.76522    1.000
    C92      C        0.94377    0.70860    0.83712    1.000
    H77      H        0.89640    0.68930    0.84370    1.000
    C93      C        0.00828    0.72470    0.89894    1.000
    H78      H        0.00440    0.71610    0.94710    1.000
    C94      C        0.07873    0.75360    0.88999    1.000
    C95      C        0.14666    0.77500    0.95783    1.000
    C96      C        0.08367    0.76440    0.81874    1.000
    H79      H        0.13110    0.78340    0.81220    1.000
    C97      C        0.01933    0.74750    0.75678    1.000
    H80      H        0.02370    0.75420    0.70870    1.000
    C98      C        0.88834    0.61220    0.41574    1.000
    C99      C        0.01150    0.64790    0.46887    1.000
    H81      H        0.06490    0.64960    0.47890    1.000
    C100     C        0.97183    0.69620    0.51082    1.000
    H82      H        0.99350    0.73860    0.55590    1.000
    C101     C        0.97560    0.53220    0.34698    1.000
    H83      H        0.02380    0.48700    0.36690    1.000
    H84      H        0.93490    0.47250    0.32470    1.000
    C102     C        0.98230    0.62000    0.28636    1.000
    H85      H        0.93420    0.66570    0.26640    1.000
    H86      H        0.99070    0.57300    0.24550    1.000
    C103     C        0.04810    0.70940    0.31692    1.000
    H87      H        0.09190    0.66450    0.35000    1.000
    H88      H        0.03250    0.77060    0.34730    1.000
    C104     C        0.11670    0.72590    0.22155    1.000
    C105     C        0.10940    0.92170    0.20098    1.000
    H89      H        0.11640    0.99930    0.18250    1.000
    C106     C        0.06880    0.89940    0.24770    1.000
    H90      H        0.04250    0.95710    0.26750    1.000
    C107     C        0.13620    0.59360    0.22170    1.000
    H91      H        0.14400    0.55980    0.27110    1.000
    H92      H        0.09450    0.55040    0.18580    1.000
    H93      H        0.18270    0.58420    0.20840    1.000
    C108     C        0.81620    0.56570    0.36250    1.000
    H94      H        0.80520    0.60990    0.31580    1.000
    H95      H        0.82150    0.47900    0.35380    1.000
    H96      H        0.77450    0.57760    0.38300    1.000
