data_functionalizedCrystal
_audit_creation_method	'EQeq! by Chris Wilmer'
_symmetry_space_group_name_H-M	'P1'
_symmetry_Int_Tables_number	1
_symmetry_cell_setting	triclinic
loop_
_symmetry_equiv_pos_as_xyz
  x,y,z
_cell_length_a	29.0505
_cell_length_b	29.0505
_cell_length_c	28.7967
_cell_angle_alpha	90
_cell_angle_beta	90
_cell_angle_gamma	90
loop_
_atom_site_label
_atom_site_type_symbol
_atom_site_fract_x
_atom_site_fract_y
_atom_site_fract_z
_atom_site_charge
Mof_In	In	0.2091	0.79089	0.38455	2.88
Mof_In	In	0.20388	0.88138	0.30323	2.161
Mof_In	In	0.11873	0.79609	0.30321	2.176
Mof_O 	O 	0.1772	0.8222	0.3302	-1.336
Mof_O 	O 	0.2007	0.7236	0.3551	-0.748
Mof_O 	O 	0.147	0.7276	0.2981	-0.64
Mof_O 	O 	0.2728	0.8524	0.2985	-0.659
Mof_O 	O 	0.2183	0.8535	0.4228	-0.754
Mof_O 	O 	0.2186	0.1479	0.578	-0.778
Mof_O 	O 	0.276	0.7999	0.3549	-0.751
Mof_O 	O 	0.3589	0.6951	0.7326	-0.697
Mof_N 	N 	0.2426	0.7576	0.4425	-0.37
Mof_O 	O 	0.3051	0.64	0.7318	-0.67
Mof_O 	O 	0.219	0.909	0.3706	-0.721
Mof_O 	O 	0.2203	0.0907	0.6292	-0.71
Mof_C 	C 	0.2218	0.8954	0.4115	0.63
Mof_N 	N 	0.2663	0.446	0.2248	-0.346
Mof_C 	C 	0.1902	0.6617	0.3067	-0.222
Mof_C 	C 	0.179	0.708	0.3213	0.587
Mof_C 	C 	0.3389	0.8102	0.3076	-0.249
Mof_C 	C 	0.2934	0.8232	0.3216	0.618
Mof_C 	C 	0.4267	0.7822	0.2768	0.021
Mof_N 	N 	0.5541	0.7332	0.2226	-0.362
Mof_C 	C 	0.2261	0.0706	0.552	-0.229
Mof_C 	C 	0.2255	0.9285	0.448	-0.261
Mof_C 	C 	0.2458	0.7	0.5018	-0.027
Mof_C 	C 	0.2978	0.7573	0.5054	-0.027
Mof_C 	C 	0.2807	0.7762	0.4631	0.042
Mof_C 	C 	0.3658	0.7821	0.3343	0.088
Mof_C 	C 	0.3276	0.6735	0.7126	0.569
Mof_C 	C 	0.2134	0.6301	0.3353	0.08
Mof_C 	C 	0.4108	0.7718	0.3202	-0.055
Mof_C 	C 	0.2234	0.7189	0.4644	0.041
Mof_C 	C 	0.2229	0.1061	0.589	0.613
Mof_C 	C 	0.2948	0.7051	0.5747	0.026
Mof_C 	C 	0.216	0.5732	0.2786	0.029
Mof_C 	C 	0.2828	0.6614	0.6415	0.093
Mof_C 	C 	0.3176	0.6817	0.666	-0.254
Mof_C 	C 	0.228	0.0054	0.4785	-0.034
Mof_C 	C 	0.2746	0.723	0.5283	0.005
Mof_C 	C 	0.3375	0.7166	0.6406	0.09
Mof_C 	C 	0.2292	0.0262	0.5572	0.066
Mof_C 	C 	0.2297	0.9932	0.5222	-0.012
Mof_C 	C 	0.2273	0.9741	0.4427	0.079
Mof_C 	C 	0.2294	0.5893	0.3188	-0.059
Mof_C 	C 	0.3581	0.8251	0.2681	0.095
Mof_C 	C 	0.1784	0.6465	0.2647	0.084
Mof_C 	C 	0.3321	0.7269	0.5961	-0.06
Mof_C 	C 	0.2701	0.6721	0.5983	-0.06
Mof_C 	C 	0.2419	0.5272	0.2609	-0.01
Mof_C 	C 	0.1879	0.5995	0.2516	-0.048
Mof_C 	C 	0.225	0.087	0.5087	0.059
Mof_C 	C 	0.4008	0.8109	0.2512	-0.052
Mof_C 	C 	0.242	0.045	0.4681	-0.024
Mof_C 	C 	0.227	0.9109	0.4915	0.078
Mof_C 	C 	0.23	0.9496	0.5311	-0.042
Mof_C 	C 	0.4691	0.7618	0.2568	0.018
Mof_C 	C 	0.521	0.7156	0.2083	-0.001
Mof_C 	C 	0.5106	0.7662	0.2748	-0.071
Mof_C 	C 	0.2309	0.4886	0.2789	-0.043
Mof_C 	C 	0.5507	0.757	0.253	0.121
Mof_C 	C 	0.273	0.496	0.212	-0.018
Mof_C 	C 	0.2503	0.4466	0.2592	0.093
Mof_C 	C 	0.4708	0.731	0.2147	-0.044
Mof_In	In	0.7091	0.29089	0.88455	2.881
Mof_In	In	0.70388	0.38138	0.80323	2.162
Mof_In	In	0.61873	0.29609	0.80321	2.177
Mof_O 	O 	0.6772	0.3222	0.8302	-1.335
Mof_O 	O 	0.7007	0.2236	0.8551	-0.748
Mof_O 	O 	0.647	0.2276	0.7981	-0.64
Mof_O 	O 	0.7728	0.3524	0.7985	-0.659
Mof_O 	O 	0.7183	0.3535	0.9228	-0.754
Mof_O 	O 	0.7186	0.6479	0.078	-0.778
Mof_O 	O 	0.776	0.2999	0.8549	-0.751
Mof_O 	O 	0.8589	0.1951	0.2326	-0.697
Mof_N 	N 	0.7426	0.2576	0.9425	-0.37
Mof_O 	O 	0.8051	0.14	0.2318	-0.67
Mof_O 	O 	0.719	0.409	0.8706	-0.721
Mof_O 	O 	0.7203	0.5907	0.1292	-0.71
Mof_C 	C 	0.7218	0.3954	0.9115	0.63
Mof_N 	N 	0.7663	0.946	0.7248	-0.346
Mof_C 	C 	0.6902	0.1617	0.8067	-0.222
Mof_C 	C 	0.679	0.208	0.8213	0.587
Mof_C 	C 	0.8389	0.3102	0.8076	-0.249
Mof_C 	C 	0.7934	0.3232	0.8216	0.618
Mof_C 	C 	0.9267	0.2822	0.7768	0.021
Mof_N 	N 	0.0541	0.2332	0.7226	-0.362
Mof_C 	C 	0.7261	0.5706	0.052	-0.229
Mof_C 	C 	0.7255	0.4285	0.948	-0.261
Mof_C 	C 	0.7458	0.2	0.0018	-0.028
Mof_C 	C 	0.7978	0.2573	0.0054	-0.027
Mof_C 	C 	0.7807	0.2762	0.9631	0.042
Mof_C 	C 	0.8658	0.2821	0.8343	0.088
Mof_C 	C 	0.8276	0.1735	0.2126	0.569
Mof_C 	C 	0.7134	0.1301	0.8353	0.08
Mof_C 	C 	0.9108	0.2718	0.8202	-0.055
Mof_C 	C 	0.7234	0.2189	0.9644	0.041
Mof_C 	C 	0.7229	0.6061	0.089	0.613
Mof_C 	C 	0.7948	0.2051	0.0747	0.026
Mof_C 	C 	0.716	0.0732	0.7786	0.029
Mof_C 	C 	0.7828	0.1614	0.1415	0.093
Mof_C 	C 	0.8176	0.1817	0.166	-0.254
Mof_C 	C 	0.728	0.5054	0.9785	-0.034
Mof_C 	C 	0.7746	0.223	0.0283	0.005
Mof_C 	C 	0.8375	0.2166	0.1406	0.09
Mof_C 	C 	0.7292	0.5262	0.0572	0.066
Mof_C 	C 	0.7297	0.4932	0.0222	-0.013
Mof_C 	C 	0.7273	0.4741	0.9427	0.079
Mof_C 	C 	0.7294	0.0893	0.8188	-0.059
Mof_C 	C 	0.8581	0.3251	0.7681	0.095
Mof_C 	C 	0.6784	0.1465	0.7647	0.084
Mof_C 	C 	0.8321	0.2269	0.0961	-0.06
Mof_C 	C 	0.7701	0.1721	0.0983	-0.06
Mof_C 	C 	0.7419	0.0272	0.7609	-0.01
Mof_C 	C 	0.6879	0.0995	0.7516	-0.048
Mof_C 	C 	0.725	0.587	0.0087	0.059
Mof_C 	C 	0.9008	0.3109	0.7512	-0.052
Mof_C 	C 	0.742	0.545	0.9681	-0.024
Mof_C 	C 	0.727	0.4109	0.9915	0.077
Mof_C 	C 	0.73	0.4496	0.0311	-0.042
Mof_C 	C 	0.9691	0.2618	0.7568	0.018
Mof_C 	C 	0.021	0.2156	0.7083	-0.001
Mof_C 	C 	0.0106	0.2662	0.7748	-0.071
Mof_C 	C 	0.7309	0.9886	0.7789	-0.043
Mof_C 	C 	0.0507	0.257	0.753	0.121
Mof_C 	C 	0.773	0.996	0.712	-0.018
Mof_C 	C 	0.7503	0.9466	0.7592	0.093
Mof_C 	C 	0.9708	0.231	0.7147	-0.044
Mof_In	In	0.7909	0.20911	0.38455	2.881
Mof_In	In	0.79612	0.11862	0.30323	2.162
Mof_In	In	0.88127	0.20391	0.30321	2.177
Mof_O 	O 	0.8228	0.1778	0.3302	-1.335
Mof_O 	O 	0.7993	0.2764	0.3551	-0.748
Mof_O 	O 	0.853	0.2724	0.2981	-0.64
Mof_O 	O 	0.7272	0.1476	0.2985	-0.659
Mof_O 	O 	0.7817	0.1465	0.4228	-0.754
Mof_O 	O 	0.7814	0.8521	0.578	-0.778
Mof_O 	O 	0.724	0.2001	0.3549	-0.751
Mof_O 	O 	0.6411	0.3049	0.7326	-0.697
Mof_N 	N 	0.7574	0.2424	0.4425	-0.37
Mof_O 	O 	0.6949	0.36	0.7318	-0.67
Mof_O 	O 	0.781	0.091	0.3706	-0.721
Mof_O 	O 	0.7797	0.9093	0.6292	-0.71
Mof_C 	C 	0.7782	0.1046	0.4115	0.63
Mof_N 	N 	0.7337	0.554	0.2248	-0.346
Mof_C 	C 	0.8098	0.3383	0.3067	-0.222
Mof_C 	C 	0.821	0.292	0.3213	0.587
Mof_C 	C 	0.6611	0.1898	0.3076	-0.249
Mof_C 	C 	0.7066	0.1768	0.3216	0.618
Mof_C 	C 	0.5733	0.2178	0.2768	0.021
Mof_N 	N 	0.4459	0.2668	0.2226	-0.362
Mof_C 	C 	0.7739	0.9294	0.552	-0.229
Mof_C 	C 	0.7745	0.0715	0.448	-0.261
Mof_C 	C 	0.7542	0.3	0.5018	-0.027
Mof_C 	C 	0.7022	0.2427	0.5054	-0.027
Mof_C 	C 	0.7193	0.2238	0.4631	0.042
Mof_C 	C 	0.6342	0.2179	0.3343	0.088
Mof_C 	C 	0.6724	0.3265	0.7126	0.569
Mof_C 	C 	0.7866	0.3699	0.3353	0.08
Mof_C 	C 	0.5892	0.2282	0.3202	-0.055
Mof_C 	C 	0.7766	0.2811	0.4644	0.041
Mof_C 	C 	0.7771	0.8939	0.589	0.613
Mof_C 	C 	0.7052	0.2949	0.5747	0.026
Mof_C 	C 	0.784	0.4268	0.2786	0.029
Mof_C 	C 	0.7172	0.3386	0.6415	0.093
Mof_C 	C 	0.6824	0.3183	0.666	-0.254
Mof_C 	C 	0.772	0.9946	0.4785	-0.034
Mof_C 	C 	0.7254	0.277	0.5283	0.005
Mof_C 	C 	0.6625	0.2834	0.6406	0.09
Mof_C 	C 	0.7708	0.9738	0.5572	0.066
Mof_C 	C 	0.7703	0.0068	0.5222	-0.012
Mof_C 	C 	0.7727	0.0259	0.4427	0.079
Mof_C 	C 	0.7706	0.4107	0.3188	-0.059
Mof_C 	C 	0.6419	0.1749	0.2681	0.095
Mof_C 	C 	0.8216	0.3535	0.2647	0.084
Mof_C 	C 	0.6679	0.2731	0.5961	-0.06
Mof_C 	C 	0.7299	0.3279	0.5983	-0.06
Mof_C 	C 	0.7581	0.4728	0.2609	-0.01
Mof_C 	C 	0.8121	0.4005	0.2516	-0.048
Mof_C 	C 	0.775	0.913	0.5087	0.059
Mof_C 	C 	0.5992	0.1891	0.2512	-0.052
Mof_C 	C 	0.758	0.955	0.4681	-0.024
Mof_C 	C 	0.773	0.0891	0.4915	0.078
Mof_C 	C 	0.77	0.0504	0.5311	-0.042
Mof_C 	C 	0.5309	0.2382	0.2568	0.018
Mof_C 	C 	0.479	0.2844	0.2083	-0.001
Mof_C 	C 	0.4894	0.2338	0.2748	-0.071
Mof_C 	C 	0.7691	0.5114	0.2789	-0.043
Mof_C 	C 	0.4493	0.243	0.253	0.121
Mof_C 	C 	0.727	0.504	0.212	-0.018
Mof_C 	C 	0.7497	0.5534	0.2592	0.093
Mof_C 	C 	0.5292	0.269	0.2147	-0.044
Mof_In	In	0.2909	0.70911	0.88455	2.881
Mof_In	In	0.29612	0.61862	0.80323	2.162
Mof_In	In	0.38127	0.70391	0.80321	2.177
Mof_O 	O 	0.3228	0.6778	0.8302	-1.335
Mof_O 	O 	0.2993	0.7764	0.8551	-0.748
Mof_O 	O 	0.353	0.7724	0.7981	-0.64
Mof_O 	O 	0.2272	0.6476	0.7985	-0.659
Mof_O 	O 	0.2817	0.6465	0.9228	-0.754
Mof_O 	O 	0.2814	0.3521	0.078	-0.778
Mof_O 	O 	0.224	0.7001	0.8549	-0.751
Mof_O 	O 	0.1411	0.8049	0.2326	-0.697
Mof_N 	N 	0.2574	0.7424	0.9425	-0.37
Mof_O 	O 	0.1949	0.86	0.2318	-0.67
Mof_O 	O 	0.281	0.591	0.8706	-0.721
Mof_O 	O 	0.2797	0.4093	0.1292	-0.71
Mof_C 	C 	0.2782	0.6046	0.9115	0.63
Mof_N 	N 	0.2337	0.054	0.7248	-0.346
Mof_C 	C 	0.3098	0.8383	0.8067	-0.222
Mof_C 	C 	0.321	0.792	0.8213	0.587
Mof_C 	C 	0.1611	0.6898	0.8076	-0.249
Mof_C 	C 	0.2066	0.6768	0.8216	0.618
Mof_C 	C 	0.0733	0.7178	0.7768	0.021
Mof_N 	N 	0.9459	0.7668	0.7226	-0.362
Mof_C 	C 	0.2739	0.4294	0.052	-0.229
Mof_C 	C 	0.2745	0.5715	0.948	-0.261
Mof_C 	C 	0.2542	0.8	0.0018	-0.028
Mof_C 	C 	0.2022	0.7427	0.0054	-0.027
Mof_C 	C 	0.2193	0.7238	0.9631	0.042
Mof_C 	C 	0.1342	0.7179	0.8343	0.088
Mof_C 	C 	0.1724	0.8265	0.2126	0.569
Mof_C 	C 	0.2866	0.8699	0.8353	0.08
Mof_C 	C 	0.0892	0.7282	0.8202	-0.055
Mof_C 	C 	0.2766	0.7811	0.9644	0.041
Mof_C 	C 	0.2771	0.3939	0.089	0.613
Mof_C 	C 	0.2052	0.7949	0.0747	0.026
Mof_C 	C 	0.284	0.9268	0.7786	0.029
Mof_C 	C 	0.2172	0.8386	0.1415	0.093
Mof_C 	C 	0.1824	0.8183	0.166	-0.254
Mof_C 	C 	0.272	0.4946	0.9785	-0.034
Mof_C 	C 	0.2254	0.777	0.0283	0.005
Mof_C 	C 	0.1625	0.7834	0.1406	0.09
Mof_C 	C 	0.2708	0.4738	0.0572	0.066
Mof_C 	C 	0.2703	0.5068	0.0222	-0.013
Mof_C 	C 	0.2727	0.5259	0.9427	0.079
Mof_C 	C 	0.2706	0.9107	0.8188	-0.059
Mof_C 	C 	0.1419	0.6749	0.7681	0.095
Mof_C 	C 	0.3216	0.8535	0.7647	0.084
Mof_C 	C 	0.1679	0.7731	0.0961	-0.06
Mof_C 	C 	0.2299	0.8279	0.0983	-0.06
Mof_C 	C 	0.2581	0.9728	0.7609	-0.01
Mof_C 	C 	0.3121	0.9005	0.7516	-0.048
Mof_C 	C 	0.275	0.413	0.0087	0.059
Mof_C 	C 	0.0992	0.6891	0.7512	-0.052
Mof_C 	C 	0.258	0.455	0.9681	-0.024
Mof_C 	C 	0.273	0.5891	0.9915	0.077
Mof_C 	C 	0.27	0.5504	0.0311	-0.042
Mof_C 	C 	0.0309	0.7382	0.7568	0.018
Mof_C 	C 	0.979	0.7844	0.7083	-0.001
Mof_C 	C 	0.9894	0.7338	0.7748	-0.071
Mof_C 	C 	0.2691	0.0114	0.7789	-0.043
Mof_C 	C 	0.9493	0.743	0.753	0.121
Mof_C 	C 	0.227	0.004	0.712	-0.018
Mof_C 	C 	0.2497	0.0534	0.7592	0.093
Mof_C 	C 	0.0292	0.769	0.7147	-0.044
Mof_In	In	0.79089	0.7909	0.61545	2.881
Mof_In	In	0.88138	0.79612	0.69677	2.162
Mof_In	In	0.79609	0.88127	0.69679	2.177
Mof_O 	O 	0.8222	0.8228	0.6698	-1.335
Mof_O 	O 	0.7236	0.7993	0.6449	-0.748
Mof_O 	O 	0.7276	0.853	0.7019	-0.64
Mof_O 	O 	0.8524	0.7272	0.7015	-0.659
Mof_O 	O 	0.8535	0.7817	0.5772	-0.754
Mof_O 	O 	0.1479	0.7814	0.422	-0.778
Mof_O 	O 	0.7999	0.724	0.6451	-0.751
Mof_O 	O 	0.6951	0.6411	0.2674	-0.697
Mof_N 	N 	0.7576	0.7574	0.5575	-0.37
Mof_O 	O 	0.64	0.6949	0.2682	-0.67
Mof_O 	O 	0.909	0.781	0.6294	-0.721
Mof_O 	O 	0.0907	0.7797	0.3708	-0.71
Mof_C 	C 	0.8954	0.7782	0.5885	0.63
Mof_N 	N 	0.446	0.7337	0.7752	-0.346
Mof_C 	C 	0.6617	0.8098	0.6933	-0.222
Mof_C 	C 	0.708	0.821	0.6787	0.587
Mof_C 	C 	0.8102	0.6611	0.6924	-0.249
Mof_C 	C 	0.8232	0.7066	0.6784	0.618
Mof_C 	C 	0.7822	0.5733	0.7232	0.021
Mof_N 	N 	0.7332	0.4459	0.7774	-0.362
Mof_C 	C 	0.0706	0.7739	0.448	-0.229
Mof_C 	C 	0.9285	0.7745	0.552	-0.261
Mof_C 	C 	0.7	0.7542	0.4982	-0.027
Mof_C 	C 	0.7573	0.7022	0.4946	-0.027
Mof_C 	C 	0.7762	0.7193	0.5369	0.042
Mof_C 	C 	0.7821	0.6342	0.6657	0.088
Mof_C 	C 	0.6735	0.6724	0.2874	0.569
Mof_C 	C 	0.6301	0.7866	0.6647	0.08
Mof_C 	C 	0.7718	0.5892	0.6798	-0.055
Mof_C 	C 	0.7189	0.7766	0.5356	0.041
Mof_C 	C 	0.1061	0.7771	0.411	0.613
Mof_C 	C 	0.7051	0.7052	0.4253	0.026
Mof_C 	C 	0.5732	0.784	0.7214	0.029
Mof_C 	C 	0.6614	0.7172	0.3585	0.093
Mof_C 	C 	0.6817	0.6824	0.334	-0.254
Mof_C 	C 	0.0054	0.772	0.5215	-0.034
Mof_C 	C 	0.723	0.7254	0.4717	0.005
Mof_C 	C 	0.7166	0.6625	0.3594	0.09
Mof_C 	C 	0.0262	0.7708	0.4428	0.066
Mof_C 	C 	0.9932	0.7703	0.4778	-0.012
Mof_C 	C 	0.9741	0.7727	0.5573	0.079
Mof_C 	C 	0.5893	0.7706	0.6812	-0.059
Mof_C 	C 	0.8251	0.6419	0.7319	0.095
Mof_C 	C 	0.6465	0.8216	0.7353	0.084
Mof_C 	C 	0.7269	0.6679	0.4039	-0.06
Mof_C 	C 	0.6721	0.7299	0.4017	-0.06
Mof_C 	C 	0.5272	0.7581	0.7391	-0.01
Mof_C 	C 	0.5995	0.8121	0.7484	-0.048
Mof_C 	C 	0.087	0.775	0.4913	0.059
Mof_C 	C 	0.8109	0.5992	0.7488	-0.052
Mof_C 	C 	0.045	0.758	0.5319	-0.024
Mof_C 	C 	0.9109	0.773	0.5085	0.078
Mof_C 	C 	0.9496	0.77	0.4689	-0.042
Mof_C 	C 	0.7618	0.5309	0.7432	0.018
Mof_C 	C 	0.7156	0.479	0.7917	-0.001
Mof_C 	C 	0.7662	0.4894	0.7252	-0.071
Mof_C 	C 	0.4886	0.7691	0.7211	-0.043
Mof_C 	C 	0.757	0.4493	0.747	0.121
Mof_C 	C 	0.496	0.727	0.788	-0.018
Mof_C 	C 	0.4466	0.7497	0.7408	0.093
Mof_C 	C 	0.731	0.5292	0.7853	-0.044
Mof_In	In	0.29089	0.2909	0.11545	2.881
Mof_In	In	0.38138	0.29612	0.19677	2.162
Mof_In	In	0.29609	0.38127	0.19679	2.177
Mof_O 	O 	0.3222	0.3228	0.1698	-1.335
Mof_O 	O 	0.2236	0.2993	0.1449	-0.748
Mof_O 	O 	0.2276	0.353	0.2019	-0.64
Mof_O 	O 	0.3524	0.2272	0.2015	-0.659
Mof_O 	O 	0.3535	0.2817	0.0772	-0.754
Mof_O 	O 	0.6479	0.2814	0.922	-0.778
Mof_O 	O 	0.2999	0.224	0.1451	-0.751
Mof_O 	O 	0.1951	0.1411	0.7674	-0.697
Mof_N 	N 	0.2576	0.2574	0.0575	-0.37
Mof_O 	O 	0.14	0.1949	0.7682	-0.67
Mof_O 	O 	0.409	0.281	0.1294	-0.721
Mof_O 	O 	0.5907	0.2797	0.8708	-0.71
Mof_C 	C 	0.3954	0.2782	0.0885	0.63
Mof_N 	N 	0.946	0.2337	0.2752	-0.346
Mof_C 	C 	0.1617	0.3098	0.1933	-0.222
Mof_C 	C 	0.208	0.321	0.1787	0.587
Mof_C 	C 	0.3102	0.1611	0.1924	-0.249
Mof_C 	C 	0.3232	0.2066	0.1784	0.618
Mof_C 	C 	0.2822	0.0733	0.2232	0.021
Mof_N 	N 	0.2332	0.9459	0.2774	-0.362
Mof_C 	C 	0.5706	0.2739	0.948	-0.229
Mof_C 	C 	0.4285	0.2745	0.052	-0.261
Mof_C 	C 	0.2	0.2542	0.9982	-0.028
Mof_C 	C 	0.2573	0.2022	0.9946	-0.027
Mof_C 	C 	0.2762	0.2193	0.0369	0.042
Mof_C 	C 	0.2821	0.1342	0.1657	0.088
Mof_C 	C 	0.1735	0.1724	0.7874	0.569
Mof_C 	C 	0.1301	0.2866	0.1647	0.08
Mof_C 	C 	0.2718	0.0892	0.1798	-0.055
Mof_C 	C 	0.2189	0.2766	0.0356	0.041
Mof_C 	C 	0.6061	0.2771	0.911	0.613
Mof_C 	C 	0.2051	0.2052	0.9253	0.026
Mof_C 	C 	0.0732	0.284	0.2214	0.029
Mof_C 	C 	0.1614	0.2172	0.8585	0.093
Mof_C 	C 	0.1817	0.1824	0.834	-0.254
Mof_C 	C 	0.5054	0.272	0.0215	-0.034
Mof_C 	C 	0.223	0.2254	0.9717	0.005
Mof_C 	C 	0.2166	0.1625	0.8594	0.09
Mof_C 	C 	0.5262	0.2708	0.9428	0.066
Mof_C 	C 	0.4932	0.2703	0.9778	-0.013
Mof_C 	C 	0.4741	0.2727	0.0573	0.079
Mof_C 	C 	0.0893	0.2706	0.1812	-0.059
Mof_C 	C 	0.3251	0.1419	0.2319	0.095
Mof_C 	C 	0.1465	0.3216	0.2353	0.084
Mof_C 	C 	0.2269	0.1679	0.9039	-0.06
Mof_C 	C 	0.1721	0.2299	0.9017	-0.06
Mof_C 	C 	0.0272	0.2581	0.2391	-0.01
Mof_C 	C 	0.0995	0.3121	0.2484	-0.048
Mof_C 	C 	0.587	0.275	0.9913	0.059
Mof_C 	C 	0.3109	0.0992	0.2488	-0.052
Mof_C 	C 	0.545	0.258	0.0319	-0.024
Mof_C 	C 	0.4109	0.273	0.0085	0.077
Mof_C 	C 	0.4496	0.27	0.9689	-0.042
Mof_C 	C 	0.2618	0.0309	0.2432	0.018
Mof_C 	C 	0.2156	0.979	0.2917	-0.001
Mof_C 	C 	0.2662	0.9894	0.2252	-0.071
Mof_C 	C 	0.9886	0.2691	0.2211	-0.043
Mof_C 	C 	0.257	0.9493	0.247	0.121
Mof_C 	C 	0.996	0.227	0.288	-0.018
Mof_C 	C 	0.9466	0.2497	0.2408	0.093
Mof_C 	C 	0.231	0.0292	0.2853	-0.044
Mof_In	In	0.20911	0.2091	0.61545	2.881
Mof_In	In	0.11862	0.20388	0.69677	2.162
Mof_In	In	0.20391	0.11873	0.69679	2.177
Mof_O 	O 	0.1778	0.1772	0.6698	-1.335
Mof_O 	O 	0.2764	0.2007	0.6449	-0.748
Mof_O 	O 	0.2724	0.147	0.7019	-0.64
Mof_O 	O 	0.1476	0.2728	0.7015	-0.659
Mof_O 	O 	0.1465	0.2183	0.5772	-0.754
Mof_O 	O 	0.8521	0.2186	0.422	-0.778
Mof_O 	O 	0.2001	0.276	0.6451	-0.751
Mof_O 	O 	0.3049	0.3589	0.2674	-0.697
Mof_N 	N 	0.2424	0.2426	0.5575	-0.37
Mof_O 	O 	0.36	0.3051	0.2682	-0.67
Mof_O 	O 	0.091	0.219	0.6294	-0.721
Mof_O 	O 	0.9093	0.2203	0.3708	-0.71
Mof_C 	C 	0.1046	0.2218	0.5885	0.63
Mof_N 	N 	0.554	0.2663	0.7752	-0.346
Mof_C 	C 	0.3383	0.1902	0.6933	-0.222
Mof_C 	C 	0.292	0.179	0.6787	0.587
Mof_C 	C 	0.1898	0.3389	0.6924	-0.249
Mof_C 	C 	0.1768	0.2934	0.6784	0.618
Mof_C 	C 	0.2178	0.4267	0.7232	0.021
Mof_N 	N 	0.2668	0.5541	0.7774	-0.362
Mof_C 	C 	0.9294	0.2261	0.448	-0.229
Mof_C 	C 	0.0715	0.2255	0.552	-0.261
Mof_C 	C 	0.3	0.2458	0.4982	-0.027
Mof_C 	C 	0.2427	0.2978	0.4946	-0.027
Mof_C 	C 	0.2238	0.2807	0.5369	0.042
Mof_C 	C 	0.2179	0.3658	0.6657	0.088
Mof_C 	C 	0.3265	0.3276	0.2874	0.569
Mof_C 	C 	0.3699	0.2134	0.6647	0.08
Mof_C 	C 	0.2282	0.4108	0.6798	-0.055
Mof_C 	C 	0.2811	0.2234	0.5356	0.041
Mof_C 	C 	0.8939	0.2229	0.411	0.613
Mof_C 	C 	0.2949	0.2948	0.4253	0.026
Mof_C 	C 	0.4268	0.216	0.7214	0.029
Mof_C 	C 	0.3386	0.2828	0.3585	0.093
Mof_C 	C 	0.3183	0.3176	0.334	-0.254
Mof_C 	C 	0.9946	0.228	0.5215	-0.034
Mof_C 	C 	0.277	0.2746	0.4717	0.005
Mof_C 	C 	0.2834	0.3375	0.3594	0.09
Mof_C 	C 	0.9738	0.2292	0.4428	0.066
Mof_C 	C 	0.0068	0.2297	0.4778	-0.012
Mof_C 	C 	0.0259	0.2273	0.5573	0.079
Mof_C 	C 	0.4107	0.2294	0.6812	-0.059
Mof_C 	C 	0.1749	0.3581	0.7319	0.095
Mof_C 	C 	0.3535	0.1784	0.7353	0.084
Mof_C 	C 	0.2731	0.3321	0.4039	-0.06
Mof_C 	C 	0.3279	0.2701	0.4017	-0.06
Mof_C 	C 	0.4728	0.2419	0.7391	-0.01
Mof_C 	C 	0.4005	0.1879	0.7484	-0.048
Mof_C 	C 	0.913	0.225	0.4913	0.059
Mof_C 	C 	0.1891	0.4008	0.7488	-0.052
Mof_C 	C 	0.955	0.242	0.5319	-0.024
Mof_C 	C 	0.0891	0.227	0.5085	0.078
Mof_C 	C 	0.0504	0.23	0.4689	-0.042
Mof_C 	C 	0.2382	0.4691	0.7432	0.018
Mof_C 	C 	0.2844	0.521	0.7917	-0.001
Mof_C 	C 	0.2338	0.5106	0.7252	-0.071
Mof_C 	C 	0.5114	0.2309	0.7211	-0.043
Mof_C 	C 	0.243	0.5507	0.747	0.121
Mof_C 	C 	0.504	0.273	0.788	-0.018
Mof_C 	C 	0.5534	0.2503	0.7408	0.093
Mof_C 	C 	0.269	0.4708	0.7853	-0.044
Mof_In	In	0.70911	0.7091	0.11545	2.881
Mof_In	In	0.61862	0.70388	0.19677	2.162
Mof_In	In	0.70391	0.61873	0.19679	2.177
Mof_O 	O 	0.6778	0.6772	0.1698	-1.335
Mof_O 	O 	0.7764	0.7007	0.1449	-0.748
Mof_O 	O 	0.7724	0.647	0.2019	-0.64
Mof_O 	O 	0.6476	0.7728	0.2015	-0.659
Mof_O 	O 	0.6465	0.7183	0.0772	-0.754
Mof_O 	O 	0.3521	0.7186	0.922	-0.778
Mof_O 	O 	0.7001	0.776	0.1451	-0.751
Mof_O 	O 	0.8049	0.8589	0.7674	-0.697
Mof_N 	N 	0.7424	0.7426	0.0575	-0.37
Mof_O 	O 	0.86	0.8051	0.7682	-0.67
Mof_O 	O 	0.591	0.719	0.1294	-0.721
Mof_O 	O 	0.4093	0.7203	0.8708	-0.71
Mof_C 	C 	0.6046	0.7218	0.0885	0.63
Mof_N 	N 	0.054	0.7663	0.2752	-0.346
Mof_C 	C 	0.8383	0.6902	0.1933	-0.222
Mof_C 	C 	0.792	0.679	0.1787	0.587
Mof_C 	C 	0.6898	0.8389	0.1924	-0.249
Mof_C 	C 	0.6768	0.7934	0.1784	0.618
Mof_C 	C 	0.7178	0.9267	0.2232	0.021
Mof_N 	N 	0.7668	0.0541	0.2774	-0.362
Mof_C 	C 	0.4294	0.7261	0.948	-0.229
Mof_C 	C 	0.5715	0.7255	0.052	-0.261
Mof_C 	C 	0.8	0.7458	0.9982	-0.028
Mof_C 	C 	0.7427	0.7978	0.9946	-0.027
Mof_C 	C 	0.7238	0.7807	0.0369	0.042
Mof_C 	C 	0.7179	0.8658	0.1657	0.088
Mof_C 	C 	0.8265	0.8276	0.7874	0.569
Mof_C 	C 	0.8699	0.7134	0.1647	0.08
Mof_C 	C 	0.7282	0.9108	0.1798	-0.055
Mof_C 	C 	0.7811	0.7234	0.0356	0.041
Mof_C 	C 	0.3939	0.7229	0.911	0.613
Mof_C 	C 	0.7949	0.7948	0.9253	0.026
Mof_C 	C 	0.9268	0.716	0.2214	0.029
Mof_C 	C 	0.8386	0.7828	0.8585	0.093
Mof_C 	C 	0.8183	0.8176	0.834	-0.254
Mof_C 	C 	0.4946	0.728	0.0215	-0.034
Mof_C 	C 	0.777	0.7746	0.9717	0.005
Mof_C 	C 	0.7834	0.8375	0.8594	0.09
Mof_C 	C 	0.4738	0.7292	0.9428	0.066
Mof_C 	C 	0.5068	0.7297	0.9778	-0.013
Mof_C 	C 	0.5259	0.7273	0.0573	0.079
Mof_C 	C 	0.9107	0.7294	0.1812	-0.059
Mof_C 	C 	0.6749	0.8581	0.2319	0.095
Mof_C 	C 	0.8535	0.6784	0.2353	0.084
Mof_C 	C 	0.7731	0.8321	0.9039	-0.06
Mof_C 	C 	0.8279	0.7701	0.9017	-0.06
Mof_C 	C 	0.9728	0.7419	0.2391	-0.01
Mof_C 	C 	0.9005	0.6879	0.2484	-0.048
Mof_C 	C 	0.413	0.725	0.9913	0.059
Mof_C 	C 	0.6891	0.9008	0.2488	-0.052
Mof_C 	C 	0.455	0.742	0.0319	-0.024
Mof_C 	C 	0.5891	0.727	0.0085	0.077
Mof_C 	C 	0.5504	0.73	0.9689	-0.042
Mof_C 	C 	0.7382	0.9691	0.2432	0.018
Mof_C 	C 	0.7844	0.021	0.2917	-0.001
Mof_C 	C 	0.7338	0.0106	0.2252	-0.071
Mof_C 	C 	0.0114	0.7309	0.2211	-0.043
Mof_C 	C 	0.743	0.0507	0.247	0.121
Mof_C 	C 	0.004	0.773	0.288	-0.018
Mof_C 	C 	0.0534	0.7503	0.2408	0.093
Mof_C 	C 	0.769	0.9708	0.2853	-0.044
_end
