data_functionalizedCrystal
_audit_creation_method	'EQeq! by Chris Wilmer'
_symmetry_space_group_name_H-M	'P1'
_symmetry_Int_Tables_number	1
_symmetry_cell_setting	triclinic
loop_
_symmetry_equiv_pos_as_xyz
  x,y,z
_cell_length_a	16.7094
_cell_length_b	20.2857
_cell_length_c	17.1936
_cell_angle_alpha	90
_cell_angle_beta	99.178
_cell_angle_gamma	90
loop_
_atom_site_label
_atom_site_type_symbol
_atom_site_fract_x
_atom_site_fract_y
_atom_site_fract_z
_atom_site_charge
Mof_Mn	Mn	0.03479	0.16486	0.24894	1.027
Mof_Mn	Mn	0.14082	0.12122	0.44521	0.806
Mof_Mn	Mn	0.91367	0.14359	0.05064	0.847
Mof_S 	S 	0.89571	0.48405	0.54291	0.269
Mof_S 	S 	0.55085	0.272	0.27372	0.271
Mof_S 	S 	0.94806	0.56815	0.15331	0.256
Mof_O 	O 	0.9951	0.24263	0.1686	-0.405
Mof_O 	O 	0.4302	0.58019	0.179	-0.424
Mof_O 	O 	0.5884	0.6326	0.2529	-0.398
Mof_O 	O 	0.0177	0.23113	0.3431	-0.379
Mof_O 	O 	0.1614	0.19097	0.2544	-0.379
Mof_O 	O 	0.5388	0.39384	0.6376	-0.398
Mof_O 	O 	0.2049	0.1842	0.3847	-0.401
Mof_O 	O 	0.057	0.19399	0.4668	-0.382
Mof_O 	O 	0.4442	0.54093	0.0625	-0.36
Mof_O 	O 	0.6568	0.61031	0.3719	-0.416
Mof_O 	O 	0.9167	0.24588	0.0531	-0.405
Mof_O 	O 	0.5112	0.3999	0.5078	-0.382
Mof_O 	O 	0.8929	0.53225	0.4808	-0.213
Mof_O 	O 	0.9401	0.49776	0.6199	-0.215
Mof_O 	O 	0.599	0.27421	0.3507	-0.205
Mof_O 	O 	0.5761	0.23217	0.2129	-0.212
Mof_O 	O 	0.9375	0.5985	0.077	-0.206
Mof_O 	O 	0.017	0.5845	0.2122	-0.202
Mof_C 	C 	0.0239	0.2346	0.4163	0.386
Mof_C 	C 	0.9902	0.2959	0.4491	-0.103
Mof_C 	C 	0.9493	0.3417	0.3983	0.034
Mof_H 	H 	0.9413	0.334	0.3443	0.037
Mof_C 	C 	0.9203	0.3987	0.427	-0.072
Mof_H 	H 	0.8935	0.4298	0.3924	0.073
Mof_C 	C 	0.931	0.4098	0.5075	0.017
Mof_C 	C 	0.9706	0.365	0.5599	-0.074
Mof_H 	H 	0.9769	0.3726	0.6139	0.084
Mof_C 	C 	0.0009	0.3077	0.5305	0.029
Mof_H 	H 	0.0285	0.2771	0.5651	0.046
Mof_C 	C 	0.7959	0.4657	0.5542	0.015
Mof_C 	C 	0.7359	0.4734	0.489	-0.097
Mof_H 	H 	0.7478	0.4906	0.442	0.078
Mof_C 	C 	0.6588	0.4547	0.4963	0.039
Mof_H 	H 	0.6173	0.4588	0.4536	0.029
Mof_C 	C 	0.642	0.4296	0.5679	-0.123
Mof_C 	C 	0.7017	0.4252	0.6324	0.044
Mof_H 	H 	0.6896	0.4106	0.6805	0.03
Mof_C 	C 	0.78	0.4428	0.6252	-0.097
Mof_H 	H 	0.8215	0.4391	0.6679	0.086
Mof_C 	C 	0.5595	0.4066	0.5718	0.359
Mof_C 	C 	0.2145	0.1948	0.3135	0.386
Mof_C 	C 	0.2976	0.2143	0.3022	-0.119
Mof_C 	C 	0.3558	0.2254	0.3688	0.033
Mof_H 	H 	0.342	0.2209	0.4188	0.034
Mof_C 	C 	0.4322	0.2427	0.3603	-0.08
Mof_H 	H 	0.4708	0.2508	0.4045	0.081
Mof_C 	C 	0.4529	0.2482	0.2851	0.015
Mof_C 	C 	0.3957	0.2371	0.2181	-0.08
Mof_H 	H 	0.4097	0.2412	0.1681	0.07
Mof_C 	C 	0.3184	0.2201	0.2273	0.036
Mof_H 	H 	0.2795	0.2124	0.1832	0.037
Mof_C 	C 	0.5371	0.353	0.2355	0.004
Mof_C 	C 	0.522	0.4036	0.2876	-0.081
Mof_H 	H 	0.5264	0.3962	0.3415	0.075
Mof_C 	C 	0.5003	0.4649	0.2552	0.02
Mof_H 	H 	0.4899	0.4994	0.2876	0.037
Mof_C 	C 	0.4941	0.475	0.1739	-0.099
Mof_C 	C 	0.5135	0.4259	0.1254	0.013
Mof_H 	H 	0.512	0.434	0.0719	0.047
Mof_C 	C 	0.5355	0.3639	0.1563	-0.078
Mof_H 	H 	0.5489	0.3304	0.1239	0.072
Mof_C 	C 	0.4561	0.5368	0.1369	0.348
Mof_C 	C 	0.9542	0.2728	0.1142	0.414
Mof_C 	C 	0.9502	0.3461	0.1224	-0.134
Mof_C 	C 	0.9166	0.3864	0.0596	0.05
Mof_H 	H 	0.8942	0.3676	0.0117	0.025
Mof_C 	C 	0.9166	0.4543	0.0685	-0.101
Mof_H 	H 	0.8954	0.4813	0.0265	0.077
Mof_C 	C 	0.9482	0.4814	0.1402	0.025
Mof_C 	C 	0.9816	0.4421	0.2039	-0.108
Mof_H 	H 	0.0027	0.461	0.2521	0.098
Mof_C 	C 	0.9826	0.3747	0.1937	0.055
Mof_H 	H 	0.0053	0.348	0.2354	0.033
Mof_C 	C 	0.8616	0.5828	0.1954	0.03
Mof_C 	C 	0.7921	0.6026	0.1493	-0.099
Mof_H 	H 	0.7911	0.6091	0.0956	0.084
Mof_C 	C 	0.7243	0.6129	0.1817	0.056
Mof_H 	H 	0.6767	0.6258	0.1497	0.03
Mof_C 	C 	0.7249	0.6043	0.2624	-0.134
Mof_C 	C 	0.7954	0.5854	0.3093	0.056
Mof_H 	H 	0.7969	0.5802	0.3632	0.038
Mof_C 	C 	0.8635	0.5742	0.2764	-0.095
Mof_H 	H 	0.9111	0.5608	0.3079	0.091
Mof_C 	C 	0.65	0.6167	0.2977	0.415
Mof_Mn	Mn	0.46521	0.66486	0.25106	1.028
Mof_Mn	Mn	0.35918	0.62122	0.05479	0.808
Mof_Mn	Mn	0.58633	0.64359	0.44936	0.848
Mof_S 	S 	0.60429	0.98405	0.95709	0.269
Mof_S 	S 	0.94915	0.772	0.22628	0.272
Mof_S 	S 	0.55194	0.06815	0.34669	0.258
Mof_O 	O 	0.5049	0.74263	0.3314	-0.404
Mof_O 	O 	0.0698	0.08019	0.321	-0.422
Mof_O 	O 	0.9116	0.1326	0.2471	-0.397
Mof_O 	O 	0.4823	0.73113	0.1569	-0.378
Mof_O 	O 	0.3386	0.69097	0.2456	-0.378
Mof_O 	O 	0.9612	0.89384	0.8624	-0.398
Mof_O 	O 	0.2951	0.6842	0.1153	-0.401
Mof_O 	O 	0.443	0.69399	0.0332	-0.382
Mof_O 	O 	0.0558	0.04093	0.4375	-0.359
Mof_O 	O 	0.8432	0.11031	0.1281	-0.416
Mof_O 	O 	0.5833	0.74588	0.4469	-0.405
Mof_O 	O 	0.9888	0.8999	0.9922	-0.382
Mof_O 	O 	0.6071	0.03225	0.0192	-0.212
Mof_O 	O 	0.5599	0.99776	0.8801	-0.215
Mof_O 	O 	0.901	0.77421	0.1493	-0.205
Mof_O 	O 	0.9239	0.73217	0.2871	-0.213
Mof_O 	O 	0.5625	0.0985	0.423	-0.206
Mof_O 	O 	0.483	0.0845	0.2878	-0.202
Mof_C 	C 	0.4761	0.7346	0.0837	0.387
Mof_C 	C 	0.5098	0.7959	0.0509	-0.105
Mof_C 	C 	0.5507	0.8417	0.1017	0.036
Mof_H 	H 	0.5587	0.834	0.1557	0.036
Mof_C 	C 	0.5797	0.8987	0.073	-0.074
Mof_H 	H 	0.6065	0.9298	0.1076	0.074
Mof_C 	C 	0.569	0.9098	0.9925	0.018
Mof_C 	C 	0.5294	0.865	0.9401	-0.076
Mof_H 	H 	0.5231	0.8726	0.8861	0.085
Mof_C 	C 	0.4991	0.8077	0.9695	0.031
Mof_H 	H 	0.4715	0.7771	0.9349	0.045
Mof_C 	C 	0.7041	0.9657	0.9458	0.016
Mof_C 	C 	0.7641	0.9734	0.011	-0.097
Mof_H 	H 	0.7522	0.9906	0.058	0.078
Mof_C 	C 	0.8412	0.9547	0.0037	0.038
Mof_H 	H 	0.8827	0.9588	0.0464	0.029
Mof_C 	C 	0.858	0.9296	0.9321	-0.122
Mof_C 	C 	0.7983	0.9252	0.8676	0.044
Mof_H 	H 	0.8104	0.9106	0.8195	0.03
Mof_C 	C 	0.72	0.9428	0.8748	-0.097
Mof_H 	H 	0.6785	0.9391	0.8321	0.086
Mof_C 	C 	0.9405	0.9066	0.9282	0.359
Mof_C 	C 	0.2855	0.6948	0.1865	0.386
Mof_C 	C 	0.2024	0.7143	0.1978	-0.119
Mof_C 	C 	0.1442	0.7254	0.1312	0.033
Mof_H 	H 	0.158	0.7209	0.0812	0.034
Mof_C 	C 	0.0678	0.7427	0.1397	-0.08
Mof_H 	H 	0.0292	0.7508	0.0955	0.081
Mof_C 	C 	0.0471	0.7482	0.2149	0.015
Mof_C 	C 	0.1043	0.7371	0.2819	-0.08
Mof_H 	H 	0.0903	0.7412	0.3319	0.071
Mof_C 	C 	0.1816	0.7201	0.2727	0.037
Mof_H 	H 	0.2205	0.7124	0.3168	0.036
Mof_C 	C 	0.9629	0.853	0.2645	0.001
Mof_C 	C 	0.978	0.9036	0.2124	-0.076
Mof_H 	H 	0.9736	0.8962	0.1585	0.073
Mof_C 	C 	0.9997	0.9649	0.2448	0.013
Mof_H 	H 	0.0101	0.9994	0.2124	0.04
Mof_C 	C 	0.0059	0.975	0.3261	-0.094
Mof_C 	C 	0.9865	0.9259	0.3746	0.008
Mof_H 	H 	0.988	0.934	0.4281	0.049
Mof_C 	C 	0.9645	0.8639	0.3437	-0.075
Mof_H 	H 	0.9511	0.8304	0.3761	0.071
Mof_C 	C 	0.0439	0.0368	0.3631	0.345
Mof_C 	C 	0.5458	0.7728	0.3858	0.414
Mof_C 	C 	0.5498	0.8461	0.3776	-0.134
Mof_C 	C 	0.5834	0.8864	0.4404	0.049
Mof_H 	H 	0.6058	0.8676	0.4883	0.025
Mof_C 	C 	0.5834	0.9543	0.4315	-0.101
Mof_H 	H 	0.6046	0.9813	0.4735	0.077
Mof_C 	C 	0.5518	0.9814	0.3598	0.025
Mof_C 	C 	0.5184	0.9421	0.2961	-0.107
Mof_H 	H 	0.4973	0.961	0.2479	0.097
Mof_C 	C 	0.5174	0.8747	0.3063	0.055
Mof_H 	H 	0.4947	0.848	0.2646	0.033
Mof_C 	C 	0.6384	0.0828	0.3046	0.029
Mof_C 	C 	0.7079	0.1026	0.3507	-0.099
Mof_H 	H 	0.7089	0.1091	0.4044	0.084
Mof_C 	C 	0.7757	0.1129	0.3183	0.056
Mof_H 	H 	0.8233	0.1258	0.3503	0.03
Mof_C 	C 	0.7751	0.1043	0.2376	-0.134
Mof_C 	C 	0.7046	0.0854	0.1907	0.056
Mof_H 	H 	0.7031	0.0802	0.1368	0.038
Mof_C 	C 	0.6365	0.0742	0.2236	-0.094
Mof_H 	H 	0.5889	0.0608	0.1921	0.091
Mof_C 	C 	0.85	0.1167	0.2023	0.415
Mof_Mn	Mn	0.96521	0.83514	0.75106	1.028
Mof_Mn	Mn	0.85918	0.87878	0.55479	0.807
Mof_Mn	Mn	0.08633	0.85641	0.94936	0.848
Mof_S 	S 	0.10429	0.51595	0.45709	0.27
Mof_S 	S 	0.44915	0.728	0.72628	0.272
Mof_S 	S 	0.05194	0.43185	0.84669	0.257
Mof_O 	O 	0.0049	0.75737	0.8314	-0.404
Mof_O 	O 	0.5698	0.41981	0.821	-0.423
Mof_O 	O 	0.4116	0.3674	0.7471	-0.397
Mof_O 	O 	0.9823	0.76887	0.6569	-0.378
Mof_O 	O 	0.8386	0.80903	0.7456	-0.378
Mof_O 	O 	0.4612	0.60616	0.3624	-0.397
Mof_O 	O 	0.7951	0.8158	0.6153	-0.401
Mof_O 	O 	0.943	0.80601	0.5332	-0.382
Mof_O 	O 	0.5558	0.45907	0.9375	-0.36
Mof_O 	O 	0.3432	0.38969	0.6281	-0.416
Mof_O 	O 	0.0833	0.75412	0.9469	-0.405
Mof_O 	O 	0.4888	0.6001	0.4922	-0.382
Mof_O 	O 	0.1071	0.46775	0.5192	-0.213
Mof_O 	O 	0.0599	0.50224	0.3801	-0.215
Mof_O 	O 	0.401	0.72579	0.6493	-0.205
Mof_O 	O 	0.4239	0.76783	0.7871	-0.212
Mof_O 	O 	0.0625	0.4015	0.923	-0.206
Mof_O 	O 	0.983	0.4155	0.7878	-0.202
Mof_C 	C 	0.9761	0.7654	0.5837	0.386
Mof_C 	C 	0.0098	0.7041	0.5509	-0.103
Mof_C 	C 	0.0507	0.6583	0.6017	0.034
Mof_H 	H 	0.0587	0.666	0.6557	0.037
Mof_C 	C 	0.0797	0.6013	0.573	-0.072
Mof_H 	H 	0.1065	0.5702	0.6076	0.073
Mof_C 	C 	0.069	0.5902	0.4925	0.017
Mof_C 	C 	0.0294	0.635	0.4401	-0.074
Mof_H 	H 	0.0231	0.6274	0.3861	0.084
Mof_C 	C 	0.9991	0.6923	0.4695	0.029
Mof_H 	H 	0.9715	0.7229	0.4349	0.046
Mof_C 	C 	0.2041	0.5343	0.4458	0.015
Mof_C 	C 	0.2641	0.5266	0.511	-0.097
Mof_H 	H 	0.2522	0.5094	0.558	0.078
Mof_C 	C 	0.3412	0.5453	0.5037	0.039
Mof_H 	H 	0.3827	0.5412	0.5464	0.029
Mof_C 	C 	0.358	0.5704	0.4321	-0.123
Mof_C 	C 	0.2983	0.5748	0.3676	0.044
Mof_H 	H 	0.3104	0.5894	0.3195	0.03
Mof_C 	C 	0.22	0.5572	0.3748	-0.097
Mof_H 	H 	0.1785	0.5609	0.3321	0.086
Mof_C 	C 	0.4405	0.5934	0.4282	0.359
Mof_C 	C 	0.7855	0.8052	0.6865	0.386
Mof_C 	C 	0.7024	0.7857	0.6978	-0.119
Mof_C 	C 	0.6442	0.7746	0.6312	0.033
Mof_H 	H 	0.658	0.7791	0.5812	0.034
Mof_C 	C 	0.5678	0.7573	0.6397	-0.08
Mof_H 	H 	0.5292	0.7492	0.5955	0.081
Mof_C 	C 	0.5471	0.7518	0.7149	0.015
Mof_C 	C 	0.6043	0.7629	0.7819	-0.08
Mof_H 	H 	0.5903	0.7588	0.8319	0.07
Mof_C 	C 	0.6816	0.7799	0.7727	0.036
Mof_H 	H 	0.7205	0.7876	0.8168	0.037
Mof_C 	C 	0.4629	0.647	0.7645	0.004
Mof_C 	C 	0.478	0.5964	0.7124	-0.081
Mof_H 	H 	0.4736	0.6038	0.6585	0.075
Mof_C 	C 	0.4997	0.5351	0.7448	0.02
Mof_H 	H 	0.5101	0.5006	0.7124	0.037
Mof_C 	C 	0.5059	0.525	0.8261	-0.099
Mof_C 	C 	0.4865	0.5741	0.8746	0.013
Mof_H 	H 	0.488	0.566	0.9281	0.047
Mof_C 	C 	0.4645	0.6361	0.8437	-0.078
Mof_H 	H 	0.4511	0.6696	0.8761	0.072
Mof_C 	C 	0.5439	0.4632	0.8631	0.348
Mof_C 	C 	0.0458	0.7272	0.8858	0.414
Mof_C 	C 	0.0498	0.6539	0.8776	-0.134
Mof_C 	C 	0.0834	0.6136	0.9404	0.05
Mof_H 	H 	0.1058	0.6324	0.9883	0.025
Mof_C 	C 	0.0834	0.5457	0.9315	-0.101
Mof_H 	H 	0.1046	0.5187	0.9735	0.077
Mof_C 	C 	0.0518	0.5186	0.8598	0.025
Mof_C 	C 	0.0184	0.5579	0.7961	-0.108
Mof_H 	H 	0.9973	0.539	0.7479	0.098
Mof_C 	C 	0.0174	0.6253	0.8063	0.055
Mof_H 	H 	0.9947	0.652	0.7646	0.033
Mof_C 	C 	0.1384	0.4172	0.8046	0.03
Mof_C 	C 	0.2079	0.3974	0.8507	-0.099
Mof_H 	H 	0.2089	0.3909	0.9044	0.084
Mof_C 	C 	0.2757	0.3871	0.8183	0.056
Mof_H 	H 	0.3233	0.3742	0.8503	0.03
Mof_C 	C 	0.2751	0.3957	0.7376	-0.134
Mof_C 	C 	0.2046	0.4146	0.6907	0.056
Mof_H 	H 	0.2031	0.4198	0.6368	0.038
Mof_C 	C 	0.1365	0.4258	0.7236	-0.095
Mof_H 	H 	0.0889	0.4392	0.6921	0.091
Mof_C 	C 	0.35	0.3833	0.7023	0.415
Mof_Mn	Mn	0.53479	0.33514	0.74894	1.028
Mof_Mn	Mn	0.64082	0.37878	0.94521	0.808
Mof_Mn	Mn	0.41367	0.35641	0.55064	0.848
Mof_S 	S 	0.39571	0.01595	0.04291	0.269
Mof_S 	S 	0.05085	0.228	0.77372	0.272
Mof_S 	S 	0.44806	0.93185	0.65331	0.258
Mof_O 	O 	0.4951	0.25737	0.6686	-0.404
Mof_O 	O 	0.9302	0.91981	0.679	-0.422
Mof_O 	O 	0.0884	0.8674	0.7529	-0.397
Mof_O 	O 	0.5177	0.26887	0.8431	-0.378
Mof_O 	O 	0.6614	0.30903	0.7544	-0.378
Mof_O 	O 	0.0388	0.10616	0.1376	-0.398
Mof_O 	O 	0.7049	0.3158	0.8847	-0.401
Mof_O 	O 	0.557	0.30601	0.9668	-0.382
Mof_O 	O 	0.9442	0.95907	0.5625	-0.359
Mof_O 	O 	0.1568	0.88969	0.8719	-0.416
Mof_O 	O 	0.4167	0.25412	0.5531	-0.405
Mof_O 	O 	0.0112	0.1001	0.0078	-0.382
Mof_O 	O 	0.3929	0.96775	0.9808	-0.212
Mof_O 	O 	0.4401	0.00224	0.1199	-0.215
Mof_O 	O 	0.099	0.22579	0.8507	-0.205
Mof_O 	O 	0.0761	0.26783	0.7129	-0.213
Mof_O 	O 	0.4375	0.9015	0.577	-0.206
Mof_O 	O 	0.517	0.9155	0.7122	-0.202
Mof_C 	C 	0.5239	0.2654	0.9163	0.387
Mof_C 	C 	0.4902	0.2041	0.9491	-0.105
Mof_C 	C 	0.4493	0.1583	0.8983	0.036
Mof_H 	H 	0.4413	0.166	0.8443	0.036
Mof_C 	C 	0.4203	0.1013	0.927	-0.074
Mof_H 	H 	0.3935	0.0702	0.8924	0.074
Mof_C 	C 	0.431	0.0902	0.0075	0.018
Mof_C 	C 	0.4706	0.135	0.0599	-0.076
Mof_H 	H 	0.4769	0.1274	0.1139	0.085
Mof_C 	C 	0.5009	0.1923	0.0305	0.031
Mof_H 	H 	0.5285	0.2229	0.0651	0.045
Mof_C 	C 	0.2959	0.0343	0.0542	0.016
Mof_C 	C 	0.2359	0.0266	0.989	-0.097
Mof_H 	H 	0.2478	0.0094	0.942	0.078
Mof_C 	C 	0.1588	0.0453	0.9963	0.038
Mof_H 	H 	0.1173	0.0412	0.9536	0.029
Mof_C 	C 	0.142	0.0704	0.0679	-0.122
Mof_C 	C 	0.2017	0.0748	0.1324	0.044
Mof_H 	H 	0.1896	0.0894	0.1805	0.03
Mof_C 	C 	0.28	0.0572	0.1252	-0.097
Mof_H 	H 	0.3215	0.0609	0.1679	0.086
Mof_C 	C 	0.0595	0.0934	0.0718	0.359
Mof_C 	C 	0.7145	0.3052	0.8135	0.386
Mof_C 	C 	0.7976	0.2857	0.8022	-0.119
Mof_C 	C 	0.8558	0.2746	0.8688	0.033
Mof_H 	H 	0.842	0.2791	0.9188	0.034
Mof_C 	C 	0.9322	0.2573	0.8603	-0.08
Mof_H 	H 	0.9708	0.2492	0.9045	0.081
Mof_C 	C 	0.9529	0.2518	0.7851	0.015
Mof_C 	C 	0.8957	0.2629	0.7181	-0.08
Mof_H 	H 	0.9097	0.2588	0.6681	0.071
Mof_C 	C 	0.8184	0.2799	0.7273	0.037
Mof_H 	H 	0.7795	0.2876	0.6832	0.036
Mof_C 	C 	0.0371	0.147	0.7355	0.001
Mof_C 	C 	0.022	0.0964	0.7876	-0.076
Mof_H 	H 	0.0264	0.1038	0.8415	0.073
Mof_C 	C 	0.0003	0.0351	0.7552	0.013
Mof_H 	H 	0.9899	0.0006	0.7876	0.04
Mof_C 	C 	0.9941	0.025	0.6739	-0.094
Mof_C 	C 	0.0135	0.0741	0.6254	0.008
Mof_H 	H 	0.012	0.066	0.5719	0.049
Mof_C 	C 	0.0355	0.1361	0.6563	-0.075
Mof_H 	H 	0.0489	0.1696	0.6239	0.071
Mof_C 	C 	0.9561	0.9632	0.6369	0.345
Mof_C 	C 	0.4542	0.2272	0.6142	0.414
Mof_C 	C 	0.4502	0.1539	0.6224	-0.134
Mof_C 	C 	0.4166	0.1136	0.5596	0.049
Mof_H 	H 	0.3942	0.1324	0.5117	0.025
Mof_C 	C 	0.4166	0.0457	0.5685	-0.101
Mof_H 	H 	0.3954	0.0187	0.5265	0.077
Mof_C 	C 	0.4482	0.0186	0.6402	0.025
Mof_C 	C 	0.4816	0.0579	0.7039	-0.107
Mof_H 	H 	0.5027	0.039	0.7521	0.097
Mof_C 	C 	0.4826	0.1253	0.6937	0.055
Mof_H 	H 	0.5053	0.152	0.7354	0.033
Mof_C 	C 	0.3616	0.9172	0.6954	0.029
Mof_C 	C 	0.2921	0.8974	0.6493	-0.099
Mof_H 	H 	0.2911	0.8909	0.5956	0.084
Mof_C 	C 	0.2243	0.8871	0.6817	0.056
Mof_H 	H 	0.1767	0.8742	0.6497	0.03
Mof_C 	C 	0.2249	0.8957	0.7624	-0.134
Mof_C 	C 	0.2954	0.9146	0.8093	0.056
Mof_H 	H 	0.2969	0.9198	0.8632	0.038
Mof_C 	C 	0.3635	0.9258	0.7764	-0.094
Mof_H 	H 	0.4111	0.9392	0.8079	0.091
Mof_C 	C 	0.15	0.8833	0.7977	0.415
_end
