data_functionalizedCrystal
_audit_creation_method	'EQeq! by Chris Wilmer'
_symmetry_space_group_name_H-M	'P1'
_symmetry_Int_Tables_number	1
_symmetry_cell_setting	triclinic
loop_
_symmetry_equiv_pos_as_xyz
  x,y,z
_cell_length_a	9.612
_cell_length_b	22.868
_cell_length_c	10.159
_cell_angle_alpha	90
_cell_angle_beta	101.07
_cell_angle_gamma	90
loop_
_atom_site_label
_atom_site_type_symbol
_atom_site_fract_x
_atom_site_fract_y
_atom_site_fract_z
_atom_site_charge
Mof_Pr	Pr	0.25589	0.27799	0.03749	2.257
Mof_Pr	Pr	0.72041	0.43549	0.85034	2.588
Mof_N 	N 	0.5972	0.41592	0.6139	-0.283
Mof_N 	N 	0.5336	0.4163	0.3942	-0.196
Mof_H 	H 	0.52871	0.42633	0.3098	0.144
Mof_N 	N 	0.7713	0.50727	0.6359	-0.237
Mof_O 	O 	0.0688	0.34065	0.0988	-0.487
Mof_O 	O 	0.0391	0.29129	0.8552	-0.49
Mof_O 	O 	0.8503	0.37878	0.0427	-0.473
Mof_O 	O 	0.839	0.34303	0.7862	-0.473
Mof_O 	O 	0.5964	0.43569	0.0441	-0.476
Mof_O 	O 	0.4711	0.48968	0.1642	-0.495
Mof_O 	O 	0.3794	0.29746	0.6809	-0.611
Mof_O 	O 	0.5221	0.36037	0.8091	-0.549
Mof_O 	O 	0.2832	0.29676	0.3799	-0.62
Mof_O 	O 	0.3756	0.34096	0.2205	-0.551
Mof_O 	O 	0.1781	0.48027	0.0062	-0.492
Mof_O 	O 	0.9804	0.45148	0.8648	-0.5
Mof_C 	C 	0.4573	0.37187	0.4402	-0.046
Mof_C 	C 	0.4982	0.37277	0.5785	-0.082
Mof_C 	C 	0.617	0.44153	0.5014	0.106
Mof_C 	C 	0.7194	0.49003	0.5077	0.031
Mof_C 	C 	0.7595	0.51474	0.3964	-0.1
Mof_H 	H 	0.72272	0.50057	0.30869	0.067
Mof_C 	C 	0.8562	0.56138	0.4168	0.02
Mof_H 	H 	0.88592	0.57964	0.3429	0.008
Mof_C 	C 	0.9077	0.5804	0.547	-0.12
Mof_H 	H 	0.97232	0.61219	0.56334	0.052
Mof_C 	C 	0.8632	0.55219	0.6531	0.085
Mof_H 	H 	0.89949	0.5653	0.74181	-0.008
Mof_C 	C 	0.5203	0.47822	0.0595	0.269
Mof_C 	C 	0.0449	0.48019	0.9617	0.276
Mof_C 	C 	0.4618	0.34007	0.6946	0.432
Mof_C 	C 	0.3646	0.33369	0.3404	0.438
Mof_C 	C 	0.9551	0.35014	0.0188	0.263
Mof_C 	C 	0.9419	0.32556	0.8732	0.249
Mof_Pr	Pr	0.74411	0.77799	0.46251	2.267
Mof_Pr	Pr	0.27959	0.93549	0.64966	2.584
Mof_N 	N 	0.4028	0.91592	0.8861	-0.282
Mof_N 	N 	0.4664	0.9163	0.1058	-0.195
Mof_H 	H 	0.47129	0.92633	0.1902	0.144
Mof_N 	N 	0.2287	0.00727	0.8641	-0.232
Mof_O 	O 	0.9312	0.84065	0.4012	-0.482
Mof_O 	O 	0.9609	0.79129	0.6448	-0.498
Mof_O 	O 	0.1497	0.87878	0.4573	-0.472
Mof_O 	O 	0.161	0.84303	0.7138	-0.475
Mof_O 	O 	0.4036	0.93569	0.4559	-0.477
Mof_O 	O 	0.5289	0.98968	0.3358	-0.493
Mof_O 	O 	0.6206	0.79746	0.8191	-0.612
Mof_O 	O 	0.4779	0.86037	0.6909	-0.55
Mof_O 	O 	0.7168	0.79676	0.1201	-0.616
Mof_O 	O 	0.6244	0.84096	0.2795	-0.551
Mof_O 	O 	0.8219	0.98027	0.4938	-0.488
Mof_O 	O 	0.0196	0.95148	0.6352	-0.497
Mof_C 	C 	0.5427	0.87187	0.0598	-0.04
Mof_C 	C 	0.5018	0.87277	0.9215	-0.086
Mof_C 	C 	0.383	0.94153	0.9986	0.105
Mof_C 	C 	0.2806	0.99003	0.9923	0.026
Mof_C 	C 	0.2405	0.01474	0.1036	-0.094
Mof_H 	H 	0.27728	0.00057	0.19131	0.064
Mof_C 	C 	0.1438	0.06138	0.0832	0.003
Mof_H 	H 	0.11408	0.07964	0.1571	0.011
Mof_C 	C 	0.0923	0.0804	0.953	-0.102
Mof_H 	H 	0.02768	0.11219	0.93666	0.049
Mof_C 	C 	0.1368	0.05219	0.8469	0.079
Mof_H 	H 	0.10051	0.0653	0.75819	-0.005
Mof_C 	C 	0.4797	0.97822	0.4405	0.268
Mof_C 	C 	0.9551	0.98019	0.5383	0.27
Mof_C 	C 	0.5382	0.84007	0.8054	0.433
Mof_C 	C 	0.6354	0.83369	0.1596	0.437
Mof_C 	C 	0.0449	0.85014	0.4812	0.253
Mof_C 	C 	0.0581	0.82556	0.6268	0.257
Mof_Pr	Pr	0.74411	0.72201	0.96251	2.258
Mof_Pr	Pr	0.27959	0.56451	0.14966	2.589
Mof_N 	N 	0.4028	0.58408	0.3861	-0.283
Mof_N 	N 	0.4664	0.5837	0.6058	-0.196
Mof_H 	H 	0.47129	0.57367	0.6902	0.144
Mof_N 	N 	0.2287	0.49273	0.3641	-0.237
Mof_O 	O 	0.9312	0.65935	0.9012	-0.487
Mof_O 	O 	0.9609	0.70871	0.1448	-0.49
Mof_O 	O 	0.1497	0.62122	0.9573	-0.473
Mof_O 	O 	0.161	0.65697	0.2138	-0.473
Mof_O 	O 	0.4036	0.56431	0.9559	-0.476
Mof_O 	O 	0.5289	0.51032	0.8358	-0.495
Mof_O 	O 	0.6206	0.70254	0.3191	-0.611
Mof_O 	O 	0.4779	0.63963	0.1909	-0.549
Mof_O 	O 	0.7168	0.70324	0.6201	-0.62
Mof_O 	O 	0.6244	0.65904	0.7795	-0.551
Mof_O 	O 	0.8219	0.51973	0.9938	-0.492
Mof_O 	O 	0.0196	0.54852	0.1352	-0.5
Mof_C 	C 	0.5427	0.62813	0.5598	-0.046
Mof_C 	C 	0.5018	0.62723	0.4215	-0.082
Mof_C 	C 	0.383	0.55847	0.4986	0.106
Mof_C 	C 	0.2806	0.50997	0.4923	0.031
Mof_C 	C 	0.2405	0.48526	0.6036	-0.1
Mof_H 	H 	0.27728	0.49943	0.69131	0.067
Mof_C 	C 	0.1438	0.43862	0.5832	0.02
Mof_H 	H 	0.11408	0.42036	0.6571	0.008
Mof_C 	C 	0.0923	0.4196	0.453	-0.12
Mof_H 	H 	0.02768	0.38781	0.43666	0.052
Mof_C 	C 	0.1368	0.44781	0.3469	0.085
Mof_H 	H 	0.10051	0.4347	0.25819	-0.008
Mof_C 	C 	0.4797	0.52178	0.9405	0.269
Mof_C 	C 	0.9551	0.51981	0.0383	0.276
Mof_C 	C 	0.5382	0.65993	0.3054	0.432
Mof_C 	C 	0.6354	0.66631	0.6596	0.438
Mof_C 	C 	0.0449	0.64986	0.9812	0.263
Mof_C 	C 	0.0581	0.67444	0.1268	0.249
Mof_Pr	Pr	0.25589	0.22201	0.53749	2.267
Mof_Pr	Pr	0.72041	0.06451	0.35034	2.584
Mof_N 	N 	0.5972	0.08408	0.1139	-0.282
Mof_N 	N 	0.5336	0.0837	0.8942	-0.195
Mof_H 	H 	0.52871	0.07367	0.8098	0.144
Mof_N 	N 	0.7713	0.99273	0.1359	-0.232
Mof_O 	O 	0.0688	0.15935	0.5988	-0.482
Mof_O 	O 	0.0391	0.20871	0.3552	-0.498
Mof_O 	O 	0.8503	0.12122	0.5427	-0.472
Mof_O 	O 	0.839	0.15697	0.2862	-0.475
Mof_O 	O 	0.5964	0.06431	0.5441	-0.477
Mof_O 	O 	0.4711	0.01032	0.6642	-0.493
Mof_O 	O 	0.3794	0.20254	0.1809	-0.612
Mof_O 	O 	0.5221	0.13963	0.3091	-0.55
Mof_O 	O 	0.2832	0.20324	0.8799	-0.616
Mof_O 	O 	0.3756	0.15904	0.7205	-0.551
Mof_O 	O 	0.1781	0.01973	0.5062	-0.488
Mof_O 	O 	0.9804	0.04852	0.3648	-0.497
Mof_C 	C 	0.4573	0.12813	0.9402	-0.04
Mof_C 	C 	0.4982	0.12723	0.0785	-0.086
Mof_C 	C 	0.617	0.05847	0.0014	0.105
Mof_C 	C 	0.7194	0.00997	0.0077	0.026
Mof_C 	C 	0.7595	0.98526	0.8964	-0.094
Mof_H 	H 	0.72272	0.99943	0.80869	0.064
Mof_C 	C 	0.8562	0.93862	0.9168	0.003
Mof_H 	H 	0.88592	0.92036	0.8429	0.011
Mof_C 	C 	0.9077	0.9196	0.047	-0.102
Mof_H 	H 	0.97232	0.88781	0.06334	0.049
Mof_C 	C 	0.8632	0.94781	0.1531	0.079
Mof_H 	H 	0.89949	0.9347	0.24181	-0.005
Mof_C 	C 	0.5203	0.02178	0.5595	0.268
Mof_C 	C 	0.0449	0.01981	0.4617	0.27
Mof_C 	C 	0.4618	0.15993	0.1946	0.433
Mof_C 	C 	0.3646	0.16631	0.8404	0.437
Mof_C 	C 	0.9551	0.14986	0.5188	0.253
Mof_C 	C 	0.9419	0.17444	0.3732	0.257
_end
