data_functionalizedCrystal
_audit_creation_method	'EQeq! by Chris Wilmer'
_symmetry_space_group_name_H-M	'P1'
_symmetry_Int_Tables_number	1
_symmetry_cell_setting	triclinic
loop_
_symmetry_equiv_pos_as_xyz
  x,y,z
_cell_length_a	12.5078
_cell_length_b	9.4304
_cell_length_c	7.0637
_cell_angle_alpha	90
_cell_angle_beta	106.724
_cell_angle_gamma	90
loop_
_atom_site_label
_atom_site_type_symbol
_atom_site_fract_x
_atom_site_fract_y
_atom_site_fract_z
_atom_site_charge
Mof_Cd	Cd	0.78617	0.16221	0.62113	0.318
Mof_O 	O 	0.6124	0.2416	0.6958	-0.285
Mof_C 	C 	0.5789	0.1185	0.6621	0.295
Mof_N 	N 	0.2171	0.2376	0.7744	-0.306
Mof_H 	H 	0.2351	0.3258	0.7872	0.139
Mof_H 	H 	0.154	0.2101	0.7873	0.151
Mof_O 	O 	0.6355	0.0235	0.6042	-0.291
Mof_C 	C 	0.4678	0.0783	0.6847	-0.055
Mof_C 	C 	0.4378	0.9355	0.6796	0.045
Mof_H 	H 	0.4876	0.8673	0.6613	0.02
Mof_C 	C 	0.3943	0.179	0.7105	-0.082
Mof_H 	H 	0.4129	0.2746	0.7136	0.057
Mof_C 	C 	0.2678	0.9922	0.7274	-0.043
Mof_H 	H 	0.2	0.9628	0.7438	0.065
Mof_C 	C 	0.2915	0.1374	0.7321	0.104
Mof_N 	N 	0.3399	0.8938	0.7001	-0.128
Mof_Cd	Cd	0.28617	0.66221	0.62113	0.321
Mof_O 	O 	0.1124	0.7416	0.6958	-0.284
Mof_C 	C 	0.0789	0.6185	0.6621	0.307
Mof_N 	N 	0.7171	0.7376	0.7744	-0.304
Mof_H 	H 	0.7351	0.8258	0.7872	0.138
Mof_H 	H 	0.654	0.7101	0.7873	0.148
Mof_O 	O 	0.1355	0.5235	0.6042	-0.291
Mof_C 	C 	0.9678	0.5783	0.6847	-0.069
Mof_C 	C 	0.9378	0.4355	0.6796	0.051
Mof_H 	H 	0.9876	0.3673	0.6613	0.015
Mof_C 	C 	0.8943	0.679	0.7105	-0.075
Mof_H 	H 	0.9129	0.7746	0.7136	0.052
Mof_C 	C 	0.7678	0.4922	0.7274	-0.041
Mof_H 	H 	0.7	0.4628	0.7438	0.063
Mof_C 	C 	0.7915	0.6374	0.7321	0.099
Mof_N 	N 	0.8399	0.3938	0.7001	-0.13
Mof_Cd	Cd	0.78617	0.83779	0.12113	0.318
Mof_O 	O 	0.6124	0.7584	0.1958	-0.284
Mof_C 	C 	0.5789	0.8815	0.1621	0.296
Mof_N 	N 	0.2171	0.7624	0.2744	-0.306
Mof_H 	H 	0.2351	0.6742	0.2872	0.139
Mof_H 	H 	0.154	0.7899	0.2873	0.15
Mof_O 	O 	0.6355	0.9765	0.1042	-0.292
Mof_C 	C 	0.4678	0.9217	0.1847	-0.056
Mof_C 	C 	0.4378	0.0645	0.1796	0.045
Mof_H 	H 	0.4876	0.1327	0.1613	0.02
Mof_C 	C 	0.3943	0.821	0.2105	-0.082
Mof_H 	H 	0.4129	0.7254	0.2136	0.057
Mof_C 	C 	0.2678	0.0078	0.2274	-0.043
Mof_H 	H 	0.2	0.0372	0.2438	0.065
Mof_C 	C 	0.2915	0.8626	0.2321	0.103
Mof_N 	N 	0.3399	0.1062	0.2001	-0.128
Mof_Cd	Cd	0.28617	0.33779	0.12113	0.32
Mof_O 	O 	0.1124	0.2584	0.1958	-0.285
Mof_C 	C 	0.0789	0.3815	0.1621	0.307
Mof_N 	N 	0.7171	0.2624	0.2744	-0.304
Mof_H 	H 	0.7351	0.1742	0.2872	0.137
Mof_H 	H 	0.654	0.2899	0.2873	0.148
Mof_O 	O 	0.1355	0.4765	0.1042	-0.292
Mof_C 	C 	0.9678	0.4217	0.1847	-0.07
Mof_C 	C 	0.9378	0.5645	0.1796	0.05
Mof_H 	H 	0.9876	0.6327	0.1613	0.015
Mof_C 	C 	0.8943	0.321	0.2105	-0.075
Mof_H 	H 	0.9129	0.2254	0.2136	0.052
Mof_C 	C 	0.7678	0.5078	0.2274	-0.041
Mof_H 	H 	0.7	0.5372	0.2438	0.063
Mof_C 	C 	0.7915	0.3626	0.2321	0.099
Mof_N 	N 	0.8399	0.6062	0.2001	-0.13
_end
