# CIF file generated by openbabel 3.1.0, see https://openbabel.org
data_I
_chemical_name_common 'image0'
_cell_length_a 12.1962
_cell_length_b 12.3675
_cell_length_c 12.8155
_cell_angle_alpha 90
_cell_angle_beta 91.428
_cell_angle_gamma 90
_space_group_name_H-M_alt 'P 1'
_space_group_name_Hall 'P 1'
loop_
    _symmetry_equiv_pos_as_xyz
    x,y,z
loop_
    _atom_site_label
    _atom_site_type_symbol
    _atom_site_fract_x
    _atom_site_fract_y
    _atom_site_fract_z
    _atom_site_occupancy
    C1       C        0.24590    0.28245    0.26199    1.000
    C2       C        0.72439    0.99767    0.01267    1.000
    C3       C        0.23006    0.27129    0.75819    1.000
    C4       C        0.78496    0.49548    0.97420    1.000
    C5       C        0.98699    0.23116    0.04883    1.000
    C6       C        0.48335    0.28929    0.00525    1.000
    H1       H        0.48900    0.23700    0.06270    1.000
    H2       H        0.98900    0.31000    0.07100    1.000
    H3       H        0.18900    0.33900    0.26200    1.000
    H4       H        0.28800    0.33000    0.76300    1.000
    H5       H        0.73100    0.49200    0.91000    1.000
    H6       H        0.78800    0.00100    0.06200    1.000
    Mn1      Mn       0.23534    0.25497    0.01177    1.000
    Mn2      Mn       0.73602    0.24709    0.01000    1.000
    O1       O        0.19909    0.23455    0.84414    1.000
    O2       O        0.57443    0.31667    0.96969    1.000
    O3       O        0.89582    0.18502    0.04892    1.000
    O4       O        0.07455    0.18937    0.02342    1.000
    O5       O        0.27457    0.24117    0.34712    1.000
    O6       O        0.83512    0.58315    0.99275    1.000
    O7       O        0.39312    0.32397    0.97388    1.000
    O8       O        0.67647    0.08408    0.99073    1.000
    O9       O        0.19194    0.24098    0.67234    1.000
    O10      O        0.69313    0.90642    0.97886    1.000
    O11      O        0.28081    0.25435    0.17541    1.000
    O12      O        0.79731    0.41199    0.02574    1.000
    C7       C        0.25410    0.78245    0.23801    1.000
    C8       C        0.77561    0.49767    0.48733    1.000
    C9       C        0.26994    0.77129    0.74181    1.000
    C10      C        0.71504    0.99548    0.52580    1.000
    C11      C        0.51301    0.73116    0.45117    1.000
    C12      C        0.01665    0.78929    0.49475    1.000
    H7       H        0.01100    0.73700    0.43730    1.000
    H8       H        0.51100    0.81000    0.42900    1.000
    H9       H        0.31100    0.83900    0.23800    1.000
    H10      H        0.21200    0.83000    0.73700    1.000
    H11      H        0.76900    0.99200    0.59000    1.000
    H12      H        0.71200    0.50100    0.43800    1.000
    Mn3      Mn       0.26466    0.75497    0.48823    1.000
    Mn4      Mn       0.76398    0.74709    0.49000    1.000
    O13      O        0.30091    0.73455    0.65586    1.000
    O14      O        0.92557    0.81667    0.53031    1.000
    O15      O        0.60418    0.68502    0.45108    1.000
    O16      O        0.42545    0.68937    0.47658    1.000
    O17      O        0.22543    0.74117    0.15288    1.000
    O18      O        0.66488    0.08315    0.50725    1.000
    O19      O        0.10688    0.82397    0.52612    1.000
    O20      O        0.82353    0.58408    0.50927    1.000
    O21      O        0.30806    0.74098    0.82766    1.000
    O22      O        0.80687    0.40642    0.52114    1.000
    O23      O        0.21919    0.75435    0.32459    1.000
    O24      O        0.70269    0.91199    0.47426    1.000
    C13      C        0.75410    0.71755    0.73801    1.000
    C14      C        0.27561    0.00233    0.98733    1.000
    C15      C        0.76994    0.72871    0.24181    1.000
    C16      C        0.21504    0.50452    0.02580    1.000
    C17      C        0.01301    0.76884    0.95117    1.000
    C18      C        0.51665    0.71071    0.99475    1.000
    H13      H        0.51100    0.76300    0.93730    1.000
    H14      H        0.01100    0.69000    0.92900    1.000
    H15      H        0.81100    0.66100    0.73800    1.000
    H16      H        0.71200    0.67000    0.23700    1.000
    H17      H        0.26900    0.50800    0.09000    1.000
    H18      H        0.21200    0.99900    0.93800    1.000
    Mn5      Mn       0.76466    0.74503    0.98823    1.000
    Mn6      Mn       0.26398    0.75291    0.99000    1.000
    O25      O        0.80091    0.76545    0.15586    1.000
    O26      O        0.42557    0.68333    0.03031    1.000
    O27      O        0.10418    0.81498    0.95108    1.000
    O28      O        0.92545    0.81063    0.97658    1.000
    O29      O        0.72543    0.75883    0.65288    1.000
    O30      O        0.16488    0.41685    0.00725    1.000
    O31      O        0.60688    0.67603    0.02612    1.000
    O32      O        0.32353    0.91592    0.00927    1.000
    O33      O        0.80806    0.75902    0.32766    1.000
    O34      O        0.30687    0.09358    0.02114    1.000
    O35      O        0.71919    0.74565    0.82459    1.000
    O36      O        0.20269    0.58801    0.97426    1.000
    C19      C        0.74590    0.21755    0.76199    1.000
    C20      C        0.22439    0.50233    0.51267    1.000
    C21      C        0.73006    0.22871    0.25819    1.000
    C22      C        0.28496    0.00452    0.47420    1.000
    C23      C        0.48699    0.26884    0.54883    1.000
    C24      C        0.98335    0.21071    0.50525    1.000
    H19      H        0.98900    0.26300    0.56270    1.000
    H20      H        0.48900    0.19000    0.57100    1.000
    H21      H        0.68900    0.16100    0.76200    1.000
    H22      H        0.78800    0.17000    0.26300    1.000
    H23      H        0.23100    0.00800    0.41000    1.000
    H24      H        0.28800    0.49900    0.56200    1.000
    Mn7      Mn       0.73534    0.24503    0.51177    1.000
    Mn8      Mn       0.23602    0.25291    0.51000    1.000
    O37      O        0.69909    0.26545    0.34414    1.000
    O38      O        0.07443    0.18333    0.46969    1.000
    O39      O        0.39582    0.31498    0.54892    1.000
    O40      O        0.57455    0.31063    0.52342    1.000
    O41      O        0.77457    0.25883    0.84712    1.000
    O42      O        0.33512    0.91685    0.49275    1.000
    O43      O        0.89312    0.17603    0.47388    1.000
    O44      O        0.17647    0.41592    0.49073    1.000
    O45      O        0.69194    0.25902    0.17234    1.000
    O46      O        0.19313    0.59358    0.47886    1.000
    O47      O        0.78081    0.24565    0.67541    1.000
    O48      O        0.29731    0.08801    0.52574    1.000
