# CIF file generated by openbabel 3.1.0, see https://openbabel.org
data_I
_chemical_name_common 'image0'
_cell_length_a 8.6987
_cell_length_b 34.1408
_cell_length_c 8.6081
_cell_angle_alpha 90
_cell_angle_beta 107.578
_cell_angle_gamma 90
_space_group_name_H-M_alt 'P 1'
_space_group_name_Hall 'P 1'
loop_
    _symmetry_equiv_pos_as_xyz
    x,y,z
loop_
    _atom_site_label
    _atom_site_type_symbol
    _atom_site_fract_x
    _atom_site_fract_y
    _atom_site_fract_z
    _atom_site_occupancy
    Cu1      Cu       0.74864    0.20347    0.48079    1.000
    Cu2      Cu       0.73786    0.04553    0.49831    1.000
    O1       O        0.89569    0.15350    0.61058    1.000
    O2       O        0.84819    0.08994    0.62824    1.000
    O3       O        0.62075    0.16010    0.35884    1.000
    O4       O        0.61146    0.09515    0.33749    1.000
    O5       O        0.62359    0.20582    0.64187    1.000
    O6       O        0.58668    0.24811    0.82436    1.000
    O7       O        0.87411    0.24625    0.61525    1.000
    O8       O        0.85792    0.28752    0.80976    1.000
    O9       O        0.90586    0.04080    0.38504    1.000
    O10      O        0.08850    0.00016    0.34263    1.000
    O11      O        0.56970    0.04222    0.61270    1.000
    O12      O        0.37848    0.00003    0.62780    1.000
    C1       C        0.81780    0.12323    0.56220    1.000
    C2       C        0.66950    0.12595    0.40530    1.000
    C3       C        0.81040    0.25863    0.71930    1.000
    C4       C        0.65990    0.23615    0.73230    1.000
    C5       C        0.99990    0.01136    0.42120    1.000
    C6       C        0.48500    0.01226    0.56950    1.000
    Cu3      Cu       0.25136    0.70347    0.01921    1.000
    Cu4      Cu       0.26214    0.54553    0.00169    1.000
    O13      O        0.10431    0.65350    0.88942    1.000
    O14      O        0.15181    0.58994    0.87176    1.000
    O15      O        0.37925    0.66010    0.14116    1.000
    O16      O        0.38854    0.59515    0.16251    1.000
    O17      O        0.37641    0.70582    0.85813    1.000
    O18      O        0.41332    0.74811    0.67564    1.000
    O19      O        0.12589    0.74625    0.88475    1.000
    O20      O        0.14208    0.78752    0.69024    1.000
    O21      O        0.09414    0.54080    0.11496    1.000
    O22      O        0.91150    0.50016    0.15737    1.000
    O23      O        0.43030    0.54222    0.88730    1.000
    O24      O        0.62152    0.50003    0.87220    1.000
    C7       C        0.18220    0.62323    0.93780    1.000
    C8       C        0.33050    0.62595    0.09470    1.000
    C9       C        0.18960    0.75863    0.78070    1.000
    C10      C        0.34010    0.73615    0.76770    1.000
    C11      C        0.00010    0.51136    0.07880    1.000
    C12      C        0.51500    0.51226    0.93050    1.000
    Cu5      Cu       0.25136    0.79653    0.51921    1.000
    Cu6      Cu       0.26214    0.95447    0.50169    1.000
    O25      O        0.10431    0.84650    0.38942    1.000
    O26      O        0.15181    0.91006    0.37176    1.000
    O27      O        0.37925    0.83990    0.64116    1.000
    O28      O        0.38854    0.90485    0.66251    1.000
    O29      O        0.37641    0.79418    0.35813    1.000
    O30      O        0.41332    0.75189    0.17564    1.000
    O31      O        0.12589    0.75375    0.38475    1.000
    O32      O        0.14208    0.71248    0.19024    1.000
    O33      O        0.09414    0.95920    0.61496    1.000
    O34      O        0.91150    0.99984    0.65737    1.000
    O35      O        0.43030    0.95778    0.38730    1.000
    O36      O        0.62152    0.99997    0.37220    1.000
    C13      C        0.18220    0.87677    0.43780    1.000
    C14      C        0.33050    0.87405    0.59470    1.000
    C15      C        0.18960    0.74137    0.28070    1.000
    C16      C        0.34010    0.76385    0.26770    1.000
    C17      C        0.00010    0.98864    0.57880    1.000
    C18      C        0.51500    0.98774    0.43050    1.000
    Cu7      Cu       0.74864    0.29653    0.98079    1.000
    Cu8      Cu       0.73786    0.45447    0.99831    1.000
    O37      O        0.89569    0.34650    0.11058    1.000
    O38      O        0.84819    0.41006    0.12824    1.000
    O39      O        0.62075    0.33990    0.85884    1.000
    O40      O        0.61146    0.40485    0.83749    1.000
    O41      O        0.62359    0.29418    0.14187    1.000
    O42      O        0.58668    0.25189    0.32436    1.000
    O43      O        0.87411    0.25375    0.11525    1.000
    O44      O        0.85792    0.21248    0.30976    1.000
    O45      O        0.90586    0.45920    0.88504    1.000
    O46      O        0.08850    0.49984    0.84263    1.000
    O47      O        0.56970    0.45778    0.11270    1.000
    O48      O        0.37848    0.49997    0.12780    1.000
    C19      C        0.81780    0.37677    0.06220    1.000
    C20      C        0.66950    0.37405    0.90530    1.000
    C21      C        0.81040    0.24137    0.21930    1.000
    C22      C        0.65990    0.26385    0.23230    1.000
    C23      C        0.99990    0.48864    0.92120    1.000
    C24      C        0.48500    0.48774    0.06950    1.000
