data_functionalizedCrystal
_audit_creation_method	'EQeq! by Chris Wilmer'
_symmetry_space_group_name_H-M	'P1'
_symmetry_Int_Tables_number	1
_symmetry_cell_setting	triclinic
loop_
_symmetry_equiv_pos_as_xyz
  x,y,z
_cell_length_a	16.746
_cell_length_b	34.094
_cell_length_c	19.114
_cell_angle_alpha	90
_cell_angle_beta	104.321
_cell_angle_gamma	90
loop_
_atom_site_label
_atom_site_type_symbol
_atom_site_fract_x
_atom_site_fract_y
_atom_site_fract_z
_atom_site_charge
Mof_Mg	Mg	0.5107	0.83232	0.53172	1.463
Mof_Mg	Mg	0.29403	0.82238	0.48228	1.469
Mof_Mg	Mg	0.00449	0.87504	0.49347	1.463
Mof_Mg	Mg	0.20476	0.34618	0.03863	1.475
Mof_O 	O 	0.39749	0.97587	0.17212	-0.291
Mof_O 	O 	0.45717	0.86622	0.44583	-0.547
Mof_O 	O 	0.32171	0.85838	0.40636	-0.531
Mof_O 	O 	0.35688	0.96617	0.84183	-0.289
Mof_O 	O 	0.32177	0.85958	0.56548	-0.558
Mof_O 	O 	0.45896	0.8615	0.60329	-0.577
Mof_O 	O 	0.46154	0.11985	0.04791	-0.285
Mof_O 	O 	0.58687	0.29197	0.99159	-0.648
Mof_O 	O 	0.6904	0.26994	0.07617	-0.475
Mof_O 	O 	0.85385	0.9772	0.83368	-0.287
Mof_O 	O 	0.95634	0.8895	0.57793	-0.568
Mof_O 	O 	0.82275	0.87251	0.55672	-0.546
Mof_O 	O 	0.9636	0.13467	0.0028	-0.289
Mof_O 	O 	0.147	0.29703	0.0368	-0.593
Mof_O 	O 	0.0189	0.31718	0.99564	-0.572
Mof_O 	O 	0.88527	0.99485	0.16216	-0.291
Mof_O 	O 	0.75777	0.88571	0.38077	-0.508
Mof_O 	O 	0.88845	0.88153	0.42489	-0.654
Mof_O 	O 	0.6874	0.82777	0.46955	-0.634
Mof_O 	O 	0.56709	0.80005	0.46649	-0.607
Mof_O 	O 	0.05011	0.8614	0.40476	-0.603
Mof_O 	O 	0.17636	0.84088	0.45246	-0.647
Mof_C 	C 	0.3505	0.00665	0.0582	-0.234
Mof_C 	C 	0.3747	0.98463	0.0043	0.287
Mof_C 	C 	0.3986	0.0044	0.94878	-0.227
Mof_C 	C 	0.3964	0.04497	0.9449	0.261
Mof_C 	C 	0.375	0.06678	0.0003	-0.236
Mof_C 	C 	0.3541	0.04757	0.0574	0.281
Mof_C 	C 	0.3752	0.94052	0.0061	-0.643
Mof_H 	H 	0.3569	0.9314	0.0482	0.215
Mof_H 	H 	0.3379	0.9304	0.9619	0.218
Mof_H 	H 	0.4312	0.931	0.0092	0.221
Mof_C 	C 	0.4144	0.0666	0.8797	-0.606
Mof_H 	H 	0.4101	0.095	0.8863	0.201
Mof_H 	H 	0.4702	0.0601	0.8759	0.206
Mof_H 	H 	0.3743	0.0585	0.8355	0.205
Mof_C 	C 	0.3353	0.07064	0.1189	-0.626
Mof_H 	H 	0.3219	0.0525	0.1542	0.212
Mof_H 	H 	0.3836	0.0863	0.1423	0.212
Mof_H 	H 	0.2884	0.0881	0.1002	0.198
Mof_C 	C 	0.3244	0.98499	0.118	0.148
Mof_H 	H 	0.2874	0.0016	0.1385	-0.008
Mof_H 	H 	0.2946	0.9606	0.099	-0.018
Mof_C 	C 	0.3905	0.95137	0.2269	0.296
Mof_C 	C 	0.4625	0.94002	0.2742	-0.294
Mof_H 	H 	0.5134	0.9499	0.268	0.134
Mof_C 	C 	0.4629	0.91473	0.3304	0.187
Mof_H 	H 	0.5137	0.9069	0.3617	-0.024
Mof_C 	C 	0.3891	0.90061	0.3414	-0.257
Mof_C 	C 	0.3162	0.91259	0.2943	0.193
Mof_H 	H 	0.2653	0.9032	0.3011	-0.046
Mof_C 	C 	0.3156	0.9377	0.2379	-0.301
Mof_H 	H 	0.2649	0.9457	0.2067	0.13
Mof_C 	C 	0.389	0.87289	0.4021	0.492
Mof_C 	C 	0.4288	0.98111	0.8939	0.129
Mof_H 	H 	0.4618	0.998	0.8695	0.001
Mof_H 	H 	0.4639	0.9591	0.9176	0.002
Mof_C 	C 	0.3692	0.94323	0.7875	0.301
Mof_C 	C 	0.4458	0.93536	0.7744	-0.298
Mof_H 	H 	0.4943	0.9465	0.8043	0.134
Mof_C 	C 	0.4508	0.91095	0.717	0.193
Mof_H 	H 	0.5034	0.9051	0.7092	-0.037
Mof_C 	C 	0.3821	0.89517	0.6718	-0.269
Mof_C 	C 	0.3062	0.90397	0.6849	0.193
Mof_H 	H 	0.2576	0.8936	0.6537	-0.043
Mof_C 	C 	0.2993	0.92726	0.7419	-0.3
Mof_H 	H 	0.2466	0.9324	0.7501	0.127
Mof_C 	C 	0.3884	0.87017	0.609	0.495
Mof_C 	C 	0.3821	0.11056	0.001	0.155
Mof_H 	H 	0.3783	0.1206	0.9517	-0.032
Mof_H 	H 	0.3375	0.1225	0.0195	-0.024
Mof_C 	C 	0.4939	0.15655	0.0426	0.279
Mof_C 	C 	0.4586	0.1851	0.9931	-0.294
Mof_H 	H 	0.4069	0.1804	0.9601	0.115
Mof_C 	C 	0.4985	0.22028	0.9919	0.179
Mof_H 	H 	0.4745	0.2395	0.957	-0.055
Mof_C 	C 	0.5729	0.22824	0.0403	-0.233
Mof_C 	C 	0.607	0.19983	0.0912	0.158
Mof_H 	H 	0.6576	0.2049	0.1255	-0.018
Mof_C 	C 	0.5679	0.16426	0.0922	-0.276
Mof_H 	H 	0.5919	0.145	0.127	0.126
Mof_C 	C 	0.6189	0.26552	0.0365	0.408
Mof_C 	C 	0.8972	0.01669	0.9374	-0.238
Mof_C 	C 	0.8729	0.99918	0.9954	0.285
Mof_C 	C 	0.8482	0.02443	0.0451	-0.227
Mof_C 	C 	0.8545	0.06509	0.0402	0.274
Mof_C 	C 	0.8751	0.08052	0.9799	-0.245
Mof_C 	C 	0.8962	0.05752	0.9277	0.292
Mof_C 	C 	0.8722	0.95519	0.0049	-0.634
Mof_H 	H 	0.8534	0.9489	0.0483	0.216
Mof_H 	H 	0.8347	0.9433	0.9626	0.212
Mof_H 	H 	0.9279	0.9449	0.01	0.218
Mof_C 	C 	0.8417	0.09084	0.1018	-0.615
Mof_H 	H 	0.8276	0.0743	0.139	0.206
Mof_H 	H 	0.8925	0.1053	0.1228	0.209
Mof_H 	H 	0.7968	0.1094	0.0832	0.196
Mof_C 	C 	0.9157	0.0753	0.8623	-0.644
Mof_H 	H 	0.9292	0.0544	0.8319	0.213
Mof_H 	H 	0.8678	0.09	0.835	0.204
Mof_H 	H 	0.9629	0.093	0.8773	0.211
Mof_C 	C 	0.9263	0.9906	0.8863	0.145
Mof_H 	H 	0.9631	0.0052	0.8622	-0.012
Mof_H 	H 	0.9571	0.968	0.9124	-0.007
Mof_C 	C 	0.8669	0.95452	0.778	0.305
Mof_C 	C 	0.7959	0.94167	0.7283	-0.306
Mof_H 	H 	0.743	0.9481	0.7348	0.131
Mof_C 	C 	0.8029	0.91995	0.6704	0.203
Mof_H 	H 	0.7544	0.9103	0.638	-0.041
Mof_C 	C 	0.8792	0.91157	0.6576	-0.278
Mof_C 	C 	0.9487	0.92453	0.7081	0.212
Mof_H 	H 	0.0016	0.9183	0.7012	-0.043
Mof_C 	C 	0.9435	0.94597	0.7674	-0.324
Mof_H 	H 	0.992	0.9548	0.8008	0.149
Mof_C 	C 	0.8867	0.88957	0.5928	0.492
Mof_C 	C 	0.8156	0.00611	0.1039	0.131
Mof_H 	H 	0.7804	0.0251	0.1217	-0.006
Mof_H 	H 	0.782	0.9828	0.0851	-0.009
Mof_C 	C 	0.8683	0.97152	0.2151	0.318
Mof_C 	C 	0.7896	0.96635	0.2248	-0.333
Mof_H 	H 	0.744	0.9794	0.1942	0.151
Mof_C 	C 	0.7781	0.94241	0.2787	0.215
Mof_H 	H 	0.7242	0.9392	0.2855	-0.037
Mof_C 	C 	0.8438	0.92266	0.3238	-0.29
Mof_C 	C 	0.9225	0.9301	0.3149	0.21
Mof_H 	H 	0.969	0.9185	0.3472	-0.057
Mof_C 	C 	0.934	0.95373	0.2608	-0.327
Mof_H 	H 	0.988	0.9579	0.2548	0.135
Mof_C 	C 	0.8292	0.89626	0.3796	0.467
Mof_C 	C 	0.8788	0.12502	0.974	0.16
Mof_H 	H 	0.86	0.1335	0.923	-0.025
Mof_H 	H 	0.8438	0.1377	0.0023	-0.026
Mof_C 	C 	0.9844	0.1736	0.0056	0.286
Mof_C 	C 	0.0673	0.1818	0.0359	-0.289
Mof_H 	H 	0.1042	0.1612	0.0555	0.126
Mof_C 	C 	0.0954	0.2195	0.0373	0.192
Mof_H 	H 	0.1526	0.2248	0.0546	-0.039
Mof_C 	C 	0.0409	0.25024	0.0136	-0.273
Mof_C 	C 	0.9584	0.24245	0.9886	0.183
Mof_H 	H 	0.9209	0.2635	0.9734	-0.039
Mof_C 	C 	0.9284	0.20373	0.9851	-0.29
Mof_H 	H 	0.871	0.1985	0.9691	0.117
Mof_C 	C 	0.0712	0.29138	0.0154	0.531
Mof_C 	C 	0.6339	0.80102	0.4506	0.71
Mof_C 	C 	0.6561	0.7666	0.4095	-1.003
Mof_H 	H 	0.7104	0.771	0.4002	0.301
Mof_H 	H 	0.6575	0.7426	0.438	0.315
Mof_H 	H 	0.6148	0.7638	0.3634	0.31
Mof_C 	C 	0.1172	0.84707	0.3992	0.741
Mof_C 	C 	0.1271	0.8392	0.3252	-1.083
Mof_H 	H 	0.0757	0.8454	0.2896	0.341
Mof_H 	H 	0.1718	0.8554	0.3162	0.341
Mof_H 	H 	0.1404	0.8114	0.321	0.327
Mof_Mg	Mg	0.4893	0.33232	0.96828	1.464
Mof_Mg	Mg	0.70597	0.32238	0.01772	1.47
Mof_Mg	Mg	0.99551	0.37504	0.00653	1.464
Mof_Mg	Mg	0.79524	0.84618	0.46137	1.476
Mof_O 	O 	0.60251	0.47587	0.32788	-0.291
Mof_O 	O 	0.54283	0.36622	0.05417	-0.547
Mof_O 	O 	0.67829	0.35838	0.09364	-0.531
Mof_O 	O 	0.64312	0.46617	0.65817	-0.288
Mof_O 	O 	0.67823	0.35958	0.93452	-0.558
Mof_O 	O 	0.54104	0.3615	0.89671	-0.577
Mof_O 	O 	0.53846	0.61985	0.45209	-0.286
Mof_O 	O 	0.41313	0.79197	0.50841	-0.649
Mof_O 	O 	0.3096	0.76994	0.42383	-0.475
Mof_O 	O 	0.14615	0.4772	0.66632	-0.287
Mof_O 	O 	0.04366	0.3895	0.92207	-0.568
Mof_O 	O 	0.17725	0.37251	0.94328	-0.546
Mof_O 	O 	0.0364	0.63467	0.4972	-0.288
Mof_O 	O 	0.853	0.79703	0.4632	-0.593
Mof_O 	O 	0.9811	0.81718	0.50436	-0.572
Mof_O 	O 	0.11473	0.49485	0.33784	-0.293
Mof_O 	O 	0.24223	0.38571	0.11923	-0.508
Mof_O 	O 	0.11155	0.38153	0.07511	-0.654
Mof_O 	O 	0.3126	0.32777	0.03045	-0.634
Mof_O 	O 	0.43291	0.30005	0.03351	-0.607
Mof_O 	O 	0.94989	0.3614	0.09524	-0.603
Mof_O 	O 	0.82364	0.34088	0.04754	-0.647
Mof_C 	C 	0.6495	0.50665	0.4418	-0.233
Mof_C 	C 	0.6253	0.48463	0.4957	0.287
Mof_C 	C 	0.6014	0.5044	0.55122	-0.228
Mof_C 	C 	0.6036	0.54497	0.5551	0.26
Mof_C 	C 	0.625	0.56678	0.4997	-0.235
Mof_C 	C 	0.6459	0.54757	0.4426	0.281
Mof_C 	C 	0.6248	0.44052	0.4939	-0.647
Mof_H 	H 	0.6431	0.4314	0.4518	0.216
Mof_H 	H 	0.6621	0.4304	0.5381	0.219
Mof_H 	H 	0.5688	0.431	0.4908	0.222
Mof_C 	C 	0.5856	0.5666	0.6203	-0.606
Mof_H 	H 	0.5899	0.595	0.6137	0.201
Mof_H 	H 	0.5298	0.5601	0.6241	0.206
Mof_H 	H 	0.6257	0.5585	0.6645	0.204
Mof_C 	C 	0.6647	0.57064	0.3811	-0.626
Mof_H 	H 	0.6781	0.5525	0.3458	0.212
Mof_H 	H 	0.6164	0.5863	0.3577	0.212
Mof_H 	H 	0.7116	0.5881	0.3998	0.198
Mof_C 	C 	0.6756	0.48499	0.382	0.146
Mof_H 	H 	0.7126	0.5016	0.3615	-0.008
Mof_H 	H 	0.7054	0.4606	0.401	-0.018
Mof_C 	C 	0.6095	0.45137	0.2731	0.296
Mof_C 	C 	0.5375	0.44002	0.2258	-0.294
Mof_H 	H 	0.4866	0.4499	0.232	0.133
Mof_C 	C 	0.5371	0.41473	0.1696	0.187
Mof_H 	H 	0.4863	0.4069	0.1383	-0.024
Mof_C 	C 	0.6109	0.40061	0.1586	-0.257
Mof_C 	C 	0.6838	0.41259	0.2057	0.193
Mof_H 	H 	0.7347	0.4032	0.1989	-0.046
Mof_C 	C 	0.6844	0.4377	0.2621	-0.301
Mof_H 	H 	0.7351	0.4457	0.2933	0.13
Mof_C 	C 	0.611	0.37289	0.0979	0.492
Mof_C 	C 	0.5712	0.48111	0.6061	0.13
Mof_H 	H 	0.5382	0.498	0.6305	0.001
Mof_H 	H 	0.5361	0.4591	0.5824	0.002
Mof_C 	C 	0.6308	0.44323	0.7125	0.301
Mof_C 	C 	0.5542	0.43536	0.7256	-0.297
Mof_H 	H 	0.5057	0.4465	0.6957	0.135
Mof_C 	C 	0.5492	0.41095	0.783	0.193
Mof_H 	H 	0.4966	0.4051	0.7908	-0.037
Mof_C 	C 	0.6179	0.39517	0.8282	-0.269
Mof_C 	C 	0.6938	0.40397	0.8151	0.193
Mof_H 	H 	0.7424	0.3936	0.8463	-0.043
Mof_C 	C 	0.7007	0.42726	0.7581	-0.3
Mof_H 	H 	0.7534	0.4324	0.7499	0.127
Mof_C 	C 	0.6116	0.37017	0.891	0.495
Mof_C 	C 	0.6179	0.61056	0.499	0.157
Mof_H 	H 	0.6217	0.6206	0.5483	-0.033
Mof_H 	H 	0.6625	0.6225	0.4805	-0.024
Mof_C 	C 	0.5061	0.65655	0.4574	0.28
Mof_C 	C 	0.5414	0.6851	0.5069	-0.295
Mof_H 	H 	0.5931	0.6804	0.5399	0.115
Mof_C 	C 	0.5015	0.72028	0.5081	0.178
Mof_H 	H 	0.5255	0.7395	0.543	-0.055
Mof_C 	C 	0.4271	0.72824	0.4597	-0.232
Mof_C 	C 	0.393	0.69983	0.4088	0.158
Mof_H 	H 	0.3424	0.7049	0.3745	-0.018
Mof_C 	C 	0.4321	0.66426	0.4078	-0.276
Mof_H 	H 	0.4081	0.645	0.373	0.126
Mof_C 	C 	0.3811	0.76552	0.4635	0.408
Mof_C 	C 	0.1028	0.51669	0.5626	-0.238
Mof_C 	C 	0.1271	0.49918	0.5046	0.285
Mof_C 	C 	0.1518	0.52443	0.4549	-0.228
Mof_C 	C 	0.1455	0.56509	0.4598	0.276
Mof_C 	C 	0.1249	0.58052	0.5201	-0.246
Mof_C 	C 	0.1038	0.55752	0.5723	0.292
Mof_C 	C 	0.1278	0.45519	0.4951	-0.637
Mof_H 	H 	0.1466	0.4489	0.4517	0.216
Mof_H 	H 	0.1653	0.4433	0.5374	0.213
Mof_H 	H 	0.0721	0.4449	0.49	0.218
Mof_C 	C 	0.1583	0.59084	0.3982	-0.618
Mof_H 	H 	0.1724	0.5743	0.361	0.207
Mof_H 	H 	0.1075	0.6053	0.3772	0.21
Mof_H 	H 	0.2032	0.6094	0.4168	0.197
Mof_C 	C 	0.0843	0.5753	0.6377	-0.644
Mof_H 	H 	0.0708	0.5544	0.6681	0.213
Mof_H 	H 	0.1322	0.59	0.665	0.204
Mof_H 	H 	0.0371	0.593	0.6227	0.211
Mof_C 	C 	0.0737	0.4906	0.6137	0.145
Mof_H 	H 	0.0369	0.5052	0.6378	-0.011
Mof_H 	H 	0.0429	0.468	0.5876	-0.007
Mof_C 	C 	0.1331	0.45452	0.722	0.303
Mof_C 	C 	0.2041	0.44167	0.7717	-0.305
Mof_H 	H 	0.257	0.4481	0.7652	0.13
Mof_C 	C 	0.1971	0.41995	0.8296	0.202
Mof_H 	H 	0.2456	0.4103	0.862	-0.04
Mof_C 	C 	0.1208	0.41157	0.8424	-0.276
Mof_C 	C 	0.0513	0.42453	0.7919	0.207
Mof_H 	H 	0.9984	0.4183	0.7988	-0.041
Mof_C 	C 	0.0565	0.44597	0.7326	-0.322
Mof_H 	H 	0.008	0.4548	0.6992	0.148
Mof_C 	C 	0.1133	0.38957	0.9072	0.491
Mof_C 	C 	0.1844	0.50611	0.3961	0.136
Mof_H 	H 	0.2196	0.5251	0.3783	-0.007
Mof_H 	H 	0.218	0.4828	0.4149	-0.012
Mof_C 	C 	0.1317	0.47152	0.2849	0.319
Mof_C 	C 	0.2104	0.46635	0.2752	-0.333
Mof_H 	H 	0.256	0.4794	0.3058	0.151
Mof_C 	C 	0.2219	0.44241	0.2213	0.215
Mof_H 	H 	0.2758	0.4392	0.2145	-0.038
Mof_C 	C 	0.1562	0.42266	0.1762	-0.29
Mof_C 	C 	0.0775	0.4301	0.1851	0.21
Mof_H 	H 	0.031	0.4185	0.1528	-0.057
Mof_C 	C 	0.066	0.45373	0.2392	-0.328
Mof_H 	H 	0.012	0.4579	0.2452	0.135
Mof_C 	C 	0.1708	0.39626	0.1204	0.467
Mof_C 	C 	0.1212	0.62502	0.526	0.157
Mof_H 	H 	0.14	0.6335	0.577	-0.025
Mof_H 	H 	0.1562	0.6377	0.4977	-0.024
Mof_C 	C 	0.0156	0.6736	0.4944	0.289
Mof_C 	C 	0.9327	0.6818	0.4641	-0.292
Mof_H 	H 	0.8958	0.6612	0.4445	0.126
Mof_C 	C 	0.9046	0.7195	0.4627	0.193
Mof_H 	H 	0.8474	0.7248	0.4454	-0.04
Mof_C 	C 	0.9591	0.75024	0.4864	-0.274
Mof_C 	C 	0.0416	0.74245	0.5114	0.183
Mof_H 	H 	0.0791	0.7635	0.5266	-0.04
Mof_C 	C 	0.0716	0.70373	0.5149	-0.293
Mof_H 	H 	0.129	0.6985	0.5309	0.117
Mof_C 	C 	0.9288	0.79138	0.4846	0.531
Mof_C 	C 	0.3661	0.30102	0.0494	0.71
Mof_C 	C 	0.3439	0.2666	0.0905	-1.003
Mof_H 	H 	0.2896	0.271	0.0998	0.301
Mof_H 	H 	0.3425	0.2426	0.062	0.315
Mof_H 	H 	0.3852	0.2638	0.1366	0.31
Mof_C 	C 	0.8828	0.34707	0.1008	0.741
Mof_C 	C 	0.8729	0.3392	0.1748	-1.083
Mof_H 	H 	0.9243	0.3454	0.2104	0.341
Mof_H 	H 	0.8282	0.3554	0.1838	0.341
Mof_H 	H 	0.8596	0.3114	0.179	0.326
Mof_Mg	Mg	0.4893	0.16768	0.46828	1.464
Mof_Mg	Mg	0.70597	0.17762	0.51772	1.47
Mof_Mg	Mg	0.99551	0.12496	0.50653	1.464
Mof_Mg	Mg	0.79524	0.65382	0.96137	1.476
Mof_O 	O 	0.60251	0.02413	0.82788	-0.291
Mof_O 	O 	0.54283	0.13378	0.55417	-0.547
Mof_O 	O 	0.67829	0.14162	0.59364	-0.531
Mof_O 	O 	0.64312	0.03383	0.15817	-0.289
Mof_O 	O 	0.67823	0.14042	0.43452	-0.558
Mof_O 	O 	0.54104	0.1385	0.39671	-0.577
Mof_O 	O 	0.53846	0.88015	0.95209	-0.285
Mof_O 	O 	0.41313	0.70803	0.00841	-0.648
Mof_O 	O 	0.3096	0.73006	0.92383	-0.475
Mof_O 	O 	0.14615	0.0228	0.16632	-0.287
Mof_O 	O 	0.04366	0.1105	0.42207	-0.568
Mof_O 	O 	0.17725	0.12749	0.44328	-0.546
Mof_O 	O 	0.0364	0.86533	0.9972	-0.289
Mof_O 	O 	0.853	0.70297	0.9632	-0.593
Mof_O 	O 	0.9811	0.68282	0.00436	-0.572
Mof_O 	O 	0.11473	0.00515	0.83784	-0.291
Mof_O 	O 	0.24223	0.11429	0.61923	-0.508
Mof_O 	O 	0.11155	0.11847	0.57511	-0.654
Mof_O 	O 	0.3126	0.17223	0.53045	-0.634
Mof_O 	O 	0.43291	0.19995	0.53351	-0.607
Mof_O 	O 	0.94989	0.1386	0.59524	-0.603
Mof_O 	O 	0.82364	0.15912	0.54754	-0.647
Mof_C 	C 	0.6495	0.99335	0.9418	-0.234
Mof_C 	C 	0.6253	0.01537	0.9957	0.287
Mof_C 	C 	0.6014	0.9956	0.05122	-0.227
Mof_C 	C 	0.6036	0.95503	0.0551	0.261
Mof_C 	C 	0.625	0.93322	0.9997	-0.236
Mof_C 	C 	0.6459	0.95243	0.9426	0.281
Mof_C 	C 	0.6248	0.05948	0.9939	-0.643
Mof_H 	H 	0.6431	0.0686	0.9518	0.215
Mof_H 	H 	0.6621	0.0696	0.0381	0.218
Mof_H 	H 	0.5688	0.069	0.9908	0.221
Mof_C 	C 	0.5856	0.9334	0.1203	-0.606
Mof_H 	H 	0.5899	0.905	0.1137	0.201
Mof_H 	H 	0.5298	0.9399	0.1241	0.206
Mof_H 	H 	0.6257	0.9415	0.1645	0.205
Mof_C 	C 	0.6647	0.92936	0.8811	-0.626
Mof_H 	H 	0.6781	0.9475	0.8458	0.212
Mof_H 	H 	0.6164	0.9137	0.8577	0.212
Mof_H 	H 	0.7116	0.9119	0.8998	0.198
Mof_C 	C 	0.6756	0.01501	0.882	0.148
Mof_H 	H 	0.7126	0.9984	0.8615	-0.008
Mof_H 	H 	0.7054	0.0394	0.901	-0.018
Mof_C 	C 	0.6095	0.04863	0.7731	0.296
Mof_C 	C 	0.5375	0.05998	0.7258	-0.294
Mof_H 	H 	0.4866	0.0501	0.732	0.134
Mof_C 	C 	0.5371	0.08527	0.6696	0.187
Mof_H 	H 	0.4863	0.0931	0.6383	-0.024
Mof_C 	C 	0.6109	0.09939	0.6586	-0.257
Mof_C 	C 	0.6838	0.08741	0.7057	0.193
Mof_H 	H 	0.7347	0.0968	0.6989	-0.046
Mof_C 	C 	0.6844	0.0623	0.7621	-0.301
Mof_H 	H 	0.7351	0.0543	0.7933	0.13
Mof_C 	C 	0.611	0.12711	0.5979	0.492
Mof_C 	C 	0.5712	0.01889	0.1061	0.129
Mof_H 	H 	0.5382	0.002	0.1305	0.001
Mof_H 	H 	0.5361	0.0409	0.0824	0.002
Mof_C 	C 	0.6308	0.05677	0.2125	0.301
Mof_C 	C 	0.5542	0.06464	0.2256	-0.298
Mof_H 	H 	0.5057	0.0535	0.1957	0.134
Mof_C 	C 	0.5492	0.08905	0.283	0.193
Mof_H 	H 	0.4966	0.0949	0.2908	-0.037
Mof_C 	C 	0.6179	0.10483	0.3282	-0.269
Mof_C 	C 	0.6938	0.09603	0.3151	0.193
Mof_H 	H 	0.7424	0.1064	0.3463	-0.043
Mof_C 	C 	0.7007	0.07274	0.2581	-0.3
Mof_H 	H 	0.7534	0.0676	0.2499	0.127
Mof_C 	C 	0.6116	0.12983	0.391	0.495
Mof_C 	C 	0.6179	0.88944	0.999	0.155
Mof_H 	H 	0.6217	0.8794	0.0483	-0.032
Mof_H 	H 	0.6625	0.8775	0.9805	-0.024
Mof_C 	C 	0.5061	0.84345	0.9574	0.279
Mof_C 	C 	0.5414	0.8149	0.0069	-0.294
Mof_H 	H 	0.5931	0.8196	0.0399	0.115
Mof_C 	C 	0.5015	0.77972	0.0081	0.179
Mof_H 	H 	0.5255	0.7605	0.043	-0.055
Mof_C 	C 	0.4271	0.77176	0.9597	-0.233
Mof_C 	C 	0.393	0.80017	0.9088	0.158
Mof_H 	H 	0.3424	0.7951	0.8745	-0.018
Mof_C 	C 	0.4321	0.83574	0.9078	-0.276
Mof_H 	H 	0.4081	0.855	0.873	0.126
Mof_C 	C 	0.3811	0.73448	0.9635	0.408
Mof_C 	C 	0.1028	0.98331	0.0626	-0.238
Mof_C 	C 	0.1271	0.00082	0.0046	0.285
Mof_C 	C 	0.1518	0.97557	0.9549	-0.227
Mof_C 	C 	0.1455	0.93491	0.9598	0.274
Mof_C 	C 	0.1249	0.91948	0.0201	-0.245
Mof_C 	C 	0.1038	0.94248	0.0723	0.292
Mof_C 	C 	0.1278	0.04481	0.9951	-0.634
Mof_H 	H 	0.1466	0.0511	0.9517	0.216
Mof_H 	H 	0.1653	0.0567	0.0374	0.212
Mof_H 	H 	0.0721	0.0551	0.99	0.218
Mof_C 	C 	0.1583	0.90916	0.8982	-0.615
Mof_H 	H 	0.1724	0.9257	0.861	0.206
Mof_H 	H 	0.1075	0.8947	0.8772	0.209
Mof_H 	H 	0.2032	0.8906	0.9168	0.196
Mof_C 	C 	0.0843	0.9247	0.1377	-0.644
Mof_H 	H 	0.0708	0.9456	0.1681	0.213
Mof_H 	H 	0.1322	0.91	0.165	0.204
Mof_H 	H 	0.0371	0.907	0.1227	0.211
Mof_C 	C 	0.0737	0.0094	0.1137	0.145
Mof_H 	H 	0.0369	0.9948	0.1378	-0.012
Mof_H 	H 	0.0429	0.032	0.0876	-0.007
Mof_C 	C 	0.1331	0.04548	0.222	0.305
Mof_C 	C 	0.2041	0.05833	0.2717	-0.306
Mof_H 	H 	0.257	0.0519	0.2652	0.131
Mof_C 	C 	0.1971	0.08005	0.3296	0.203
Mof_H 	H 	0.2456	0.0897	0.362	-0.041
Mof_C 	C 	0.1208	0.08843	0.3424	-0.278
Mof_C 	C 	0.0513	0.07547	0.2919	0.212
Mof_H 	H 	0.9984	0.0817	0.2988	-0.043
Mof_C 	C 	0.0565	0.05403	0.2326	-0.324
Mof_H 	H 	0.008	0.0452	0.1992	0.149
Mof_C 	C 	0.1133	0.11043	0.4072	0.492
Mof_C 	C 	0.1844	0.99389	0.8961	0.131
Mof_H 	H 	0.2196	0.9749	0.8783	-0.006
Mof_H 	H 	0.218	0.0172	0.9149	-0.009
Mof_C 	C 	0.1317	0.02848	0.7849	0.318
Mof_C 	C 	0.2104	0.03365	0.7752	-0.333
Mof_H 	H 	0.256	0.0206	0.8058	0.151
Mof_C 	C 	0.2219	0.05759	0.7213	0.215
Mof_H 	H 	0.2758	0.0608	0.7145	-0.037
Mof_C 	C 	0.1562	0.07734	0.6762	-0.29
Mof_C 	C 	0.0775	0.0699	0.6851	0.21
Mof_H 	H 	0.031	0.0815	0.6528	-0.057
Mof_C 	C 	0.066	0.04627	0.7392	-0.327
Mof_H 	H 	0.012	0.0421	0.7452	0.135
Mof_C 	C 	0.1708	0.10374	0.6204	0.467
Mof_C 	C 	0.1212	0.87498	0.026	0.16
Mof_H 	H 	0.14	0.8665	0.077	-0.025
Mof_H 	H 	0.1562	0.8623	0.9977	-0.026
Mof_C 	C 	0.0156	0.8264	0.9944	0.286
Mof_C 	C 	0.9327	0.8182	0.9641	-0.289
Mof_H 	H 	0.8958	0.8388	0.9445	0.126
Mof_C 	C 	0.9046	0.7805	0.9627	0.192
Mof_H 	H 	0.8474	0.7752	0.9454	-0.039
Mof_C 	C 	0.9591	0.74976	0.9864	-0.273
Mof_C 	C 	0.0416	0.75755	0.0114	0.183
Mof_H 	H 	0.0791	0.7365	0.0266	-0.039
Mof_C 	C 	0.0716	0.79627	0.0149	-0.29
Mof_H 	H 	0.129	0.8015	0.0309	0.117
Mof_C 	C 	0.9288	0.70862	0.9846	0.531
Mof_C 	C 	0.3661	0.19898	0.5494	0.71
Mof_C 	C 	0.3439	0.2334	0.5905	-1.003
Mof_H 	H 	0.2896	0.229	0.5998	0.301
Mof_H 	H 	0.3425	0.2574	0.562	0.315
Mof_H 	H 	0.3852	0.2362	0.6366	0.31
Mof_C 	C 	0.8828	0.15293	0.6008	0.741
Mof_C 	C 	0.8729	0.1608	0.6748	-1.083
Mof_H 	H 	0.9243	0.1546	0.7104	0.341
Mof_H 	H 	0.8282	0.1446	0.6838	0.341
Mof_H 	H 	0.8596	0.1886	0.679	0.327
Mof_Mg	Mg	0.5107	0.66768	0.03172	1.464
Mof_Mg	Mg	0.29403	0.67762	0.98228	1.47
Mof_Mg	Mg	0.00449	0.62496	0.99347	1.464
Mof_Mg	Mg	0.20476	0.15382	0.53863	1.476
Mof_O 	O 	0.39749	0.52413	0.67212	-0.291
Mof_O 	O 	0.45717	0.63378	0.94583	-0.547
Mof_O 	O 	0.32171	0.64162	0.90636	-0.531
Mof_O 	O 	0.35688	0.53383	0.34183	-0.288
Mof_O 	O 	0.32177	0.64042	0.06548	-0.558
Mof_O 	O 	0.45896	0.6385	0.10329	-0.577
Mof_O 	O 	0.46154	0.38015	0.54791	-0.286
Mof_O 	O 	0.58687	0.20803	0.49159	-0.649
Mof_O 	O 	0.6904	0.23006	0.57617	-0.475
Mof_O 	O 	0.85385	0.5228	0.33368	-0.287
Mof_O 	O 	0.95634	0.6105	0.07793	-0.568
Mof_O 	O 	0.82275	0.62749	0.05672	-0.546
Mof_O 	O 	0.9636	0.36533	0.5028	-0.288
Mof_O 	O 	0.147	0.20297	0.5368	-0.593
Mof_O 	O 	0.0189	0.18282	0.49564	-0.572
Mof_O 	O 	0.88527	0.50515	0.66216	-0.293
Mof_O 	O 	0.75777	0.61429	0.88077	-0.508
Mof_O 	O 	0.88845	0.61847	0.92489	-0.654
Mof_O 	O 	0.6874	0.67223	0.96955	-0.634
Mof_O 	O 	0.56709	0.69995	0.96649	-0.607
Mof_O 	O 	0.05011	0.6386	0.90476	-0.603
Mof_O 	O 	0.17636	0.65912	0.95246	-0.647
Mof_C 	C 	0.3505	0.49335	0.5582	-0.233
Mof_C 	C 	0.3747	0.51537	0.5043	0.287
Mof_C 	C 	0.3986	0.4956	0.44878	-0.228
Mof_C 	C 	0.3964	0.45503	0.4449	0.26
Mof_C 	C 	0.375	0.43322	0.5003	-0.235
Mof_C 	C 	0.3541	0.45243	0.5574	0.281
Mof_C 	C 	0.3752	0.55948	0.5061	-0.647
Mof_H 	H 	0.3569	0.5686	0.5482	0.216
Mof_H 	H 	0.3379	0.5696	0.4619	0.219
Mof_H 	H 	0.4312	0.569	0.5092	0.222
Mof_C 	C 	0.4144	0.4334	0.3797	-0.606
Mof_H 	H 	0.4101	0.405	0.3863	0.201
Mof_H 	H 	0.4702	0.4399	0.3759	0.206
Mof_H 	H 	0.3743	0.4415	0.3355	0.204
Mof_C 	C 	0.3353	0.42936	0.6189	-0.626
Mof_H 	H 	0.3219	0.4475	0.6542	0.212
Mof_H 	H 	0.3836	0.4137	0.6423	0.212
Mof_H 	H 	0.2884	0.4119	0.6002	0.198
Mof_C 	C 	0.3244	0.51501	0.618	0.146
Mof_H 	H 	0.2874	0.4984	0.6385	-0.008
Mof_H 	H 	0.2946	0.5394	0.599	-0.018
Mof_C 	C 	0.3905	0.54863	0.7269	0.296
Mof_C 	C 	0.4625	0.55998	0.7742	-0.294
Mof_H 	H 	0.5134	0.5501	0.768	0.133
Mof_C 	C 	0.4629	0.58527	0.8304	0.187
Mof_H 	H 	0.5137	0.5931	0.8617	-0.024
Mof_C 	C 	0.3891	0.59939	0.8414	-0.257
Mof_C 	C 	0.3162	0.58741	0.7943	0.193
Mof_H 	H 	0.2653	0.5968	0.8011	-0.046
Mof_C 	C 	0.3156	0.5623	0.7379	-0.301
Mof_H 	H 	0.2649	0.5543	0.7067	0.13
Mof_C 	C 	0.389	0.62711	0.9021	0.492
Mof_C 	C 	0.4288	0.51889	0.3939	0.13
Mof_H 	H 	0.4618	0.502	0.3695	0.001
Mof_H 	H 	0.4639	0.5409	0.4176	0.002
Mof_C 	C 	0.3692	0.55677	0.2875	0.301
Mof_C 	C 	0.4458	0.56464	0.2744	-0.297
Mof_H 	H 	0.4943	0.5535	0.3043	0.135
Mof_C 	C 	0.4508	0.58905	0.217	0.193
Mof_H 	H 	0.5034	0.5949	0.2092	-0.037
Mof_C 	C 	0.3821	0.60483	0.1718	-0.269
Mof_C 	C 	0.3062	0.59603	0.1849	0.193
Mof_H 	H 	0.2576	0.6064	0.1537	-0.043
Mof_C 	C 	0.2993	0.57274	0.2419	-0.3
Mof_H 	H 	0.2466	0.5676	0.2501	0.127
Mof_C 	C 	0.3884	0.62983	0.109	0.495
Mof_C 	C 	0.3821	0.38944	0.501	0.157
Mof_H 	H 	0.3783	0.3794	0.4517	-0.033
Mof_H 	H 	0.3375	0.3775	0.5195	-0.024
Mof_C 	C 	0.4939	0.34345	0.5426	0.28
Mof_C 	C 	0.4586	0.3149	0.4931	-0.295
Mof_H 	H 	0.4069	0.3196	0.4601	0.115
Mof_C 	C 	0.4985	0.27972	0.4919	0.178
Mof_H 	H 	0.4745	0.2605	0.457	-0.055
Mof_C 	C 	0.5729	0.27176	0.5403	-0.232
Mof_C 	C 	0.607	0.30017	0.5912	0.158
Mof_H 	H 	0.6576	0.2951	0.6255	-0.018
Mof_C 	C 	0.5679	0.33574	0.5922	-0.276
Mof_H 	H 	0.5919	0.355	0.627	0.126
Mof_C 	C 	0.6189	0.23448	0.5365	0.408
Mof_C 	C 	0.8972	0.48331	0.4374	-0.238
Mof_C 	C 	0.8729	0.50082	0.4954	0.285
Mof_C 	C 	0.8482	0.47557	0.5451	-0.228
Mof_C 	C 	0.8545	0.43491	0.5402	0.276
Mof_C 	C 	0.8751	0.41948	0.4799	-0.246
Mof_C 	C 	0.8962	0.44248	0.4277	0.292
Mof_C 	C 	0.8722	0.54481	0.5049	-0.637
Mof_H 	H 	0.8534	0.5511	0.5483	0.216
Mof_H 	H 	0.8347	0.5567	0.4626	0.213
Mof_H 	H 	0.9279	0.5551	0.51	0.218
Mof_C 	C 	0.8417	0.40916	0.6018	-0.618
Mof_H 	H 	0.8276	0.4257	0.639	0.207
Mof_H 	H 	0.8925	0.3947	0.6228	0.21
Mof_H 	H 	0.7968	0.3906	0.5832	0.197
Mof_C 	C 	0.9157	0.4247	0.3623	-0.644
Mof_H 	H 	0.9292	0.4456	0.3319	0.213
Mof_H 	H 	0.8678	0.41	0.335	0.204
Mof_H 	H 	0.9629	0.407	0.3773	0.211
Mof_C 	C 	0.9263	0.5094	0.3863	0.145
Mof_H 	H 	0.9631	0.4948	0.3622	-0.011
Mof_H 	H 	0.9571	0.532	0.4124	-0.007
Mof_C 	C 	0.8669	0.54548	0.278	0.303
Mof_C 	C 	0.7959	0.55833	0.2283	-0.305
Mof_H 	H 	0.743	0.5519	0.2348	0.13
Mof_C 	C 	0.8029	0.58005	0.1704	0.202
Mof_H 	H 	0.7544	0.5897	0.138	-0.04
Mof_C 	C 	0.8792	0.58843	0.1576	-0.276
Mof_C 	C 	0.9487	0.57547	0.2081	0.207
Mof_H 	H 	0.0016	0.5817	0.2012	-0.041
Mof_C 	C 	0.9435	0.55403	0.2674	-0.322
Mof_H 	H 	0.992	0.5452	0.3008	0.148
Mof_C 	C 	0.8867	0.61043	0.0928	0.491
Mof_C 	C 	0.8156	0.49389	0.6039	0.136
Mof_H 	H 	0.7804	0.4749	0.6217	-0.007
Mof_H 	H 	0.782	0.5172	0.5851	-0.012
Mof_C 	C 	0.8683	0.52848	0.7151	0.319
Mof_C 	C 	0.7896	0.53365	0.7248	-0.333
Mof_H 	H 	0.744	0.5206	0.6942	0.151
Mof_C 	C 	0.7781	0.55759	0.7787	0.215
Mof_H 	H 	0.7242	0.5608	0.7855	-0.038
Mof_C 	C 	0.8438	0.57734	0.8238	-0.29
Mof_C 	C 	0.9225	0.5699	0.8149	0.21
Mof_H 	H 	0.969	0.5815	0.8472	-0.057
Mof_C 	C 	0.934	0.54627	0.7608	-0.328
Mof_H 	H 	0.988	0.5421	0.7548	0.135
Mof_C 	C 	0.8292	0.60374	0.8796	0.467
Mof_C 	C 	0.8788	0.37498	0.474	0.157
Mof_H 	H 	0.86	0.3665	0.423	-0.025
Mof_H 	H 	0.8438	0.3623	0.5023	-0.024
Mof_C 	C 	0.9844	0.3264	0.5056	0.289
Mof_C 	C 	0.0673	0.3182	0.5359	-0.292
Mof_H 	H 	0.1042	0.3388	0.5555	0.126
Mof_C 	C 	0.0954	0.2805	0.5373	0.193
Mof_H 	H 	0.1526	0.2752	0.5546	-0.04
Mof_C 	C 	0.0409	0.24976	0.5136	-0.274
Mof_C 	C 	0.9584	0.25755	0.4886	0.183
Mof_H 	H 	0.9209	0.2365	0.4734	-0.04
Mof_C 	C 	0.9284	0.29627	0.4851	-0.293
Mof_H 	H 	0.871	0.3015	0.4691	0.117
Mof_C 	C 	0.0712	0.20862	0.5154	0.531
Mof_C 	C 	0.6339	0.69898	0.9506	0.71
Mof_C 	C 	0.6561	0.7334	0.9095	-1.003
Mof_H 	H 	0.7104	0.729	0.9002	0.301
Mof_H 	H 	0.6575	0.7574	0.938	0.315
Mof_H 	H 	0.6148	0.7362	0.8634	0.31
Mof_C 	C 	0.1172	0.65293	0.8992	0.741
Mof_C 	C 	0.1271	0.6608	0.8252	-1.083
Mof_H 	H 	0.0757	0.6546	0.7896	0.341
Mof_H 	H 	0.1718	0.6446	0.8162	0.341
Mof_H 	H 	0.1404	0.6886	0.821	0.326
_end
