data_functionalizedCrystal
_audit_creation_method	'EQeq! by Chris Wilmer'
_symmetry_space_group_name_H-M	'P1'
_symmetry_Int_Tables_number	1
_symmetry_cell_setting	triclinic
loop_
_symmetry_equiv_pos_as_xyz
  x,y,z
_cell_length_a	13.5497
_cell_length_b	10.8567
_cell_length_c	14.6263
_cell_angle_alpha	90
_cell_angle_beta	109.784
_cell_angle_gamma	90
loop_
_atom_site_label
_atom_site_type_symbol
_atom_site_fract_x
_atom_site_fract_y
_atom_site_fract_z
_atom_site_charge
Mof_Co	Co	0.4036	0.91509	0.45713	1.17
Mof_Co	Co	0.50478	0.02144	0.29475	1.172
Mof_O 	O 	0.2968	0.03794	0.36946	-0.43
Mof_O 	O 	0.3912	0.1473	0.29933	-0.426
Mof_O 	O 	0.37994	0.42022	0.23512	-0.402
Mof_O 	O 	0.3174	0.2875	0.11241	-0.29
Mof_O 	O 	0.63307	0.28409	0.15489	-0.406
Mof_O 	O 	0.62777	0.40562	0.27721	-0.391
Mof_O 	O 	0.61649	0.16122	0.34814	-0.431
Mof_O 	O 	0.71499	0.15399	0.50453	-0.423
Mof_O 	O 	0.5384	0.95638	0.43331	-0.792
Mof_C 	C 	0.31033	0.12697	0.32111	0.357
Mof_C 	C 	0.22212	0.21774	0.28523	-0.044
Mof_C 	C 	0.13632	0.20416	0.31635	-0.042
Mof_H 	H 	0.1355	0.1386	0.357	0.062
Mof_C 	C 	0.05165	0.28536	0.28874	0.013
Mof_C 	C 	0.05525	0.38263	0.22808	-0.068
Mof_H 	H 	-1.40382e-17	0.4385	0.2087	0.058
Mof_C 	C 	0.1396	0.3977	0.19614	-0.004
Mof_H 	H 	0.14	0.4634	0.1554	0.039
Mof_C 	C 	0.22458	0.31568	0.22406	-0.044
Mof_C 	C 	0.31566	0.34098	0.18794	0.339
Mof_C 	C 	0.96249	0.26643	0.32567	0.046
Mof_C 	C 	0.86047	0.30092	0.26957	-0.072
Mof_H 	H 	0.8484	0.3394	0.21	0.075
Mof_C 	C 	0.77705	0.27824	0.30199	-0.01
Mof_C 	C 	0.79318	0.21686	0.39036	-0.079
Mof_C 	C 	0.89514	0.18574	0.44722	0.018
Mof_H 	H 	0.9073	0.148	0.5071	0.039
Mof_C 	C 	0.97901	0.21036	0.41574	-0.085
Mof_H 	H 	0.0467	0.1894	0.4549	0.065
Mof_C 	C 	0.66919	0.32407	0.24038	0.338
Mof_C 	C 	0.70095	0.17488	0.41692	0.372
Mof_H 	H 	0.5852	0.8977	0.4418	0.275
Mof_Co	Co	0.5964	0.41509	0.04287	1.169
Mof_Co	Co	0.49522	0.52144	0.20525	1.172
Mof_O 	O 	0.7032	0.53794	0.13054	-0.43
Mof_O 	O 	0.6088	0.6473	0.20067	-0.426
Mof_O 	O 	0.62006	0.92022	0.26488	-0.401
Mof_O 	O 	0.6826	0.7875	0.38759	-0.289
Mof_O 	O 	0.36693	0.78409	0.34511	-0.405
Mof_O 	O 	0.37223	0.90562	0.22279	-0.39
Mof_O 	O 	0.38351	0.66122	0.15186	-0.432
Mof_O 	O 	0.28501	0.65399	0.99547	-0.426
Mof_O 	O 	0.4616	0.45638	0.06669	-0.792
Mof_C 	C 	0.68967	0.62697	0.17889	0.357
Mof_C 	C 	0.77788	0.71774	0.21477	-0.045
Mof_C 	C 	0.86368	0.70416	0.18365	-0.041
Mof_H 	H 	0.8645	0.6386	0.143	0.063
Mof_C 	C 	0.94835	0.78536	0.21126	0.017
Mof_C 	C 	0.94475	0.88263	0.27192	-0.049
Mof_H 	H 	1.57804e-33	0.9385	0.2913	0.05
Mof_C 	C 	0.8604	0.8977	0.30386	-0.012
Mof_H 	H 	0.86	0.9634	0.3446	0.044
Mof_C 	C 	0.77542	0.81568	0.27594	-0.04
Mof_C 	C 	0.68434	0.84098	0.31206	0.338
Mof_C 	C 	0.03751	0.76643	0.17433	0.047
Mof_C 	C 	0.13953	0.80092	0.23043	-0.076
Mof_H 	H 	0.1516	0.8394	0.29	0.075
Mof_C 	C 	0.22295	0.77824	0.19801	-0.005
Mof_C 	C 	0.20682	0.71686	0.10964	-0.088
Mof_C 	C 	0.10486	0.68574	0.05278	0.038
Mof_H 	H 	0.0927	0.648	0.9929	0.028
Mof_C 	C 	0.02099	0.71036	0.08426	-0.119
Mof_H 	H 	0.9533	0.6894	0.0451	0.085
Mof_C 	C 	0.33081	0.82407	0.25962	0.336
Mof_C 	C 	0.29905	0.67488	0.08308	0.376
Mof_H 	H 	0.4148	0.3977	0.0582	0.274
Mof_Co	Co	0.5964	0.08491	0.54287	1.169
Mof_Co	Co	0.49522	0.97856	0.70525	1.172
Mof_O 	O 	0.7032	0.96206	0.63054	-0.43
Mof_O 	O 	0.6088	0.8527	0.70067	-0.426
Mof_O 	O 	0.62006	0.57978	0.76488	-0.402
Mof_O 	O 	0.6826	0.7125	0.88759	-0.289
Mof_O 	O 	0.36693	0.71591	0.84511	-0.406
Mof_O 	O 	0.37223	0.59438	0.72279	-0.391
Mof_O 	O 	0.38351	0.83878	0.65186	-0.432
Mof_O 	O 	0.28501	0.84601	0.49547	-0.425
Mof_O 	O 	0.4616	0.04362	0.56669	-0.792
Mof_C 	C 	0.68967	0.87303	0.67889	0.357
Mof_C 	C 	0.77788	0.78226	0.71477	-0.045
Mof_C 	C 	0.86368	0.79584	0.68365	-0.042
Mof_H 	H 	0.8645	0.8614	0.643	0.063
Mof_C 	C 	0.94835	0.71464	0.71126	0.018
Mof_C 	C 	0.94475	0.61737	0.77192	-0.051
Mof_H 	H 	5.61526e-17	0.5615	0.7913	0.05
Mof_C 	C 	0.8604	0.6023	0.80386	-0.011
Mof_H 	H 	0.86	0.5366	0.8446	0.043
Mof_C 	C 	0.77542	0.68432	0.77594	-0.041
Mof_C 	C 	0.68434	0.65902	0.81206	0.338
Mof_C 	C 	0.03751	0.73357	0.67433	0.046
Mof_C 	C 	0.13953	0.69908	0.73043	-0.076
Mof_H 	H 	0.1516	0.6606	0.79	0.075
Mof_C 	C 	0.22295	0.72176	0.69801	-0.006
Mof_C 	C 	0.20682	0.78314	0.60964	-0.087
Mof_C 	C 	0.10486	0.81426	0.55278	0.035
Mof_H 	H 	0.0927	0.852	0.4929	0.03
Mof_C 	C 	0.02099	0.78964	0.58426	-0.12
Mof_H 	H 	0.9533	0.8106	0.5451	0.085
Mof_C 	C 	0.33081	0.67593	0.75962	0.336
Mof_C 	C 	0.29905	0.82512	0.58308	0.374
Mof_H 	H 	0.4148	0.1023	0.5582	0.275
Mof_Co	Co	0.4036	0.58491	0.95713	1.169
Mof_Co	Co	0.50478	0.47856	0.79475	1.172
Mof_O 	O 	0.2968	0.46206	0.86946	-0.43
Mof_O 	O 	0.3912	0.3527	0.79933	-0.426
Mof_O 	O 	0.37994	0.07978	0.73512	-0.401
Mof_O 	O 	0.3174	0.2125	0.61241	-0.289
Mof_O 	O 	0.63307	0.21591	0.65489	-0.405
Mof_O 	O 	0.62777	0.09438	0.77721	-0.39
Mof_O 	O 	0.61649	0.33878	0.84814	-0.431
Mof_O 	O 	0.71499	0.34601	0.00453	-0.425
Mof_O 	O 	0.5384	0.54362	0.93331	-0.792
Mof_C 	C 	0.31033	0.37303	0.82111	0.357
Mof_C 	C 	0.22212	0.28226	0.78523	-0.045
Mof_C 	C 	0.13632	0.29584	0.81635	-0.042
Mof_H 	H 	0.1355	0.3614	0.857	0.061
Mof_C 	C 	0.05165	0.21464	0.78874	0.013
Mof_C 	C 	0.05525	0.11737	0.72808	-0.067
Mof_H 	H 	3.83919e-33	0.0615	0.7087	0.059
Mof_C 	C 	0.1396	0.1023	0.69614	-0.005
Mof_H 	H 	0.14	0.0366	0.6554	0.04
Mof_C 	C 	0.22458	0.18432	0.72406	-0.044
Mof_C 	C 	0.31566	0.15902	0.68794	0.339
Mof_C 	C 	0.96249	0.23357	0.82567	0.048
Mof_C 	C 	0.86047	0.19908	0.76957	-0.073
Mof_H 	H 	0.8484	0.1606	0.71	0.076
Mof_C 	C 	0.77705	0.22176	0.80199	-0.009
Mof_C 	C 	0.79318	0.28314	0.89036	-0.08
Mof_C 	C 	0.89514	0.31426	0.94722	0.022
Mof_H 	H 	0.9073	0.352	0.0071	0.037
Mof_C 	C 	0.97901	0.28964	0.91574	-0.086
Mof_H 	H 	0.0467	0.3106	0.9549	0.065
Mof_C 	C 	0.66919	0.17593	0.74038	0.337
Mof_C 	C 	0.70095	0.32512	0.91692	0.374
Mof_H 	H 	0.5852	0.6023	0.9418	0.275
_end
