data_functionalizedCrystal
_audit_creation_method	'EQeq! by Chris Wilmer'
_symmetry_space_group_name_H-M	'P1'
_symmetry_Int_Tables_number	1
_symmetry_cell_setting	triclinic
loop_
_symmetry_equiv_pos_as_xyz
  x,y,z
_cell_length_a	33.856
_cell_length_b	33.856
_cell_length_c	8.4224
_cell_angle_alpha	90
_cell_angle_beta	90
_cell_angle_gamma	120
loop_
_atom_site_label
_atom_site_type_symbol
_atom_site_fract_x
_atom_site_fract_y
_atom_site_fract_z
_atom_site_charge
Mof_Ag	Ag	0.14736	0.32092	0.50424	0.442
Mof_O 	O 	0.33504	0.32901	0.7864	-0.211
Mof_N 	N 	0.2062	0.3407	0.6593	-0.192
Mof_N 	N 	0.2775	0.1961	0.6149	-0.198
Mof_C 	C 	0.2194	0.3766	0.7617	0.045
Mof_H 	H 	0.2029	0.3924	0.7616	-0.015
Mof_C 	C 	0.2555	0.3906	0.8645	-0.12
Mof_H 	H 	0.2638	0.4158	0.9333	0.048
Mof_C 	C 	0.2792	0.3677	0.8659	0.006
Mof_H 	H 	0.3046	0.3774	0.9348	0.041
Mof_C 	C 	0.2664	0.3305	0.767	-0.067
Mof_C 	C 	0.2294	0.3181	0.6657	0.041
Mof_H 	H 	0.2201	0.2925	0.5981	-0.001
Mof_C 	C 	0.2934	0.3069	0.7629	0.165
Mof_C 	C 	0.2703	0.2573	0.7289	-0.067
Mof_C 	C 	0.2274	0.2268	0.7852	0.012
Mof_H 	H 	0.2101	0.2369	0.8436	0.014
Mof_C 	C 	0.2103	0.181	0.7538	-0.117
Mof_H 	H 	0.1809	0.1591	0.7913	0.054
Mof_C 	C 	0.2358	0.1672	0.6687	0.059
Mof_H 	H 	0.2232	0.1356	0.6471	-0.021
Mof_C 	C 	0.2948	0.241	0.6462	0.046
Mof_H 	H 	0.3247	0.2621	0.6104	0.016
Mof_Ag	Ag	0.81403	0.65425	0.83757	0.442
Mof_O 	O 	0.00171	0.66234	0.11973	-0.21
Mof_N 	N 	0.87287	0.67403	0.99263	-0.191
Mof_N 	N 	0.94417	0.52943	0.94823	-0.197
Mof_C 	C 	0.88607	0.70993	0.09503	0.046
Mof_H 	H 	0.86957	0.72573	0.09493	-0.014
Mof_C 	C 	0.92217	0.72393	0.19783	-0.119
Mof_H 	H 	0.93047	0.74913	0.26663	0.049
Mof_C 	C 	0.94587	0.70103	0.19923	0.007
Mof_H 	H 	0.97127	0.71073	0.26813	0.042
Mof_C 	C 	0.93307	0.66383	0.10033	-0.066
Mof_C 	C 	0.89607	0.65143	0.99903	0.042
Mof_H 	H 	0.88677	0.62583	0.93143	-0
Mof_C 	C 	0.96007	0.64023	0.09623	0.166
Mof_C 	C 	0.93697	0.59063	0.06223	-0.066
Mof_C 	C 	0.89407	0.56013	0.11853	0.014
Mof_H 	H 	0.87677	0.57023	0.17693	0.015
Mof_C 	C 	0.87697	0.51433	0.08713	-0.116
Mof_H 	H 	0.84757	0.49243	0.12463	0.055
Mof_C 	C 	0.90247	0.50053	0.00203	0.06
Mof_H 	H 	0.88987	0.46893	0.98043	-0.02
Mof_C 	C 	0.96147	0.57433	0.97953	0.046
Mof_H 	H 	0.99137	0.59543	0.94373	0.016
Mof_Ag	Ag	0.48069	0.98759	0.17091	0.442
Mof_O 	O 	0.66837	0.99568	0.45307	-0.21
Mof_N 	N 	0.53953	0.00737	0.32597	-0.191
Mof_N 	N 	0.61083	0.86277	0.28157	-0.197
Mof_C 	C 	0.55273	0.04327	0.42837	0.046
Mof_H 	H 	0.53623	0.05907	0.42827	-0.014
Mof_C 	C 	0.58883	0.05727	0.53117	-0.119
Mof_H 	H 	0.59713	0.08247	0.59997	0.049
Mof_C 	C 	0.61253	0.03437	0.53257	0.007
Mof_H 	H 	0.63793	0.04407	0.60147	0.042
Mof_C 	C 	0.59973	0.99717	0.43367	-0.066
Mof_C 	C 	0.56273	0.98477	0.33237	0.042
Mof_H 	H 	0.55343	0.95917	0.26477	-0
Mof_C 	C 	0.62673	0.97357	0.42957	0.166
Mof_C 	C 	0.60363	0.92397	0.39557	-0.066
Mof_C 	C 	0.56073	0.89347	0.45187	0.014
Mof_H 	H 	0.54343	0.90357	0.51027	0.015
Mof_C 	C 	0.54363	0.84767	0.42047	-0.116
Mof_H 	H 	0.51423	0.82577	0.45797	0.055
Mof_C 	C 	0.56913	0.83387	0.33537	0.06
Mof_H 	H 	0.55653	0.80227	0.31377	-0.02
Mof_C 	C 	0.62813	0.90767	0.31287	0.046
Mof_H 	H 	0.65803	0.92877	0.27707	0.016
Mof_Ag	Ag	0.67908	0.82644	0.50424	0.443
Mof_O 	O 	0.67099	0.00603	0.7864	-0.21
Mof_N 	N 	0.6593	0.8655	0.6593	-0.191
Mof_N 	N 	0.8039	0.0814	0.6149	-0.197
Mof_C 	C 	0.6234	0.8428	0.7617	0.046
Mof_H 	H 	0.6076	0.8105	0.7616	-0.014
Mof_C 	C 	0.6094	0.8649	0.8645	-0.119
Mof_H 	H 	0.5842	0.848	0.9333	0.049
Mof_C 	C 	0.6323	0.9115	0.8659	0.007
Mof_H 	H 	0.6226	0.9272	0.9348	0.042
Mof_C 	C 	0.6695	0.9359	0.767	-0.066
Mof_C 	C 	0.6819	0.9113	0.6657	0.042
Mof_H 	H 	0.7075	0.9276	0.5981	-0
Mof_C 	C 	0.6931	0.9865	0.7629	0.166
Mof_C 	C 	0.7427	0.013	0.7289	-0.066
Mof_C 	C 	0.7732	0.0006	0.7852	0.013
Mof_H 	H 	0.7631	0.9732	0.8436	0.015
Mof_C 	C 	0.819	0.0293	0.7538	-0.116
Mof_H 	H 	0.8409	0.0218	0.7913	0.055
Mof_C 	C 	0.8328	0.0686	0.6687	0.06
Mof_H 	H 	0.8644	0.0876	0.6471	-0.021
Mof_C 	C 	0.759	0.0538	0.6462	0.046
Mof_H 	H 	0.7379	0.0626	0.6104	0.016
Mof_Ag	Ag	0.34575	0.15977	0.83757	0.442
Mof_O 	O 	0.33766	0.33936	0.11973	-0.21
Mof_N 	N 	0.32597	0.19883	0.99263	-0.191
Mof_N 	N 	0.47057	0.41473	0.94823	-0.197
Mof_C 	C 	0.29007	0.17613	0.09503	0.046
Mof_H 	H 	0.27427	0.14383	0.09493	-0.014
Mof_C 	C 	0.27607	0.19823	0.19783	-0.119
Mof_H 	H 	0.25087	0.18133	0.26663	0.049
Mof_C 	C 	0.29897	0.24483	0.19923	0.007
Mof_H 	H 	0.28927	0.26053	0.26813	0.042
Mof_C 	C 	0.33617	0.26923	0.10033	-0.066
Mof_C 	C 	0.34857	0.24463	0.99903	0.042
Mof_H 	H 	0.37417	0.26093	0.93143	-0
Mof_C 	C 	0.35977	0.31983	0.09623	0.166
Mof_C 	C 	0.40937	0.34633	0.06223	-0.066
Mof_C 	C 	0.43987	0.33393	0.11853	0.014
Mof_H 	H 	0.42977	0.30653	0.17693	0.015
Mof_C 	C 	0.48567	0.36263	0.08713	-0.116
Mof_H 	H 	0.50757	0.35513	0.12463	0.055
Mof_C 	C 	0.49947	0.40193	0.00203	0.061
Mof_H 	H 	0.53107	0.42093	0.98043	-0.02
Mof_C 	C 	0.42567	0.38713	0.97953	0.046
Mof_H 	H 	0.40457	0.39593	0.94373	0.016
Mof_Ag	Ag	0.01241	0.49311	0.17091	0.442
Mof_O 	O 	0.00432	0.6727	0.45307	-0.21
Mof_N 	N 	0.99263	0.53217	0.32597	-0.191
Mof_N 	N 	0.13723	0.74807	0.28157	-0.197
Mof_C 	C 	0.95673	0.50947	0.42837	0.046
Mof_H 	H 	0.94093	0.47717	0.42827	-0.014
Mof_C 	C 	0.94273	0.53157	0.53117	-0.119
Mof_H 	H 	0.91753	0.51467	0.59997	0.049
Mof_C 	C 	0.96563	0.57817	0.53257	0.007
Mof_H 	H 	0.95593	0.59387	0.60147	0.042
Mof_C 	C 	0.00283	0.60257	0.43367	-0.066
Mof_C 	C 	0.01523	0.57797	0.33237	0.042
Mof_H 	H 	0.04083	0.59427	0.26477	-0
Mof_C 	C 	0.02643	0.65317	0.42957	0.166
Mof_C 	C 	0.07603	0.67967	0.39557	-0.066
Mof_C 	C 	0.10653	0.66727	0.45187	0.014
Mof_H 	H 	0.09643	0.63987	0.51027	0.015
Mof_C 	C 	0.15233	0.69597	0.42047	-0.116
Mof_H 	H 	0.17423	0.68847	0.45797	0.055
Mof_C 	C 	0.16613	0.73527	0.33537	0.061
Mof_H 	H 	0.19773	0.75427	0.31377	-0.02
Mof_C 	C 	0.09233	0.72047	0.31287	0.046
Mof_H 	H 	0.07123	0.72927	0.27707	0.016
Mof_Ag	Ag	0.17356	0.85264	0.50424	0.442
Mof_O 	O 	0.99397	0.66496	0.7864	-0.21
Mof_N 	N 	0.1345	0.7938	0.6593	-0.191
Mof_N 	N 	0.9186	0.7225	0.6149	-0.197
Mof_C 	C 	0.1572	0.7806	0.7617	0.046
Mof_H 	H 	0.1895	0.7971	0.7616	-0.014
Mof_C 	C 	0.1351	0.7445	0.8645	-0.119
Mof_H 	H 	0.152	0.7362	0.9333	0.049
Mof_C 	C 	0.0885	0.7208	0.8659	0.007
Mof_H 	H 	0.0728	0.6954	0.9348	0.042
Mof_C 	C 	0.0641	0.7336	0.767	-0.066
Mof_C 	C 	0.0887	0.7706	0.6657	0.042
Mof_H 	H 	0.0724	0.7799	0.5981	-0
Mof_C 	C 	0.0135	0.7066	0.7629	0.166
Mof_C 	C 	0.987	0.7297	0.7289	-0.066
Mof_C 	C 	0.9994	0.7726	0.7852	0.014
Mof_H 	H 	0.0268	0.7899	0.8436	0.015
Mof_C 	C 	0.9707	0.7897	0.7538	-0.116
Mof_H 	H 	0.9782	0.8191	0.7913	0.055
Mof_C 	C 	0.9314	0.7642	0.6687	0.06
Mof_H 	H 	0.9124	0.7768	0.6471	-0.021
Mof_C 	C 	0.9462	0.7052	0.6462	0.046
Mof_H 	H 	0.9374	0.6753	0.6104	0.016
Mof_Ag	Ag	0.84023	0.18597	0.83757	0.443
Mof_O 	O 	0.66064	0.99829	0.11973	-0.21
Mof_N 	N 	0.80117	0.12713	0.99263	-0.191
Mof_N 	N 	0.58527	0.05583	0.94823	-0.197
Mof_C 	C 	0.82387	0.11393	0.09503	0.046
Mof_H 	H 	0.85617	0.13043	0.09493	-0.014
Mof_C 	C 	0.80177	0.07783	0.19783	-0.119
Mof_H 	H 	0.81867	0.06953	0.26663	0.049
Mof_C 	C 	0.75517	0.05413	0.19923	0.007
Mof_H 	H 	0.73947	0.02873	0.26813	0.042
Mof_C 	C 	0.73077	0.06693	0.10033	-0.066
Mof_C 	C 	0.75537	0.10393	0.99903	0.042
Mof_H 	H 	0.73907	0.11323	0.93143	-0
Mof_C 	C 	0.68017	0.03993	0.09623	0.166
Mof_C 	C 	0.65367	0.06303	0.06223	-0.066
Mof_C 	C 	0.66607	0.10593	0.11853	0.014
Mof_H 	H 	0.69347	0.12323	0.17693	0.015
Mof_C 	C 	0.63737	0.12303	0.08713	-0.116
Mof_H 	H 	0.64487	0.15243	0.12463	0.055
Mof_C 	C 	0.59807	0.09753	0.00203	0.06
Mof_H 	H 	0.57907	0.11013	0.98043	-0.02
Mof_C 	C 	0.61287	0.03853	0.97953	0.046
Mof_H 	H 	0.60407	0.00863	0.94373	0.016
Mof_Ag	Ag	0.50689	0.51931	0.17091	0.443
Mof_O 	O 	0.3273	0.33163	0.45307	-0.21
Mof_N 	N 	0.46783	0.46047	0.32597	-0.191
Mof_N 	N 	0.25193	0.38917	0.28157	-0.197
Mof_C 	C 	0.49053	0.44727	0.42837	0.046
Mof_H 	H 	0.52283	0.46377	0.42827	-0.014
Mof_C 	C 	0.46843	0.41117	0.53117	-0.119
Mof_H 	H 	0.48533	0.40287	0.59997	0.049
Mof_C 	C 	0.42183	0.38747	0.53257	0.007
Mof_H 	H 	0.40613	0.36207	0.60147	0.042
Mof_C 	C 	0.39743	0.40027	0.43367	-0.066
Mof_C 	C 	0.42203	0.43727	0.33237	0.042
Mof_H 	H 	0.40573	0.44657	0.26477	-0
Mof_C 	C 	0.34683	0.37327	0.42957	0.166
Mof_C 	C 	0.32033	0.39637	0.39557	-0.066
Mof_C 	C 	0.33273	0.43927	0.45187	0.014
Mof_H 	H 	0.36013	0.45657	0.51027	0.015
Mof_C 	C 	0.30403	0.45637	0.42047	-0.116
Mof_H 	H 	0.31153	0.48577	0.45797	0.055
Mof_C 	C 	0.26473	0.43087	0.33537	0.06
Mof_H 	H 	0.24573	0.44347	0.31377	-0.02
Mof_C 	C 	0.27953	0.37187	0.31287	0.046
Mof_H 	H 	0.27073	0.34197	0.27707	0.016
Mof_Ag	Ag	0.85264	0.67908	0.49576	0.443
Mof_O 	O 	0.66496	0.67099	0.2136	-0.21
Mof_N 	N 	0.7938	0.6593	0.3407	-0.191
Mof_N 	N 	0.7225	0.8039	0.3851	-0.197
Mof_C 	C 	0.7806	0.6234	0.2383	0.046
Mof_H 	H 	0.7971	0.6076	0.2384	-0.014
Mof_C 	C 	0.7445	0.6094	0.1355	-0.119
Mof_H 	H 	0.7362	0.5842	0.0667	0.049
Mof_C 	C 	0.7208	0.6323	0.1341	0.007
Mof_H 	H 	0.6954	0.6226	0.0652	0.042
Mof_C 	C 	0.7336	0.6695	0.233	-0.066
Mof_C 	C 	0.7706	0.6819	0.3343	0.042
Mof_H 	H 	0.7799	0.7075	0.4019	-0
Mof_C 	C 	0.7066	0.6931	0.2371	0.166
Mof_C 	C 	0.7297	0.7427	0.2711	-0.066
Mof_C 	C 	0.7726	0.7732	0.2148	0.013
Mof_H 	H 	0.7899	0.7631	0.1564	0.015
Mof_C 	C 	0.7897	0.819	0.2462	-0.116
Mof_H 	H 	0.8191	0.8409	0.2087	0.055
Mof_C 	C 	0.7642	0.8328	0.3313	0.06
Mof_H 	H 	0.7768	0.8644	0.3529	-0.021
Mof_C 	C 	0.7052	0.759	0.3538	0.046
Mof_H 	H 	0.6753	0.7379	0.3896	0.016
Mof_Ag	Ag	0.51931	0.01241	0.82909	0.442
Mof_O 	O 	0.33163	0.00432	0.54693	-0.21
Mof_N 	N 	0.46047	0.99263	0.67403	-0.191
Mof_N 	N 	0.38917	0.13723	0.71843	-0.197
Mof_C 	C 	0.44727	0.95673	0.57163	0.046
Mof_H 	H 	0.46377	0.94093	0.57173	-0.014
Mof_C 	C 	0.41117	0.94273	0.46883	-0.119
Mof_H 	H 	0.40287	0.91753	0.40003	0.049
Mof_C 	C 	0.38747	0.96563	0.46743	0.007
Mof_H 	H 	0.36207	0.95593	0.39853	0.042
Mof_C 	C 	0.40027	0.00283	0.56633	-0.066
Mof_C 	C 	0.43727	0.01523	0.66763	0.042
Mof_H 	H 	0.44657	0.04083	0.73523	-0
Mof_C 	C 	0.37327	0.02643	0.57043	0.166
Mof_C 	C 	0.39637	0.07603	0.60443	-0.066
Mof_C 	C 	0.43927	0.10653	0.54813	0.014
Mof_H 	H 	0.45657	0.09643	0.48973	0.015
Mof_C 	C 	0.45637	0.15233	0.57953	-0.116
Mof_H 	H 	0.48577	0.17423	0.54203	0.055
Mof_C 	C 	0.43087	0.16613	0.66463	0.06
Mof_H 	H 	0.44347	0.19773	0.68623	-0.02
Mof_C 	C 	0.37187	0.09233	0.68713	0.046
Mof_H 	H 	0.34197	0.07123	0.72293	0.016
Mof_Ag	Ag	0.18597	0.34575	0.16243	0.442
Mof_O 	O 	0.99829	0.33766	0.88027	-0.21
Mof_N 	N 	0.12713	0.32597	0.00737	-0.191
Mof_N 	N 	0.05583	0.47057	0.05177	-0.197
Mof_C 	C 	0.11393	0.29007	0.90497	0.046
Mof_H 	H 	0.13043	0.27427	0.90507	-0.014
Mof_C 	C 	0.07783	0.27607	0.80217	-0.119
Mof_H 	H 	0.06953	0.25087	0.73337	0.049
Mof_C 	C 	0.05413	0.29897	0.80077	0.007
Mof_H 	H 	0.02873	0.28927	0.73187	0.042
Mof_C 	C 	0.06693	0.33617	0.89967	-0.066
Mof_C 	C 	0.10393	0.34857	0.00097	0.042
Mof_H 	H 	0.11323	0.37417	0.06857	-0
Mof_C 	C 	0.03993	0.35977	0.90377	0.166
Mof_C 	C 	0.06303	0.40937	0.93777	-0.066
Mof_C 	C 	0.10593	0.43987	0.88147	0.014
Mof_H 	H 	0.12323	0.42977	0.82307	0.015
Mof_C 	C 	0.12303	0.48567	0.91287	-0.116
Mof_H 	H 	0.15243	0.50757	0.87537	0.055
Mof_C 	C 	0.09753	0.49947	0.99797	0.06
Mof_H 	H 	0.11013	0.53107	0.01957	-0.02
Mof_C 	C 	0.03853	0.42567	0.02047	0.046
Mof_H 	H 	0.00863	0.40457	0.05627	0.016
Mof_Ag	Ag	0.32092	0.17356	0.49576	0.443
Mof_O 	O 	0.32901	0.99397	0.2136	-0.21
Mof_N 	N 	0.3407	0.1345	0.3407	-0.191
Mof_N 	N 	0.1961	0.9186	0.3851	-0.197
Mof_C 	C 	0.3766	0.1572	0.2383	0.046
Mof_H 	H 	0.3924	0.1895	0.2384	-0.014
Mof_C 	C 	0.3906	0.1351	0.1355	-0.119
Mof_H 	H 	0.4158	0.152	0.0667	0.049
Mof_C 	C 	0.3677	0.0885	0.1341	0.007
Mof_H 	H 	0.3774	0.0728	0.0652	0.042
Mof_C 	C 	0.3305	0.0641	0.233	-0.066
Mof_C 	C 	0.3181	0.0887	0.3343	0.042
Mof_H 	H 	0.2925	0.0724	0.4019	-0
Mof_C 	C 	0.3069	0.0135	0.2371	0.166
Mof_C 	C 	0.2573	0.987	0.2711	-0.066
Mof_C 	C 	0.2268	0.9994	0.2148	0.013
Mof_H 	H 	0.2369	0.0268	0.1564	0.015
Mof_C 	C 	0.181	0.9707	0.2462	-0.116
Mof_H 	H 	0.1591	0.9782	0.2087	0.055
Mof_C 	C 	0.1672	0.9314	0.3313	0.06
Mof_H 	H 	0.1356	0.9124	0.3529	-0.021
Mof_C 	C 	0.241	0.9462	0.3538	0.046
Mof_H 	H 	0.2621	0.9374	0.3896	0.016
Mof_Ag	Ag	0.98759	0.50689	0.82909	0.442
Mof_O 	O 	0.99568	0.3273	0.54693	-0.21
Mof_N 	N 	0.00737	0.46783	0.67403	-0.191
Mof_N 	N 	0.86277	0.25193	0.71843	-0.197
Mof_C 	C 	0.04327	0.49053	0.57163	0.046
Mof_H 	H 	0.05907	0.52283	0.57173	-0.014
Mof_C 	C 	0.05727	0.46843	0.46883	-0.119
Mof_H 	H 	0.08247	0.48533	0.40003	0.049
Mof_C 	C 	0.03437	0.42183	0.46743	0.007
Mof_H 	H 	0.04407	0.40613	0.39853	0.042
Mof_C 	C 	0.99717	0.39743	0.56633	-0.066
Mof_C 	C 	0.98477	0.42203	0.66763	0.042
Mof_H 	H 	0.95917	0.40573	0.73523	-0
Mof_C 	C 	0.97357	0.34683	0.57043	0.166
Mof_C 	C 	0.92397	0.32033	0.60443	-0.066
Mof_C 	C 	0.89347	0.33273	0.54813	0.014
Mof_H 	H 	0.90357	0.36013	0.48973	0.015
Mof_C 	C 	0.84767	0.30403	0.57953	-0.116
Mof_H 	H 	0.82577	0.31153	0.54203	0.055
Mof_C 	C 	0.83387	0.26473	0.66463	0.061
Mof_H 	H 	0.80227	0.24573	0.68623	-0.02
Mof_C 	C 	0.90767	0.27953	0.68713	0.046
Mof_H 	H 	0.92877	0.27073	0.72293	0.016
Mof_Ag	Ag	0.65425	0.84023	0.16243	0.442
Mof_O 	O 	0.66234	0.66064	0.88027	-0.21
Mof_N 	N 	0.67403	0.80117	0.00737	-0.191
Mof_N 	N 	0.52943	0.58527	0.05177	-0.197
Mof_C 	C 	0.70993	0.82387	0.90497	0.046
Mof_H 	H 	0.72573	0.85617	0.90507	-0.014
Mof_C 	C 	0.72393	0.80177	0.80217	-0.119
Mof_H 	H 	0.74913	0.81867	0.73337	0.049
Mof_C 	C 	0.70103	0.75517	0.80077	0.007
Mof_H 	H 	0.71073	0.73947	0.73187	0.042
Mof_C 	C 	0.66383	0.73077	0.89967	-0.066
Mof_C 	C 	0.65143	0.75537	0.00097	0.042
Mof_H 	H 	0.62583	0.73907	0.06857	-0
Mof_C 	C 	0.64023	0.68017	0.90377	0.166
Mof_C 	C 	0.59063	0.65367	0.93777	-0.066
Mof_C 	C 	0.56013	0.66607	0.88147	0.014
Mof_H 	H 	0.57023	0.69347	0.82307	0.015
Mof_C 	C 	0.51433	0.63737	0.91287	-0.116
Mof_H 	H 	0.49243	0.64487	0.87537	0.055
Mof_C 	C 	0.50053	0.59807	0.99797	0.061
Mof_H 	H 	0.46893	0.57907	0.01957	-0.02
Mof_C 	C 	0.57433	0.61287	0.02047	0.046
Mof_H 	H 	0.59543	0.60407	0.05627	0.016
Mof_Ag	Ag	0.82644	0.14736	0.49576	0.442
Mof_O 	O 	0.00603	0.33504	0.2136	-0.21
Mof_N 	N 	0.8655	0.2062	0.3407	-0.191
Mof_N 	N 	0.0814	0.2775	0.3851	-0.197
Mof_C 	C 	0.8428	0.2194	0.2383	0.046
Mof_H 	H 	0.8105	0.2029	0.2384	-0.014
Mof_C 	C 	0.8649	0.2555	0.1355	-0.119
Mof_H 	H 	0.848	0.2638	0.0667	0.049
Mof_C 	C 	0.9115	0.2792	0.1341	0.007
Mof_H 	H 	0.9272	0.3046	0.0652	0.042
Mof_C 	C 	0.9359	0.2664	0.233	-0.066
Mof_C 	C 	0.9113	0.2294	0.3343	0.042
Mof_H 	H 	0.9276	0.2201	0.4019	-0
Mof_C 	C 	0.9865	0.2934	0.2371	0.166
Mof_C 	C 	0.013	0.2703	0.2711	-0.066
Mof_C 	C 	0.0006	0.2274	0.2148	0.014
Mof_H 	H 	0.9732	0.2101	0.1564	0.015
Mof_C 	C 	0.0293	0.2103	0.2462	-0.116
Mof_H 	H 	0.0218	0.1809	0.2087	0.055
Mof_C 	C 	0.0686	0.2358	0.3313	0.06
Mof_H 	H 	0.0876	0.2232	0.3529	-0.021
Mof_C 	C 	0.0538	0.2948	0.3538	0.046
Mof_H 	H 	0.0626	0.3247	0.3896	0.016
Mof_Ag	Ag	0.49311	0.48069	0.82909	0.443
Mof_O 	O 	0.6727	0.66837	0.54693	-0.21
Mof_N 	N 	0.53217	0.53953	0.67403	-0.191
Mof_N 	N 	0.74807	0.61083	0.71843	-0.197
Mof_C 	C 	0.50947	0.55273	0.57163	0.046
Mof_H 	H 	0.47717	0.53623	0.57173	-0.014
Mof_C 	C 	0.53157	0.58883	0.46883	-0.119
Mof_H 	H 	0.51467	0.59713	0.40003	0.049
Mof_C 	C 	0.57817	0.61253	0.46743	0.007
Mof_H 	H 	0.59387	0.63793	0.39853	0.042
Mof_C 	C 	0.60257	0.59973	0.56633	-0.066
Mof_C 	C 	0.57797	0.56273	0.66763	0.042
Mof_H 	H 	0.59427	0.55343	0.73523	-0
Mof_C 	C 	0.65317	0.62673	0.57043	0.166
Mof_C 	C 	0.67967	0.60363	0.60443	-0.066
Mof_C 	C 	0.66727	0.56073	0.54813	0.014
Mof_H 	H 	0.63987	0.54343	0.48973	0.015
Mof_C 	C 	0.69597	0.54363	0.57953	-0.116
Mof_H 	H 	0.68847	0.51423	0.54203	0.055
Mof_C 	C 	0.73527	0.56913	0.66463	0.06
Mof_H 	H 	0.75427	0.55653	0.68623	-0.02
Mof_C 	C 	0.72047	0.62813	0.68713	0.046
Mof_H 	H 	0.72927	0.65803	0.72293	0.016
Mof_Ag	Ag	0.15977	0.81403	0.16243	0.443
Mof_O 	O 	0.33936	0.00171	0.88027	-0.21
Mof_N 	N 	0.19883	0.87287	0.00737	-0.191
Mof_N 	N 	0.41473	0.94417	0.05177	-0.197
Mof_C 	C 	0.17613	0.88607	0.90497	0.046
Mof_H 	H 	0.14383	0.86957	0.90507	-0.014
Mof_C 	C 	0.19823	0.92217	0.80217	-0.119
Mof_H 	H 	0.18133	0.93047	0.73337	0.049
Mof_C 	C 	0.24483	0.94587	0.80077	0.007
Mof_H 	H 	0.26053	0.97127	0.73187	0.042
Mof_C 	C 	0.26923	0.93307	0.89967	-0.066
Mof_C 	C 	0.24463	0.89607	0.00097	0.042
Mof_H 	H 	0.26093	0.88677	0.06857	-0
Mof_C 	C 	0.31983	0.96007	0.90377	0.166
Mof_C 	C 	0.34633	0.93697	0.93777	-0.066
Mof_C 	C 	0.33393	0.89407	0.88147	0.014
Mof_H 	H 	0.30653	0.87677	0.82307	0.015
Mof_C 	C 	0.36263	0.87697	0.91287	-0.116
Mof_H 	H 	0.35513	0.84757	0.87537	0.055
Mof_C 	C 	0.40193	0.90247	0.99797	0.06
Mof_H 	H 	0.42093	0.88987	0.01957	-0.02
Mof_C 	C 	0.38713	0.96147	0.02047	0.046
Mof_H 	H 	0.39593	0.99137	0.05627	0.016
_end
