data_functionalizedCrystal
_audit_creation_method	'EQeq! by Chris Wilmer'
_symmetry_space_group_name_H-M	'P1'
_symmetry_Int_Tables_number	1
_symmetry_cell_setting	triclinic
loop_
_symmetry_equiv_pos_as_xyz
  x,y,z
_cell_length_a	10.585
_cell_length_b	17.703
_cell_length_c	17.703
_cell_angle_alpha	120
_cell_angle_beta	90
_cell_angle_gamma	90
loop_
_atom_site_label
_atom_site_type_symbol
_atom_site_fract_x
_atom_site_fract_y
_atom_site_fract_z
_atom_site_charge
Mof_Zn	Zn	0.01946	0.54014	0.07109	1.204
Mof_Zn	Zn	0.35279	0.53095	0.45986	1.213
Mof_Zn	Zn	0.68613	0.92891	0.46905	1.213
Mof_Zn	Zn	0.51946	0.45986	0.92891	1.213
Mof_Zn	Zn	0.85279	0.46905	0.54014	1.217
Mof_Zn	Zn	0.18613	0.07109	0.53095	1.209
Mof_H 	H 	0.9277	0.469	0.9187	0.07
Mof_H 	H 	0.0549	0.6182	0.9541	0.046
Mof_H 	H 	0.9108	0.6167	0.9738	0.072
Mof_H 	H 	0.7751	0.5065	0.8346	0.127
Mof_H 	H 	0.1025	0.6135	0.8182	0.138
Mof_H 	H 	0.051	0.5725	0.6773	-0.114
Mof_H 	H 	0.7357	0.466	0.692	-0.016
Mof_H 	H 	0.1294	0.4702	0.8454	0.173
Mof_H 	H 	0.1613	0.3241	0.8052	-0.219
Mof_H 	H 	0.9076	0.357	0.7821	0.391
Mof_H 	H 	0.9764	0.2676	0.7249	0.412
Mof_H 	H 	0.0196	0.3504	0.7212	0.365
Mof_H 	H 	0.9708	0.3463	0.924	0.502
Mof_H 	H 	0.111	0.3189	0.9262	0.498
Mof_H 	H 	0.0193	0.2544	0.8525	0.493
Mof_H 	H 	0.26103	0.4497	0.531	0.066
Mof_H 	H 	0.38823	0.3359	0.3818	0.069
Mof_H 	H 	0.24413	0.3571	0.3833	0.067
Mof_H 	H 	0.10843	0.3281	0.4935	0.101
Mof_H 	H 	0.43583	0.2047	0.3865	0.083
Mof_H 	H 	0.38433	0.1048	0.4275	-0.036
Mof_H 	H 	0.06903	0.226	0.534	-0.012
Mof_H 	H 	0.46273	0.3752	0.5298	0.183
Mof_H 	H 	0.49463	0.4811	0.6759	-0.246
Mof_H 	H 	0.24093	0.4251	0.643	0.46
Mof_H 	H 	0.30973	0.4573	0.7324	0.475
Mof_H 	H 	0.35293	0.3708	0.6496	0.464
Mof_H 	H 	0.30413	0.5777	0.6537	0.475
Mof_H 	H 	0.44433	0.6073	0.6811	0.498
Mof_H 	H 	0.35263	0.5981	0.7456	0.499
Mof_H 	H 	0.59437	0.0813	0.5503	0.066
Mof_H 	H 	0.72157	0.0459	0.6641	0.074
Mof_H 	H 	0.57747	0.0262	0.6429	0.073
Mof_H 	H 	0.44177	0.1654	0.6719	0.109
Mof_H 	H 	0.76917	0.1818	0.7953	0.09
Mof_H 	H 	0.71767	0.3227	0.8952	-0.035
Mof_H 	H 	0.40237	0.308	0.774	-0.005
Mof_H 	H 	0.79607	0.1546	0.6248	0.189
Mof_H 	H 	0.82797	0.1948	0.5189	-0.245
Mof_H 	H 	0.57427	0.2179	0.5749	0.466
Mof_H 	H 	0.64307	0.2751	0.5427	0.481
Mof_H 	H 	0.68627	0.2788	0.6292	0.471
Mof_H 	H 	0.63747	0.076	0.4223	0.481
Mof_H 	H 	0.77767	0.0738	0.3927	0.508
Mof_H 	H 	0.68597	0.1475	0.4019	0.508
Mof_H 	H 	0.4277	0.531	0.0813	0.066
Mof_H 	H 	0.5549	0.3818	0.0459	0.073
Mof_H 	H 	0.4108	0.3833	0.0262	0.072
Mof_H 	H 	0.2751	0.4935	0.1654	0.108
Mof_H 	H 	0.6025	0.3865	0.1818	0.086
Mof_H 	H 	0.551	0.4275	0.3227	-0.036
Mof_H 	H 	0.2357	0.534	0.308	-0.008
Mof_H 	H 	0.6294	0.5298	0.1546	0.185
Mof_H 	H 	0.6613	0.6759	0.1948	-0.249
Mof_H 	H 	0.4076	0.643	0.2179	0.465
Mof_H 	H 	0.4764	0.7324	0.2751	0.479
Mof_H 	H 	0.5196	0.6496	0.2788	0.467
Mof_H 	H 	0.4708	0.6537	0.076	0.479
Mof_H 	H 	0.611	0.6811	0.0738	0.504
Mof_H 	H 	0.5193	0.7456	0.1475	0.506
Mof_H 	H 	0.76103	0.5503	0.469	0.066
Mof_H 	H 	0.88823	0.6641	0.6182	0.079
Mof_H 	H 	0.74413	0.6429	0.6167	0.074
Mof_H 	H 	0.60843	0.6719	0.5065	0.109
Mof_H 	H 	0.93583	0.7953	0.6135	0.094
Mof_H 	H 	0.88433	0.8952	0.5725	-0.03
Mof_H 	H 	0.56903	0.774	0.466	-0.004
Mof_H 	H 	0.96273	0.6248	0.4702	0.185
Mof_H 	H 	0.99463	0.5189	0.3241	-0.234
Mof_H 	H 	0.74093	0.5749	0.357	0.464
Mof_H 	H 	0.80973	0.5427	0.2676	0.483
Mof_H 	H 	0.85293	0.6292	0.3504	0.471
Mof_H 	H 	0.80413	0.4223	0.3463	0.481
Mof_H 	H 	0.94433	0.3927	0.3189	0.512
Mof_H 	H 	0.85263	0.4019	0.2544	0.511
Mof_H 	H 	0.09437	0.9187	0.4497	0.06
Mof_H 	H 	0.22157	0.9541	0.3359	0.063
Mof_H 	H 	0.07747	0.9738	0.3571	0.055
Mof_H 	H 	0.94177	0.8346	0.3281	0.099
Mof_H 	H 	0.26917	0.8182	0.2047	0.075
Mof_H 	H 	0.21767	0.6773	0.1048	-0.032
Mof_H 	H 	0.90237	0.692	0.226	-0.003
Mof_H 	H 	0.29607	0.8454	0.3752	0.179
Mof_H 	H 	0.32797	0.8052	0.4811	-0.235
Mof_H 	H 	0.07427	0.7821	0.4251	0.433
Mof_H 	H 	0.14307	0.7249	0.4573	0.452
Mof_H 	H 	0.18627	0.7212	0.3708	0.442
Mof_H 	H 	0.13747	0.924	0.5777	0.454
Mof_H 	H 	0.27767	0.9262	0.6073	0.482
Mof_H 	H 	0.18597	0.8525	0.5981	0.481
Mof_C 	C 	0.2248	0.4681	0.9462	0.462
Mof_C 	C 	0.9787	0.583	0.9345	-0.188
Mof_C 	C 	0.9468	0.5647	0.8439	0.247
Mof_C 	C 	0.8331	0.5198	0.8035	-0.256
Mof_C 	C 	0.0274	0.5838	0.7944	-0.396
Mof_C 	C 	0.9955	0.5584	0.7091	0.272
Mof_C 	C 	0.8097	0.4962	0.718	0.127
Mof_C 	C 	0.1085	0.4501	0.8864	-0.513
Mof_C 	C 	0.0813	0.3523	0.8328	0.881
Mof_C 	C 	0.9874	0.3297	0.7582	-1.226
Mof_C 	C 	0.042	0.3145	0.8889	-1.562
Mof_C 	C 	0.55813	0.4781	0.5319	0.469
Mof_C 	C 	0.31203	0.3515	0.417	-0.2
Mof_C 	C 	0.28013	0.2792	0.4353	0.151
Mof_C 	C 	0.16643	0.2837	0.4802	-0.205
Mof_C 	C 	0.36073	0.2106	0.4162	-0.222
Mof_C 	C 	0.32883	0.1507	0.4416	0.1
Mof_C 	C 	0.14303	0.2218	0.5038	0.084
Mof_C 	C 	0.44183	0.4363	0.5499	-0.525
Mof_C 	C 	0.41463	0.4805	0.6477	0.98
Mof_C 	C 	0.32073	0.4285	0.6703	-1.48
Mof_C 	C 	0.37533	0.5744	0.6855	-1.547
Mof_C 	C 	0.89147	0.0538	0.5219	0.467
Mof_C 	C 	0.64537	0.0655	0.6485	-0.206
Mof_C 	C 	0.61347	0.1561	0.7208	0.158
Mof_C 	C 	0.49977	0.1965	0.7163	-0.207
Mof_C 	C 	0.69407	0.2056	0.7894	-0.224
Mof_C 	C 	0.66217	0.2909	0.8493	0.105
Mof_C 	C 	0.47637	0.282	0.7782	0.088
Mof_C 	C 	0.77517	0.1136	0.5637	-0.528
Mof_C 	C 	0.74797	0.1672	0.5195	0.99
Mof_C 	C 	0.65407	0.2418	0.5715	-1.496
Mof_C 	C 	0.70867	0.1111	0.4256	-1.566
Mof_C 	C 	0.7248	0.5319	0.0538	0.471
Mof_C 	C 	0.4787	0.417	0.0655	-0.205
Mof_C 	C 	0.4468	0.4353	0.1561	0.156
Mof_C 	C 	0.3331	0.4802	0.1965	-0.208
Mof_C 	C 	0.5274	0.4162	0.2056	-0.224
Mof_C 	C 	0.4955	0.4416	0.2909	0.102
Mof_C 	C 	0.3097	0.5038	0.282	0.088
Mof_C 	C 	0.6085	0.5499	0.1136	-0.529
Mof_C 	C 	0.5813	0.6477	0.1672	0.988
Mof_C 	C 	0.4874	0.6703	0.2418	-1.492
Mof_C 	C 	0.542	0.6855	0.1111	-1.561
Mof_C 	C 	0.05813	0.5219	0.4681	0.437
Mof_C 	C 	0.81203	0.6485	0.583	-0.207
Mof_C 	C 	0.78013	0.7208	0.5647	0.159
Mof_C 	C 	0.66643	0.7163	0.5198	-0.207
Mof_C 	C 	0.86073	0.7894	0.5838	-0.223
Mof_C 	C 	0.82883	0.8493	0.5584	0.105
Mof_C 	C 	0.64303	0.7782	0.4962	0.089
Mof_C 	C 	0.94183	0.5637	0.4501	-0.499
Mof_C 	C 	0.91463	0.5195	0.3523	0.981
Mof_C 	C 	0.82073	0.5715	0.3297	-1.489
Mof_C 	C 	0.87533	0.4256	0.3145	-1.561
Mof_C 	C 	0.39147	0.9462	0.4781	0.467
Mof_C 	C 	0.14537	0.9345	0.3515	-0.179
Mof_C 	C 	0.11347	0.8439	0.2792	0.106
Mof_C 	C 	0.99977	0.8035	0.2837	-0.153
Mof_C 	C 	0.19407	0.7944	0.2106	-0.2
Mof_C 	C 	0.16217	0.7091	0.1507	0.084
Mof_C 	C 	0.97637	0.718	0.2218	0.103
Mof_C 	C 	0.27517	0.8864	0.4363	-0.512
Mof_C 	C 	0.24797	0.8328	0.4805	0.941
Mof_C 	C 	0.15407	0.7582	0.4285	-1.423
Mof_C 	C 	0.20867	0.8889	0.5744	-1.496
Mof_N 	N 	0.891	0.5152	0.6697	-0.302
Mof_N 	N 	0.9984	0.5026	0.9394	-0.168
Mof_N 	N 	0.22433	0.1545	0.4848	-0.273
Mof_N 	N 	0.33173	0.4368	0.4974	-0.18
Mof_N 	N 	0.55767	0.3303	0.8455	-0.271
Mof_N 	N 	0.66507	0.0606	0.5632	-0.179
Mof_N 	N 	0.391	0.4848	0.3303	-0.272
Mof_N 	N 	0.4984	0.4974	0.0606	-0.179
Mof_N 	N 	0.72433	0.8455	0.5152	-0.271
Mof_N 	N 	0.83173	0.5632	0.5026	-0.179
Mof_N 	N 	0.05767	0.6697	0.1545	-0.285
Mof_N 	N 	0.16507	0.9394	0.4368	-0.185
Mof_Cl	Cl	0.0201	0.4544	0.13116	-0.614
Mof_Cl	Cl	0.35343	0.67676	0.5456	-0.59
Mof_Cl	Cl	0.68677	0.86884	0.32324	-0.583
Mof_Cl	Cl	0.5201	0.5456	0.86884	-0.589
Mof_Cl	Cl	0.85343	0.32324	0.4544	-0.572
Mof_Cl	Cl	0.18677	0.13116	0.67676	-0.598
Mof_O 	O 	0.3253	0.4338	0.9063	-0.473
Mof_O 	O 	0.2137	0.5149	0.0267	-0.482
Mof_O 	O 	0.65863	0.4725	0.5662	-0.474
Mof_O 	O 	0.54703	0.5118	0.4851	-0.482
Mof_O 	O 	0.99197	0.0937	0.5275	-0.453
Mof_O 	O 	0.88037	0.9733	0.4882	-0.471
Mof_O 	O 	0.8253	0.5662	0.0937	-0.465
Mof_O 	O 	0.7137	0.4851	0.9733	-0.482
Mof_O 	O 	0.15863	0.5275	0.4338	-0.474
Mof_O 	O 	0.04703	0.4882	0.5149	-0.488
Mof_O 	O 	0.49197	0.9063	0.4725	-0.474
Mof_O 	O 	0.38037	0.0267	0.5118	-0.482
_end
