data_functionalizedCrystal
_audit_creation_method	'EQeq! by Chris Wilmer'
_symmetry_space_group_name_H-M	'P1'
_symmetry_Int_Tables_number	1
_symmetry_cell_setting	triclinic
loop_
_symmetry_equiv_pos_as_xyz
  x,y,z
_cell_length_a	11.095
_cell_length_b	17.97
_cell_length_c	19.484
_cell_angle_alpha	90
_cell_angle_beta	90
_cell_angle_gamma	90
loop_
_atom_site_label
_atom_site_type_symbol
_atom_site_fract_x
_atom_site_fract_y
_atom_site_fract_z
_atom_site_charge
Mof_Ti	Ti	0.0997	0.4585	0.5538	1.445
Mof_Ti	Ti	0.4003	0.5415	0.0538	1.443
Mof_Ti	Ti	0.9003	0.9585	0.9462	1.43
Mof_Ti	Ti	0.5997	0.0415	0.4462	1.445
Mof_Ti	Ti	0.9003	0.5415	0.4462	1.445
Mof_Ti	Ti	0.5997	0.4585	0.9462	1.443
Mof_Ti	Ti	0.0997	0.0415	0.0538	1.429
Mof_Ti	Ti	0.4003	0.9585	0.5538	1.444
Mof_H 	H 	0.2321	0.8016	0.4981	0.154
Mof_H 	H 	0.1272	0.6762	0.5085	0.173
Mof_H 	H 	0.2408	0.5057	0.3925	0.174
Mof_H 	H 	0.3919	0.5765	0.3479	-0.043
Mof_H 	H 	0.4991	0.6973	0.3405	-0.049
Mof_H 	H 	0.5175	0.8193	0.3719	0.162
Mof_H 	H 	0.6993	0.61	0.8045	0.16
Mof_H 	H 	0.6829	0.6357	0.689	-0.04
Mof_H 	H 	0.5739	0.6204	0.5777	-0.048
Mof_H 	H 	0.4276	0.5656	0.5143	0.179
Mof_H 	H 	0.3056	0.4583	0.6818	0.164
Mof_H 	H 	0.4077	0.4779	0.7948	0.173
Mof_H 	H 	0.2679	0.1984	0.9981	0.153
Mof_H 	H 	0.3728	0.3238	0.0085	0.169
Mof_H 	H 	0.2592	0.4943	0.8925	0.172
Mof_H 	H 	0.1081	0.4235	0.8479	-0.041
Mof_H 	H 	0.0009	0.3027	0.8405	-0.046
Mof_H 	H 	0.9825	0.1807	0.8719	0.157
Mof_H 	H 	0.8007	0.39	0.3045	0.162
Mof_H 	H 	0.8171	0.3643	0.189	-0.04
Mof_H 	H 	0.9261	0.3796	0.0777	-0.051
Mof_H 	H 	0.0724	0.4344	0.0143	0.181
Mof_H 	H 	0.1944	0.5417	0.1818	0.165
Mof_H 	H 	0.0923	0.5221	0.2948	0.174
Mof_H 	H 	0.7679	0.3016	0.0019	0.153
Mof_H 	H 	0.8728	0.1762	0.9915	0.168
Mof_H 	H 	0.7592	0.0057	0.1075	0.173
Mof_H 	H 	0.6081	0.0765	0.1521	-0.042
Mof_H 	H 	0.5009	0.1973	0.1595	-0.048
Mof_H 	H 	0.4825	0.3193	0.1281	0.161
Mof_H 	H 	0.3007	0.11	0.6955	0.161
Mof_H 	H 	0.3171	0.1357	0.811	-0.04
Mof_H 	H 	0.4261	0.1204	0.9223	-0.049
Mof_H 	H 	0.5724	0.0656	0.9857	0.181
Mof_H 	H 	0.6944	0.9583	0.8182	0.166
Mof_H 	H 	0.5923	0.9779	0.7052	0.172
Mof_H 	H 	0.7321	0.6984	0.5019	0.154
Mof_H 	H 	0.6272	0.8238	0.4915	0.174
Mof_H 	H 	0.7408	0.9943	0.6075	0.174
Mof_H 	H 	0.8919	0.9235	0.6521	-0.045
Mof_H 	H 	0.9991	0.8027	0.6595	-0.052
Mof_H 	H 	0.0175	0.6807	0.6281	0.166
Mof_H 	H 	0.1993	0.89	0.1955	0.16
Mof_H 	H 	0.1829	0.8643	0.311	-0.039
Mof_H 	H 	0.0739	0.8796	0.4223	-0.048
Mof_H 	H 	0.9276	0.9344	0.4857	0.178
Mof_H 	H 	0.8056	0.0417	0.3182	0.162
Mof_H 	H 	0.9077	0.0221	0.2052	0.174
Mof_H 	H 	0.7679	0.1984	0.5019	0.154
Mof_H 	H 	0.8728	0.3238	0.4915	0.173
Mof_H 	H 	0.7592	0.4943	0.6075	0.174
Mof_H 	H 	0.6081	0.4235	0.6521	-0.043
Mof_H 	H 	0.5009	0.3027	0.6595	-0.049
Mof_H 	H 	0.4825	0.1807	0.6281	0.162
Mof_H 	H 	0.3007	0.39	0.1955	0.16
Mof_H 	H 	0.3171	0.3643	0.311	-0.04
Mof_H 	H 	0.4261	0.3796	0.4223	-0.048
Mof_H 	H 	0.5724	0.4344	0.4857	0.179
Mof_H 	H 	0.6944	0.5417	0.3182	0.164
Mof_H 	H 	0.5923	0.5221	0.2052	0.173
Mof_H 	H 	0.7321	0.8016	0.0019	0.153
Mof_H 	H 	0.6272	0.6762	0.9915	0.169
Mof_H 	H 	0.7408	0.5057	0.1075	0.172
Mof_H 	H 	0.8919	0.5765	0.1521	-0.041
Mof_H 	H 	0.9991	0.6973	0.1595	-0.046
Mof_H 	H 	0.0175	0.8193	0.1281	0.157
Mof_H 	H 	0.1993	0.61	0.6955	0.162
Mof_H 	H 	0.1829	0.6357	0.811	-0.04
Mof_H 	H 	0.0739	0.6204	0.9223	-0.051
Mof_H 	H 	0.9276	0.5656	0.9857	0.181
Mof_H 	H 	0.8056	0.4583	0.8182	0.165
Mof_H 	H 	0.9077	0.4779	0.7052	0.174
Mof_H 	H 	0.2321	0.6984	0.9981	0.153
Mof_H 	H 	0.1272	0.8238	0.0085	0.168
Mof_H 	H 	0.2408	0.9943	0.8925	0.173
Mof_H 	H 	0.3919	0.9235	0.8479	-0.042
Mof_H 	H 	0.4991	0.8027	0.8405	-0.048
Mof_H 	H 	0.5175	0.6807	0.8719	0.161
Mof_H 	H 	0.6993	0.89	0.3045	0.161
Mof_H 	H 	0.6829	0.8643	0.189	-0.04
Mof_H 	H 	0.5739	0.8796	0.0777	-0.049
Mof_H 	H 	0.4276	0.9344	0.0143	0.181
Mof_H 	H 	0.3056	0.0417	0.1818	0.166
Mof_H 	H 	0.4077	0.0221	0.2948	0.172
Mof_H 	H 	0.2679	0.3016	0.4981	0.154
Mof_H 	H 	0.3728	0.1762	0.5085	0.174
Mof_H 	H 	0.2592	0.0057	0.3925	0.174
Mof_H 	H 	0.1081	0.0765	0.3479	-0.045
Mof_H 	H 	0.0009	0.1973	0.3405	-0.052
Mof_H 	H 	0.9825	0.3193	0.3719	0.166
Mof_H 	H 	0.8007	0.11	0.8045	0.16
Mof_H 	H 	0.8171	0.1357	0.689	-0.039
Mof_H 	H 	0.9261	0.1204	0.5777	-0.048
Mof_H 	H 	0.0724	0.0656	0.5143	0.178
Mof_H 	H 	0.1944	0.9583	0.6818	0.162
Mof_H 	H 	0.0923	0.9779	0.7948	0.174
Mof_C 	C 	0.3747	0.8215	0.4376	0.351
Mof_C 	C 	0.2847	0.7801	0.4666	-0.392
Mof_C 	C 	0.2723	0.7039	0.4482	0.297
Mof_C 	C 	0.1799	0.6573	0.4758	-0.43
Mof_C 	C 	0.1681	0.5852	0.4546	0.416
Mof_C 	C 	0.249	0.555	0.4061	-0.381
Mof_C 	C 	0.3388	0.5974	0.3793	0.2
Mof_C 	C 	0.3527	0.6736	0.3987	-0.243
Mof_C 	C 	0.4449	0.7177	0.3717	0.198
Mof_C 	C 	0.4561	0.7903	0.3904	-0.347
Mof_C 	C 	0.552	0.5412	0.8104	0.414
Mof_C 	C 	0.6374	0.589	0.7788	-0.367
Mof_C 	C 	0.6275	0.604	0.7096	0.205
Mof_C 	C 	0.535	0.5723	0.6697	-0.257
Mof_C 	C 	0.5213	0.5873	0.5988	0.227
Mof_C 	C 	0.434	0.5549	0.5609	-0.385
Mof_C 	C 	0.3512	0.5043	0.5921	0.441
Mof_C 	C 	0.3606	0.4903	0.6612	-0.447
Mof_C 	C 	0.4508	0.5231	0.7018	0.333
Mof_C 	C 	0.4624	0.5093	0.7732	-0.442
Mof_C 	C 	0.1253	0.1785	0.9376	0.346
Mof_C 	C 	0.2153	0.2199	0.9666	-0.387
Mof_C 	C 	0.2277	0.2961	0.9482	0.292
Mof_C 	C 	0.3201	0.3427	0.9758	-0.422
Mof_C 	C 	0.3319	0.4148	0.9546	0.413
Mof_C 	C 	0.251	0.445	0.9061	-0.377
Mof_C 	C 	0.1612	0.4026	0.8793	0.196
Mof_C 	C 	0.1473	0.3264	0.8987	-0.238
Mof_C 	C 	0.0551	0.2823	0.8717	0.191
Mof_C 	C 	0.0439	0.2097	0.8904	-0.338
Mof_C 	C 	0.948	0.4588	0.3104	0.418
Mof_C 	C 	0.8626	0.411	0.2788	-0.37
Mof_C 	C 	0.8725	0.396	0.2096	0.208
Mof_C 	C 	0.965	0.4277	0.1697	-0.259
Mof_C 	C 	0.9787	0.4127	0.0988	0.238
Mof_C 	C 	0.066	0.4451	0.0609	-0.396
Mof_C 	C 	0.1488	0.4957	0.0921	0.445
Mof_C 	C 	0.1394	0.5097	0.1612	-0.45
Mof_C 	C 	0.0492	0.4769	0.2018	0.333
Mof_C 	C 	0.0376	0.4907	0.2732	-0.447
Mof_C 	C 	0.6253	0.3215	0.0624	0.349
Mof_C 	C 	0.7153	0.2801	0.0334	-0.388
Mof_C 	C 	0.7277	0.2039	0.0518	0.292
Mof_C 	C 	0.8201	0.1573	0.0242	-0.419
Mof_C 	C 	0.8319	0.0852	0.0454	0.411
Mof_C 	C 	0.751	0.055	0.0939	-0.377
Mof_C 	C 	0.6612	0.0974	0.1207	0.196
Mof_C 	C 	0.6473	0.1736	0.1013	-0.24
Mof_C 	C 	0.5551	0.2177	0.1283	0.195
Mof_C 	C 	0.5439	0.2903	0.1096	-0.345
Mof_C 	C 	0.448	0.0412	0.6896	0.415
Mof_C 	C 	0.3626	0.089	0.7212	-0.369
Mof_C 	C 	0.3725	0.104	0.7904	0.206
Mof_C 	C 	0.465	0.0723	0.8303	-0.26
Mof_C 	C 	0.4787	0.0873	0.9012	0.231
Mof_C 	C 	0.566	0.0549	0.9391	-0.389
Mof_C 	C 	0.6488	0.0043	0.9079	0.447
Mof_C 	C 	0.6394	0.9903	0.8388	-0.454
Mof_C 	C 	0.5492	0.0231	0.7982	0.337
Mof_C 	C 	0.5376	0.0093	0.7268	-0.443
Mof_C 	C 	0.8747	0.6785	0.5624	0.354
Mof_C 	C 	0.7847	0.7199	0.5334	-0.394
Mof_C 	C 	0.7723	0.7961	0.5518	0.299
Mof_C 	C 	0.6799	0.8427	0.5242	-0.431
Mof_C 	C 	0.6681	0.9148	0.5454	0.417
Mof_C 	C 	0.749	0.945	0.5939	-0.383
Mof_C 	C 	0.8388	0.9026	0.6207	0.202
Mof_C 	C 	0.8527	0.8264	0.6013	-0.247
Mof_C 	C 	0.9449	0.7823	0.6283	0.203
Mof_C 	C 	0.9561	0.7097	0.6096	-0.355
Mof_C 	C 	0.052	0.9588	0.1896	0.413
Mof_C 	C 	0.1374	0.911	0.2212	-0.366
Mof_C 	C 	0.1275	0.896	0.2904	0.203
Mof_C 	C 	0.035	0.9277	0.3303	-0.255
Mof_C 	C 	0.0213	0.9127	0.4012	0.227
Mof_C 	C 	0.934	0.9451	0.4391	-0.384
Mof_C 	C 	0.8512	0.9957	0.4079	0.436
Mof_C 	C 	0.8606	0.0097	0.3388	-0.439
Mof_C 	C 	0.9508	0.9769	0.2982	0.329
Mof_C 	C 	0.9624	0.9907	0.2268	-0.442
Mof_C 	C 	0.6253	0.1785	0.5624	0.351
Mof_C 	C 	0.7153	0.2199	0.5334	-0.392
Mof_C 	C 	0.7277	0.2961	0.5518	0.297
Mof_C 	C 	0.8201	0.3427	0.5242	-0.43
Mof_C 	C 	0.8319	0.4148	0.5454	0.416
Mof_C 	C 	0.751	0.445	0.5939	-0.381
Mof_C 	C 	0.6612	0.4026	0.6207	0.2
Mof_C 	C 	0.6473	0.3264	0.6013	-0.243
Mof_C 	C 	0.5551	0.2823	0.6283	0.198
Mof_C 	C 	0.5439	0.2097	0.6096	-0.347
Mof_C 	C 	0.448	0.4588	0.1896	0.414
Mof_C 	C 	0.3626	0.411	0.2212	-0.367
Mof_C 	C 	0.3725	0.396	0.2904	0.205
Mof_C 	C 	0.465	0.4277	0.3303	-0.257
Mof_C 	C 	0.4787	0.4127	0.4012	0.227
Mof_C 	C 	0.566	0.4451	0.4391	-0.385
Mof_C 	C 	0.6488	0.4957	0.4079	0.441
Mof_C 	C 	0.6394	0.5097	0.3388	-0.447
Mof_C 	C 	0.5492	0.4769	0.2982	0.333
Mof_C 	C 	0.5376	0.4907	0.2268	-0.442
Mof_C 	C 	0.8747	0.8215	0.0624	0.346
Mof_C 	C 	0.7847	0.7801	0.0334	-0.387
Mof_C 	C 	0.7723	0.7039	0.0518	0.292
Mof_C 	C 	0.6799	0.6573	0.0242	-0.422
Mof_C 	C 	0.6681	0.5852	0.0454	0.413
Mof_C 	C 	0.749	0.555	0.0939	-0.377
Mof_C 	C 	0.8388	0.5974	0.1207	0.196
Mof_C 	C 	0.8527	0.6736	0.1013	-0.238
Mof_C 	C 	0.9449	0.7177	0.1283	0.191
Mof_C 	C 	0.9561	0.7903	0.1096	-0.338
Mof_C 	C 	0.052	0.5412	0.6896	0.418
Mof_C 	C 	0.1374	0.589	0.7212	-0.37
Mof_C 	C 	0.1275	0.604	0.7904	0.208
Mof_C 	C 	0.035	0.5723	0.8303	-0.259
Mof_C 	C 	0.0213	0.5873	0.9012	0.238
Mof_C 	C 	0.934	0.5549	0.9391	-0.396
Mof_C 	C 	0.8512	0.5043	0.9079	0.445
Mof_C 	C 	0.8606	0.4903	0.8388	-0.45
Mof_C 	C 	0.9508	0.5231	0.7982	0.333
Mof_C 	C 	0.9624	0.5093	0.7268	-0.447
Mof_C 	C 	0.3747	0.6785	0.9376	0.349
Mof_C 	C 	0.2847	0.7199	0.9666	-0.388
Mof_C 	C 	0.2723	0.7961	0.9482	0.292
Mof_C 	C 	0.1799	0.8427	0.9758	-0.419
Mof_C 	C 	0.1681	0.9148	0.9546	0.411
Mof_C 	C 	0.249	0.945	0.9061	-0.377
Mof_C 	C 	0.3388	0.9026	0.8793	0.196
Mof_C 	C 	0.3527	0.8264	0.8987	-0.24
Mof_C 	C 	0.4449	0.7823	0.8717	0.195
Mof_C 	C 	0.4561	0.7097	0.8904	-0.345
Mof_C 	C 	0.552	0.9588	0.3104	0.415
Mof_C 	C 	0.6374	0.911	0.2788	-0.369
Mof_C 	C 	0.6275	0.896	0.2096	0.206
Mof_C 	C 	0.535	0.9277	0.1697	-0.26
Mof_C 	C 	0.5213	0.9127	0.0988	0.231
Mof_C 	C 	0.434	0.9451	0.0609	-0.389
Mof_C 	C 	0.3512	0.9957	0.0921	0.447
Mof_C 	C 	0.3606	0.0097	0.1612	-0.454
Mof_C 	C 	0.4508	0.9769	0.2018	0.337
Mof_C 	C 	0.4624	0.9907	0.2732	-0.443
Mof_C 	C 	0.1253	0.3215	0.4376	0.354
Mof_C 	C 	0.2153	0.2801	0.4666	-0.394
Mof_C 	C 	0.2277	0.2039	0.4482	0.299
Mof_C 	C 	0.3201	0.1573	0.4758	-0.431
Mof_C 	C 	0.3319	0.0852	0.4546	0.417
Mof_C 	C 	0.251	0.055	0.4061	-0.383
Mof_C 	C 	0.1612	0.0974	0.3793	0.202
Mof_C 	C 	0.1473	0.1736	0.3987	-0.247
Mof_C 	C 	0.0551	0.2177	0.3717	0.203
Mof_C 	C 	0.0439	0.2903	0.3904	-0.355
Mof_C 	C 	0.948	0.0412	0.8104	0.413
Mof_C 	C 	0.8626	0.089	0.7788	-0.366
Mof_C 	C 	0.8725	0.104	0.7096	0.203
Mof_C 	C 	0.965	0.0723	0.6697	-0.255
Mof_C 	C 	0.9787	0.0873	0.5988	0.227
Mof_C 	C 	0.066	0.0549	0.5609	-0.384
Mof_C 	C 	0.1488	0.0043	0.5921	0.436
Mof_C 	C 	0.1394	0.9903	0.6612	-0.439
Mof_C 	C 	0.0492	0.0231	0.7018	0.329
Mof_C 	C 	0.0376	0.0093	0.7732	-0.442
Mof_O 	O 	0.3838	0.8963	0.4536	-0.369
Mof_O 	O 	0.0771	0.5413	0.4801	-0.57
Mof_O 	O 	0.5601	0.5316	0.88	-0.505
Mof_O 	O 	0.2634	0.4727	0.5533	-0.549
Mof_O 	O 	0.1162	0.1037	0.9536	-0.365
Mof_O 	O 	0.4229	0.4587	0.9801	-0.569
Mof_O 	O 	0.9399	0.4684	0.38	-0.506
Mof_O 	O 	0.2366	0.5273	0.0533	-0.55
Mof_O 	O 	0.6162	0.3963	0.0464	-0.368
Mof_O 	O 	0.9229	0.0413	0.0199	-0.563
Mof_O 	O 	0.4399	0.0316	0.62	-0.505
Mof_O 	O 	0.7366	0.9727	0.9467	-0.55
Mof_O 	O 	0.8838	0.6037	0.5464	-0.37
Mof_O 	O 	0.5771	0.9587	0.5199	-0.571
Mof_O 	O 	0.0601	0.9684	0.12	-0.503
Mof_O 	O 	0.7634	0.0273	0.4467	-0.546
Mof_O 	O 	0.6162	0.1037	0.5464	-0.369
Mof_O 	O 	0.9229	0.4587	0.5199	-0.57
Mof_O 	O 	0.4399	0.4684	0.12	-0.505
Mof_O 	O 	0.7366	0.5273	0.4467	-0.549
Mof_O 	O 	0.8838	0.8963	0.0464	-0.365
Mof_O 	O 	0.5771	0.5413	0.0199	-0.569
Mof_O 	O 	0.0601	0.5316	0.62	-0.506
Mof_O 	O 	0.7634	0.4727	0.9467	-0.55
Mof_O 	O 	0.3838	0.6037	0.9536	-0.368
Mof_O 	O 	0.0771	0.9587	0.9801	-0.563
Mof_O 	O 	0.5601	0.9684	0.38	-0.505
Mof_O 	O 	0.2634	0.0273	0.0533	-0.55
Mof_O 	O 	0.1162	0.3963	0.4536	-0.37
Mof_O 	O 	0.4229	0.0413	0.4801	-0.571
Mof_O 	O 	0.9399	0.0316	0.88	-0.503
Mof_O 	O 	0.2366	0.9727	0.5533	-0.546
_end
