data_functionalizedCrystal
_audit_creation_method	'EQeq! by Chris Wilmer'
_symmetry_space_group_name_H-M	'P1'
_symmetry_Int_Tables_number	1
_symmetry_cell_setting	triclinic
loop_
_symmetry_equiv_pos_as_xyz
  x,y,z
_cell_length_a	17.141
_cell_length_b	23.0994
_cell_length_c	23.0994
_cell_angle_alpha	60.9059
_cell_angle_beta	68.2211
_cell_angle_gamma	68.221
loop_
_atom_site_label
_atom_site_type_symbol
_atom_site_fract_x
_atom_site_fract_y
_atom_site_fract_z
_atom_site_charge
Mof_Co	Co	0.97252	0.97142	0.97142	1.126
Mof_Co	Co	0.41536	0.52858	0.52858	1.132
Mof_Co	Co	0.58464	0.47142	0.47142	1.132
Mof_Co	Co	0.02748	0.02858	0.02858	1.126
Mof_H 	H 	0.7689	0.8911	0.1467	0.008
Mof_H 	H 	0.7576	0.9233	0.3317	0.105
Mof_H 	H 	0.6658	0.8537	0.2465	0.107
Mof_H 	H 	0.8545	0.9652	0.23	0.005
Mof_H 	H 	0.5666	0.9896	0.3254	0.086
Mof_H 	H 	0.5077	0.0545	0.3895	0.031
Mof_H 	H 	0.3067	0.6089	0.3533	0.007
Mof_H 	H 	0.5126	0.5767	0.1683	0.105
Mof_H 	H 	0.266	0.6463	0.2535	0.105
Mof_H 	H 	0.5497	0.5348	0.27	0.004
Mof_H 	H 	0.3816	0.5104	0.1746	0.084
Mof_H 	H 	0.4517	0.4455	0.1105	0.029
Mof_H 	H 	0.6933	0.6467	0.3911	0.006
Mof_H 	H 	0.4874	0.8317	0.4233	0.104
Mof_H 	H 	0.734	0.7465	0.3537	0.105
Mof_H 	H 	0.4503	0.73	0.4652	0.004
Mof_H 	H 	0.6184	0.8254	0.4896	0.084
Mof_H 	H 	0.5483	0.8895	0.5545	0.029
Mof_H 	H 	0.2311	0.8533	0.1089	0.007
Mof_H 	H 	0.2424	0.6683	0.0767	0.104
Mof_H 	H 	0.3342	0.7535	0.1463	0.106
Mof_H 	H 	0.1455	0.77	0.0348	0.004
Mof_H 	H 	0.4334	0.6746	0.0104	0.085
Mof_H 	H 	0.4923	0.6105	0.9455	0.03
Mof_H 	H 	0.2311	0.1089	0.8533	0.007
Mof_H 	H 	0.2424	0.0767	0.6683	0.104
Mof_H 	H 	0.3342	0.1463	0.7535	0.106
Mof_H 	H 	0.1455	0.0348	0.77	0.004
Mof_H 	H 	0.4334	0.0104	0.6746	0.085
Mof_H 	H 	0.4923	0.9455	0.6105	0.03
Mof_H 	H 	0.6933	0.3911	0.6467	0.006
Mof_H 	H 	0.4874	0.4233	0.8317	0.104
Mof_H 	H 	0.734	0.3537	0.7465	0.105
Mof_H 	H 	0.4503	0.4652	0.73	0.004
Mof_H 	H 	0.6184	0.4896	0.8254	0.084
Mof_H 	H 	0.5483	0.5545	0.8895	0.029
Mof_H 	H 	0.3067	0.3533	0.6089	0.006
Mof_H 	H 	0.5126	0.1683	0.5767	0.104
Mof_H 	H 	0.266	0.2535	0.6463	0.105
Mof_H 	H 	0.5497	0.27	0.5348	0.004
Mof_H 	H 	0.3816	0.1746	0.5104	0.084
Mof_H 	H 	0.4517	0.1105	0.4455	0.029
Mof_H 	H 	0.7689	0.1467	0.8911	0.007
Mof_H 	H 	0.7576	0.3317	0.9233	0.104
Mof_H 	H 	0.6658	0.2465	0.8537	0.106
Mof_H 	H 	0.8545	0.23	0.9652	0.004
Mof_H 	H 	0.5666	0.3254	0.9896	0.085
Mof_H 	H 	0.5077	0.3895	0.0545	0.03
Mof_C 	C 	0.88809	0.95603	0.11079	0.387
Mof_C 	C 	0.7654	0.89837	0.18383	0.102
Mof_C 	C 	0.75874	0.91793	0.29399	-0.202
Mof_C 	C 	0.82172	0.93199	0.17857	-0.158
Mof_C 	C 	0.70399	0.87541	0.24377	-0.206
Mof_C 	C 	0.8175	0.94202	0.23356	0.107
Mof_C 	C 	0.70011	0.88507	0.29911	0.172
Mof_C 	C 	0.56523	0.9687	0.37164	-0.145
Mof_C 	C 	0.52799	0.00775	0.41107	-0.005
Mof_C 	C 	0.45491	0.54397	0.38921	0.387
Mof_C 	C 	0.3476	0.60163	0.31617	0.102
Mof_C 	C 	0.47066	0.58207	0.20601	-0.203
Mof_C 	C 	0.43228	0.56801	0.32143	-0.159
Mof_C 	C 	0.32317	0.62459	0.25623	-0.206
Mof_C 	C 	0.49308	0.55798	0.26644	0.108
Mof_C 	C 	0.38429	0.61493	0.20089	0.172
Mof_C 	C 	0.40557	0.5313	0.12836	-0.146
Mof_C 	C 	0.44681	0.49225	0.08893	-0.003
Mof_C 	C 	0.54509	0.61079	0.45603	0.387
Mof_C 	C 	0.6524	0.68383	0.39837	0.102
Mof_C 	C 	0.52934	0.79399	0.41793	-0.203
Mof_C 	C 	0.56772	0.67857	0.43199	-0.159
Mof_C 	C 	0.67683	0.74377	0.37541	-0.206
Mof_C 	C 	0.50692	0.73356	0.44202	0.108
Mof_C 	C 	0.61571	0.79911	0.38507	0.172
Mof_C 	C 	0.59443	0.87164	0.4687	-0.146
Mof_C 	C 	0.55319	0.91107	0.50775	-0.003
Mof_C 	C 	0.11191	0.88921	0.04397	0.387
Mof_C 	C 	0.2346	0.81617	0.10163	0.102
Mof_C 	C 	0.24126	0.70601	0.08207	-0.202
Mof_C 	C 	0.17828	0.82143	0.06801	-0.158
Mof_C 	C 	0.29601	0.75623	0.12459	-0.206
Mof_C 	C 	0.1825	0.76644	0.05798	0.107
Mof_C 	C 	0.29989	0.70089	0.11493	0.172
Mof_C 	C 	0.43477	0.62836	0.0313	-0.145
Mof_C 	C 	0.47201	0.58893	0.99225	-0.005
Mof_C 	C 	0.11191	0.04397	0.88921	0.387
Mof_C 	C 	0.2346	0.10163	0.81617	0.102
Mof_C 	C 	0.24126	0.08207	0.70601	-0.202
Mof_C 	C 	0.17828	0.06801	0.82143	-0.158
Mof_C 	C 	0.29601	0.12459	0.75623	-0.206
Mof_C 	C 	0.1825	0.05798	0.76644	0.107
Mof_C 	C 	0.29989	0.11493	0.70089	0.172
Mof_C 	C 	0.43477	0.0313	0.62836	-0.145
Mof_C 	C 	0.47201	0.99225	0.58893	-0.005
Mof_C 	C 	0.54509	0.45603	0.61079	0.387
Mof_C 	C 	0.6524	0.39837	0.68383	0.102
Mof_C 	C 	0.52934	0.41793	0.79399	-0.203
Mof_C 	C 	0.56772	0.43199	0.67857	-0.159
Mof_C 	C 	0.67683	0.37541	0.74377	-0.206
Mof_C 	C 	0.50692	0.44202	0.73356	0.108
Mof_C 	C 	0.61571	0.38507	0.79911	0.172
Mof_C 	C 	0.59443	0.4687	0.87164	-0.146
Mof_C 	C 	0.55319	0.50775	0.91107	-0.003
Mof_C 	C 	0.45491	0.38921	0.54397	0.387
Mof_C 	C 	0.3476	0.31617	0.60163	0.102
Mof_C 	C 	0.47066	0.20601	0.58207	-0.203
Mof_C 	C 	0.43228	0.32143	0.56801	-0.159
Mof_C 	C 	0.32317	0.25623	0.62459	-0.206
Mof_C 	C 	0.49308	0.26644	0.55798	0.108
Mof_C 	C 	0.38429	0.20089	0.61493	0.172
Mof_C 	C 	0.40557	0.12836	0.5313	-0.146
Mof_C 	C 	0.44681	0.08893	0.49225	-0.003
Mof_C 	C 	0.88809	0.11079	0.95603	0.387
Mof_C 	C 	0.7654	0.18383	0.89837	0.102
Mof_C 	C 	0.75874	0.29399	0.91793	-0.202
Mof_C 	C 	0.82172	0.17857	0.93199	-0.158
Mof_C 	C 	0.70399	0.24377	0.87541	-0.206
Mof_C 	C 	0.8175	0.23356	0.94202	0.107
Mof_C 	C 	0.70011	0.29911	0.88507	0.172
Mof_C 	C 	0.56523	0.37164	0.9687	-0.145
Mof_C 	C 	0.52799	0.41107	0.00775	-0.005
Mof_C 	C 	0.59907	0.90093	0.40093	0.14
Mof_C 	C 	0.52063	0.97937	0.47937	-0.013
Mof_C 	C 	0.40093	0.59907	0.09907	0.14
Mof_C 	C 	0.47937	0.52063	0.02063	-0.013
Mof_C 	C 	0.40093	0.09907	0.59907	0.14
Mof_C 	C 	0.47937	0.02063	0.52063	-0.013
Mof_C 	C 	0.59907	0.40093	0.90093	0.14
Mof_C 	C 	0.52063	0.47937	0.97937	-0.013
Mof_N 	N 	0.6384	0.8616	0.3616	-0.187
Mof_N 	N 	0.3616	0.6384	0.1384	-0.187
Mof_N 	N 	0.3616	0.1384	0.6384	-0.187
Mof_N 	N 	0.6384	0.3616	0.8616	-0.187
Mof_O 	O 	0.89016	0.94292	0.06398	-0.463
Mof_O 	O 	0.93483	0.98862	0.10998	-0.456
Mof_O 	O 	0.39706	0.55708	0.43602	-0.466
Mof_O 	O 	0.53343	0.51138	0.39002	-0.458
Mof_O 	O 	0.60294	0.56398	0.44292	-0.466
Mof_O 	O 	0.46657	0.60998	0.48862	-0.458
Mof_O 	O 	0.10984	0.93602	0.05708	-0.463
Mof_O 	O 	0.06517	0.89002	0.01138	-0.456
Mof_O 	O 	0.10984	0.05708	0.93602	-0.463
Mof_O 	O 	0.06517	0.01138	0.89002	-0.456
Mof_O 	O 	0.60294	0.44292	0.56398	-0.466
Mof_O 	O 	0.46657	0.48862	0.60998	-0.458
Mof_O 	O 	0.39706	0.43602	0.55708	-0.466
Mof_O 	O 	0.53343	0.39002	0.51138	-0.458
Mof_O 	O 	0.89016	0.06398	0.94292	-0.463
Mof_O 	O 	0.93483	0.10998	0.98862	-0.456
_end
