data_functionalizedCrystal
_audit_creation_method	'EQeq! by Chris Wilmer'
_symmetry_space_group_name_H-M	'P1'
_symmetry_Int_Tables_number	1
_symmetry_cell_setting	triclinic
loop_
_symmetry_equiv_pos_as_xyz
  x,y,z
_cell_length_a	15.516
_cell_length_b	15.899
_cell_length_c	13.27
_cell_angle_alpha	90
_cell_angle_beta	112.469
_cell_angle_gamma	90
loop_
_atom_site_label
_atom_site_type_symbol
_atom_site_fract_x
_atom_site_fract_y
_atom_site_fract_z
_atom_site_charge
Mof_Eu	Eu	0.57264	0.54262	0.40634	1.991
Mof_O 	O 	0.7145	0.4871	0.4306	-0.532
Mof_O 	O 	0.5526	0.393	0.4043	-0.472
Mof_O 	O 	0.5808	0.5136	0.2334	-0.766
Mof_O 	O 	0.6132	0.4888	0.0904	-0.63
Mof_O 	O 	0.5001	0.3491	0.5299	-0.576
Mof_C 	C 	0.7675	0.4755	0.3787	0.411
Mof_C 	C 	0.5328	0.3364	0.4585	0.51
Mof_C 	C 	0.6408	0.4939	0.1921	0.612
Mof_C 	C 	0.8631	0.4573	0.4378	-0.313
Mof_C 	C 	0.7382	0.4789	0.2624	-0.383
Mof_C 	C 	0.5485	0.2462	0.4341	-0.212
Mof_C 	C 	0.9249	0.4475	0.389	0.101
Mof_H 	H 	0.8843	0.4518	0.5132	0.146
Mof_C 	C 	0.8025	0.4691	0.2152	0.135
Mof_C 	C 	0.5159	0.1813	0.4789	0.013
Mof_C 	C 	0.5957	0.2267	0.3646	0.259
Mof_C 	C 	0.591	0.837	0.284	-1.333
Mof_H 	H 	0.9868	0.4349	0.4311	-0.004
Mof_C 	C 	0.8965	0.456	0.2756	-0.056
Mof_H 	H 	0.7821	0.4715	0.1396	-0.028
Mof_H 	H 	0.4828	0.1935	0.5226	0.035
Mof_C 	C 	0.5319	0.098	0.4597	-0.002
Mof_C 	C 	0.6131	0.1443	0.351	-0.228
Mof_O 	O 	0.6299	0.2865	0.3201	-0.215
Mof_H 	H 	0.6072	0.8453	0.2214	0.386
Mof_H 	H 	0.6347	0.7998	0.3343	0.317
Mof_H 	H 	0.5922	0.8906	0.3184	0.428
Mof_N 	N 	0.9572	0.4545	0.2195	-0.08
Mof_C 	C 	0.583	0.0818	0.395	0.049
Mof_N 	N 	0.492	0.0376	0.5095	-0.093
Mof_H 	H 	0.6476	0.1315	0.3091	0.112
Mof_H 	H 	0.5961	0.0266	0.3827	-0.004
Mof_H 	H 	0.5576	0.7199	0.2593	2.142
Mof_Eu	Eu	0.42736	0.54262	0.09366	1.991
Mof_O 	O 	0.2855	0.4871	0.0694	-0.532
Mof_O 	O 	0.4474	0.393	0.0957	-0.472
Mof_O 	O 	0.4192	0.5136	0.2666	-0.766
Mof_O 	O 	0.3868	0.4888	0.4096	-0.63
Mof_O 	O 	0.4999	0.3491	0.9701	-0.576
Mof_C 	C 	0.2325	0.4755	0.1213	0.411
Mof_C 	C 	0.4672	0.3364	0.0415	0.51
Mof_C 	C 	0.3592	0.4939	0.3079	0.612
Mof_C 	C 	0.1369	0.4573	0.0622	-0.312
Mof_C 	C 	0.2618	0.4789	0.2376	-0.383
Mof_C 	C 	0.4515	0.2462	0.0659	-0.212
Mof_C 	C 	0.0751	0.4475	0.111	0.101
Mof_H 	H 	0.1157	0.4518	0.9868	0.146
Mof_C 	C 	0.1975	0.4691	0.2848	0.135
Mof_C 	C 	0.4841	0.1813	0.0211	0.014
Mof_C 	C 	0.4043	0.2267	0.1354	0.259
Mof_C 	C 	0.409	0.837	0.216	-1.333
Mof_H 	H 	0.0132	0.4349	0.0689	-0.003
Mof_C 	C 	0.1035	0.456	0.2244	-0.056
Mof_H 	H 	0.2179	0.4715	0.3604	-0.028
Mof_H 	H 	0.5172	0.1935	0.9774	0.035
Mof_C 	C 	0.4681	0.098	0.0403	-0.002
Mof_C 	C 	0.3869	0.1443	0.149	-0.228
Mof_O 	O 	0.3701	0.2865	0.1799	-0.215
Mof_H 	H 	0.3928	0.8453	0.2786	0.386
Mof_H 	H 	0.3653	0.7998	0.1657	0.317
Mof_H 	H 	0.4078	0.8906	0.1816	0.428
Mof_N 	N 	0.0428	0.4545	0.2805	-0.08
Mof_C 	C 	0.417	0.0818	0.105	0.049
Mof_N 	N 	0.508	0.0376	0.9905	-0.093
Mof_H 	H 	0.3524	0.1315	0.1909	0.112
Mof_H 	H 	0.4039	0.0266	0.1173	-0.004
Mof_H 	H 	0.4424	0.7199	0.2407	2.142
Mof_Eu	Eu	0.42736	0.45738	0.59366	1.991
Mof_O 	O 	0.2855	0.5129	0.5694	-0.532
Mof_O 	O 	0.4474	0.607	0.5957	-0.472
Mof_O 	O 	0.4192	0.4864	0.7666	-0.766
Mof_O 	O 	0.3868	0.5112	0.9096	-0.63
Mof_O 	O 	0.4999	0.6509	0.4701	-0.576
Mof_C 	C 	0.2325	0.5245	0.6213	0.411
Mof_C 	C 	0.4672	0.6636	0.5415	0.51
Mof_C 	C 	0.3592	0.5061	0.8079	0.612
Mof_C 	C 	0.1369	0.5427	0.5622	-0.313
Mof_C 	C 	0.2618	0.5211	0.7376	-0.383
Mof_C 	C 	0.4515	0.7538	0.5659	-0.212
Mof_C 	C 	0.0751	0.5525	0.611	0.101
Mof_H 	H 	0.1157	0.5482	0.4868	0.146
Mof_C 	C 	0.1975	0.5309	0.7848	0.135
Mof_C 	C 	0.4841	0.8187	0.5211	0.013
Mof_C 	C 	0.4043	0.7733	0.6354	0.259
Mof_C 	C 	0.409	0.163	0.716	-1.333
Mof_H 	H 	0.0132	0.5651	0.5689	-0.004
Mof_C 	C 	0.1035	0.544	0.7244	-0.056
Mof_H 	H 	0.2179	0.5285	0.8604	-0.028
Mof_H 	H 	0.5172	0.8065	0.4774	0.035
Mof_C 	C 	0.4681	0.902	0.5403	-0.002
Mof_C 	C 	0.3869	0.8557	0.649	-0.228
Mof_O 	O 	0.3701	0.7135	0.6799	-0.215
Mof_H 	H 	0.3928	0.1547	0.7786	0.386
Mof_H 	H 	0.3653	0.2002	0.6657	0.317
Mof_H 	H 	0.4078	0.1094	0.6816	0.428
Mof_N 	N 	0.0428	0.5455	0.7805	-0.08
Mof_C 	C 	0.417	0.9182	0.605	0.049
Mof_N 	N 	0.508	0.9624	0.4905	-0.093
Mof_H 	H 	0.3524	0.8685	0.6909	0.112
Mof_H 	H 	0.4039	0.9734	0.6173	-0.004
Mof_H 	H 	0.4424	0.2801	0.7407	2.142
Mof_Eu	Eu	0.57264	0.45738	0.90634	1.991
Mof_O 	O 	0.7145	0.5129	0.9306	-0.532
Mof_O 	O 	0.5526	0.607	0.9043	-0.472
Mof_O 	O 	0.5808	0.4864	0.7334	-0.766
Mof_O 	O 	0.6132	0.5112	0.5904	-0.63
Mof_O 	O 	0.5001	0.6509	0.0299	-0.576
Mof_C 	C 	0.7675	0.5245	0.8787	0.411
Mof_C 	C 	0.5328	0.6636	0.9585	0.51
Mof_C 	C 	0.6408	0.5061	0.6921	0.612
Mof_C 	C 	0.8631	0.5427	0.9378	-0.312
Mof_C 	C 	0.7382	0.5211	0.7624	-0.383
Mof_C 	C 	0.5485	0.7538	0.9341	-0.212
Mof_C 	C 	0.9249	0.5525	0.889	0.101
Mof_H 	H 	0.8843	0.5482	0.0132	0.146
Mof_C 	C 	0.8025	0.5309	0.7152	0.135
Mof_C 	C 	0.5159	0.8187	0.9789	0.014
Mof_C 	C 	0.5957	0.7733	0.8646	0.259
Mof_C 	C 	0.591	0.163	0.784	-1.333
Mof_H 	H 	0.9868	0.5651	0.9311	-0.003
Mof_C 	C 	0.8965	0.544	0.7756	-0.056
Mof_H 	H 	0.7821	0.5285	0.6396	-0.028
Mof_H 	H 	0.4828	0.8065	0.0226	0.035
Mof_C 	C 	0.5319	0.902	0.9597	-0.002
Mof_C 	C 	0.6131	0.8557	0.851	-0.228
Mof_O 	O 	0.6299	0.7135	0.8201	-0.215
Mof_H 	H 	0.6072	0.1547	0.7214	0.386
Mof_H 	H 	0.6347	0.2002	0.8343	0.317
Mof_H 	H 	0.5922	0.1094	0.8184	0.428
Mof_N 	N 	0.9572	0.5455	0.7195	-0.08
Mof_C 	C 	0.583	0.9182	0.895	0.049
Mof_N 	N 	0.492	0.9624	0.0095	-0.093
Mof_H 	H 	0.6476	0.8685	0.8091	0.112
Mof_H 	H 	0.5961	0.9734	0.8827	-0.004
Mof_H 	H 	0.5576	0.2801	0.7593	2.142
Mof_O 	O 	0.5	0.6533	0.25	1.226
Mof_C 	C 	0.5	0.717	0.25	-5.622
Mof_N 	N 	0.5	0.799	0.25	0.953
Mof_O 	O 	0.5	0.3467	0.75	1.226
Mof_C 	C 	0.5	0.283	0.75	-5.622
Mof_N 	N 	0.5	0.201	0.75	0.953
_end
