# CIF file generated by openbabel 3.1.0, see https://openbabel.org
data_I
_chemical_name_common 'image0'
_cell_length_a 6.6916
_cell_length_b 18.581
_cell_length_c 8.491
_cell_angle_alpha 90
_cell_angle_beta 90
_cell_angle_gamma 90
_space_group_name_H-M_alt 'P 1'
_space_group_name_Hall 'P 1'
loop_
    _symmetry_equiv_pos_as_xyz
    x,y,z
loop_
    _atom_site_label
    _atom_site_type_symbol
    _atom_site_fract_x
    _atom_site_fract_y
    _atom_site_fract_z
    _atom_site_occupancy
    O1       O        0.48500    0.45009    0.06770    1.000
    O2       O        0.32250    0.31801    0.01560    1.000
    O3       O        0.16300    0.40620    0.27350    1.000
    O4       O        0.18160    0.24351    0.84590    1.000
    C1       C        0.26750    0.25760    0.97250    1.000
    H1       H        0.29230    0.21930    0.04040    1.000
    O5       O        0.98500    0.95009    0.06770    1.000
    O6       O        0.82250    0.81801    0.01560    1.000
    O7       O        0.66300    0.90620    0.27350    1.000
    O8       O        0.68160    0.74351    0.84590    1.000
    C2       C        0.76750    0.75760    0.97250    1.000
    H2       H        0.79230    0.71930    0.04040    1.000
    O9       O        0.51500    0.54991    0.56770    1.000
    O10      O        0.67750    0.68199    0.51560    1.000
    O11      O        0.83700    0.59380    0.77350    1.000
    O12      O        0.81840    0.75649    0.34590    1.000
    C3       C        0.73250    0.74240    0.47250    1.000
    H3       H        0.70770    0.78070    0.54040    1.000
    O13      O        0.01500    0.04991    0.56770    1.000
    O14      O        0.17750    0.18199    0.51560    1.000
    O15      O        0.33700    0.09380    0.77350    1.000
    O16      O        0.31840    0.25649    0.34590    1.000
    C4       C        0.23250    0.24240    0.47250    1.000
    H4       H        0.20770    0.28070    0.54040    1.000
    O17      O        0.51500    0.45009    0.43230    1.000
    O18      O        0.67750    0.31801    0.48440    1.000
    O19      O        0.83700    0.40620    0.22650    1.000
    O20      O        0.81840    0.24351    0.65410    1.000
    C5       C        0.73250    0.25760    0.52750    1.000
    H5       H        0.70770    0.21930    0.45960    1.000
    O21      O        0.01500    0.95009    0.43230    1.000
    O22      O        0.17750    0.81801    0.48440    1.000
    O23      O        0.33700    0.90620    0.22650    1.000
    O24      O        0.31840    0.74351    0.65410    1.000
    C6       C        0.23250    0.75760    0.52750    1.000
    H6       H        0.20770    0.71930    0.45960    1.000
    O25      O        0.48500    0.54991    0.93230    1.000
    O26      O        0.32250    0.68199    0.98440    1.000
    O27      O        0.16300    0.59380    0.72650    1.000
    O28      O        0.18160    0.75649    0.15410    1.000
    C7       C        0.26750    0.74240    0.02750    1.000
    H7       H        0.29230    0.78070    0.95960    1.000
    O29      O        0.98500    0.04991    0.93230    1.000
    O30      O        0.82250    0.18199    0.98440    1.000
    O31      O        0.66300    0.09380    0.72650    1.000
    O32      O        0.68160    0.25649    0.15410    1.000
    C8       C        0.76750    0.24240    0.02750    1.000
    H8       H        0.79230    0.28070    0.95960    1.000
    Gd1      Gd       0.50000    0.35730    0.25000    1.000
    Gd2      Gd       0.00000    0.85730    0.25000    1.000
    Gd3      Gd       0.50000    0.64270    0.75000    1.000
    Gd4      Gd       0.00000    0.14270    0.75000    1.000
    C9       C        0.00000    0.37570    0.25000    1.000
    H9       H        0.00000    0.32560    0.25000    1.000
    C10      C        0.50000    0.87570    0.25000    1.000
    H10      H        0.50000    0.82560    0.25000    1.000
    C11      C        0.00000    0.62430    0.75000    1.000
    H11      H        0.00000    0.67440    0.75000    1.000
    C12      C        0.50000    0.12430    0.75000    1.000
    H12      H        0.50000    0.17440    0.75000    1.000
    C13      C        0.57350    0.50000    0.00000    1.000
    H13      H        0.71100    0.50000    0.00000    1.000
    C14      C        0.07350    0.00000    0.00000    1.000
    H14      H        0.21100    0.00000    0.00000    1.000
    C15      C        0.42650    0.50000    0.50000    1.000
    H15      H        0.28900    0.50000    0.50000    1.000
    C16      C        0.92650    0.00000    0.50000    1.000
    H16      H        0.78900    0.00000    0.50000    1.000
