data_functionalizedCrystal
_audit_creation_method	'EQeq! by Chris Wilmer'
_symmetry_space_group_name_H-M	'P1'
_symmetry_Int_Tables_number	1
_symmetry_cell_setting	triclinic
loop_
_symmetry_equiv_pos_as_xyz
  x,y,z
_cell_length_a	17.749
_cell_length_b	29.544
_cell_length_c	29.544
_cell_angle_alpha	84.8231
_cell_angle_beta	72.5194
_cell_angle_gamma	72.5193
loop_
_atom_site_label
_atom_site_type_symbol
_atom_site_fract_x
_atom_site_fract_y
_atom_site_fract_z
_atom_site_charge
Mof_Mn	Mn	0.876	0.87956	0.03372	1.022
Mof_Mn	Mn	0.78114	0.00367	0.9268	1.054
Mof_Mn	Mn	0.01137	0.9151	0.1415	1.065
Mof_Mn	Mn	0.28928	0.62044	0.46628	1.024
Mof_Mn	Mn	0.2116	0.49633	0.5732	1.055
Mof_Mn	Mn	0.56797	0.5849	0.3585	1.064
Mof_Mn	Mn	0.90972	0.96628	0.37956	1.022
Mof_Mn	Mn	0.70793	0.0732	0.50368	1.055
Mof_Mn	Mn	0.15287	0.8585	0.4151	1.064
Mof_Mn	Mn	0.75556	0.53372	0.12044	1.023
Mof_Mn	Mn	0.78481	0.4268	0.99632	1.055
Mof_Mn	Mn	0.92647	0.6415	0.0849	1.064
Mof_Mn	Mn	0.124	0.12044	0.96628	1.022
Mof_Mn	Mn	0.21886	0.99633	0.0732	1.054
Mof_Mn	Mn	0.98863	0.0849	0.8585	1.065
Mof_Mn	Mn	0.71072	0.37956	0.53372	1.024
Mof_Mn	Mn	0.7884	0.50367	0.4268	1.055
Mof_Mn	Mn	0.43203	0.4151	0.6415	1.064
Mof_Mn	Mn	0.09028	0.03372	0.62044	1.021
Mof_Mn	Mn	0.29207	0.9268	0.49632	1.054
Mof_Mn	Mn	0.84713	0.1415	0.5849	1.063
Mof_Mn	Mn	0.24444	0.46628	0.87956	1.022
Mof_Mn	Mn	0.21519	0.5732	0.00368	1.054
Mof_Mn	Mn	0.07353	0.3585	0.9151	1.063
Mof_H 	H 	0.6619	0.8924	0.159	0.137
Mof_H 	H 	0.5266	0.9323	0.1717	-0.042
Mof_H 	H 	0.4831	0.9715	0.1071	0.118
Mof_H 	H 	0.5782	0.9844	0.0392	-0.015
Mof_H 	H 	0.0491	0.9244	0.9084	0.225
Mof_H 	H 	0.0186	0.8921	0.8811	0.224
Mof_H 	H 	0.9769	0.9484	0.8842	0.22
Mof_H 	H 	0.7664	0.9266	0.8118	0.13
Mof_H 	H 	0.8309	0.9245	0.7317	-0.029
Mof_H 	H 	0.9205	0.9704	0.698	0.102
Mof_H 	H 	0.9504	0.0147	0.7493	0.007
Mof_H 	H 	0.7949	0.1164	0.0086	0.229
Mof_H 	H 	0.8917	0.0902	0.9964	0.216
Mof_H 	H 	0.8578	0.1328	0.9636	0.219
Mof_H 	H 	0.617	0.0666	0.9908	0.007
Mof_H 	H 	0.4938	0.1295	0.9889	0.081
Mof_H 	H 	0.5859	0.1367	0.8511	0.086
Mof_H 	H 	0.6983	0.071	0.8524	-0.01
Mof_H 	H 	0.4795	0.205	0.8926	0.046
Mof_H 	H 	0.4487	0.2025	0.9491	0.044
Mof_H 	H 	0.1319	0.7812	0.1952	0.143
Mof_H 	H 	0.1271	0.7058	0.1886	-0.034
Mof_H 	H 	0.0566	0.6894	0.139	0.114
Mof_H 	H 	0.9913	0.7511	0.0971	0.007
Mof_H 	H 	0.8595	0.9945	0.0341	0.211
Mof_H 	H 	0.9227	0.0208	0.04	0.2
Mof_H 	H 	0.8363	0.0265	0.0799	0.212
Mof_H 	H 	0.1489	0.2471	0.9007	-0.004
Mof_H 	H 	0.2668	0.186	0.8958	0.107
Mof_H 	H 	0.3502	0.2778	0.9492	0.093
Mof_H 	H 	0.2537	0.3384	0.9226	-0.012
Mof_H 	H 	0.4165	0.1639	0.8877	0.08
Mof_H 	H 	0.3879	0.1587	0.9437	0.079
Mof_H 	H 	0.2133	0.6076	0.341	0.137
Mof_H 	H 	0.1306	0.5677	0.3283	-0.042
Mof_H 	H 	0.0617	0.5285	0.3929	0.118
Mof_H 	H 	0.1018	0.5156	0.4608	-0.015
Mof_H 	H 	0.3819	0.5756	0.5916	0.225
Mof_H 	H 	0.2918	0.6079	0.6189	0.224
Mof_H 	H 	0.3095	0.5516	0.6158	0.22
Mof_H 	H 	0.0048	0.5734	0.6882	0.13
Mof_H 	H 	0.9871	0.5755	0.7683	-0.029
Mof_H 	H 	0.0889	0.5296	0.802	0.102
Mof_H 	H 	0.2144	0.4853	0.7507	0.007
Mof_H 	H 	0.4199	0.3836	0.4914	0.227
Mof_H 	H 	0.4783	0.4098	0.5036	0.215
Mof_H 	H 	0.4542	0.3672	0.5364	0.218
Mof_H 	H 	0.1744	0.4334	0.5092	0.007
Mof_H 	H 	0.1122	0.3705	0.5111	0.081
Mof_H 	H 	0.0737	0.3633	0.6489	0.086
Mof_H 	H 	0.1217	0.429	0.6476	-0.01
Mof_H 	H 	0.0771	0.295	0.6074	0.047
Mof_H 	H 	0.1003	0.2975	0.5509	0.045
Mof_H 	H 	0.6083	0.7188	0.3048	0.143
Mof_H 	H 	0.5215	0.7942	0.3114	-0.034
Mof_H 	H 	0.385	0.8106	0.361	0.114
Mof_H 	H 	0.3395	0.7489	0.4029	0.007
Mof_H 	H 	0.3881	0.5055	0.4659	0.214
Mof_H 	H 	0.4835	0.4792	0.46	0.202
Mof_H 	H 	0.4427	0.4735	0.4201	0.214
Mof_H 	H 	0.7967	0.2529	0.5993	-0.004
Mof_H 	H 	0.8486	0.314	0.6042	0.107
Mof_H 	H 	0.0772	0.2222	0.5508	0.093
Mof_H 	H 	0.0147	0.1616	0.5774	-0.012
Mof_H 	H 	0.9681	0.3361	0.6123	0.08
Mof_H 	H 	0.9903	0.3413	0.5563	0.078
Mof_H 	H 	0.8209	0.841	0.3924	0.137
Mof_H 	H 	0.6983	0.8283	0.4323	-0.042
Mof_H 	H 	0.5902	0.8929	0.4715	0.118
Mof_H 	H 	0.6174	0.9608	0.4844	-0.015
Mof_H 	H 	0.9575	0.0916	0.4244	0.225
Mof_H 	H 	0.8997	0.1189	0.3921	0.225
Mof_H 	H 	0.8611	0.1158	0.4484	0.221
Mof_H 	H 	0.5782	0.1882	0.4266	0.13
Mof_H 	H 	0.5626	0.2683	0.4245	-0.029
Mof_H 	H 	0.6185	0.302	0.4704	0.102
Mof_H 	H 	0.6997	0.2507	0.5147	0.007
Mof_H 	H 	0.8035	0.9914	0.6164	0.227
Mof_H 	H 	0.8881	0.0036	0.5902	0.215
Mof_H 	H 	0.8214	0.0364	0.6328	0.218
Mof_H 	H 	0.6078	0.0092	0.5666	0.008
Mof_H 	H 	0.4827	0.0111	0.6295	0.081
Mof_H 	H 	0.437	0.1489	0.6367	0.086
Mof_H 	H 	0.5507	0.1476	0.571	-0.01
Mof_H 	H 	0.3721	0.1074	0.705	0.046
Mof_H 	H 	0.3978	0.0509	0.7025	0.044
Mof_H 	H 	0.3271	0.8048	0.2812	0.143
Mof_H 	H 	0.3157	0.8114	0.2058	-0.034
Mof_H 	H 	0.1956	0.861	0.1894	0.114
Mof_H 	H 	0.0884	0.9029	0.2511	0.007
Mof_H 	H 	0.8936	0.9659	0.4945	0.215
Mof_H 	H 	0.9627	0.96	0.5208	0.202
Mof_H 	H 	0.9162	0.9201	0.5265	0.214
Mof_H 	H 	0.0496	0.0993	0.7471	-0.004
Mof_H 	H 	0.1626	0.1042	0.686	0.107
Mof_H 	H 	0.2994	0.0508	0.7778	0.093
Mof_H 	H 	0.1763	0.0774	0.8384	-0.012
Mof_H 	H 	0.3042	0.1123	0.6639	0.08
Mof_H 	H 	0.3316	0.0563	0.6587	0.079
Mof_H 	H 	0.5543	0.659	0.1076	0.137
Mof_H 	H 	0.4589	0.6717	0.0677	-0.042
Mof_H 	H 	0.4546	0.6071	0.0285	0.118
Mof_H 	H 	0.5626	0.5392	0.0156	-0.015
Mof_H 	H 	0.9735	0.4084	0.0756	0.225
Mof_H 	H 	0.9107	0.3811	0.1079	0.225
Mof_H 	H 	0.9253	0.3842	0.0516	0.221
Mof_H 	H 	0.693	0.3118	0.0734	0.13
Mof_H 	H 	0.7554	0.2317	0.0755	-0.029
Mof_H 	H 	0.8909	0.198	0.0296	0.103
Mof_H 	H 	0.9651	0.2493	0.9853	0.006
Mof_H 	H 	0.9113	0.5086	0.8836	0.227
Mof_H 	H 	0.9819	0.4964	0.9098	0.215
Mof_H 	H 	0.9906	0.4636	0.8672	0.218
Mof_H 	H 	0.6836	0.4908	0.9334	0.007
Mof_H 	H 	0.6233	0.4889	0.8705	0.081
Mof_H 	H 	0.7226	0.3511	0.8633	0.086
Mof_H 	H 	0.7693	0.3524	0.929	-0.01
Mof_H 	H 	0.6845	0.3926	0.795	0.046
Mof_H 	H 	0.6512	0.4491	0.7975	0.044
Mof_H 	H 	0.9131	0.6952	0.2188	0.143
Mof_H 	H 	0.8329	0.6886	0.2942	-0.034
Mof_H 	H 	0.746	0.639	0.3106	0.114
Mof_H 	H 	0.7424	0.5971	0.2489	0.007
Mof_H 	H 	0.854	0.5341	0.0055	0.214
Mof_H 	H 	0.9435	0.54	0.9792	0.202
Mof_H 	H 	0.8628	0.5799	0.9735	0.214
Mof_H 	H 	0.396	0.4007	0.7529	-0.004
Mof_H 	H 	0.4528	0.3958	0.814	0.107
Mof_H 	H 	0.628	0.4492	0.7222	0.093
Mof_H 	H 	0.5921	0.4226	0.6616	-0.012
Mof_H 	H 	0.5804	0.3877	0.8361	0.081
Mof_H 	H 	0.5466	0.4437	0.8413	0.079
Mof_H 	H 	0.3381	0.1076	0.841	0.137
Mof_H 	H 	0.4734	0.0677	0.8283	-0.042
Mof_H 	H 	0.5169	0.0285	0.8929	0.118
Mof_H 	H 	0.4218	0.0156	0.9608	-0.015
Mof_H 	H 	0.9509	0.0756	0.0916	0.225
Mof_H 	H 	0.9814	0.1079	0.1189	0.224
Mof_H 	H 	0.0231	0.0516	0.1158	0.22
Mof_H 	H 	0.2336	0.0734	0.1882	0.13
Mof_H 	H 	0.1691	0.0755	0.2683	-0.029
Mof_H 	H 	0.0795	0.0296	0.302	0.102
Mof_H 	H 	0.0496	0.9853	0.2507	0.007
Mof_H 	H 	0.2051	0.8836	0.9914	0.229
Mof_H 	H 	0.1083	0.9098	0.0036	0.216
Mof_H 	H 	0.1422	0.8672	0.0364	0.219
Mof_H 	H 	0.383	0.9334	0.0092	0.007
Mof_H 	H 	0.5062	0.8705	0.0111	0.081
Mof_H 	H 	0.4141	0.8633	0.1489	0.086
Mof_H 	H 	0.3017	0.929	0.1476	-0.01
Mof_H 	H 	0.5205	0.795	0.1074	0.046
Mof_H 	H 	0.5513	0.7975	0.0509	0.044
Mof_H 	H 	0.8681	0.2188	0.8048	0.143
Mof_H 	H 	0.8729	0.2942	0.8114	-0.034
Mof_H 	H 	0.9434	0.3106	0.861	0.114
Mof_H 	H 	0.0087	0.2489	0.9029	0.007
Mof_H 	H 	0.1405	0.0055	0.9659	0.211
Mof_H 	H 	0.0773	0.9792	0.96	0.2
Mof_H 	H 	0.1637	0.9735	0.9201	0.212
Mof_H 	H 	0.8511	0.7529	0.0993	-0.004
Mof_H 	H 	0.7332	0.814	0.1042	0.107
Mof_H 	H 	0.6498	0.7222	0.0508	0.093
Mof_H 	H 	0.7463	0.6616	0.0774	-0.012
Mof_H 	H 	0.5835	0.8361	0.1123	0.08
Mof_H 	H 	0.6121	0.8413	0.0563	0.079
Mof_H 	H 	0.7867	0.3924	0.659	0.137
Mof_H 	H 	0.8694	0.4323	0.6717	-0.042
Mof_H 	H 	0.9383	0.4715	0.6071	0.118
Mof_H 	H 	0.8982	0.4844	0.5392	-0.015
Mof_H 	H 	0.6181	0.4244	0.4084	0.225
Mof_H 	H 	0.7082	0.3921	0.3811	0.224
Mof_H 	H 	0.6905	0.4484	0.3842	0.22
Mof_H 	H 	0.9952	0.4266	0.3118	0.13
Mof_H 	H 	0.0129	0.4245	0.2317	-0.029
Mof_H 	H 	0.9111	0.4704	0.198	0.102
Mof_H 	H 	0.7856	0.5147	0.2493	0.007
Mof_H 	H 	0.5801	0.6164	0.5086	0.227
Mof_H 	H 	0.5217	0.5902	0.4964	0.215
Mof_H 	H 	0.5458	0.6328	0.4636	0.218
Mof_H 	H 	0.8256	0.5666	0.4908	0.007
Mof_H 	H 	0.8878	0.6295	0.4889	0.081
Mof_H 	H 	0.9263	0.6367	0.3511	0.086
Mof_H 	H 	0.8783	0.571	0.3524	-0.01
Mof_H 	H 	0.9229	0.705	0.3926	0.047
Mof_H 	H 	0.8997	0.7025	0.4491	0.045
Mof_H 	H 	0.3917	0.2812	0.6952	0.143
Mof_H 	H 	0.4785	0.2058	0.6886	-0.034
Mof_H 	H 	0.615	0.1894	0.639	0.114
Mof_H 	H 	0.6605	0.2511	0.5971	0.007
Mof_H 	H 	0.6119	0.4945	0.5341	0.214
Mof_H 	H 	0.5165	0.5208	0.54	0.202
Mof_H 	H 	0.5573	0.5265	0.5799	0.214
Mof_H 	H 	0.2033	0.7471	0.4007	-0.004
Mof_H 	H 	0.1514	0.686	0.3958	0.107
Mof_H 	H 	0.9228	0.7778	0.4492	0.093
Mof_H 	H 	0.9853	0.8384	0.4226	-0.012
Mof_H 	H 	0.0319	0.6639	0.3877	0.08
Mof_H 	H 	0.0097	0.6587	0.4437	0.078
Mof_H 	H 	0.1791	0.159	0.6076	0.137
Mof_H 	H 	0.3017	0.1717	0.5677	-0.042
Mof_H 	H 	0.4098	0.1071	0.5285	0.118
Mof_H 	H 	0.3826	0.0392	0.5156	-0.015
Mof_H 	H 	0.0425	0.9084	0.5756	0.225
Mof_H 	H 	0.1003	0.8811	0.6079	0.225
Mof_H 	H 	0.1389	0.8842	0.5516	0.221
Mof_H 	H 	0.4218	0.8118	0.5734	0.13
Mof_H 	H 	0.4374	0.7317	0.5755	-0.029
Mof_H 	H 	0.3815	0.698	0.5296	0.102
Mof_H 	H 	0.3003	0.7493	0.4853	0.007
Mof_H 	H 	0.1965	0.0086	0.3836	0.227
Mof_H 	H 	0.1119	0.9964	0.4098	0.215
Mof_H 	H 	0.1786	0.9636	0.3672	0.218
Mof_H 	H 	0.3922	0.9908	0.4334	0.008
Mof_H 	H 	0.5173	0.9889	0.3705	0.081
Mof_H 	H 	0.563	0.8511	0.3633	0.086
Mof_H 	H 	0.4493	0.8524	0.429	-0.01
Mof_H 	H 	0.6279	0.8926	0.295	0.046
Mof_H 	H 	0.6022	0.9491	0.2975	0.044
Mof_H 	H 	0.6729	0.1952	0.7188	0.143
Mof_H 	H 	0.6843	0.1886	0.7942	-0.034
Mof_H 	H 	0.8044	0.139	0.8106	0.114
Mof_H 	H 	0.9116	0.0971	0.7489	0.007
Mof_H 	H 	0.1064	0.0341	0.5055	0.215
Mof_H 	H 	0.0373	0.04	0.4792	0.202
Mof_H 	H 	0.0838	0.0799	0.4735	0.214
Mof_H 	H 	0.9504	0.9007	0.2529	-0.004
Mof_H 	H 	0.8374	0.8958	0.314	0.107
Mof_H 	H 	0.7006	0.9492	0.2222	0.093
Mof_H 	H 	0.8237	0.9226	0.1616	-0.012
Mof_H 	H 	0.6958	0.8877	0.3361	0.08
Mof_H 	H 	0.6684	0.9437	0.3413	0.079
Mof_H 	H 	0.4457	0.341	0.8924	0.137
Mof_H 	H 	0.5411	0.3283	0.9323	-0.042
Mof_H 	H 	0.5454	0.3929	0.9715	0.118
Mof_H 	H 	0.4374	0.4608	0.9844	-0.015
Mof_H 	H 	0.0265	0.5916	0.9244	0.225
Mof_H 	H 	0.0893	0.6189	0.8921	0.225
Mof_H 	H 	0.0747	0.6158	0.9484	0.221
Mof_H 	H 	0.307	0.6882	0.9266	0.13
Mof_H 	H 	0.2446	0.7683	0.9245	-0.029
Mof_H 	H 	0.1091	0.802	0.9704	0.103
Mof_H 	H 	0.0349	0.7507	0.0147	0.006
Mof_H 	H 	0.0887	0.4914	0.1164	0.227
Mof_H 	H 	0.0181	0.5036	0.0902	0.215
Mof_H 	H 	0.0094	0.5364	0.1328	0.218
Mof_H 	H 	0.3164	0.5092	0.0666	0.007
Mof_H 	H 	0.3767	0.5111	0.1295	0.081
Mof_H 	H 	0.2774	0.6489	0.1367	0.086
Mof_H 	H 	0.2307	0.6476	0.071	-0.01
Mof_H 	H 	0.3155	0.6074	0.205	0.046
Mof_H 	H 	0.3488	0.5509	0.2025	0.044
Mof_H 	H 	0.0869	0.3048	0.7812	0.143
Mof_H 	H 	0.1671	0.3114	0.7058	-0.034
Mof_H 	H 	0.254	0.361	0.6894	0.114
Mof_H 	H 	0.2576	0.4029	0.7511	0.007
Mof_H 	H 	0.146	0.4659	0.9945	0.214
Mof_H 	H 	0.0565	0.46	0.0208	0.202
Mof_H 	H 	0.1372	0.4201	0.0265	0.214
Mof_H 	H 	0.604	0.5993	0.2471	-0.004
Mof_H 	H 	0.5472	0.6042	0.186	0.107
Mof_H 	H 	0.372	0.5508	0.2778	0.093
Mof_H 	H 	0.4079	0.5774	0.3384	-0.012
Mof_H 	H 	0.4196	0.6123	0.1639	0.081
Mof_H 	H 	0.4534	0.5563	0.1587	0.079
Mof_C 	C 	0.70716	0.91327	0.08981	0.33
Mof_C 	C 	0.64469	0.91098	0.13404	-0.309
Mof_C 	C 	0.56526	0.9333	0.14158	0.192
Mof_C 	C 	0.5402	0.95824	0.10396	-0.253
Mof_C 	C 	0.59655	0.96379	0.06271	0.181
Mof_C 	C 	0.67872	0.94071	0.05385	-0.278
Mof_C 	C 	0.73488	0.94875	0.00849	0.305
Mof_C 	C 	0.93807	0.91407	0.94661	0.373
Mof_C 	C 	0.00123	0.92029	0.90107	-0.692
Mof_C 	C 	0.82095	0.97095	0.83015	0.303
Mof_C 	C 	0.80449	0.94447	0.79935	-0.277
Mof_C 	C 	0.8421	0.9437	0.7515	0.148
Mof_C 	C 	0.89596	0.97013	0.73135	-0.209
Mof_C 	C 	0.91285	0.99659	0.76231	0.132
Mof_C 	C 	0.87803	0.99742	0.81008	-0.239
Mof_C 	C 	0.89879	0.02809	0.83907	0.284
Mof_C 	C 	0.83689	0.07051	0.95197	0.377
Mof_C 	C 	0.84616	0.1056	0.98288	-0.695
Mof_C 	C 	0.6094	0.0792	0.9612	0.092
Mof_C 	C 	0.53613	0.11856	0.96038	-0.167
Mof_C 	C 	0.52966	0.13877	0.91871	0.115
Mof_C 	C 	0.58884	0.12184	0.88068	-0.183
Mof_C 	C 	0.6573	0.0823	0.8813	0.103
Mof_C 	C 	0.4599	0.185	0.9196	-0.069
Mof_C 	C 	0.06328	0.81314	0.1516	0.33
Mof_C 	C 	0.10237	0.77549	0.17535	-0.307
Mof_C 	C 	0.10005	0.7308	0.17132	0.172
Mof_C 	C 	0.05815	0.72088	0.1419	-0.222
Mof_C 	C 	0.01963	0.75738	0.11736	0.147
Mof_C 	C 	0.02111	0.80424	0.12158	-0.255
Mof_C 	C 	0.97843	0.84117	0.09401	0.301
Mof_C 	C 	0.92182	0.96083	0.08313	0.351
Mof_C 	C 	0.88143	0.00468	0.05686	-0.647
Mof_C 	C 	0.19432	0.25343	0.90687	0.127
Mof_C 	C 	0.26152	0.21667	0.90609	-0.215
Mof_C 	C 	0.3214	0.22564	0.92076	0.138
Mof_C 	C 	0.31402	0.27161	0.93415	-0.201
Mof_C 	C 	0.25123	0.30656	0.92398	0.125
Mof_C 	C 	0.4039	0.1806	0.9178	-0.182
Mof_C 	C 	0.21024	0.58673	0.41019	0.331
Mof_C 	C 	0.18971	0.58902	0.36596	-0.309
Mof_C 	C 	0.14014	0.5667	0.35842	0.193
Mof_C 	C 	0.1024	0.54176	0.39604	-0.253
Mof_C 	C 	0.12305	0.53621	0.43729	0.182
Mof_C 	C 	0.17328	0.55929	0.44615	-0.279
Mof_C 	C 	0.19212	0.55125	0.49151	0.308
Mof_C 	C 	0.29875	0.58593	0.55339	0.374
Mof_C 	C 	0.32259	0.57971	0.59893	-0.694
Mof_C 	C 	0.12205	0.52905	0.66985	0.303
Mof_C 	C 	0.04831	0.55553	0.70065	-0.277
Mof_C 	C 	0.0373	0.5563	0.7485	0.148
Mof_C 	C 	0.09744	0.52987	0.76865	-0.209
Mof_C 	C 	0.17175	0.50341	0.73769	0.132
Mof_C 	C 	0.18553	0.50258	0.68992	-0.24
Mof_C 	C 	0.26595	0.47191	0.66093	0.284
Mof_C 	C 	0.35937	0.42949	0.54803	0.376
Mof_C 	C 	0.43464	0.3944	0.51712	-0.691
Mof_C 	C 	0.1498	0.4208	0.5388	0.093
Mof_C 	C 	0.11507	0.38144	0.53962	-0.168
Mof_C 	C 	0.08714	0.36123	0.58129	0.117
Mof_C 	C 	0.09136	0.37816	0.61932	-0.184
Mof_C 	C 	0.1209	0.4177	0.6187	0.104
Mof_C 	C 	0.0645	0.315	0.5804	-0.073
Mof_C 	C 	0.52802	0.68686	0.3484	0.33
Mof_C 	C 	0.55321	0.72451	0.32465	-0.307
Mof_C 	C 	0.50217	0.7692	0.32868	0.172
Mof_C 	C 	0.42093	0.77912	0.3581	-0.222
Mof_C 	C 	0.39437	0.74262	0.38264	0.147
Mof_C 	C 	0.44693	0.69576	0.37842	-0.255
Mof_C 	C 	0.41361	0.65883	0.40599	0.301
Mof_C 	C 	0.46578	0.53917	0.41687	0.354
Mof_C 	C 	0.44297	0.49532	0.44314	-0.655
Mof_C 	C 	0.85462	0.24657	0.59313	0.127
Mof_C 	C 	0.88428	0.28333	0.59391	-0.214
Mof_C 	C 	0.9678	0.27436	0.57924	0.138
Mof_C 	C 	0.01978	0.22839	0.56585	-0.202
Mof_C 	C 	0.98177	0.19344	0.57602	0.126
Mof_C 	C 	0.0023	0.3194	0.5822	-0.179
Mof_C 	C 	0.79697	0.91019	0.41327	0.331
Mof_C 	C 	0.77873	0.86596	0.41098	-0.309
Mof_C 	C 	0.70684	0.85842	0.4333	0.193
Mof_C 	C 	0.64416	0.89604	0.45824	-0.253
Mof_C 	C 	0.65926	0.93729	0.46379	0.182
Mof_C 	C 	0.73257	0.94615	0.44071	-0.279
Mof_C 	C 	0.74337	0.99151	0.44875	0.307
Mof_C 	C 	0.88468	0.05339	0.41407	0.374
Mof_C 	C 	0.9023	0.09893	0.42029	-0.694
Mof_C 	C 	0.6511	0.16985	0.47095	0.303
Mof_C 	C 	0.60384	0.20065	0.44447	-0.277
Mof_C 	C 	0.5936	0.2485	0.4437	0.148
Mof_C 	C 	0.62731	0.26865	0.47013	-0.209
Mof_C 	C 	0.67516	0.23769	0.49659	0.132
Mof_C 	C 	0.68811	0.18992	0.49742	-0.24
Mof_C 	C 	0.73786	0.16093	0.52809	0.284
Mof_C 	C 	0.78886	0.04803	0.57051	0.376
Mof_C 	C 	0.82904	0.01712	0.6056	-0.691
Mof_C 	C 	0.5706	0.0388	0.5792	0.092
Mof_C 	C 	0.49651	0.03962	0.61856	-0.167
Mof_C 	C 	0.44837	0.08129	0.63877	0.115
Mof_C 	C 	0.46952	0.11932	0.62184	-0.183
Mof_C 	C 	0.5386	0.1187	0.5823	0.103
Mof_C 	C 	0.3795	0.0804	0.685	-0.069
Mof_C 	C 	0.21488	0.8484	0.31314	0.33
Mof_C 	C 	0.27772	0.82465	0.27549	-0.307
Mof_C 	C 	0.27137	0.82868	0.2308	0.172
Mof_C 	C 	0.20005	0.8581	0.22088	-0.222
Mof_C 	C 	0.13699	0.88264	0.25738	0.147
Mof_C 	C 	0.14269	0.87842	0.30424	-0.255
Mof_C 	C 	0.07244	0.90599	0.34117	0.301
Mof_C 	C 	0.00495	0.91687	0.46083	0.354
Mof_C 	C 	0.93829	0.94314	0.50468	-0.656
Mof_C 	C 	0.10119	0.09313	0.75343	0.127
Mof_C 	C 	0.16761	0.09391	0.71667	-0.215
Mof_C 	C 	0.24216	0.07924	0.72564	0.138
Mof_C 	C 	0.24817	0.06585	0.77161	-0.201
Mof_C 	C 	0.17521	0.07602	0.80656	0.125
Mof_C 	C 	0.3217	0.0822	0.6806	-0.182
Mof_C 	C 	0.62043	0.58981	0.08673	0.331
Mof_C 	C 	0.55567	0.63404	0.08902	-0.309
Mof_C 	C 	0.49856	0.64158	0.0667	0.193
Mof_C 	C 	0.49844	0.60396	0.04176	-0.253
Mof_C 	C 	0.56034	0.56271	0.03621	0.182
Mof_C 	C 	0.61943	0.55385	0.05929	-0.279
Mof_C 	C 	0.68363	0.50849	0.05125	0.308
Mof_C 	C 	0.85214	0.44661	0.08593	0.374
Mof_C 	C 	0.92152	0.40107	0.07971	-0.694
Mof_C 	C 	0.7919	0.33015	0.02905	0.303
Mof_C 	C 	0.74896	0.29935	0.05553	-0.278
Mof_C 	C 	0.7858	0.2515	0.0563	0.149
Mof_C 	C 	0.86609	0.23135	0.02987	-0.21
Mof_C 	C 	0.90944	0.26231	0.00341	0.134
Mof_C 	C 	0.87545	0.31008	0.00258	-0.24
Mof_C 	C 	0.92688	0.33907	0.97191	0.284
Mof_C 	C 	0.9074	0.45197	0.92949	0.376
Mof_C 	C 	0.95176	0.48288	0.8944	-0.691
Mof_C 	C 	0.6886	0.4612	0.9208	0.092
Mof_C 	C 	0.65469	0.46038	0.88144	-0.167
Mof_C 	C 	0.66843	0.41871	0.86123	0.115
Mof_C 	C 	0.71068	0.38068	0.87816	-0.183
Mof_C 	C 	0.7396	0.3813	0.9177	0.103
Mof_C 	C 	0.6449	0.4196	0.815	-0.069
Mof_C 	C 	0.87642	0.6516	0.18686	0.33
Mof_C 	C 	0.87786	0.67535	0.22451	-0.307
Mof_C 	C 	0.83085	0.67132	0.2692	0.172
Mof_C 	C 	0.77903	0.6419	0.27912	-0.222
Mof_C 	C 	0.77701	0.61736	0.24262	0.147
Mof_C 	C 	0.82535	0.62158	0.19576	-0.255
Mof_C 	C 	0.8196	0.59401	0.15883	0.301
Mof_C 	C 	0.88265	0.58313	0.03917	0.354
Mof_C 	C 	0.88611	0.55686	0.99532	-0.655
Mof_C 	C 	0.44775	0.40687	0.74657	0.127
Mof_C 	C 	0.47819	0.40609	0.78333	-0.215
Mof_C 	C 	0.54704	0.42076	0.77436	0.138
Mof_C 	C 	0.58563	0.43415	0.72839	-0.201
Mof_C 	C 	0.55779	0.42398	0.69344	0.125
Mof_C 	C 	0.5845	0.4178	0.8194	-0.182
Mof_C 	C 	0.29284	0.08673	0.91019	0.33
Mof_C 	C 	0.35531	0.08902	0.86596	-0.309
Mof_C 	C 	0.43474	0.0667	0.85842	0.192
Mof_C 	C 	0.4598	0.04176	0.89604	-0.253
Mof_C 	C 	0.40345	0.03621	0.93729	0.181
Mof_C 	C 	0.32128	0.05929	0.94615	-0.278
Mof_C 	C 	0.26512	0.05125	0.99151	0.305
Mof_C 	C 	0.06193	0.08593	0.05339	0.373
Mof_C 	C 	0.99877	0.07971	0.09893	-0.692
Mof_C 	C 	0.17905	0.02905	0.16985	0.303
Mof_C 	C 	0.19551	0.05553	0.20065	-0.277
Mof_C 	C 	0.1579	0.0563	0.2485	0.148
Mof_C 	C 	0.10404	0.02987	0.26865	-0.209
Mof_C 	C 	0.08715	0.00341	0.23769	0.132
Mof_C 	C 	0.12197	0.00258	0.18992	-0.239
Mof_C 	C 	0.10121	0.97191	0.16093	0.284
Mof_C 	C 	0.16311	0.92949	0.04803	0.377
Mof_C 	C 	0.15384	0.8944	0.01712	-0.695
Mof_C 	C 	0.3906	0.9208	0.0388	0.092
Mof_C 	C 	0.46387	0.88144	0.03962	-0.167
Mof_C 	C 	0.47034	0.86123	0.08129	0.115
Mof_C 	C 	0.41116	0.87816	0.11932	-0.183
Mof_C 	C 	0.3427	0.9177	0.1187	0.103
Mof_C 	C 	0.5401	0.815	0.0804	-0.069
Mof_C 	C 	0.93672	0.18686	0.8484	0.33
Mof_C 	C 	0.89763	0.22451	0.82465	-0.307
Mof_C 	C 	0.89995	0.2692	0.82868	0.172
Mof_C 	C 	0.94185	0.27912	0.8581	-0.222
Mof_C 	C 	0.98037	0.24262	0.88264	0.147
Mof_C 	C 	0.97889	0.19576	0.87842	-0.255
Mof_C 	C 	0.02157	0.15883	0.90599	0.301
Mof_C 	C 	0.07818	0.03917	0.91687	0.351
Mof_C 	C 	0.11857	0.99532	0.94314	-0.647
Mof_C 	C 	0.80568	0.74657	0.09313	0.127
Mof_C 	C 	0.73848	0.78333	0.09391	-0.215
Mof_C 	C 	0.6786	0.77436	0.07924	0.138
Mof_C 	C 	0.68598	0.72839	0.06585	-0.201
Mof_C 	C 	0.74877	0.69344	0.07602	0.125
Mof_C 	C 	0.5961	0.8194	0.0822	-0.182
Mof_C 	C 	0.78976	0.41327	0.58981	0.331
Mof_C 	C 	0.81029	0.41098	0.63404	-0.309
Mof_C 	C 	0.85986	0.4333	0.64158	0.193
Mof_C 	C 	0.8976	0.45824	0.60396	-0.253
Mof_C 	C 	0.87695	0.46379	0.56271	0.182
Mof_C 	C 	0.82672	0.44071	0.55385	-0.279
Mof_C 	C 	0.80788	0.44875	0.50849	0.308
Mof_C 	C 	0.70125	0.41407	0.44661	0.374
Mof_C 	C 	0.67741	0.42029	0.40107	-0.694
Mof_C 	C 	0.87795	0.47095	0.33015	0.303
Mof_C 	C 	0.95169	0.44447	0.29935	-0.277
Mof_C 	C 	0.9627	0.4437	0.2515	0.148
Mof_C 	C 	0.90256	0.47013	0.23135	-0.209
Mof_C 	C 	0.82825	0.49659	0.26231	0.132
Mof_C 	C 	0.81447	0.49742	0.31008	-0.24
Mof_C 	C 	0.73405	0.52809	0.33907	0.284
Mof_C 	C 	0.64063	0.57051	0.45197	0.376
Mof_C 	C 	0.56536	0.6056	0.48288	-0.691
Mof_C 	C 	0.8502	0.5792	0.4612	0.093
Mof_C 	C 	0.88493	0.61856	0.46038	-0.168
Mof_C 	C 	0.91286	0.63877	0.41871	0.117
Mof_C 	C 	0.90864	0.62184	0.38068	-0.184
Mof_C 	C 	0.8791	0.5823	0.3813	0.104
Mof_C 	C 	0.9355	0.685	0.4196	-0.073
Mof_C 	C 	0.47198	0.31314	0.6516	0.33
Mof_C 	C 	0.44679	0.27549	0.67535	-0.307
Mof_C 	C 	0.49783	0.2308	0.67132	0.172
Mof_C 	C 	0.57907	0.22088	0.6419	-0.222
Mof_C 	C 	0.60563	0.25738	0.61736	0.147
Mof_C 	C 	0.55307	0.30424	0.62158	-0.255
Mof_C 	C 	0.58639	0.34117	0.59401	0.301
Mof_C 	C 	0.53422	0.46083	0.58313	0.354
Mof_C 	C 	0.55703	0.50468	0.55686	-0.655
Mof_C 	C 	0.14538	0.75343	0.40687	0.127
Mof_C 	C 	0.11572	0.71667	0.40609	-0.214
Mof_C 	C 	0.0322	0.72564	0.42076	0.138
Mof_C 	C 	0.98022	0.77161	0.43415	-0.202
Mof_C 	C 	0.01823	0.80656	0.42398	0.126
Mof_C 	C 	0.9977	0.6806	0.4178	-0.179
Mof_C 	C 	0.20303	0.08981	0.58673	0.331
Mof_C 	C 	0.22127	0.13404	0.58902	-0.309
Mof_C 	C 	0.29316	0.14158	0.5667	0.193
Mof_C 	C 	0.35584	0.10396	0.54176	-0.253
Mof_C 	C 	0.34074	0.06271	0.53621	0.182
Mof_C 	C 	0.26743	0.05385	0.55929	-0.279
Mof_C 	C 	0.25663	0.00849	0.55125	0.307
Mof_C 	C 	0.11532	0.94661	0.58593	0.374
Mof_C 	C 	0.0977	0.90107	0.57971	-0.694
Mof_C 	C 	0.3489	0.83015	0.52905	0.303
Mof_C 	C 	0.39616	0.79935	0.55553	-0.277
Mof_C 	C 	0.4064	0.7515	0.5563	0.148
Mof_C 	C 	0.37269	0.73135	0.52987	-0.209
Mof_C 	C 	0.32484	0.76231	0.50341	0.132
Mof_C 	C 	0.31189	0.81008	0.50258	-0.24
Mof_C 	C 	0.26214	0.83907	0.47191	0.284
Mof_C 	C 	0.21114	0.95197	0.42949	0.376
Mof_C 	C 	0.17096	0.98288	0.3944	-0.691
Mof_C 	C 	0.4294	0.9612	0.4208	0.092
Mof_C 	C 	0.50349	0.96038	0.38144	-0.167
Mof_C 	C 	0.55163	0.91871	0.36123	0.115
Mof_C 	C 	0.53048	0.88068	0.37816	-0.183
Mof_C 	C 	0.4614	0.8813	0.4177	0.103
Mof_C 	C 	0.6205	0.9196	0.315	-0.069
Mof_C 	C 	0.78512	0.1516	0.68686	0.33
Mof_C 	C 	0.72228	0.17535	0.72451	-0.307
Mof_C 	C 	0.72863	0.17132	0.7692	0.172
Mof_C 	C 	0.79995	0.1419	0.77912	-0.222
Mof_C 	C 	0.86301	0.11736	0.74262	0.147
Mof_C 	C 	0.85731	0.12158	0.69576	-0.255
Mof_C 	C 	0.92756	0.09401	0.65883	0.301
Mof_C 	C 	0.99505	0.08313	0.53917	0.354
Mof_C 	C 	0.06171	0.05686	0.49532	-0.656
Mof_C 	C 	0.89881	0.90687	0.24657	0.127
Mof_C 	C 	0.83239	0.90609	0.28333	-0.215
Mof_C 	C 	0.75784	0.92076	0.27436	0.138
Mof_C 	C 	0.75183	0.93415	0.22839	-0.201
Mof_C 	C 	0.82479	0.92398	0.19344	0.125
Mof_C 	C 	0.6783	0.9178	0.3194	-0.182
Mof_C 	C 	0.37957	0.41019	0.91327	0.331
Mof_C 	C 	0.44433	0.36596	0.91098	-0.309
Mof_C 	C 	0.50144	0.35842	0.9333	0.193
Mof_C 	C 	0.50156	0.39604	0.95824	-0.253
Mof_C 	C 	0.43966	0.43729	0.96379	0.182
Mof_C 	C 	0.38057	0.44615	0.94071	-0.279
Mof_C 	C 	0.31637	0.49151	0.94875	0.308
Mof_C 	C 	0.14786	0.55339	0.91407	0.374
Mof_C 	C 	0.07848	0.59893	0.92029	-0.694
Mof_C 	C 	0.2081	0.66985	0.97095	0.303
Mof_C 	C 	0.25104	0.70065	0.94447	-0.278
Mof_C 	C 	0.2142	0.7485	0.9437	0.149
Mof_C 	C 	0.13391	0.76865	0.97013	-0.21
Mof_C 	C 	0.09056	0.73769	0.99659	0.134
Mof_C 	C 	0.12455	0.68992	0.99742	-0.24
Mof_C 	C 	0.07312	0.66093	0.02809	0.284
Mof_C 	C 	0.0926	0.54803	0.07051	0.376
Mof_C 	C 	0.04824	0.51712	0.1056	-0.691
Mof_C 	C 	0.3114	0.5388	0.0792	0.092
Mof_C 	C 	0.34531	0.53962	0.11856	-0.167
Mof_C 	C 	0.33157	0.58129	0.13877	0.115
Mof_C 	C 	0.28932	0.61932	0.12184	-0.183
Mof_C 	C 	0.2604	0.6187	0.0823	0.103
Mof_C 	C 	0.3551	0.5804	0.185	-0.069
Mof_C 	C 	0.12358	0.3484	0.81314	0.33
Mof_C 	C 	0.12214	0.32465	0.77549	-0.307
Mof_C 	C 	0.16915	0.32868	0.7308	0.172
Mof_C 	C 	0.22097	0.3581	0.72088	-0.222
Mof_C 	C 	0.22299	0.38264	0.75738	0.147
Mof_C 	C 	0.17465	0.37842	0.80424	-0.255
Mof_C 	C 	0.1804	0.40599	0.84117	0.301
Mof_C 	C 	0.11735	0.41687	0.96083	0.354
Mof_C 	C 	0.11389	0.44314	0.00468	-0.655
Mof_C 	C 	0.55225	0.59313	0.25343	0.127
Mof_C 	C 	0.52181	0.59391	0.21667	-0.215
Mof_C 	C 	0.45296	0.57924	0.22564	0.138
Mof_C 	C 	0.41437	0.56585	0.27161	-0.201
Mof_C 	C 	0.44221	0.57602	0.30656	0.125
Mof_C 	C 	0.4155	0.5822	0.1806	-0.182
Mof_N 	N 	0.81419	0.92796	0.99948	-0.257
Mof_N 	N 	0.86224	0.93995	0.95505	-0.224
Mof_N 	N 	0.85603	0.03545	0.88493	-0.248
Mof_N 	N 	0.87673	0.06743	0.90719	-0.22
Mof_N 	N 	0.66507	0.06093	0.92149	-0.196
Mof_N 	N 	0.97349	0.88587	0.09899	-0.248
Mof_N 	N 	0.92932	0.91861	0.07191	-0.219
Mof_N 	N 	0.18748	0.29853	0.91589	-0.211
Mof_N 	N 	0.24163	0.57204	0.50052	-0.258
Mof_N 	N 	0.25724	0.56005	0.54495	-0.224
Mof_N 	N 	0.27641	0.46455	0.61507	-0.248
Mof_N 	N 	0.35135	0.43257	0.59281	-0.22
Mof_N 	N 	0.14749	0.43907	0.57851	-0.196
Mof_N 	N 	0.45835	0.61413	0.40101	-0.248
Mof_N 	N 	0.41984	0.58139	0.42809	-0.22
Mof_N 	N 	0.9019	0.20147	0.58411	-0.211
Mof_N 	N 	0.81367	0.00052	0.42796	-0.258
Mof_N 	N 	0.81729	0.04495	0.43995	-0.224
Mof_N 	N 	0.74096	0.11507	0.53545	-0.248
Mof_N 	N 	0.78392	0.09281	0.56743	-0.22
Mof_N 	N 	0.58656	0.07851	0.56093	-0.196
Mof_N 	N 	0.07248	0.90101	0.38587	-0.248
Mof_N 	N 	0.00123	0.92809	0.41861	-0.219
Mof_N 	N 	0.10337	0.08411	0.79853	-0.211
Mof_N 	N 	0.74215	0.49948	0.07204	-0.258
Mof_N 	N 	0.80219	0.45505	0.06005	-0.224
Mof_N 	N 	0.89148	0.38493	0.96455	-0.248
Mof_N 	N 	0.94416	0.40719	0.93257	-0.22
Mof_N 	N 	0.726	0.42149	0.93907	-0.196
Mof_N 	N 	0.85936	0.59899	0.11413	-0.248
Mof_N 	N 	0.84793	0.57191	0.08139	-0.22
Mof_N 	N 	0.48601	0.41589	0.70147	-0.211
Mof_N 	N 	0.18581	0.07204	0.00052	-0.257
Mof_N 	N 	0.13776	0.06005	0.04495	-0.224
Mof_N 	N 	0.14397	0.96455	0.11507	-0.248
Mof_N 	N 	0.12327	0.93257	0.09281	-0.22
Mof_N 	N 	0.33493	0.93907	0.07851	-0.196
Mof_N 	N 	0.02651	0.11413	0.90101	-0.248
Mof_N 	N 	0.07068	0.08139	0.92809	-0.219
Mof_N 	N 	0.81252	0.70147	0.08411	-0.211
Mof_N 	N 	0.75837	0.42796	0.49948	-0.258
Mof_N 	N 	0.74276	0.43995	0.45505	-0.224
Mof_N 	N 	0.72359	0.53545	0.38493	-0.248
Mof_N 	N 	0.64865	0.56743	0.40719	-0.22
Mof_N 	N 	0.85251	0.56093	0.42149	-0.196
Mof_N 	N 	0.54165	0.38587	0.59899	-0.248
Mof_N 	N 	0.58016	0.41861	0.57191	-0.22
Mof_N 	N 	0.0981	0.79853	0.41589	-0.211
Mof_N 	N 	0.18633	0.99948	0.57204	-0.258
Mof_N 	N 	0.18271	0.95505	0.56005	-0.224
Mof_N 	N 	0.25904	0.88493	0.46455	-0.248
Mof_N 	N 	0.21608	0.90719	0.43257	-0.22
Mof_N 	N 	0.41344	0.92149	0.43907	-0.196
Mof_N 	N 	0.92752	0.09899	0.61413	-0.248
Mof_N 	N 	0.99877	0.07191	0.58139	-0.219
Mof_N 	N 	0.89663	0.91589	0.20147	-0.211
Mof_N 	N 	0.25785	0.50052	0.92796	-0.258
Mof_N 	N 	0.19781	0.54495	0.93995	-0.224
Mof_N 	N 	0.10852	0.61507	0.03545	-0.248
Mof_N 	N 	0.05584	0.59281	0.06743	-0.22
Mof_N 	N 	0.274	0.57851	0.06093	-0.196
Mof_N 	N 	0.14064	0.40101	0.88587	-0.248
Mof_N 	N 	0.15207	0.42809	0.91861	-0.22
Mof_N 	N 	0.51399	0.58411	0.29853	-0.211
Mof_O 	O 	0.78284	0.88689	0.08547	-0.441
Mof_O 	O 	0.70508	0.97769	0.97843	-0.375
Mof_O 	O 	0.96239	0.88191	0.97681	-0.437
Mof_O 	O 	0.78111	0.97019	0.87665	-0.424
Mof_O 	O 	0.9543	0.0485	0.81898	-0.378
Mof_O 	O 	0.79047	0.0434	0.97192	-0.433
Mof_O 	O 	0.06814	0.85642	0.15864	-0.439
Mof_O 	O 	0.94495	0.82967	0.06513	-0.383
Mof_O 	O 	0.95129	0.97106	0.11544	-0.427
Mof_O 	O 	0.2552	0.61311	0.41453	-0.441
Mof_O 	O 	0.1612	0.52231	0.52157	-0.377
Mof_O 	O 	0.32111	0.61809	0.52319	-0.437
Mof_O 	O 	0.12795	0.52981	0.62335	-0.425
Mof_O 	O 	0.32178	0.4515	0.68102	-0.378
Mof_O 	O 	0.30579	0.4566	0.52808	-0.433
Mof_O 	O 	0.5832	0.64358	0.34136	-0.439
Mof_O 	O 	0.33975	0.67033	0.43487	-0.383
Mof_O 	O 	0.53779	0.52894	0.38456	-0.427
Mof_O 	O 	0.86831	0.91453	0.38689	-0.441
Mof_O 	O 	0.68351	0.02157	0.47769	-0.377
Mof_O 	O 	0.9392	0.02319	0.38191	-0.437
Mof_O 	O 	0.65776	0.12335	0.47019	-0.425
Mof_O 	O 	0.77328	0.18102	0.5485	-0.378
Mof_O 	O 	0.76239	0.02808	0.5434	-0.433
Mof_O 	O 	0.22678	0.84136	0.35642	-0.439
Mof_O 	O 	0.01008	0.93487	0.32967	-0.382
Mof_O 	O 	0.06673	0.88456	0.47106	-0.427
Mof_O 	O 	0.66973	0.58547	0.11311	-0.441
Mof_O 	O 	0.68277	0.47843	0.02231	-0.377
Mof_O 	O 	0.8443	0.47681	0.11809	-0.437
Mof_O 	O 	0.7513	0.37665	0.02981	-0.425
Mof_O 	O 	0.0028	0.31898	0.9515	-0.378
Mof_O 	O 	0.83387	0.47192	0.9566	-0.433
Mof_O 	O 	0.92456	0.65864	0.14358	-0.439
Mof_O 	O 	0.77462	0.56513	0.17033	-0.383
Mof_O 	O 	0.92235	0.61544	0.02894	-0.427
Mof_O 	O 	0.21716	0.11311	0.91453	-0.441
Mof_O 	O 	0.29492	0.02231	0.02157	-0.375
Mof_O 	O 	0.03761	0.11809	0.02319	-0.437
Mof_O 	O 	0.21889	0.02981	0.12335	-0.424
Mof_O 	O 	0.0457	0.9515	0.18102	-0.378
Mof_O 	O 	0.20953	0.9566	0.02808	-0.433
Mof_O 	O 	0.93186	0.14358	0.84136	-0.439
Mof_O 	O 	0.05505	0.17033	0.93487	-0.383
Mof_O 	O 	0.04871	0.02894	0.88456	-0.427
Mof_O 	O 	0.7448	0.38689	0.58547	-0.441
Mof_O 	O 	0.8388	0.47769	0.47843	-0.377
Mof_O 	O 	0.67889	0.38191	0.47681	-0.437
Mof_O 	O 	0.87205	0.47019	0.37665	-0.425
Mof_O 	O 	0.67822	0.5485	0.31898	-0.378
Mof_O 	O 	0.69421	0.5434	0.47192	-0.433
Mof_O 	O 	0.4168	0.35642	0.65864	-0.439
Mof_O 	O 	0.66025	0.32967	0.56513	-0.383
Mof_O 	O 	0.46221	0.47106	0.61544	-0.427
Mof_O 	O 	0.13169	0.08547	0.61311	-0.441
Mof_O 	O 	0.31649	0.97843	0.52231	-0.377
Mof_O 	O 	0.0608	0.97681	0.61809	-0.437
Mof_O 	O 	0.34224	0.87665	0.52981	-0.425
Mof_O 	O 	0.22672	0.81898	0.4515	-0.378
Mof_O 	O 	0.23761	0.97192	0.4566	-0.433
Mof_O 	O 	0.77322	0.15864	0.64358	-0.439
Mof_O 	O 	0.98992	0.06513	0.67033	-0.382
Mof_O 	O 	0.93327	0.11544	0.52894	-0.427
Mof_O 	O 	0.33027	0.41453	0.88689	-0.441
Mof_O 	O 	0.31723	0.52157	0.97769	-0.377
Mof_O 	O 	0.1557	0.52319	0.88191	-0.437
Mof_O 	O 	0.2487	0.62335	0.97019	-0.425
Mof_O 	O 	0.9972	0.68102	0.0485	-0.378
Mof_O 	O 	0.16613	0.52808	0.0434	-0.433
Mof_O 	O 	0.07544	0.34136	0.85642	-0.439
Mof_O 	O 	0.22538	0.43487	0.82967	-0.383
Mof_O 	O 	0.07765	0.38456	0.97106	-0.427
_end
