# CIF file generated by openbabel 3.1.0, see https://openbabel.org
data_I
_chemical_name_common 'UTULUR_clean'
_cell_length_a 22.251
_cell_length_b 37.791
_cell_length_c 8.239
_cell_angle_alpha 90
_cell_angle_beta 90
_cell_angle_gamma 90
_space_group_name_H-M_alt 'P 1'
_space_group_name_Hall 'P 1'
loop_
    _symmetry_equiv_pos_as_xyz
    x,y,z
loop_
    _atom_site_label
    _atom_site_type_symbol
    _atom_site_fract_x
    _atom_site_fract_y
    _atom_site_fract_z
    _atom_site_occupancy
    In1      In       0.32485    0.64231    0.90306    1.000
    In2      In       0.17783    0.64483    0.16901    1.000
    In3      In       0.24973    0.60776    0.53459    1.000
    C4       C        0.25110    0.53170    0.95070    1.000
    C5       C        0.23960    0.53210    0.12090    1.000
    C6       C        0.26460    0.56530    0.85800    1.000
    C7       C        0.22720    0.56560    0.21070    1.000
    C8       C        0.05520    0.62870    0.58670    1.000
    C9       C        0.05530    0.63790    0.75220    1.000
    C10      C        0.11120    0.64750    0.84200    1.000
    C11      C        0.11190    0.62250    0.49340    1.000
    C12      C        0.44570    0.73170    0.80390    1.000
    C13      C        0.44570    0.76760    0.75110    1.000
    C14      C        0.38730    0.71210    0.82500    1.000
    C15      C        0.38780    0.78860    0.72900    1.000
    C16      C        0.44510    0.63110    0.31530    1.000
    C17      C        0.38920    0.64060    0.22230    1.000
    C18      C        0.38740    0.61710    0.57380    1.000
    C19      C        0.44490    0.62260    0.48150    1.000
    O20      O        0.24710    0.56640    0.35710    1.000
    O21      O        0.23870    0.64910    0.36370    1.000
    O22      O        0.26470    0.64760    0.70560    1.000
    O23      O        0.24510    0.56640    0.71340    1.000
    O24      O        0.25130    0.66510    0.03210    1.000
    O25      O        0.11090    0.62900    0.34610    1.000
    O26      O        0.15420    0.61020    0.57310    1.000
    O27      O        0.38320    0.62370    0.08940    1.000
    O28      O        0.11740    0.63030    0.97720    1.000
    O29      O        0.19920    0.58900    0.14100    1.000
    O30      O        0.29600    0.58760    0.92810    1.000
    O31      O        0.38930    0.62290    0.72030    1.000
    O32      O        0.34460    0.60540    0.49300    1.000
    O33      O        0.36820    0.80530    0.83450    1.000
    O34      O        0.38560    0.68680    0.90710    1.000
    O35      O        0.14410    0.67070    0.79200    1.000
    O36      O        0.34170    0.72290    0.74600    1.000
    O37      O        0.37350    0.79300    0.57200    1.000
    O38      O        0.35610    0.66440    0.27040    1.000
    H39      H        0.23870    0.67556    0.36370    1.000
    H40      H        0.23530    0.82594    0.29440    1.000
    H41      H        0.24870    0.80844    0.96790    1.000
    In42     In       0.67515    0.35769    0.90306    1.000
    In43     In       0.82217    0.35517    0.16901    1.000
    In44     In       0.75027    0.39224    0.53459    1.000
    C45      C        0.74890    0.46830    0.95070    1.000
    C46      C        0.76040    0.46790    0.12090    1.000
    C47      C        0.73540    0.43470    0.85800    1.000
    C48      C        0.77280    0.43440    0.21070    1.000
    C49      C        0.94480    0.37130    0.58670    1.000
    C50      C        0.94470    0.36210    0.75220    1.000
    C51      C        0.88880    0.35250    0.84200    1.000
    C52      C        0.88810    0.37750    0.49340    1.000
    C53      C        0.55430    0.26830    0.80390    1.000
    C54      C        0.55430    0.23240    0.75110    1.000
    C55      C        0.61270    0.28790    0.82500    1.000
    C56      C        0.61220    0.21140    0.72900    1.000
    C57      C        0.55490    0.36890    0.31530    1.000
    C58      C        0.61080    0.35940    0.22230    1.000
    C59      C        0.61260    0.38290    0.57380    1.000
    C60      C        0.55510    0.37740    0.48150    1.000
    O61      O        0.75290    0.43360    0.35710    1.000
    O62      O        0.76130    0.35090    0.36370    1.000
    O63      O        0.73530    0.35240    0.70560    1.000
    O64      O        0.75490    0.43360    0.71340    1.000
    O65      O        0.74870    0.33490    0.03210    1.000
    O66      O        0.88910    0.37100    0.34610    1.000
    O67      O        0.84580    0.38980    0.57310    1.000
    O68      O        0.61680    0.37630    0.08940    1.000
    O69      O        0.88260    0.36970    0.97720    1.000
    O70      O        0.80080    0.41100    0.14100    1.000
    O71      O        0.70400    0.41240    0.92810    1.000
    O72      O        0.61070    0.37710    0.72030    1.000
    O73      O        0.65540    0.39460    0.49300    1.000
    O74      O        0.63180    0.19470    0.83450    1.000
    O75      O        0.61440    0.31320    0.90710    1.000
    O76      O        0.85590    0.32930    0.79200    1.000
    O77      O        0.65830    0.27710    0.74600    1.000
    O78      O        0.62650    0.20700    0.57200    1.000
    O79      O        0.64390    0.33560    0.27040    1.000
    H80      H        0.76130    0.32444    0.36370    1.000
    H81      H        0.76470    0.17406    0.29440    1.000
    H82      H        0.75130    0.19156    0.96790    1.000
    In83     In       0.17515    0.14231    0.09694    1.000
    In84     In       0.32217    0.14483    0.83099    1.000
    In85     In       0.25027    0.10776    0.46541    1.000
    C86      C        0.24890    0.03170    0.04930    1.000
    C87      C        0.26040    0.03210    0.87910    1.000
    C88      C        0.23540    0.06530    0.14200    1.000
    C89      C        0.27280    0.06560    0.78930    1.000
    C90      C        0.44480    0.12870    0.41330    1.000
    C91      C        0.44470    0.13790    0.24780    1.000
    C92      C        0.38880    0.14750    0.15800    1.000
    C93      C        0.38810    0.12250    0.50660    1.000
    C94      C        0.05430    0.23170    0.19610    1.000
    C95      C        0.05430    0.26760    0.24890    1.000
    C96      C        0.11270    0.21210    0.17500    1.000
    C97      C        0.11220    0.28860    0.27100    1.000
    C98      C        0.05490    0.13110    0.68470    1.000
    C99      C        0.11080    0.14060    0.77770    1.000
    C100     C        0.11260    0.11710    0.42620    1.000
    C101     C        0.05510    0.12260    0.51850    1.000
    O102     O        0.25290    0.06640    0.64290    1.000
    O103     O        0.26130    0.14910    0.63630    1.000
    O104     O        0.23530    0.14760    0.29440    1.000
    O105     O        0.25490    0.06640    0.28660    1.000
    O106     O        0.24870    0.16510    0.96790    1.000
    O107     O        0.38910    0.12900    0.65390    1.000
    O108     O        0.34580    0.11020    0.42690    1.000
    O109     O        0.11680    0.12370    0.91060    1.000
    O110     O        0.38260    0.13030    0.02280    1.000
    O111     O        0.30080    0.08900    0.85900    1.000
    O112     O        0.20400    0.08760    0.07190    1.000
    O113     O        0.11070    0.12290    0.27970    1.000
    O114     O        0.15540    0.10540    0.50700    1.000
    O115     O        0.13180    0.30530    0.16550    1.000
    O116     O        0.11440    0.18680    0.09290    1.000
    O117     O        0.35590    0.17070    0.20800    1.000
    O118     O        0.15830    0.22290    0.25400    1.000
    O119     O        0.12650    0.29300    0.42800    1.000
    O120     O        0.14390    0.16440    0.72960    1.000
    H121     H        0.26130    0.17556    0.63630    1.000
    H122     H        0.26470    0.32594    0.70560    1.000
    H123     H        0.25130    0.30844    0.03210    1.000
    In124    In       0.82485    0.85769    0.09694    1.000
    In125    In       0.67783    0.85517    0.83099    1.000
    In126    In       0.74973    0.89224    0.46541    1.000
    C127     C        0.75110    0.96830    0.04930    1.000
    C128     C        0.73960    0.96790    0.87910    1.000
    C129     C        0.76460    0.93470    0.14200    1.000
    C130     C        0.72720    0.93440    0.78930    1.000
    C131     C        0.55520    0.87130    0.41330    1.000
    C132     C        0.55530    0.86210    0.24780    1.000
    C133     C        0.61120    0.85250    0.15800    1.000
    C134     C        0.61190    0.87750    0.50660    1.000
    C135     C        0.94570    0.76830    0.19610    1.000
    C136     C        0.94570    0.73240    0.24890    1.000
    C137     C        0.88730    0.78790    0.17500    1.000
    C138     C        0.88780    0.71140    0.27100    1.000
    C139     C        0.94510    0.86890    0.68470    1.000
    C140     C        0.88920    0.85940    0.77770    1.000
    C141     C        0.88740    0.88290    0.42620    1.000
    C142     C        0.94490    0.87740    0.51850    1.000
    O143     O        0.74710    0.93360    0.64290    1.000
    O144     O        0.73870    0.85090    0.63630    1.000
    O145     O        0.76470    0.85240    0.29440    1.000
    O146     O        0.74510    0.93360    0.28660    1.000
    O147     O        0.75130    0.83490    0.96790    1.000
    O148     O        0.61090    0.87100    0.65390    1.000
    O149     O        0.65420    0.88980    0.42690    1.000
    O150     O        0.88320    0.87630    0.91060    1.000
    O151     O        0.61740    0.86970    0.02280    1.000
    O152     O        0.69920    0.91100    0.85900    1.000
    O153     O        0.79600    0.91240    0.07190    1.000
    O154     O        0.88930    0.87710    0.27970    1.000
    O155     O        0.84460    0.89460    0.50700    1.000
    O156     O        0.86820    0.69470    0.16550    1.000
    O157     O        0.88560    0.81320    0.09290    1.000
    O158     O        0.64410    0.82930    0.20800    1.000
    O159     O        0.84170    0.77710    0.25400    1.000
    O160     O        0.87350    0.70700    0.42800    1.000
    O161     O        0.85610    0.83560    0.72960    1.000
    H162     H        0.73870    0.82444    0.63630    1.000
    H163     H        0.73530    0.67406    0.70560    1.000
    H164     H        0.74870    0.69156    0.03210    1.000
    In165    In       0.17515    0.85769    0.09694    1.000
    In166    In       0.32217    0.85517    0.83099    1.000
    In167    In       0.25027    0.89224    0.46541    1.000
    C168     C        0.24890    0.96830    0.04930    1.000
    C169     C        0.26040    0.96790    0.87910    1.000
    C170     C        0.23540    0.93470    0.14200    1.000
    C171     C        0.27280    0.93440    0.78930    1.000
    C172     C        0.44480    0.87130    0.41330    1.000
    C173     C        0.44470    0.86210    0.24780    1.000
    C174     C        0.38880    0.85250    0.15800    1.000
    C175     C        0.38810    0.87750    0.50660    1.000
    C176     C        0.05430    0.76830    0.19610    1.000
    C177     C        0.05430    0.73240    0.24890    1.000
    C178     C        0.11270    0.78790    0.17500    1.000
    C179     C        0.11220    0.71140    0.27100    1.000
    C180     C        0.05490    0.86890    0.68470    1.000
    C181     C        0.11080    0.85940    0.77770    1.000
    C182     C        0.11260    0.88290    0.42620    1.000
    C183     C        0.05510    0.87740    0.51850    1.000
    O184     O        0.25290    0.93360    0.64290    1.000
    O185     O        0.26130    0.85090    0.63630    1.000
    O186     O        0.23530    0.85240    0.29440    1.000
    O187     O        0.25490    0.93360    0.28660    1.000
    O188     O        0.24870    0.83490    0.96790    1.000
    O189     O        0.38910    0.87100    0.65390    1.000
    O190     O        0.34580    0.88980    0.42690    1.000
    O191     O        0.11680    0.87630    0.91060    1.000
    O192     O        0.38260    0.86970    0.02280    1.000
    O193     O        0.30080    0.91100    0.85900    1.000
    O194     O        0.20400    0.91240    0.07190    1.000
    O195     O        0.11070    0.87710    0.27970    1.000
    O196     O        0.15540    0.89460    0.50700    1.000
    O197     O        0.13180    0.69470    0.16550    1.000
    O198     O        0.11440    0.81320    0.09290    1.000
    O199     O        0.35590    0.82930    0.20800    1.000
    O200     O        0.15830    0.77710    0.25400    1.000
    O201     O        0.12650    0.70700    0.42800    1.000
    O202     O        0.14390    0.83560    0.72960    1.000
    H203     H        0.26130    0.82444    0.63630    1.000
    H204     H        0.26470    0.67406    0.70560    1.000
    H205     H        0.25130    0.69156    0.03210    1.000
    In206    In       0.82485    0.14231    0.09694    1.000
    In207    In       0.67783    0.14483    0.83099    1.000
    In208    In       0.74973    0.10776    0.46541    1.000
    C209     C        0.75110    0.03170    0.04930    1.000
    C210     C        0.73960    0.03210    0.87910    1.000
    C211     C        0.76460    0.06530    0.14200    1.000
    C212     C        0.72720    0.06560    0.78930    1.000
    C213     C        0.55520    0.12870    0.41330    1.000
    C214     C        0.55530    0.13790    0.24780    1.000
    C215     C        0.61120    0.14750    0.15800    1.000
    C216     C        0.61190    0.12250    0.50660    1.000
    C217     C        0.94570    0.23170    0.19610    1.000
    C218     C        0.94570    0.26760    0.24890    1.000
    C219     C        0.88730    0.21210    0.17500    1.000
    C220     C        0.88780    0.28860    0.27100    1.000
    C221     C        0.94510    0.13110    0.68470    1.000
    C222     C        0.88920    0.14060    0.77770    1.000
    C223     C        0.88740    0.11710    0.42620    1.000
    C224     C        0.94490    0.12260    0.51850    1.000
    O225     O        0.74710    0.06640    0.64290    1.000
    O226     O        0.73870    0.14910    0.63630    1.000
    O227     O        0.76470    0.14760    0.29440    1.000
    O228     O        0.74510    0.06640    0.28660    1.000
    O229     O        0.75130    0.16510    0.96790    1.000
    O230     O        0.61090    0.12900    0.65390    1.000
    O231     O        0.65420    0.11020    0.42690    1.000
    O232     O        0.88320    0.12370    0.91060    1.000
    O233     O        0.61740    0.13030    0.02280    1.000
    O234     O        0.69920    0.08900    0.85900    1.000
    O235     O        0.79600    0.08760    0.07190    1.000
    O236     O        0.88930    0.12290    0.27970    1.000
    O237     O        0.84460    0.10540    0.50700    1.000
    O238     O        0.86820    0.30530    0.16550    1.000
    O239     O        0.88560    0.18680    0.09290    1.000
    O240     O        0.64410    0.17070    0.20800    1.000
    O241     O        0.84170    0.22290    0.25400    1.000
    O242     O        0.87350    0.29300    0.42800    1.000
    O243     O        0.85610    0.16440    0.72960    1.000
    H244     H        0.73870    0.17556    0.63630    1.000
    H245     H        0.73530    0.32594    0.70560    1.000
    H246     H        0.74870    0.30844    0.03210    1.000
    In247    In       0.32485    0.35769    0.90306    1.000
    In248    In       0.17783    0.35517    0.16901    1.000
    In249    In       0.24973    0.39224    0.53459    1.000
    C250     C        0.25110    0.46830    0.95070    1.000
    C251     C        0.23960    0.46790    0.12090    1.000
    C252     C        0.26460    0.43470    0.85800    1.000
    C253     C        0.22720    0.43440    0.21070    1.000
    C254     C        0.05520    0.37130    0.58670    1.000
    C255     C        0.05530    0.36210    0.75220    1.000
    C256     C        0.11120    0.35250    0.84200    1.000
    C257     C        0.11190    0.37750    0.49340    1.000
    C258     C        0.44570    0.26830    0.80390    1.000
    C259     C        0.44570    0.23240    0.75110    1.000
    C260     C        0.38730    0.28790    0.82500    1.000
    C261     C        0.38780    0.21140    0.72900    1.000
    C262     C        0.44510    0.36890    0.31530    1.000
    C263     C        0.38920    0.35940    0.22230    1.000
    C264     C        0.38740    0.38290    0.57380    1.000
    C265     C        0.44490    0.37740    0.48150    1.000
    O266     O        0.24710    0.43360    0.35710    1.000
    O267     O        0.23870    0.35090    0.36370    1.000
    O268     O        0.26470    0.35240    0.70560    1.000
    O269     O        0.24510    0.43360    0.71340    1.000
    O270     O        0.25130    0.33490    0.03210    1.000
    O271     O        0.11090    0.37100    0.34610    1.000
    O272     O        0.15420    0.38980    0.57310    1.000
    O273     O        0.38320    0.37630    0.08940    1.000
    O274     O        0.11740    0.36970    0.97720    1.000
    O275     O        0.19920    0.41100    0.14100    1.000
    O276     O        0.29600    0.41240    0.92810    1.000
    O277     O        0.38930    0.37710    0.72030    1.000
    O278     O        0.34460    0.39460    0.49300    1.000
    O279     O        0.36820    0.19470    0.83450    1.000
    O280     O        0.38560    0.31320    0.90710    1.000
    O281     O        0.14410    0.32930    0.79200    1.000
    O282     O        0.34170    0.27710    0.74600    1.000
    O283     O        0.37350    0.20700    0.57200    1.000
    O284     O        0.35610    0.33560    0.27040    1.000
    H285     H        0.23870    0.32444    0.36370    1.000
    H286     H        0.23530    0.17406    0.29440    1.000
    H287     H        0.24870    0.19156    0.96790    1.000
    In288    In       0.67515    0.64231    0.90306    1.000
    In289    In       0.82217    0.64483    0.16901    1.000
    In290    In       0.75027    0.60776    0.53459    1.000
    C291     C        0.74890    0.53170    0.95070    1.000
    C292     C        0.76040    0.53210    0.12090    1.000
    C293     C        0.73540    0.56530    0.85800    1.000
    C294     C        0.77280    0.56560    0.21070    1.000
    C295     C        0.94480    0.62870    0.58670    1.000
    C296     C        0.94470    0.63790    0.75220    1.000
    C297     C        0.88880    0.64750    0.84200    1.000
    C298     C        0.88810    0.62250    0.49340    1.000
    C299     C        0.55430    0.73170    0.80390    1.000
    C300     C        0.55430    0.76760    0.75110    1.000
    C301     C        0.61270    0.71210    0.82500    1.000
    C302     C        0.61220    0.78860    0.72900    1.000
    C303     C        0.55490    0.63110    0.31530    1.000
    C304     C        0.61080    0.64060    0.22230    1.000
    C305     C        0.61260    0.61710    0.57380    1.000
    C306     C        0.55510    0.62260    0.48150    1.000
    O307     O        0.75290    0.56640    0.35710    1.000
    O308     O        0.76130    0.64910    0.36370    1.000
    O309     O        0.73530    0.64760    0.70560    1.000
    O310     O        0.75490    0.56640    0.71340    1.000
    O311     O        0.74870    0.66510    0.03210    1.000
    O312     O        0.88910    0.62900    0.34610    1.000
    O313     O        0.84580    0.61020    0.57310    1.000
    O314     O        0.61680    0.62370    0.08940    1.000
    O315     O        0.88260    0.63030    0.97720    1.000
    O316     O        0.80080    0.58900    0.14100    1.000
    O317     O        0.70400    0.58760    0.92810    1.000
    O318     O        0.61070    0.62290    0.72030    1.000
    O319     O        0.65540    0.60540    0.49300    1.000
    O320     O        0.63180    0.80530    0.83450    1.000
    O321     O        0.61440    0.68680    0.90710    1.000
    O322     O        0.85590    0.67070    0.79200    1.000
    O323     O        0.65830    0.72290    0.74600    1.000
    O324     O        0.62650    0.79300    0.57200    1.000
    O325     O        0.64390    0.66440    0.27040    1.000
    H326     H        0.76130    0.67556    0.36370    1.000
    H327     H        0.76470    0.82594    0.29440    1.000
    H328     H        0.75130    0.80844    0.96790    1.000
    H329     H        0.22700    0.50000    0.30910    1.000
    H330     H        0.26540    0.50000    0.75870    1.000
    C331     C        0.23440    0.50000    0.19800    1.000
    C332     C        0.25720    0.50000    0.86940    1.000
    H333     H        0.77300    0.50000    0.30910    1.000
    H334     H        0.73460    0.50000    0.75870    1.000
    C335     C        0.76560    0.50000    0.19800    1.000
    C336     C        0.74280    0.50000    0.86940    1.000
    H337     H        0.27300    0.00000    0.69090    1.000
    H338     H        0.23460    0.00000    0.24130    1.000
    C339     C        0.26560    0.00000    0.80200    1.000
    C340     C        0.24280    0.00000    0.13060    1.000
    H341     H        0.72700    0.00000    0.69090    1.000
    H342     H        0.76540    0.00000    0.24130    1.000
    C343     C        0.73440    0.00000    0.80200    1.000
    C344     C        0.75720    0.00000    0.13060    1.000
    H345     H        0.00000    0.64780    0.94000    1.000
    H346     H        0.00000    0.61850    0.40180    1.000
    C347     C        0.00000    0.64200    0.83000    1.000
    C348     C        0.00000    0.62450    0.51100    1.000
    H349     H        0.00000    0.35220    0.94000    1.000
    H350     H        0.00000    0.38150    0.40180    1.000
    C351     C        0.00000    0.35800    0.83000    1.000
    C352     C        0.00000    0.37550    0.51100    1.000
    H353     H        0.50000    0.14780    0.06000    1.000
    H354     H        0.50000    0.11850    0.59820    1.000
    C355     C        0.50000    0.14200    0.17000    1.000
    C356     C        0.50000    0.12450    0.48900    1.000
    H357     H        0.50000    0.85220    0.06000    1.000
    H358     H        0.50000    0.88150    0.59820    1.000
    C359     C        0.50000    0.85800    0.17000    1.000
    C360     C        0.50000    0.87550    0.48900    1.000
    H361     H        0.50000    0.69150    0.88000    1.000
    H362     H        0.50000    0.80730    0.69390    1.000
    H363     H        0.50000    0.64090    0.12560    1.000
    H364     H        0.50000    0.61550    0.67500    1.000
    C365     C        0.50000    0.71430    0.83700    1.000
    C366     C        0.50000    0.78380    0.72800    1.000
    C367     C        0.50000    0.63520    0.23500    1.000
    C368     C        0.50000    0.61960    0.56370    1.000
    H369     H        0.50000    0.30850    0.88000    1.000
    H370     H        0.50000    0.19270    0.69390    1.000
    H371     H        0.50000    0.35910    0.12560    1.000
    H372     H        0.50000    0.38450    0.67500    1.000
    C373     C        0.50000    0.28570    0.83700    1.000
    C374     C        0.50000    0.21620    0.72800    1.000
    C375     C        0.50000    0.36480    0.23500    1.000
    C376     C        0.50000    0.38040    0.56370    1.000
    H377     H        0.00000    0.19150    0.12000    1.000
    H378     H        0.00000    0.30730    0.30610    1.000
    H379     H        0.00000    0.14090    0.87440    1.000
    H380     H        0.00000    0.11550    0.32500    1.000
    C381     C        0.00000    0.21430    0.16300    1.000
    C382     C        0.00000    0.28380    0.27200    1.000
    C383     C        0.00000    0.13520    0.76500    1.000
    C384     C        0.00000    0.11960    0.43630    1.000
    H385     H        0.00000    0.80850    0.12000    1.000
    H386     H        0.00000    0.69270    0.30610    1.000
    H387     H        0.00000    0.85910    0.87440    1.000
    H388     H        0.00000    0.88450    0.32500    1.000
    C389     C        0.00000    0.78570    0.16300    1.000
    C390     C        0.00000    0.71620    0.27200    1.000
    C391     C        0.00000    0.86480    0.76500    1.000
    C392     C        0.00000    0.88040    0.43630    1.000
