data_functionalizedCrystal
_audit_creation_method	'EQeq! by Chris Wilmer'
_symmetry_space_group_name_H-M	'P1'
_symmetry_Int_Tables_number	1
_symmetry_cell_setting	triclinic
loop_
_symmetry_equiv_pos_as_xyz
  x,y,z
_cell_length_a	22.9079
_cell_length_b	22.9079
_cell_length_c	22.9079
_cell_angle_alpha	90
_cell_angle_beta	90
_cell_angle_gamma	90
loop_
_atom_site_label
_atom_site_type_symbol
_atom_site_fract_x
_atom_site_fract_y
_atom_site_fract_z
_atom_site_charge
Mof_Zn	Zn	0.77374	0.2882	0.675	1.231
Mof_Zn	Zn	0.72626	0.7118	0.175	1.231
Mof_Zn	Zn	0.22626	0.7882	0.825	1.231
Mof_Zn	Zn	0.27374	0.2118	0.325	1.231
Mof_Zn	Zn	0.675	0.77374	0.2882	1.231
Mof_Zn	Zn	0.175	0.72626	0.7118	1.231
Mof_Zn	Zn	0.825	0.22626	0.7882	1.231
Mof_Zn	Zn	0.325	0.27374	0.2118	1.231
Mof_Zn	Zn	0.2882	0.675	0.77374	1.231
Mof_Zn	Zn	0.7118	0.175	0.72626	1.231
Mof_Zn	Zn	0.7882	0.825	0.22626	1.231
Mof_Zn	Zn	0.2118	0.325	0.27374	1.231
Mof_P 	P 	0.64049	0.64049	0.64049	0.213
Mof_P 	P 	0.85951	0.35951	0.14049	0.213
Mof_P 	P 	0.35951	0.14049	0.85951	0.213
Mof_P 	P 	0.14049	0.85951	0.35951	0.213
Mof_P 	P 	0.64817	0.14817	0.35183	0.184
Mof_P 	P 	0.85183	0.85183	0.85183	0.184
Mof_P 	P 	0.35183	0.64817	0.14817	0.184
Mof_P 	P 	0.14817	0.35183	0.64817	0.184
Mof_H 	H 	0.5718	0.5354	0.6606	0.058
Mof_H 	H 	0.5972	0.436	0.6743	0.042
Mof_H 	H 	0.7656	0.4753	0.6516	0.045
Mof_H 	H 	0.7416	0.5742	0.6433	0.059
Mof_H 	H 	0.6552	0.079	0.4593	0.065
Mof_H 	H 	0.6675	0.1047	0.5574	0.033
Mof_H 	H 	0.702	0.2677	0.5088	0.038
Mof_H 	H 	0.6735	0.2473	0.4151	0.09
Mof_H 	H 	0.9282	0.4646	0.1606	0.058
Mof_H 	H 	0.9028	0.564	0.1743	0.042
Mof_H 	H 	0.7344	0.5247	0.1516	0.045
Mof_H 	H 	0.7584	0.4258	0.1433	0.059
Mof_H 	H 	0.8448	0.921	0.9593	0.065
Mof_H 	H 	0.8325	0.8953	0.0574	0.033
Mof_H 	H 	0.798	0.7323	0.0088	0.038
Mof_H 	H 	0.8265	0.7527	0.9151	0.09
Mof_H 	H 	0.4282	0.0354	0.8394	0.058
Mof_H 	H 	0.4028	0.936	0.8257	0.042
Mof_H 	H 	0.2344	0.9753	0.8484	0.045
Mof_H 	H 	0.2584	0.0742	0.8567	0.059
Mof_H 	H 	0.3448	0.579	0.0407	0.064
Mof_H 	H 	0.3325	0.6047	0.9426	0.032
Mof_H 	H 	0.298	0.7677	0.9912	0.037
Mof_H 	H 	0.3265	0.7473	0.0849	0.089
Mof_H 	H 	0.0718	0.9646	0.3394	0.057
Mof_H 	H 	0.0972	0.064	0.3257	0.041
Mof_H 	H 	0.2656	0.0247	0.3484	0.044
Mof_H 	H 	0.2416	0.9258	0.3567	0.058
Mof_H 	H 	0.1552	0.421	0.5407	0.064
Mof_H 	H 	0.1675	0.3953	0.4426	0.032
Mof_H 	H 	0.202	0.2323	0.4912	0.037
Mof_H 	H 	0.1735	0.2527	0.5849	0.089
Mof_H 	H 	0.6606	0.5718	0.5354	0.057
Mof_H 	H 	0.6743	0.5972	0.436	0.041
Mof_H 	H 	0.6516	0.7656	0.4753	0.044
Mof_H 	H 	0.6433	0.7416	0.5742	0.058
Mof_H 	H 	0.4593	0.6552	0.079	0.064
Mof_H 	H 	0.5574	0.6675	0.1047	0.032
Mof_H 	H 	0.5088	0.702	0.2677	0.037
Mof_H 	H 	0.4151	0.6735	0.2473	0.089
Mof_H 	H 	0.1606	0.9282	0.4646	0.057
Mof_H 	H 	0.1743	0.9028	0.564	0.041
Mof_H 	H 	0.1516	0.7344	0.5247	0.044
Mof_H 	H 	0.1433	0.7584	0.4258	0.058
Mof_H 	H 	0.9593	0.8448	0.921	0.064
Mof_H 	H 	0.0574	0.8325	0.8953	0.032
Mof_H 	H 	0.0088	0.798	0.7323	0.037
Mof_H 	H 	0.9151	0.8265	0.7527	0.089
Mof_H 	H 	0.8394	0.4282	0.0354	0.057
Mof_H 	H 	0.8257	0.4028	0.936	0.041
Mof_H 	H 	0.8484	0.2344	0.9753	0.044
Mof_H 	H 	0.8567	0.2584	0.0742	0.058
Mof_H 	H 	0.0407	0.3448	0.579	0.064
Mof_H 	H 	0.9426	0.3325	0.6047	0.032
Mof_H 	H 	0.9912	0.298	0.7677	0.037
Mof_H 	H 	0.0849	0.3265	0.7473	0.089
Mof_H 	H 	0.3394	0.0718	0.9646	0.057
Mof_H 	H 	0.3257	0.0972	0.064	0.041
Mof_H 	H 	0.3484	0.2656	0.0247	0.044
Mof_H 	H 	0.3567	0.2416	0.9258	0.058
Mof_H 	H 	0.5407	0.1552	0.421	0.064
Mof_H 	H 	0.4426	0.1675	0.3953	0.032
Mof_H 	H 	0.4912	0.202	0.2323	0.037
Mof_H 	H 	0.5849	0.1735	0.2527	0.089
Mof_H 	H 	0.5354	0.6606	0.5718	0.057
Mof_H 	H 	0.436	0.6743	0.5972	0.041
Mof_H 	H 	0.4753	0.6516	0.7656	0.044
Mof_H 	H 	0.5742	0.6433	0.7416	0.058
Mof_H 	H 	0.079	0.4593	0.6552	0.064
Mof_H 	H 	0.1047	0.5574	0.6675	0.032
Mof_H 	H 	0.2677	0.5088	0.702	0.037
Mof_H 	H 	0.2473	0.4151	0.6735	0.089
Mof_H 	H 	0.4646	0.1606	0.9282	0.057
Mof_H 	H 	0.564	0.1743	0.9028	0.041
Mof_H 	H 	0.5247	0.1516	0.7344	0.044
Mof_H 	H 	0.4258	0.1433	0.7584	0.058
Mof_H 	H 	0.921	0.9593	0.8448	0.064
Mof_H 	H 	0.8953	0.0574	0.8325	0.032
Mof_H 	H 	0.7323	0.0088	0.798	0.037
Mof_H 	H 	0.7527	0.9151	0.8265	0.089
Mof_H 	H 	0.0354	0.8394	0.4282	0.057
Mof_H 	H 	0.936	0.8257	0.4028	0.041
Mof_H 	H 	0.9753	0.8484	0.2344	0.044
Mof_H 	H 	0.0742	0.8567	0.2584	0.058
Mof_H 	H 	0.579	0.0407	0.3448	0.064
Mof_H 	H 	0.6047	0.9426	0.3325	0.032
Mof_H 	H 	0.7677	0.9912	0.298	0.037
Mof_H 	H 	0.7473	0.0849	0.3265	0.089
Mof_H 	H 	0.9646	0.3394	0.0718	0.057
Mof_H 	H 	0.064	0.3257	0.0972	0.041
Mof_H 	H 	0.0247	0.3484	0.2656	0.044
Mof_H 	H 	0.9258	0.3567	0.2416	0.058
Mof_H 	H 	0.421	0.5407	0.1552	0.064
Mof_H 	H 	0.3953	0.4426	0.1675	0.032
Mof_H 	H 	0.2323	0.4912	0.202	0.037
Mof_H 	H 	0.2527	0.5849	0.1735	0.089
Mof_H 	H 	0.7262	0.2738	0.7738	0.235
Mof_H 	H 	0.7738	0.7262	0.2738	0.235
Mof_H 	H 	0.2738	0.7738	0.7262	0.235
Mof_H 	H 	0.2262	0.2262	0.2262	0.235
Mof_C 	C 	0.6548	0.5638	0.6514	-0.011
Mof_C 	C 	0.6116	0.5236	0.6599	-0.069
Mof_C 	C 	0.627	0.464	0.6678	0.016
Mof_C 	C 	0.683	0.4464	0.6662	-0.093
Mof_C 	C 	0.726	0.4873	0.6551	0.017
Mof_C 	C 	0.7116	0.5462	0.6491	-0.068
Mof_C 	C 	0.6977	0.3828	0.6759	0.362
Mof_C 	C 	0.6625	0.1621	0.428	0.019
Mof_C 	C 	0.6622	0.1184	0.47	-0.097
Mof_C 	C 	0.6723	0.1334	0.5278	0.042
Mof_C 	C 	0.6891	0.1881	0.5427	-0.115
Mof_C 	C 	0.6902	0.2291	0.4993	0.049
Mof_C 	C 	0.6751	0.217	0.4433	-0.102
Mof_C 	C 	0.7077	0.2039	0.6035	0.376
Mof_C 	C 	0.8452	0.4362	0.1514	-0.011
Mof_C 	C 	0.8884	0.4764	0.1599	-0.069
Mof_C 	C 	0.873	0.536	0.1678	0.016
Mof_C 	C 	0.817	0.5536	0.1662	-0.093
Mof_C 	C 	0.774	0.5127	0.1551	0.017
Mof_C 	C 	0.7884	0.4538	0.1491	-0.068
Mof_C 	C 	0.8023	0.6172	0.1759	0.362
Mof_C 	C 	0.8375	0.8379	0.928	0.019
Mof_C 	C 	0.8378	0.8816	0.97	-0.097
Mof_C 	C 	0.8277	0.8666	0.0278	0.042
Mof_C 	C 	0.8109	0.8119	0.0427	-0.115
Mof_C 	C 	0.8098	0.7709	0.9993	0.049
Mof_C 	C 	0.8249	0.783	0.9433	-0.102
Mof_C 	C 	0.7923	0.7961	0.1035	0.376
Mof_C 	C 	0.3452	0.0638	0.8486	-0.011
Mof_C 	C 	0.3884	0.0236	0.8401	-0.069
Mof_C 	C 	0.373	0.964	0.8322	0.016
Mof_C 	C 	0.317	0.9464	0.8338	-0.093
Mof_C 	C 	0.274	0.9873	0.8449	0.017
Mof_C 	C 	0.2884	0.0462	0.8509	-0.068
Mof_C 	C 	0.3023	0.8828	0.8241	0.362
Mof_C 	C 	0.3375	0.6621	0.072	0.019
Mof_C 	C 	0.3378	0.6184	0.03	-0.097
Mof_C 	C 	0.3277	0.6334	0.9722	0.042
Mof_C 	C 	0.3109	0.6881	0.9573	-0.115
Mof_C 	C 	0.3098	0.7291	0.0007	0.049
Mof_C 	C 	0.3249	0.717	0.0567	-0.102
Mof_C 	C 	0.2923	0.7039	0.8965	0.376
Mof_C 	C 	0.1548	0.9362	0.3486	-0.011
Mof_C 	C 	0.1116	0.9764	0.3401	-0.069
Mof_C 	C 	0.127	0.036	0.3322	0.016
Mof_C 	C 	0.183	0.0536	0.3338	-0.093
Mof_C 	C 	0.226	0.0127	0.3449	0.017
Mof_C 	C 	0.2116	0.9538	0.3509	-0.068
Mof_C 	C 	0.1977	0.1172	0.3241	0.362
Mof_C 	C 	0.1625	0.3379	0.572	0.019
Mof_C 	C 	0.1622	0.3816	0.53	-0.097
Mof_C 	C 	0.1723	0.3666	0.4722	0.042
Mof_C 	C 	0.1891	0.3119	0.4573	-0.115
Mof_C 	C 	0.1902	0.2709	0.5007	0.049
Mof_C 	C 	0.1751	0.283	0.5567	-0.102
Mof_C 	C 	0.2077	0.2961	0.3965	0.376
Mof_C 	C 	0.6514	0.6548	0.5638	-0.011
Mof_C 	C 	0.6599	0.6116	0.5236	-0.069
Mof_C 	C 	0.6678	0.627	0.464	0.016
Mof_C 	C 	0.6662	0.683	0.4464	-0.093
Mof_C 	C 	0.6551	0.726	0.4873	0.017
Mof_C 	C 	0.6491	0.7116	0.5462	-0.068
Mof_C 	C 	0.6759	0.6977	0.3828	0.362
Mof_C 	C 	0.428	0.6625	0.1621	0.019
Mof_C 	C 	0.47	0.6622	0.1184	-0.097
Mof_C 	C 	0.5278	0.6723	0.1334	0.042
Mof_C 	C 	0.5427	0.6891	0.1881	-0.115
Mof_C 	C 	0.4993	0.6902	0.2291	0.049
Mof_C 	C 	0.4433	0.6751	0.217	-0.102
Mof_C 	C 	0.6035	0.7077	0.2039	0.376
Mof_C 	C 	0.1514	0.8452	0.4362	-0.011
Mof_C 	C 	0.1599	0.8884	0.4764	-0.069
Mof_C 	C 	0.1678	0.873	0.536	0.016
Mof_C 	C 	0.1662	0.817	0.5536	-0.093
Mof_C 	C 	0.1551	0.774	0.5127	0.017
Mof_C 	C 	0.1491	0.7884	0.4538	-0.068
Mof_C 	C 	0.1759	0.8023	0.6172	0.362
Mof_C 	C 	0.928	0.8375	0.8379	0.019
Mof_C 	C 	0.97	0.8378	0.8816	-0.097
Mof_C 	C 	0.0278	0.8277	0.8666	0.042
Mof_C 	C 	0.0427	0.8109	0.8119	-0.115
Mof_C 	C 	0.9993	0.8098	0.7709	0.049
Mof_C 	C 	0.9433	0.8249	0.783	-0.102
Mof_C 	C 	0.1035	0.7923	0.7961	0.376
Mof_C 	C 	0.8486	0.3452	0.0638	-0.011
Mof_C 	C 	0.8401	0.3884	0.0236	-0.069
Mof_C 	C 	0.8322	0.373	0.964	0.016
Mof_C 	C 	0.8338	0.317	0.9464	-0.093
Mof_C 	C 	0.8449	0.274	0.9873	0.017
Mof_C 	C 	0.8509	0.2884	0.0462	-0.068
Mof_C 	C 	0.8241	0.3023	0.8828	0.362
Mof_C 	C 	0.072	0.3375	0.6621	0.019
Mof_C 	C 	0.03	0.3378	0.6184	-0.097
Mof_C 	C 	0.9722	0.3277	0.6334	0.042
Mof_C 	C 	0.9573	0.3109	0.6881	-0.115
Mof_C 	C 	0.0007	0.3098	0.7291	0.049
Mof_C 	C 	0.0567	0.3249	0.717	-0.102
Mof_C 	C 	0.8965	0.2923	0.7039	0.376
Mof_C 	C 	0.3486	0.1548	0.9362	-0.011
Mof_C 	C 	0.3401	0.1116	0.9764	-0.069
Mof_C 	C 	0.3322	0.127	0.036	0.016
Mof_C 	C 	0.3338	0.183	0.0536	-0.093
Mof_C 	C 	0.3449	0.226	0.0127	0.017
Mof_C 	C 	0.3509	0.2116	0.9538	-0.068
Mof_C 	C 	0.3241	0.1977	0.1172	0.362
Mof_C 	C 	0.572	0.1625	0.3379	0.019
Mof_C 	C 	0.53	0.1622	0.3816	-0.097
Mof_C 	C 	0.4722	0.1723	0.3666	0.042
Mof_C 	C 	0.4573	0.1891	0.3119	-0.115
Mof_C 	C 	0.5007	0.1902	0.2709	0.049
Mof_C 	C 	0.5567	0.1751	0.283	-0.102
Mof_C 	C 	0.3965	0.2077	0.2961	0.376
Mof_C 	C 	0.5638	0.6514	0.6548	-0.011
Mof_C 	C 	0.5236	0.6599	0.6116	-0.069
Mof_C 	C 	0.464	0.6678	0.627	0.016
Mof_C 	C 	0.4464	0.6662	0.683	-0.093
Mof_C 	C 	0.4873	0.6551	0.726	0.017
Mof_C 	C 	0.5462	0.6491	0.7116	-0.068
Mof_C 	C 	0.3828	0.6759	0.6977	0.362
Mof_C 	C 	0.1621	0.428	0.6625	0.019
Mof_C 	C 	0.1184	0.47	0.6622	-0.097
Mof_C 	C 	0.1334	0.5278	0.6723	0.042
Mof_C 	C 	0.1881	0.5427	0.6891	-0.115
Mof_C 	C 	0.2291	0.4993	0.6902	0.049
Mof_C 	C 	0.217	0.4433	0.6751	-0.102
Mof_C 	C 	0.2039	0.6035	0.7077	0.376
Mof_C 	C 	0.4362	0.1514	0.8452	-0.011
Mof_C 	C 	0.4764	0.1599	0.8884	-0.069
Mof_C 	C 	0.536	0.1678	0.873	0.016
Mof_C 	C 	0.5536	0.1662	0.817	-0.093
Mof_C 	C 	0.5127	0.1551	0.774	0.017
Mof_C 	C 	0.4538	0.1491	0.7884	-0.068
Mof_C 	C 	0.6172	0.1759	0.8023	0.362
Mof_C 	C 	0.8379	0.928	0.8375	0.019
Mof_C 	C 	0.8816	0.97	0.8378	-0.097
Mof_C 	C 	0.8666	0.0278	0.8277	0.042
Mof_C 	C 	0.8119	0.0427	0.8109	-0.115
Mof_C 	C 	0.7709	0.9993	0.8098	0.049
Mof_C 	C 	0.783	0.9433	0.8249	-0.102
Mof_C 	C 	0.7961	0.1035	0.7923	0.376
Mof_C 	C 	0.0638	0.8486	0.3452	-0.011
Mof_C 	C 	0.0236	0.8401	0.3884	-0.069
Mof_C 	C 	0.964	0.8322	0.373	0.016
Mof_C 	C 	0.9464	0.8338	0.317	-0.093
Mof_C 	C 	0.9873	0.8449	0.274	0.017
Mof_C 	C 	0.0462	0.8509	0.2884	-0.068
Mof_C 	C 	0.8828	0.8241	0.3023	0.362
Mof_C 	C 	0.6621	0.072	0.3375	0.019
Mof_C 	C 	0.6184	0.03	0.3378	-0.097
Mof_C 	C 	0.6334	0.9722	0.3277	0.042
Mof_C 	C 	0.6881	0.9573	0.3109	-0.115
Mof_C 	C 	0.7291	0.0007	0.3098	0.049
Mof_C 	C 	0.717	0.0567	0.3249	-0.102
Mof_C 	C 	0.7039	0.8965	0.2923	0.376
Mof_C 	C 	0.9362	0.3486	0.1548	-0.011
Mof_C 	C 	0.9764	0.3401	0.1116	-0.069
Mof_C 	C 	0.036	0.3322	0.127	0.016
Mof_C 	C 	0.0536	0.3338	0.183	-0.093
Mof_C 	C 	0.0127	0.3449	0.226	0.017
Mof_C 	C 	0.9538	0.3509	0.2116	-0.068
Mof_C 	C 	0.1172	0.3241	0.1977	0.362
Mof_C 	C 	0.3379	0.572	0.1625	0.019
Mof_C 	C 	0.3816	0.53	0.1622	-0.097
Mof_C 	C 	0.3666	0.4722	0.1723	0.042
Mof_C 	C 	0.3119	0.4573	0.1891	-0.115
Mof_C 	C 	0.2709	0.5007	0.1902	0.049
Mof_C 	C 	0.283	0.5567	0.1751	-0.102
Mof_C 	C 	0.2961	0.3965	0.2077	0.376
Mof_O 	O 	0.7519	0.3696	0.6741	-0.444
Mof_O 	O 	0.6602	0.3466	0.6789	-0.318
Mof_O 	O 	0.7344	0.2529	0.6089	-0.473
Mof_O 	O 	0.6979	0.1659	0.6431	-0.47
Mof_O 	O 	0.7481	0.6304	0.1741	-0.444
Mof_O 	O 	0.8398	0.6534	0.1789	-0.318
Mof_O 	O 	0.7656	0.7471	0.1089	-0.473
Mof_O 	O 	0.8021	0.8341	0.1431	-0.47
Mof_O 	O 	0.2481	0.8696	0.8259	-0.444
Mof_O 	O 	0.3398	0.8466	0.8211	-0.318
Mof_O 	O 	0.2656	0.7529	0.8911	-0.473
Mof_O 	O 	0.3021	0.6659	0.8569	-0.47
Mof_O 	O 	0.2519	0.1304	0.3259	-0.444
Mof_O 	O 	0.1602	0.1534	0.3211	-0.318
Mof_O 	O 	0.2344	0.2471	0.3911	-0.473
Mof_O 	O 	0.1979	0.3341	0.3569	-0.47
Mof_O 	O 	0.6741	0.7519	0.3696	-0.444
Mof_O 	O 	0.6789	0.6602	0.3466	-0.318
Mof_O 	O 	0.6089	0.7344	0.2529	-0.473
Mof_O 	O 	0.6431	0.6979	0.1659	-0.47
Mof_O 	O 	0.1741	0.7481	0.6304	-0.444
Mof_O 	O 	0.1789	0.8398	0.6534	-0.318
Mof_O 	O 	0.1089	0.7656	0.7471	-0.473
Mof_O 	O 	0.1431	0.8021	0.8341	-0.47
Mof_O 	O 	0.8259	0.2481	0.8696	-0.444
Mof_O 	O 	0.8211	0.3398	0.8466	-0.318
Mof_O 	O 	0.8911	0.2656	0.7529	-0.473
Mof_O 	O 	0.8569	0.3021	0.6659	-0.47
Mof_O 	O 	0.3259	0.2519	0.1304	-0.444
Mof_O 	O 	0.3211	0.1602	0.1534	-0.318
Mof_O 	O 	0.3911	0.2344	0.2471	-0.473
Mof_O 	O 	0.3569	0.1979	0.3341	-0.47
Mof_O 	O 	0.3696	0.6741	0.7519	-0.444
Mof_O 	O 	0.3466	0.6789	0.6602	-0.318
Mof_O 	O 	0.2529	0.6089	0.7344	-0.473
Mof_O 	O 	0.1659	0.6431	0.6979	-0.47
Mof_O 	O 	0.6304	0.1741	0.7481	-0.444
Mof_O 	O 	0.6534	0.1789	0.8398	-0.318
Mof_O 	O 	0.7471	0.1089	0.7656	-0.473
Mof_O 	O 	0.8341	0.1431	0.8021	-0.47
Mof_O 	O 	0.8696	0.8259	0.2481	-0.444
Mof_O 	O 	0.8466	0.8211	0.3398	-0.318
Mof_O 	O 	0.7529	0.8911	0.2656	-0.473
Mof_O 	O 	0.6659	0.8569	0.3021	-0.47
Mof_O 	O 	0.1304	0.3259	0.2519	-0.444
Mof_O 	O 	0.1534	0.3211	0.1602	-0.318
Mof_O 	O 	0.2471	0.3911	0.2344	-0.473
Mof_O 	O 	0.3341	0.3569	0.1979	-0.47
Mof_O 	O 	0.6781	0.6781	0.6781	-0.376
Mof_O 	O 	0.8219	0.3219	0.1781	-0.376
Mof_O 	O 	0.3219	0.1781	0.8219	-0.376
Mof_O 	O 	0.1781	0.8219	0.3219	-0.376
Mof_O 	O 	0.6866	0.1866	0.3134	-0.257
Mof_O 	O 	0.8134	0.8134	0.8134	-0.257
Mof_O 	O 	0.3134	0.6866	0.1866	-0.257
Mof_O 	O 	0.1866	0.3134	0.6866	-0.257
Mof_O 	O 	0.7514	0.2486	0.7486	-0.821
Mof_O 	O 	0.7486	0.7514	0.2486	-0.821
Mof_O 	O 	0.2486	0.7486	0.7514	-0.821
Mof_O 	O 	0.2514	0.2514	0.2514	-0.821
Mof_Zn	Zn	0.22626	0.7118	0.325	1.23
Mof_Zn	Zn	0.27374	0.2882	0.825	1.23
Mof_Zn	Zn	0.77374	0.2118	0.175	1.23
Mof_Zn	Zn	0.72626	0.7882	0.675	1.23
Mof_Zn	Zn	0.325	0.22626	0.7118	1.23
Mof_Zn	Zn	0.825	0.27374	0.2882	1.23
Mof_Zn	Zn	0.175	0.77374	0.2118	1.23
Mof_Zn	Zn	0.675	0.72626	0.7882	1.23
Mof_Zn	Zn	0.7118	0.325	0.22626	1.23
Mof_Zn	Zn	0.2882	0.825	0.27374	1.23
Mof_Zn	Zn	0.2118	0.175	0.77374	1.23
Mof_Zn	Zn	0.7882	0.675	0.72626	1.23
Mof_P 	P 	0.35951	0.35951	0.35951	0.212
Mof_P 	P 	0.14049	0.64049	0.85951	0.212
Mof_P 	P 	0.64049	0.85951	0.14049	0.212
Mof_P 	P 	0.85951	0.14049	0.64049	0.212
Mof_P 	P 	0.35183	0.85183	0.64817	0.183
Mof_P 	P 	0.14817	0.14817	0.14817	0.183
Mof_P 	P 	0.64817	0.35183	0.85183	0.183
Mof_P 	P 	0.85183	0.64817	0.35183	0.183
Mof_H 	H 	0.4282	0.4646	0.3394	0.057
Mof_H 	H 	0.4028	0.564	0.3257	0.041
Mof_H 	H 	0.2344	0.5247	0.3484	0.044
Mof_H 	H 	0.2584	0.4258	0.3567	0.058
Mof_H 	H 	0.3448	0.921	0.5407	0.064
Mof_H 	H 	0.3325	0.8953	0.4426	0.032
Mof_H 	H 	0.298	0.7323	0.4912	0.037
Mof_H 	H 	0.3265	0.7527	0.5849	0.089
Mof_H 	H 	0.0718	0.5354	0.8394	0.057
Mof_H 	H 	0.0972	0.436	0.8257	0.041
Mof_H 	H 	0.2656	0.4753	0.8484	0.044
Mof_H 	H 	0.2416	0.5742	0.8567	0.058
Mof_H 	H 	0.1552	0.079	0.0407	0.064
Mof_H 	H 	0.1675	0.1047	0.9426	0.032
Mof_H 	H 	0.202	0.2677	0.9912	0.037
Mof_H 	H 	0.1735	0.2473	0.0849	0.089
Mof_H 	H 	0.5718	0.9646	0.1606	0.057
Mof_H 	H 	0.5972	0.064	0.1743	0.041
Mof_H 	H 	0.7656	0.0247	0.1516	0.044
Mof_H 	H 	0.7416	0.9258	0.1433	0.058
Mof_H 	H 	0.6552	0.421	0.9593	0.064
Mof_H 	H 	0.6675	0.3953	0.0574	0.032
Mof_H 	H 	0.702	0.2323	0.0088	0.037
Mof_H 	H 	0.6735	0.2527	0.9151	0.089
Mof_H 	H 	0.9282	0.0354	0.6606	0.057
Mof_H 	H 	0.9028	0.936	0.6743	0.041
Mof_H 	H 	0.7344	0.9753	0.6516	0.044
Mof_H 	H 	0.7584	0.0742	0.6433	0.058
Mof_H 	H 	0.8448	0.579	0.4593	0.064
Mof_H 	H 	0.8325	0.6047	0.5574	0.032
Mof_H 	H 	0.798	0.7677	0.5088	0.037
Mof_H 	H 	0.8265	0.7473	0.4151	0.089
Mof_H 	H 	0.3394	0.4282	0.4646	0.057
Mof_H 	H 	0.3257	0.4028	0.564	0.041
Mof_H 	H 	0.3484	0.2344	0.5247	0.044
Mof_H 	H 	0.3567	0.2584	0.4258	0.058
Mof_H 	H 	0.5407	0.3448	0.921	0.064
Mof_H 	H 	0.4426	0.3325	0.8953	0.032
Mof_H 	H 	0.4912	0.298	0.7323	0.037
Mof_H 	H 	0.5849	0.3265	0.7527	0.089
Mof_H 	H 	0.8394	0.0718	0.5354	0.057
Mof_H 	H 	0.8257	0.0972	0.436	0.041
Mof_H 	H 	0.8484	0.2656	0.4753	0.044
Mof_H 	H 	0.8567	0.2416	0.5742	0.058
Mof_H 	H 	0.0407	0.1552	0.079	0.064
Mof_H 	H 	0.9426	0.1675	0.1047	0.032
Mof_H 	H 	0.9912	0.202	0.2677	0.037
Mof_H 	H 	0.0849	0.1735	0.2473	0.089
Mof_H 	H 	0.1606	0.5718	0.9646	0.057
Mof_H 	H 	0.1743	0.5972	0.064	0.041
Mof_H 	H 	0.1516	0.7656	0.0247	0.044
Mof_H 	H 	0.1433	0.7416	0.9258	0.058
Mof_H 	H 	0.9593	0.6552	0.421	0.064
Mof_H 	H 	0.0574	0.6675	0.3953	0.032
Mof_H 	H 	0.0088	0.702	0.2323	0.037
Mof_H 	H 	0.9151	0.6735	0.2527	0.089
Mof_H 	H 	0.6606	0.9282	0.0354	0.057
Mof_H 	H 	0.6743	0.9028	0.936	0.041
Mof_H 	H 	0.6516	0.7344	0.9753	0.044
Mof_H 	H 	0.6433	0.7584	0.0742	0.058
Mof_H 	H 	0.4593	0.8448	0.579	0.064
Mof_H 	H 	0.5574	0.8325	0.6047	0.032
Mof_H 	H 	0.5088	0.798	0.7677	0.037
Mof_H 	H 	0.4151	0.8265	0.7473	0.089
Mof_H 	H 	0.4646	0.3394	0.4282	0.057
Mof_H 	H 	0.564	0.3257	0.4028	0.041
Mof_H 	H 	0.5247	0.3484	0.2344	0.044
Mof_H 	H 	0.4258	0.3567	0.2584	0.058
Mof_H 	H 	0.921	0.5407	0.3448	0.064
Mof_H 	H 	0.8953	0.4426	0.3325	0.032
Mof_H 	H 	0.7323	0.4912	0.298	0.037
Mof_H 	H 	0.7527	0.5849	0.3265	0.089
Mof_H 	H 	0.5354	0.8394	0.0718	0.057
Mof_H 	H 	0.436	0.8257	0.0972	0.041
Mof_H 	H 	0.4753	0.8484	0.2656	0.044
Mof_H 	H 	0.5742	0.8567	0.2416	0.058
Mof_H 	H 	0.079	0.0407	0.1552	0.064
Mof_H 	H 	0.1047	0.9426	0.1675	0.032
Mof_H 	H 	0.2677	0.9912	0.202	0.037
Mof_H 	H 	0.2473	0.0849	0.1735	0.089
Mof_H 	H 	0.9646	0.1606	0.5718	0.057
Mof_H 	H 	0.064	0.1743	0.5972	0.041
Mof_H 	H 	0.0247	0.1516	0.7656	0.044
Mof_H 	H 	0.9258	0.1433	0.7416	0.058
Mof_H 	H 	0.421	0.9593	0.6552	0.064
Mof_H 	H 	0.3953	0.0574	0.6675	0.032
Mof_H 	H 	0.2323	0.0088	0.702	0.037
Mof_H 	H 	0.2527	0.9151	0.6735	0.089
Mof_H 	H 	0.0354	0.6606	0.9282	0.057
Mof_H 	H 	0.936	0.6743	0.9028	0.041
Mof_H 	H 	0.9753	0.6516	0.7344	0.044
Mof_H 	H 	0.0742	0.6433	0.7584	0.058
Mof_H 	H 	0.579	0.4593	0.8448	0.064
Mof_H 	H 	0.6047	0.5574	0.8325	0.032
Mof_H 	H 	0.7677	0.5088	0.798	0.037
Mof_H 	H 	0.7473	0.4151	0.8265	0.089
Mof_H 	H 	0.2738	0.7262	0.2262	0.235
Mof_H 	H 	0.2262	0.2738	0.7262	0.235
Mof_H 	H 	0.7262	0.2262	0.2738	0.235
Mof_H 	H 	0.7738	0.7738	0.7738	0.235
Mof_C 	C 	0.3452	0.4362	0.3486	-0.011
Mof_C 	C 	0.3884	0.4764	0.3401	-0.069
Mof_C 	C 	0.373	0.536	0.3322	0.016
Mof_C 	C 	0.317	0.5536	0.3338	-0.093
Mof_C 	C 	0.274	0.5127	0.3449	0.017
Mof_C 	C 	0.2884	0.4538	0.3509	-0.068
Mof_C 	C 	0.3023	0.6172	0.3241	0.362
Mof_C 	C 	0.3375	0.8379	0.572	0.019
Mof_C 	C 	0.3378	0.8816	0.53	-0.097
Mof_C 	C 	0.3277	0.8666	0.4722	0.042
Mof_C 	C 	0.3109	0.8119	0.4573	-0.115
Mof_C 	C 	0.3098	0.7709	0.5007	0.049
Mof_C 	C 	0.3249	0.783	0.5567	-0.102
Mof_C 	C 	0.2923	0.7961	0.3965	0.376
Mof_C 	C 	0.1548	0.5638	0.8486	-0.011
Mof_C 	C 	0.1116	0.5236	0.8401	-0.069
Mof_C 	C 	0.127	0.464	0.8322	0.016
Mof_C 	C 	0.183	0.4464	0.8338	-0.093
Mof_C 	C 	0.226	0.4873	0.8449	0.017
Mof_C 	C 	0.2116	0.5462	0.8509	-0.068
Mof_C 	C 	0.1977	0.3828	0.8241	0.362
Mof_C 	C 	0.1625	0.1621	0.072	0.019
Mof_C 	C 	0.1622	0.1184	0.03	-0.097
Mof_C 	C 	0.1723	0.1334	0.9722	0.042
Mof_C 	C 	0.1891	0.1881	0.9573	-0.115
Mof_C 	C 	0.1902	0.2291	0.0007	0.049
Mof_C 	C 	0.1751	0.217	0.0567	-0.102
Mof_C 	C 	0.2077	0.2039	0.8965	0.376
Mof_C 	C 	0.6548	0.9362	0.1514	-0.011
Mof_C 	C 	0.6116	0.9764	0.1599	-0.069
Mof_C 	C 	0.627	0.036	0.1678	0.016
Mof_C 	C 	0.683	0.0536	0.1662	-0.093
Mof_C 	C 	0.726	0.0127	0.1551	0.017
Mof_C 	C 	0.7116	0.9538	0.1491	-0.068
Mof_C 	C 	0.6977	0.1172	0.1759	0.362
Mof_C 	C 	0.6625	0.3379	0.928	0.019
Mof_C 	C 	0.6622	0.3816	0.97	-0.097
Mof_C 	C 	0.6723	0.3666	0.0278	0.042
Mof_C 	C 	0.6891	0.3119	0.0427	-0.115
Mof_C 	C 	0.6902	0.2709	0.9993	0.049
Mof_C 	C 	0.6751	0.283	0.9433	-0.102
Mof_C 	C 	0.7077	0.2961	0.1035	0.376
Mof_C 	C 	0.8452	0.0638	0.6514	-0.011
Mof_C 	C 	0.8884	0.0236	0.6599	-0.069
Mof_C 	C 	0.873	0.964	0.6678	0.016
Mof_C 	C 	0.817	0.9464	0.6662	-0.093
Mof_C 	C 	0.774	0.9873	0.6551	0.017
Mof_C 	C 	0.7884	0.0462	0.6491	-0.068
Mof_C 	C 	0.8023	0.8828	0.6759	0.362
Mof_C 	C 	0.8375	0.6621	0.428	0.019
Mof_C 	C 	0.8378	0.6184	0.47	-0.097
Mof_C 	C 	0.8277	0.6334	0.5278	0.042
Mof_C 	C 	0.8109	0.6881	0.5427	-0.115
Mof_C 	C 	0.8098	0.7291	0.4993	0.049
Mof_C 	C 	0.8249	0.717	0.4433	-0.102
Mof_C 	C 	0.7923	0.7039	0.6035	0.376
Mof_C 	C 	0.3486	0.3452	0.4362	-0.011
Mof_C 	C 	0.3401	0.3884	0.4764	-0.069
Mof_C 	C 	0.3322	0.373	0.536	0.016
Mof_C 	C 	0.3338	0.317	0.5536	-0.093
Mof_C 	C 	0.3449	0.274	0.5127	0.017
Mof_C 	C 	0.3509	0.2884	0.4538	-0.068
Mof_C 	C 	0.3241	0.3023	0.6172	0.362
Mof_C 	C 	0.572	0.3375	0.8379	0.019
Mof_C 	C 	0.53	0.3378	0.8816	-0.097
Mof_C 	C 	0.4722	0.3277	0.8666	0.042
Mof_C 	C 	0.4573	0.3109	0.8119	-0.115
Mof_C 	C 	0.5007	0.3098	0.7709	0.049
Mof_C 	C 	0.5567	0.3249	0.783	-0.102
Mof_C 	C 	0.3965	0.2923	0.7961	0.376
Mof_C 	C 	0.8486	0.1548	0.5638	-0.011
Mof_C 	C 	0.8401	0.1116	0.5236	-0.069
Mof_C 	C 	0.8322	0.127	0.464	0.016
Mof_C 	C 	0.8338	0.183	0.4464	-0.093
Mof_C 	C 	0.8449	0.226	0.4873	0.017
Mof_C 	C 	0.8509	0.2116	0.5462	-0.068
Mof_C 	C 	0.8241	0.1977	0.3828	0.362
Mof_C 	C 	0.072	0.1625	0.1621	0.019
Mof_C 	C 	0.03	0.1622	0.1184	-0.097
Mof_C 	C 	0.9722	0.1723	0.1334	0.042
Mof_C 	C 	0.9573	0.1891	0.1881	-0.115
Mof_C 	C 	0.0007	0.1902	0.2291	0.049
Mof_C 	C 	0.0567	0.1751	0.217	-0.102
Mof_C 	C 	0.8965	0.2077	0.2039	0.376
Mof_C 	C 	0.1514	0.6548	0.9362	-0.011
Mof_C 	C 	0.1599	0.6116	0.9764	-0.069
Mof_C 	C 	0.1678	0.627	0.036	0.016
Mof_C 	C 	0.1662	0.683	0.0536	-0.093
Mof_C 	C 	0.1551	0.726	0.0127	0.017
Mof_C 	C 	0.1491	0.7116	0.9538	-0.068
Mof_C 	C 	0.1759	0.6977	0.1172	0.362
Mof_C 	C 	0.928	0.6625	0.3379	0.019
Mof_C 	C 	0.97	0.6622	0.3816	-0.097
Mof_C 	C 	0.0278	0.6723	0.3666	0.042
Mof_C 	C 	0.0427	0.6891	0.3119	-0.115
Mof_C 	C 	0.9993	0.6902	0.2709	0.049
Mof_C 	C 	0.9433	0.6751	0.283	-0.102
Mof_C 	C 	0.1035	0.7077	0.2961	0.376
Mof_C 	C 	0.6514	0.8452	0.0638	-0.011
Mof_C 	C 	0.6599	0.8884	0.0236	-0.069
Mof_C 	C 	0.6678	0.873	0.964	0.016
Mof_C 	C 	0.6662	0.817	0.9464	-0.093
Mof_C 	C 	0.6551	0.774	0.9873	0.017
Mof_C 	C 	0.6491	0.7884	0.0462	-0.068
Mof_C 	C 	0.6759	0.8023	0.8828	0.362
Mof_C 	C 	0.428	0.8375	0.6621	0.019
Mof_C 	C 	0.47	0.8378	0.6184	-0.097
Mof_C 	C 	0.5278	0.8277	0.6334	0.042
Mof_C 	C 	0.5427	0.8109	0.6881	-0.115
Mof_C 	C 	0.4993	0.8098	0.7291	0.049
Mof_C 	C 	0.4433	0.8249	0.717	-0.102
Mof_C 	C 	0.6035	0.7923	0.7039	0.376
Mof_C 	C 	0.4362	0.3486	0.3452	-0.011
Mof_C 	C 	0.4764	0.3401	0.3884	-0.069
Mof_C 	C 	0.536	0.3322	0.373	0.016
Mof_C 	C 	0.5536	0.3338	0.317	-0.093
Mof_C 	C 	0.5127	0.3449	0.274	0.017
Mof_C 	C 	0.4538	0.3509	0.2884	-0.068
Mof_C 	C 	0.6172	0.3241	0.3023	0.362
Mof_C 	C 	0.8379	0.572	0.3375	0.019
Mof_C 	C 	0.8816	0.53	0.3378	-0.097
Mof_C 	C 	0.8666	0.4722	0.3277	0.042
Mof_C 	C 	0.8119	0.4573	0.3109	-0.115
Mof_C 	C 	0.7709	0.5007	0.3098	0.049
Mof_C 	C 	0.783	0.5567	0.3249	-0.102
Mof_C 	C 	0.7961	0.3965	0.2923	0.376
Mof_C 	C 	0.5638	0.8486	0.1548	-0.011
Mof_C 	C 	0.5236	0.8401	0.1116	-0.069
Mof_C 	C 	0.464	0.8322	0.127	0.016
Mof_C 	C 	0.4464	0.8338	0.183	-0.093
Mof_C 	C 	0.4873	0.8449	0.226	0.017
Mof_C 	C 	0.5462	0.8509	0.2116	-0.068
Mof_C 	C 	0.3828	0.8241	0.1977	0.362
Mof_C 	C 	0.1621	0.072	0.1625	0.019
Mof_C 	C 	0.1184	0.03	0.1622	-0.097
Mof_C 	C 	0.1334	0.9722	0.1723	0.042
Mof_C 	C 	0.1881	0.9573	0.1891	-0.115
Mof_C 	C 	0.2291	0.0007	0.1902	0.049
Mof_C 	C 	0.217	0.0567	0.1751	-0.102
Mof_C 	C 	0.2039	0.8965	0.2077	0.376
Mof_C 	C 	0.9362	0.1514	0.6548	-0.011
Mof_C 	C 	0.9764	0.1599	0.6116	-0.069
Mof_C 	C 	0.036	0.1678	0.627	0.016
Mof_C 	C 	0.0536	0.1662	0.683	-0.093
Mof_C 	C 	0.0127	0.1551	0.726	0.017
Mof_C 	C 	0.9538	0.1491	0.7116	-0.068
Mof_C 	C 	0.1172	0.1759	0.6977	0.362
Mof_C 	C 	0.3379	0.928	0.6625	0.019
Mof_C 	C 	0.3816	0.97	0.6622	-0.097
Mof_C 	C 	0.3666	0.0278	0.6723	0.042
Mof_C 	C 	0.3119	0.0427	0.6891	-0.115
Mof_C 	C 	0.2709	0.9993	0.6902	0.049
Mof_C 	C 	0.283	0.9433	0.6751	-0.102
Mof_C 	C 	0.2961	0.1035	0.7077	0.376
Mof_C 	C 	0.0638	0.6514	0.8452	-0.011
Mof_C 	C 	0.0236	0.6599	0.8884	-0.069
Mof_C 	C 	0.964	0.6678	0.873	0.016
Mof_C 	C 	0.9464	0.6662	0.817	-0.093
Mof_C 	C 	0.9873	0.6551	0.774	0.017
Mof_C 	C 	0.0462	0.6491	0.7884	-0.068
Mof_C 	C 	0.8828	0.6759	0.8023	0.362
Mof_C 	C 	0.6621	0.428	0.8375	0.019
Mof_C 	C 	0.6184	0.47	0.8378	-0.097
Mof_C 	C 	0.6334	0.5278	0.8277	0.042
Mof_C 	C 	0.6881	0.5427	0.8109	-0.115
Mof_C 	C 	0.7291	0.4993	0.8098	0.049
Mof_C 	C 	0.717	0.4433	0.8249	-0.102
Mof_C 	C 	0.7039	0.6035	0.7923	0.376
Mof_O 	O 	0.2481	0.6304	0.3259	-0.444
Mof_O 	O 	0.3398	0.6534	0.3211	-0.318
Mof_O 	O 	0.2656	0.7471	0.3911	-0.473
Mof_O 	O 	0.3021	0.8341	0.3569	-0.47
Mof_O 	O 	0.2519	0.3696	0.8259	-0.444
Mof_O 	O 	0.1602	0.3466	0.8211	-0.318
Mof_O 	O 	0.2344	0.2529	0.8911	-0.473
Mof_O 	O 	0.1979	0.1659	0.8569	-0.47
Mof_O 	O 	0.7519	0.1304	0.1741	-0.444
Mof_O 	O 	0.6602	0.1534	0.1789	-0.318
Mof_O 	O 	0.7344	0.2471	0.1089	-0.473
Mof_O 	O 	0.6979	0.3341	0.1431	-0.47
Mof_O 	O 	0.7481	0.8696	0.6741	-0.444
Mof_O 	O 	0.8398	0.8466	0.6789	-0.318
Mof_O 	O 	0.7656	0.7529	0.6089	-0.473
Mof_O 	O 	0.8021	0.6659	0.6431	-0.47
Mof_O 	O 	0.3259	0.2481	0.6304	-0.444
Mof_O 	O 	0.3211	0.3398	0.6534	-0.318
Mof_O 	O 	0.3911	0.2656	0.7471	-0.473
Mof_O 	O 	0.3569	0.3021	0.8341	-0.47
Mof_O 	O 	0.8259	0.2519	0.3696	-0.444
Mof_O 	O 	0.8211	0.1602	0.3466	-0.318
Mof_O 	O 	0.8911	0.2344	0.2529	-0.473
Mof_O 	O 	0.8569	0.1979	0.1659	-0.47
Mof_O 	O 	0.1741	0.7519	0.1304	-0.444
Mof_O 	O 	0.1789	0.6602	0.1534	-0.318
Mof_O 	O 	0.1089	0.7344	0.2471	-0.473
Mof_O 	O 	0.1431	0.6979	0.3341	-0.47
Mof_O 	O 	0.6741	0.7481	0.8696	-0.444
Mof_O 	O 	0.6789	0.8398	0.8466	-0.318
Mof_O 	O 	0.6089	0.7656	0.7529	-0.473
Mof_O 	O 	0.6431	0.8021	0.6659	-0.47
Mof_O 	O 	0.6304	0.3259	0.2481	-0.444
Mof_O 	O 	0.6534	0.3211	0.3398	-0.318
Mof_O 	O 	0.7471	0.3911	0.2656	-0.473
Mof_O 	O 	0.8341	0.3569	0.3021	-0.47
Mof_O 	O 	0.3696	0.8259	0.2519	-0.444
Mof_O 	O 	0.3466	0.8211	0.1602	-0.318
Mof_O 	O 	0.2529	0.8911	0.2344	-0.473
Mof_O 	O 	0.1659	0.8569	0.1979	-0.47
Mof_O 	O 	0.1304	0.1741	0.7519	-0.444
Mof_O 	O 	0.1534	0.1789	0.6602	-0.318
Mof_O 	O 	0.2471	0.1089	0.7344	-0.473
Mof_O 	O 	0.3341	0.1431	0.6979	-0.47
Mof_O 	O 	0.8696	0.6741	0.7481	-0.444
Mof_O 	O 	0.8466	0.6789	0.8398	-0.318
Mof_O 	O 	0.7529	0.6089	0.7656	-0.473
Mof_O 	O 	0.6659	0.6431	0.8021	-0.47
Mof_O 	O 	0.3219	0.3219	0.3219	-0.376
Mof_O 	O 	0.1781	0.6781	0.8219	-0.376
Mof_O 	O 	0.6781	0.8219	0.1781	-0.376
Mof_O 	O 	0.8219	0.1781	0.6781	-0.376
Mof_O 	O 	0.3134	0.8134	0.6866	-0.257
Mof_O 	O 	0.1866	0.1866	0.1866	-0.257
Mof_O 	O 	0.6866	0.3134	0.8134	-0.257
Mof_O 	O 	0.8134	0.6866	0.3134	-0.257
Mof_O 	O 	0.2486	0.7514	0.2514	-0.821
Mof_O 	O 	0.2514	0.2486	0.7514	-0.821
Mof_O 	O 	0.7514	0.2514	0.2486	-0.821
Mof_O 	O 	0.7486	0.7486	0.7486	-0.821
_end
