data_functionalizedCrystal
_audit_creation_method	'EQeq! by Chris Wilmer'
_symmetry_space_group_name_H-M	'P1'
_symmetry_Int_Tables_number	1
_symmetry_cell_setting	triclinic
loop_
_symmetry_equiv_pos_as_xyz
  x,y,z
_cell_length_a	9.0912
_cell_length_b	9.6445
_cell_length_c	11.5135
_cell_angle_alpha	106.894
_cell_angle_beta	93.993
_cell_angle_gamma	108.215
loop_
_atom_site_label
_atom_site_type_symbol
_atom_site_fract_x
_atom_site_fract_y
_atom_site_fract_z
_atom_site_charge
Mof_Dy	Dy	0.27898	0.52825	0.99142	1.948
Mof_O 	O 	0.1363	0.6815	0.0451	-0.593
Mof_O 	O 	0.1179	0.4863	0.7899	-0.404
Mof_O 	O 	0.4189	0.3887	0.0474	-0.599
Mof_O 	O 	0.9146	0.7265	0.0786	-0.51
Mof_O 	O 	0.5723	0.2585	0.0776	-0.453
Mof_O 	O 	0.3041	0.3851	0.7881	-0.434
Mof_C 	C 	0.2858	0.9976	0.0696	0.038
Mof_C 	C 	0.145	0.9378	0.0987	-0.097
Mof_N 	N 	0.0911	0.0532	0.1451	-0.043
Mof_C 	C 	0.0539	0.766	0.0724	0.502
Mof_N 	N 	0.1881	0.1876	0.1446	-0.078
Mof_C 	C 	0.442	0.276	0.0735	0.4
Mof_C 	C 	0.956	0.254	0.4076	-0.101
Mof_C 	C 	0.3138	0.1558	0.0966	-0.077
Mof_C 	C 	0.0142	0.1435	0.3492	0.081
Mof_C 	C 	0.01	0.334	0.534	0.032
Mof_C 	C 	0.1257	0.3081	0.599	-0.108
Mof_C 	C 	0.1886	0.3997	0.7329	0.332
Mof_C 	C 	0.9586	0.0563	0.212	-0.127
Mof_C 	C 	0.1266	0.1085	0.4133	-0.086
Mof_C 	C 	0.1839	0.1919	0.5388	0.027
Mof_H 	H 	0.359	0.965	0.001	0.028
Mof_H 	H 	0.88	0.96	0.184	0.091
Mof_H 	H 	0.164	0.025	0.345	0.057
Mof_H 	H 	0.954	0.391	0.607	0.028
Mof_H 	H 	0.278	0.194	0.606	0.029
Mof_H 	H 	0.93	0.292	0.329	0.057
Mof_H 	H 	0.89	0.106	0.163	0.06
Mof_Dy	Dy	0.72102	0.47175	0.00858	1.948
Mof_O 	O 	0.8637	0.3185	0.9549	-0.593
Mof_O 	O 	0.8821	0.5137	0.2101	-0.404
Mof_O 	O 	0.5811	0.6113	0.9526	-0.599
Mof_O 	O 	0.0854	0.2735	0.9214	-0.51
Mof_O 	O 	0.4277	0.7415	0.9224	-0.453
Mof_O 	O 	0.6959	0.6149	0.2119	-0.434
Mof_C 	C 	0.7142	0.0024	0.9304	0.038
Mof_C 	C 	0.855	0.0622	0.9013	-0.097
Mof_N 	N 	0.9089	0.9468	0.8549	-0.043
Mof_C 	C 	0.9461	0.234	0.9276	0.502
Mof_N 	N 	0.8119	0.8124	0.8554	-0.078
Mof_C 	C 	0.558	0.724	0.9265	0.4
Mof_C 	C 	0.044	0.746	0.5924	-0.101
Mof_C 	C 	0.6862	0.8442	0.9034	-0.077
Mof_C 	C 	0.9858	0.8565	0.6508	0.081
Mof_C 	C 	0.99	0.666	0.466	0.032
Mof_C 	C 	0.8743	0.6919	0.401	-0.108
Mof_C 	C 	0.8114	0.6003	0.2671	0.332
Mof_C 	C 	0.0414	0.9437	0.788	-0.127
Mof_C 	C 	0.8734	0.8915	0.5867	-0.086
Mof_C 	C 	0.8161	0.8081	0.4612	0.027
Mof_H 	H 	0.641	0.035	0.999	0.028
Mof_H 	H 	0.12	0.04	0.816	0.091
Mof_H 	H 	0.836	0.975	0.655	0.057
Mof_H 	H 	0.046	0.609	0.393	0.028
Mof_H 	H 	0.722	0.806	0.394	0.029
Mof_H 	H 	0.07	0.708	0.671	0.057
Mof_H 	H 	0.11	0.894	0.837	0.06
_end
