data_functionalizedCrystal
_audit_creation_method	'EQeq! by Chris Wilmer'
_symmetry_space_group_name_H-M	'P1'
_symmetry_Int_Tables_number	1
_symmetry_cell_setting	triclinic
loop_
_symmetry_equiv_pos_as_xyz
  x,y,z
_cell_length_a	15.3762
_cell_length_b	25.9847
_cell_length_c	25.4431
_cell_angle_alpha	90
_cell_angle_beta	97.626
_cell_angle_gamma	90
loop_
_atom_site_label
_atom_site_type_symbol
_atom_site_fract_x
_atom_site_fract_y
_atom_site_fract_z
_atom_site_charge
Mof_Cu	Cu	0.64313	0.6582	0.18152	0.909
Mof_Cu	Cu	0.47123	0.7337	0.2402	0.878
Mof_Cu	Cu	0.29773	0.68768	0.79422	0.896
Mof_S 	S 	0.73677	0.52119	0.21812	0.659
Mof_O 	O 	0.6547	0.4999	0.1935	-0.269
Mof_O 	O 	0.7651	0.4852	0.2599	-0.267
Mof_O 	O 	0.8014	0.5228	0.1798	-0.266
Mof_O 	O 	0.7251	0.57444	0.2371	-0.317
Mof_S 	S 	0.3958	0.6472	0.0498	0.65
Mof_O 	O 	0.4136	0.627	0.1044	-0.291
Mof_O 	O 	0.4789	0.6458	0.027	-0.263
Mof_O 	O 	0.3328	0.6143	0.0185	-0.268
Mof_O 	O 	0.3618	0.6985	0.0535	-0.295
Mof_S 	S 	0.56181	0.84512	0.41075	0.733
Mof_O 	O 	0.5675	0.8524	0.3537	-0.296
Mof_O 	O 	0.4741	0.8611	0.4196	-0.295
Mof_O 	O 	0.5826	0.7945	0.4198	-0.338
Mof_O 	O 	0.6228	0.8799	0.4412	-0.285
Mof_S 	S 	0.98386	0.8422	0.19342	0.622
Mof_O 	O 	0.892	0.8572	0.19	-0.283
Mof_O 	O 	0.9998	0.79437	0.2199	-0.301
Mof_O 	O 	0.0383	0.8831	0.2227	-0.257
Mof_O 	O 	0.0156	0.833	0.1396	-0.254
Mof_N 	N 	0.5636	0.72521	0.1412	-0.166
Mof_N 	N 	0.4964	0.74703	0.16401	-0.193
Mof_N 	N 	0.5038	0.7861	0.08942	-0.184
Mof_N 	N 	0.4459	0.77649	0.81579	-0.194
Mof_N 	N 	0.3815	0.74981	0.83671	-0.17
Mof_N 	N 	0.4425	0.80369	0.89655	-0.185
Mof_N 	N 	0.6804	0.7008	0.24611	-0.193
Mof_N 	N 	0.6183	0.72746	0.27022	-0.171
Mof_N 	N 	0.7492	0.74817	0.30882	-0.189
Mof_N 	N 	0.1779	0.73638	0.33343	-0.11
Mof_N 	N 	0.1901	0.78809	0.32228	-0.199
Mof_N 	N 	0.064	0.78152	0.35146	-0.186
Mof_N 	N 	0.3282	0.73842	0.20783	-0.173
Mof_N 	N 	0.2639	0.76468	0.22961	-0.19
Mof_N 	N 	0.1999	0.70835	0.17416	-0.184
Mof_N 	N 	0.776	0.72192	0.1409	-0.106
Mof_N 	N 	0.7555	0.67289	0.15643	-0.193
Mof_N 	N 	0.8881	0.67007	0.13583	-0.185
Mof_N 	N 	0.5282	0.30984	0.24914	-0.198
Mof_N 	N 	0.5918	0.34035	0.23143	-0.182
Mof_N 	N 	0.4863	0.38931	0.25149	-0.183
Mof_N 	N 	0.4737	0.65771	0.23113	-0.198
Mof_N 	N 	0.5396	0.63042	0.21169	-0.184
Mof_N 	N 	0.4505	0.57582	0.24044	-0.185
Mof_C 	C 	0.5673	0.74914	0.0967	0.116
Mof_H 	H 	0.6081	0.7419	0.0728	-0.006
Mof_C 	C 	0.462	0.7829	0.1323	0.123
Mof_H 	H 	0.4139	0.804	0.1386	-0.017
Mof_C 	C 	0.4816	0.80814	0.8528	0.119
Mof_H 	H 	0.5286	0.831	0.849	-0.018
Mof_C 	C 	0.3804	0.76647	0.885	0.113
Mof_H 	H 	0.342	0.7544	0.9086	-0.011
Mof_C 	C 	0.4902	0.82408	0.0446	0.337
Mof_C 	C 	0.4729	0.79381	0.993	-0.448
Mof_H 	H 	0.4195	0.7724	0.9928	0.181
Mof_H 	H 	0.523	0.7708	0.9893	0.185
Mof_C 	C 	0.4603	0.83262	0.947	0.333
Mof_C 	C 	0.3794	0.8671	0.9528	-0.421
Mof_H 	H 	0.3688	0.8914	0.9227	0.144
Mof_H 	H 	0.3264	0.8456	0.9532	0.15
Mof_C 	C 	0.399	0.8966	0.0047	0.309
Mof_H 	H 	0.3482	0.9195	0.0088	-0.067
Mof_C 	C 	0.4116	0.8581	0.0518	-0.423
Mof_H 	H 	0.4226	0.8769	0.0859	0.146
Mof_H 	H 	0.3583	0.8368	0.052	0.157
Mof_C 	C 	0.5728	0.8567	0.0451	-0.432
Mof_H 	H 	0.6236	0.8343	0.0413	0.156
Mof_H 	H 	0.585	0.8754	0.0792	0.147
Mof_C 	C 	0.5589	0.8951	0.9992	0.321
Mof_H 	H 	0.6128	0.9167	0.9994	-0.073
Mof_C 	C 	0.5421	0.8652	0.9471	-0.436
Mof_H 	H 	0.5343	0.8894	0.9169	0.149
Mof_H 	H 	0.593	0.8428	0.9433	0.158
Mof_C 	C 	0.4811	0.9294	0.0052	-0.424
Mof_H 	H 	0.4726	0.9546	0.9758	0.139
Mof_H 	H 	0.4922	0.9487	0.039	0.14
Mof_C 	C 	0.7585	0.7141	0.2699	0.116
Mof_H 	H 	0.8128	0.7017	0.261	-0.008
Mof_C 	C 	0.661	0.7548	0.3074	0.098
Mof_H 	H 	0.6345	0.7766	0.3306	0.016
Mof_C 	C 	0.1016	0.7344	0.3507	0.104
Mof_H 	H 	0.0757	0.7037	0.3615	-0.01
Mof_C 	C 	0.1215	0.81375	0.3329	0.113
Mof_H 	H 	0.1134	0.8498	0.3283	-0.006
Mof_C 	C 	0.8172	0.7758	0.3445	0.359
Mof_C 	C 	0.9077	0.76354	0.329	-0.465
Mof_H 	H 	0.9102	0.7738	0.2917	0.187
Mof_H 	H 	0.9194	0.7262	0.3324	0.166
Mof_C 	C 	0.9758	0.79355	0.3662	0.356
Mof_C 	C 	0.9593	0.8515	0.3601	-0.464
Mof_H 	H 	0.0045	0.8708	0.3837	0.165
Mof_H 	H 	0.9624	0.8622	0.3231	0.181
Mof_C 	C 	0.8681	0.863	0.3751	0.358
Mof_H 	H 	0.8564	0.9008	0.3712	-0.077
Mof_C 	C 	0.7999	0.83406	0.338	-0.466
Mof_H 	H 	0.8031	0.8445	0.3009	0.169
Mof_H 	H 	0.7404	0.8423	0.3465	0.175
Mof_C 	C 	0.8127	0.7599	0.4017	-0.471
Mof_H 	H 	0.7536	0.7672	0.4112	0.18
Mof_H 	H 	0.8238	0.7225	0.4059	0.165
Mof_C 	C 	0.8814	0.7898	0.4381	0.357
Mof_H 	H 	0.8787	0.7791	0.4756	-0.085
Mof_C 	C 	0.9726	0.7774	0.4237	-0.461
Mof_H 	H 	0.0178	0.7963	0.4475	0.16
Mof_H 	H 	0.9844	0.7401	0.4278	0.16
Mof_C 	C 	0.8639	0.8474	0.4328	-0.47
Mof_H 	H 	0.9085	0.8666	0.4568	0.157
Mof_H 	H 	0.8053	0.8555	0.4427	0.178
Mof_C 	C 	0.2879	0.7047	0.1746	0.096
Mof_H 	H 	0.3163	0.6811	0.1539	0.011
Mof_C 	C 	0.1879	0.7463	0.2088	0.107
Mof_H 	H 	0.1326	0.7579	0.2169	0.015
Mof_C 	C 	0.8558	0.7188	0.1288	0.104
Mof_H 	H 	0.8872	0.7469	0.1167	0.01
Mof_C 	C 	0.8236	0.6422	0.1529	0.097
Mof_H 	H 	0.8262	0.6065	0.161	0.016
Mof_C 	C 	0.1347	0.6725	0.1453	0.357
Mof_C 	C 	0.1421	0.6746	0.0862	-0.465
Mof_H 	H 	0.2019	0.6646	0.08	0.184
Mof_H 	H 	0.1307	0.71	0.0728	0.17
Mof_C 	C 	0.0744	0.6374	0.0571	0.346
Mof_H 	H 	0.0786	0.6383	0.0183	-0.084
Mof_C 	C 	0.9827	0.6541	0.0667	-0.449
Mof_H 	H 	0.9384	0.6308	0.0475	0.153
Mof_H 	H 	0.9709	0.6895	0.0532	0.158
Mof_C 	C 	0.976	0.6523	0.1263	0.347
Mof_C 	C 	0.0431	0.68937	0.1557	-0.459
Mof_H 	H 	0.0313	0.725	0.1428	0.183
Mof_H 	H 	0.0392	0.6885	0.1942	0.174
Mof_C 	C 	0.1535	0.6185	0.1665	-0.454
Mof_H 	H 	0.1501	0.6177	0.2051	0.154
Mof_H 	H 	0.2132	0.6079	0.1607	0.161
Mof_C 	C 	0.0854	0.5816	0.1376	0.342
Mof_H 	H 	0.0976	0.5459	0.1513	-0.075
Mof_C 	C 	0.9937	0.59745	0.1473	-0.458
Mof_H 	H 	0.989	0.5962	0.1857	0.168
Mof_H 	H 	0.9498	0.5735	0.1288	0.172
Mof_C 	C 	0.0924	0.5829	0.078	-0.453
Mof_H 	H 	0.1519	0.572	0.0718	0.168
Mof_H 	H 	0.0493	0.5588	0.0591	0.156
Mof_C 	C 	0.4653	0.34026	0.2607	0.118
Mof_H 	H 	0.4132	0.3293	0.2736	-0.022
Mof_C 	C 	0.565	0.38789	0.2333	0.121
Mof_H 	H 	0.5961	0.4171	0.2234	0.021
Mof_C 	C 	0.4202	0.62395	0.2479	0.109
Mof_H 	H 	0.3685	0.632	0.263	-0.023
Mof_C 	C 	0.5237	0.58173	0.2176	0.117
Mof_H 	H 	0.5588	0.5544	0.2073	0.023
Mof_C 	C 	0.4292	0.43333	0.2628	0.356
Mof_C 	C 	0.4105	0.52747	0.2572	0.343
Mof_C 	C 	0.47	0.48287	0.2451	-0.46
Mof_H 	H 	0.4744	0.4815	0.2066	0.187
Mof_H 	H 	0.5297	0.4875	0.2645	0.175
Mof_C 	C 	0.3189	0.52121	0.2262	-0.44
Mof_H 	H 	0.3226	0.5208	0.1877	0.164
Mof_H 	H 	0.2811	0.5504	0.2339	0.149
Mof_C 	C 	0.2798	0.47063	0.2428	0.329
Mof_H 	H 	0.22	0.4659	0.2225	-0.068
Mof_C 	C 	0.3389	0.42552	0.2312	-0.448
Mof_H 	H 	0.3133	0.3926	0.2415	0.159
Mof_H 	H 	0.3438	0.4242	0.1928	0.175
Mof_C 	C 	0.423	0.43468	0.3214	-0.445
Mof_H 	H 	0.4823	0.4387	0.3415	0.147
Mof_H 	H 	0.3977	0.402	0.3324	0.15
Mof_C 	C 	0.3648	0.47985	0.3334	0.32
Mof_H 	H 	0.3605	0.481	0.3722	-0.08
Mof_C 	C 	0.4041	0.53023	0.3162	-0.434
Mof_H 	H 	0.3665	0.5596	0.3237	0.145
Mof_H 	H 	0.4632	0.5355	0.3363	0.145
Mof_C 	C 	0.2726	0.4722	0.3021	-0.434
Mof_H 	H 	0.2469	0.4396	0.313	0.165
Mof_H 	H 	0.2336	0.5008	0.3097	0.153
Mof_O 	O 	0.6083	0.61196	0.12002	-0.756
Mof_H 	H 	0.6381	0.6188	0.0947	0.329
Mof_H 	H 	0.5541	0.616	0.1081	0.353
Mof_O 	O 	0.3238	0.63789	0.85358	-0.761
Mof_H 	H 	0.3721	0.6452	0.8731	0.36
Mof_H 	H 	0.283	0.6376	0.8736	0.323
Mof_Cu	Cu	0.35687	0.1582	0.31848	0.908
Mof_Cu	Cu	0.52877	0.2337	0.2598	0.877
Mof_Cu	Cu	0.70227	0.18768	0.70578	0.895
Mof_S 	S 	0.26323	0.02119	0.28188	0.657
Mof_O 	O 	0.3453	0.9999	0.3065	-0.27
Mof_O 	O 	0.2349	0.9852	0.2401	-0.268
Mof_O 	O 	0.1986	0.0228	0.3202	-0.265
Mof_O 	O 	0.2749	0.07444	0.2629	-0.317
Mof_S 	S 	0.6042	0.1472	0.4502	0.65
Mof_O 	O 	0.5864	0.127	0.3956	-0.291
Mof_O 	O 	0.5211	0.1458	0.473	-0.263
Mof_O 	O 	0.6672	0.1143	0.4815	-0.268
Mof_O 	O 	0.6382	0.1985	0.4465	-0.295
Mof_S 	S 	0.43819	0.34512	0.08925	0.733
Mof_O 	O 	0.4325	0.3524	0.1463	-0.296
Mof_O 	O 	0.5259	0.3611	0.0804	-0.295
Mof_O 	O 	0.4174	0.2945	0.0802	-0.338
Mof_O 	O 	0.3772	0.3799	0.0588	-0.285
Mof_S 	S 	0.01614	0.3422	0.30658	0.624
Mof_O 	O 	0.108	0.3572	0.31	-0.283
Mof_O 	O 	0.0002	0.29437	0.2801	-0.301
Mof_O 	O 	0.9617	0.3831	0.2773	-0.257
Mof_O 	O 	0.9844	0.333	0.3604	-0.254
Mof_N 	N 	0.4364	0.22521	0.3588	-0.166
Mof_N 	N 	0.5036	0.24703	0.33599	-0.193
Mof_N 	N 	0.4962	0.2861	0.41058	-0.184
Mof_N 	N 	0.5541	0.27649	0.68421	-0.194
Mof_N 	N 	0.6185	0.24981	0.66329	-0.17
Mof_N 	N 	0.5575	0.30369	0.60345	-0.185
Mof_N 	N 	0.3196	0.2008	0.25389	-0.193
Mof_N 	N 	0.3817	0.22746	0.22978	-0.171
Mof_N 	N 	0.2508	0.24817	0.19118	-0.189
Mof_N 	N 	0.8221	0.23638	0.16657	-0.11
Mof_N 	N 	0.8099	0.28809	0.17772	-0.199
Mof_N 	N 	0.936	0.28152	0.14854	-0.186
Mof_N 	N 	0.6718	0.23842	0.29217	-0.173
Mof_N 	N 	0.7361	0.26468	0.27039	-0.19
Mof_N 	N 	0.8001	0.20835	0.32584	-0.184
Mof_N 	N 	0.224	0.22192	0.3591	-0.106
Mof_N 	N 	0.2445	0.17289	0.34357	-0.193
Mof_N 	N 	0.1119	0.17007	0.36417	-0.185
Mof_N 	N 	0.4718	0.80984	0.25086	-0.198
Mof_N 	N 	0.4082	0.84035	0.26857	-0.182
Mof_N 	N 	0.5137	0.88931	0.24851	-0.183
Mof_N 	N 	0.5263	0.15771	0.26887	-0.198
Mof_N 	N 	0.4604	0.13042	0.28831	-0.184
Mof_N 	N 	0.5495	0.07582	0.25956	-0.185
Mof_C 	C 	0.4327	0.24914	0.4033	0.116
Mof_H 	H 	0.3919	0.2419	0.4272	-0.007
Mof_C 	C 	0.538	0.2829	0.3677	0.123
Mof_H 	H 	0.5861	0.304	0.3614	-0.017
Mof_C 	C 	0.5184	0.30814	0.6472	0.119
Mof_H 	H 	0.4714	0.331	0.651	-0.018
Mof_C 	C 	0.6196	0.26647	0.615	0.113
Mof_H 	H 	0.658	0.2544	0.5914	-0.011
Mof_C 	C 	0.5098	0.32408	0.4554	0.337
Mof_C 	C 	0.5271	0.29381	0.507	-0.448
Mof_H 	H 	0.5805	0.2724	0.5072	0.182
Mof_H 	H 	0.477	0.2708	0.5107	0.185
Mof_C 	C 	0.5397	0.33262	0.553	0.333
Mof_C 	C 	0.6206	0.3671	0.5472	-0.421
Mof_H 	H 	0.6312	0.3914	0.5773	0.144
Mof_H 	H 	0.6736	0.3456	0.5468	0.15
Mof_C 	C 	0.601	0.3966	0.4953	0.31
Mof_H 	H 	0.6518	0.4195	0.4912	-0.068
Mof_C 	C 	0.5884	0.3581	0.4482	-0.423
Mof_H 	H 	0.5774	0.3769	0.4141	0.146
Mof_H 	H 	0.6417	0.3368	0.448	0.157
Mof_C 	C 	0.4272	0.3567	0.4549	-0.434
Mof_H 	H 	0.3764	0.3343	0.4587	0.156
Mof_H 	H 	0.415	0.3754	0.4208	0.147
Mof_C 	C 	0.4411	0.3951	0.5008	0.324
Mof_H 	H 	0.3872	0.4167	0.5006	-0.074
Mof_C 	C 	0.4579	0.3652	0.5529	-0.437
Mof_H 	H 	0.4657	0.3894	0.5831	0.149
Mof_H 	H 	0.407	0.3428	0.5567	0.159
Mof_C 	C 	0.5189	0.4294	0.4948	-0.427
Mof_H 	H 	0.5274	0.4546	0.5242	0.141
Mof_H 	H 	0.5078	0.4487	0.461	0.14
Mof_C 	C 	0.2415	0.2141	0.2301	0.116
Mof_H 	H 	0.1872	0.2017	0.239	-0.008
Mof_C 	C 	0.339	0.2548	0.1926	0.098
Mof_H 	H 	0.3655	0.2766	0.1694	0.016
Mof_C 	C 	0.8984	0.2344	0.1493	0.104
Mof_H 	H 	0.9243	0.2037	0.1385	-0.01
Mof_C 	C 	0.8785	0.31375	0.1671	0.113
Mof_H 	H 	0.8866	0.3498	0.1717	-0.006
Mof_C 	C 	0.1828	0.2758	0.1555	0.359
Mof_C 	C 	0.0923	0.26354	0.171	-0.464
Mof_H 	H 	0.0898	0.2738	0.2083	0.187
Mof_H 	H 	0.0806	0.2262	0.1676	0.166
Mof_C 	C 	0.0242	0.29355	0.1338	0.356
Mof_C 	C 	0.0407	0.3515	0.1399	-0.462
Mof_H 	H 	0.9955	0.3708	0.1163	0.164
Mof_H 	H 	0.0376	0.3622	0.1769	0.18
Mof_C 	C 	0.1319	0.363	0.1249	0.357
Mof_H 	H 	0.1436	0.4008	0.1288	-0.077
Mof_C 	C 	0.2001	0.33406	0.162	-0.465
Mof_H 	H 	0.1969	0.3445	0.1991	0.168
Mof_H 	H 	0.2596	0.3423	0.1535	0.175
Mof_C 	C 	0.1873	0.2599	0.0983	-0.47
Mof_H 	H 	0.2464	0.2672	0.0888	0.18
Mof_H 	H 	0.1762	0.2225	0.0941	0.165
Mof_C 	C 	0.1186	0.2898	0.0619	0.357
Mof_H 	H 	0.1213	0.2791	0.0244	-0.085
Mof_C 	C 	0.0274	0.2774	0.0763	-0.459
Mof_H 	H 	0.9822	0.2963	0.0525	0.16
Mof_H 	H 	0.0156	0.2401	0.0722	0.159
Mof_C 	C 	0.1361	0.3474	0.0672	-0.469
Mof_H 	H 	0.0915	0.3666	0.0432	0.157
Mof_H 	H 	0.1947	0.3555	0.0573	0.177
Mof_C 	C 	0.7121	0.2047	0.3254	0.096
Mof_H 	H 	0.6837	0.1811	0.3461	0.011
Mof_C 	C 	0.8121	0.2463	0.2912	0.107
Mof_H 	H 	0.8674	0.2579	0.2831	0.015
Mof_C 	C 	0.1442	0.2188	0.3712	0.104
Mof_H 	H 	0.1128	0.2469	0.3833	0.01
Mof_C 	C 	0.1764	0.1422	0.3471	0.097
Mof_H 	H 	0.1738	0.1065	0.339	0.016
Mof_C 	C 	0.8653	0.1725	0.3547	0.356
Mof_C 	C 	0.8579	0.1746	0.4138	-0.465
Mof_H 	H 	0.7981	0.1646	0.42	0.184
Mof_H 	H 	0.8693	0.21	0.4272	0.17
Mof_C 	C 	0.9256	0.1374	0.4429	0.346
Mof_H 	H 	0.9214	0.1383	0.4817	-0.084
Mof_C 	C 	0.0173	0.1541	0.4333	-0.449
Mof_H 	H 	0.0616	0.1308	0.4525	0.153
Mof_H 	H 	0.0291	0.1895	0.4468	0.158
Mof_C 	C 	0.024	0.1523	0.3737	0.348
Mof_C 	C 	0.9569	0.18937	0.3443	-0.459
Mof_H 	H 	0.9687	0.225	0.3572	0.183
Mof_H 	H 	0.9608	0.1885	0.3058	0.174
Mof_C 	C 	0.8465	0.1185	0.3335	-0.454
Mof_H 	H 	0.8499	0.1177	0.2949	0.154
Mof_H 	H 	0.7868	0.1079	0.3393	0.161
Mof_C 	C 	0.9146	0.0816	0.3624	0.342
Mof_H 	H 	0.9024	0.0459	0.3487	-0.075
Mof_C 	C 	0.0063	0.09745	0.3527	-0.457
Mof_H 	H 	0.011	0.0962	0.3143	0.168
Mof_H 	H 	0.0502	0.0735	0.3712	0.172
Mof_C 	C 	0.9076	0.0829	0.422	-0.453
Mof_H 	H 	0.8481	0.072	0.4282	0.168
Mof_H 	H 	0.9507	0.0588	0.4409	0.156
Mof_C 	C 	0.5347	0.84026	0.2393	0.118
Mof_H 	H 	0.5868	0.8293	0.2264	-0.022
Mof_C 	C 	0.435	0.88789	0.2667	0.121
Mof_H 	H 	0.4039	0.9171	0.2766	0.021
Mof_C 	C 	0.5798	0.12395	0.2521	0.109
Mof_H 	H 	0.6315	0.132	0.237	-0.023
Mof_C 	C 	0.4763	0.08173	0.2824	0.116
Mof_H 	H 	0.4412	0.0544	0.2927	0.023
Mof_C 	C 	0.5708	0.93333	0.2372	0.356
Mof_C 	C 	0.5895	0.02747	0.2428	0.343
Mof_C 	C 	0.53	0.98287	0.2549	-0.46
Mof_H 	H 	0.5256	0.9815	0.2934	0.187
Mof_H 	H 	0.4703	0.9875	0.2355	0.175
Mof_C 	C 	0.6811	0.02121	0.2738	-0.44
Mof_H 	H 	0.6774	0.0208	0.3123	0.164
Mof_H 	H 	0.7189	0.0504	0.2661	0.149
Mof_C 	C 	0.7202	0.97063	0.2572	0.329
Mof_H 	H 	0.78	0.9659	0.2775	-0.068
Mof_C 	C 	0.6611	0.92552	0.2688	-0.448
Mof_H 	H 	0.6867	0.8926	0.2585	0.159
Mof_H 	H 	0.6562	0.9242	0.3072	0.175
Mof_C 	C 	0.577	0.93468	0.1786	-0.445
Mof_H 	H 	0.5177	0.9387	0.1585	0.148
Mof_H 	H 	0.6023	0.902	0.1676	0.15
Mof_C 	C 	0.6352	0.97985	0.1666	0.321
Mof_H 	H 	0.6395	0.981	0.1278	-0.08
Mof_C 	C 	0.5959	0.03023	0.1838	-0.434
Mof_H 	H 	0.6335	0.0596	0.1763	0.145
Mof_H 	H 	0.5368	0.0355	0.1637	0.145
Mof_C 	C 	0.7274	0.9722	0.1979	-0.434
Mof_H 	H 	0.7531	0.9396	0.187	0.165
Mof_H 	H 	0.7664	0.0008	0.1903	0.153
Mof_O 	O 	0.3917	0.11196	0.37998	-0.756
Mof_H 	H 	0.3619	0.1188	0.4053	0.329
Mof_H 	H 	0.4459	0.116	0.3919	0.353
Mof_O 	O 	0.6762	0.13789	0.64642	-0.761
Mof_H 	H 	0.6279	0.1452	0.6269	0.36
Mof_H 	H 	0.717	0.1376	0.6264	0.323
Mof_Cu	Cu	0.35687	0.3418	0.81848	0.908
Mof_Cu	Cu	0.52877	0.2663	0.7598	0.877
Mof_Cu	Cu	0.70227	0.31232	0.20578	0.895
Mof_S 	S 	0.26323	0.47881	0.78188	0.658
Mof_O 	O 	0.3453	0.5001	0.8065	-0.27
Mof_O 	O 	0.2349	0.5148	0.7401	-0.268
Mof_O 	O 	0.1986	0.4772	0.8202	-0.266
Mof_O 	O 	0.2749	0.42556	0.7629	-0.317
Mof_S 	S 	0.6042	0.3528	0.9502	0.65
Mof_O 	O 	0.5864	0.373	0.8956	-0.291
Mof_O 	O 	0.5211	0.3542	0.973	-0.263
Mof_O 	O 	0.6672	0.3857	0.9815	-0.268
Mof_O 	O 	0.6382	0.3015	0.9465	-0.295
Mof_S 	S 	0.43819	0.15488	0.58925	0.733
Mof_O 	O 	0.4325	0.1476	0.6463	-0.296
Mof_O 	O 	0.5259	0.1389	0.5804	-0.295
Mof_O 	O 	0.4174	0.2055	0.5802	-0.338
Mof_O 	O 	0.3772	0.1201	0.5588	-0.285
Mof_S 	S 	0.01614	0.1578	0.80658	0.622
Mof_O 	O 	0.108	0.1428	0.81	-0.283
Mof_O 	O 	0.0002	0.20563	0.7801	-0.301
Mof_O 	O 	0.9617	0.1169	0.7773	-0.257
Mof_O 	O 	0.9844	0.167	0.8604	-0.254
Mof_N 	N 	0.4364	0.27479	0.8588	-0.166
Mof_N 	N 	0.5036	0.25297	0.83599	-0.193
Mof_N 	N 	0.4962	0.2139	0.91058	-0.184
Mof_N 	N 	0.5541	0.22351	0.18421	-0.194
Mof_N 	N 	0.6185	0.25019	0.16329	-0.17
Mof_N 	N 	0.5575	0.19631	0.10345	-0.185
Mof_N 	N 	0.3196	0.2992	0.75389	-0.193
Mof_N 	N 	0.3817	0.27254	0.72978	-0.171
Mof_N 	N 	0.2508	0.25183	0.69118	-0.189
Mof_N 	N 	0.8221	0.26362	0.66657	-0.11
Mof_N 	N 	0.8099	0.21191	0.67772	-0.199
Mof_N 	N 	0.936	0.21848	0.64854	-0.186
Mof_N 	N 	0.6718	0.26158	0.79217	-0.173
Mof_N 	N 	0.7361	0.23532	0.77039	-0.19
Mof_N 	N 	0.8001	0.29165	0.82584	-0.184
Mof_N 	N 	0.224	0.27808	0.8591	-0.106
Mof_N 	N 	0.2445	0.32711	0.84357	-0.193
Mof_N 	N 	0.1119	0.32993	0.86417	-0.185
Mof_N 	N 	0.4718	0.69016	0.75086	-0.198
Mof_N 	N 	0.4082	0.65965	0.76857	-0.182
Mof_N 	N 	0.5137	0.61069	0.74851	-0.183
Mof_N 	N 	0.5263	0.34229	0.76887	-0.198
Mof_N 	N 	0.4604	0.36958	0.78831	-0.184
Mof_N 	N 	0.5495	0.42418	0.75956	-0.185
Mof_C 	C 	0.4327	0.25086	0.9033	0.116
Mof_H 	H 	0.3919	0.2581	0.9272	-0.006
Mof_C 	C 	0.538	0.2171	0.8677	0.123
Mof_H 	H 	0.5861	0.196	0.8614	-0.017
Mof_C 	C 	0.5184	0.19186	0.1472	0.119
Mof_H 	H 	0.4714	0.169	0.151	-0.018
Mof_C 	C 	0.6196	0.23353	0.115	0.113
Mof_H 	H 	0.658	0.2456	0.0914	-0.011
Mof_C 	C 	0.5098	0.17592	0.9554	0.337
Mof_C 	C 	0.5271	0.20619	0.007	-0.448
Mof_H 	H 	0.5805	0.2276	0.0072	0.181
Mof_H 	H 	0.477	0.2292	0.0107	0.185
Mof_C 	C 	0.5397	0.16738	0.053	0.333
Mof_C 	C 	0.6206	0.1329	0.0472	-0.421
Mof_H 	H 	0.6312	0.1086	0.0773	0.144
Mof_H 	H 	0.6736	0.1544	0.0468	0.15
Mof_C 	C 	0.601	0.1034	0.9953	0.309
Mof_H 	H 	0.6518	0.0805	0.9912	-0.067
Mof_C 	C 	0.5884	0.1419	0.9482	-0.423
Mof_H 	H 	0.5774	0.1231	0.9141	0.146
Mof_H 	H 	0.6417	0.1632	0.948	0.157
Mof_C 	C 	0.4272	0.1433	0.9549	-0.432
Mof_H 	H 	0.3764	0.1657	0.9587	0.156
Mof_H 	H 	0.415	0.1246	0.9208	0.147
Mof_C 	C 	0.4411	0.1049	0.0008	0.321
Mof_H 	H 	0.3872	0.0833	0.0006	-0.073
Mof_C 	C 	0.4579	0.1348	0.0529	-0.436
Mof_H 	H 	0.4657	0.1106	0.0831	0.149
Mof_H 	H 	0.407	0.1572	0.0567	0.158
Mof_C 	C 	0.5189	0.0706	0.9948	-0.424
Mof_H 	H 	0.5274	0.0454	0.0242	0.139
Mof_H 	H 	0.5078	0.0513	0.961	0.14
Mof_C 	C 	0.2415	0.2859	0.7301	0.116
Mof_H 	H 	0.1872	0.2983	0.739	-0.008
Mof_C 	C 	0.339	0.2452	0.6926	0.098
Mof_H 	H 	0.3655	0.2234	0.6694	0.016
Mof_C 	C 	0.8984	0.2656	0.6493	0.104
Mof_H 	H 	0.9243	0.2963	0.6385	-0.01
Mof_C 	C 	0.8785	0.18625	0.6671	0.113
Mof_H 	H 	0.8866	0.1502	0.6717	-0.006
Mof_C 	C 	0.1828	0.2242	0.6555	0.359
Mof_C 	C 	0.0923	0.23646	0.671	-0.465
Mof_H 	H 	0.0898	0.2262	0.7083	0.187
Mof_H 	H 	0.0806	0.2738	0.6676	0.166
Mof_C 	C 	0.0242	0.20645	0.6338	0.356
Mof_C 	C 	0.0407	0.1485	0.6399	-0.464
Mof_H 	H 	0.9955	0.1292	0.6163	0.165
Mof_H 	H 	0.0376	0.1378	0.6769	0.181
Mof_C 	C 	0.1319	0.137	0.6249	0.358
Mof_H 	H 	0.1436	0.0992	0.6288	-0.077
Mof_C 	C 	0.2001	0.16594	0.662	-0.466
Mof_H 	H 	0.1969	0.1555	0.6991	0.169
Mof_H 	H 	0.2596	0.1577	0.6535	0.175
Mof_C 	C 	0.1873	0.2401	0.5983	-0.471
Mof_H 	H 	0.2464	0.2328	0.5888	0.18
Mof_H 	H 	0.1762	0.2775	0.5941	0.165
Mof_C 	C 	0.1186	0.2102	0.5619	0.357
Mof_H 	H 	0.1213	0.2209	0.5244	-0.085
Mof_C 	C 	0.0274	0.2226	0.5763	-0.461
Mof_H 	H 	0.9822	0.2037	0.5525	0.16
Mof_H 	H 	0.0156	0.2599	0.5722	0.16
Mof_C 	C 	0.1361	0.1526	0.5672	-0.47
Mof_H 	H 	0.0915	0.1334	0.5432	0.157
Mof_H 	H 	0.1947	0.1445	0.5573	0.178
Mof_C 	C 	0.7121	0.2953	0.8254	0.096
Mof_H 	H 	0.6837	0.3189	0.8461	0.011
Mof_C 	C 	0.8121	0.2537	0.7912	0.107
Mof_H 	H 	0.8674	0.2421	0.7831	0.015
Mof_C 	C 	0.1442	0.2812	0.8712	0.104
Mof_H 	H 	0.1128	0.2531	0.8833	0.01
Mof_C 	C 	0.1764	0.3578	0.8471	0.097
Mof_H 	H 	0.1738	0.3935	0.839	0.016
Mof_C 	C 	0.8653	0.3275	0.8547	0.357
Mof_C 	C 	0.8579	0.3254	0.9138	-0.465
Mof_H 	H 	0.7981	0.3354	0.92	0.184
Mof_H 	H 	0.8693	0.29	0.9272	0.17
Mof_C 	C 	0.9256	0.3626	0.9429	0.346
Mof_H 	H 	0.9214	0.3617	0.9817	-0.084
Mof_C 	C 	0.0173	0.3459	0.9333	-0.449
Mof_H 	H 	0.0616	0.3692	0.9525	0.153
Mof_H 	H 	0.0291	0.3105	0.9468	0.158
Mof_C 	C 	0.024	0.3477	0.8737	0.347
Mof_C 	C 	0.9569	0.31063	0.8443	-0.459
Mof_H 	H 	0.9687	0.275	0.8572	0.183
Mof_H 	H 	0.9608	0.3115	0.8058	0.174
Mof_C 	C 	0.8465	0.3815	0.8335	-0.454
Mof_H 	H 	0.8499	0.3823	0.7949	0.154
Mof_H 	H 	0.7868	0.3921	0.8393	0.161
Mof_C 	C 	0.9146	0.4184	0.8624	0.342
Mof_H 	H 	0.9024	0.4541	0.8487	-0.075
Mof_C 	C 	0.0063	0.40255	0.8527	-0.458
Mof_H 	H 	0.011	0.4038	0.8143	0.168
Mof_H 	H 	0.0502	0.4265	0.8712	0.172
Mof_C 	C 	0.9076	0.4171	0.922	-0.453
Mof_H 	H 	0.8481	0.428	0.9282	0.168
Mof_H 	H 	0.9507	0.4412	0.9409	0.156
Mof_C 	C 	0.5347	0.65974	0.7393	0.118
Mof_H 	H 	0.5868	0.6707	0.7264	-0.022
Mof_C 	C 	0.435	0.61211	0.7667	0.121
Mof_H 	H 	0.4039	0.5829	0.7766	0.021
Mof_C 	C 	0.5798	0.37605	0.7521	0.109
Mof_H 	H 	0.6315	0.368	0.737	-0.023
Mof_C 	C 	0.4763	0.41827	0.7824	0.117
Mof_H 	H 	0.4412	0.4456	0.7927	0.023
Mof_C 	C 	0.5708	0.56667	0.7372	0.356
Mof_C 	C 	0.5895	0.47253	0.7428	0.343
Mof_C 	C 	0.53	0.51713	0.7549	-0.46
Mof_H 	H 	0.5256	0.5185	0.7934	0.187
Mof_H 	H 	0.4703	0.5125	0.7355	0.175
Mof_C 	C 	0.6811	0.47879	0.7738	-0.44
Mof_H 	H 	0.6774	0.4792	0.8123	0.164
Mof_H 	H 	0.7189	0.4496	0.7661	0.149
Mof_C 	C 	0.7202	0.52937	0.7572	0.329
Mof_H 	H 	0.78	0.5341	0.7775	-0.068
Mof_C 	C 	0.6611	0.57448	0.7688	-0.448
Mof_H 	H 	0.6867	0.6074	0.7585	0.159
Mof_H 	H 	0.6562	0.5758	0.8072	0.175
Mof_C 	C 	0.577	0.56532	0.6786	-0.445
Mof_H 	H 	0.5177	0.5613	0.6585	0.147
Mof_H 	H 	0.6023	0.598	0.6676	0.15
Mof_C 	C 	0.6352	0.52015	0.6666	0.32
Mof_H 	H 	0.6395	0.519	0.6278	-0.08
Mof_C 	C 	0.5959	0.46977	0.6838	-0.434
Mof_H 	H 	0.6335	0.4404	0.6763	0.145
Mof_H 	H 	0.5368	0.4645	0.6637	0.145
Mof_C 	C 	0.7274	0.5278	0.6979	-0.434
Mof_H 	H 	0.7531	0.5604	0.687	0.165
Mof_H 	H 	0.7664	0.4992	0.6903	0.153
Mof_O 	O 	0.3917	0.38804	0.87998	-0.756
Mof_H 	H 	0.3619	0.3812	0.9053	0.329
Mof_H 	H 	0.4459	0.384	0.8919	0.353
Mof_O 	O 	0.6762	0.36211	0.14642	-0.761
Mof_H 	H 	0.6279	0.3548	0.1269	0.36
Mof_H 	H 	0.717	0.3624	0.1264	0.323
Mof_Cu	Cu	0.64313	0.8418	0.68152	0.908
Mof_Cu	Cu	0.47123	0.7663	0.7402	0.877
Mof_Cu	Cu	0.29773	0.81232	0.29422	0.895
Mof_S 	S 	0.73677	0.97881	0.71812	0.657
Mof_O 	O 	0.6547	0.0001	0.6935	-0.27
Mof_O 	O 	0.7651	0.0148	0.7599	-0.268
Mof_O 	O 	0.8014	0.9772	0.6798	-0.265
Mof_O 	O 	0.7251	0.92556	0.7371	-0.317
Mof_S 	S 	0.3958	0.8528	0.5498	0.65
Mof_O 	O 	0.4136	0.873	0.6044	-0.291
Mof_O 	O 	0.4789	0.8542	0.527	-0.263
Mof_O 	O 	0.3328	0.8857	0.5185	-0.268
Mof_O 	O 	0.3618	0.8015	0.5535	-0.295
Mof_S 	S 	0.56181	0.65488	0.91075	0.733
Mof_O 	O 	0.5675	0.6476	0.8537	-0.296
Mof_O 	O 	0.4741	0.6389	0.9196	-0.295
Mof_O 	O 	0.5826	0.7055	0.9198	-0.338
Mof_O 	O 	0.6228	0.6201	0.9412	-0.285
Mof_S 	S 	0.98386	0.6578	0.69342	0.624
Mof_O 	O 	0.892	0.6428	0.69	-0.283
Mof_O 	O 	0.9998	0.70563	0.7199	-0.301
Mof_O 	O 	0.0383	0.6169	0.7227	-0.257
Mof_O 	O 	0.0156	0.667	0.6396	-0.254
Mof_N 	N 	0.5636	0.77479	0.6412	-0.166
Mof_N 	N 	0.4964	0.75297	0.66401	-0.193
Mof_N 	N 	0.5038	0.7139	0.58942	-0.184
Mof_N 	N 	0.4459	0.72351	0.31579	-0.194
Mof_N 	N 	0.3815	0.75019	0.33671	-0.17
Mof_N 	N 	0.4425	0.69631	0.39655	-0.185
Mof_N 	N 	0.6804	0.7992	0.74611	-0.193
Mof_N 	N 	0.6183	0.77254	0.77022	-0.171
Mof_N 	N 	0.7492	0.75183	0.80882	-0.189
Mof_N 	N 	0.1779	0.76362	0.83343	-0.11
Mof_N 	N 	0.1901	0.71191	0.82228	-0.199
Mof_N 	N 	0.064	0.71848	0.85146	-0.186
Mof_N 	N 	0.3282	0.76158	0.70783	-0.173
Mof_N 	N 	0.2639	0.73532	0.72961	-0.19
Mof_N 	N 	0.1999	0.79165	0.67416	-0.184
Mof_N 	N 	0.776	0.77808	0.6409	-0.106
Mof_N 	N 	0.7555	0.82711	0.65643	-0.193
Mof_N 	N 	0.8881	0.82993	0.63583	-0.185
Mof_N 	N 	0.5282	0.19016	0.74914	-0.198
Mof_N 	N 	0.5918	0.15965	0.73143	-0.182
Mof_N 	N 	0.4863	0.11069	0.75149	-0.183
Mof_N 	N 	0.4737	0.84229	0.73113	-0.198
Mof_N 	N 	0.5396	0.86958	0.71169	-0.184
Mof_N 	N 	0.4505	0.92418	0.74044	-0.185
Mof_C 	C 	0.5673	0.75086	0.5967	0.116
Mof_H 	H 	0.6081	0.7581	0.5728	-0.007
Mof_C 	C 	0.462	0.7171	0.6323	0.123
Mof_H 	H 	0.4139	0.696	0.6386	-0.017
Mof_C 	C 	0.4816	0.69186	0.3528	0.119
Mof_H 	H 	0.5286	0.669	0.349	-0.018
Mof_C 	C 	0.3804	0.73353	0.385	0.113
Mof_H 	H 	0.342	0.7456	0.4086	-0.011
Mof_C 	C 	0.4902	0.67592	0.5446	0.337
Mof_C 	C 	0.4729	0.70619	0.493	-0.448
Mof_H 	H 	0.4195	0.7276	0.4928	0.182
Mof_H 	H 	0.523	0.7292	0.4893	0.185
Mof_C 	C 	0.4603	0.66738	0.447	0.333
Mof_C 	C 	0.3794	0.6329	0.4528	-0.421
Mof_H 	H 	0.3688	0.6086	0.4227	0.144
Mof_H 	H 	0.3264	0.6544	0.4532	0.15
Mof_C 	C 	0.399	0.6034	0.5047	0.31
Mof_H 	H 	0.3482	0.5805	0.5088	-0.068
Mof_C 	C 	0.4116	0.6419	0.5518	-0.423
Mof_H 	H 	0.4226	0.6231	0.5859	0.146
Mof_H 	H 	0.3583	0.6632	0.552	0.157
Mof_C 	C 	0.5728	0.6433	0.5451	-0.434
Mof_H 	H 	0.6236	0.6657	0.5413	0.156
Mof_H 	H 	0.585	0.6246	0.5792	0.147
Mof_C 	C 	0.5589	0.6049	0.4992	0.324
Mof_H 	H 	0.6128	0.5833	0.4994	-0.074
Mof_C 	C 	0.5421	0.6348	0.4471	-0.437
Mof_H 	H 	0.5343	0.6106	0.4169	0.149
Mof_H 	H 	0.593	0.6572	0.4433	0.159
Mof_C 	C 	0.4811	0.5706	0.5052	-0.427
Mof_H 	H 	0.4726	0.5454	0.4758	0.141
Mof_H 	H 	0.4922	0.5513	0.539	0.14
Mof_C 	C 	0.7585	0.7859	0.7699	0.116
Mof_H 	H 	0.8128	0.7983	0.761	-0.008
Mof_C 	C 	0.661	0.7452	0.8074	0.098
Mof_H 	H 	0.6345	0.7234	0.8306	0.016
Mof_C 	C 	0.1016	0.7656	0.8507	0.104
Mof_H 	H 	0.0757	0.7963	0.8615	-0.01
Mof_C 	C 	0.1215	0.68625	0.8329	0.113
Mof_H 	H 	0.1134	0.6502	0.8283	-0.006
Mof_C 	C 	0.8172	0.7242	0.8445	0.359
Mof_C 	C 	0.9077	0.73646	0.829	-0.464
Mof_H 	H 	0.9102	0.7262	0.7917	0.187
Mof_H 	H 	0.9194	0.7738	0.8324	0.166
Mof_C 	C 	0.9758	0.70645	0.8662	0.356
Mof_C 	C 	0.9593	0.6485	0.8601	-0.462
Mof_H 	H 	0.0045	0.6292	0.8837	0.164
Mof_H 	H 	0.9624	0.6378	0.8231	0.18
Mof_C 	C 	0.8681	0.637	0.8751	0.357
Mof_H 	H 	0.8564	0.5992	0.8712	-0.077
Mof_C 	C 	0.7999	0.66594	0.838	-0.465
Mof_H 	H 	0.8031	0.6555	0.8009	0.168
Mof_H 	H 	0.7404	0.6577	0.8465	0.175
Mof_C 	C 	0.8127	0.7401	0.9017	-0.47
Mof_H 	H 	0.7536	0.7328	0.9112	0.18
Mof_H 	H 	0.8238	0.7775	0.9059	0.165
Mof_C 	C 	0.8814	0.7102	0.9381	0.357
Mof_H 	H 	0.8787	0.7209	0.9756	-0.085
Mof_C 	C 	0.9726	0.7226	0.9237	-0.459
Mof_H 	H 	0.0178	0.7037	0.9475	0.16
Mof_H 	H 	0.9844	0.7599	0.9278	0.159
Mof_C 	C 	0.8639	0.6526	0.9328	-0.469
Mof_H 	H 	0.9085	0.6334	0.9568	0.157
Mof_H 	H 	0.8053	0.6445	0.9427	0.177
Mof_C 	C 	0.2879	0.7953	0.6746	0.096
Mof_H 	H 	0.3163	0.8189	0.6539	0.011
Mof_C 	C 	0.1879	0.7537	0.7088	0.107
Mof_H 	H 	0.1326	0.7421	0.7169	0.015
Mof_C 	C 	0.8558	0.7812	0.6288	0.104
Mof_H 	H 	0.8872	0.7531	0.6167	0.01
Mof_C 	C 	0.8236	0.8578	0.6529	0.097
Mof_H 	H 	0.8262	0.8935	0.661	0.016
Mof_C 	C 	0.1347	0.8275	0.6453	0.356
Mof_C 	C 	0.1421	0.8254	0.5862	-0.465
Mof_H 	H 	0.2019	0.8354	0.58	0.184
Mof_H 	H 	0.1307	0.79	0.5728	0.17
Mof_C 	C 	0.0744	0.8626	0.5571	0.346
Mof_H 	H 	0.0786	0.8617	0.5183	-0.084
Mof_C 	C 	0.9827	0.8459	0.5667	-0.449
Mof_H 	H 	0.9384	0.8692	0.5475	0.153
Mof_H 	H 	0.9709	0.8105	0.5532	0.158
Mof_C 	C 	0.976	0.8477	0.6263	0.348
Mof_C 	C 	0.0431	0.81063	0.6557	-0.459
Mof_H 	H 	0.0313	0.775	0.6428	0.183
Mof_H 	H 	0.0392	0.8115	0.6942	0.174
Mof_C 	C 	0.1535	0.8815	0.6665	-0.454
Mof_H 	H 	0.1501	0.8823	0.7051	0.154
Mof_H 	H 	0.2132	0.8921	0.6607	0.161
Mof_C 	C 	0.0854	0.9184	0.6376	0.342
Mof_H 	H 	0.0976	0.9541	0.6513	-0.075
Mof_C 	C 	0.9937	0.90255	0.6473	-0.457
Mof_H 	H 	0.989	0.9038	0.6857	0.168
Mof_H 	H 	0.9498	0.9265	0.6288	0.172
Mof_C 	C 	0.0924	0.9171	0.578	-0.453
Mof_H 	H 	0.1519	0.928	0.5718	0.168
Mof_H 	H 	0.0493	0.9412	0.5591	0.156
Mof_C 	C 	0.4653	0.15974	0.7607	0.118
Mof_H 	H 	0.4132	0.1707	0.7736	-0.022
Mof_C 	C 	0.565	0.11211	0.7333	0.121
Mof_H 	H 	0.5961	0.0829	0.7234	0.021
Mof_C 	C 	0.4202	0.87605	0.7479	0.109
Mof_H 	H 	0.3685	0.868	0.763	-0.023
Mof_C 	C 	0.5237	0.91827	0.7176	0.116
Mof_H 	H 	0.5588	0.9456	0.7073	0.023
Mof_C 	C 	0.4292	0.06667	0.7628	0.356
Mof_C 	C 	0.4105	0.97253	0.7572	0.343
Mof_C 	C 	0.47	0.01713	0.7451	-0.46
Mof_H 	H 	0.4744	0.0185	0.7066	0.187
Mof_H 	H 	0.5297	0.0125	0.7645	0.175
Mof_C 	C 	0.3189	0.97879	0.7262	-0.44
Mof_H 	H 	0.3226	0.9792	0.6877	0.164
Mof_H 	H 	0.2811	0.9496	0.7339	0.149
Mof_C 	C 	0.2798	0.02937	0.7428	0.329
Mof_H 	H 	0.22	0.0341	0.7225	-0.068
Mof_C 	C 	0.3389	0.07448	0.7312	-0.448
Mof_H 	H 	0.3133	0.1074	0.7415	0.159
Mof_H 	H 	0.3438	0.0758	0.6928	0.175
Mof_C 	C 	0.423	0.06532	0.8214	-0.445
Mof_H 	H 	0.4823	0.0613	0.8415	0.148
Mof_H 	H 	0.3977	0.098	0.8324	0.15
Mof_C 	C 	0.3648	0.02015	0.8334	0.321
Mof_H 	H 	0.3605	0.019	0.8722	-0.08
Mof_C 	C 	0.4041	0.96977	0.8162	-0.434
Mof_H 	H 	0.3665	0.9404	0.8237	0.145
Mof_H 	H 	0.4632	0.9645	0.8363	0.145
Mof_C 	C 	0.2726	0.0278	0.8021	-0.434
Mof_H 	H 	0.2469	0.0604	0.813	0.165
Mof_H 	H 	0.2336	0.9992	0.8097	0.153
Mof_O 	O 	0.6083	0.88804	0.62002	-0.756
Mof_H 	H 	0.6381	0.8812	0.5947	0.329
Mof_H 	H 	0.5541	0.884	0.6081	0.353
Mof_O 	O 	0.3238	0.86211	0.35358	-0.761
Mof_H 	H 	0.3721	0.8548	0.3731	0.36
Mof_H 	H 	0.283	0.8624	0.3736	0.323
_end
