# CIF file generated by openbabel 3.1.0, see https://openbabel.org
data_I
_chemical_name_common 'WECSAZ01_clean'
_cell_length_a 8.613
_cell_length_b 10.122
_cell_length_c 11.095
_cell_angle_alpha 65.205
_cell_angle_beta 71.609
_cell_angle_gamma 78.617
_space_group_name_H-M_alt 'P 1'
_space_group_name_Hall 'P 1'
loop_
    _symmetry_equiv_pos_as_xyz
    x,y,z
loop_
    _atom_site_label
    _atom_site_type_symbol
    _atom_site_fract_x
    _atom_site_fract_y
    _atom_site_fract_z
    _atom_site_occupancy
    Eu1      Eu       0.36782    0.06061    0.34674    1.000
    Eu2      Eu       0.63218    0.93939    0.65326    1.000
    H1       H        0.57590    0.71690    0.31760    1.000
    H2       H        0.49150    0.47320    0.71700    1.000
    H3       H        0.95770    0.14840    0.12040    1.000
    H4       H        0.78470    0.87940    0.02000    1.000
    H5       H        0.27050    0.43450    0.91570    1.000
    H6       H        0.86630    0.38590    0.22900    1.000
    H7       H        0.42410    0.28310    0.68240    1.000
    H8       H        0.50850    0.52680    0.28300    1.000
    H9       H        0.04230    0.85160    0.87960    1.000
    H10      H        0.21530    0.12060    0.98000    1.000
    H11      H        0.72950    0.56550    0.08430    1.000
    H12      H        0.13370    0.61410    0.77100    1.000
    C1       C        0.57140    0.73530    0.54960    1.000
    C2       C        0.53110    0.61350    0.52400    1.000
    C3       C        0.54360    0.63050    0.39150    1.000
    C4       C        0.49310    0.48500    0.62880    1.000
    C5       C        0.67900    0.04110    0.16790    1.000
    C6       C        0.84540    0.01780    0.08200    1.000
    C7       C        0.97490    0.08910    0.07140    1.000
    C8       C        0.87070    0.92820    0.01180    1.000
    C9       C        0.17420    0.26640    0.18260    1.000
    C10      C        0.08200    0.38840    0.08780    1.000
    C11      C        0.16080    0.46080    0.94940    1.000
    C12      C        0.92000    0.43130    0.13660    1.000
    C13      C        0.42860    0.26470    0.45040    1.000
    C14      C        0.46890    0.38650    0.47600    1.000
    C15      C        0.45640    0.36950    0.60850    1.000
    C16      C        0.50690    0.51500    0.37120    1.000
    C17      C        0.32100    0.95890    0.83210    1.000
    C18      C        0.15460    0.98220    0.91800    1.000
    C19      C        0.02510    0.91090    0.92860    1.000
    C20      C        0.12930    0.07180    0.98820    1.000
    C21      C        0.82580    0.73360    0.81740    1.000
    C22      C        0.91800    0.61160    0.91220    1.000
    C23      C        0.83920    0.53920    0.05060    1.000
    C24      C        0.08000    0.56870    0.86340    1.000
    O1       O        0.53680    0.86820    0.47800    1.000
    O2       O        0.63380    0.70360    0.64640    1.000
    O3       O        0.65570    0.12060    0.23470    1.000
    O4       O        0.56320    0.97520    0.17620    1.000
    O5       O        0.10120    0.20120    0.30410    1.000
    O6       O        0.32200    0.23540    0.13090    1.000
    O7       O        0.46320    0.13180    0.52200    1.000
    O8       O        0.36620    0.29640    0.35360    1.000
    O9       O        0.34430    0.87940    0.76530    1.000
    O10      O        0.43680    0.02480    0.82380    1.000
    O11      O        0.89880    0.79880    0.69590    1.000
    O12      O        0.67800    0.76460    0.86910    1.000
