data_functionalizedCrystal
_audit_creation_method	'EQeq! by Chris Wilmer'
_symmetry_space_group_name_H-M	'P1'
_symmetry_Int_Tables_number	1
_symmetry_cell_setting	triclinic
loop_
_symmetry_equiv_pos_as_xyz
  x,y,z
_cell_length_a	13.372
_cell_length_b	14.164
_cell_length_c	16.713
_cell_angle_alpha	69.626
_cell_angle_beta	68.786
_cell_angle_gamma	73.544
loop_
_atom_site_label
_atom_site_type_symbol
_atom_site_fract_x
_atom_site_fract_y
_atom_site_fract_z
_atom_site_charge
Mof_Mn	Mn	0.5	0	0.5	0.75
Mof_Zn	Zn	0.08223	0.5671	0.95932	1.228
Mof_Zn	Zn	0.91777	0.4329	0.04068	1.227
Mof_H 	H 	0.9585	0.7741	0.743	0.03
Mof_H 	H 	0.854	0.8734	0.632	0.099
Mof_H 	H 	0.6155	0.7219	0.7879	0.126
Mof_H 	H 	0.7154	0.6239	0.8815	0.012
Mof_H 	H 	0.5944	0.9509	0.7812	0.059
Mof_H 	H 	0.4435	0.0971	0.7818	0.083
Mof_H 	H 	0.188	0.293	0.5731	0.066
Mof_H 	H 	0.1805	0.2831	0.4346	0.061
Mof_H 	H 	0.3964	0.3265	0.6413	0.077
Mof_H 	H 	0.3101	0.4238	0.7526	0.045
Mof_H 	H 	0.0837	0.2346	0.8741	0.048
Mof_H 	H 	0.1842	0.1455	0.7621	0.09
Mof_H 	H 	0.1769	0.5988	0.0814	0.034
Mof_H 	H 	0.2908	0.6967	0.0757	0.101
Mof_H 	H 	0.3112	0.8303	0.8126	0.112
Mof_H 	H 	0.2132	0.7249	0.8316	-0.031
Mof_H 	H 	0.2633	0.1331	0.9541	0.017
Mof_H 	H 	0.6552	0.7598	0.0278	0.046
Mof_H 	H 	0.0415	0.2259	0.257	0.026
Mof_H 	H 	0.146	0.1266	0.368	0.092
Mof_H 	H 	0.3845	0.2781	0.2121	0.126
Mof_H 	H 	0.2846	0.3761	0.1185	0.012
Mof_H 	H 	0.4056	0.0491	0.2188	0.077
Mof_H 	H 	0.5565	0.9029	0.2182	0.062
Mof_H 	H 	0.812	0.707	0.4269	0.065
Mof_H 	H 	0.8195	0.7169	0.5654	0.063
Mof_H 	H 	0.6036	0.6735	0.3587	0.077
Mof_H 	H 	0.6899	0.5762	0.2474	0.045
Mof_H 	H 	0.9163	0.7654	0.1259	0.05
Mof_H 	H 	0.8158	0.8545	0.2379	0.095
Mof_H 	H 	0.8231	0.4012	0.9186	0.035
Mof_H 	H 	0.7092	0.3033	0.9243	0.098
Mof_H 	H 	0.6888	0.1697	0.1874	0.106
Mof_H 	H 	0.7868	0.2751	0.1684	-0.033
Mof_H 	H 	0.7367	0.8669	0.0459	0.074
Mof_H 	H 	0.3448	0.2402	0.9722	0.086
Mof_C 	C 	0.9141	0.6328	0.884	0.356
Mof_C 	C 	0.8418	0.6905	0.8205	-0.142
Mof_C 	C 	0.8901	0.7629	0.7503	0.068
Mof_C 	C 	0.826	0.8247	0.684	-0.175
Mof_C 	C 	0.7229	0.8031	0.707	0.173
Mof_C 	C 	0.6852	0.7332	0.7763	-0.239
Mof_C 	C 	0.7444	0.6754	0.8328	0.138
Mof_C 	C 	0.6566	0.8651	0.641	-0.145
Mof_C 	C 	0.5809	0.9465	0.6601	0.109
Mof_C 	C 	0.5575	0.9802	0.7382	-0.043
Mof_C 	C 	0.4744	0.0604	0.7395	-0.129
Mof_C 	C 	0.4442	0.0765	0.6615	0.124
Mof_C 	C 	0.3532	0.1542	0.64	-0.148
Mof_C 	C 	0.3294	0.1717	0.5624	0.116
Mof_C 	C 	0.2353	0.2487	0.5399	-0.089
Mof_C 	C 	0.2308	0.2431	0.4652	-0.076
Mof_C 	C 	0.3202	0.1618	0.4385	0.097
Mof_C 	C 	0.2992	0.2188	0.6987	0.125
Mof_C 	C 	0.3364	0.3072	0.6891	-0.13
Mof_C 	C 	0.2822	0.3701	0.7535	0.012
Mof_C 	C 	0.1872	0.3415	0.8144	-0.054
Mof_C 	C 	0.1449	0.2548	0.8282	0.019
Mof_C 	C 	0.211	0.2006	0.7602	-0.143
Mof_C 	C 	0.1193	0.4083	0.8888	0.325
Mof_C 	C 	0.2032	0.6457	0.0274	0.019
Mof_C 	C 	0.2713	0.7116	0.024	-0.15
Mof_C 	C 	0.3109	0.7915	0.9572	0.195
Mof_C 	C 	0.285	0.7881	0.8694	-0.2
Mof_C 	C 	0.2208	0.7172	0.8868	0.202
Mof_C 	C 	0.327	0.9523	0.9525	0.306
Mof_C 	C 	0.467	0.802	0.9831	0.21
Mof_C 	C 	0.3296	0.1061	0.9667	0.087
Mof_C 	C 	0.369	0.008	0.9712	-0.211
Mof_C 	C 	0.4772	0.9639	0.9928	0.119
Mof_C 	C 	0.522	0.8616	0.998	-0.103
Mof_C 	C 	0.6218	0.8281	0.0209	0.01
Mof_C 	C 	0.0859	0.3672	0.116	0.356
Mof_C 	C 	0.1582	0.3095	0.1795	-0.143
Mof_C 	C 	0.1099	0.2371	0.2497	0.066
Mof_C 	C 	0.174	0.1753	0.316	-0.177
Mof_C 	C 	0.2771	0.1969	0.293	0.172
Mof_C 	C 	0.3148	0.2668	0.2237	-0.24
Mof_C 	C 	0.2556	0.3246	0.1672	0.137
Mof_C 	C 	0.3434	0.1349	0.359	-0.146
Mof_C 	C 	0.4191	0.0535	0.3399	0.101
Mof_C 	C 	0.4425	0.0198	0.2618	-0.116
Mof_C 	C 	0.5256	0.9396	0.2605	-0.048
Mof_C 	C 	0.5558	0.9235	0.3385	0.108
Mof_C 	C 	0.6468	0.8458	0.36	-0.136
Mof_C 	C 	0.6706	0.8283	0.4376	0.114
Mof_C 	C 	0.7647	0.7513	0.4601	-0.084
Mof_C 	C 	0.7692	0.7569	0.5348	-0.078
Mof_C 	C 	0.6798	0.8382	0.5615	0.102
Mof_C 	C 	0.7008	0.7812	0.3013	0.121
Mof_C 	C 	0.6636	0.6928	0.3109	-0.127
Mof_C 	C 	0.7178	0.6299	0.2465	0.011
Mof_C 	C 	0.8128	0.6585	0.1856	-0.053
Mof_C 	C 	0.8551	0.7452	0.1718	0.018
Mof_C 	C 	0.789	0.7994	0.2398	-0.14
Mof_C 	C 	0.8807	0.5917	0.1112	0.325
Mof_C 	C 	0.7968	0.3543	0.9726	0.016
Mof_C 	C 	0.7287	0.2884	0.976	-0.144
Mof_C 	C 	0.6891	0.2085	0.0428	0.184
Mof_C 	C 	0.715	0.2119	0.1306	-0.198
Mof_C 	C 	0.7792	0.2828	0.1132	0.199
Mof_C 	C 	0.673	0.0477	0.0475	0.183
Mof_C 	C 	0.533	0.198	0.0169	0.164
Mof_C 	C 	0.6704	0.8939	0.0333	-0.062
Mof_C 	C 	0.631	0.992	0.0288	-0.017
Mof_C 	C 	0.5228	0.0361	0.0072	-0.049
Mof_C 	C 	0.478	0.1384	0.002	-0.003
Mof_C 	C 	0.3782	0.1719	0.9791	-0.109
Mof_N 	N 	0.5055	0.0106	0.6119	-0.245
Mof_N 	N 	0.3752	0.1119	0.5046	-0.237
Mof_N 	N 	0.1696	0.6501	0.9379	-0.316
Mof_N 	N 	0.3645	0.8529	0.9594	-0.218
Mof_N 	N 	0.4945	0.9894	0.3881	-0.222
Mof_N 	N 	0.6248	0.8881	0.4954	-0.23
Mof_N 	N 	0.8304	0.3499	0.0621	-0.316
Mof_N 	N 	0.6355	0.1471	0.0406	-0.189
Mof_O 	O 	0.9985	0.6589	0.8749	-0.445
Mof_O 	O 	0.8684	0.5545	0.9415	-0.436
Mof_O 	O 	0.0331	0.3755	0.94	-0.443
Mof_O 	O 	0.1618	0.4838	0.874	-0.443
Mof_O 	O 	0.237	0.9788	0.9327	-0.228
Mof_O 	O 	0.5033	0.7082	0.9884	-0.217
Mof_O 	O 	0.0015	0.3411	0.1251	-0.446
Mof_O 	O 	0.1316	0.4455	0.0585	-0.437
Mof_O 	O 	0.9669	0.6245	0.06	-0.442
Mof_O 	O 	0.8382	0.5162	0.126	-0.443
Mof_O 	O 	0.763	0.0212	0.0673	-0.216
Mof_O 	O 	0.4967	0.2918	0.0116	-0.207
_end
