data_functionalizedCrystal
_audit_creation_method	'EQeq! by Chris Wilmer'
_symmetry_space_group_name_H-M	'P1'
_symmetry_Int_Tables_number	1
_symmetry_cell_setting	triclinic
loop_
_symmetry_equiv_pos_as_xyz
  x,y,z
_cell_length_a	13.3473
_cell_length_b	13.3473
_cell_length_c	14.2599
_cell_angle_alpha	90
_cell_angle_beta	90
_cell_angle_gamma	120
loop_
_atom_site_label
_atom_site_type_symbol
_atom_site_fract_x
_atom_site_fract_y
_atom_site_fract_z
_atom_site_charge
Mof_Er	Er	0.33333	0.66666	0.33304	2.041
Mof_Er	Er	0.66667	0.33334	0.16696	2.042
Mof_Er	Er	0.66667	0.33334	0.66696	2.046
Mof_Er	Er	0.33333	0.66666	0.83304	2.046
Mof_Cu	Cu	0.5	1.1474e-32	0.5	0.898
Mof_Cu	Cu	0.5	0.5	0.5	0.929
Mof_Cu	Cu	3.793e-17	0.5	0.5	0.9
Mof_Cu	Cu	0.5	0	-0	0.871
Mof_Cu	Cu	-0	0.5	-0	0.873
Mof_Cu	Cu	0.5	0.5	-0	0.902
Mof_H 	H 	0.6729	0.0226	0.5797	0.036
Mof_H 	H 	0.6829	0.8625	0.5202	0.147
Mof_H 	H 	0.705	0.9601	0.4479	0.164
Mof_H 	H 	0.601	0.9133	0.6956	0.175
Mof_H 	H 	0.5395	0.8055	0.6293	0.169
Mof_H 	H 	0.3497	0.3271	0.5797	0.092
Mof_H 	H 	0.1796	0.3171	0.5202	0.109
Mof_H 	H 	0.2551	0.295	0.4479	0.112
Mof_H 	H 	0.3123	0.399	0.6956	0.144
Mof_H 	H 	0.266	0.4605	0.6293	0.159
Mof_H 	H 	0.9774	0.6503	0.5797	0.157
Mof_H 	H 	0.1375	0.8204	0.5202	0.127
Mof_H 	H 	0.0399	0.7449	0.4479	0.104
Mof_H 	H 	0.0867	0.6877	0.6956	0.134
Mof_H 	H 	0.1945	0.734	0.6293	0.164
Mof_H 	H 	0.6503	0.9774	0.9203	0.16
Mof_H 	H 	0.8204	0.1375	0.9798	0.226
Mof_H 	H 	0.7449	0.0399	0.0521	0.15
Mof_H 	H 	0.6877	0.0867	0.8044	0.135
Mof_H 	H 	0.734	0.1945	0.8707	0.176
Mof_H 	H 	0.0226	0.6729	0.9203	0.044
Mof_H 	H 	0.8625	0.6829	0.9798	0.244
Mof_H 	H 	0.9601	0.705	0.0521	0.21
Mof_H 	H 	0.9133	0.601	0.8044	0.176
Mof_H 	H 	0.8055	0.5395	0.8707	0.181
Mof_H 	H 	0.3271	0.3497	0.9203	0.094
Mof_H 	H 	0.3171	0.1796	0.9798	0.214
Mof_H 	H 	0.295	0.2551	0.0521	0.163
Mof_H 	H 	0.399	0.3123	0.8044	0.147
Mof_H 	H 	0.4605	0.266	0.8707	0.172
Mof_H 	H 	0.3271	0.9774	0.4203	0.157
Mof_H 	H 	0.3171	0.1375	0.4798	0.106
Mof_H 	H 	0.295	0.0399	0.5521	0.089
Mof_H 	H 	0.399	0.0867	0.3044	0.125
Mof_H 	H 	0.4605	0.1945	0.3707	0.158
Mof_H 	H 	0.6503	0.6729	0.4203	0.099
Mof_H 	H 	0.8204	0.6829	0.4798	0.146
Mof_H 	H 	0.7449	0.705	0.5521	0.141
Mof_H 	H 	0.6877	0.601	0.3044	0.158
Mof_H 	H 	0.734	0.5395	0.3707	0.169
Mof_H 	H 	0.0226	0.3497	0.4203	0.035
Mof_H 	H 	0.8625	0.1796	0.4798	0.126
Mof_H 	H 	0.9601	0.2551	0.5521	0.149
Mof_H 	H 	0.9133	0.3123	0.3044	0.167
Mof_H 	H 	0.8055	0.266	0.3707	0.163
Mof_H 	H 	0.3497	0.0226	0.0797	0.03
Mof_H 	H 	0.1796	0.8625	0.0202	0.026
Mof_H 	H 	0.2551	0.9601	0.9479	0.103
Mof_H 	H 	0.3123	0.9133	0.1956	0.165
Mof_H 	H 	0.266	0.8055	0.1293	0.15
Mof_H 	H 	0.9774	0.3271	0.0797	0.153
Mof_H 	H 	0.1375	0.3171	0.0202	0
Mof_H 	H 	0.0399	0.295	0.9479	0.041
Mof_H 	H 	0.0867	0.399	0.1956	0.122
Mof_H 	H 	0.1945	0.4605	0.1293	0.145
Mof_H 	H 	0.6729	0.6503	0.0797	0.099
Mof_H 	H 	0.6829	0.8204	0.0202	0.046
Mof_H 	H 	0.705	0.7449	0.9479	0.093
Mof_H 	H 	0.601	0.6877	0.1956	0.154
Mof_H 	H 	0.5395	0.734	0.1293	0.156
Mof_C 	C 	0.5467	0.8145	0.4302	0.41
Mof_C 	C 	0.6474	0.9013	0.4886	-0.33
Mof_C 	C 	0.5513	0.8821	0.6411	-0.395
Mof_C 	C 	0.4366	0.8733	0.6617	0.5
Mof_C 	C 	0.2678	0.4533	0.4302	0.391
Mof_C 	C 	0.2539	0.3526	0.4886	-0.297
Mof_C 	C 	0.3308	0.4487	0.6411	-0.382
Mof_C 	C 	0.4367	0.5634	0.6617	0.491
Mof_C 	C 	0.1855	0.7322	0.4302	0.388
Mof_C 	C 	0.0987	0.7461	0.4886	-0.297
Mof_C 	C 	0.1179	0.6692	0.6411	-0.379
Mof_C 	C 	0.1267	0.5633	0.6617	0.486
Mof_C 	C 	0.7322	0.1855	0.0698	0.437
Mof_C 	C 	0.7461	0.0987	0.0114	-0.497
Mof_C 	C 	0.6692	0.1179	0.8589	-0.383
Mof_C 	C 	0.5633	0.1267	0.8383	0.492
Mof_C 	C 	0.8145	0.5467	0.0698	0.457
Mof_C 	C 	0.9013	0.6474	0.0114	-0.525
Mof_C 	C 	0.8821	0.5513	0.8589	-0.4
Mof_C 	C 	0.8733	0.4366	0.8383	0.506
Mof_C 	C 	0.4533	0.2678	0.0698	0.442
Mof_C 	C 	0.3526	0.2539	0.0114	-0.505
Mof_C 	C 	0.4487	0.3308	0.8589	-0.389
Mof_C 	C 	0.5634	0.4367	0.8383	0.498
Mof_C 	C 	0.4533	0.1855	0.5698	0.383
Mof_C 	C 	0.3526	0.0987	0.5114	-0.284
Mof_C 	C 	0.4487	0.1179	0.3589	-0.372
Mof_C 	C 	0.5634	0.1267	0.3383	0.483
Mof_C 	C 	0.7322	0.5467	0.5698	0.402
Mof_C 	C 	0.7461	0.6474	0.5114	-0.321
Mof_C 	C 	0.6692	0.5513	0.3589	-0.39
Mof_C 	C 	0.5633	0.4366	0.3383	0.495
Mof_C 	C 	0.8145	0.2678	0.5698	0.405
Mof_C 	C 	0.9013	0.2539	0.5114	-0.317
Mof_C 	C 	0.8821	0.3308	0.3589	-0.389
Mof_C 	C 	0.8733	0.4367	0.3383	0.498
Mof_C 	C 	0.2678	0.8145	0.9302	0.357
Mof_C 	C 	0.2539	0.9013	0.9886	-0.116
Mof_C 	C 	0.3308	0.8821	0.1411	-0.38
Mof_C 	C 	0.4367	0.8733	0.1617	0.491
Mof_C 	C 	0.1855	0.4533	0.9302	0.332
Mof_C 	C 	0.0987	0.3526	0.9886	-0.071
Mof_C 	C 	0.1179	0.4487	0.1411	-0.362
Mof_C 	C 	0.1267	0.5634	0.1617	0.476
Mof_C 	C 	0.5467	0.7322	0.9302	0.354
Mof_C 	C 	0.6474	0.7461	0.9886	-0.12
Mof_C 	C 	0.5513	0.6692	0.1411	-0.38
Mof_C 	C 	0.4366	0.5633	0.1617	0.487
Mof_N 	N 	0.6096	0.9569	0.55913	-0.09
Mof_N 	N 	0.3473	0.3904	0.55913	-0.156
Mof_N 	N 	0.0431	0.6527	0.55913	-0.206
Mof_N 	N 	0.6527	0.0431	0.94087	-0.153
Mof_N 	N 	0.9569	0.6096	0.94087	-0.043
Mof_N 	N 	0.3904	0.3473	0.94087	-0.1
Mof_N 	N 	0.3904	0.0431	0.44087	-0.212
Mof_N 	N 	0.6527	0.6096	0.44087	-0.151
Mof_N 	N 	0.9569	0.3473	0.44087	-0.096
Mof_N 	N 	0.3473	0.9569	0.05913	-0.14
Mof_N 	N 	0.0431	0.3904	0.05913	-0.26
Mof_N 	N 	0.6096	0.6527	0.05913	-0.2
Mof_O 	O 	0.4499	0.8097	0.44074	-0.503
Mof_O 	O 	0.5599	0.7526	0.37202	-0.386
Mof_O 	O 	0.402	0.9263	0.60909	-0.398
Mof_O 	O 	0.3794	0.8139	0.73003	-0.514
Mof_O 	O 	0.3598	0.5501	0.44074	-0.51
Mof_O 	O 	0.1927	0.4401	0.37202	-0.397
Mof_O 	O 	0.5243	0.598	0.60909	-0.428
Mof_O 	O 	0.4345	0.6206	0.73003	-0.519
Mof_O 	O 	0.1903	0.6402	0.44074	-0.513
Mof_O 	O 	0.2474	0.8073	0.37202	-0.383
Mof_O 	O 	0.0737	0.4757	0.60909	-0.452
Mof_O 	O 	0.1861	0.5655	0.73003	-0.527
Mof_O 	O 	0.6402	0.1903	0.05926	-0.541
Mof_O 	O 	0.8073	0.2474	0.12798	-0.405
Mof_O 	O 	0.4757	0.0737	0.89091	-0.434
Mof_O 	O 	0.5655	0.1861	0.76997	-0.527
Mof_O 	O 	0.8097	0.4499	0.05926	-0.531
Mof_O 	O 	0.7526	0.5599	0.12798	-0.407
Mof_O 	O 	0.9263	0.402	0.89091	-0.382
Mof_O 	O 	0.8139	0.3794	0.76997	-0.514
Mof_O 	O 	0.5501	0.3598	0.05926	-0.539
Mof_O 	O 	0.4401	0.1927	0.12798	-0.419
Mof_O 	O 	0.598	0.5243	0.89091	-0.41
Mof_O 	O 	0.6206	0.4345	0.76997	-0.518
Mof_O 	O 	0.5501	0.1903	0.55926	-0.513
Mof_O 	O 	0.4401	0.2474	0.62798	-0.392
Mof_O 	O 	0.598	0.0737	0.39091	-0.452
Mof_O 	O 	0.6206	0.1861	0.26997	-0.524
Mof_O 	O 	0.6402	0.4499	0.55926	-0.512
Mof_O 	O 	0.8073	0.5599	0.62798	-0.38
Mof_O 	O 	0.4757	0.402	0.39091	-0.433
Mof_O 	O 	0.5655	0.3794	0.26997	-0.521
Mof_O 	O 	0.8097	0.3598	0.55926	-0.504
Mof_O 	O 	0.7526	0.1927	0.62798	-0.394
Mof_O 	O 	0.9263	0.5243	0.39091	-0.398
Mof_O 	O 	0.8139	0.4345	0.26997	-0.511
Mof_O 	O 	0.3598	0.8097	0.94074	-0.47
Mof_O 	O 	0.1927	0.7526	0.87202	-0.371
Mof_O 	O 	0.5243	0.9263	0.10909	-0.404
Mof_O 	O 	0.4345	0.8139	0.23003	-0.512
Mof_O 	O 	0.1903	0.5501	0.94074	-0.478
Mof_O 	O 	0.2474	0.4401	0.87202	-0.368
Mof_O 	O 	0.0737	0.598	0.10909	-0.459
Mof_O 	O 	0.1861	0.6206	0.23003	-0.525
Mof_O 	O 	0.4499	0.6402	0.94074	-0.478
Mof_O 	O 	0.5599	0.8073	0.87202	-0.358
Mof_O 	O 	0.402	0.4757	0.10909	-0.442
Mof_O 	O 	0.3794	0.5655	0.23003	-0.521
_end
