data_functionalizedCrystal
_audit_creation_method	'EQeq! by Chris Wilmer'
_symmetry_space_group_name_H-M	'P1'
_symmetry_Int_Tables_number	1
_symmetry_cell_setting	triclinic
loop_
_symmetry_equiv_pos_as_xyz
  x,y,z
_cell_length_a	14.802
_cell_length_b	14.78
_cell_length_c	20.801
_cell_angle_alpha	90
_cell_angle_beta	90.36
_cell_angle_gamma	90
loop_
_atom_site_label
_atom_site_type_symbol
_atom_site_fract_x
_atom_site_fract_y
_atom_site_fract_z
_atom_site_charge
Mof_As	As	0.54589	0.02503	0.37157	0.137
Mof_As	As	0.38037	0.77363	0.12329	0.143
Mof_As	As	0.3359	0.23164	0.12136	0.149
Mof_As	As	0.09077	0.97933	0.32931	0.146
Mof_Mn	Mn	0.47288	0.88906	0.24993	0.593
Mof_Mn	Mn	0.44835	0.13526	0.24599	0.592
Mof_Mn	Mn	0.31677	0.00072	0.36021	0.59
Mof_Mn	Mn	0.22698	0.86539	0.22448	0.592
Mof_Mn	Mn	0.35999	0.0026	0.11497	0.592
Mof_Mn	Mn	0.20532	0.11259	0.22583	0.591
Mof_S 	S 	0.3385	0.0004	0.23712	-0.612
Mof_S 	S 	0.5838	0.0258	0.2667	-0.265
Mof_S 	S 	0.4615	0.8989	0.37383	-0.265
Mof_S 	S 	0.362	0.7536	0.22943	-0.265
Mof_S 	S 	0.4884	0.8813	0.12509	-0.258
Mof_S 	S 	0.4366	0.1298	0.37156	-0.265
Mof_S 	S 	0.4618	0.1474	0.12129	-0.257
Mof_S 	S 	0.3163	0.2492	0.22787	-0.266
Mof_S 	S 	0.233	0.1234	0.10169	-0.253
Mof_S 	S 	0.1966	0.8727	0.34842	-0.261
Mof_S 	S 	0.2568	0.8564	0.10105	-0.245
Mof_S 	S 	0.0915	0.9788	0.22129	-0.257
Mof_S 	S 	0.1717	0.1045	0.34981	-0.253
Mof_N 	N 	0.5878	0.788	0.2595	-0.256
Mof_H 	H 	0.6398	0.8185	0.2539	0.101
Mof_H 	H 	0.588	0.7677	0.3003	0.102
Mof_N 	N 	0.5902	0.7117	0.2188	-0.257
Mof_H 	H 	0.5883	0.7321	0.1781	0.101
Mof_H 	H 	0.5388	0.6805	0.2252	0.101
Mof_N 	N 	0.5465	0.2512	0.2523	-0.258
Mof_H 	H 	0.5168	0.302	0.2411	0.101
Mof_H 	H 	0.563	0.2574	0.2938	0.1
Mof_N 	N 	0.6266	0.2466	0.215	-0.256
Mof_H 	H 	0.6103	0.2419	0.1734	0.104
Mof_H 	H 	0.656	0.1954	0.2257	0.102
Mof_N 	N 	0.2975	0.0024	0.4691	-0.258
Mof_H 	H 	0.2668	0.0528	0.4795	0.104
Mof_H 	H 	0.2629	0.9547	0.4799	0.104
Mof_N 	N 	0.3774	0.9995	0.5073	-0.257
Mof_H 	H 	0.4113	0.0479	0.4972	0.099
Mof_H 	H 	0.4088	0.9499	0.496	0.101
Mof_As	As	0.04589	0.52503	0.37157	0.17
Mof_As	As	0.88037	0.27363	0.12329	0.137
Mof_As	As	0.8359	0.73164	0.12136	0.145
Mof_As	As	0.59077	0.47933	0.32931	0.14
Mof_Mn	Mn	0.97288	0.38906	0.24993	0.571
Mof_Mn	Mn	0.94835	0.63526	0.24599	0.57
Mof_Mn	Mn	0.81677	0.50072	0.36021	0.592
Mof_Mn	Mn	0.72698	0.36539	0.22448	0.592
Mof_Mn	Mn	0.85999	0.5026	0.11497	0.595
Mof_Mn	Mn	0.70532	0.61259	0.22583	0.592
Mof_S 	S 	0.8385	0.5004	0.23712	-0.608
Mof_S 	S 	0.0838	0.5258	0.2667	-0.238
Mof_S 	S 	0.9615	0.3989	0.37383	-0.288
Mof_S 	S 	0.862	0.2536	0.22943	-0.274
Mof_S 	S 	0.9884	0.3813	0.12509	-0.274
Mof_S 	S 	0.9366	0.6298	0.37156	-0.286
Mof_S 	S 	0.9618	0.6474	0.12129	-0.271
Mof_S 	S 	0.8163	0.7492	0.22787	-0.272
Mof_S 	S 	0.733	0.6234	0.10169	-0.257
Mof_S 	S 	0.6966	0.3727	0.34842	-0.266
Mof_S 	S 	0.7568	0.3564	0.10105	-0.25
Mof_S 	S 	0.5915	0.4788	0.22129	-0.265
Mof_S 	S 	0.6717	0.6045	0.34981	-0.258
Mof_N 	N 	0.0878	0.288	0.2595	-0.25
Mof_H 	H 	0.1398	0.3185	0.2539	0.104
Mof_H 	H 	0.088	0.2677	0.3003	0.107
Mof_N 	N 	0.0902	0.2117	0.2188	-0.26
Mof_H 	H 	0.0883	0.2321	0.1781	0.109
Mof_H 	H 	0.0388	0.1805	0.2252	0.109
Mof_N 	N 	0.0465	0.7512	0.2523	-0.253
Mof_H 	H 	0.0168	0.802	0.2411	0.108
Mof_H 	H 	0.063	0.7574	0.2938	0.105
Mof_N 	N 	0.1266	0.7466	0.215	-0.257
Mof_H 	H 	0.1103	0.7419	0.1734	0.111
Mof_H 	H 	0.156	0.6954	0.2257	0.105
Mof_N 	N 	0.7975	0.5024	0.4691	-0.257
Mof_H 	H 	0.7668	0.5528	0.4795	0.102
Mof_H 	H 	0.7629	0.4547	0.4799	0.101
Mof_N 	N 	0.8774	0.4995	0.5073	-0.257
Mof_H 	H 	0.9113	0.5479	0.4972	0.097
Mof_H 	H 	0.9088	0.4499	0.496	0.098
Mof_As	As	0.54589	0.97497	0.87157	0.136
Mof_As	As	0.38037	0.22637	0.62329	0.14
Mof_As	As	0.3359	0.76836	0.62136	0.145
Mof_As	As	0.09077	0.02067	0.82931	0.143
Mof_Mn	Mn	0.47288	0.11094	0.74993	0.593
Mof_Mn	Mn	0.44835	0.86474	0.74599	0.593
Mof_Mn	Mn	0.31677	0.99928	0.86021	0.592
Mof_Mn	Mn	0.22698	0.13461	0.72448	0.592
Mof_Mn	Mn	0.35999	0.9974	0.61497	0.591
Mof_Mn	Mn	0.20532	0.88741	0.72583	0.592
Mof_S 	S 	0.3385	0.9996	0.73712	-0.609
Mof_S 	S 	0.5838	0.9742	0.7667	-0.266
Mof_S 	S 	0.4615	0.1011	0.87383	-0.271
Mof_S 	S 	0.362	0.2464	0.72943	-0.267
Mof_S 	S 	0.4884	0.1187	0.62509	-0.267
Mof_S 	S 	0.4366	0.8702	0.87156	-0.269
Mof_S 	S 	0.4618	0.8526	0.62129	-0.264
Mof_S 	S 	0.3163	0.7508	0.72787	-0.267
Mof_S 	S 	0.233	0.8766	0.60169	-0.261
Mof_S 	S 	0.1966	0.1273	0.84842	-0.266
Mof_S 	S 	0.2568	0.1436	0.60105	-0.255
Mof_S 	S 	0.0915	0.0212	0.72129	-0.26
Mof_S 	S 	0.1717	0.8955	0.84981	-0.256
Mof_N 	N 	0.5878	0.212	0.7595	-0.256
Mof_H 	H 	0.6398	0.1815	0.7539	0.1
Mof_H 	H 	0.588	0.2323	0.8003	0.1
Mof_N 	N 	0.5902	0.2883	0.7188	-0.257
Mof_H 	H 	0.5883	0.2679	0.6781	0.1
Mof_H 	H 	0.5388	0.3195	0.7252	0.1
Mof_N 	N 	0.5465	0.7488	0.7523	-0.258
Mof_H 	H 	0.5168	0.698	0.7411	0.1
Mof_H 	H 	0.563	0.7426	0.7938	0.099
Mof_N 	N 	0.6266	0.7534	0.715	-0.255
Mof_H 	H 	0.6103	0.7581	0.6734	0.103
Mof_H 	H 	0.656	0.8046	0.7257	0.101
Mof_N 	N 	0.2975	0.9976	0.9691	-0.261
Mof_H 	H 	0.2668	0.9472	0.9795	0.097
Mof_H 	H 	0.2629	0.0453	0.9799	0.096
Mof_N 	N 	0.3774	0.0005	0.0073	-0.219
Mof_H 	H 	0.4113	0.9521	0.9972	0.077
Mof_H 	H 	0.4088	0.0501	0.996	0.078
Mof_As	As	0.04589	0.47497	0.87157	0.166
Mof_As	As	0.88037	0.72637	0.62329	0.133
Mof_As	As	0.8359	0.26836	0.62136	0.14
Mof_As	As	0.59077	0.52067	0.82931	0.137
Mof_Mn	Mn	0.97288	0.61094	0.74993	0.572
Mof_Mn	Mn	0.94835	0.36474	0.74599	0.571
Mof_Mn	Mn	0.81677	0.49928	0.86021	0.592
Mof_Mn	Mn	0.72698	0.63461	0.72448	0.593
Mof_Mn	Mn	0.85999	0.4974	0.61497	0.59
Mof_Mn	Mn	0.70532	0.38741	0.72583	0.592
Mof_S 	S 	0.8385	0.4996	0.73712	-0.607
Mof_S 	S 	0.0838	0.4742	0.7667	-0.24
Mof_S 	S 	0.9615	0.6011	0.87383	-0.291
Mof_S 	S 	0.862	0.7464	0.72943	-0.275
Mof_S 	S 	0.9884	0.6187	0.62509	-0.281
Mof_S 	S 	0.9366	0.3702	0.87156	-0.29
Mof_S 	S 	0.9618	0.3526	0.62129	-0.278
Mof_S 	S 	0.8163	0.2508	0.72787	-0.274
Mof_S 	S 	0.733	0.3766	0.60169	-0.266
Mof_S 	S 	0.6966	0.6273	0.84842	-0.27
Mof_S 	S 	0.7568	0.6436	0.60105	-0.259
Mof_S 	S 	0.5915	0.5212	0.72129	-0.268
Mof_S 	S 	0.6717	0.3955	0.84981	-0.262
Mof_N 	N 	0.0878	0.712	0.7595	-0.25
Mof_H 	H 	0.1398	0.6815	0.7539	0.103
Mof_H 	H 	0.088	0.7323	0.8003	0.106
Mof_N 	N 	0.0902	0.7883	0.7188	-0.26
Mof_H 	H 	0.0883	0.7679	0.6781	0.108
Mof_H 	H 	0.0388	0.8195	0.7252	0.109
Mof_N 	N 	0.0465	0.2488	0.7523	-0.253
Mof_H 	H 	0.0168	0.198	0.7411	0.107
Mof_H 	H 	0.063	0.2426	0.7938	0.104
Mof_N 	N 	0.1266	0.2534	0.715	-0.257
Mof_H 	H 	0.1103	0.2581	0.6734	0.109
Mof_H 	H 	0.156	0.3046	0.7257	0.104
Mof_N 	N 	0.7975	0.4976	0.9691	-0.262
Mof_H 	H 	0.7668	0.4472	0.9795	0.096
Mof_H 	H 	0.7629	0.5453	0.9799	0.095
Mof_N 	N 	0.8774	0.5005	0.0073	-0.216
Mof_H 	H 	0.9113	0.4521	0.9972	0.073
Mof_H 	H 	0.9088	0.5501	0.996	0.075
_end
