# CIF file generated by openbabel 3.1.0, see https://openbabel.org
data_I
_chemical_name_common 'LOJFOF_clean'
_cell_length_a 8.79
_cell_length_b 23.6997
_cell_length_c 25.2853
_cell_angle_alpha 85.4157
_cell_angle_beta 79.9902
_cell_angle_gamma 79.3129
_space_group_name_H-M_alt 'P 1'
_space_group_name_Hall 'P 1'
loop_
    _symmetry_equiv_pos_as_xyz
    x,y,z
loop_
    _atom_site_label
    _atom_site_type_symbol
    _atom_site_fract_x
    _atom_site_fract_y
    _atom_site_fract_z
    _atom_site_occupancy
    K1       K        0.68711    0.48755    0.04743    1.000
    K2       K        0.72209    0.01245    0.45257    1.000
    K3       K        0.31289    0.51245    0.95257    1.000
    K4       K        0.27791    0.98755    0.54743    1.000
    Cu1      Cu       0.72293    0.50987    0.54969    1.000
    Cu2      Cu       0.28249    0.99013    0.95031    1.000
    Cu3      Cu       0.27707    0.49013    0.45031    1.000
    Cu4      Cu       0.71751    0.00987    0.04969    1.000
    H1       H        0.84420    0.39860    0.72240    1.000
    H2       H        0.95910    0.33120    0.65140    1.000
    H3       H        0.09850    0.35740    0.43920    1.000
    H4       H        0.00200    0.42820    0.37140    1.000
    H5       H        0.50480    0.59960    0.38340    1.000
    H6       H        0.36350    0.66190    0.45430    1.000
    H7       H        0.43870    0.68240    0.65620    1.000
    H8       H        0.56170    0.61770    0.72270    1.000
    H9       H        0.87500    0.56040    0.74180    1.000
    H10      H        0.87520    0.55970    0.83330    1.000
    H11      H        0.55470    0.45590    0.85870    1.000
    H12      H        0.55230    0.45780    0.76780    1.000
    H13      H        0.23810    0.33490    0.57370    1.000
    H14      H        0.36780    0.24100    0.57920    1.000
    H15      H        0.02050    0.18730    0.52610    1.000
    H16      H        0.89360    0.28180    0.51780    1.000
    H17      H        0.45500    0.11300    0.56500    1.000
    H18      H        0.71110    0.43560    0.34740    1.000
    H19      H        0.72840    0.43790    0.25430    1.000
    H20      H        0.82530    0.59700    0.24540    1.000
    H21      H        0.79920    0.59580    0.33820    1.000
    H22      H        0.87300    0.54000    0.12000    1.000
    H23      H        0.50320    0.73840    0.50640    1.000
    H24      H        0.34670    0.82690    0.50970    1.000
    H25      H        0.01960    0.76110    0.61390    1.000
    H26      H        0.18390    0.67110    0.60910    1.000
    H27      H        0.46520    0.10140    0.77760    1.000
    H28      H        0.44170    0.16880    0.84860    1.000
    H29      H        0.39510    0.14260    0.06080    1.000
    H30      H        0.30160    0.07180    0.12860    1.000
    H31      H        0.98780    0.90040    0.11660    1.000
    H32      H        0.97970    0.83810    0.04570    1.000
    H33      H        0.27730    0.81760    0.84380    1.000
    H34      H        0.40210    0.88230    0.77730    1.000
    H35      H        0.67720    0.93960    0.75820    1.000
    H36      H        0.76820    0.94030    0.66670    1.000
    H37      H        0.36930    0.04410    0.64130    1.000
    H38      H        0.27790    0.04220    0.73220    1.000
    H39      H        0.64670    0.16510    0.92630    1.000
    H40      H        0.68800    0.25900    0.92080    1.000
    H41      H        0.23390    0.31270    0.97390    1.000
    H42      H        0.19320    0.21820    0.98220    1.000
    H43      H        0.63300    0.38700    0.93500    1.000
    H44      H        0.99410    0.06440    0.15260    1.000
    H45      H        0.92060    0.06210    0.24570    1.000
    H46      H        0.16770    0.90300    0.25460    1.000
    H47      H        0.23320    0.90420    0.16180    1.000
    H48      H        0.03300    0.96000    0.38000    1.000
    H49      H        0.24800    0.76160    0.99360    1.000
    H50      H        0.18330    0.67310    0.99030    1.000
    H51      H        0.89460    0.73890    0.88610    1.000
    H52      H        0.96410    0.82890    0.89090    1.000
    H53      H        0.15580    0.60140    0.27760    1.000
    H54      H        0.04090    0.66880    0.34860    1.000
    H55      H        0.90150    0.64260    0.56080    1.000
    H56      H        0.99800    0.57180    0.62860    1.000
    H57      H        0.49520    0.40040    0.61660    1.000
    H58      H        0.63650    0.33810    0.54570    1.000
    H59      H        0.56130    0.31760    0.34380    1.000
    H60      H        0.43830    0.38230    0.27730    1.000
    H61      H        0.12500    0.43960    0.25820    1.000
    H62      H        0.12480    0.44030    0.16670    1.000
    H63      H        0.44530    0.54410    0.14130    1.000
    H64      H        0.44770    0.54220    0.23220    1.000
    H65      H        0.76190    0.66510    0.42630    1.000
    H66      H        0.63220    0.75900    0.42080    1.000
    H67      H        0.97950    0.81270    0.47390    1.000
    H68      H        0.10640    0.71820    0.48220    1.000
    H69      H        0.54500    0.88700    0.43500    1.000
    H70      H        0.28890    0.56440    0.65260    1.000
    H71      H        0.27160    0.56210    0.74570    1.000
    H72      H        0.17470    0.40300    0.75460    1.000
    H73      H        0.20080    0.40420    0.66180    1.000
    H74      H        0.12700    0.46000    0.88000    1.000
    H75      H        0.49680    0.26160    0.49360    1.000
    H76      H        0.65330    0.17310    0.49030    1.000
    H77      H        0.98040    0.23890    0.38610    1.000
    H78      H        0.81610    0.32890    0.39090    1.000
    H79      H        0.53480    0.89860    0.22240    1.000
    H80      H        0.55830    0.83120    0.15140    1.000
    H81      H        0.60490    0.85740    0.93920    1.000
    H82      H        0.69840    0.92820    0.87140    1.000
    H83      H        0.01220    0.09960    0.88340    1.000
    H84      H        0.02030    0.16190    0.95430    1.000
    H85      H        0.72270    0.18240    0.15620    1.000
    H86      H        0.59790    0.11770    0.22270    1.000
    H87      H        0.32280    0.06040    0.24180    1.000
    H88      H        0.23180    0.05970    0.33330    1.000
    H89      H        0.63070    0.95590    0.35870    1.000
    H90      H        0.72210    0.95780    0.26780    1.000
    H91      H        0.35330    0.83490    0.07370    1.000
    H92      H        0.31200    0.74100    0.07920    1.000
    H93      H        0.76610    0.68730    0.02610    1.000
    H94      H        0.80680    0.78180    0.01780    1.000
    H95      H        0.36700    0.61300    0.06500    1.000
    H96      H        0.00590    0.93560    0.84740    1.000
    H97      H        0.07940    0.93790    0.75430    1.000
    H98      H        0.83230    0.09700    0.74540    1.000
    H99      H        0.76680    0.09580    0.83820    1.000
    H100     H        0.96700    0.04000    0.62000    1.000
    H101     H        0.75200    0.23840    0.00640    1.000
    H102     H        0.81670    0.32690    0.00970    1.000
    H103     H        0.10540    0.26110    0.11390    1.000
    H104     H        0.03590    0.17110    0.10910    1.000
    C1       C        0.64260    0.55830    0.65950    1.000
    C2       C        0.71430    0.50910    0.68570    1.000
    C3       C        0.78260    0.45910    0.65930    1.000
    C4       C        0.84680    0.40600    0.68560    1.000
    C5       C        0.91130    0.36930    0.64650    1.000
    C6       C        0.89310    0.39940    0.59560    1.000
    C7       C        0.95810    0.37830    0.54670    1.000
    C8       C        0.94040    0.40840    0.49780    1.000
    C9       C        0.02220    0.38990    0.44570    1.000
    C10      C        0.96810    0.42830    0.40830    1.000
    C11      C        0.84700    0.47000    0.43680    1.000
    C12      C        0.74670    0.51330    0.41250    1.000
    C13      C        0.63560    0.55430    0.44130    1.000
    C14      C        0.52170    0.59670    0.41890    1.000
    C15      C        0.44450    0.63110    0.45770    1.000
    C16      C        0.51020    0.61180    0.50580    1.000
    C17      C        0.47080    0.63830    0.55410    1.000
    C18      C        0.53030    0.61670    0.60030    1.000
    C19      C        0.49670    0.64580    0.65060    1.000
    C20      C        0.56410    0.61050    0.68690    1.000
    C21      C        0.71330    0.50900    0.74440    1.000
    C22      C        0.81020    0.53940    0.76520    1.000
    C23      C        0.81140    0.53870    0.82030    1.000
    C24      C        0.71810    0.50710    0.85510    1.000
    C25      C        0.61940    0.47690    0.83510    1.000
    C26      C        0.61820    0.47810    0.78050    1.000
    C27      C        0.72150    0.50490    0.91450    1.000
    C28      C        0.05240    0.31800    0.54600    1.000
    C29      C        0.19380    0.30540    0.56380    1.000
    C30      C        0.27160    0.24910    0.56710    1.000
    C31      C        0.20740    0.20510    0.55270    1.000
    C32      C        0.06540    0.21710    0.53510    1.000
    C33      C        0.98840    0.27360    0.53080    1.000
    C34      C        0.28700    0.14390    0.55630    1.000
    C35      C        0.75610    0.51480    0.35280    1.000
    C36      C        0.73400    0.46820    0.32700    1.000
    C37      C        0.74510    0.46930    0.27090    1.000
    C38      C        0.78120    0.51750    0.24090    1.000
    C39      C        0.80170    0.56450    0.26590    1.000
    C40      C        0.78750    0.56350    0.32170    1.000
    C41      C        0.79420    0.51630    0.18090    1.000
    C42      C        0.36230    0.69520    0.55680    1.000
    C43      C        0.40550    0.74240    0.52820    1.000
    C44      C        0.31240    0.79580    0.52980    1.000
    C45      C        0.16720    0.80260    0.56200    1.000
    C46      C        0.11710    0.75680    0.59200    1.000
    C47      C        0.21700    0.70240    0.58900    1.000
    C48      C        0.06610    0.86050    0.56230    1.000
    C49      C        0.36040    0.94170    0.84050    1.000
    C50      C        0.40910    0.99090    0.81430    1.000
    C51      C        0.40100    0.04090    0.84070    1.000
    C52      C        0.43840    0.09400    0.81440    1.000
    C53      C        0.42710    0.13070    0.85350    1.000
    C54      C        0.38810    0.10060    0.90440    1.000
    C55      C        0.38310    0.12170    0.95330    1.000
    C56      C        0.34660    0.09160    0.00220    1.000
    C57      C        0.35780    0.11010    0.05430    1.000
    C58      C        0.30470    0.07170    0.09170    1.000
    C59      C        0.25380    0.03000    0.06320    1.000
    C60      C        0.17250    0.98670    0.08750    1.000
    C61      C        0.13120    0.94570    0.05870    1.000
    C62      C        0.03730    0.90330    0.08110    1.000
    C63      C        0.03330    0.86890    0.04230    1.000
    C64      C        0.12780    0.88820    0.99420    1.000
    C65      C        0.16320    0.86170    0.94590    1.000
    C66      C        0.24730    0.88330    0.89970    1.000
    C67      C        0.29310    0.85420    0.84940    1.000
    C68      C        0.36150    0.88950    0.81310    1.000
    C69      C        0.46670    0.99100    0.75560    1.000
    C70      C        0.61480    0.96060    0.73480    1.000
    C71      C        0.67040    0.96130    0.67970    1.000
    C72      C        0.58030    0.99290    0.64490    1.000
    C73      C        0.43140    0.02310    0.66490    1.000
    C74      C        0.37680    0.02190    0.71950    1.000
    C75      C        0.64090    0.99510    0.58550    1.000
    C76      C        0.41640    0.18200    0.95400    1.000
    C77      C        0.56300    0.19460    0.93620    1.000
    C78      C        0.58780    0.25090    0.93290    1.000
    C79      C        0.46520    0.29490    0.94730    1.000
    C80      C        0.31760    0.28290    0.96490    1.000
    C81      C        0.29280    0.22640    0.96920    1.000
    C82      C        0.48720    0.35610    0.94370    1.000
    C83      C        0.12370    0.98520    0.14720    1.000
    C84      C        0.02920    0.03180    0.17300    1.000
    C85      C        0.98530    0.03070    0.22910    1.000
    C86      C        0.03960    0.98250    0.25910    1.000
    C87      C        0.13210    0.93550    0.23410    1.000
    C88      C        0.17270    0.93650    0.17830    1.000
    C89      C        0.99140    0.98370    0.31910    1.000
    C90      C        0.11430    0.80480    0.94320    1.000
    C91      C        0.17610    0.75760    0.97180    1.000
    C92      C        0.13800    0.70420    0.97020    1.000
    C93      C        0.03180    0.69740    0.93800    1.000
    C94      C        0.96590    0.74320    0.90800    1.000
    C95      C        0.00840    0.79760    0.91100    1.000
    C96      C        0.98890    0.63950    0.93770    1.000
    C97      C        0.35740    0.44170    0.34050    1.000
    C98      C        0.28570    0.49090    0.31430    1.000
    C99      C        0.21740    0.54090    0.34070    1.000
    C100     C        0.15320    0.59400    0.31440    1.000
    C101     C        0.08870    0.63070    0.35350    1.000
    C102     C        0.10690    0.60060    0.40440    1.000
    C103     C        0.04190    0.62170    0.45330    1.000
    C104     C        0.05960    0.59160    0.50220    1.000
    C105     C        0.97780    0.61010    0.55430    1.000
    C106     C        0.03190    0.57170    0.59170    1.000
    C107     C        0.15300    0.53000    0.56320    1.000
    C108     C        0.25330    0.48670    0.58750    1.000
    C109     C        0.36440    0.44570    0.55870    1.000
    C110     C        0.47830    0.40330    0.58110    1.000
    C111     C        0.55550    0.36890    0.54230    1.000
    C112     C        0.48980    0.38820    0.49420    1.000
    C113     C        0.52920    0.36170    0.44590    1.000
    C114     C        0.46970    0.38330    0.39970    1.000
    C115     C        0.50330    0.35420    0.34940    1.000
    C116     C        0.43590    0.38950    0.31310    1.000
    C117     C        0.28670    0.49100    0.25560    1.000
    C118     C        0.18980    0.46060    0.23480    1.000
    C119     C        0.18860    0.46130    0.17970    1.000
    C120     C        0.28190    0.49290    0.14490    1.000
    C121     C        0.38060    0.52310    0.16490    1.000
    C122     C        0.38180    0.52190    0.21950    1.000
    C123     C        0.27850    0.49510    0.08550    1.000
    C124     C        0.94760    0.68200    0.45400    1.000
    C125     C        0.80620    0.69460    0.43620    1.000
    C126     C        0.72840    0.75090    0.43290    1.000
    C127     C        0.79260    0.79490    0.44730    1.000
    C128     C        0.93460    0.78290    0.46490    1.000
    C129     C        0.01160    0.72640    0.46920    1.000
    C130     C        0.71300    0.85610    0.44370    1.000
    C131     C        0.24390    0.48520    0.64720    1.000
    C132     C        0.26600    0.53180    0.67300    1.000
    C133     C        0.25490    0.53070    0.72910    1.000
    C134     C        0.21880    0.48250    0.75910    1.000
    C135     C        0.19830    0.43550    0.73410    1.000
    C136     C        0.21250    0.43650    0.67830    1.000
    C137     C        0.20580    0.48370    0.81910    1.000
    C138     C        0.63770    0.30480    0.44320    1.000
    C139     C        0.59450    0.25760    0.47180    1.000
    C140     C        0.68760    0.20420    0.47020    1.000
    C141     C        0.83280    0.19740    0.43800    1.000
    C142     C        0.88290    0.24320    0.40800    1.000
    C143     C        0.78300    0.29760    0.41100    1.000
    C144     C        0.93390    0.13950    0.43770    1.000
    C145     C        0.63960    0.05830    0.15950    1.000
    C146     C        0.59090    0.00910    0.18570    1.000
    C147     C        0.59900    0.95910    0.15930    1.000
    C148     C        0.56160    0.90600    0.18560    1.000
    C149     C        0.57290    0.86930    0.14650    1.000
    C150     C        0.61190    0.89940    0.09560    1.000
    C151     C        0.61690    0.87830    0.04670    1.000
    C152     C        0.65340    0.90840    0.99780    1.000
    C153     C        0.64220    0.88990    0.94570    1.000
    C154     C        0.69530    0.92830    0.90830    1.000
    C155     C        0.74620    0.97000    0.93680    1.000
    C156     C        0.82750    0.01330    0.91250    1.000
    C157     C        0.86880    0.05430    0.94130    1.000
    C158     C        0.96270    0.09670    0.91890    1.000
    C159     C        0.96670    0.13110    0.95770    1.000
    C160     C        0.87220    0.11180    0.00580    1.000
    C161     C        0.83680    0.13830    0.05410    1.000
    C162     C        0.75270    0.11670    0.10030    1.000
    C163     C        0.70690    0.14580    0.15060    1.000
    C164     C        0.63850    0.11050    0.18690    1.000
    C165     C        0.53330    0.00900    0.24440    1.000
    C166     C        0.38520    0.03940    0.26520    1.000
    C167     C        0.32960    0.03870    0.32030    1.000
    C168     C        0.41970    0.00710    0.35510    1.000
    C169     C        0.56860    0.97690    0.33510    1.000
    C170     C        0.62320    0.97810    0.28050    1.000
    C171     C        0.35910    0.00490    0.41450    1.000
    C172     C        0.58360    0.81800    0.04600    1.000
    C173     C        0.43700    0.80540    0.06380    1.000
    C174     C        0.41220    0.74910    0.06710    1.000
    C175     C        0.53480    0.70510    0.05270    1.000
    C176     C        0.68240    0.71710    0.03510    1.000
    C177     C        0.70720    0.77360    0.03080    1.000
    C178     C        0.51280    0.64390    0.05630    1.000
    C179     C        0.87630    0.01480    0.85280    1.000
    C180     C        0.97080    0.96820    0.82700    1.000
    C181     C        0.01470    0.96930    0.77090    1.000
    C182     C        0.96040    0.01750    0.74090    1.000
    C183     C        0.86790    0.06450    0.76590    1.000
    C184     C        0.82730    0.06350    0.82170    1.000
    C185     C        0.00860    0.01630    0.68090    1.000
    C186     C        0.88570    0.19520    0.05680    1.000
    C187     C        0.82390    0.24240    0.02820    1.000
    C188     C        0.86200    0.29580    0.02980    1.000
    C189     C        0.96820    0.30260    0.06200    1.000
    C190     C        0.03410    0.25680    0.09200    1.000
    C191     C        0.99160    0.20240    0.08900    1.000
    C192     C        0.01110    0.36050    0.06230    1.000
    N1       N        0.80855    0.45385    0.60405    1.000
    N2       N        0.83759    0.45921    0.49141    1.000
    N3       N        0.62236    0.56274    0.49574    1.000
    N4       N        0.62383    0.56377    0.60677    1.000
    N5       N        0.36645    0.04615    0.89595    1.000
    N6       N        0.28821    0.04079    0.00859    1.000
    N7       N        0.18084    0.93726    0.00426    1.000
    N8       N        0.29437    0.93623    0.89323    1.000
    N9       N        0.19145    0.54615    0.39595    1.000
    N10      N        0.16241    0.54079    0.50859    1.000
    N11      N        0.37764    0.43726    0.50426    1.000
    N12      N        0.37617    0.43623    0.39323    1.000
    N13      N        0.63355    0.95385    0.10405    1.000
    N14      N        0.71179    0.95921    0.99141    1.000
    N15      N        0.81916    0.06274    0.99574    1.000
    N16      N        0.70563    0.06377    0.10677    1.000
    O1       O        0.79742    0.53676    0.93200    1.000
    O2       O        0.64393    0.47142    0.94472    1.000
    O3       O        0.22060    0.10380    0.55340    1.000
    O4       O        0.43210    0.13730    0.56350    1.000
    O5       O        0.77250    0.47740    0.15820    1.000
    O6       O        0.83850    0.56260    0.15560    1.000
    O7       O        0.11199    0.90123    0.53639    1.000
    O8       O        0.92541    0.86344    0.58994    1.000
    O9       O        0.76618    0.96324    0.56800    1.000
    O10      O        0.56007    0.02858    0.55528    1.000
    O11      O        0.37780    0.39620    0.94660    1.000
    O12      O        0.63290    0.36270    0.93650    1.000
    O13      O        0.90810    0.02260    0.34180    1.000
    O14      O        0.05670    0.93740    0.34440    1.000
    O15      O        0.04961    0.59877    0.96361    1.000
    O16      O        0.87879    0.63656    0.91006    1.000
    O17      O        0.20258    0.46324    0.06800    1.000
    O18      O        0.35607    0.52858    0.05528    1.000
    O19      O        0.77940    0.89620    0.44660    1.000
    O20      O        0.56790    0.86270    0.43650    1.000
    O21      O        0.22750    0.52260    0.84180    1.000
    O22      O        0.16150    0.43740    0.84440    1.000
    O23      O        0.88801    0.09877    0.46361    1.000
    O24      O        0.07459    0.13656    0.41006    1.000
    O25      O        0.23382    0.03676    0.43200    1.000
    O26      O        0.43993    0.97142    0.44472    1.000
    O27      O        0.62220    0.60380    0.05340    1.000
    O28      O        0.36710    0.63730    0.06350    1.000
    O29      O        0.09190    0.97740    0.65820    1.000
    O30      O        0.94330    0.06260    0.65560    1.000
    O31      O        0.95039    0.40123    0.03639    1.000
    O32      O        0.12121    0.36344    0.08994    1.000
