# CIF file generated by openbabel 3.1.0, see https://openbabel.org
data_I
_chemical_name_common 'image0'
_cell_length_a 13.834
_cell_length_b 13.834
_cell_length_c 6.162
_cell_angle_alpha 90
_cell_angle_beta 90
_cell_angle_gamma 90
_space_group_name_H-M_alt 'P 1'
_space_group_name_Hall 'P 1'
loop_
    _symmetry_equiv_pos_as_xyz
    x,y,z
loop_
    _atom_site_label
    _atom_site_type_symbol
    _atom_site_fract_x
    _atom_site_fract_y
    _atom_site_fract_z
    _atom_site_occupancy
    S1       S        0.47298    0.60196    0.23856    1.000
    N1       N        0.32319    0.65123    0.74730    1.000
    C1       C        0.37797    0.55880    0.08620    1.000
    C2       C        0.34311    0.47269    0.16390    1.000
    H1       H        0.29210    0.43880    0.10170    1.000
    C3       C        0.39397    0.44188    0.34910    1.000
    H2       H        0.37980    0.38510    0.42320    1.000
    C4       C        0.46636    0.50366    0.40930    1.000
    C5       C        0.34690    0.60950    0.89860    1.000
    S2       S        0.02702    0.89804    0.23856    1.000
    N2       N        0.17681    0.84877    0.74730    1.000
    C6       C        0.12203    0.94120    0.08620    1.000
    C7       C        0.15689    0.02731    0.16390    1.000
    H3       H        0.20790    0.06120    0.10170    1.000
    C8       C        0.10603    0.05812    0.34910    1.000
    H4       H        0.12020    0.11490    0.42320    1.000
    C9       C        0.03364    0.99634    0.40930    1.000
    C10      C        0.15310    0.89050    0.89860    1.000
    S3       S        0.89804    0.47298    0.23856    1.000
    N3       N        0.84877    0.32319    0.74730    1.000
    C11      C        0.94120    0.37797    0.08620    1.000
    C12      C        0.02731    0.34311    0.16390    1.000
    H5       H        0.06120    0.29210    0.10170    1.000
    C13      C        0.05812    0.39397    0.34910    1.000
    H6       H        0.11490    0.37980    0.42320    1.000
    C14      C        0.99634    0.46636    0.40930    1.000
    C15      C        0.89050    0.34690    0.89860    1.000
    S4       S        0.60196    0.02702    0.23856    1.000
    N4       N        0.65123    0.17681    0.74730    1.000
    C16      C        0.55880    0.12203    0.08620    1.000
    C17      C        0.47269    0.15689    0.16390    1.000
    H7       H        0.43880    0.20790    0.10170    1.000
    C18      C        0.44188    0.10603    0.34910    1.000
    H8       H        0.38510    0.12020    0.42320    1.000
    C19      C        0.50366    0.03364    0.40930    1.000
    C20      C        0.60950    0.15310    0.89860    1.000
    S5       S        0.52702    0.39804    0.76144    1.000
    N5       N        0.67681    0.34877    0.25270    1.000
    C21      C        0.62203    0.44120    0.91380    1.000
    C22      C        0.65689    0.52731    0.83610    1.000
    H9       H        0.70790    0.56120    0.89830    1.000
    C23      C        0.60603    0.55812    0.65090    1.000
    H10      H        0.62020    0.61490    0.57680    1.000
    C24      C        0.53364    0.49634    0.59070    1.000
    C25      C        0.65310    0.39050    0.10140    1.000
    S6       S        0.97298    0.10196    0.76144    1.000
    N6       N        0.82319    0.15123    0.25270    1.000
    C26      C        0.87797    0.05880    0.91380    1.000
    C27      C        0.84311    0.97269    0.83610    1.000
    H11      H        0.79210    0.93880    0.89830    1.000
    C28      C        0.89397    0.94188    0.65090    1.000
    H12      H        0.87980    0.88510    0.57680    1.000
    C29      C        0.96636    0.00366    0.59070    1.000
    C30      C        0.84690    0.10950    0.10140    1.000
    S7       S        0.10196    0.52702    0.76144    1.000
    N7       N        0.15123    0.67681    0.25270    1.000
    C31      C        0.05880    0.62203    0.91380    1.000
    C32      C        0.97269    0.65689    0.83610    1.000
    H13      H        0.93880    0.70790    0.89830    1.000
    C33      C        0.94188    0.60603    0.65090    1.000
    H14      H        0.88510    0.62020    0.57680    1.000
    C34      C        0.00366    0.53364    0.59070    1.000
    C35      C        0.10950    0.65310    0.10140    1.000
    S8       S        0.39804    0.97298    0.76144    1.000
    N8       N        0.34877    0.82319    0.25270    1.000
    C36      C        0.44120    0.87797    0.91380    1.000
    C37      C        0.52731    0.84311    0.83610    1.000
    H15      H        0.56120    0.79210    0.89830    1.000
    C38      C        0.55812    0.89397    0.65090    1.000
    H16      H        0.61490    0.87980    0.57680    1.000
    C39      C        0.49634    0.96636    0.59070    1.000
    C40      C        0.39050    0.84690    0.10140    1.000
    Ag1      Ag       0.25000    0.75000    0.50000    1.000
    Ag2      Ag       0.75000    0.25000    0.50000    1.000
