data_functionalizedCrystal
_audit_creation_method	'EQeq! by Chris Wilmer'
_symmetry_space_group_name_H-M	'P1'
_symmetry_Int_Tables_number	1
_symmetry_cell_setting	triclinic
loop_
_symmetry_equiv_pos_as_xyz
  x,y,z
_cell_length_a	7.54
_cell_length_b	9.7794
_cell_length_c	9.7794
_cell_angle_alpha	81.4534
_cell_angle_beta	67.3249
_cell_angle_gamma	67.3249
loop_
_atom_site_label
_atom_site_type_symbol
_atom_site_fract_x
_atom_site_fract_y
_atom_site_fract_z
_atom_site_charge
Mof_Zr	Zr	0.19522	0.50502	0.10454	3.095
Mof_Zr	Zr	0.80478	0.49498	0.89546	3.095
Mof_Zr	Zr	0.70024	0.10454	0.49498	3.094
Mof_Zr	Zr	0.29976	0.89546	0.50502	3.094
Mof_C 	C 	0.4521	0.688	0.2028	0.259
Mof_C 	C 	0.6549	0.7972	0.688	0.259
Mof_C 	C 	0.1401	0.2028	0.312	0.258
Mof_C 	C 	0.5479	0.312	0.7972	0.259
Mof_C 	C 	0.3429	0.312	0.7972	0.257
Mof_C 	C 	0.6571	0.688	0.2028	0.257
Mof_C 	C 	0.3451	0.2028	0.312	0.259
Mof_C 	C 	0.8599	0.7972	0.688	0.258
Mof_O 	O 	0.7096	0.231	0.7038	-0.813
Mof_O 	O 	0.5866	0.7038	0.769	-0.808
Mof_O 	O 	0.4616	0.6064	0.1132	-1
Mof_O 	O 	0.3556	0.231	0.7038	-0.806
Mof_O 	O 	0.4134	0.2962	0.231	-0.808
Mof_O 	O 	0.932	0.8868	0.6064	-0.993
Mof_O 	O 	0.068	0.1132	0.3936	-0.993
Mof_O 	O 	0.9406	0.7038	0.769	-0.808
Mof_O 	O 	0.0594	0.2962	0.231	-0.808
Mof_O 	O 	0.5384	0.3936	0.8868	-1
Mof_O 	O 	0.2904	0.769	0.2962	-0.813
Mof_O 	O 	0.5748	0.8868	0.6064	-1
Mof_O 	O 	0.1812	0.3936	0.8868	-0.994
Mof_O 	O 	0.4252	0.1132	0.3936	-1
Mof_O 	O 	0.8188	0.6064	0.1132	-0.994
Mof_O 	O 	0.6444	0.769	0.2962	-0.806
_end
