# CIF file generated by openbabel 3.1.0, see https://openbabel.org
data_I
_chemical_name_common 'image0'
_cell_length_a 34.5583
_cell_length_b 19.0573
_cell_length_c 23.688
_cell_angle_alpha 90
_cell_angle_beta 128.188
_cell_angle_gamma 90
_space_group_name_H-M_alt 'P 1'
_space_group_name_Hall 'P 1'
loop_
    _symmetry_equiv_pos_as_xyz
    x,y,z
loop_
    _atom_site_label
    _atom_site_type_symbol
    _atom_site_fract_x
    _atom_site_fract_y
    _atom_site_fract_z
    _atom_site_occupancy
    Gd1      Gd       0.20624    0.09203    0.71776    1.000
    O1       O        0.13101    0.11400    0.70610    1.000
    O2       O        0.29728    0.09380    0.80500    1.000
    O3       O        0.23707    0.03850    0.66150    1.000
    O4       O        0.14082    0.06640    0.59445    1.000
    O5       O        0.18453    0.97430    0.70500    1.000
    O6       O        0.20833    0.19490    0.66390    1.000
    O7       O        0.22420    0.07548    0.83620    1.000
    O8       O        0.22782    0.18410    0.80690    1.000
    C1       C        0.09230    0.07930    0.67710    1.000
    C2       C        0.31620    0.03370    0.82420    1.000
    Gd2      Gd       0.17568    0.04273    0.53520    1.000
    Gd3      Gd       0.24218    0.91392    0.69509    1.000
    Gd4      Gd       0.10515    0.95571    0.58737    1.000
    C3       C        0.05320    0.10550    0.68150    1.000
    O9       O        0.08105    0.02460    0.64040    1.000
    C4       C        0.37060    0.02550    0.87770    1.000
    O10      O        0.29071    0.97760    0.80020    1.000
    O11      O        0.23842    0.97610    0.54870    1.000
    O12      O        0.16816    0.93380    0.57807    1.000
    O13      O        0.09424    0.07960    0.44220    1.000
    O14      O        0.18936    0.16460    0.55830    1.000
    O15      O        0.20243    0.82980    0.71520    1.000
    O16      O        0.29328    0.92630    0.65680    1.000
    O17      O        0.12217    0.85310    0.65340    1.000
    O18      O        0.05630    0.00400    0.46550    1.000
    C5       C        0.04570    0.17700    0.68170    1.000
    C6       C        0.01940    0.05890    0.67650    1.000
    C7       C        0.39010    0.96030    0.90700    1.000
    C8       C        0.40140    0.07900    0.89590    1.000
    C9       C        0.27660    0.94220    0.59290    1.000
    C10      C        0.05680    0.04920    0.42630    1.000
    C11      C        0.16110    0.82160    0.70140    1.000
    H1       H        0.06770    0.20910    0.68600    1.000
    C12      C        0.00510    0.20020    0.67520    1.000
    C13      C        0.02820    0.98150    0.68880    1.000
    N1       N        0.97883    0.08170    0.66720    1.000
    H2       H        0.36910    0.92230    0.89380    1.000
    C14      C        0.44050    0.95080    0.95570    1.000
    C15      C        0.45270    0.06940    0.94420    1.000
    H3       H        0.38870    0.12320    0.87650    1.000
    C16      C        0.30640    0.92180    0.56940    1.000
    C17      C        0.00850    0.06810    0.35590    1.000
    C18      C        0.15880    0.76940    0.74640    1.000
    H4       H        0.00010    0.24780    0.67750    1.000
    C19      C        0.97190    0.15000    0.66520    1.000
    N2       N        0.07262    0.96180    0.74850    1.000
    H5       H        0.45290    0.90690    0.97650    1.000
    C20      C        0.47280    0.00530    0.97430    1.000
    H6       H        0.47340    0.10730    0.95570    1.000
    C21      C        0.35440    0.94510    0.60840    1.000
    C22      C        0.28700    0.88280    0.50680    1.000
    C23      C        0.00010    0.13820    0.33560    1.000
    C24      C        0.11800    0.72610    0.71570    1.000
    C25      C        0.19730    0.76060    0.81900    1.000
    H7       H        0.94320    0.16570    0.65670    1.000
    C26      C        0.08030    0.89470    0.76580    1.000
    H8       H        0.36900    0.96860    0.65160    1.000
    C27      C        0.38080    0.93360    0.58320    1.000
    C28      C        0.23810    0.84630    0.46410    1.000
    N3       N        0.31245    0.87060    0.48220    1.000
    C29      C        0.95460    0.15720    0.27310    1.000
    H9       H        0.02450    0.17170    0.36340    1.000
    H10      H        0.09090    0.73180    0.66780    1.000
    C30      C        0.11780    0.67530    0.75590    1.000
    C31      C        0.24040    0.80870    0.86160    1.000
    N4       N        0.19730    0.71130    0.85900    1.000
    H11      H        0.11120    0.88150    0.80670    1.000
    H12      H        0.41300    0.94950    0.60840    1.000
    C32      C        0.35770    0.89760    0.51920    1.000
    C33      C        0.21250    0.83070    0.39140    1.000
    N5       N        0.22174    0.82430    0.50020    1.000
    H13      H        0.94770    0.20360    0.25760    1.000
    H14      H        0.09080    0.64580    0.73600    1.000
    C34      C        0.15840    0.66860    0.82650    1.000
    C35      C        0.28880    0.78220    0.90320    1.000
    N6       N        0.23080    0.87700    0.86240    1.000
    H15      H        0.37470    0.89190    0.50070    1.000
    C36      C        0.17060    0.78860    0.35660    1.000
    C37      C        0.22437    0.85880    0.34460    1.000
    C38      C        0.18020    0.78680    0.46470    1.000
    H16      H        0.15880    0.63230    0.85310    1.000
    C39      C        0.32710    0.82700    0.95090    1.000
    C40      C        0.29750    0.70760    0.89360    1.000
    C41      C        0.26890    0.91830    0.90890    1.000
    C42      C        0.15370    0.76680    0.39340    1.000
    H17      H        0.15420    0.77520    0.30910    1.000
    H18      H        0.16830    0.77330    0.48920    1.000
    C43      C        0.31700    0.89620    0.95440    1.000
    H19      H        0.35940    0.81070    0.98030    1.000
    H20      H        0.26260    0.96540    0.91060    1.000
    H21      H        0.12550    0.73960    0.37120    1.000
    H22      H        0.34210    0.92710    0.98680    1.000
    Gd5      Gd       0.70624    0.59203    0.71776    1.000
    O19      O        0.63101    0.61400    0.70610    1.000
    O20      O        0.79728    0.59380    0.80500    1.000
    O21      O        0.73707    0.53850    0.66150    1.000
    O22      O        0.64082    0.56640    0.59445    1.000
    O23      O        0.68453    0.47430    0.70500    1.000
    O24      O        0.70833    0.69490    0.66390    1.000
    O25      O        0.72420    0.57548    0.83620    1.000
    O26      O        0.72782    0.68410    0.80690    1.000
    C44      C        0.59230    0.57930    0.67710    1.000
    C45      C        0.81620    0.53370    0.82420    1.000
    Gd6      Gd       0.67568    0.54273    0.53520    1.000
    Gd7      Gd       0.74218    0.41392    0.69509    1.000
    Gd8      Gd       0.60515    0.45571    0.58737    1.000
    C46      C        0.55320    0.60550    0.68150    1.000
    O27      O        0.58105    0.52460    0.64040    1.000
    C47      C        0.87060    0.52550    0.87770    1.000
    O28      O        0.79071    0.47760    0.80020    1.000
    O29      O        0.73842    0.47610    0.54870    1.000
    O30      O        0.66816    0.43380    0.57807    1.000
    O31      O        0.59424    0.57960    0.44220    1.000
    O32      O        0.68936    0.66460    0.55830    1.000
    O33      O        0.70243    0.32980    0.71520    1.000
    O34      O        0.79328    0.42630    0.65680    1.000
    O35      O        0.62217    0.35310    0.65340    1.000
    O36      O        0.55630    0.50400    0.46550    1.000
    C48      C        0.54570    0.67700    0.68170    1.000
    C49      C        0.51940    0.55890    0.67650    1.000
    C50      C        0.89010    0.46030    0.90700    1.000
    C51      C        0.90140    0.57900    0.89590    1.000
    C52      C        0.77660    0.44220    0.59290    1.000
    C53      C        0.55680    0.54920    0.42630    1.000
    C54      C        0.66110    0.32160    0.70140    1.000
    H23      H        0.56770    0.70910    0.68600    1.000
    C55      C        0.50510    0.70020    0.67520    1.000
    C56      C        0.52820    0.48150    0.68880    1.000
    N7       N        0.47883    0.58170    0.66720    1.000
    H24      H        0.86910    0.42230    0.89380    1.000
    C57      C        0.94050    0.45080    0.95570    1.000
    C58      C        0.95270    0.56940    0.94420    1.000
    H25      H        0.88870    0.62320    0.87650    1.000
    C59      C        0.80640    0.42180    0.56940    1.000
    C60      C        0.50850    0.56810    0.35590    1.000
    C61      C        0.65880    0.26940    0.74640    1.000
    H26      H        0.50010    0.74780    0.67750    1.000
    C62      C        0.47190    0.65000    0.66520    1.000
    N8       N        0.57262    0.46180    0.74850    1.000
    H27      H        0.95290    0.40690    0.97650    1.000
    C63      C        0.97280    0.50530    0.97430    1.000
    H28      H        0.97340    0.60730    0.95570    1.000
    C64      C        0.85440    0.44510    0.60840    1.000
    C65      C        0.78700    0.38280    0.50680    1.000
    C66      C        0.50010    0.63820    0.33560    1.000
    C67      C        0.61800    0.22610    0.71570    1.000
    C68      C        0.69730    0.26060    0.81900    1.000
    H29      H        0.44320    0.66570    0.65670    1.000
    C69      C        0.58030    0.39470    0.76580    1.000
    H30      H        0.86900    0.46860    0.65160    1.000
    C70      C        0.88080    0.43360    0.58320    1.000
    C71      C        0.73810    0.34630    0.46410    1.000
    N9       N        0.81245    0.37060    0.48220    1.000
    C72      C        0.45460    0.65720    0.27310    1.000
    H31      H        0.52450    0.67170    0.36340    1.000
    H32      H        0.59090    0.23180    0.66780    1.000
    C73      C        0.61780    0.17530    0.75590    1.000
    C74      C        0.74040    0.30870    0.86160    1.000
    N10      N        0.69730    0.21130    0.85900    1.000
    H33      H        0.61120    0.38150    0.80670    1.000
    H34      H        0.91300    0.44950    0.60840    1.000
    C75      C        0.85770    0.39760    0.51920    1.000
    C76      C        0.71250    0.33070    0.39140    1.000
    N11      N        0.72174    0.32430    0.50020    1.000
    H35      H        0.44770    0.70360    0.25760    1.000
    H36      H        0.59080    0.14580    0.73600    1.000
    C77      C        0.65840    0.16860    0.82650    1.000
    C78      C        0.78880    0.28220    0.90320    1.000
    N12      N        0.73080    0.37700    0.86240    1.000
    H37      H        0.87470    0.39190    0.50070    1.000
    C79      C        0.67060    0.28860    0.35660    1.000
    C80      C        0.72437    0.35880    0.34460    1.000
    C81      C        0.68020    0.28680    0.46470    1.000
    H38      H        0.65880    0.13230    0.85310    1.000
    C82      C        0.82710    0.32700    0.95090    1.000
    C83      C        0.79750    0.20760    0.89360    1.000
    C84      C        0.76890    0.41830    0.90890    1.000
    C85      C        0.65370    0.26680    0.39340    1.000
    H39      H        0.65420    0.27520    0.30910    1.000
    H40      H        0.66830    0.27330    0.48920    1.000
    C86      C        0.81700    0.39620    0.95440    1.000
    H41      H        0.85940    0.31070    0.98030    1.000
    H42      H        0.76260    0.46540    0.91060    1.000
    H43      H        0.62550    0.23960    0.37120    1.000
    H44      H        0.84210    0.42710    0.98680    1.000
    Gd9      Gd       0.79376    0.09203    0.78224    1.000
    O37      O        0.86899    0.11400    0.79390    1.000
    O38      O        0.70272    0.09380    0.69500    1.000
    O39      O        0.76293    0.03850    0.83850    1.000
    O40      O        0.85918    0.06640    0.90555    1.000
    O41      O        0.81547    0.97430    0.79500    1.000
    O42      O        0.79167    0.19490    0.83610    1.000
    O43      O        0.77580    0.07548    0.66380    1.000
    O44      O        0.77218    0.18410    0.69310    1.000
    C87      C        0.90770    0.07930    0.82290    1.000
    C88      C        0.68380    0.03370    0.67580    1.000
    Gd10     Gd       0.82432    0.04273    0.96480    1.000
    Gd11     Gd       0.75782    0.91392    0.80491    1.000
    Gd12     Gd       0.89485    0.95571    0.91263    1.000
    C89      C        0.94680    0.10550    0.81850    1.000
    O45      O        0.91895    0.02460    0.85960    1.000
    C90      C        0.62940    0.02550    0.62230    1.000
    O46      O        0.70929    0.97760    0.69980    1.000
    O47      O        0.76158    0.97610    0.95130    1.000
    O48      O        0.83184    0.93380    0.92193    1.000
    O49      O        0.90576    0.07960    0.05780    1.000
    O50      O        0.81064    0.16460    0.94170    1.000
    O51      O        0.79757    0.82980    0.78480    1.000
    O52      O        0.70672    0.92630    0.84320    1.000
    O53      O        0.87783    0.85310    0.84660    1.000
    O54      O        0.94370    0.00400    0.03450    1.000
    C91      C        0.95430    0.17700    0.81830    1.000
    C92      C        0.98060    0.05890    0.82350    1.000
    C93      C        0.60990    0.96030    0.59300    1.000
    C94      C        0.59860    0.07900    0.60410    1.000
    C95      C        0.72340    0.94220    0.90710    1.000
    C96      C        0.94320    0.04920    0.07370    1.000
    C97      C        0.83890    0.82160    0.79860    1.000
    H45      H        0.93230    0.20910    0.81400    1.000
    C98      C        0.99490    0.20020    0.82480    1.000
    C99      C        0.97180    0.98150    0.81120    1.000
    N13      N        0.02117    0.08170    0.83280    1.000
    H46      H        0.63090    0.92230    0.60620    1.000
    C100     C        0.55950    0.95080    0.54430    1.000
    C101     C        0.54730    0.06940    0.55580    1.000
    H47      H        0.61130    0.12320    0.62350    1.000
    C102     C        0.69360    0.92180    0.93060    1.000
    C103     C        0.99150    0.06810    0.14410    1.000
    C104     C        0.84120    0.76940    0.75360    1.000
    H48      H        0.99990    0.24780    0.82250    1.000
    C105     C        0.02810    0.15000    0.83480    1.000
    N14      N        0.92738    0.96180    0.75150    1.000
    H49      H        0.54710    0.90690    0.52350    1.000
    C106     C        0.52720    0.00530    0.52570    1.000
    H50      H        0.52660    0.10730    0.54430    1.000
    C107     C        0.64560    0.94510    0.89160    1.000
    C108     C        0.71300    0.88280    0.99320    1.000
    C109     C        0.99990    0.13820    0.16440    1.000
    C110     C        0.88200    0.72610    0.78430    1.000
    C111     C        0.80270    0.76060    0.68100    1.000
    H51      H        0.05680    0.16570    0.84330    1.000
    C112     C        0.91970    0.89470    0.73420    1.000
    H52      H        0.63100    0.96860    0.84840    1.000
    C113     C        0.61920    0.93360    0.91680    1.000
    C114     C        0.76190    0.84630    0.03590    1.000
    N15      N        0.68755    0.87060    0.01780    1.000
    C115     C        0.04540    0.15720    0.22690    1.000
    H53      H        0.97550    0.17170    0.13660    1.000
    H54      H        0.90910    0.73180    0.83220    1.000
    C116     C        0.88220    0.67530    0.74410    1.000
    C117     C        0.75960    0.80870    0.63840    1.000
    N16      N        0.80270    0.71130    0.64100    1.000
    H55      H        0.88880    0.88150    0.69330    1.000
    H56      H        0.58700    0.94950    0.89160    1.000
    C118     C        0.64230    0.89760    0.98080    1.000
    C119     C        0.78750    0.83070    0.10860    1.000
    N17      N        0.77826    0.82430    0.99980    1.000
    H57      H        0.05230    0.20360    0.24240    1.000
    H58      H        0.90920    0.64580    0.76400    1.000
    C120     C        0.84160    0.66860    0.67350    1.000
    C121     C        0.71120    0.78220    0.59680    1.000
    N18      N        0.76920    0.87700    0.63760    1.000
    H59      H        0.62530    0.89190    0.99930    1.000
    C122     C        0.82940    0.78860    0.14340    1.000
    C123     C        0.77563    0.85880    0.15540    1.000
    C124     C        0.81980    0.78680    0.03530    1.000
    H60      H        0.84120    0.63230    0.64690    1.000
    C125     C        0.67290    0.82700    0.54910    1.000
    C126     C        0.70250    0.70760    0.60640    1.000
    C127     C        0.73110    0.91830    0.59110    1.000
    C128     C        0.84630    0.76680    0.10660    1.000
    H61      H        0.84580    0.77520    0.19090    1.000
    H62      H        0.83170    0.77330    0.01080    1.000
    C129     C        0.68300    0.89620    0.54560    1.000
    H63      H        0.64060    0.81070    0.51970    1.000
    H64      H        0.73740    0.96540    0.58940    1.000
    H65      H        0.87450    0.73960    0.12880    1.000
    H66      H        0.65790    0.92710    0.51320    1.000
    Gd13     Gd       0.29376    0.59203    0.78224    1.000
    O55      O        0.36899    0.61400    0.79390    1.000
    O56      O        0.20272    0.59380    0.69500    1.000
    O57      O        0.26293    0.53850    0.83850    1.000
    O58      O        0.35918    0.56640    0.90555    1.000
    O59      O        0.31547    0.47430    0.79500    1.000
    O60      O        0.29167    0.69490    0.83610    1.000
    O61      O        0.27580    0.57548    0.66380    1.000
    O62      O        0.27218    0.68410    0.69310    1.000
    C130     C        0.40770    0.57930    0.82290    1.000
    C131     C        0.18380    0.53370    0.67580    1.000
    Gd14     Gd       0.32432    0.54273    0.96480    1.000
    Gd15     Gd       0.25782    0.41392    0.80491    1.000
    Gd16     Gd       0.39485    0.45571    0.91263    1.000
    C132     C        0.44680    0.60550    0.81850    1.000
    O63      O        0.41895    0.52460    0.85960    1.000
    C133     C        0.12940    0.52550    0.62230    1.000
    O64      O        0.20929    0.47760    0.69980    1.000
    O65      O        0.26158    0.47610    0.95130    1.000
    O66      O        0.33184    0.43380    0.92193    1.000
    O67      O        0.40576    0.57960    0.05780    1.000
    O68      O        0.31064    0.66460    0.94170    1.000
    O69      O        0.29757    0.32980    0.78480    1.000
    O70      O        0.20672    0.42630    0.84320    1.000
    O71      O        0.37783    0.35310    0.84660    1.000
    O72      O        0.44370    0.50400    0.03450    1.000
    C134     C        0.45430    0.67700    0.81830    1.000
    C135     C        0.48060    0.55890    0.82350    1.000
    C136     C        0.10990    0.46030    0.59300    1.000
    C137     C        0.09860    0.57900    0.60410    1.000
    C138     C        0.22340    0.44220    0.90710    1.000
    C139     C        0.44320    0.54920    0.07370    1.000
    C140     C        0.33890    0.32160    0.79860    1.000
    H67      H        0.43230    0.70910    0.81400    1.000
    C141     C        0.49490    0.70020    0.82480    1.000
    C142     C        0.47180    0.48150    0.81120    1.000
    N19      N        0.52117    0.58170    0.83280    1.000
    H68      H        0.13090    0.42230    0.60620    1.000
    C143     C        0.05950    0.45080    0.54430    1.000
    C144     C        0.04730    0.56940    0.55580    1.000
    H69      H        0.11130    0.62320    0.62350    1.000
    C145     C        0.19360    0.42180    0.93060    1.000
    C146     C        0.49150    0.56810    0.14410    1.000
    C147     C        0.34120    0.26940    0.75360    1.000
    H70      H        0.49990    0.74780    0.82250    1.000
    C148     C        0.52810    0.65000    0.83480    1.000
    N20      N        0.42738    0.46180    0.75150    1.000
    H71      H        0.04710    0.40690    0.52350    1.000
    C149     C        0.02720    0.50530    0.52570    1.000
    H72      H        0.02660    0.60730    0.54430    1.000
    C150     C        0.14560    0.44510    0.89160    1.000
    C151     C        0.21300    0.38280    0.99320    1.000
    C152     C        0.49990    0.63820    0.16440    1.000
    C153     C        0.38200    0.22610    0.78430    1.000
    C154     C        0.30270    0.26060    0.68100    1.000
    H73      H        0.55680    0.66570    0.84330    1.000
    C155     C        0.41970    0.39470    0.73420    1.000
    H74      H        0.13100    0.46860    0.84840    1.000
    C156     C        0.11920    0.43360    0.91680    1.000
    C157     C        0.26190    0.34630    0.03590    1.000
    N21      N        0.18755    0.37060    0.01780    1.000
    C158     C        0.54540    0.65720    0.22690    1.000
    H75      H        0.47550    0.67170    0.13660    1.000
    H76      H        0.40910    0.23180    0.83220    1.000
    C159     C        0.38220    0.17530    0.74410    1.000
    C160     C        0.25960    0.30870    0.63840    1.000
    N22      N        0.30270    0.21130    0.64100    1.000
    H77      H        0.38880    0.38150    0.69330    1.000
    H78      H        0.08700    0.44950    0.89160    1.000
    C161     C        0.14230    0.39760    0.98080    1.000
    C162     C        0.28750    0.33070    0.10860    1.000
    N23      N        0.27826    0.32430    0.99980    1.000
    H79      H        0.55230    0.70360    0.24240    1.000
    H80      H        0.40920    0.14580    0.76400    1.000
    C163     C        0.34160    0.16860    0.67350    1.000
    C164     C        0.21120    0.28220    0.59680    1.000
    N24      N        0.26920    0.37700    0.63760    1.000
    H81      H        0.12530    0.39190    0.99930    1.000
    C165     C        0.32940    0.28860    0.14340    1.000
    C166     C        0.27563    0.35880    0.15540    1.000
    C167     C        0.31980    0.28680    0.03530    1.000
    H82      H        0.34120    0.13230    0.64690    1.000
    C168     C        0.17290    0.32700    0.54910    1.000
    C169     C        0.20250    0.20760    0.60640    1.000
    C170     C        0.23110    0.41830    0.59110    1.000
    C171     C        0.34630    0.26680    0.10660    1.000
    H83      H        0.34580    0.27520    0.19090    1.000
    H84      H        0.33170    0.27330    0.01080    1.000
    C172     C        0.18300    0.39620    0.54560    1.000
    H85      H        0.14060    0.31070    0.51970    1.000
    H86      H        0.23740    0.46540    0.58940    1.000
    H87      H        0.37450    0.23960    0.12880    1.000
    H88      H        0.15790    0.42710    0.51320    1.000
    Gd17     Gd       0.79376    0.90797    0.28224    1.000
    O73      O        0.86899    0.88600    0.29390    1.000
    O74      O        0.70272    0.90620    0.19500    1.000
    O75      O        0.76293    0.96150    0.33850    1.000
    O76      O        0.85918    0.93360    0.40555    1.000
    O77      O        0.81547    0.02570    0.29500    1.000
    O78      O        0.79167    0.80510    0.33610    1.000
    O79      O        0.77580    0.92452    0.16380    1.000
    O80      O        0.77218    0.81590    0.19310    1.000
    C173     C        0.90770    0.92070    0.32290    1.000
    C174     C        0.68380    0.96630    0.17580    1.000
    Gd18     Gd       0.82432    0.95727    0.46480    1.000
    Gd19     Gd       0.75782    0.08608    0.30491    1.000
    Gd20     Gd       0.89485    0.04429    0.41263    1.000
    C175     C        0.94680    0.89450    0.31850    1.000
    O81      O        0.91895    0.97540    0.35960    1.000
    C176     C        0.62940    0.97450    0.12230    1.000
    O82      O        0.70929    0.02240    0.19980    1.000
    O83      O        0.76158    0.02390    0.45130    1.000
    O84      O        0.83184    0.06620    0.42193    1.000
    O85      O        0.90576    0.92040    0.55780    1.000
    O86      O        0.81064    0.83540    0.44170    1.000
    O87      O        0.79757    0.17020    0.28480    1.000
    O88      O        0.70672    0.07370    0.34320    1.000
    O89      O        0.87783    0.14690    0.34660    1.000
    O90      O        0.94370    0.99600    0.53450    1.000
    C177     C        0.95430    0.82300    0.31830    1.000
    C178     C        0.98060    0.94110    0.32350    1.000
    C179     C        0.60990    0.03970    0.09300    1.000
    C180     C        0.59860    0.92100    0.10410    1.000
    C181     C        0.72340    0.05780    0.40710    1.000
    C182     C        0.94320    0.95080    0.57370    1.000
    C183     C        0.83890    0.17840    0.29860    1.000
    H89      H        0.93230    0.79090    0.31400    1.000
    C184     C        0.99490    0.79980    0.32480    1.000
    C185     C        0.97180    0.01850    0.31120    1.000
    N25      N        0.02117    0.91830    0.33280    1.000
    H90      H        0.63090    0.07770    0.10620    1.000
    C186     C        0.55950    0.04920    0.04430    1.000
    C187     C        0.54730    0.93060    0.05580    1.000
    H91      H        0.61130    0.87680    0.12350    1.000
    C188     C        0.69360    0.07820    0.43060    1.000
    C189     C        0.99150    0.93190    0.64410    1.000
    C190     C        0.84120    0.23060    0.25360    1.000
    H92      H        0.99990    0.75220    0.32250    1.000
    C191     C        0.02810    0.85000    0.33480    1.000
    N26      N        0.92738    0.03820    0.25150    1.000
    H93      H        0.54710    0.09310    0.02350    1.000
    C192     C        0.52720    0.99470    0.02570    1.000
    H94      H        0.52660    0.89270    0.04430    1.000
    C193     C        0.64560    0.05490    0.39160    1.000
    C194     C        0.71300    0.11720    0.49320    1.000
    C195     C        0.99990    0.86180    0.66440    1.000
    C196     C        0.88200    0.27390    0.28430    1.000
    C197     C        0.80270    0.23940    0.18100    1.000
    H95      H        0.05680    0.83430    0.34330    1.000
    C198     C        0.91970    0.10530    0.23420    1.000
    H96      H        0.63100    0.03140    0.34840    1.000
    C199     C        0.61920    0.06640    0.41680    1.000
    C200     C        0.76190    0.15370    0.53590    1.000
    N27      N        0.68755    0.12940    0.51780    1.000
    C201     C        0.04540    0.84280    0.72690    1.000
    H97      H        0.97550    0.82830    0.63660    1.000
    H98      H        0.90910    0.26820    0.33220    1.000
    C202     C        0.88220    0.32470    0.24410    1.000
    C203     C        0.75960    0.19130    0.13840    1.000
    N28      N        0.80270    0.28870    0.14100    1.000
    H99      H        0.88880    0.11850    0.19330    1.000
    H100     H        0.58700    0.05050    0.39160    1.000
    C204     C        0.64230    0.10240    0.48080    1.000
    C205     C        0.78750    0.16930    0.60860    1.000
    N29      N        0.77826    0.17570    0.49980    1.000
    H101     H        0.05230    0.79640    0.74240    1.000
    H102     H        0.90920    0.35420    0.26400    1.000
    C206     C        0.84160    0.33140    0.17350    1.000
    C207     C        0.71120    0.21780    0.09680    1.000
    N30      N        0.76920    0.12300    0.13760    1.000
    H103     H        0.62530    0.10810    0.49930    1.000
    C208     C        0.82940    0.21140    0.64340    1.000
    C209     C        0.77563    0.14120    0.65540    1.000
    C210     C        0.81980    0.21320    0.53530    1.000
    H104     H        0.84120    0.36770    0.14690    1.000
    C211     C        0.67290    0.17300    0.04910    1.000
    C212     C        0.70250    0.29240    0.10640    1.000
    C213     C        0.73110    0.08170    0.09110    1.000
    C214     C        0.84630    0.23320    0.60660    1.000
    H105     H        0.84580    0.22480    0.69090    1.000
    H106     H        0.83170    0.22670    0.51080    1.000
    C215     C        0.68300    0.10380    0.04560    1.000
    H107     H        0.64060    0.18930    0.01970    1.000
    H108     H        0.73740    0.03460    0.08940    1.000
    H109     H        0.87450    0.26040    0.62880    1.000
    H110     H        0.65790    0.07290    0.01320    1.000
    Gd21     Gd       0.29376    0.40797    0.28224    1.000
    O91      O        0.36899    0.38600    0.29390    1.000
    O92      O        0.20272    0.40620    0.19500    1.000
    O93      O        0.26293    0.46150    0.33850    1.000
    O94      O        0.35918    0.43360    0.40555    1.000
    O95      O        0.31547    0.52570    0.29500    1.000
    O96      O        0.29167    0.30510    0.33610    1.000
    O97      O        0.27580    0.42452    0.16380    1.000
    O98      O        0.27218    0.31590    0.19310    1.000
    C216     C        0.40770    0.42070    0.32290    1.000
    C217     C        0.18380    0.46630    0.17580    1.000
    Gd22     Gd       0.32432    0.45727    0.46480    1.000
    Gd23     Gd       0.25782    0.58608    0.30491    1.000
    Gd24     Gd       0.39485    0.54429    0.41263    1.000
    C218     C        0.44680    0.39450    0.31850    1.000
    O99      O        0.41895    0.47540    0.35960    1.000
    C219     C        0.12940    0.47450    0.12230    1.000
    O100     O        0.20929    0.52240    0.19980    1.000
    O101     O        0.26158    0.52390    0.45130    1.000
    O102     O        0.33184    0.56620    0.42193    1.000
    O103     O        0.40576    0.42040    0.55780    1.000
    O104     O        0.31064    0.33540    0.44170    1.000
    O105     O        0.29757    0.67020    0.28480    1.000
    O106     O        0.20672    0.57370    0.34320    1.000
    O107     O        0.37783    0.64690    0.34660    1.000
    O108     O        0.44370    0.49600    0.53450    1.000
    C220     C        0.45430    0.32300    0.31830    1.000
    C221     C        0.48060    0.44110    0.32350    1.000
    C222     C        0.10990    0.53970    0.09300    1.000
    C223     C        0.09860    0.42100    0.10410    1.000
    C224     C        0.22340    0.55780    0.40710    1.000
    C225     C        0.44320    0.45080    0.57370    1.000
    C226     C        0.33890    0.67840    0.29860    1.000
    H111     H        0.43230    0.29090    0.31400    1.000
    C227     C        0.49490    0.29980    0.32480    1.000
    C228     C        0.47180    0.51850    0.31120    1.000
    N31      N        0.52117    0.41830    0.33280    1.000
    H112     H        0.13090    0.57770    0.10620    1.000
    C229     C        0.05950    0.54920    0.04430    1.000
    C230     C        0.04730    0.43060    0.05580    1.000
    H113     H        0.11130    0.37680    0.12350    1.000
    C231     C        0.19360    0.57820    0.43060    1.000
    C232     C        0.49150    0.43190    0.64410    1.000
    C233     C        0.34120    0.73060    0.25360    1.000
    H114     H        0.49990    0.25220    0.32250    1.000
    C234     C        0.52810    0.35000    0.33480    1.000
    N32      N        0.42738    0.53820    0.25150    1.000
    H115     H        0.04710    0.59310    0.02350    1.000
    C235     C        0.02720    0.49470    0.02570    1.000
    H116     H        0.02660    0.39270    0.04430    1.000
    C236     C        0.14560    0.55490    0.39160    1.000
    C237     C        0.21300    0.61720    0.49320    1.000
    C238     C        0.49990    0.36180    0.66440    1.000
    C239     C        0.38200    0.77390    0.28430    1.000
    C240     C        0.30270    0.73940    0.18100    1.000
    H117     H        0.55680    0.33430    0.34330    1.000
    C241     C        0.41970    0.60530    0.23420    1.000
    H118     H        0.13100    0.53140    0.34840    1.000
    C242     C        0.11920    0.56640    0.41680    1.000
    C243     C        0.26190    0.65370    0.53590    1.000
    N33      N        0.18755    0.62940    0.51780    1.000
    C244     C        0.54540    0.34280    0.72690    1.000
    H119     H        0.47550    0.32830    0.63660    1.000
    H120     H        0.40910    0.76820    0.33220    1.000
    C245     C        0.38220    0.82470    0.24410    1.000
    C246     C        0.25960    0.69130    0.13840    1.000
    N34      N        0.30270    0.78870    0.14100    1.000
    H121     H        0.38880    0.61850    0.19330    1.000
    H122     H        0.08700    0.55050    0.39160    1.000
    C247     C        0.14230    0.60240    0.48080    1.000
    C248     C        0.28750    0.66930    0.60860    1.000
    N35      N        0.27826    0.67570    0.49980    1.000
    H123     H        0.55230    0.29640    0.74240    1.000
    H124     H        0.40920    0.85420    0.26400    1.000
    C249     C        0.34160    0.83140    0.17350    1.000
    C250     C        0.21120    0.71780    0.09680    1.000
    N36      N        0.26920    0.62300    0.13760    1.000
    H125     H        0.12530    0.60810    0.49930    1.000
    C251     C        0.32940    0.71140    0.64340    1.000
    C252     C        0.27563    0.64120    0.65540    1.000
    C253     C        0.31980    0.71320    0.53530    1.000
    H126     H        0.34120    0.86770    0.14690    1.000
    C254     C        0.17290    0.67300    0.04910    1.000
    C255     C        0.20250    0.79240    0.10640    1.000
    C256     C        0.23110    0.58170    0.09110    1.000
    C257     C        0.34630    0.73320    0.60660    1.000
    H127     H        0.34580    0.72480    0.69090    1.000
    H128     H        0.33170    0.72670    0.51080    1.000
    C258     C        0.18300    0.60380    0.04560    1.000
    H129     H        0.14060    0.68930    0.01970    1.000
    H130     H        0.23740    0.53460    0.08940    1.000
    H131     H        0.37450    0.76040    0.62880    1.000
    H132     H        0.15790    0.57290    0.01320    1.000
    Gd25     Gd       0.20624    0.90797    0.21776    1.000
    O109     O        0.13101    0.88600    0.20610    1.000
    O110     O        0.29728    0.90620    0.30500    1.000
    O111     O        0.23707    0.96150    0.16150    1.000
    O112     O        0.14082    0.93360    0.09445    1.000
    O113     O        0.18453    0.02570    0.20500    1.000
    O114     O        0.20833    0.80510    0.16390    1.000
    O115     O        0.22420    0.92452    0.33620    1.000
    O116     O        0.22782    0.81590    0.30690    1.000
    C259     C        0.09230    0.92070    0.17710    1.000
    C260     C        0.31620    0.96630    0.32420    1.000
    Gd26     Gd       0.17568    0.95727    0.03520    1.000
    Gd27     Gd       0.24218    0.08608    0.19509    1.000
    Gd28     Gd       0.10515    0.04429    0.08737    1.000
    C261     C        0.05320    0.89450    0.18150    1.000
    O117     O        0.08105    0.97540    0.14040    1.000
    C262     C        0.37060    0.97450    0.37770    1.000
    O118     O        0.29071    0.02240    0.30020    1.000
    O119     O        0.23842    0.02390    0.04870    1.000
    O120     O        0.16816    0.06620    0.07807    1.000
    O121     O        0.09424    0.92040    0.94220    1.000
    O122     O        0.18936    0.83540    0.05830    1.000
    O123     O        0.20243    0.17020    0.21520    1.000
    O124     O        0.29328    0.07370    0.15680    1.000
    O125     O        0.12217    0.14690    0.15340    1.000
    O126     O        0.05630    0.99600    0.96550    1.000
    C263     C        0.04570    0.82300    0.18170    1.000
    C264     C        0.01940    0.94110    0.17650    1.000
    C265     C        0.39010    0.03970    0.40700    1.000
    C266     C        0.40140    0.92100    0.39590    1.000
    C267     C        0.27660    0.05780    0.09290    1.000
    C268     C        0.05680    0.95080    0.92630    1.000
    C269     C        0.16110    0.17840    0.20140    1.000
    H133     H        0.06770    0.79090    0.18600    1.000
    C270     C        0.00510    0.79980    0.17520    1.000
    C271     C        0.02820    0.01850    0.18880    1.000
    N37      N        0.97883    0.91830    0.16720    1.000
    H134     H        0.36910    0.07770    0.39380    1.000
    C272     C        0.44050    0.04920    0.45570    1.000
    C273     C        0.45270    0.93060    0.44420    1.000
    H135     H        0.38870    0.87680    0.37650    1.000
    C274     C        0.30640    0.07820    0.06940    1.000
    C275     C        0.00850    0.93190    0.85590    1.000
    C276     C        0.15880    0.23060    0.24640    1.000
    H136     H        0.00010    0.75220    0.17750    1.000
    C277     C        0.97190    0.85000    0.16520    1.000
    N38      N        0.07262    0.03820    0.24850    1.000
    H137     H        0.45290    0.09310    0.47650    1.000
    C278     C        0.47280    0.99470    0.47430    1.000
    H138     H        0.47340    0.89270    0.45570    1.000
    C279     C        0.35440    0.05490    0.10840    1.000
    C280     C        0.28700    0.11720    0.00680    1.000
    C281     C        0.00010    0.86180    0.83560    1.000
    C282     C        0.11800    0.27390    0.21570    1.000
    C283     C        0.19730    0.23940    0.31900    1.000
    H139     H        0.94320    0.83430    0.15670    1.000
    C284     C        0.08030    0.10530    0.26580    1.000
    H140     H        0.36900    0.03140    0.15160    1.000
    C285     C        0.38080    0.06640    0.08320    1.000
    C286     C        0.23810    0.15370    0.96410    1.000
    N39      N        0.31245    0.12940    0.98220    1.000
    C287     C        0.95460    0.84280    0.77310    1.000
    H141     H        0.02450    0.82830    0.86340    1.000
    H142     H        0.09090    0.26820    0.16780    1.000
    C288     C        0.11780    0.32470    0.25590    1.000
    C289     C        0.24040    0.19130    0.36160    1.000
    N40      N        0.19730    0.28870    0.35900    1.000
    H143     H        0.11120    0.11850    0.30670    1.000
    H144     H        0.41300    0.05050    0.10840    1.000
    C290     C        0.35770    0.10240    0.01920    1.000
    C291     C        0.21250    0.16930    0.89140    1.000
    N41      N        0.22174    0.17570    0.00020    1.000
    H145     H        0.94770    0.79640    0.75760    1.000
    H146     H        0.09080    0.35420    0.23600    1.000
    C292     C        0.15840    0.33140    0.32650    1.000
    C293     C        0.28880    0.21780    0.40320    1.000
    N42      N        0.23080    0.12300    0.36240    1.000
    H147     H        0.37470    0.10810    0.00070    1.000
    C294     C        0.17060    0.21140    0.85660    1.000
    C295     C        0.22437    0.14120    0.84460    1.000
    C296     C        0.18020    0.21320    0.96470    1.000
    H148     H        0.15880    0.36770    0.35310    1.000
    C297     C        0.32710    0.17300    0.45090    1.000
    C298     C        0.29750    0.29240    0.39360    1.000
    C299     C        0.26890    0.08170    0.40890    1.000
    C300     C        0.15370    0.23320    0.89340    1.000
    H149     H        0.15420    0.22480    0.80910    1.000
    H150     H        0.16830    0.22670    0.98920    1.000
    C301     C        0.31700    0.10380    0.45440    1.000
    H151     H        0.35940    0.18930    0.48030    1.000
    H152     H        0.26260    0.03460    0.41060    1.000
    H153     H        0.12550    0.26040    0.87120    1.000
    H154     H        0.34210    0.07290    0.48680    1.000
    Gd29     Gd       0.70624    0.40797    0.21776    1.000
    O127     O        0.63101    0.38600    0.20610    1.000
    O128     O        0.79728    0.40620    0.30500    1.000
    O129     O        0.73707    0.46150    0.16150    1.000
    O130     O        0.64082    0.43360    0.09445    1.000
    O131     O        0.68453    0.52570    0.20500    1.000
    O132     O        0.70833    0.30510    0.16390    1.000
    O133     O        0.72420    0.42452    0.33620    1.000
    O134     O        0.72782    0.31590    0.30690    1.000
    C302     C        0.59230    0.42070    0.17710    1.000
    C303     C        0.81620    0.46630    0.32420    1.000
    Gd30     Gd       0.67568    0.45727    0.03520    1.000
    Gd31     Gd       0.74218    0.58608    0.19509    1.000
    Gd32     Gd       0.60515    0.54429    0.08737    1.000
    C304     C        0.55320    0.39450    0.18150    1.000
    O135     O        0.58105    0.47540    0.14040    1.000
    C305     C        0.87060    0.47450    0.37770    1.000
    O136     O        0.79071    0.52240    0.30020    1.000
    O137     O        0.73842    0.52390    0.04870    1.000
    O138     O        0.66816    0.56620    0.07807    1.000
    O139     O        0.59424    0.42040    0.94220    1.000
    O140     O        0.68936    0.33540    0.05830    1.000
    O141     O        0.70243    0.67020    0.21520    1.000
    O142     O        0.79328    0.57370    0.15680    1.000
    O143     O        0.62217    0.64690    0.15340    1.000
    O144     O        0.55630    0.49600    0.96550    1.000
    C306     C        0.54570    0.32300    0.18170    1.000
    C307     C        0.51940    0.44110    0.17650    1.000
    C308     C        0.89010    0.53970    0.40700    1.000
    C309     C        0.90140    0.42100    0.39590    1.000
    C310     C        0.77660    0.55780    0.09290    1.000
    C311     C        0.55680    0.45080    0.92630    1.000
    C312     C        0.66110    0.67840    0.20140    1.000
    H155     H        0.56770    0.29090    0.18600    1.000
    C313     C        0.50510    0.29980    0.17520    1.000
    C314     C        0.52820    0.51850    0.18880    1.000
    N43      N        0.47883    0.41830    0.16720    1.000
    H156     H        0.86910    0.57770    0.39380    1.000
    C315     C        0.94050    0.54920    0.45570    1.000
    C316     C        0.95270    0.43060    0.44420    1.000
    H157     H        0.88870    0.37680    0.37650    1.000
    C317     C        0.80640    0.57820    0.06940    1.000
    C318     C        0.50850    0.43190    0.85590    1.000
    C319     C        0.65880    0.73060    0.24640    1.000
    H158     H        0.50010    0.25220    0.17750    1.000
    C320     C        0.47190    0.35000    0.16520    1.000
    N44      N        0.57262    0.53820    0.24850    1.000
    H159     H        0.95290    0.59310    0.47650    1.000
    C321     C        0.97280    0.49470    0.47430    1.000
    H160     H        0.97340    0.39270    0.45570    1.000
    C322     C        0.85440    0.55490    0.10840    1.000
    C323     C        0.78700    0.61720    0.00680    1.000
    C324     C        0.50010    0.36180    0.83560    1.000
    C325     C        0.61800    0.77390    0.21570    1.000
    C326     C        0.69730    0.73940    0.31900    1.000
    H161     H        0.44320    0.33430    0.15670    1.000
    C327     C        0.58030    0.60530    0.26580    1.000
    H162     H        0.86900    0.53140    0.15160    1.000
    C328     C        0.88080    0.56640    0.08320    1.000
    C329     C        0.73810    0.65370    0.96410    1.000
    N45      N        0.81245    0.62940    0.98220    1.000
    C330     C        0.45460    0.34280    0.77310    1.000
    H163     H        0.52450    0.32830    0.86340    1.000
    H164     H        0.59090    0.76820    0.16780    1.000
    C331     C        0.61780    0.82470    0.25590    1.000
    C332     C        0.74040    0.69130    0.36160    1.000
    N46      N        0.69730    0.78870    0.35900    1.000
    H165     H        0.61120    0.61850    0.30670    1.000
    H166     H        0.91300    0.55050    0.10840    1.000
    C333     C        0.85770    0.60240    0.01920    1.000
    C334     C        0.71250    0.66930    0.89140    1.000
    N47      N        0.72174    0.67570    0.00020    1.000
    H167     H        0.44770    0.29640    0.75760    1.000
    H168     H        0.59080    0.85420    0.23600    1.000
    C335     C        0.65840    0.83140    0.32650    1.000
    C336     C        0.78880    0.71780    0.40320    1.000
    N48      N        0.73080    0.62300    0.36240    1.000
    H169     H        0.87470    0.60810    0.00070    1.000
    C337     C        0.67060    0.71140    0.85660    1.000
    C338     C        0.72437    0.64120    0.84460    1.000
    C339     C        0.68020    0.71320    0.96470    1.000
    H170     H        0.65880    0.86770    0.35310    1.000
    C340     C        0.82710    0.67300    0.45090    1.000
    C341     C        0.79750    0.79240    0.39360    1.000
    C342     C        0.76890    0.58170    0.40890    1.000
    C343     C        0.65370    0.73320    0.89340    1.000
    H171     H        0.65420    0.72480    0.80910    1.000
    H172     H        0.66830    0.72670    0.98920    1.000
    C344     C        0.81700    0.60380    0.45440    1.000
    H173     H        0.85940    0.68930    0.48030    1.000
    H174     H        0.76260    0.53460    0.41060    1.000
    H175     H        0.62550    0.76040    0.87120    1.000
    H176     H        0.84210    0.57290    0.48680    1.000
