data_functionalizedCrystal
_audit_creation_method	'EQeq! by Chris Wilmer'
_symmetry_space_group_name_H-M	'P1'
_symmetry_Int_Tables_number	1
_symmetry_cell_setting	triclinic
loop_
_symmetry_equiv_pos_as_xyz
  x,y,z
_cell_length_a	11.478
_cell_length_b	12.3775
_cell_length_c	25.794
_cell_angle_alpha	80.25
_cell_angle_beta	88.094
_cell_angle_gamma	65.252
loop_
_atom_site_label
_atom_site_type_symbol
_atom_site_fract_x
_atom_site_fract_y
_atom_site_fract_z
_atom_site_charge
Mof_C 	C 	0.5071	0.2144	0.3609	0.107
Mof_H 	H 	0.4676	0.2945	0.3657	-0.006
Mof_C 	C 	0.4378	0.1474	0.3695	-0.151
Mof_H 	H 	0.3534	0.1812	0.3798	0.087
Mof_C 	C 	0.4959	0.0254	0.3624	0.067
Mof_C 	C 	0.6225	0.9806	0.3497	-0.142
Mof_H 	H 	0.6666	0.8997	0.3466	0.083
Mof_C 	C 	0.6837	0.0566	0.3416	0.079
Mof_H 	H 	0.7691	0.0256	0.3325	-0.008
Mof_C 	C 	0.4203	0.9525	0.3661	0.056
Mof_C 	C 	0.317	0.9723	0.398	-0.14
Mof_H 	H 	0.2946	0.0302	0.4197	0.082
Mof_C 	C 	0.2482	0.9054	0.3971	0.091
Mof_H 	H 	0.178	0.9198	0.4184	0.01
Mof_C 	C 	0.4539	0.8611	0.3362	-0.12
Mof_H 	H 	0.5262	0.8432	0.316	0.068
Mof_C 	C 	0.3807	0.7972	0.3364	0.066
Mof_H 	H 	0.4018	0.738	0.3154	0.024
Mof_C 	C 	0.1983	0.7545	0.3648	0.216
Mof_C 	C 	0.0728	0.819	0.347	-0.248
Mof_H 	H 	0.0368	0.9028	0.3389	0.136
Mof_C 	C 	0.0013	0.7537	0.3415	0.158
Mof_H 	H 	0.9153	0.7944	0.3303	-0.017
Mof_C 	C 	0.0568	0.6302	0.3526	-0.206
Mof_C 	C 	0.1811	0.5704	0.3708	0.17
Mof_H 	H 	0.2178	0.4866	0.379	-0.011
Mof_C 	C 	0.2525	0.6316	0.3771	-0.256
Mof_H 	H 	0.3374	0.5902	0.3896	0.131
Mof_C 	C 	0.9824	0.5589	0.3419	0.416
Mof_C 	C 	0.011	0.9992	0.0649	0.02
Mof_H 	H 	0.0295	0.9461	0.0411	0.013
Mof_C 	C 	0.0775	0.0727	0.0603	-0.002
Mof_H 	H 	0.1311	0.0727	0.0325	0.042
Mof_C 	C 	0.0634	0.1408	0.0953	0.046
Mof_C 	C 	0.9811	0.1366	0.1382	-0.073
Mof_H 	H 	0.9702	0.1829	0.1643	0.066
Mof_C 	C 	0.9201	0.0636	0.1395	0.024
Mof_H 	H 	0.8715	0.0562	0.1683	0.02
Mof_C 	C 	0.1401	0.2128	0.0959	0.069
Mof_C 	C 	0.2578	0.1775	0.0718	-0.135
Mof_H 	H 	0.2845	0.1133	0.0534	0.083
Mof_C 	C 	0.334	0.2365	0.0749	0.088
Mof_H 	H 	0.412	0.2128	0.0584	0.007
Mof_C 	C 	0.1783	0.3714	0.122	0.09
Mof_H 	H 	0.1497	0.44	0.1376	0.014
Mof_C 	C 	0.1019	0.3135	0.1195	-0.139
Mof_H 	H 	0.0216	0.3424	0.1341	0.088
Mof_C 	C 	0.391	0.3762	0.1128	0.178
Mof_C 	C 	0.3524	0.4986	0.111	-0.206
Mof_H 	H 	0.2683	0.5538	0.1014	0.126
Mof_C 	C 	0.4452	0.5359	0.1242	0.113
Mof_H 	H 	0.4231	0.6177	0.1229	0.012
Mof_C 	C 	0.5709	0.4519	0.1395	-0.165
Mof_C 	C 	0.6039	0.3331	0.1392	0.127
Mof_H 	H 	0.6876	0.2776	0.1492	-0.007
Mof_C 	C 	0.5183	0.2926	0.1246	-0.219
Mof_H 	H 	0.5438	0.2116	0.1226	0.126
Mof_C 	C 	0.6677	0.4933	0.1575	0.363
Mof_C 	C 	0.6057	0.9389	0.1532	0.344
Mof_C 	C 	0.4891	0.9879	0.1842	-0.099
Mof_C 	C 	0.4698	0.0816	0.2116	-0.003
Mof_H 	H 	0.5333	0.1093	0.2129	0.041
Mof_C 	C 	0.3563	0.1336	0.237	-0.029
Mof_H 	H 	0.3432	0.198	0.254	0.057
Mof_C 	C 	0.2615	0.0906	0.2372	-0.06
Mof_C 	C 	0.2832	0.9933	0.2121	-0.031
Mof_H 	H 	0.2221	0.9621	0.2128	0.055
Mof_C 	C 	0.3968	0.9424	0.1856	-0.008
Mof_H 	H 	0.4106	0.8775	0.1689	0.04
Mof_C 	C 	0.1415	0.1478	0.2643	0.335
Mof_C 	C 	0.9675	0.6835	0.186	0.342
Mof_C 	C 	0.1036	0.636	0.2079	-0.066
Mof_C 	C 	0.1615	0.7152	0.207	-0.027
Mof_H 	H 	0.1158	0.7967	0.1933	0.052
Mof_C 	C 	0.2858	0.6737	0.2262	-0.006
Mof_H 	H 	0.3234	0.7275	0.2253	0.044
Mof_C 	C 	0.3569	0.5511	0.2471	-0.086
Mof_C 	C 	0.2983	0.4723	0.2487	-0.004
Mof_H 	H 	0.3438	0.391	0.2628	0.046
Mof_C 	C 	0.1738	0.5133	0.2295	-0.026
Mof_H 	H 	0.1358	0.4597	0.2309	0.047
Mof_C 	C 	0.4929	0.5067	0.2677	0.382
Mof_C 	C 	0.9651	0.7028	0.0521	0.355
Mof_C 	C 	0.9824	0.5971	0.0251	-0.072
Mof_C 	C 	0.097	0.539	0.0009	-0.018
Mof_H 	H 	0.1623	0.5646	0.0016	0.05
Mof_C 	C 	0.8859	0.5571	0.0244	-0.019
Mof_H 	H 	0.8097	0.5946	0.041	0.048
Mof_C 	C 	0.944	0.1666	0.4007	0.37
Mof_C 	C 	0.9714	0.0812	0.4531	-0.075
Mof_C 	C 	0.0547	0.0829	0.4908	-0.019
Mof_H 	H 	0.0914	0.1379	0.4844	0.053
Mof_C 	C 	0.0827	0.0019	0.5382	-0.02
Mof_H 	H 	0.1371	0.0032	0.5637	0.051
Mof_C 	C 	0.632	0.472	0.4018	0.376
Mof_C 	C 	0.5654	0.4858	0.4531	-0.081
Mof_C 	C 	0.5287	0.592	0.4732	-0.019
Mof_H 	H 	0.5478	0.6542	0.4554	0.055
Mof_C 	C 	0.5366	0.3941	0.4803	-0.017
Mof_H 	H 	0.5613	0.3225	0.4672	0.05
Mof_N 	N 	0.2767	0.8207	0.3674	-0.163
Mof_N 	N 	0.6252	0.1734	0.34638	-0.238
Mof_N 	N 	0.9277	0.9981	0.0986	-0.241
Mof_N 	N 	0.2961	0.3293	0.1019	-0.159
Mof_O 	O 	0.0477	0.4479	0.34306	-0.484
Mof_O 	O 	0.8634	0.6132	0.33304	-0.441
Mof_O 	O 	0.7689	0.4156	0.18233	-0.342
Mof_O 	O 	0.6395	0.6046	0.14744	-0.465
Mof_O 	O 	0.6705	0.9991	0.14245	-0.439
Mof_O 	O 	0.6342	0.8421	0.13591	-0.499
Mof_O 	O 	0.1257	0.2432	0.28162	-0.459
Mof_O 	O 	0.0627	0.1018	0.268	-0.3
Mof_O 	O 	0.9052	0.7947	0.17387	-0.462
Mof_O 	O 	0.9253	0.6048	0.18191	-0.475
Mof_O 	O 	0.5302	0.5843	0.27699	-0.445
Mof_O 	O 	0.5587	0.3943	0.27505	-0.465
Mof_O 	O 	0.8551	0.767	0.0627	-0.481
Mof_O 	O 	0.0621	0.7183	0.0612	-0.31
Mof_O 	O 	0.877	0.1558	0.36676	-0.471
Mof_O 	O 	0.9966	0.239	0.3954	-0.472
Mof_O 	O 	0.6568	0.3756	0.38468	-0.466
Mof_O 	O 	0.6527	0.5601	0.37818	-0.463
Mof_O 	O 	0.8178	0.4027	0.29203	-0.799
Mof_H 	H 	0.8416	0.4211	0.2574	0.176
Mof_O 	O 	0.6902	0.7042	0.24971	-0.683
Mof_H 	H 	0.7194	0.7626	0.2505	0.213
Mof_O 	O 	0.7163	0.0205	0.0305	-0.417
Mof_H 	H 	0.6403	0.0114	0.0311	0.174
Mof_Zn	Zn	0.98956	0.33149	0.32507	1.225
Mof_Zn	Zn	0.70734	0.56975	0.30506	1.228
Mof_Zn	Zn	0.72004	0.29026	0.32037	1.211
Mof_Zn	Zn	0.81856	0.90064	0.1	1.227
Mof_Zn	Zn	0.73408	0.67784	0.17784	1.224
Mof_H 	H 	0.8809	0.282	0.0816	0.062
Mof_C 	C 	0.9256	0.1984	0.0881	-0.075
Mof_C 	C 	0.862	0.1227	0.0914	0.026
Mof_H 	H 	0.7732	0.1572	0.0886	0.02
Mof_C 	C 	0.127	0.017	0.089	-0.12
Mof_H 	H 	0.2145	0.9805	0.0843	0.077
Mof_C 	C 	0.048	0.951	0.0902	0.039
Mof_H 	H 	0.0859	0.8717	0.0847	0.018
Mof_C 	C 	0.4929	0.7856	0.6391	0.106
Mof_H 	H 	0.5324	0.7055	0.6343	-0.007
Mof_C 	C 	0.5622	0.8526	0.6305	-0.152
Mof_H 	H 	0.6466	0.8188	0.6202	0.086
Mof_C 	C 	0.5041	0.9746	0.6376	0.066
Mof_C 	C 	0.3775	0.0194	0.6503	-0.143
Mof_H 	H 	0.3334	0.1003	0.6534	0.082
Mof_C 	C 	0.3163	0.9434	0.6584	0.078
Mof_H 	H 	0.2309	0.9744	0.6675	-0.009
Mof_C 	C 	0.5797	0.0475	0.6339	0.055
Mof_C 	C 	0.683	0.0277	0.602	-0.14
Mof_H 	H 	0.7054	0.9698	0.5803	0.082
Mof_C 	C 	0.7518	0.0946	0.6029	0.091
Mof_H 	H 	0.822	0.0802	0.5816	0.01
Mof_C 	C 	0.5461	0.1389	0.6638	-0.12
Mof_H 	H 	0.4738	0.1568	0.684	0.068
Mof_C 	C 	0.6193	0.2028	0.6636	0.066
Mof_H 	H 	0.5982	0.262	0.6846	0.024
Mof_C 	C 	0.8017	0.2455	0.6352	0.216
Mof_C 	C 	0.9272	0.181	0.653	-0.248
Mof_H 	H 	0.9632	0.0972	0.6611	0.136
Mof_C 	C 	0.9987	0.2463	0.6585	0.158
Mof_H 	H 	0.0847	0.2056	0.6697	-0.017
Mof_C 	C 	0.9432	0.3698	0.6474	-0.206
Mof_C 	C 	0.8189	0.4296	0.6292	0.17
Mof_H 	H 	0.7822	0.5134	0.621	-0.011
Mof_C 	C 	0.7475	0.3684	0.6229	-0.256
Mof_H 	H 	0.6626	0.4098	0.6104	0.131
Mof_C 	C 	0.0176	0.4411	0.6581	0.416
Mof_C 	C 	0.989	0.0008	0.9351	0.02
Mof_H 	H 	0.9705	0.0539	0.9589	0.013
Mof_C 	C 	0.9225	0.9273	0.9397	-0.002
Mof_H 	H 	0.8689	0.9273	0.9675	0.042
Mof_C 	C 	0.9366	0.8592	0.9047	0.046
Mof_C 	C 	0.0189	0.8634	0.8618	-0.073
Mof_H 	H 	0.0298	0.8171	0.8357	0.066
Mof_C 	C 	0.0799	0.9364	0.8605	0.024
Mof_H 	H 	0.1285	0.9438	0.8317	0.02
Mof_C 	C 	0.8599	0.7872	0.9041	0.069
Mof_C 	C 	0.7422	0.8225	0.9282	-0.135
Mof_H 	H 	0.7155	0.8867	0.9466	0.083
Mof_C 	C 	0.666	0.7635	0.9251	0.088
Mof_H 	H 	0.588	0.7872	0.9416	0.007
Mof_C 	C 	0.8217	0.6286	0.878	0.09
Mof_H 	H 	0.8503	0.56	0.8624	0.014
Mof_C 	C 	0.8981	0.6865	0.8805	-0.139
Mof_H 	H 	0.9784	0.6576	0.8659	0.088
Mof_C 	C 	0.609	0.6238	0.8872	0.178
Mof_C 	C 	0.6476	0.5014	0.889	-0.206
Mof_H 	H 	0.7317	0.4462	0.8986	0.126
Mof_C 	C 	0.5548	0.4641	0.8758	0.113
Mof_H 	H 	0.5769	0.3823	0.8771	0.012
Mof_C 	C 	0.4291	0.5481	0.8605	-0.165
Mof_C 	C 	0.3961	0.6669	0.8608	0.127
Mof_H 	H 	0.3124	0.7224	0.8508	-0.007
Mof_C 	C 	0.4817	0.7074	0.8754	-0.219
Mof_H 	H 	0.4562	0.7884	0.8774	0.126
Mof_C 	C 	0.3323	0.5067	0.8425	0.363
Mof_C 	C 	0.3943	0.0611	0.8468	0.344
Mof_C 	C 	0.5109	0.0121	0.8158	-0.099
Mof_C 	C 	0.5302	0.9184	0.7884	-0.003
Mof_H 	H 	0.4667	0.8907	0.7871	0.041
Mof_C 	C 	0.6437	0.8664	0.763	-0.029
Mof_H 	H 	0.6568	0.802	0.746	0.057
Mof_C 	C 	0.7385	0.9094	0.7628	-0.06
Mof_C 	C 	0.7168	0.0067	0.7879	-0.031
Mof_H 	H 	0.7779	0.0379	0.7872	0.055
Mof_C 	C 	0.6032	0.0576	0.8144	-0.008
Mof_H 	H 	0.5894	0.1225	0.8311	0.04
Mof_C 	C 	0.8585	0.8522	0.7357	0.335
Mof_C 	C 	0.0325	0.3165	0.814	0.342
Mof_C 	C 	0.8964	0.364	0.7921	-0.066
Mof_C 	C 	0.8385	0.2848	0.793	-0.027
Mof_H 	H 	0.8842	0.2033	0.8067	0.052
Mof_C 	C 	0.7142	0.3263	0.7738	-0.006
Mof_H 	H 	0.6766	0.2725	0.7747	0.044
Mof_C 	C 	0.6431	0.4489	0.7529	-0.086
Mof_C 	C 	0.7017	0.5277	0.7513	-0.004
Mof_H 	H 	0.6562	0.609	0.7372	0.046
Mof_C 	C 	0.8262	0.4867	0.7705	-0.026
Mof_H 	H 	0.8642	0.5403	0.7691	0.047
Mof_C 	C 	0.5071	0.4933	0.7323	0.382
Mof_C 	C 	0.0349	0.2972	0.9479	0.355
Mof_C 	C 	0.0176	0.4029	0.9749	-0.072
Mof_C 	C 	0.903	0.461	0.9991	-0.018
Mof_H 	H 	0.8377	0.4354	0.9984	0.05
Mof_C 	C 	0.1141	0.4429	0.9756	-0.019
Mof_H 	H 	0.1903	0.4054	0.959	0.048
Mof_C 	C 	0.056	0.8334	0.5993	0.37
Mof_C 	C 	0.0286	0.9188	0.5469	-0.075
Mof_C 	C 	0.9453	0.9171	0.5092	-0.019
Mof_H 	H 	0.9086	0.8621	0.5156	0.053
Mof_C 	C 	0.9173	0.9981	0.4618	-0.02
Mof_H 	H 	0.8629	0.9968	0.4363	0.051
Mof_C 	C 	0.368	0.528	0.5982	0.376
Mof_C 	C 	0.4346	0.5142	0.5469	-0.081
Mof_C 	C 	0.4713	0.408	0.5268	-0.019
Mof_H 	H 	0.4522	0.3458	0.5446	0.055
Mof_C 	C 	0.4634	0.6059	0.5197	-0.017
Mof_H 	H 	0.4387	0.6775	0.5328	0.05
Mof_N 	N 	0.7233	0.1793	0.6326	-0.163
Mof_N 	N 	0.3748	0.8266	0.65362	-0.238
Mof_N 	N 	0.0723	0.0019	0.9014	-0.241
Mof_N 	N 	0.7039	0.6707	0.8981	-0.159
Mof_O 	O 	0.9523	0.5521	0.65694	-0.484
Mof_O 	O 	0.1366	0.3868	0.66696	-0.441
Mof_O 	O 	0.2311	0.5844	0.81767	-0.342
Mof_O 	O 	0.3605	0.3954	0.85256	-0.465
Mof_O 	O 	0.3295	0.0009	0.85755	-0.439
Mof_O 	O 	0.3658	0.1579	0.86409	-0.499
Mof_O 	O 	0.8743	0.7568	0.71838	-0.459
Mof_O 	O 	0.9373	0.8982	0.732	-0.3
Mof_O 	O 	0.0948	0.2053	0.82613	-0.462
Mof_O 	O 	0.0747	0.3952	0.81809	-0.475
Mof_O 	O 	0.4698	0.4157	0.72301	-0.445
Mof_O 	O 	0.4413	0.6057	0.72495	-0.465
Mof_O 	O 	0.1449	0.233	0.9373	-0.481
Mof_O 	O 	0.9379	0.2817	0.9388	-0.31
Mof_O 	O 	0.123	0.8442	0.63324	-0.471
Mof_O 	O 	0.0034	0.761	0.6046	-0.472
Mof_O 	O 	0.3432	0.6244	0.61532	-0.466
Mof_O 	O 	0.3473	0.4399	0.62182	-0.463
Mof_O 	O 	0.1822	0.5973	0.70797	-0.799
Mof_H 	H 	0.1584	0.5789	0.7426	0.176
Mof_O 	O 	0.3098	0.2958	0.75029	-0.683
Mof_H 	H 	0.2806	0.2374	0.7495	0.213
Mof_O 	O 	0.2837	0.9795	0.9695	-0.417
Mof_H 	H 	0.3597	0.9886	0.9689	0.174
Mof_Zn	Zn	0.01044	0.66851	0.67493	1.225
Mof_Zn	Zn	0.29266	0.43025	0.69494	1.228
Mof_Zn	Zn	0.27996	0.70974	0.67963	1.211
Mof_Zn	Zn	0.18144	0.09936	0.9	1.227
Mof_Zn	Zn	0.26592	0.32216	0.82216	1.224
Mof_H 	H 	0.1191	0.718	0.9184	0.062
Mof_C 	C 	0.0744	0.8016	0.9119	-0.075
Mof_C 	C 	0.138	0.8773	0.9086	0.026
Mof_H 	H 	0.2268	0.8428	0.9114	0.02
Mof_C 	C 	0.873	0.983	0.911	-0.12
Mof_H 	H 	0.7855	0.0195	0.9157	0.077
Mof_C 	C 	0.952	0.049	0.9098	0.039
Mof_H 	H 	0.9141	0.1283	0.9153	0.018
_end
