data_functionalizedCrystal
_audit_creation_method	'EQeq! by Chris Wilmer'
_symmetry_space_group_name_H-M	'P1'
_symmetry_Int_Tables_number	1
_symmetry_cell_setting	triclinic
loop_
_symmetry_equiv_pos_as_xyz
  x,y,z
_cell_length_a	13.758
_cell_length_b	8.18
_cell_length_c	18.037
_cell_angle_alpha	90
_cell_angle_beta	106.647
_cell_angle_gamma	90
loop_
_atom_site_label
_atom_site_type_symbol
_atom_site_fract_x
_atom_site_fract_y
_atom_site_fract_z
_atom_site_charge
Mof_U 	U 	0.76746	0.07603	0.45994	0.033
Mof_U 	U 	0.91195	0.78605	0.73467	0.034
Mof_P 	P 	0.0049	0.055	0.6096	0.473
Mof_H 	H 	0.0272	0.1211	0.6567	-0.067
Mof_P 	P 	0.7693	0.1553	0.6578	0.469
Mof_H 	H 	0.8381	0.2001	0.6758	-0.058
Mof_O 	O 	0.9261	0.1573	0.5503	-0.147
Mof_O 	O 	0.9546	0.9033	0.6304	-0.148
Mof_O 	O 	0.0975	0.0178	0.5853	-0.158
Mof_O 	O 	0.7328	0.177	0.5701	-0.148
Mof_O 	O 	0.6985	0.9881	0.3271	-0.181
Mof_O 	O 	0.7755	0.9752	0.6796	-0.145
Mof_O 	O 	0.7038	0.253	0.6946	-0.144
Mof_O 	O 	0.4844	0.8926	0.3455	-0.174
Mof_O 	O 	0.5765	0.8088	0.2301	-0.168
Mof_O 	O 	0.5852	0.1221	0.4266	-0.173
Mof_P 	P 	0.4983	0.0739	0.3581	0.521
Mof_H 	H 	0.5096	0.1224	0.3116	-0.068
Mof_P 	P 	0.6784	0.8255	0.289	0.536
Mof_H 	H 	0.6795	0.7461	0.33	-0.075
Mof_O 	O 	0.404	0.1563	0.3726	-0.392
Mof_H 	H 	0.3984	0.1267	0.4146	0.295
Mof_O 	O 	0.7679	0.783	0.2578	-0.414
Mof_H 	H 	0.7905	0.8665	0.2441	0.3
Mof_U 	U 	0.73254	0.57603	0.04006	0.033
Mof_U 	U 	0.58805	0.28605	0.76533	0.034
Mof_P 	P 	0.4951	0.555	0.8904	0.472
Mof_H 	H 	0.4728	0.6211	0.8433	-0.067
Mof_P 	P 	0.7307	0.6553	0.8422	0.469
Mof_H 	H 	0.6619	0.7001	0.8242	-0.058
Mof_O 	O 	0.5739	0.6573	0.9497	-0.147
Mof_O 	O 	0.5454	0.4033	0.8696	-0.149
Mof_O 	O 	0.4025	0.5178	0.9147	-0.158
Mof_O 	O 	0.7672	0.677	0.9299	-0.149
Mof_O 	O 	0.8015	0.4881	0.1729	-0.181
Mof_O 	O 	0.7245	0.4752	0.8204	-0.145
Mof_O 	O 	0.7962	0.753	0.8054	-0.144
Mof_O 	O 	0.0156	0.3926	0.1545	-0.174
Mof_O 	O 	0.9235	0.3088	0.2699	-0.168
Mof_O 	O 	0.9148	0.6221	0.0734	-0.172
Mof_P 	P 	0.0017	0.5739	0.1419	0.519
Mof_H 	H 	0.9904	0.6224	0.1884	-0.067
Mof_P 	P 	0.8216	0.3255	0.211	0.536
Mof_H 	H 	0.8205	0.2461	0.17	-0.075
Mof_O 	O 	0.096	0.6563	0.1274	-0.391
Mof_H 	H 	0.1016	0.6267	0.0854	0.295
Mof_O 	O 	0.7321	0.283	0.2422	-0.414
Mof_H 	H 	0.7095	0.3665	0.2559	0.3
Mof_U 	U 	0.23254	0.92397	0.54006	0.033
Mof_U 	U 	0.08805	0.21395	0.26533	0.034
Mof_P 	P 	0.9951	0.945	0.3904	0.473
Mof_H 	H 	0.9728	0.8789	0.3433	-0.067
Mof_P 	P 	0.2307	0.8447	0.3422	0.469
Mof_H 	H 	0.1619	0.7999	0.3242	-0.058
Mof_O 	O 	0.0739	0.8427	0.4497	-0.147
Mof_O 	O 	0.0454	0.0967	0.3696	-0.148
Mof_O 	O 	0.9025	0.9822	0.4147	-0.158
Mof_O 	O 	0.2672	0.823	0.4299	-0.148
Mof_O 	O 	0.3015	0.0119	0.6729	-0.181
Mof_O 	O 	0.2245	0.0248	0.3204	-0.145
Mof_O 	O 	0.2962	0.747	0.3054	-0.144
Mof_O 	O 	0.5156	0.1074	0.6545	-0.174
Mof_O 	O 	0.4235	0.1912	0.7699	-0.168
Mof_O 	O 	0.4148	0.8779	0.5734	-0.173
Mof_P 	P 	0.5017	0.9261	0.6419	0.521
Mof_H 	H 	0.4904	0.8776	0.6884	-0.068
Mof_P 	P 	0.3216	0.1745	0.711	0.536
Mof_H 	H 	0.3205	0.2539	0.67	-0.075
Mof_O 	O 	0.596	0.8437	0.6274	-0.392
Mof_H 	H 	0.6016	0.8733	0.5854	0.295
Mof_O 	O 	0.2321	0.217	0.7422	-0.414
Mof_H 	H 	0.2095	0.1335	0.7559	0.3
Mof_U 	U 	0.26746	0.42397	0.95994	0.033
Mof_U 	U 	0.41195	0.71395	0.23467	0.034
Mof_P 	P 	0.5049	0.445	0.1096	0.472
Mof_H 	H 	0.5272	0.3789	0.1567	-0.067
Mof_P 	P 	0.2693	0.3447	0.1578	0.469
Mof_H 	H 	0.3381	0.2999	0.1758	-0.058
Mof_O 	O 	0.4261	0.3427	0.0503	-0.147
Mof_O 	O 	0.4546	0.5967	0.1304	-0.149
Mof_O 	O 	0.5975	0.4822	0.0853	-0.158
Mof_O 	O 	0.2328	0.323	0.0701	-0.149
Mof_O 	O 	0.1985	0.5119	0.8271	-0.181
Mof_O 	O 	0.2755	0.5248	0.1796	-0.145
Mof_O 	O 	0.2038	0.247	0.1946	-0.144
Mof_O 	O 	0.9844	0.6074	0.8455	-0.174
Mof_O 	O 	0.0765	0.6912	0.7301	-0.168
Mof_O 	O 	0.0852	0.3779	0.9266	-0.172
Mof_P 	P 	0.9983	0.4261	0.8581	0.519
Mof_H 	H 	0.0096	0.3776	0.8116	-0.067
Mof_P 	P 	0.1784	0.6745	0.789	0.536
Mof_H 	H 	0.1795	0.7539	0.83	-0.075
Mof_O 	O 	0.904	0.3437	0.8726	-0.391
Mof_H 	H 	0.8984	0.3733	0.9146	0.295
Mof_O 	O 	0.2679	0.717	0.7578	-0.414
Mof_H 	H 	0.2905	0.6335	0.7441	0.3
_end
