data_functionalizedCrystal
_audit_creation_method	'EQeq! by Chris Wilmer'
_symmetry_space_group_name_H-M	'P1'
_symmetry_Int_Tables_number	1
_symmetry_cell_setting	triclinic
loop_
_symmetry_equiv_pos_as_xyz
  x,y,z
_cell_length_a	18.4538
_cell_length_b	25.3442
_cell_length_c	37.783
_cell_angle_alpha	90
_cell_angle_beta	90
_cell_angle_gamma	90
loop_
_atom_site_label
_atom_site_type_symbol
_atom_site_fract_x
_atom_site_fract_y
_atom_site_fract_z
_atom_site_charge
Mof_Cd	Cd	0.52686	0.86732	0.27395	0.463
Mof_Cd	Cd	0.3855	0.87709	0.20082	0.425
Mof_Cd	Cd	0.97314	0.13268	0.77395	0.462
Mof_Cd	Cd	0.1145	0.12291	0.70082	0.425
Mof_Cd	Cd	0.47314	0.36732	0.22605	0.462
Mof_Cd	Cd	0.6145	0.37709	0.29918	0.425
Mof_Cd	Cd	0.02686	0.63268	0.72605	0.462
Mof_Cd	Cd	0.8855	0.62291	0.79918	0.425
Mof_H 	H 	0.1495	0.5218	0.6327	0.022
Mof_H 	H 	0.211	0.518	0.5797	0.082
Mof_H 	H 	0.3335	0.6427	0.6139	0.083
Mof_H 	H 	0.2589	0.641	0.6667	0.026
Mof_H 	H 	0.6985	0.2806	0.4179	0.009
Mof_H 	H 	0.6263	0.3541	0.4209	0.088
Mof_H 	H 	0.7089	0.3939	0.5143	0.092
Mof_H 	H 	0.7818	0.315	0.5092	0.02
Mof_H 	H 	0.4475	0.8404	0.3455	0.016
Mof_H 	H 	0.4284	0.7744	0.3882	0.094
Mof_H 	H 	0.5891	0.692	0.3434	0.093
Mof_H 	H 	0.6078	0.7622	0.3049	0.017
Mof_H 	H 	0.3075	0.5001	0.547	0.018
Mof_H 	H 	0.3776	0.4935	0.4971	0.096
Mof_H 	H 	0.4441	0.6417	0.5121	0.096
Mof_H 	H 	0.3698	0.6497	0.5596	0.018
Mof_H 	H 	0.5391	0.5168	0.523	0.089
Mof_H 	H 	0.6179	0.4454	0.5215	0.029
Mof_H 	H 	0.5867	0.432	0.4167	0.029
Mof_H 	H 	0.5079	0.5034	0.4181	0.088
Mof_H 	H 	0.5862	0.5906	0.4382	0.088
Mof_H 	H 	0.6042	0.6594	0.3995	0.023
Mof_H 	H 	0.3894	0.6952	0.4051	0.035
Mof_H 	H 	0.373	0.625	0.4456	0.094
Mof_H 	H 	0.6329	0.9618	0.2245	0.046
Mof_H 	H 	0.7168	0.0282	0.2137	0.071
Mof_H 	H 	0.5994	0.0799	0.1321	0.067
Mof_H 	H 	0.5042	0.0183	0.145	0.043
Mof_H 	H 	0.5921	0.1577	0.1843	0.061
Mof_H 	H 	0.5625	0.2311	0.218	0.043
Mof_H 	H 	0.7682	0.2659	0.2304	0.045
Mof_H 	H 	0.8022	0.1897	0.1966	0.074
Mof_H 	H 	0.6771	0.4663	0.1881	0.045
Mof_H 	H 	0.7499	0.5353	0.1691	0.069
Mof_H 	H 	0.5792	0.6005	0.1197	0.065
Mof_H 	H 	0.5064	0.5315	0.1387	0.043
Mof_H 	H 	0.7863	0.6576	0.1947	0.065
Mof_H 	H 	0.763	0.7266	0.2357	0.054
Mof_H 	H 	0.5895	0.7697	0.1777	0.054
Mof_H 	H 	0.6197	0.7083	0.1344	0.059
Mof_H 	H 	0.3398	0.9639	0.1426	0.014
Mof_H 	H 	0.262	0.9795	0.0973	0.089
Mof_H 	H 	0.1477	0.8516	0.1257	0.09
Mof_H 	H 	0.2365	0.836	0.1687	0.018
Mof_H 	H 	0.9934	0.6522	0.8674	0.006
Mof_H 	H 	0.0198	0.7124	0.907	0.098
Mof_H 	H 	0.8882	0.8132	0.8546	0.094
Mof_H 	H 	0.8559	0.7421	0.8204	0.014
Mof_H 	H 	0.8479	0.228	0.8998	0.004
Mof_H 	H 	0.9158	0.1532	0.9073	0.106
Mof_H 	H 	0.8118	0.1316	0.9994	0.102
Mof_H 	H 	0.7591	0.2145	0.9898	-0.005
Mof_H 	H 	0.1907	0.9946	0.0567	0.023
Mof_H 	H 	0.1149	0.0046	0.0079	0.088
Mof_H 	H 	0.0339	0.8598	0.0243	0.092
Mof_H 	H 	0.1066	0.8476	0.0719	0.022
Mof_H 	H 	0.0707	0.7864	0.9286	0.023
Mof_H 	H 	0.1046	0.8596	0.96	0.1
Mof_H 	H 	0.908	0.9227	0.9426	0.089
Mof_H 	H 	0.8817	0.8574	0.9034	0.018
Mof_H 	H 	0.9455	0.9942	0.0234	0.099
Mof_H 	H 	0.8774	0.0714	0.0127	0.02
Mof_H 	H 	0.9563	0.0758	0.9141	0.028
Mof_H 	H 	0.0303	0.0024	0.9269	0.099
Mof_H 	H 	0.3505	0.4782	0.1327	0.022
Mof_H 	H 	0.289	0.482	0.0797	0.082
Mof_H 	H 	0.1665	0.3573	0.1139	0.083
Mof_H 	H 	0.2411	0.359	0.1667	0.026
Mof_H 	H 	0.8015	0.7194	0.9179	0.009
Mof_H 	H 	0.8737	0.6459	0.9209	0.088
Mof_H 	H 	0.7911	0.6061	0.0143	0.092
Mof_H 	H 	0.7182	0.685	0.0092	0.02
Mof_H 	H 	0.0525	0.1596	0.8455	0.016
Mof_H 	H 	0.0716	0.2256	0.8882	0.094
Mof_H 	H 	0.9109	0.308	0.8434	0.093
Mof_H 	H 	0.8922	0.2378	0.8049	0.017
Mof_H 	H 	0.1925	0.4999	0.047	0.018
Mof_H 	H 	0.1224	0.5065	0.9971	0.096
Mof_H 	H 	0.0559	0.3583	0.0121	0.096
Mof_H 	H 	0.1302	0.3503	0.0596	0.018
Mof_H 	H 	0.9609	0.4832	0.023	0.089
Mof_H 	H 	0.8821	0.5546	0.0215	0.029
Mof_H 	H 	0.9133	0.568	0.9167	0.029
Mof_H 	H 	0.9921	0.4966	0.9181	0.088
Mof_H 	H 	0.9138	0.4094	0.9382	0.088
Mof_H 	H 	0.8958	0.3406	0.8995	0.023
Mof_H 	H 	0.1106	0.3048	0.9051	0.035
Mof_H 	H 	0.127	0.375	0.9456	0.094
Mof_H 	H 	0.8671	0.0382	0.7245	0.046
Mof_H 	H 	0.7832	0.9718	0.7137	0.071
Mof_H 	H 	0.9006	0.9201	0.6321	0.067
Mof_H 	H 	0.9958	0.9817	0.645	0.043
Mof_H 	H 	0.9079	0.8423	0.6843	0.061
Mof_H 	H 	0.9375	0.7689	0.718	0.043
Mof_H 	H 	0.7318	0.7341	0.7304	0.045
Mof_H 	H 	0.6978	0.8103	0.6966	0.074
Mof_H 	H 	0.8229	0.5337	0.6881	0.045
Mof_H 	H 	0.7501	0.4647	0.6691	0.069
Mof_H 	H 	0.9208	0.3995	0.6197	0.065
Mof_H 	H 	0.9936	0.4685	0.6387	0.043
Mof_H 	H 	0.7137	0.3424	0.6947	0.065
Mof_H 	H 	0.737	0.2734	0.7357	0.054
Mof_H 	H 	0.9105	0.2303	0.6777	0.054
Mof_H 	H 	0.8803	0.2917	0.6344	0.059
Mof_H 	H 	0.1602	0.0361	0.6426	0.014
Mof_H 	H 	0.238	0.0205	0.5973	0.089
Mof_H 	H 	0.3523	0.1484	0.6257	0.09
Mof_H 	H 	0.2635	0.164	0.6687	0.018
Mof_H 	H 	0.5066	0.3478	0.3674	0.006
Mof_H 	H 	0.4802	0.2876	0.407	0.098
Mof_H 	H 	0.6118	0.1868	0.3546	0.094
Mof_H 	H 	0.6441	0.2579	0.3204	0.014
Mof_H 	H 	0.6521	0.772	0.3998	0.005
Mof_H 	H 	0.5842	0.8468	0.4073	0.106
Mof_H 	H 	0.6882	0.8684	0.4994	0.102
Mof_H 	H 	0.7409	0.7855	0.4898	-0.005
Mof_H 	H 	0.3093	0.0054	0.5567	0.023
Mof_H 	H 	0.3851	0.9954	0.5079	0.088
Mof_H 	H 	0.4661	0.1402	0.5243	0.092
Mof_H 	H 	0.3934	0.1524	0.5719	0.022
Mof_H 	H 	0.4293	0.2136	0.4286	0.023
Mof_H 	H 	0.3954	0.1404	0.46	0.1
Mof_H 	H 	0.592	0.0773	0.4426	0.089
Mof_H 	H 	0.6183	0.1426	0.4034	0.018
Mof_H 	H 	0.5545	0.0058	0.5234	0.098
Mof_H 	H 	0.6226	0.9286	0.5127	0.021
Mof_H 	H 	0.5437	0.9242	0.4141	0.029
Mof_H 	H 	0.4697	0.9976	0.4269	0.098
Mof_H 	H 	0.8505	0.0218	0.8673	0.022
Mof_H 	H 	0.789	0.018	0.9203	0.082
Mof_H 	H 	0.6665	0.1427	0.8861	0.083
Mof_H 	H 	0.7411	0.141	0.8333	0.026
Mof_H 	H 	0.3015	0.7806	0.0821	0.009
Mof_H 	H 	0.3737	0.8541	0.0791	0.088
Mof_H 	H 	0.2911	0.8939	0.9857	0.092
Mof_H 	H 	0.2182	0.815	0.9908	0.02
Mof_H 	H 	0.5525	0.3404	0.1545	0.016
Mof_H 	H 	0.5716	0.2744	0.1118	0.094
Mof_H 	H 	0.4109	0.192	0.1566	0.093
Mof_H 	H 	0.3922	0.2622	0.1951	0.017
Mof_H 	H 	0.6925	0.0001	0.953	0.018
Mof_H 	H 	0.6224	0.9935	0.0029	0.097
Mof_H 	H 	0.5559	0.1417	0.9879	0.096
Mof_H 	H 	0.6302	0.1497	0.9404	0.018
Mof_H 	H 	0.4609	0.0168	0.977	0.089
Mof_H 	H 	0.3821	0.9454	0.9785	0.029
Mof_H 	H 	0.4133	0.932	0.0833	0.029
Mof_H 	H 	0.4921	0.0034	0.0819	0.087
Mof_H 	H 	0.4138	0.0906	0.0618	0.088
Mof_H 	H 	0.3958	0.1594	0.1005	0.023
Mof_H 	H 	0.6106	0.1952	0.0949	0.035
Mof_H 	H 	0.627	0.125	0.0544	0.094
Mof_H 	H 	0.3671	0.4618	0.2755	0.046
Mof_H 	H 	0.2832	0.5282	0.2863	0.071
Mof_H 	H 	0.4006	0.5799	0.3679	0.067
Mof_H 	H 	0.4958	0.5183	0.355	0.043
Mof_H 	H 	0.4079	0.6577	0.3157	0.061
Mof_H 	H 	0.4375	0.7311	0.282	0.043
Mof_H 	H 	0.2318	0.7659	0.2696	0.045
Mof_H 	H 	0.1978	0.6897	0.3034	0.074
Mof_H 	H 	0.3229	0.9663	0.3119	0.045
Mof_H 	H 	0.2501	0.0353	0.3309	0.069
Mof_H 	H 	0.4208	0.1005	0.3803	0.065
Mof_H 	H 	0.4936	0.0315	0.3613	0.043
Mof_H 	H 	0.2137	0.1576	0.3053	0.065
Mof_H 	H 	0.237	0.2266	0.2643	0.054
Mof_H 	H 	0.4105	0.2697	0.3223	0.054
Mof_H 	H 	0.3803	0.2083	0.3656	0.059
Mof_H 	H 	0.6602	0.4639	0.3574	0.014
Mof_H 	H 	0.738	0.4795	0.4027	0.089
Mof_H 	H 	0.8523	0.3516	0.3743	0.09
Mof_H 	H 	0.7635	0.336	0.3313	0.018
Mof_H 	H 	0.0066	0.1522	0.6326	0.006
Mof_H 	H 	0.9802	0.2124	0.593	0.098
Mof_H 	H 	0.1118	0.3132	0.6454	0.094
Mof_H 	H 	0.1441	0.2421	0.6796	0.014
Mof_H 	H 	0.1521	0.728	0.6002	0.004
Mof_H 	H 	0.0842	0.6532	0.5927	0.106
Mof_H 	H 	0.1882	0.6316	0.5006	0.102
Mof_H 	H 	0.2409	0.7145	0.5102	-0.005
Mof_H 	H 	0.8093	0.4946	0.4433	0.023
Mof_H 	H 	0.8851	0.5046	0.4921	0.088
Mof_H 	H 	0.9661	0.3598	0.4757	0.092
Mof_H 	H 	0.8934	0.3476	0.4281	0.022
Mof_H 	H 	0.9293	0.2864	0.5714	0.023
Mof_H 	H 	0.8954	0.3596	0.54	0.1
Mof_H 	H 	0.092	0.4227	0.5574	0.089
Mof_H 	H 	0.1183	0.3574	0.5966	0.018
Mof_H 	H 	0.0545	0.4942	0.4766	0.098
Mof_H 	H 	0.1226	0.5714	0.4873	0.021
Mof_H 	H 	0.0437	0.5758	0.5859	0.029
Mof_H 	H 	0.9697	0.5024	0.5731	0.098
Mof_H 	H 	0.6495	0.9782	0.3673	0.022
Mof_H 	H 	0.711	0.982	0.4203	0.082
Mof_H 	H 	0.8335	0.8573	0.3861	0.083
Mof_H 	H 	0.7589	0.859	0.3333	0.026
Mof_H 	H 	0.1985	0.2194	0.5821	0.009
Mof_H 	H 	0.1263	0.1459	0.5791	0.088
Mof_H 	H 	0.2089	0.1061	0.4857	0.092
Mof_H 	H 	0.2818	0.185	0.4908	0.02
Mof_H 	H 	0.9475	0.6596	0.6545	0.016
Mof_H 	H 	0.9284	0.7256	0.6118	0.094
Mof_H 	H 	0.0891	0.808	0.6566	0.093
Mof_H 	H 	0.1078	0.7378	0.6951	0.017
Mof_H 	H 	0.8075	0.9999	0.453	0.018
Mof_H 	H 	0.8776	0.0065	0.5029	0.096
Mof_H 	H 	0.9441	0.8583	0.4879	0.096
Mof_H 	H 	0.8698	0.8503	0.4404	0.018
Mof_H 	H 	0.0391	0.9832	0.477	0.089
Mof_H 	H 	0.1179	0.0546	0.4785	0.029
Mof_H 	H 	0.0867	0.068	0.5833	0.029
Mof_H 	H 	0.0079	0.9966	0.5819	0.087
Mof_H 	H 	0.0862	0.9094	0.5618	0.088
Mof_H 	H 	0.1042	0.8406	0.6005	0.023
Mof_H 	H 	0.8894	0.8048	0.5949	0.035
Mof_H 	H 	0.873	0.875	0.5544	0.094
Mof_H 	H 	0.1329	0.5382	0.7755	0.046
Mof_H 	H 	0.2168	0.4718	0.7863	0.071
Mof_H 	H 	0.0994	0.4201	0.8679	0.067
Mof_H 	H 	0.0042	0.4817	0.855	0.043
Mof_H 	H 	0.0921	0.3423	0.8157	0.061
Mof_H 	H 	0.0625	0.2689	0.782	0.043
Mof_H 	H 	0.2682	0.2341	0.7696	0.045
Mof_H 	H 	0.3022	0.3103	0.8034	0.074
Mof_H 	H 	0.1771	0.0337	0.8119	0.045
Mof_H 	H 	0.2499	0.9647	0.8309	0.069
Mof_H 	H 	0.0792	0.8995	0.8803	0.065
Mof_H 	H 	0.0064	0.9685	0.8613	0.043
Mof_H 	H 	0.2863	0.8424	0.8053	0.065
Mof_H 	H 	0.263	0.7734	0.7643	0.054
Mof_H 	H 	0.0895	0.7303	0.8223	0.054
Mof_H 	H 	0.1197	0.7917	0.8656	0.059
Mof_H 	H 	0.8398	0.5361	0.8574	0.014
Mof_H 	H 	0.762	0.5205	0.9027	0.089
Mof_H 	H 	0.6477	0.6484	0.8743	0.09
Mof_H 	H 	0.7365	0.664	0.8313	0.018
Mof_H 	H 	0.4934	0.8478	0.1326	0.006
Mof_H 	H 	0.5198	0.7876	0.093	0.098
Mof_H 	H 	0.3882	0.6868	0.1454	0.094
Mof_H 	H 	0.3559	0.7579	0.1796	0.014
Mof_H 	H 	0.3479	0.272	0.1002	0.004
Mof_H 	H 	0.4158	0.3468	0.0927	0.106
Mof_H 	H 	0.3118	0.3684	0.0006	0.102
Mof_H 	H 	0.2591	0.2855	0.0102	-0.005
Mof_H 	H 	0.6907	0.5054	0.9433	0.023
Mof_H 	H 	0.6149	0.4954	0.9921	0.088
Mof_H 	H 	0.5339	0.6402	0.9757	0.092
Mof_H 	H 	0.6066	0.6524	0.9281	0.022
Mof_H 	H 	0.5707	0.7136	0.0714	0.023
Mof_H 	H 	0.6046	0.6404	0.04	0.1
Mof_H 	H 	0.408	0.5773	0.0574	0.089
Mof_H 	H 	0.3817	0.6426	0.0966	0.018
Mof_H 	H 	0.4455	0.5058	0.9766	0.098
Mof_H 	H 	0.3774	0.4286	0.9873	0.02
Mof_H 	H 	0.4563	0.4242	0.0859	0.029
Mof_H 	H 	0.5303	0.4976	0.0731	0.098
Mof_C 	C 	0.1857	0.5465	0.62828	0.082
Mof_C 	C 	0.2239	0.5429	0.59665	-0.14
Mof_C 	C 	0.285	0.579	0.59028	0.093
Mof_C 	C 	0.2972	0.6175	0.61658	-0.132
Mof_C 	C 	0.2503	0.6167	0.64874	0.073
Mof_C 	C 	0.7006	0.3024	0.43766	0.095
Mof_C 	C 	0.6576	0.3473	0.4396	-0.148
Mof_C 	C 	0.6584	0.3845	0.46902	0.101
Mof_C 	C 	0.7044	0.3723	0.49452	-0.146
Mof_C 	C 	0.7491	0.3233	0.4913	0.076
Mof_C 	C 	0.4763	0.8103	0.34486	0.087
Mof_C 	C 	0.4643	0.7704	0.37112	-0.169
Mof_C 	C 	0.5062	0.7273	0.37035	0.118
Mof_C 	C 	0.5604	0.722	0.34464	-0.168
Mof_C 	C 	0.5694	0.7641	0.32081	0.091
Mof_C 	C 	0.3272	0.576	0.55825	-0.07
Mof_C 	C 	0.3335	0.5294	0.53944	0.041
Mof_C 	C 	0.377	0.5248	0.50993	-0.166
Mof_C 	C 	0.4196	0.5669	0.4994	0.157
Mof_C 	C 	0.4156	0.6131	0.51872	-0.171
Mof_C 	C 	0.3711	0.6179	0.54721	0.044
Mof_C 	C 	0.5487	0.4998	0.5017	-0.144
Mof_C 	C 	0.5959	0.4571	0.5008	0.021
Mof_C 	C 	0.6101	0.4317	0.46894	-0.057
Mof_C 	C 	0.5772	0.449	0.43797	0.018
Mof_C 	C 	0.53	0.4917	0.43887	-0.143
Mof_C 	C 	0.5157	0.5171	0.47073	0.132
Mof_C 	C 	0.5476	0.6121	0.43183	-0.149
Mof_C 	C 	0.5578	0.6525	0.408	0.025
Mof_C 	C 	0.4991	0.684	0.39614	-0.063
Mof_C 	C 	0.4286	0.6741	0.41152	0.016
Mof_C 	C 	0.4186	0.6324	0.43638	-0.142
Mof_C 	C 	0.4788	0.6034	0.4464	0.135
Mof_C 	C 	0.5072	0.9407	0.19375	0.316
Mof_C 	C 	0.5638	0.9825	0.18504	-0.068
Mof_C 	C 	0.6255	0.9858	0.20624	0.001
Mof_C 	C 	0.6756	0.0253	0.19971	-0.06
Mof_C 	C 	0.6641	0.0596	0.17287	-0.005
Mof_C 	C 	0.6036	0.0568	0.15115	-0.062
Mof_C 	C 	0.5475	0.019	0.15761	-0.005
Mof_C 	C 	0.6984	0.1647	0.18959	-0.001
Mof_C 	C 	0.6287	0.1781	0.19428	-0.069
Mof_C 	C 	0.6111	0.2231	0.2142	0.017
Mof_C 	C 	0.6614	0.2544	0.22783	-0.092
Mof_C 	C 	0.7327	0.2434	0.22156	0.013
Mof_C 	C 	0.7539	0.1972	0.20141	-0.065
Mof_C 	C 	0.6424	0.3003	0.24917	0.316
Mof_C 	C 	0.5383	0.4484	0.17684	0.295
Mof_C 	C 	0.5845	0.4921	0.16532	-0.077
Mof_C 	C 	0.6575	0.4932	0.17443	0.003
Mof_C 	C 	0.7011	0.5345	0.16303	-0.062
Mof_C 	C 	0.6718	0.5748	0.14252	-0.007
Mof_C 	C 	0.5988	0.5736	0.13342	-0.063
Mof_C 	C 	0.5552	0.5323	0.14482	0.001
Mof_C 	C 	0.7057	0.678	0.16132	-0.017
Mof_C 	C 	0.7483	0.6812	0.19107	-0.05
Mof_C 	C 	0.7327	0.7217	0.21632	-0.008
Mof_C 	C 	0.6708	0.7544	0.21167	-0.06
Mof_C 	C 	0.6298	0.7482	0.18104	-0.01
Mof_C 	C 	0.6468	0.7109	0.15512	-0.048
Mof_C 	C 	0.6496	0.7958	0.23681	0.3
Mof_C 	C 	0.3007	0.9412	0.13952	0.086
Mof_C 	C 	0.2554	0.9499	0.1115	-0.163
Mof_C 	C 	0.2003	0.9151	0.10414	0.11
Mof_C 	C 	0.1878	0.8736	0.12787	-0.153
Mof_C 	C 	0.2393	0.8666	0.15527	0.082
Mof_C 	C 	0.9707	0.6849	0.86521	0.111
Mof_C 	C 	0.9882	0.7207	0.8886	-0.187
Mof_C 	C 	0.9586	0.773	0.8858	0.12
Mof_C 	C 	0.9093	0.7804	0.85853	-0.171
Mof_C 	C 	0.8923	0.7374	0.83711	0.095
Mof_C 	C 	0.8429	0.2084	0.9205	0.11
Mof_C 	C 	0.8828	0.1634	0.9245	-0.186
Mof_C 	C 	0.8733	0.1335	0.95462	0.132
Mof_C 	C 	0.8229	0.1511	0.9793	-0.189
Mof_C 	C 	0.789	0.2005	0.97234	0.133
Mof_C 	C 	0.1555	0.9189	0.07102	-0.058
Mof_C 	C 	0.1591	0.9677	0.05024	0.022
Mof_C 	C 	0.1148	0.9733	0.02067	-0.143
Mof_C 	C 	0.0697	0.9312	0.01014	0.139
Mof_C 	C 	0.0664	0.8863	0.03056	-0.157
Mof_C 	C 	0.1087	0.8792	0.05956	0.036
Mof_C 	C 	0.9737	0.8139	0.91087	-0.077
Mof_C 	C 	0.0393	0.815	0.93009	0.039
Mof_C 	C 	0.058	0.8571	0.95077	-0.154
Mof_C 	C 	0.0067	0.8966	0.95802	0.137
Mof_C 	C 	0.9413	0.8956	0.93918	-0.153
Mof_C 	C 	0.925	0.8563	0.91599	0.037
Mof_C 	C 	0.9886	0.9899	0.9754	0.159
Mof_C 	C 	0.9475	0.0106	0.00141	-0.171
Mof_C 	C 	0.9072	0.0575	0.99521	0.037
Mof_C 	C 	0.9132	0.0828	0.96194	-0.075
Mof_C 	C 	0.9551	0.0607	0.93655	0.035
Mof_C 	C 	0.9975	0.015	0.9435	-0.167
Mof_C 	C 	0.3143	0.4535	0.12828	0.082
Mof_C 	C 	0.2761	0.4571	0.09665	-0.139
Mof_C 	C 	0.215	0.421	0.09028	0.093
Mof_C 	C 	0.2028	0.3825	0.11658	-0.132
Mof_C 	C 	0.2497	0.3833	0.14874	0.073
Mof_C 	C 	0.7994	0.6976	0.93766	0.095
Mof_C 	C 	0.8424	0.6527	0.9396	-0.148
Mof_C 	C 	0.8416	0.6155	0.96902	0.101
Mof_C 	C 	0.7956	0.6277	0.99452	-0.146
Mof_C 	C 	0.7509	0.6767	0.9913	0.076
Mof_C 	C 	0.0237	0.1897	0.84486	0.087
Mof_C 	C 	0.0357	0.2296	0.87112	-0.169
Mof_C 	C 	0.9938	0.2727	0.87035	0.118
Mof_C 	C 	0.9396	0.278	0.84464	-0.168
Mof_C 	C 	0.9306	0.2359	0.82081	0.091
Mof_C 	C 	0.1728	0.424	0.05825	-0.069
Mof_C 	C 	0.1665	0.4706	0.03944	0.041
Mof_C 	C 	0.123	0.4752	0.00993	-0.166
Mof_C 	C 	0.0804	0.4331	0.9994	0.156
Mof_C 	C 	0.0844	0.3869	0.01872	-0.17
Mof_C 	C 	0.1289	0.3821	0.04721	0.044
Mof_C 	C 	0.9513	0.5002	0.0017	-0.144
Mof_C 	C 	0.9041	0.5429	0.0008	0.021
Mof_C 	C 	0.8899	0.5683	0.96894	-0.057
Mof_C 	C 	0.9228	0.551	0.93797	0.018
Mof_C 	C 	0.97	0.5083	0.93887	-0.143
Mof_C 	C 	0.9843	0.4829	0.97073	0.132
Mof_C 	C 	0.9524	0.3879	0.93183	-0.149
Mof_C 	C 	0.9422	0.3475	0.908	0.025
Mof_C 	C 	0.0009	0.316	0.89614	-0.063
Mof_C 	C 	0.0714	0.3259	0.91152	0.016
Mof_C 	C 	0.0814	0.3676	0.93638	-0.142
Mof_C 	C 	0.0212	0.3966	0.9464	0.135
Mof_C 	C 	0.9928	0.0593	0.69375	0.316
Mof_C 	C 	0.9362	0.0175	0.68504	-0.069
Mof_C 	C 	0.8745	0.0142	0.70624	0.001
Mof_C 	C 	0.8244	0.9747	0.69971	-0.059
Mof_C 	C 	0.8359	0.9404	0.67287	-0.005
Mof_C 	C 	0.8964	0.9432	0.65115	-0.062
Mof_C 	C 	0.9525	0.981	0.65761	-0.005
Mof_C 	C 	0.8016	0.8353	0.68959	-0.001
Mof_C 	C 	0.8713	0.8219	0.69428	-0.069
Mof_C 	C 	0.8889	0.7769	0.7142	0.017
Mof_C 	C 	0.8386	0.7456	0.72783	-0.092
Mof_C 	C 	0.7673	0.7566	0.72156	0.013
Mof_C 	C 	0.7461	0.8028	0.70141	-0.065
Mof_C 	C 	0.8576	0.6997	0.74917	0.316
Mof_C 	C 	0.9617	0.5516	0.67684	0.295
Mof_C 	C 	0.9155	0.5079	0.66532	-0.077
Mof_C 	C 	0.8425	0.5068	0.67443	0.002
Mof_C 	C 	0.7989	0.4655	0.66303	-0.062
Mof_C 	C 	0.8282	0.4252	0.64252	-0.007
Mof_C 	C 	0.9012	0.4264	0.63342	-0.063
Mof_C 	C 	0.9448	0.4677	0.64482	0.001
Mof_C 	C 	0.7943	0.322	0.66132	-0.017
Mof_C 	C 	0.7517	0.3188	0.69107	-0.05
Mof_C 	C 	0.7673	0.2783	0.71632	-0.008
Mof_C 	C 	0.8292	0.2456	0.71167	-0.06
Mof_C 	C 	0.8702	0.2518	0.68104	-0.01
Mof_C 	C 	0.8532	0.2891	0.65512	-0.048
Mof_C 	C 	0.8504	0.2042	0.73681	0.3
Mof_C 	C 	0.1993	0.0588	0.63952	0.086
Mof_C 	C 	0.2446	0.0501	0.6115	-0.163
Mof_C 	C 	0.2997	0.0849	0.60414	0.11
Mof_C 	C 	0.3122	0.1264	0.62787	-0.153
Mof_C 	C 	0.2607	0.1334	0.65527	0.082
Mof_C 	C 	0.5293	0.3151	0.36521	0.112
Mof_C 	C 	0.5118	0.2793	0.3886	-0.188
Mof_C 	C 	0.5414	0.227	0.3858	0.121
Mof_C 	C 	0.5907	0.2196	0.35853	-0.171
Mof_C 	C 	0.6077	0.2626	0.33711	0.095
Mof_C 	C 	0.6571	0.7916	0.4205	0.11
Mof_C 	C 	0.6172	0.8366	0.4245	-0.185
Mof_C 	C 	0.6267	0.8665	0.45462	0.132
Mof_C 	C 	0.6771	0.8489	0.4793	-0.188
Mof_C 	C 	0.711	0.7995	0.47234	0.133
Mof_C 	C 	0.3445	0.0811	0.57102	-0.058
Mof_C 	C 	0.3409	0.0323	0.55024	0.021
Mof_C 	C 	0.3852	0.0267	0.52067	-0.143
Mof_C 	C 	0.4303	0.0688	0.51014	0.139
Mof_C 	C 	0.4336	0.1137	0.53056	-0.157
Mof_C 	C 	0.3913	0.1208	0.55956	0.036
Mof_C 	C 	0.5263	0.1861	0.41087	-0.078
Mof_C 	C 	0.4607	0.185	0.43009	0.04
Mof_C 	C 	0.442	0.1429	0.45077	-0.154
Mof_C 	C 	0.4933	0.1034	0.45802	0.137
Mof_C 	C 	0.5587	0.1044	0.43918	-0.154
Mof_C 	C 	0.575	0.1437	0.41599	0.038
Mof_C 	C 	0.5114	0.0101	0.4754	0.156
Mof_C 	C 	0.5525	0.9894	0.50141	-0.168
Mof_C 	C 	0.5928	0.9425	0.49521	0.035
Mof_C 	C 	0.5868	0.9172	0.46194	-0.073
Mof_C 	C 	0.5449	0.9393	0.43655	0.034
Mof_C 	C 	0.5025	0.985	0.4435	-0.165
Mof_C 	C 	0.8143	0.0465	0.87172	0.082
Mof_C 	C 	0.7761	0.0429	0.90335	-0.14
Mof_C 	C 	0.715	0.079	0.90972	0.093
Mof_C 	C 	0.7028	0.1175	0.88342	-0.132
Mof_C 	C 	0.7497	0.1167	0.85126	0.073
Mof_C 	C 	0.2994	0.8024	0.06234	0.095
Mof_C 	C 	0.3424	0.8473	0.0604	-0.148
Mof_C 	C 	0.3416	0.8845	0.03098	0.101
Mof_C 	C 	0.2956	0.8723	0.00548	-0.145
Mof_C 	C 	0.2509	0.8233	0.0087	0.076
Mof_C 	C 	0.5237	0.3103	0.15514	0.087
Mof_C 	C 	0.5357	0.2704	0.12888	-0.169
Mof_C 	C 	0.4938	0.2273	0.12965	0.118
Mof_C 	C 	0.4396	0.222	0.15536	-0.168
Mof_C 	C 	0.4306	0.2641	0.17919	0.091
Mof_C 	C 	0.6728	0.076	0.94175	-0.07
Mof_C 	C 	0.6665	0.0294	0.96056	0.041
Mof_C 	C 	0.623	0.0248	0.99007	-0.166
Mof_C 	C 	0.5804	0.0669	0.0006	0.157
Mof_C 	C 	0.5844	0.1131	0.98128	-0.171
Mof_C 	C 	0.6289	0.1179	0.95279	0.044
Mof_C 	C 	0.4513	0.9998	0.9983	-0.144
Mof_C 	C 	0.4041	0.9571	0.9992	0.021
Mof_C 	C 	0.3899	0.9317	0.03106	-0.056
Mof_C 	C 	0.4228	0.949	0.06203	0.018
Mof_C 	C 	0.47	0.9917	0.06113	-0.142
Mof_C 	C 	0.4843	0.0171	0.02927	0.132
Mof_C 	C 	0.4524	0.1121	0.06817	-0.149
Mof_C 	C 	0.4422	0.1525	0.092	0.025
Mof_C 	C 	0.5009	0.184	0.10386	-0.063
Mof_C 	C 	0.5714	0.1741	0.08848	0.016
Mof_C 	C 	0.5814	0.1324	0.06362	-0.142
Mof_C 	C 	0.5212	0.1034	0.0536	0.135
Mof_C 	C 	0.4928	0.4407	0.30625	0.316
Mof_C 	C 	0.4362	0.4825	0.31496	-0.069
Mof_C 	C 	0.3745	0.4858	0.29376	0.001
Mof_C 	C 	0.3244	0.5253	0.30029	-0.06
Mof_C 	C 	0.3359	0.5596	0.32713	-0.005
Mof_C 	C 	0.3964	0.5568	0.34885	-0.062
Mof_C 	C 	0.4525	0.519	0.34239	-0.005
Mof_C 	C 	0.3016	0.6647	0.31041	-0.001
Mof_C 	C 	0.3713	0.6781	0.30572	-0.069
Mof_C 	C 	0.3889	0.7231	0.2858	0.017
Mof_C 	C 	0.3386	0.7544	0.27217	-0.092
Mof_C 	C 	0.2673	0.7434	0.27844	0.013
Mof_C 	C 	0.2461	0.6972	0.29859	-0.065
Mof_C 	C 	0.3576	0.8003	0.25083	0.316
Mof_C 	C 	0.4617	0.9484	0.32316	0.295
Mof_C 	C 	0.4155	0.9921	0.33468	-0.076
Mof_C 	C 	0.3425	0.9932	0.32557	0.003
Mof_C 	C 	0.2989	0.0345	0.33697	-0.062
Mof_C 	C 	0.3282	0.0748	0.35748	-0.007
Mof_C 	C 	0.4012	0.0736	0.36658	-0.063
Mof_C 	C 	0.4448	0.0323	0.35518	0
Mof_C 	C 	0.2943	0.178	0.33868	-0.017
Mof_C 	C 	0.2517	0.1812	0.30893	-0.05
Mof_C 	C 	0.2673	0.2217	0.28368	-0.008
Mof_C 	C 	0.3292	0.2544	0.28833	-0.06
Mof_C 	C 	0.3702	0.2482	0.31896	-0.01
Mof_C 	C 	0.3532	0.2109	0.34488	-0.048
Mof_C 	C 	0.3504	0.2958	0.26319	0.3
Mof_C 	C 	0.6993	0.4412	0.36048	0.086
Mof_C 	C 	0.7446	0.4499	0.3885	-0.163
Mof_C 	C 	0.7997	0.4151	0.39586	0.11
Mof_C 	C 	0.8122	0.3736	0.37213	-0.153
Mof_C 	C 	0.7607	0.3666	0.34473	0.082
Mof_C 	C 	0.0293	0.1849	0.63479	0.111
Mof_C 	C 	0.0118	0.2207	0.6114	-0.187
Mof_C 	C 	0.0414	0.273	0.6142	0.12
Mof_C 	C 	0.0907	0.2804	0.64147	-0.171
Mof_C 	C 	0.1077	0.2374	0.66289	0.095
Mof_C 	C 	0.1571	0.7084	0.5795	0.11
Mof_C 	C 	0.1172	0.6634	0.5755	-0.186
Mof_C 	C 	0.1267	0.6335	0.54538	0.132
Mof_C 	C 	0.1771	0.6511	0.5207	-0.188
Mof_C 	C 	0.211	0.7005	0.52766	0.133
Mof_C 	C 	0.8445	0.4189	0.42898	-0.058
Mof_C 	C 	0.8409	0.4677	0.44976	0.021
Mof_C 	C 	0.8852	0.4733	0.47933	-0.143
Mof_C 	C 	0.9303	0.4312	0.48986	0.138
Mof_C 	C 	0.9336	0.3863	0.46944	-0.157
Mof_C 	C 	0.8913	0.3792	0.44044	0.036
Mof_C 	C 	0.0263	0.3139	0.58913	-0.078
Mof_C 	C 	0.9607	0.315	0.56991	0.039
Mof_C 	C 	0.942	0.3571	0.54923	-0.154
Mof_C 	C 	0.9933	0.3966	0.54198	0.137
Mof_C 	C 	0.0587	0.3956	0.56082	-0.153
Mof_C 	C 	0.075	0.3563	0.58401	0.037
Mof_C 	C 	0.0114	0.4899	0.5246	0.157
Mof_C 	C 	0.0525	0.5106	0.49859	-0.168
Mof_C 	C 	0.0928	0.5575	0.50479	0.035
Mof_C 	C 	0.0868	0.5828	0.53806	-0.074
Mof_C 	C 	0.0449	0.5607	0.56345	0.034
Mof_C 	C 	0.0025	0.515	0.5565	-0.165
Mof_C 	C 	0.6857	0.9535	0.37172	0.082
Mof_C 	C 	0.7239	0.9571	0.40335	-0.139
Mof_C 	C 	0.785	0.921	0.40972	0.093
Mof_C 	C 	0.7972	0.8825	0.38342	-0.132
Mof_C 	C 	0.7503	0.8833	0.35126	0.073
Mof_C 	C 	0.2006	0.1976	0.56234	0.095
Mof_C 	C 	0.1576	0.1527	0.5604	-0.148
Mof_C 	C 	0.1584	0.1155	0.53098	0.101
Mof_C 	C 	0.2044	0.1277	0.50548	-0.145
Mof_C 	C 	0.2491	0.1767	0.5087	0.076
Mof_C 	C 	0.9763	0.6897	0.65514	0.087
Mof_C 	C 	0.9643	0.7296	0.62888	-0.169
Mof_C 	C 	0.0062	0.7727	0.62965	0.118
Mof_C 	C 	0.0604	0.778	0.65536	-0.168
Mof_C 	C 	0.0694	0.7359	0.67919	0.091
Mof_C 	C 	0.8272	0.924	0.44175	-0.069
Mof_C 	C 	0.8335	0.9706	0.46056	0.04
Mof_C 	C 	0.877	0.9752	0.49007	-0.165
Mof_C 	C 	0.9196	0.9331	0.5006	0.156
Mof_C 	C 	0.9156	0.8869	0.48128	-0.17
Mof_C 	C 	0.8711	0.8821	0.45279	0.044
Mof_C 	C 	0.0487	0.0002	0.4983	-0.143
Mof_C 	C 	0.0959	0.0429	0.4992	0.02
Mof_C 	C 	0.1101	0.0683	0.53106	-0.056
Mof_C 	C 	0.0772	0.051	0.56203	0.018
Mof_C 	C 	0.03	0.0083	0.56113	-0.142
Mof_C 	C 	0.0157	0.9829	0.52927	0.132
Mof_C 	C 	0.0476	0.8879	0.56817	-0.149
Mof_C 	C 	0.0578	0.8475	0.592	0.025
Mof_C 	C 	0.9991	0.816	0.60386	-0.063
Mof_C 	C 	0.9286	0.8259	0.58848	0.016
Mof_C 	C 	0.9186	0.8676	0.56362	-0.142
Mof_C 	C 	0.9788	0.8966	0.5536	0.135
Mof_C 	C 	0.0072	0.5593	0.80625	0.316
Mof_C 	C 	0.0638	0.5175	0.81496	-0.069
Mof_C 	C 	0.1255	0.5142	0.79376	0.001
Mof_C 	C 	0.1756	0.4747	0.80029	-0.06
Mof_C 	C 	0.1641	0.4404	0.82713	-0.005
Mof_C 	C 	0.1036	0.4432	0.84885	-0.062
Mof_C 	C 	0.0475	0.481	0.84239	-0.005
Mof_C 	C 	0.1984	0.3353	0.81041	-0.001
Mof_C 	C 	0.1287	0.3219	0.80572	-0.069
Mof_C 	C 	0.1111	0.2769	0.7858	0.017
Mof_C 	C 	0.1614	0.2456	0.77217	-0.092
Mof_C 	C 	0.2327	0.2566	0.77844	0.013
Mof_C 	C 	0.2539	0.3028	0.79859	-0.065
Mof_C 	C 	0.1424	0.1997	0.75083	0.316
Mof_C 	C 	0.0383	0.0516	0.82316	0.295
Mof_C 	C 	0.0845	0.0079	0.83468	-0.076
Mof_C 	C 	0.1575	0.0068	0.82557	0.003
Mof_C 	C 	0.2011	0.9655	0.83697	-0.062
Mof_C 	C 	0.1718	0.9252	0.85748	-0.007
Mof_C 	C 	0.0988	0.9264	0.86658	-0.063
Mof_C 	C 	0.0552	0.9677	0.85518	0
Mof_C 	C 	0.2057	0.822	0.83868	-0.017
Mof_C 	C 	0.2483	0.8188	0.80893	-0.05
Mof_C 	C 	0.2327	0.7783	0.78368	-0.008
Mof_C 	C 	0.1708	0.7456	0.78833	-0.06
Mof_C 	C 	0.1298	0.7518	0.81896	-0.01
Mof_C 	C 	0.1468	0.7891	0.84488	-0.048
Mof_C 	C 	0.1496	0.7042	0.76319	0.3
Mof_C 	C 	0.8007	0.5588	0.86048	0.086
Mof_C 	C 	0.7554	0.5501	0.8885	-0.163
Mof_C 	C 	0.7003	0.5849	0.89586	0.11
Mof_C 	C 	0.6878	0.6264	0.87213	-0.153
Mof_C 	C 	0.7393	0.6334	0.84473	0.082
Mof_C 	C 	0.4707	0.8151	0.13479	0.112
Mof_C 	C 	0.4882	0.7793	0.1114	-0.188
Mof_C 	C 	0.4586	0.727	0.1142	0.121
Mof_C 	C 	0.4093	0.7196	0.14147	-0.171
Mof_C 	C 	0.3923	0.7626	0.16289	0.095
Mof_C 	C 	0.3429	0.2916	0.0795	0.11
Mof_C 	C 	0.3828	0.3366	0.0755	-0.186
Mof_C 	C 	0.3733	0.3665	0.04538	0.132
Mof_C 	C 	0.3229	0.3489	0.0207	-0.188
Mof_C 	C 	0.289	0.2995	0.02766	0.133
Mof_C 	C 	0.6555	0.5811	0.92898	-0.058
Mof_C 	C 	0.6591	0.5323	0.94976	0.021
Mof_C 	C 	0.6148	0.5267	0.97933	-0.143
Mof_C 	C 	0.5697	0.5688	0.98986	0.139
Mof_C 	C 	0.5664	0.6137	0.96944	-0.157
Mof_C 	C 	0.6087	0.6208	0.94044	0.036
Mof_C 	C 	0.4737	0.6861	0.08913	-0.078
Mof_C 	C 	0.5393	0.685	0.06991	0.04
Mof_C 	C 	0.558	0.6429	0.04923	-0.154
Mof_C 	C 	0.5067	0.6034	0.04198	0.138
Mof_C 	C 	0.4413	0.6044	0.06082	-0.154
Mof_C 	C 	0.425	0.6437	0.08401	0.038
Mof_C 	C 	0.4886	0.5101	0.0246	0.157
Mof_C 	C 	0.4475	0.4894	0.99859	-0.168
Mof_C 	C 	0.4072	0.4425	0.00479	0.035
Mof_C 	C 	0.4132	0.4172	0.03806	-0.074
Mof_C 	C 	0.4551	0.4393	0.06345	0.034
Mof_C 	C 	0.4975	0.485	0.0565	-0.165
Mof_S 	S 	0.72735	0.11033	0.16408	0.282
Mof_S 	S 	0.72739	0.62933	0.13068	0.289
Mof_S 	S 	0.77265	0.88967	0.66408	0.283
Mof_S 	S 	0.77261	0.37067	0.63068	0.289
Mof_S 	S 	0.27265	0.61033	0.33592	0.282
Mof_S 	S 	0.27261	0.12933	0.36932	0.289
Mof_S 	S 	0.22735	0.38967	0.83592	0.282
Mof_S 	S 	0.22739	0.87067	0.86932	0.289
Mof_N 	N 	0.1984	0.5833	0.65237	-0.125
Mof_N 	N 	0.7433	0.2912	0.46358	-0.134
Mof_N 	N 	0.5269	0.80643	0.31946	-0.153
Mof_N 	N 	0.4675	0.5616	0.47125	-0.176
Mof_N 	N 	0.2916	0.9012	0.16315	-0.153
Mof_N 	N 	0.9235	0.69011	0.83844	-0.156
Mof_N 	N 	0.7965	0.2254	0.94551	-0.156
Mof_N 	N 	0.023	0.9406	0.98066	-0.177
Mof_N 	N 	0.3016	0.4167	0.15237	-0.125
Mof_N 	N 	0.7567	0.7088	0.96358	-0.134
Mof_N 	N 	0.9731	0.19357	0.81946	-0.153
Mof_N 	N 	0.0325	0.4384	0.97125	-0.176
Mof_N 	N 	0.2084	0.0988	0.66315	-0.153
Mof_N 	N 	0.5765	0.30989	0.33844	-0.156
Mof_N 	N 	0.7035	0.7746	0.44551	-0.156
Mof_N 	N 	0.477	0.0594	0.48066	-0.176
Mof_N 	N 	0.8016	0.0833	0.84763	-0.125
Mof_N 	N 	0.2567	0.7912	0.03642	-0.134
Mof_N 	N 	0.4731	0.30643	0.18054	-0.153
Mof_N 	N 	0.5325	0.0616	0.02875	-0.176
Mof_N 	N 	0.7084	0.4012	0.33685	-0.153
Mof_N 	N 	0.0765	0.19011	0.66156	-0.156
Mof_N 	N 	0.2035	0.7254	0.55449	-0.156
Mof_N 	N 	0.977	0.4406	0.51934	-0.176
Mof_N 	N 	0.6984	0.9167	0.34763	-0.125
Mof_N 	N 	0.2433	0.2088	0.53642	-0.134
Mof_N 	N 	0.0269	0.69357	0.68054	-0.153
Mof_N 	N 	0.9675	0.9384	0.52875	-0.176
Mof_N 	N 	0.7916	0.5988	0.83685	-0.153
Mof_N 	N 	0.4235	0.80989	0.16156	-0.156
Mof_N 	N 	0.2965	0.2746	0.05449	-0.156
Mof_N 	N 	0.523	0.5594	0.01934	-0.176
Mof_O 	O 	0.5089	0.91627	0.22057	-0.302
Mof_O 	O 	0.4572	0.93544	0.1696	-0.279
Mof_O 	O 	0.6895	0.31573	0.2706	-0.282
Mof_O 	O 	0.5795	0.31887	0.24932	-0.282
Mof_O 	O 	0.5854	0.80966	0.23852	-0.275
Mof_O 	O 	0.7034	0.8076	0.25654	-0.239
Mof_O 	O 	0.4778	0.44297	0.16266	-0.254
Mof_O 	O 	0.5569	0.41963	0.20329	-0.271
Mof_O 	O 	0.721	0.12395	0.12669	-0.215
Mof_O 	O 	0.7935	0.09392	0.17822	-0.218
Mof_O 	O 	0.8014	0.61325	0.13498	-0.216
Mof_O 	O 	0.7037	0.64678	0.0969	-0.225
Mof_O 	O 	0.9911	0.08373	0.72057	-0.302
Mof_O 	O 	0.0428	0.06456	0.6696	-0.279
Mof_O 	O 	0.8105	0.68427	0.7706	-0.282
Mof_O 	O 	0.9205	0.68113	0.74932	-0.282
Mof_O 	O 	0.9146	0.19034	0.73852	-0.275
Mof_O 	O 	0.7966	0.1924	0.75654	-0.239
Mof_O 	O 	0.0222	0.55703	0.66266	-0.254
Mof_O 	O 	0.9431	0.58037	0.70329	-0.271
Mof_O 	O 	0.779	0.87605	0.62669	-0.215
Mof_O 	O 	0.7065	0.90608	0.67822	-0.218
Mof_O 	O 	0.6986	0.38675	0.63498	-0.216
Mof_O 	O 	0.7963	0.35322	0.5969	-0.225
Mof_O 	O 	0.4911	0.41627	0.27943	-0.302
Mof_O 	O 	0.5428	0.43544	0.3304	-0.279
Mof_O 	O 	0.3105	0.81573	0.2294	-0.282
Mof_O 	O 	0.4205	0.81887	0.25068	-0.282
Mof_O 	O 	0.4146	0.30966	0.26148	-0.275
Mof_O 	O 	0.2966	0.3076	0.24346	-0.239
Mof_O 	O 	0.5222	0.94297	0.33734	-0.254
Mof_O 	O 	0.4431	0.91963	0.29671	-0.271
Mof_O 	O 	0.279	0.62395	0.37331	-0.215
Mof_O 	O 	0.2065	0.59392	0.32178	-0.218
Mof_O 	O 	0.1986	0.11325	0.36502	-0.216
Mof_O 	O 	0.2963	0.14678	0.4031	-0.225
Mof_O 	O 	0.0089	0.58373	0.77943	-0.302
Mof_O 	O 	0.9572	0.56456	0.8304	-0.279
Mof_O 	O 	0.1895	0.18427	0.7294	-0.282
Mof_O 	O 	0.0795	0.18113	0.75068	-0.282
Mof_O 	O 	0.0854	0.69034	0.76148	-0.275
Mof_O 	O 	0.2034	0.6924	0.74346	-0.239
Mof_O 	O 	0.9778	0.05703	0.83734	-0.254
Mof_O 	O 	0.0569	0.08037	0.79671	-0.271
Mof_O 	O 	0.221	0.37605	0.87331	-0.215
Mof_O 	O 	0.2935	0.40608	0.82178	-0.218
Mof_O 	O 	0.3014	0.88675	0.86502	-0.216
Mof_O 	O 	0.2037	0.85322	0.9031	-0.225
_end
