data_functionalizedCrystal
_audit_creation_method	'EQeq! by Chris Wilmer'
_symmetry_space_group_name_H-M	'P1'
_symmetry_Int_Tables_number	1
_symmetry_cell_setting	triclinic
loop_
_symmetry_equiv_pos_as_xyz
  x,y,z
_cell_length_a	8.5211
_cell_length_b	11.9779
_cell_length_c	9.0593
_cell_angle_alpha	90
_cell_angle_beta	90
_cell_angle_gamma	90
loop_
_atom_site_label
_atom_site_type_symbol
_atom_site_fract_x
_atom_site_fract_y
_atom_site_fract_z
_atom_site_charge
Mof_O 	O 	0.25685	0.40746	0.37153	-0.374
Mof_O 	O 	0.40434	0.17949	0.41632	-0.391
Mof_O 	O 	0.55742	0.19135	0.61227	-0.375
Mof_C 	C 	0.5198	0.21654	0.48493	0.51
Mof_H 	H 	0.5833	0.2677	0.4359	-0.117
Mof_O 	O 	0.24315	0.59254	0.37153	-0.374
Mof_O 	O 	0.09566	0.82051	0.41632	-0.364
Mof_O 	O 	0.94258	0.80865	0.61227	-0.353
Mof_C 	C 	0.9802	0.78346	0.48493	0.503
Mof_H 	H 	0.9167	0.7323	0.4359	-0.111
Mof_O 	O 	0.24315	0.90746	0.12847	-0.301
Mof_O 	O 	0.09566	0.67949	0.08368	-0.37
Mof_O 	O 	0.94258	0.69135	0.88773	-0.356
Mof_C 	C 	0.9802	0.71654	0.01507	0.487
Mof_H 	H 	0.9167	0.7677	0.0641	-0.105
Mof_O 	O 	0.25685	0.09254	0.12847	-0.355
Mof_O 	O 	0.40434	0.32051	0.08368	-0.383
Mof_O 	O 	0.55742	0.30865	0.88773	-0.369
Mof_C 	C 	0.5198	0.28346	0.01507	0.51
Mof_H 	H 	0.5833	0.2323	0.0641	-0.121
Mof_O 	O 	0.74315	0.59254	0.62847	-0.374
Mof_O 	O 	0.59566	0.82051	0.58368	-0.367
Mof_O 	O 	0.44258	0.80865	0.38773	-0.354
Mof_C 	C 	0.4802	0.78346	0.51507	0.509
Mof_H 	H 	0.4167	0.7323	0.5641	-0.113
Mof_O 	O 	0.75685	0.40746	0.62847	-0.373
Mof_O 	O 	0.90434	0.17949	0.58368	-0.388
Mof_O 	O 	0.05742	0.19135	0.38773	-0.373
Mof_C 	C 	0.0198	0.21654	0.51507	0.507
Mof_H 	H 	0.0833	0.2677	0.5641	-0.116
Mof_O 	O 	0.75685	0.09254	0.87153	-0.356
Mof_O 	O 	0.90434	0.32051	0.91632	-0.373
Mof_O 	O 	0.05742	0.30865	0.11227	-0.359
Mof_C 	C 	0.0198	0.28346	0.98493	0.489
Mof_H 	H 	0.0833	0.2323	0.9359	-0.115
Mof_O 	O 	0.74315	0.90746	0.87153	-0.305
Mof_O 	O 	0.59566	0.67949	0.91632	-0.38
Mof_O 	O 	0.44258	0.69135	0.11227	-0.366
Mof_C 	C 	0.4802	0.71654	0.98493	0.51
Mof_H 	H 	0.4167	0.7677	0.9359	-0.111
Mof_Mn	Mn	0.25192	0.25	0.25	1.055
Mof_Mn	Mn	0.24808	0.75	0.25	1.065
Mof_Mn	Mn	0.74808	0.75	0.75	1.064
Mof_Mn	Mn	0.75192	0.25	0.75	1.056
Mof_C 	C 	0.25	0.5	0.3108	0.498
Mof_H 	H 	0.25	0.5	0.2082	-0.107
Mof_C 	C 	0.25	0	0.1892	0.386
Mof_H 	H 	0.25	0	0.2918	-0.091
Mof_C 	C 	0.75	0.5	0.6892	0.498
Mof_H 	H 	0.75	0.5	0.7918	-0.107
Mof_C 	C 	0.75	6.82526e-33	0.8108	0.391
Mof_H 	H 	0.75	6.82526e-33	0.7082	-0.091
_end
