# CIF file generated by openbabel 3.1.0, see https://openbabel.org
data_I
_chemical_name_common 'image0'
_cell_length_a 16.215
_cell_length_b 13.977
_cell_length_c 14.176
_cell_angle_alpha 90
_cell_angle_beta 114.555
_cell_angle_gamma 90
_space_group_name_H-M_alt 'P 1'
_space_group_name_Hall 'P 1'
loop_
    _symmetry_equiv_pos_as_xyz
    x,y,z
loop_
    _atom_site_label
    _atom_site_type_symbol
    _atom_site_fract_x
    _atom_site_fract_y
    _atom_site_fract_z
    _atom_site_occupancy
    Cu1      Cu       0.14683    0.81020    0.86384    1.000
    Cu2      Cu       0.45512    0.95416    0.03551    1.000
    Cu3      Cu       0.41563    0.28612    0.12191    1.000
    Cu4      Cu       0.14815    0.45386    0.86420    1.000
    C1       C        0.25630    0.87880    0.92130    1.000
    N1       N        0.32610    0.91740    0.95850    1.000
    N2       N        0.14970    0.67310    0.87040    1.000
    C2       C        0.15000    0.59120    0.86620    1.000
    C3       C        0.47070    0.09930    0.04930    1.000
    N3       N        0.45190    0.16890    0.07960    1.000
    C4       C        0.24420    0.37730    0.95460    1.000
    N4       N        0.30330    0.33370    0.01330    1.000
    N5       N        0.50110    0.88900    0.17010    1.000
    C5       C        0.52880    0.85070    0.25200    1.000
    N6       N        0.96120    0.89410    0.73660    1.000
    C6       C        0.03070    0.86300    0.79120    1.000
    Cu5      Cu       0.85317    0.31020    0.63616    1.000
    Cu6      Cu       0.54488    0.45416    0.46449    1.000
    Cu7      Cu       0.58437    0.78612    0.37809    1.000
    Cu8      Cu       0.85185    0.95386    0.63580    1.000
    C7       C        0.74370    0.37880    0.57870    1.000
    N7       N        0.67390    0.41740    0.54150    1.000
    N8       N        0.85030    0.17310    0.62960    1.000
    C8       C        0.85000    0.09120    0.63380    1.000
    C9       C        0.52930    0.59930    0.45070    1.000
    N9       N        0.54810    0.66890    0.42040    1.000
    C10      C        0.75580    0.87730    0.54540    1.000
    N10      N        0.69670    0.83370    0.48670    1.000
    N11      N        0.49890    0.38900    0.32990    1.000
    C11      C        0.47120    0.35070    0.24800    1.000
    N12      N        0.03880    0.39410    0.76340    1.000
    C12      C        0.96930    0.36300    0.70880    1.000
    Cu9      Cu       0.85317    0.18980    0.13616    1.000
    Cu10     Cu       0.54488    0.04584    0.96449    1.000
    Cu11     Cu       0.58437    0.71388    0.87809    1.000
    Cu12     Cu       0.85185    0.54614    0.13580    1.000
    C13      C        0.74370    0.12120    0.07870    1.000
    N13      N        0.67390    0.08260    0.04150    1.000
    N14      N        0.85030    0.32690    0.12960    1.000
    C14      C        0.85000    0.40880    0.13380    1.000
    C15      C        0.52930    0.90070    0.95070    1.000
    N15      N        0.54810    0.83110    0.92040    1.000
    C16      C        0.75580    0.62270    0.04540    1.000
    N16      N        0.69670    0.66630    0.98670    1.000
    N17      N        0.49890    0.11100    0.82990    1.000
    C17      C        0.47120    0.14930    0.74800    1.000
    N18      N        0.03880    0.10590    0.26340    1.000
    C18      C        0.96930    0.13700    0.20880    1.000
    Cu13     Cu       0.14683    0.68980    0.36384    1.000
    Cu14     Cu       0.45512    0.54584    0.53551    1.000
    Cu15     Cu       0.41563    0.21388    0.62191    1.000
    Cu16     Cu       0.14815    0.04614    0.36420    1.000
    C19      C        0.25630    0.62120    0.42130    1.000
    N19      N        0.32610    0.58260    0.45850    1.000
    N20      N        0.14970    0.82690    0.37040    1.000
    C20      C        0.15000    0.90880    0.36620    1.000
    C21      C        0.47070    0.40070    0.54930    1.000
    N21      N        0.45190    0.33110    0.57960    1.000
    C22      C        0.24420    0.12270    0.45460    1.000
    N22      N        0.30330    0.16630    0.51330    1.000
    N23      N        0.50110    0.61100    0.67010    1.000
    C23      C        0.52880    0.64930    0.75200    1.000
    N24      N        0.96120    0.60590    0.23660    1.000
    C24      C        0.03070    0.63700    0.29120    1.000
