# CIF file generated by openbabel 3.1.0, see https://openbabel.org
data_I
_chemical_name_common 'image0'
_cell_length_a 10.7068
_cell_length_b 17.7294
_cell_length_c 13.2435
_cell_angle_alpha 90
_cell_angle_beta 104.446
_cell_angle_gamma 90
_space_group_name_H-M_alt 'P 1'
_space_group_name_Hall 'P 1'
loop_
    _symmetry_equiv_pos_as_xyz
    x,y,z
loop_
    _atom_site_label
    _atom_site_type_symbol
    _atom_site_fract_x
    _atom_site_fract_y
    _atom_site_fract_z
    _atom_site_occupancy
    C1       C        0.74330    0.05130    0.39710    1.000
    C2       C        0.87650    0.02610    0.45130    1.000
    C3       C        0.98020    0.04230    0.41010    1.000
    H1       H        0.96760    0.07120    0.34990    1.000
    C4       C        0.89760    0.98410    0.54230    1.000
    H2       H        0.82920    0.97360    0.57170    1.000
    C5       C        0.60290    0.15170    0.09970    1.000
    C6       C        0.67540    0.20380    0.04620    1.000
    C7       C        0.70180    0.27690    0.08110    1.000
    H3       H        0.66950    0.29480    0.13550    1.000
    C8       C        0.72370    0.17630    0.96440    1.000
    H4       H        0.70610    0.12710    0.94080    1.000
    O1       O        0.72850    0.09410    0.32010    1.000
    O2       O        0.65040    0.02810    0.42890    1.000
    O3       O        0.54370    0.17990    0.16390    1.000
    O4       O        0.60190    0.08230    0.08220    1.000
    C9       C        0.24330    0.55130    0.39710    1.000
    C10      C        0.37650    0.52610    0.45130    1.000
    C11      C        0.48020    0.54230    0.41010    1.000
    H5       H        0.46760    0.57120    0.34990    1.000
    C12      C        0.39760    0.48410    0.54230    1.000
    H6       H        0.32920    0.47360    0.57170    1.000
    C13      C        0.10290    0.65170    0.09970    1.000
    C14      C        0.17540    0.70380    0.04620    1.000
    C15      C        0.20180    0.77690    0.08110    1.000
    H7       H        0.16950    0.79480    0.13550    1.000
    C16      C        0.22370    0.67630    0.96440    1.000
    H8       H        0.20610    0.62710    0.94080    1.000
    O5       O        0.22850    0.59410    0.32010    1.000
    O6       O        0.15040    0.52810    0.42890    1.000
    O7       O        0.04370    0.67990    0.16390    1.000
    O8       O        0.10190    0.58230    0.08220    1.000
    C17      C        0.25670    0.05130    0.10290    1.000
    C18      C        0.12350    0.02610    0.04870    1.000
    C19      C        0.01980    0.04230    0.08990    1.000
    H9       H        0.03240    0.07120    0.15010    1.000
    C20      C        0.10240    0.98410    0.95770    1.000
    H10      H        0.17080    0.97360    0.92830    1.000
    C21      C        0.39710    0.15170    0.40030    1.000
    C22      C        0.32460    0.20380    0.45380    1.000
    C23      C        0.29820    0.27690    0.41890    1.000
    H11      H        0.33050    0.29480    0.36450    1.000
    C24      C        0.27630    0.17630    0.53560    1.000
    H12      H        0.29390    0.12710    0.55920    1.000
    O9       O        0.27150    0.09410    0.17990    1.000
    O10      O        0.34960    0.02810    0.07110    1.000
    O11      O        0.45630    0.17990    0.33610    1.000
    O12      O        0.39810    0.08230    0.41780    1.000
    C25      C        0.75670    0.55130    0.10290    1.000
    C26      C        0.62350    0.52610    0.04870    1.000
    C27      C        0.51980    0.54230    0.08990    1.000
    H13      H        0.53240    0.57120    0.15010    1.000
    C28      C        0.60240    0.48410    0.95770    1.000
    H14      H        0.67080    0.47360    0.92830    1.000
    C29      C        0.89710    0.65170    0.40030    1.000
    C30      C        0.82460    0.70380    0.45380    1.000
    C31      C        0.79820    0.77690    0.41890    1.000
    H15      H        0.83050    0.79480    0.36450    1.000
    C32      C        0.77630    0.67630    0.53560    1.000
    H16      H        0.79390    0.62710    0.55920    1.000
    O13      O        0.77150    0.59410    0.17990    1.000
    O14      O        0.84960    0.52810    0.07110    1.000
    O15      O        0.95630    0.67990    0.33610    1.000
    O16      O        0.89810    0.58230    0.41780    1.000
    C33      C        0.25670    0.94870    0.60290    1.000
    C34      C        0.12350    0.97390    0.54870    1.000
    C35      C        0.01980    0.95770    0.58990    1.000
    H17      H        0.03240    0.92880    0.65010    1.000
    C36      C        0.10240    0.01590    0.45770    1.000
    H18      H        0.17080    0.02640    0.42830    1.000
    C37      C        0.39710    0.84830    0.90030    1.000
    C38      C        0.32460    0.79620    0.95380    1.000
    C39      C        0.29820    0.72310    0.91890    1.000
    H19      H        0.33050    0.70520    0.86450    1.000
    C40      C        0.27630    0.82370    0.03560    1.000
    H20      H        0.29390    0.87290    0.05920    1.000
    O17      O        0.27150    0.90590    0.67990    1.000
    O18      O        0.34960    0.97190    0.57110    1.000
    O19      O        0.45630    0.82010    0.83610    1.000
    O20      O        0.39810    0.91770    0.91780    1.000
    C41      C        0.75670    0.44870    0.60290    1.000
    C42      C        0.62350    0.47390    0.54870    1.000
    C43      C        0.51980    0.45770    0.58990    1.000
    H21      H        0.53240    0.42880    0.65010    1.000
    C44      C        0.60240    0.51590    0.45770    1.000
    H22      H        0.67080    0.52640    0.42830    1.000
    C45      C        0.89710    0.34830    0.90030    1.000
    C46      C        0.82460    0.29620    0.95380    1.000
    C47      C        0.79820    0.22310    0.91890    1.000
    H23      H        0.83050    0.20520    0.86450    1.000
    C48      C        0.77630    0.32370    0.03560    1.000
    H24      H        0.79390    0.37290    0.05920    1.000
    O21      O        0.77150    0.40590    0.67990    1.000
    O22      O        0.84960    0.47190    0.57110    1.000
    O23      O        0.95630    0.32010    0.83610    1.000
    O24      O        0.89810    0.41770    0.91780    1.000
    C49      C        0.74330    0.94870    0.89710    1.000
    C50      C        0.87650    0.97390    0.95130    1.000
    C51      C        0.98020    0.95770    0.91010    1.000
    H25      H        0.96760    0.92880    0.84990    1.000
    C52      C        0.89760    0.01590    0.04230    1.000
    H26      H        0.82920    0.02640    0.07170    1.000
    C53      C        0.60290    0.84830    0.59970    1.000
    C54      C        0.67540    0.79620    0.54620    1.000
    C55      C        0.70180    0.72310    0.58110    1.000
    H27      H        0.66950    0.70520    0.63550    1.000
    C56      C        0.72370    0.82370    0.46440    1.000
    H28      H        0.70610    0.87290    0.44080    1.000
    O25      O        0.72850    0.90590    0.82010    1.000
    O26      O        0.65040    0.97190    0.92890    1.000
    O27      O        0.54370    0.82010    0.66390    1.000
    O28      O        0.60190    0.91770    0.58220    1.000
    C57      C        0.24330    0.44870    0.89710    1.000
    C58      C        0.37650    0.47390    0.95130    1.000
    C59      C        0.48020    0.45770    0.91010    1.000
    H29      H        0.46760    0.42880    0.84990    1.000
    C60      C        0.39760    0.51590    0.04230    1.000
    H30      H        0.32920    0.52640    0.07170    1.000
    C61      C        0.10290    0.34830    0.59970    1.000
    C62      C        0.17540    0.29620    0.54620    1.000
    C63      C        0.20180    0.22310    0.58110    1.000
    H31      H        0.16950    0.20520    0.63550    1.000
    C64      C        0.22370    0.32370    0.46440    1.000
    H32      H        0.20610    0.37290    0.44080    1.000
    O29      O        0.22850    0.40590    0.82010    1.000
    O30      O        0.15040    0.47190    0.92890    1.000
    O31      O        0.04370    0.32010    0.66390    1.000
    O32      O        0.10190    0.41770    0.58220    1.000
    Bi1      Bi       0.50000    0.07556    0.25000    1.000
    Bi2      Bi       0.00000    0.57556    0.25000    1.000
    Bi3      Bi       0.50000    0.92444    0.75000    1.000
    Bi4      Bi       0.00000    0.42444    0.75000    1.000
