data_functionalizedCrystal
_audit_creation_method	'EQeq! by Chris Wilmer'
_symmetry_space_group_name_H-M	'P1'
_symmetry_Int_Tables_number	1
_symmetry_cell_setting	triclinic
loop_
_symmetry_equiv_pos_as_xyz
  x,y,z
_cell_length_a	10.0269
_cell_length_b	16.4397
_cell_length_c	12.7548
_cell_angle_alpha	90
_cell_angle_beta	90.645
_cell_angle_gamma	90
loop_
_atom_site_label
_atom_site_type_symbol
_atom_site_fract_x
_atom_site_fract_y
_atom_site_fract_z
_atom_site_charge
Mof_Mn	Mn	0.7516	0.00013	0.49823	0.948
Mof_C 	C 	0.7605	0.806	0.4516	0.093
Mof_H 	H 	0.727	0.803	0.5192	0
Mof_C 	C 	0.5888	0.1341	0.6193	0.102
Mof_H 	H 	0.5196	0.0988	0.6015	0.003
Mof_C 	C 	0.5605	0.2005	0.6804	-0.164
Mof_H 	H 	0.4741	0.209	0.7036	0.091
Mof_O 	O 	0.3792	0.43302	0.9024	-0.396
Mof_O 	O 	0.5916	0.47215	0.8883	-0.388
Mof_C 	C 	0.7831	0.7343	0.398	-0.165
Mof_H 	H 	0.7647	0.6847	0.4296	0.086
Mof_O 	O 	0.9132	0.51831	0.1097	-0.387
Mof_C 	C 	0.8644	0.6602	0.2403	-0.002
Mof_H 	H 	0.8153	0.614	0.2565	0.044
Mof_O 	O 	0.1197	0.56881	0.1014	-0.391
Mof_C 	C 	0.9568	0.6535	0.1683	-0.23
Mof_H 	H 	0.999	0.7006	0.1454	0.114
Mof_C 	C 	0.5204	0.3489	0.8091	-0.229
Mof_H 	H 	0.448	0.3151	0.7951	0.118
Mof_C 	C 	0.7872	0.2387	0.6694	-0.17
Mof_H 	H 	0.8576	0.2739	0.6843	0.094
Mof_C 	C 	0.8082	0.1699	0.6093	0.112
Mof_H 	H 	0.8938	0.1597	0.5853	-0.003
Mof_C 	C 	0.855	0.8127	0.2547	-0.163
Mof_H 	H 	0.8866	0.8176	0.1867	0.086
Mof_C 	C 	0.8331	0.7362	0.2974	0.082
Mof_N 	N 	0.7846	0.87959	0.4109	-0.192
Mof_C 	C 	0.8299	0.8812	0.3129	0.099
Mof_H 	H 	0.8454	0.9316	0.2823	0.003
Mof_N 	N 	0.7119	0.11752	0.5842	-0.195
Mof_C 	C 	0.6608	0.2551	0.7074	0.095
Mof_C 	C 	0.6375	0.3277	0.7717	-0.004
Mof_H 	H 	0.7102	0.361	0.7871	0.052
Mof_C 	C 	0.9975	0.5736	0.1215	0.421
Mof_C 	C 	0.4968	0.4238	0.8728	0.432
Mof_Mn	Mn	0.2484	0.50013	0.00177	0.949
Mof_C 	C 	0.2395	0.306	0.0484	0.092
Mof_H 	H 	0.273	0.303	0.9808	0.002
Mof_C 	C 	0.4112	0.6341	0.8807	0.103
Mof_H 	H 	0.4804	0.5988	0.8985	0.003
Mof_C 	C 	0.4395	0.7005	0.8196	-0.164
Mof_H 	H 	0.5259	0.709	0.7964	0.091
Mof_O 	O 	0.6208	0.93302	0.5976	-0.396
Mof_O 	O 	0.4084	0.97215	0.6117	-0.388
Mof_C 	C 	0.2169	0.2343	0.102	-0.164
Mof_H 	H 	0.2353	0.1847	0.0704	0.086
Mof_O 	O 	0.0868	0.01831	0.3903	-0.387
Mof_C 	C 	0.1356	0.1602	0.2597	-0.002
Mof_H 	H 	0.1847	0.114	0.2435	0.044
Mof_O 	O 	0.8803	0.06881	0.3986	-0.39
Mof_C 	C 	0.0432	0.1535	0.3317	-0.229
Mof_H 	H 	0.001	0.2006	0.3546	0.114
Mof_C 	C 	0.4796	0.8489	0.6909	-0.229
Mof_H 	H 	0.552	0.8151	0.7049	0.118
Mof_C 	C 	0.2128	0.7387	0.8306	-0.17
Mof_H 	H 	0.1424	0.7739	0.8157	0.094
Mof_C 	C 	0.1918	0.6699	0.8907	0.112
Mof_H 	H 	0.1062	0.6597	0.9147	-0.003
Mof_C 	C 	0.145	0.3127	0.2453	-0.163
Mof_H 	H 	0.1134	0.3176	0.3133	0.086
Mof_C 	C 	0.1669	0.2362	0.2026	0.082
Mof_N 	N 	0.2154	0.37959	0.0891	-0.192
Mof_C 	C 	0.1701	0.3812	0.1871	0.099
Mof_H 	H 	0.1546	0.4316	0.2177	0.003
Mof_N 	N 	0.2881	0.61752	0.9158	-0.194
Mof_C 	C 	0.3392	0.7551	0.7926	0.095
Mof_C 	C 	0.3625	0.8277	0.7283	-0.004
Mof_H 	H 	0.2898	0.861	0.7129	0.052
Mof_C 	C 	0.0025	0.0736	0.3785	0.42
Mof_C 	C 	0.5032	0.9238	0.6272	0.432
Mof_Mn	Mn	0.2484	0.99987	0.50177	0.949
Mof_C 	C 	0.2395	0.194	0.5484	0.094
Mof_H 	H 	0.273	0.197	0.4808	0.001
Mof_C 	C 	0.4112	0.8659	0.3807	0.103
Mof_H 	H 	0.4804	0.9012	0.3985	0.003
Mof_C 	C 	0.4395	0.7995	0.3196	-0.164
Mof_H 	H 	0.5259	0.791	0.2964	0.091
Mof_O 	O 	0.6208	0.56698	0.0976	-0.396
Mof_O 	O 	0.4084	0.52785	0.1117	-0.388
Mof_C 	C 	0.2169	0.2657	0.602	-0.165
Mof_H 	H 	0.2353	0.3153	0.5704	0.086
Mof_O 	O 	0.0868	0.48169	0.8903	-0.387
Mof_C 	C 	0.1356	0.3398	0.7597	-0.002
Mof_H 	H 	0.1847	0.386	0.7435	0.044
Mof_O 	O 	0.8803	0.43119	0.8986	-0.391
Mof_C 	C 	0.0432	0.3465	0.8317	-0.23
Mof_H 	H 	0.001	0.2994	0.8546	0.114
Mof_C 	C 	0.4796	0.6511	0.1909	-0.229
Mof_H 	H 	0.552	0.6849	0.2049	0.118
Mof_C 	C 	0.2128	0.7613	0.3306	-0.17
Mof_H 	H 	0.1424	0.7261	0.3157	0.094
Mof_C 	C 	0.1918	0.8301	0.3907	0.112
Mof_H 	H 	0.1062	0.8403	0.4147	-0.003
Mof_C 	C 	0.145	0.1873	0.7453	-0.163
Mof_H 	H 	0.1134	0.1824	0.8133	0.086
Mof_C 	C 	0.1669	0.2638	0.7026	0.082
Mof_N 	N 	0.2154	0.12041	0.5891	-0.192
Mof_C 	C 	0.1701	0.1188	0.6871	0.099
Mof_H 	H 	0.1546	0.0684	0.7177	0.003
Mof_N 	N 	0.2881	0.88248	0.4158	-0.195
Mof_C 	C 	0.3392	0.7449	0.2926	0.095
Mof_C 	C 	0.3625	0.6723	0.2283	-0.004
Mof_H 	H 	0.2898	0.639	0.2129	0.052
Mof_C 	C 	0.0025	0.4264	0.8785	0.421
Mof_C 	C 	0.5032	0.5762	0.1272	0.432
Mof_Mn	Mn	0.7516	0.49987	0.99823	0.949
Mof_C 	C 	0.7605	0.694	0.9516	0.092
Mof_H 	H 	0.727	0.697	0.0192	0.002
Mof_C 	C 	0.5888	0.3659	0.1193	0.103
Mof_H 	H 	0.5196	0.4012	0.1015	0.003
Mof_C 	C 	0.5605	0.2995	0.1804	-0.164
Mof_H 	H 	0.4741	0.291	0.2036	0.091
Mof_O 	O 	0.3792	0.06698	0.4024	-0.396
Mof_O 	O 	0.5916	0.02785	0.3883	-0.388
Mof_C 	C 	0.7831	0.7657	0.898	-0.164
Mof_H 	H 	0.7647	0.8153	0.9296	0.086
Mof_O 	O 	0.9132	0.98169	0.6097	-0.387
Mof_C 	C 	0.8644	0.8398	0.7403	-0.002
Mof_H 	H 	0.8153	0.886	0.7565	0.044
Mof_O 	O 	0.1197	0.93119	0.6014	-0.39
Mof_C 	C 	0.9568	0.8465	0.6683	-0.229
Mof_H 	H 	0.999	0.7994	0.6454	0.114
Mof_C 	C 	0.5204	0.1511	0.3091	-0.229
Mof_H 	H 	0.448	0.1849	0.2951	0.118
Mof_C 	C 	0.7872	0.2613	0.1694	-0.17
Mof_H 	H 	0.8576	0.2261	0.1843	0.094
Mof_C 	C 	0.8082	0.3301	0.1093	0.112
Mof_H 	H 	0.8938	0.3403	0.0853	-0.003
Mof_C 	C 	0.855	0.6873	0.7547	-0.163
Mof_H 	H 	0.8866	0.6824	0.6867	0.086
Mof_C 	C 	0.8331	0.7638	0.7974	0.082
Mof_N 	N 	0.7846	0.62041	0.9109	-0.192
Mof_C 	C 	0.8299	0.6188	0.8129	0.099
Mof_H 	H 	0.8454	0.5684	0.7823	0.003
Mof_N 	N 	0.7119	0.38248	0.0842	-0.194
Mof_C 	C 	0.6608	0.2449	0.2074	0.095
Mof_C 	C 	0.6375	0.1723	0.2717	-0.004
Mof_H 	H 	0.7102	0.139	0.2871	0.052
Mof_C 	C 	0.9975	0.9264	0.6215	0.42
Mof_C 	C 	0.4968	0.0762	0.3728	0.432
_end
