# CIF file generated by openbabel 3.1.0, see https://openbabel.org
data_I
_chemical_name_common 'image0'
_cell_length_a 5.784
_cell_length_b 30.282
_cell_length_c 7.551
_cell_angle_alpha 90
_cell_angle_beta 112.46
_cell_angle_gamma 90
_space_group_name_H-M_alt 'P 1'
_space_group_name_Hall 'P 1'
loop_
    _symmetry_equiv_pos_as_xyz
    x,y,z
loop_
    _atom_site_label
    _atom_site_type_symbol
    _atom_site_fract_x
    _atom_site_fract_y
    _atom_site_fract_z
    _atom_site_occupancy
    Cu1      Cu       0.34440    0.46010    0.92290    1.000
    Cu2      Cu       0.18960    0.71300    0.01440    1.000
    S1       S        0.46560    0.48630    0.24510    1.000
    S2       S        0.03490    0.64310    0.03390    1.000
    S3       S        0.85400    0.75760    0.84280    1.000
    N1       N        0.98680    0.47170    0.79830    1.000
    N2       N        0.45470    0.59110    0.07720    1.000
    N3       N        0.46530    0.72160    0.93050    1.000
    C1       C        0.79880    0.48890    0.77840    1.000
    C2       C        0.28100    0.61270    0.05940    1.000
    C3       C        0.62490    0.73570    0.89400    1.000
    Cu3      Cu       0.15560    0.96010    0.57710    1.000
    Cu4      Cu       0.31040    0.21300    0.48560    1.000
    S4       S        0.03440    0.98630    0.25490    1.000
    S5       S        0.46510    0.14310    0.46610    1.000
    S6       S        0.64600    0.25760    0.65720    1.000
    N4       N        0.51320    0.97170    0.70170    1.000
    N5       N        0.04530    0.09110    0.42280    1.000
    N6       N        0.03470    0.22160    0.56950    1.000
    C4       C        0.70120    0.98890    0.72160    1.000
    C5       C        0.21900    0.11270    0.44060    1.000
    C6       C        0.87510    0.23570    0.60600    1.000
    Cu5      Cu       0.65560    0.53990    0.07710    1.000
    Cu6      Cu       0.81040    0.28700    0.98560    1.000
    S7       S        0.53440    0.51370    0.75490    1.000
    S8       S        0.96510    0.35690    0.96610    1.000
    S9       S        0.14600    0.24240    0.15720    1.000
    N7       N        0.01320    0.52830    0.20170    1.000
    N8       N        0.54530    0.40890    0.92280    1.000
    N9       N        0.53470    0.27840    0.06950    1.000
    C7       C        0.20120    0.51110    0.22160    1.000
    C8       C        0.71900    0.38730    0.94060    1.000
    C9       C        0.37510    0.26430    0.10600    1.000
    Cu7      Cu       0.84440    0.03990    0.42290    1.000
    Cu8      Cu       0.68960    0.78700    0.51440    1.000
    S10      S        0.96560    0.01370    0.74510    1.000
    S11      S        0.53490    0.85690    0.53390    1.000
    S12      S        0.35400    0.74240    0.34280    1.000
    N10      N        0.48680    0.02830    0.29830    1.000
    N11      N        0.95470    0.90890    0.57720    1.000
    N12      N        0.96530    0.77840    0.43050    1.000
    C10      C        0.29880    0.01110    0.27840    1.000
    C11      C        0.78100    0.88730    0.55940    1.000
    C12      C        0.12490    0.76430    0.39400    1.000
