data_functionalizedCrystal
_audit_creation_method	'EQeq! by Chris Wilmer'
_symmetry_space_group_name_H-M	'P1'
_symmetry_Int_Tables_number	1
_symmetry_cell_setting	triclinic
loop_
_symmetry_equiv_pos_as_xyz
  x,y,z
_cell_length_a	11.479
_cell_length_b	24.451
_cell_length_c	16.299
_cell_angle_alpha	90
_cell_angle_beta	90
_cell_angle_gamma	90
loop_
_atom_site_label
_atom_site_type_symbol
_atom_site_fract_x
_atom_site_fract_y
_atom_site_fract_z
_atom_site_charge
Mof_Fe	Fe	0.64456	0.45428	0.34645	0.805
Mof_Fe	Fe	0.64456	0.54572	0.15355	0.805
Mof_Fe	Fe	0.64456	0.95428	0.65355	0.805
Mof_Fe	Fe	0.64456	0.04572	0.84645	0.805
Mof_H 	H 	0.4373	0.5136	0.4308	0.028
Mof_H 	H 	0.235	0.5141	0.4317	0.09
Mof_H 	H 	0.2337	0.3994	0.2548	0.075
Mof_H 	H 	0.4349	0.3992	0.2539	0.012
Mof_H 	H 	0.0572	0.5239	0.4111	0.078
Mof_H 	H 	0.8558	0.5241	0.4096	0.015
Mof_H 	H 	0.8554	0.3861	0.2761	0.013
Mof_H 	H 	0.0572	0.385	0.2791	0.074
Mof_H 	H 	0.6474	0.6138	0.5054	0.055
Mof_H 	H 	0.6389	0.6551	0.2686	0.044
Mof_H 	H 	0.6442	0.747	0.3016	0.068
Mof_H 	H 	0.6555	0.6846	0.6091	0.06
Mof_H 	H 	0.658	0.7759	0.6446	0.047
Mof_H 	H 	0.6527	0.8177	0.4069	0.064
Mof_H 	H 	0.4373	0.4864	0.0692	0.028
Mof_H 	H 	0.235	0.4859	0.0683	0.09
Mof_H 	H 	0.2337	0.6006	0.2452	0.075
Mof_H 	H 	0.4349	0.6008	0.2461	0.012
Mof_H 	H 	0.0572	0.4761	0.0889	0.078
Mof_H 	H 	0.8558	0.4759	0.0904	0.015
Mof_H 	H 	0.8554	0.6139	0.2239	0.013
Mof_H 	H 	0.0572	0.615	0.2209	0.074
Mof_H 	H 	0.6474	0.3862	0.9946	0.055
Mof_H 	H 	0.6389	0.3449	0.2314	0.044
Mof_H 	H 	0.6442	0.253	0.1984	0.068
Mof_H 	H 	0.6555	0.3154	0.8909	0.06
Mof_H 	H 	0.658	0.2241	0.8554	0.047
Mof_H 	H 	0.6527	0.1823	0.0931	0.064
Mof_H 	H 	0.4373	0.0136	0.5692	0.028
Mof_H 	H 	0.235	0.0141	0.5683	0.09
Mof_H 	H 	0.2337	0.8994	0.7452	0.075
Mof_H 	H 	0.4349	0.8992	0.7461	0.012
Mof_H 	H 	0.0572	0.0239	0.5889	0.078
Mof_H 	H 	0.8558	0.0241	0.5904	0.015
Mof_H 	H 	0.8554	0.8861	0.7239	0.012
Mof_H 	H 	0.0572	0.885	0.7209	0.073
Mof_H 	H 	0.6474	0.1138	0.4946	0.054
Mof_H 	H 	0.6389	0.1551	0.7314	0.043
Mof_H 	H 	0.6442	0.247	0.6984	0.067
Mof_H 	H 	0.6555	0.1846	0.3909	0.059
Mof_H 	H 	0.658	0.2759	0.3554	0.046
Mof_H 	H 	0.6527	0.3177	0.5931	0.063
Mof_H 	H 	0.4373	0.9864	0.9308	0.027
Mof_H 	H 	0.235	0.9859	0.9317	0.089
Mof_H 	H 	0.2337	0.1006	0.7548	0.074
Mof_H 	H 	0.4349	0.1008	0.7539	0.011
Mof_H 	H 	0.0572	0.9761	0.9111	0.077
Mof_H 	H 	0.8558	0.9759	0.9096	0.014
Mof_H 	H 	0.8554	0.1139	0.7761	0.012
Mof_H 	H 	0.0572	0.115	0.7791	0.073
Mof_H 	H 	0.6474	0.8862	0.0054	0.054
Mof_H 	H 	0.6389	0.8449	0.7686	0.043
Mof_H 	H 	0.6442	0.753	0.8016	0.067
Mof_H 	H 	0.6555	0.8154	0.1091	0.059
Mof_H 	H 	0.658	0.7241	0.1446	0.046
Mof_H 	H 	0.6527	0.6823	0.9069	0.063
Mof_C 	C 	0.3962	0.4908	0.3954	0.071
Mof_C 	C 	0.2749	0.4912	0.3959	-0.122
Mof_C 	C 	0.2135	0.4571	0.3428	0.054
Mof_C 	C 	0.2744	0.4224	0.2899	-0.127
Mof_C 	C 	0.3949	0.4222	0.2894	0.072
Mof_C 	C 	0.0782	0.4544	0.3446	0.055
Mof_C 	C 	0.017	0.4962	0.3842	-0.127
Mof_C 	C 	0.8963	0.4962	0.3834	0.069
Mof_C 	C 	0.8958	0.4135	0.3038	0.071
Mof_C 	C 	0.0169	0.4131	0.305	-0.125
Mof_C 	C 	0.6438	0.5682	0.3525	0.378
Mof_C 	C 	0.6469	0.6405	0.4648	-0.022
Mof_C 	C 	0.6429	0.6256	0.3828	-0.103
Mof_C 	C 	0.6418	0.6655	0.3234	0.021
Mof_C 	C 	0.645	0.7206	0.3426	-0.105
Mof_C 	C 	0.6493	0.7352	0.4245	0.047
Mof_C 	C 	0.6502	0.6954	0.4862	0.013
Mof_C 	C 	0.6542	0.7112	0.5683	-0.072
Mof_C 	C 	0.6563	0.7658	0.5895	-0.007
Mof_C 	C 	0.6559	0.806	0.5289	-0.047
Mof_C 	C 	0.6527	0.7909	0.4473	-0.063
Mof_C 	C 	0.6529	0.868	0.5522	0.33
Mof_C 	C 	0.3962	0.5092	0.1046	0.071
Mof_C 	C 	0.2749	0.5088	0.1041	-0.122
Mof_C 	C 	0.2135	0.5429	0.1572	0.054
Mof_C 	C 	0.2744	0.5776	0.2101	-0.127
Mof_C 	C 	0.3949	0.5778	0.2106	0.072
Mof_C 	C 	0.0782	0.5456	0.1554	0.055
Mof_C 	C 	0.017	0.5038	0.1158	-0.127
Mof_C 	C 	0.8963	0.5038	0.1166	0.069
Mof_C 	C 	0.8958	0.5865	0.1962	0.071
Mof_C 	C 	0.0169	0.5869	0.195	-0.125
Mof_C 	C 	0.6438	0.4318	0.1475	0.379
Mof_C 	C 	0.6469	0.3595	0.0352	-0.022
Mof_C 	C 	0.6429	0.3744	0.1172	-0.103
Mof_C 	C 	0.6418	0.3345	0.1766	0.021
Mof_C 	C 	0.645	0.2794	0.1574	-0.105
Mof_C 	C 	0.6493	0.2648	0.0755	0.047
Mof_C 	C 	0.6502	0.3046	0.0138	0.013
Mof_C 	C 	0.6542	0.2888	0.9317	-0.072
Mof_C 	C 	0.6563	0.2342	0.9105	-0.007
Mof_C 	C 	0.6559	0.194	0.9711	-0.047
Mof_C 	C 	0.6527	0.2091	0.0527	-0.064
Mof_C 	C 	0.6529	0.132	0.9478	0.33
Mof_C 	C 	0.3962	0.9908	0.6046	0.071
Mof_C 	C 	0.2749	0.9912	0.6041	-0.122
Mof_C 	C 	0.2135	0.9571	0.6572	0.054
Mof_C 	C 	0.2744	0.9224	0.7101	-0.127
Mof_C 	C 	0.3949	0.9222	0.7106	0.072
Mof_C 	C 	0.0782	0.9544	0.6554	0.055
Mof_C 	C 	0.017	0.9962	0.6158	-0.126
Mof_C 	C 	0.8963	0.9962	0.6166	0.069
Mof_C 	C 	0.8958	0.9135	0.6962	0.071
Mof_C 	C 	0.0169	0.9131	0.695	-0.125
Mof_C 	C 	0.6438	0.0682	0.6475	0.378
Mof_C 	C 	0.6469	0.1405	0.5352	-0.022
Mof_C 	C 	0.6429	0.1256	0.6172	-0.103
Mof_C 	C 	0.6418	0.1655	0.6766	0.021
Mof_C 	C 	0.645	0.2206	0.6574	-0.105
Mof_C 	C 	0.6493	0.2352	0.5755	0.047
Mof_C 	C 	0.6502	0.1954	0.5138	0.013
Mof_C 	C 	0.6542	0.2112	0.4317	-0.072
Mof_C 	C 	0.6563	0.2658	0.4105	-0.007
Mof_C 	C 	0.6559	0.306	0.4711	-0.047
Mof_C 	C 	0.6527	0.2909	0.5527	-0.063
Mof_C 	C 	0.6529	0.368	0.4478	0.33
Mof_C 	C 	0.3962	0.0092	0.8954	0.071
Mof_C 	C 	0.2749	0.0088	0.8959	-0.122
Mof_C 	C 	0.2135	0.0429	0.8428	0.054
Mof_C 	C 	0.2744	0.0776	0.7899	-0.127
Mof_C 	C 	0.3949	0.0778	0.7894	0.072
Mof_C 	C 	0.0782	0.0456	0.8446	0.055
Mof_C 	C 	0.017	0.0038	0.8842	-0.127
Mof_C 	C 	0.8963	0.0038	0.8834	0.069
Mof_C 	C 	0.8958	0.0865	0.8038	0.071
Mof_C 	C 	0.0169	0.0869	0.805	-0.125
Mof_C 	C 	0.6438	0.9318	0.8525	0.379
Mof_C 	C 	0.6469	0.8595	0.9648	-0.022
Mof_C 	C 	0.6429	0.8744	0.8828	-0.103
Mof_C 	C 	0.6418	0.8345	0.8234	0.021
Mof_C 	C 	0.645	0.7794	0.8426	-0.105
Mof_C 	C 	0.6493	0.7648	0.9245	0.047
Mof_C 	C 	0.6502	0.8046	0.9862	0.013
Mof_C 	C 	0.6542	0.7888	0.0683	-0.072
Mof_C 	C 	0.6563	0.7342	0.0895	-0.007
Mof_C 	C 	0.6559	0.694	0.0289	-0.047
Mof_C 	C 	0.6527	0.7091	0.9473	-0.064
Mof_C 	C 	0.6529	0.632	0.0522	0.33
Mof_N 	N 	0.4561	0.45656	0.3421	-0.175
Mof_N 	N 	0.8352	0.45485	0.3439	-0.172
Mof_N 	N 	0.4561	0.54344	0.1579	-0.175
Mof_N 	N 	0.8352	0.54515	0.1561	-0.172
Mof_N 	N 	0.4561	0.95656	0.6579	-0.175
Mof_N 	N 	0.8352	0.95485	0.6561	-0.172
Mof_N 	N 	0.4561	0.04344	0.8421	-0.175
Mof_N 	N 	0.8352	0.04515	0.8439	-0.172
Mof_O 	O 	0.6441	0.5295	0.4017	-0.378
Mof_O 	O 	0.6442	0.55998	0.27599	-0.394
Mof_O 	O 	0.6709	0.90476	0.5079	-0.31
Mof_O 	O 	0.642	0.8712	0.63	-0.35
Mof_O 	O 	0.6441	0.4705	0.0983	-0.378
Mof_O 	O 	0.6442	0.44002	0.22401	-0.394
Mof_O 	O 	0.6709	0.09524	0.9921	-0.31
Mof_O 	O 	0.642	0.1288	0.87	-0.35
Mof_O 	O 	0.6441	0.0295	0.5983	-0.378
Mof_O 	O 	0.6442	0.05998	0.72401	-0.394
Mof_O 	O 	0.6709	0.40476	0.4921	-0.31
Mof_O 	O 	0.642	0.3712	0.37	-0.35
Mof_O 	O 	0.6441	0.9705	0.9017	-0.378
Mof_O 	O 	0.6442	0.94002	0.77599	-0.394
Mof_O 	O 	0.6709	0.59524	0.0079	-0.31
Mof_O 	O 	0.642	0.6288	0.13	-0.35
Mof_Fe	Fe	0.35544	0.04572	0.34645	0.804
Mof_Fe	Fe	0.35544	0.95428	0.15355	0.804
Mof_Fe	Fe	0.35544	0.54572	0.65355	0.804
Mof_Fe	Fe	0.35544	0.45428	0.84645	0.804
Mof_H 	H 	0.5627	0.9864	0.4308	0.027
Mof_H 	H 	0.765	0.9859	0.4317	0.089
Mof_H 	H 	0.7663	0.1006	0.2548	0.074
Mof_H 	H 	0.5651	0.1008	0.2539	0.011
Mof_H 	H 	0.9428	0.9761	0.4111	0.077
Mof_H 	H 	0.1442	0.9759	0.4096	0.014
Mof_H 	H 	0.1446	0.1139	0.2761	0.012
Mof_H 	H 	0.9428	0.115	0.2791	0.073
Mof_H 	H 	0.3526	0.8862	0.5054	0.054
Mof_H 	H 	0.3611	0.8449	0.2686	0.043
Mof_H 	H 	0.3558	0.753	0.3016	0.067
Mof_H 	H 	0.3445	0.8154	0.6091	0.059
Mof_H 	H 	0.342	0.7241	0.6446	0.046
Mof_H 	H 	0.3473	0.6823	0.4069	0.063
Mof_H 	H 	0.5627	0.0136	0.0692	0.027
Mof_H 	H 	0.765	0.0141	0.0683	0.089
Mof_H 	H 	0.7663	0.8994	0.2452	0.074
Mof_H 	H 	0.5651	0.8992	0.2461	0.011
Mof_H 	H 	0.9428	0.0239	0.0889	0.077
Mof_H 	H 	0.1442	0.0241	0.0904	0.014
Mof_H 	H 	0.1446	0.8861	0.2239	0.012
Mof_H 	H 	0.9428	0.885	0.2209	0.073
Mof_H 	H 	0.3526	0.1138	0.9946	0.054
Mof_H 	H 	0.3611	0.1551	0.2314	0.043
Mof_H 	H 	0.3558	0.247	0.1984	0.067
Mof_H 	H 	0.3445	0.1846	0.8909	0.059
Mof_H 	H 	0.342	0.2759	0.8554	0.046
Mof_H 	H 	0.3473	0.3177	0.0931	0.063
Mof_H 	H 	0.5627	0.4864	0.5692	0.027
Mof_H 	H 	0.765	0.4859	0.5683	0.089
Mof_H 	H 	0.7663	0.6006	0.7452	0.074
Mof_H 	H 	0.5651	0.6008	0.7461	0.011
Mof_H 	H 	0.9428	0.4761	0.5889	0.077
Mof_H 	H 	0.1442	0.4759	0.5904	0.014
Mof_H 	H 	0.1446	0.6139	0.7239	0.012
Mof_H 	H 	0.9428	0.615	0.7209	0.073
Mof_H 	H 	0.3526	0.3862	0.4946	0.054
Mof_H 	H 	0.3611	0.3449	0.7314	0.043
Mof_H 	H 	0.3558	0.253	0.6984	0.067
Mof_H 	H 	0.3445	0.3154	0.3909	0.059
Mof_H 	H 	0.342	0.2241	0.3554	0.046
Mof_H 	H 	0.3473	0.1823	0.5931	0.063
Mof_H 	H 	0.5627	0.5136	0.9308	0.027
Mof_H 	H 	0.765	0.5141	0.9317	0.089
Mof_H 	H 	0.7663	0.3994	0.7548	0.074
Mof_H 	H 	0.5651	0.3992	0.7539	0.011
Mof_H 	H 	0.9428	0.5239	0.9111	0.077
Mof_H 	H 	0.1442	0.5241	0.9096	0.014
Mof_H 	H 	0.1446	0.3861	0.7761	0.012
Mof_H 	H 	0.9428	0.385	0.7791	0.073
Mof_H 	H 	0.3526	0.6138	0.0054	0.054
Mof_H 	H 	0.3611	0.6551	0.7686	0.043
Mof_H 	H 	0.3558	0.747	0.8016	0.067
Mof_H 	H 	0.3445	0.6846	0.1091	0.059
Mof_H 	H 	0.342	0.7759	0.1446	0.046
Mof_H 	H 	0.3473	0.8177	0.9069	0.063
Mof_C 	C 	0.6038	0.0092	0.3954	0.071
Mof_C 	C 	0.7251	0.0088	0.3959	-0.122
Mof_C 	C 	0.7865	0.0429	0.3428	0.054
Mof_C 	C 	0.7256	0.0776	0.2899	-0.127
Mof_C 	C 	0.6051	0.0778	0.2894	0.072
Mof_C 	C 	0.9218	0.0456	0.3446	0.055
Mof_C 	C 	0.983	0.0038	0.3842	-0.126
Mof_C 	C 	0.1037	0.0038	0.3834	0.069
Mof_C 	C 	0.1042	0.0865	0.3038	0.071
Mof_C 	C 	0.9831	0.0869	0.305	-0.125
Mof_C 	C 	0.3562	0.9318	0.3525	0.378
Mof_C 	C 	0.3531	0.8595	0.4648	-0.022
Mof_C 	C 	0.3571	0.8744	0.3828	-0.103
Mof_C 	C 	0.3582	0.8345	0.3234	0.021
Mof_C 	C 	0.355	0.7794	0.3426	-0.105
Mof_C 	C 	0.3507	0.7648	0.4245	0.047
Mof_C 	C 	0.3498	0.8046	0.4862	0.013
Mof_C 	C 	0.3458	0.7888	0.5683	-0.072
Mof_C 	C 	0.3437	0.7342	0.5895	-0.007
Mof_C 	C 	0.3441	0.694	0.5289	-0.047
Mof_C 	C 	0.3473	0.7091	0.4473	-0.063
Mof_C 	C 	0.3471	0.632	0.5522	0.33
Mof_C 	C 	0.6038	0.9908	0.1046	0.071
Mof_C 	C 	0.7251	0.9912	0.1041	-0.122
Mof_C 	C 	0.7865	0.9571	0.1572	0.054
Mof_C 	C 	0.7256	0.9224	0.2101	-0.127
Mof_C 	C 	0.6051	0.9222	0.2106	0.072
Mof_C 	C 	0.9218	0.9544	0.1554	0.055
Mof_C 	C 	0.983	0.9962	0.1158	-0.127
Mof_C 	C 	0.1037	0.9962	0.1166	0.069
Mof_C 	C 	0.1042	0.9135	0.1962	0.071
Mof_C 	C 	0.9831	0.9131	0.195	-0.125
Mof_C 	C 	0.3562	0.0682	0.1475	0.379
Mof_C 	C 	0.3531	0.1405	0.0352	-0.022
Mof_C 	C 	0.3571	0.1256	0.1172	-0.103
Mof_C 	C 	0.3582	0.1655	0.1766	0.021
Mof_C 	C 	0.355	0.2206	0.1574	-0.105
Mof_C 	C 	0.3507	0.2352	0.0755	0.047
Mof_C 	C 	0.3498	0.1954	0.0138	0.013
Mof_C 	C 	0.3458	0.2112	0.9317	-0.072
Mof_C 	C 	0.3437	0.2658	0.9105	-0.007
Mof_C 	C 	0.3441	0.306	0.9711	-0.047
Mof_C 	C 	0.3473	0.2909	0.0527	-0.064
Mof_C 	C 	0.3471	0.368	0.9478	0.33
Mof_C 	C 	0.6038	0.5092	0.6046	0.071
Mof_C 	C 	0.7251	0.5088	0.6041	-0.122
Mof_C 	C 	0.7865	0.5429	0.6572	0.054
Mof_C 	C 	0.7256	0.5776	0.7101	-0.127
Mof_C 	C 	0.6051	0.5778	0.7106	0.072
Mof_C 	C 	0.9218	0.5456	0.6554	0.055
Mof_C 	C 	0.983	0.5038	0.6158	-0.127
Mof_C 	C 	0.1037	0.5038	0.6166	0.069
Mof_C 	C 	0.1042	0.5865	0.6962	0.071
Mof_C 	C 	0.9831	0.5869	0.695	-0.125
Mof_C 	C 	0.3562	0.4318	0.6475	0.378
Mof_C 	C 	0.3531	0.3595	0.5352	-0.022
Mof_C 	C 	0.3571	0.3744	0.6172	-0.103
Mof_C 	C 	0.3582	0.3345	0.6766	0.021
Mof_C 	C 	0.355	0.2794	0.6574	-0.105
Mof_C 	C 	0.3507	0.2648	0.5755	0.047
Mof_C 	C 	0.3498	0.3046	0.5138	0.013
Mof_C 	C 	0.3458	0.2888	0.4317	-0.072
Mof_C 	C 	0.3437	0.2342	0.4105	-0.007
Mof_C 	C 	0.3441	0.194	0.4711	-0.047
Mof_C 	C 	0.3473	0.2091	0.5527	-0.063
Mof_C 	C 	0.3471	0.132	0.4478	0.33
Mof_C 	C 	0.6038	0.4908	0.8954	0.071
Mof_C 	C 	0.7251	0.4912	0.8959	-0.122
Mof_C 	C 	0.7865	0.4571	0.8428	0.054
Mof_C 	C 	0.7256	0.4224	0.7899	-0.127
Mof_C 	C 	0.6051	0.4222	0.7894	0.072
Mof_C 	C 	0.9218	0.4544	0.8446	0.055
Mof_C 	C 	0.983	0.4962	0.8842	-0.127
Mof_C 	C 	0.1037	0.4962	0.8834	0.069
Mof_C 	C 	0.1042	0.4135	0.8038	0.071
Mof_C 	C 	0.9831	0.4131	0.805	-0.125
Mof_C 	C 	0.3562	0.5682	0.8525	0.379
Mof_C 	C 	0.3531	0.6405	0.9648	-0.022
Mof_C 	C 	0.3571	0.6256	0.8828	-0.103
Mof_C 	C 	0.3582	0.6655	0.8234	0.021
Mof_C 	C 	0.355	0.7206	0.8426	-0.105
Mof_C 	C 	0.3507	0.7352	0.9245	0.047
Mof_C 	C 	0.3498	0.6954	0.9862	0.013
Mof_C 	C 	0.3458	0.7112	0.0683	-0.072
Mof_C 	C 	0.3437	0.7658	0.0895	-0.007
Mof_C 	C 	0.3441	0.806	0.0289	-0.047
Mof_C 	C 	0.3473	0.7909	0.9473	-0.064
Mof_C 	C 	0.3471	0.868	0.0522	0.33
Mof_N 	N 	0.5439	0.04344	0.3421	-0.175
Mof_N 	N 	0.1648	0.04515	0.3439	-0.172
Mof_N 	N 	0.5439	0.95656	0.1579	-0.175
Mof_N 	N 	0.1648	0.95485	0.1561	-0.172
Mof_N 	N 	0.5439	0.54344	0.6579	-0.175
Mof_N 	N 	0.1648	0.54515	0.6561	-0.172
Mof_N 	N 	0.5439	0.45656	0.8421	-0.175
Mof_N 	N 	0.1648	0.45485	0.8439	-0.172
Mof_O 	O 	0.3559	0.9705	0.4017	-0.378
Mof_O 	O 	0.3558	0.94002	0.27599	-0.394
Mof_O 	O 	0.3291	0.59524	0.5079	-0.31
Mof_O 	O 	0.358	0.6288	0.63	-0.35
Mof_O 	O 	0.3559	0.0295	0.0983	-0.378
Mof_O 	O 	0.3558	0.05998	0.22401	-0.394
Mof_O 	O 	0.3291	0.40476	0.9921	-0.31
Mof_O 	O 	0.358	0.3712	0.87	-0.35
Mof_O 	O 	0.3559	0.4705	0.5983	-0.378
Mof_O 	O 	0.3558	0.44002	0.72401	-0.394
Mof_O 	O 	0.3291	0.09524	0.4921	-0.31
Mof_O 	O 	0.358	0.1288	0.37	-0.35
Mof_O 	O 	0.3559	0.5295	0.9017	-0.378
Mof_O 	O 	0.3558	0.55998	0.77599	-0.394
Mof_O 	O 	0.3291	0.90476	0.0079	-0.31
Mof_O 	O 	0.358	0.8712	0.13	-0.35
_end
