# CIF file generated by openbabel 3.1.0, see https://openbabel.org
data_I
_chemical_name_common 'image0'
_cell_length_a 29.608
_cell_length_b 29.608
_cell_length_c 18.158
_cell_angle_alpha 90
_cell_angle_beta 90
_cell_angle_gamma 120
_space_group_name_H-M_alt 'P 1'
_space_group_name_Hall 'P 1'
loop_
    _symmetry_equiv_pos_as_xyz
    x,y,z
loop_
    _atom_site_label
    _atom_site_type_symbol
    _atom_site_fract_x
    _atom_site_fract_y
    _atom_site_fract_z
    _atom_site_occupancy
    Zn1      Zn       0.62572    0.85443    0.52170    1.000
    N1       N        0.63578    0.89499    0.42459    1.000
    N2       N        0.59880    0.79368    0.44659    1.000
    N3       N        0.58255    0.77135    0.33025    1.000
    O1       O        0.47532    0.49313    0.24123    1.000
    O2       O        0.45216    0.52788    0.14993    1.000
    O3       O        0.58095    0.63218    0.74761    1.000
    O4       O        0.49635    0.59070    0.72999    1.000
    C1       C        0.65220    0.94585    0.41770    1.000
    H1       H        0.66090    0.96660    0.46090    1.000
    C2       C        0.65720    0.96944    0.35040    1.000
    H2       H        0.66910    0.00570    0.34750    1.000
    C3       C        0.64460    0.93965    0.28780    1.000
    H3       H        0.64770    0.95520    0.24090    1.000
    C4       C        0.62730    0.88676    0.29330    1.000
    H4       H        0.61860    0.86540    0.25070    1.000
    C5       C        0.62316    0.86609    0.36290    1.000
    C6       C        0.60265    0.81091    0.37852    1.000
    C7       C        0.57537    0.74056    0.44260    1.000
    C8       C        0.56454    0.72549    0.36948    1.000
    C9       C        0.54021    0.67518    0.33110    1.000
    C10      C        0.51611    0.66986    0.26250    1.000
    H5       H        0.51530    0.69880    0.24160    1.000
    C11      C        0.49384    0.62339    0.22530    1.000
    H6       H        0.47810    0.62080    0.17870    1.000
    C12      C        0.49382    0.57999    0.25438    1.000
    C13      C        0.51711    0.58478    0.32330    1.000
    H7       H        0.51670    0.55530    0.34480    1.000
    C14      C        0.54060    0.63165    0.36030    1.000
    H8       H        0.55730    0.63450    0.40610    1.000
    C15      C        0.47143    0.53028    0.21151    1.000
    C16      C        0.56469    0.70977    0.51073    1.000
    C17      C        0.60254    0.72890    0.56560    1.000
    H9       H        0.63420    0.76080    0.55840    1.000
    C18      C        0.59420    0.70152    0.63080    1.000
    H10      H        0.62020    0.71490    0.66800    1.000
    C19      C        0.54873    0.65530    0.64220    1.000
    C20      C        0.50980    0.63630    0.58850    1.000
    H11      H        0.47780    0.60490    0.59690    1.000
    C21      C        0.51780    0.66323    0.52280    1.000
    H12      H        0.49140    0.65010    0.48610    1.000
    C22      C        0.54192    0.62470    0.71120    1.000
    H13      H        0.58530    0.77530    0.27700    1.000
    Zn2      Zn       0.29239    0.18776    0.85503    1.000
    N4       N        0.30245    0.22832    0.75792    1.000
    N5       N        0.26547    0.12701    0.77992    1.000
    N6       N        0.24922    0.10468    0.66358    1.000
    O5       O        0.14199    0.82646    0.57456    1.000
    O6       O        0.11883    0.86121    0.48326    1.000
    O7       O        0.24762    0.96551    0.08094    1.000
    O8       O        0.16302    0.92403    0.06332    1.000
    C23      C        0.31887    0.27918    0.75103    1.000
    H14      H        0.32757    0.29993    0.79423    1.000
    C24      C        0.32387    0.30277    0.68373    1.000
    H15      H        0.33577    0.33903    0.68083    1.000
    C25      C        0.31127    0.27298    0.62113    1.000
    H16      H        0.31437    0.28853    0.57423    1.000
    C26      C        0.29397    0.22009    0.62663    1.000
    H17      H        0.28527    0.19873    0.58403    1.000
    C27      C        0.28983    0.19942    0.69623    1.000
    C28      C        0.26932    0.14424    0.71185    1.000
    C29      C        0.24204    0.07389    0.77593    1.000
    C30      C        0.23121    0.05882    0.70281    1.000
    C31      C        0.20688    0.00851    0.66443    1.000
    C32      C        0.18278    0.00319    0.59583    1.000
    H18      H        0.18197    0.03213    0.57493    1.000
    C33      C        0.16051    0.95672    0.55863    1.000
    H19      H        0.14477    0.95413    0.51203    1.000
    C34      C        0.16049    0.91332    0.58771    1.000
    C35      C        0.18378    0.91811    0.65663    1.000
    H20      H        0.18337    0.88863    0.67813    1.000
    C36      C        0.20727    0.96498    0.69363    1.000
    H21      H        0.22397    0.96783    0.73943    1.000
    C37      C        0.13810    0.86361    0.54484    1.000
    C38      C        0.23136    0.04310    0.84406    1.000
    C39      C        0.26921    0.06223    0.89893    1.000
    H22      H        0.30087    0.09413    0.89173    1.000
    C40      C        0.26087    0.03485    0.96413    1.000
    H23      H        0.28687    0.04823    0.00133    1.000
    C41      C        0.21540    0.98863    0.97553    1.000
    C42      C        0.17647    0.96963    0.92183    1.000
    H24      H        0.14447    0.93823    0.93023    1.000
    C43      C        0.18447    0.99656    0.85613    1.000
    H25      H        0.15807    0.98343    0.81943    1.000
    C44      C        0.20859    0.95803    0.04453    1.000
    H26      H        0.25197    0.10863    0.61033    1.000
    Zn3      Zn       0.95905    0.52110    0.18837    1.000
    N7       N        0.96911    0.56166    0.09126    1.000
    N8       N        0.93213    0.46035    0.11326    1.000
    N9       N        0.91588    0.43802    0.99692    1.000
    O9       O        0.80865    0.15980    0.90790    1.000
    O10      O        0.78549    0.19455    0.81660    1.000
    O11      O        0.91428    0.29885    0.41428    1.000
    O12      O        0.82968    0.25737    0.39666    1.000
    C45      C        0.98553    0.61252    0.08437    1.000
    H27      H        0.99423    0.63327    0.12757    1.000
    C46      C        0.99053    0.63611    0.01707    1.000
    H28      H        0.00243    0.67237    0.01417    1.000
    C47      C        0.97793    0.60632    0.95447    1.000
    H29      H        0.98103    0.62187    0.90757    1.000
    C48      C        0.96063    0.55343    0.95997    1.000
    H30      H        0.95193    0.53207    0.91737    1.000
    C49      C        0.95649    0.53276    0.02957    1.000
    C50      C        0.93598    0.47758    0.04519    1.000
    C51      C        0.90870    0.40723    0.10927    1.000
    C52      C        0.89787    0.39216    0.03615    1.000
    C53      C        0.87354    0.34185    0.99777    1.000
    C54      C        0.84944    0.33653    0.92917    1.000
    H31      H        0.84863    0.36547    0.90827    1.000
    C55      C        0.82717    0.29006    0.89197    1.000
    H32      H        0.81143    0.28747    0.84537    1.000
    C56      C        0.82715    0.24666    0.92105    1.000
    C57      C        0.85044    0.25145    0.98997    1.000
    H33      H        0.85003    0.22197    0.01147    1.000
    C58      C        0.87393    0.29832    0.02697    1.000
    H34      H        0.89063    0.30117    0.07277    1.000
    C59      C        0.80476    0.19695    0.87818    1.000
    C60      C        0.89802    0.37644    0.17740    1.000
    C61      C        0.93587    0.39557    0.23227    1.000
    H35      H        0.96753    0.42747    0.22507    1.000
    C62      C        0.92753    0.36819    0.29747    1.000
    H36      H        0.95353    0.38157    0.33467    1.000
    C63      C        0.88206    0.32197    0.30887    1.000
    C64      C        0.84313    0.30297    0.25517    1.000
    H37      H        0.81113    0.27157    0.26357    1.000
    C65      C        0.85113    0.32990    0.18947    1.000
    H38      H        0.82473    0.31677    0.15277    1.000
    C66      C        0.87525    0.29137    0.37787    1.000
    H39      H        0.91863    0.44197    0.94367    1.000
    Zn4      Zn       0.14557    0.77129    0.52170    1.000
    N10      N        0.10501    0.74079    0.42459    1.000
    N11      N        0.20632    0.80512    0.44659    1.000
    N12      N        0.22865    0.81120    0.33025    1.000
    O13      O        0.50687    0.98219    0.24123    1.000
    O14      O        0.47212    0.92428    0.14993    1.000
    O15      O        0.36782    0.94877    0.74761    1.000
    O16      O        0.40930    0.90565    0.72999    1.000
    C67      C        0.05415    0.70635    0.41770    1.000
    H40      H        0.03340    0.69430    0.46090    1.000
    C68      C        0.03056    0.68776    0.35040    1.000
    H41      H        0.99430    0.66340    0.34750    1.000
    C69      C        0.06035    0.70495    0.28780    1.000
    H42      H        0.04480    0.69250    0.24090    1.000
    C70      C        0.11324    0.74054    0.29330    1.000
    H43      H        0.13460    0.75320    0.25070    1.000
    C71      C        0.13391    0.75707    0.36290    1.000
    C72      C        0.18909    0.79174    0.37852    1.000
    C73      C        0.25944    0.83481    0.44260    1.000
    C74      C        0.27451    0.83905    0.36948    1.000
    C75      C        0.32482    0.86503    0.33110    1.000
    C76      C        0.33014    0.84625    0.26250    1.000
    H44      H        0.30120    0.81650    0.24160    1.000
    C77      C        0.37661    0.87045    0.22530    1.000
    H45      H        0.37920    0.85730    0.17870    1.000
    C78      C        0.42001    0.91383    0.25438    1.000
    C79      C        0.41522    0.93233    0.32330    1.000
    H46      H        0.44470    0.96140    0.34480    1.000
    C80      C        0.36835    0.90895    0.36030    1.000
    H47      H        0.36550    0.92280    0.40610    1.000
    C81      C        0.46972    0.94115    0.21151    1.000
    C82      C        0.29023    0.85492    0.51073    1.000
    C83      C        0.27110    0.87364    0.56560    1.000
    H48      H        0.23920    0.87340    0.55840    1.000
    C84      C        0.29848    0.89268    0.63080    1.000
    H49      H        0.28510    0.90530    0.66800    1.000
    C85      C        0.34470    0.89343    0.64220    1.000
    C86      C        0.36370    0.87350    0.58850    1.000
    H50      H        0.39510    0.87290    0.59690    1.000
    C87      C        0.33677    0.85457    0.52280    1.000
    H51      H        0.34990    0.84130    0.48610    1.000
    C88      C        0.37530    0.91722    0.71120    1.000
    H52      H        0.22470    0.81000    0.27700    1.000
    Zn5      Zn       0.81224    0.10462    0.85503    1.000
    N13      N        0.77168    0.07412    0.75792    1.000
    N14      N        0.87299    0.13845    0.77992    1.000
    N15      N        0.89532    0.14453    0.66358    1.000
    O17      O        0.17354    0.31552    0.57456    1.000
    O18      O        0.13879    0.25761    0.48326    1.000
    O19      O        0.03449    0.28210    0.08094    1.000
    O20      O        0.07597    0.23898    0.06332    1.000
    C89      C        0.72082    0.03968    0.75103    1.000
    H53      H        0.70007    0.02763    0.79423    1.000
    C90      C        0.69723    0.02109    0.68373    1.000
    H54      H        0.66097    0.99673    0.68083    1.000
    C91      C        0.72702    0.03828    0.62113    1.000
    H55      H        0.71147    0.02583    0.57423    1.000
    C92      C        0.77991    0.07387    0.62663    1.000
    H56      H        0.80127    0.08653    0.58403    1.000
    C93      C        0.80058    0.09040    0.69623    1.000
    C94      C        0.85576    0.12507    0.71185    1.000
    C95      C        0.92611    0.16814    0.77593    1.000
    C96      C        0.94118    0.17238    0.70281    1.000
    C97      C        0.99149    0.19836    0.66443    1.000
    C98      C        0.99681    0.17958    0.59583    1.000
    H57      H        0.96787    0.14983    0.57493    1.000
    C99      C        0.04328    0.20378    0.55863    1.000
    H58      H        0.04587    0.19063    0.51203    1.000
    C100     C        0.08668    0.24716    0.58771    1.000
    C101     C        0.08189    0.26566    0.65663    1.000
    H59      H        0.11137    0.29473    0.67813    1.000
    C102     C        0.03502    0.24228    0.69363    1.000
    H60      H        0.03217    0.25613    0.73943    1.000
    C103     C        0.13639    0.27448    0.54484    1.000
    C104     C        0.95690    0.18825    0.84406    1.000
    C105     C        0.93777    0.20697    0.89893    1.000
    H61      H        0.90587    0.20673    0.89173    1.000
    C106     C        0.96515    0.22601    0.96413    1.000
    H62      H        0.95177    0.23863    0.00133    1.000
    C107     C        0.01137    0.22676    0.97553    1.000
    C108     C        0.03037    0.20683    0.92183    1.000
    H63      H        0.06177    0.20623    0.93023    1.000
    C109     C        0.00344    0.18790    0.85613    1.000
    H64      H        0.01657    0.17463    0.81943    1.000
    C110     C        0.04197    0.25055    0.04453    1.000
    H65      H        0.89137    0.14333    0.61033    1.000
    Zn6      Zn       0.47890    0.43796    0.18837    1.000
    N16      N        0.43834    0.40746    0.09126    1.000
    N17      N        0.53965    0.47179    0.11326    1.000
    N18      N        0.56198    0.47787    0.99692    1.000
    O21      O        0.84020    0.64886    0.90790    1.000
    O22      O        0.80545    0.59095    0.81660    1.000
    O23      O        0.70115    0.61544    0.41428    1.000
    O24      O        0.74263    0.57232    0.39666    1.000
    C111     C        0.38748    0.37302    0.08437    1.000
    H66      H        0.36673    0.36097    0.12757    1.000
    C112     C        0.36389    0.35443    0.01707    1.000
    H67      H        0.32763    0.33007    0.01417    1.000
    C113     C        0.39368    0.37162    0.95447    1.000
    H68      H        0.37813    0.35917    0.90757    1.000
    C114     C        0.44657    0.40721    0.95997    1.000
    H69      H        0.46793    0.41987    0.91737    1.000
    C115     C        0.46724    0.42374    0.02957    1.000
    C116     C        0.52242    0.45841    0.04519    1.000
    C117     C        0.59277    0.50148    0.10927    1.000
    C118     C        0.60784    0.50572    0.03615    1.000
    C119     C        0.65815    0.53170    0.99777    1.000
    C120     C        0.66347    0.51292    0.92917    1.000
    H70      H        0.63453    0.48317    0.90827    1.000
    C121     C        0.70994    0.53712    0.89197    1.000
    H71      H        0.71253    0.52397    0.84537    1.000
    C122     C        0.75334    0.58050    0.92105    1.000
    C123     C        0.74855    0.59900    0.98997    1.000
    H72      H        0.77803    0.62807    0.01147    1.000
    C124     C        0.70168    0.57562    0.02697    1.000
    H73      H        0.69883    0.58947    0.07277    1.000
    C125     C        0.80305    0.60782    0.87818    1.000
    C126     C        0.62356    0.52159    0.17740    1.000
    C127     C        0.60443    0.54031    0.23227    1.000
    H74      H        0.57253    0.54007    0.22507    1.000
    C128     C        0.63181    0.55935    0.29747    1.000
    H75      H        0.61843    0.57197    0.33467    1.000
    C129     C        0.67803    0.56010    0.30887    1.000
    C130     C        0.69703    0.54017    0.25517    1.000
    H76      H        0.72843    0.53957    0.26357    1.000
    C131     C        0.67010    0.52124    0.18947    1.000
    H77      H        0.68323    0.50797    0.15277    1.000
    C132     C        0.70863    0.58389    0.37787    1.000
    H78      H        0.55803    0.47667    0.94367    1.000
    Zn7      Zn       0.22871    0.37428    0.52170    1.000
    N19      N        0.25921    0.36422    0.42459    1.000
    N20      N        0.19488    0.40120    0.44659    1.000
    N21      N        0.18880    0.41745    0.33025    1.000
    O25      O        0.01781    0.52468    0.24123    1.000
    O26      O        0.07572    0.54784    0.14993    1.000
    O27      O        0.05123    0.41905    0.74761    1.000
    O28      O        0.09435    0.50365    0.72999    1.000
    C133     C        0.29365    0.34780    0.41770    1.000
    H79      H        0.30570    0.33910    0.46090    1.000
    C134     C        0.31224    0.34280    0.35040    1.000
    H80      H        0.33660    0.33090    0.34750    1.000
    C135     C        0.29505    0.35540    0.28780    1.000
    H81      H        0.30750    0.35230    0.24090    1.000
    C136     C        0.25946    0.37270    0.29330    1.000
    H82      H        0.24680    0.38140    0.25070    1.000
    C137     C        0.24293    0.37684    0.36290    1.000
    C138     C        0.20826    0.39735    0.37852    1.000
    C139     C        0.16519    0.42463    0.44260    1.000
    C140     C        0.16095    0.43546    0.36948    1.000
    C141     C        0.13497    0.45979    0.33110    1.000
    C142     C        0.15375    0.48389    0.26250    1.000
    H83      H        0.18350    0.48470    0.24160    1.000
    C143     C        0.12955    0.50616    0.22530    1.000
    H84      H        0.14270    0.52190    0.17870    1.000
    C144     C        0.08617    0.50618    0.25438    1.000
    C145     C        0.06767    0.48289    0.32330    1.000
    H85      H        0.03860    0.48330    0.34480    1.000
    C146     C        0.09105    0.45940    0.36030    1.000
    H86      H        0.07720    0.44270    0.40610    1.000
    C147     C        0.05885    0.52857    0.21151    1.000
    C148     C        0.14508    0.43531    0.51073    1.000
    C149     C        0.12636    0.39746    0.56560    1.000
    H87      H        0.12660    0.36580    0.55840    1.000
    C150     C        0.10732    0.40580    0.63080    1.000
    H88      H        0.09470    0.37980    0.66800    1.000
    C151     C        0.10657    0.45127    0.64220    1.000
    C152     C        0.12650    0.49020    0.58850    1.000
    H89      H        0.12710    0.52220    0.59690    1.000
    C153     C        0.14543    0.48220    0.52280    1.000
    H90      H        0.15870    0.50860    0.48610    1.000
    C154     C        0.08278    0.45808    0.71120    1.000
    H91      H        0.19000    0.41470    0.27700    1.000
    Zn8      Zn       0.89538    0.70761    0.85503    1.000
    N22      N        0.92588    0.69755    0.75792    1.000
    N23      N        0.86155    0.73453    0.77992    1.000
    N24      N        0.85547    0.75078    0.66358    1.000
    O29      O        0.68448    0.85801    0.57456    1.000
    O30      O        0.74239    0.88117    0.48326    1.000
    O31      O        0.71790    0.75238    0.08094    1.000
    O32      O        0.76102    0.83698    0.06332    1.000
    C155     C        0.96032    0.68113    0.75103    1.000
    H92      H        0.97237    0.67243    0.79423    1.000
    C156     C        0.97891    0.67613    0.68373    1.000
    H93      H        0.00327    0.66423    0.68083    1.000
    C157     C        0.96172    0.68873    0.62113    1.000
    H94      H        0.97417    0.68563    0.57423    1.000
    C158     C        0.92613    0.70603    0.62663    1.000
    H95      H        0.91347    0.71473    0.58403    1.000
    C159     C        0.90960    0.71017    0.69623    1.000
    C160     C        0.87493    0.73068    0.71185    1.000
    C161     C        0.83186    0.75796    0.77593    1.000
    C162     C        0.82762    0.76879    0.70281    1.000
    C163     C        0.80164    0.79312    0.66443    1.000
    C164     C        0.82042    0.81722    0.59583    1.000
    H96      H        0.85017    0.81803    0.57493    1.000
    C165     C        0.79622    0.83949    0.55863    1.000
    H97      H        0.80937    0.85523    0.51203    1.000
    C166     C        0.75284    0.83951    0.58771    1.000
    C167     C        0.73434    0.81622    0.65663    1.000
    H98      H        0.70527    0.81663    0.67813    1.000
    C168     C        0.75772    0.79273    0.69363    1.000
    H99      H        0.74387    0.77603    0.73943    1.000
    C169     C        0.72552    0.86190    0.54484    1.000
    C170     C        0.81175    0.76864    0.84406    1.000
    C171     C        0.79303    0.73079    0.89893    1.000
    H100     H        0.79327    0.69913    0.89173    1.000
    C172     C        0.77399    0.73913    0.96413    1.000
    H101     H        0.76137    0.71313    0.00133    1.000
    C173     C        0.77324    0.78460    0.97553    1.000
    C174     C        0.79317    0.82353    0.92183    1.000
    H102     H        0.79377    0.85553    0.93023    1.000
    C175     C        0.81210    0.81553    0.85613    1.000
    H103     H        0.82537    0.84193    0.81943    1.000
    C176     C        0.74945    0.79141    0.04453    1.000
    H104     H        0.85667    0.74803    0.61033    1.000
    Zn9      Zn       0.56204    0.04095    0.18837    1.000
    N25      N        0.59254    0.03089    0.09126    1.000
    N26      N        0.52821    0.06787    0.11326    1.000
    N27      N        0.52213    0.08412    0.99692    1.000
    O33      O        0.35114    0.19135    0.90790    1.000
    O34      O        0.40905    0.21451    0.81660    1.000
    O35      O        0.38456    0.08572    0.41428    1.000
    O36      O        0.42768    0.17032    0.39666    1.000
    C177     C        0.62698    0.01447    0.08437    1.000
    H105     H        0.63903    0.00577    0.12757    1.000
    C178     C        0.64557    0.00947    0.01707    1.000
    H106     H        0.66993    0.99757    0.01417    1.000
    C179     C        0.62838    0.02207    0.95447    1.000
    H107     H        0.64083    0.01897    0.90757    1.000
    C180     C        0.59279    0.03937    0.95997    1.000
    H108     H        0.58013    0.04807    0.91737    1.000
    C181     C        0.57626    0.04351    0.02957    1.000
    C182     C        0.54159    0.06402    0.04519    1.000
    C183     C        0.49852    0.09130    0.10927    1.000
    C184     C        0.49428    0.10213    0.03615    1.000
    C185     C        0.46830    0.12646    0.99777    1.000
    C186     C        0.48708    0.15056    0.92917    1.000
    H109     H        0.51683    0.15137    0.90827    1.000
    C187     C        0.46288    0.17283    0.89197    1.000
    H110     H        0.47603    0.18857    0.84537    1.000
    C188     C        0.41950    0.17285    0.92105    1.000
    C189     C        0.40100    0.14956    0.98997    1.000
    H111     H        0.37193    0.14997    0.01147    1.000
    C190     C        0.42438    0.12607    0.02697    1.000
    H112     H        0.41053    0.10937    0.07277    1.000
    C191     C        0.39218    0.19524    0.87818    1.000
    C192     C        0.47841    0.10198    0.17740    1.000
    C193     C        0.45969    0.06413    0.23227    1.000
    H113     H        0.45993    0.03247    0.22507    1.000
    C194     C        0.44065    0.07247    0.29747    1.000
    H114     H        0.42803    0.04647    0.33467    1.000
    C195     C        0.43990    0.11794    0.30887    1.000
    C196     C        0.45983    0.15687    0.25517    1.000
    H115     H        0.46043    0.18887    0.26357    1.000
    C197     C        0.47876    0.14887    0.18947    1.000
    H116     H        0.49203    0.17527    0.15277    1.000
    C198     C        0.41611    0.12475    0.37787    1.000
    H117     H        0.52333    0.08137    0.94367    1.000
    Zn10     Zn       0.37428    0.14557    0.47830    1.000
    N28      N        0.36422    0.10501    0.57541    1.000
    N29      N        0.40120    0.20632    0.55341    1.000
    N30      N        0.41745    0.22865    0.66975    1.000
    O37      O        0.52468    0.50687    0.75877    1.000
    O38      O        0.54784    0.47212    0.85007    1.000
    O39      O        0.41905    0.36782    0.25239    1.000
    O40      O        0.50365    0.40930    0.27001    1.000
    C199     C        0.34780    0.05415    0.58230    1.000
    H118     H        0.33910    0.03340    0.53910    1.000
    C200     C        0.34280    0.03056    0.64960    1.000
    H119     H        0.33090    0.99430    0.65250    1.000
    C201     C        0.35540    0.06035    0.71220    1.000
    H120     H        0.35230    0.04480    0.75910    1.000
    C202     C        0.37270    0.11324    0.70670    1.000
    H121     H        0.38140    0.13460    0.74930    1.000
    C203     C        0.37684    0.13391    0.63710    1.000
    C204     C        0.39735    0.18909    0.62148    1.000
    C205     C        0.42463    0.25944    0.55740    1.000
    C206     C        0.43546    0.27451    0.63052    1.000
    C207     C        0.45979    0.32482    0.66890    1.000
    C208     C        0.48389    0.33014    0.73750    1.000
    H122     H        0.48470    0.30120    0.75840    1.000
    C209     C        0.50616    0.37661    0.77470    1.000
    H123     H        0.52190    0.37920    0.82130    1.000
    C210     C        0.50618    0.42001    0.74562    1.000
    C211     C        0.48289    0.41522    0.67670    1.000
    H124     H        0.48330    0.44470    0.65520    1.000
    C212     C        0.45940    0.36835    0.63970    1.000
    H125     H        0.44270    0.36550    0.59390    1.000
    C213     C        0.52857    0.46972    0.78849    1.000
    C214     C        0.43531    0.29023    0.48927    1.000
    C215     C        0.39746    0.27110    0.43440    1.000
    H126     H        0.36580    0.23920    0.44160    1.000
    C216     C        0.40580    0.29848    0.36920    1.000
    H127     H        0.37980    0.28510    0.33200    1.000
    C217     C        0.45127    0.34470    0.35780    1.000
    C218     C        0.49020    0.36370    0.41150    1.000
    H128     H        0.52220    0.39510    0.40310    1.000
    C219     C        0.48220    0.33677    0.47720    1.000
    H129     H        0.50860    0.34990    0.51390    1.000
    C220     C        0.45808    0.37530    0.28880    1.000
    H130     H        0.41470    0.22470    0.72300    1.000
    Zn11     Zn       0.04095    0.47890    0.81163    1.000
    N31      N        0.03089    0.43834    0.90874    1.000
    N32      N        0.06787    0.53965    0.88674    1.000
    N33      N        0.08412    0.56198    0.00308    1.000
    O41      O        0.19135    0.84020    0.09210    1.000
    O42      O        0.21451    0.80545    0.18340    1.000
    O43      O        0.08572    0.70115    0.58572    1.000
    O44      O        0.17032    0.74263    0.60334    1.000
    C221     C        0.01447    0.38748    0.91563    1.000
    H131     H        0.00577    0.36673    0.87243    1.000
    C222     C        0.00947    0.36389    0.98293    1.000
    H132     H        0.99757    0.32763    0.98583    1.000
    C223     C        0.02207    0.39368    0.04553    1.000
    H133     H        0.01897    0.37813    0.09243    1.000
    C224     C        0.03937    0.44657    0.04003    1.000
    H134     H        0.04807    0.46793    0.08263    1.000
    C225     C        0.04351    0.46724    0.97043    1.000
    C226     C        0.06402    0.52242    0.95481    1.000
    C227     C        0.09130    0.59277    0.89073    1.000
    C228     C        0.10213    0.60784    0.96385    1.000
    C229     C        0.12646    0.65815    0.00223    1.000
    C230     C        0.15056    0.66347    0.07083    1.000
    H135     H        0.15137    0.63453    0.09173    1.000
    C231     C        0.17283    0.70994    0.10803    1.000
    H136     H        0.18857    0.71253    0.15463    1.000
    C232     C        0.17285    0.75334    0.07895    1.000
    C233     C        0.14956    0.74855    0.01003    1.000
    H137     H        0.14997    0.77803    0.98853    1.000
    C234     C        0.12607    0.70168    0.97303    1.000
    H138     H        0.10937    0.69883    0.92723    1.000
    C235     C        0.19524    0.80305    0.12182    1.000
    C236     C        0.10198    0.62356    0.82260    1.000
    C237     C        0.06413    0.60443    0.76773    1.000
    H139     H        0.03247    0.57253    0.77493    1.000
    C238     C        0.07247    0.63181    0.70253    1.000
    H140     H        0.04647    0.61843    0.66533    1.000
    C239     C        0.11794    0.67803    0.69113    1.000
    C240     C        0.15687    0.69703    0.74483    1.000
    H141     H        0.18887    0.72843    0.73643    1.000
    C241     C        0.14887    0.67010    0.81053    1.000
    H142     H        0.17527    0.68323    0.84723    1.000
    C242     C        0.12475    0.70863    0.62213    1.000
    H143     H        0.08137    0.55803    0.05633    1.000
    Zn12     Zn       0.70761    0.81224    0.14497    1.000
    N34      N        0.69755    0.77168    0.24208    1.000
    N35      N        0.73453    0.87299    0.22008    1.000
    N36      N        0.75078    0.89532    0.33642    1.000
    O45      O        0.85801    0.17354    0.42544    1.000
    O46      O        0.88117    0.13879    0.51674    1.000
    O47      O        0.75238    0.03449    0.91906    1.000
    O48      O        0.83698    0.07597    0.93668    1.000
    C243     C        0.68113    0.72082    0.24897    1.000
    H144     H        0.67243    0.70007    0.20577    1.000
    C244     C        0.67613    0.69723    0.31627    1.000
    H145     H        0.66423    0.66097    0.31917    1.000
    C245     C        0.68873    0.72702    0.37887    1.000
    H146     H        0.68563    0.71147    0.42577    1.000
    C246     C        0.70603    0.77991    0.37337    1.000
    H147     H        0.71473    0.80127    0.41597    1.000
    C247     C        0.71017    0.80058    0.30377    1.000
    C248     C        0.73068    0.85576    0.28815    1.000
    C249     C        0.75796    0.92611    0.22407    1.000
    C250     C        0.76879    0.94118    0.29719    1.000
    C251     C        0.79312    0.99149    0.33557    1.000
    C252     C        0.81722    0.99681    0.40417    1.000
    H148     H        0.81803    0.96787    0.42507    1.000
    C253     C        0.83949    0.04328    0.44137    1.000
    H149     H        0.85523    0.04587    0.48797    1.000
    C254     C        0.83951    0.08668    0.41229    1.000
    C255     C        0.81622    0.08189    0.34337    1.000
    H150     H        0.81663    0.11137    0.32187    1.000
    C256     C        0.79273    0.03502    0.30637    1.000
    H151     H        0.77603    0.03217    0.26057    1.000
    C257     C        0.86190    0.13639    0.45516    1.000
    C258     C        0.76864    0.95690    0.15594    1.000
    C259     C        0.73079    0.93777    0.10107    1.000
    H152     H        0.69913    0.90587    0.10827    1.000
    C260     C        0.73913    0.96515    0.03587    1.000
    H153     H        0.71313    0.95177    0.99867    1.000
    C261     C        0.78460    0.01137    0.02447    1.000
    C262     C        0.82353    0.03037    0.07817    1.000
    H154     H        0.85553    0.06177    0.06977    1.000
    C263     C        0.81553    0.00344    0.14387    1.000
    H155     H        0.84193    0.01657    0.18057    1.000
    C264     C        0.79141    0.04197    0.95547    1.000
    H156     H        0.74803    0.89137    0.38967    1.000
    Zn13     Zn       0.85443    0.22871    0.47830    1.000
    N37      N        0.89499    0.25921    0.57541    1.000
    N38      N        0.79368    0.19488    0.55341    1.000
    N39      N        0.77135    0.18880    0.66975    1.000
    O49      O        0.49313    0.01781    0.75877    1.000
    O50      O        0.52788    0.07572    0.85007    1.000
    O51      O        0.63218    0.05123    0.25239    1.000
    O52      O        0.59070    0.09435    0.27001    1.000
    C265     C        0.94585    0.29365    0.58230    1.000
    H157     H        0.96660    0.30570    0.53910    1.000
    C266     C        0.96944    0.31224    0.64960    1.000
    H158     H        0.00570    0.33660    0.65250    1.000
    C267     C        0.93965    0.29505    0.71220    1.000
    H159     H        0.95520    0.30750    0.75910    1.000
    C268     C        0.88676    0.25946    0.70670    1.000
    H160     H        0.86540    0.24680    0.74930    1.000
    C269     C        0.86609    0.24293    0.63710    1.000
    C270     C        0.81091    0.20826    0.62148    1.000
    C271     C        0.74056    0.16519    0.55740    1.000
    C272     C        0.72549    0.16095    0.63052    1.000
    C273     C        0.67518    0.13497    0.66890    1.000
    C274     C        0.66986    0.15375    0.73750    1.000
    H161     H        0.69880    0.18350    0.75840    1.000
    C275     C        0.62339    0.12955    0.77470    1.000
    H162     H        0.62080    0.14270    0.82130    1.000
    C276     C        0.57999    0.08617    0.74562    1.000
    C277     C        0.58478    0.06767    0.67670    1.000
    H163     H        0.55530    0.03860    0.65520    1.000
    C278     C        0.63165    0.09105    0.63970    1.000
    H164     H        0.63450    0.07720    0.59390    1.000
    C279     C        0.53028    0.05885    0.78849    1.000
    C280     C        0.70977    0.14508    0.48927    1.000
    C281     C        0.72890    0.12636    0.43440    1.000
    H165     H        0.76080    0.12660    0.44160    1.000
    C282     C        0.70152    0.10732    0.36920    1.000
    H166     H        0.71490    0.09470    0.33200    1.000
    C283     C        0.65530    0.10657    0.35780    1.000
    C284     C        0.63630    0.12650    0.41150    1.000
    H167     H        0.60490    0.12710    0.40310    1.000
    C285     C        0.66323    0.14543    0.47720    1.000
    H168     H        0.65010    0.15870    0.51390    1.000
    C286     C        0.62470    0.08278    0.28880    1.000
    H169     H        0.77530    0.19000    0.72300    1.000
    Zn14     Zn       0.52110    0.56204    0.81163    1.000
    N40      N        0.56166    0.59254    0.90874    1.000
    N41      N        0.46035    0.52821    0.88674    1.000
    N42      N        0.43802    0.52213    0.00308    1.000
    O53      O        0.15980    0.35114    0.09210    1.000
    O54      O        0.19455    0.40905    0.18340    1.000
    O55      O        0.29885    0.38456    0.58572    1.000
    O56      O        0.25737    0.42768    0.60334    1.000
    C287     C        0.61252    0.62698    0.91563    1.000
    H170     H        0.63327    0.63903    0.87243    1.000
    C288     C        0.63611    0.64557    0.98293    1.000
    H171     H        0.67237    0.66993    0.98583    1.000
    C289     C        0.60632    0.62838    0.04553    1.000
    H172     H        0.62187    0.64083    0.09243    1.000
    C290     C        0.55343    0.59279    0.04003    1.000
    H173     H        0.53207    0.58013    0.08263    1.000
    C291     C        0.53276    0.57626    0.97043    1.000
    C292     C        0.47758    0.54159    0.95481    1.000
    C293     C        0.40723    0.49852    0.89073    1.000
    C294     C        0.39216    0.49428    0.96385    1.000
    C295     C        0.34185    0.46830    0.00223    1.000
    C296     C        0.33653    0.48708    0.07083    1.000
    H174     H        0.36547    0.51683    0.09173    1.000
    C297     C        0.29006    0.46288    0.10803    1.000
    H175     H        0.28747    0.47603    0.15463    1.000
    C298     C        0.24666    0.41950    0.07895    1.000
    C299     C        0.25145    0.40100    0.01003    1.000
    H176     H        0.22197    0.37193    0.98853    1.000
    C300     C        0.29832    0.42438    0.97303    1.000
    H177     H        0.30117    0.41053    0.92723    1.000
    C301     C        0.19695    0.39218    0.12182    1.000
    C302     C        0.37644    0.47841    0.82260    1.000
    C303     C        0.39557    0.45969    0.76773    1.000
    H178     H        0.42747    0.45993    0.77493    1.000
    C304     C        0.36819    0.44065    0.70253    1.000
    H179     H        0.38157    0.42803    0.66533    1.000
    C305     C        0.32197    0.43990    0.69113    1.000
    C306     C        0.30297    0.45983    0.74483    1.000
    H180     H        0.27157    0.46043    0.73643    1.000
    C307     C        0.32990    0.47876    0.81053    1.000
    H181     H        0.31677    0.49203    0.84723    1.000
    C308     C        0.29137    0.41611    0.62213    1.000
    H182     H        0.44197    0.52333    0.05633    1.000
    Zn15     Zn       0.18776    0.89538    0.14497    1.000
    N43      N        0.22832    0.92588    0.24208    1.000
    N44      N        0.12701    0.86155    0.22008    1.000
    N45      N        0.10468    0.85547    0.33642    1.000
    O57      O        0.82646    0.68448    0.42544    1.000
    O58      O        0.86121    0.74239    0.51674    1.000
    O59      O        0.96551    0.71790    0.91906    1.000
    O60      O        0.92403    0.76102    0.93668    1.000
    C309     C        0.27918    0.96032    0.24897    1.000
    H183     H        0.29993    0.97237    0.20577    1.000
    C310     C        0.30277    0.97891    0.31627    1.000
    H184     H        0.33903    0.00327    0.31917    1.000
    C311     C        0.27298    0.96172    0.37887    1.000
    H185     H        0.28853    0.97417    0.42577    1.000
    C312     C        0.22009    0.92613    0.37337    1.000
    H186     H        0.19873    0.91347    0.41597    1.000
    C313     C        0.19942    0.90960    0.30377    1.000
    C314     C        0.14424    0.87493    0.28815    1.000
    C315     C        0.07389    0.83186    0.22407    1.000
    C316     C        0.05882    0.82762    0.29719    1.000
    C317     C        0.00851    0.80164    0.33557    1.000
    C318     C        0.00319    0.82042    0.40417    1.000
    H187     H        0.03213    0.85017    0.42507    1.000
    C319     C        0.95672    0.79622    0.44137    1.000
    H188     H        0.95413    0.80937    0.48797    1.000
    C320     C        0.91332    0.75284    0.41229    1.000
    C321     C        0.91811    0.73434    0.34337    1.000
    H189     H        0.88863    0.70527    0.32187    1.000
    C322     C        0.96498    0.75772    0.30637    1.000
    H190     H        0.96783    0.74387    0.26057    1.000
    C323     C        0.86361    0.72552    0.45516    1.000
    C324     C        0.04310    0.81175    0.15594    1.000
    C325     C        0.06223    0.79303    0.10107    1.000
    H191     H        0.09413    0.79327    0.10827    1.000
    C326     C        0.03485    0.77399    0.03587    1.000
    H192     H        0.04823    0.76137    0.99867    1.000
    C327     C        0.98863    0.77324    0.02447    1.000
    C328     C        0.96963    0.79317    0.07817    1.000
    H193     H        0.93823    0.79377    0.06977    1.000
    C329     C        0.99656    0.81210    0.14387    1.000
    H194     H        0.98343    0.82537    0.18057    1.000
    C330     C        0.95803    0.74945    0.95547    1.000
    H195     H        0.10863    0.85667    0.38967    1.000
    Zn16     Zn       0.77129    0.62572    0.47830    1.000
    N46      N        0.74079    0.63578    0.57541    1.000
    N47      N        0.80512    0.59880    0.55341    1.000
    N48      N        0.81120    0.58255    0.66975    1.000
    O61      O        0.98219    0.47532    0.75877    1.000
    O62      O        0.92428    0.45216    0.85007    1.000
    O63      O        0.94877    0.58095    0.25239    1.000
    O64      O        0.90565    0.49635    0.27001    1.000
    C331     C        0.70635    0.65220    0.58230    1.000
    H196     H        0.69430    0.66090    0.53910    1.000
    C332     C        0.68776    0.65720    0.64960    1.000
    H197     H        0.66340    0.66910    0.65250    1.000
    C333     C        0.70495    0.64460    0.71220    1.000
    H198     H        0.69250    0.64770    0.75910    1.000
    C334     C        0.74054    0.62730    0.70670    1.000
    H199     H        0.75320    0.61860    0.74930    1.000
    C335     C        0.75707    0.62316    0.63710    1.000
    C336     C        0.79174    0.60265    0.62148    1.000
    C337     C        0.83481    0.57537    0.55740    1.000
    C338     C        0.83905    0.56454    0.63052    1.000
    C339     C        0.86503    0.54021    0.66890    1.000
    C340     C        0.84625    0.51611    0.73750    1.000
    H200     H        0.81650    0.51530    0.75840    1.000
    C341     C        0.87045    0.49384    0.77470    1.000
    H201     H        0.85730    0.47810    0.82130    1.000
    C342     C        0.91383    0.49382    0.74562    1.000
    C343     C        0.93233    0.51711    0.67670    1.000
    H202     H        0.96140    0.51670    0.65520    1.000
    C344     C        0.90895    0.54060    0.63970    1.000
    H203     H        0.92280    0.55730    0.59390    1.000
    C345     C        0.94115    0.47143    0.78849    1.000
    C346     C        0.85492    0.56469    0.48927    1.000
    C347     C        0.87364    0.60254    0.43440    1.000
    H204     H        0.87340    0.63420    0.44160    1.000
    C348     C        0.89268    0.59420    0.36920    1.000
    H205     H        0.90530    0.62020    0.33200    1.000
    C349     C        0.89343    0.54873    0.35780    1.000
    C350     C        0.87350    0.50980    0.41150    1.000
    H206     H        0.87290    0.47780    0.40310    1.000
    C351     C        0.85457    0.51780    0.47720    1.000
    H207     H        0.84130    0.49140    0.51390    1.000
    C352     C        0.91722    0.54192    0.28880    1.000
    H208     H        0.81000    0.58530    0.72300    1.000
    Zn17     Zn       0.43796    0.95905    0.81163    1.000
    N49      N        0.40746    0.96911    0.90874    1.000
    N50      N        0.47179    0.93213    0.88674    1.000
    N51      N        0.47787    0.91588    0.00308    1.000
    O65      O        0.64886    0.80865    0.09210    1.000
    O66      O        0.59095    0.78549    0.18340    1.000
    O67      O        0.61544    0.91428    0.58572    1.000
    O68      O        0.57232    0.82968    0.60334    1.000
    C353     C        0.37302    0.98553    0.91563    1.000
    H209     H        0.36097    0.99423    0.87243    1.000
    C354     C        0.35443    0.99053    0.98293    1.000
    H210     H        0.33007    0.00243    0.98583    1.000
    C355     C        0.37162    0.97793    0.04553    1.000
    H211     H        0.35917    0.98103    0.09243    1.000
    C356     C        0.40721    0.96063    0.04003    1.000
    H212     H        0.41987    0.95193    0.08263    1.000
    C357     C        0.42374    0.95649    0.97043    1.000
    C358     C        0.45841    0.93598    0.95481    1.000
    C359     C        0.50148    0.90870    0.89073    1.000
    C360     C        0.50572    0.89787    0.96385    1.000
    C361     C        0.53170    0.87354    0.00223    1.000
    C362     C        0.51292    0.84944    0.07083    1.000
    H213     H        0.48317    0.84863    0.09173    1.000
    C363     C        0.53712    0.82717    0.10803    1.000
    H214     H        0.52397    0.81143    0.15463    1.000
    C364     C        0.58050    0.82715    0.07895    1.000
    C365     C        0.59900    0.85044    0.01003    1.000
    H215     H        0.62807    0.85003    0.98853    1.000
    C366     C        0.57562    0.87393    0.97303    1.000
    H216     H        0.58947    0.89063    0.92723    1.000
    C367     C        0.60782    0.80476    0.12182    1.000
    C368     C        0.52159    0.89802    0.82260    1.000
    C369     C        0.54031    0.93587    0.76773    1.000
    H217     H        0.54007    0.96753    0.77493    1.000
    C370     C        0.55935    0.92753    0.70253    1.000
    H218     H        0.57197    0.95353    0.66533    1.000
    C371     C        0.56010    0.88206    0.69113    1.000
    C372     C        0.54017    0.84313    0.74483    1.000
    H219     H        0.53957    0.81113    0.73643    1.000
    C373     C        0.52124    0.85113    0.81053    1.000
    H220     H        0.50797    0.82473    0.84723    1.000
    C374     C        0.58389    0.87525    0.62213    1.000
    H221     H        0.47667    0.91863    0.05633    1.000
    Zn18     Zn       0.10462    0.29239    0.14497    1.000
    N52      N        0.07412    0.30245    0.24208    1.000
    N53      N        0.13845    0.26547    0.22008    1.000
    N54      N        0.14453    0.24922    0.33642    1.000
    O69      O        0.31552    0.14199    0.42544    1.000
    O70      O        0.25761    0.11883    0.51674    1.000
    O71      O        0.28210    0.24762    0.91906    1.000
    O72      O        0.23898    0.16302    0.93668    1.000
    C375     C        0.03968    0.31887    0.24897    1.000
    H222     H        0.02763    0.32757    0.20577    1.000
    C376     C        0.02109    0.32387    0.31627    1.000
    H223     H        0.99673    0.33577    0.31917    1.000
    C377     C        0.03828    0.31127    0.37887    1.000
    H224     H        0.02583    0.31437    0.42577    1.000
    C378     C        0.07387    0.29397    0.37337    1.000
    H225     H        0.08653    0.28527    0.41597    1.000
    C379     C        0.09040    0.28983    0.30377    1.000
    C380     C        0.12507    0.26932    0.28815    1.000
    C381     C        0.16814    0.24204    0.22407    1.000
    C382     C        0.17238    0.23121    0.29719    1.000
    C383     C        0.19836    0.20688    0.33557    1.000
    C384     C        0.17958    0.18278    0.40417    1.000
    H226     H        0.14983    0.18197    0.42507    1.000
    C385     C        0.20378    0.16051    0.44137    1.000
    H227     H        0.19063    0.14477    0.48797    1.000
    C386     C        0.24716    0.16049    0.41229    1.000
    C387     C        0.26566    0.18378    0.34337    1.000
    H228     H        0.29473    0.18337    0.32187    1.000
    C388     C        0.24228    0.20727    0.30637    1.000
    H229     H        0.25613    0.22397    0.26057    1.000
    C389     C        0.27448    0.13810    0.45516    1.000
    C390     C        0.18825    0.23136    0.15594    1.000
    C391     C        0.20697    0.26921    0.10107    1.000
    H230     H        0.20673    0.30087    0.10827    1.000
    C392     C        0.22601    0.26087    0.03587    1.000
    H231     H        0.23863    0.28687    0.99867    1.000
    C393     C        0.22676    0.21540    0.02447    1.000
    C394     C        0.20683    0.17647    0.07817    1.000
    H232     H        0.20623    0.14447    0.06977    1.000
    C395     C        0.18790    0.18447    0.14387    1.000
    H233     H        0.17463    0.15807    0.18057    1.000
    C396     C        0.25055    0.20859    0.95547    1.000
    H234     H        0.14333    0.25197    0.38967    1.000
