data_functionalizedCrystal
_audit_creation_method	'EQeq! by Chris Wilmer'
_symmetry_space_group_name_H-M	'P1'
_symmetry_Int_Tables_number	1
_symmetry_cell_setting	triclinic
loop_
_symmetry_equiv_pos_as_xyz
  x,y,z
_cell_length_a	9.6602
_cell_length_b	9.6602
_cell_length_c	15.625
_cell_angle_alpha	92.9053
_cell_angle_beta	92.9053
_cell_angle_gamma	99.1062
loop_
_atom_site_label
_atom_site_type_symbol
_atom_site_fract_x
_atom_site_fract_y
_atom_site_fract_z
_atom_site_charge
Mof_Nd	Nd	0.01135	0.98865	0.75	1.938
Mof_Nd	Nd	0.98865	0.01135	0.25	1.938
Mof_P 	P 	0.35531	0.04489	0.64424	0.405
Mof_P 	P 	0.65005	0.97491	0.65262	0.428
Mof_P 	P 	0.95511	0.64469	0.85576	0.405
Mof_P 	P 	0.02509	0.34995	0.84738	0.428
Mof_P 	P 	0.64469	0.95511	0.35576	0.404
Mof_P 	P 	0.34995	0.02509	0.34738	0.427
Mof_P 	P 	0.04489	0.35531	0.14424	0.405
Mof_P 	P 	0.97491	0.65005	0.15262	0.428
Mof_H 	H 	0.4786	0.1546	0.8163	0.135
Mof_H 	H 	0.6377	0.1285	0.8121	0.128
Mof_H 	H 	0.5754	0.2266	0.7455	0.126
Mof_H 	H 	0.419	0.825	0.732	0.181
Mof_H 	H 	0.8454	0.5214	0.6837	0.134
Mof_H 	H 	0.8715	0.3623	0.6879	0.127
Mof_H 	H 	0.7734	0.4246	0.7545	0.126
Mof_H 	H 	0.175	0.581	0.768	0.18
Mof_H 	H 	0.5214	0.8454	0.1837	0.135
Mof_H 	H 	0.3623	0.8715	0.1879	0.128
Mof_H 	H 	0.4246	0.7734	0.2545	0.126
Mof_H 	H 	0.581	0.175	0.268	0.181
Mof_H 	H 	0.1546	0.4786	0.3163	0.134
Mof_H 	H 	0.1285	0.6377	0.3121	0.127
Mof_H 	H 	0.2266	0.5754	0.2455	0.126
Mof_H 	H 	0.825	0.419	0.232	0.18
Mof_Ru	Ru	0.54603	0.12039	0.50221	0.857
Mof_Ru	Ru	0.87961	0.45397	0.99779	0.858
Mof_Ru	Ru	0.45397	0.87961	0.49779	0.857
Mof_Ru	Ru	0.12039	0.54603	0.00221	0.858
Mof_C 	C 	0.5058	0.0154	0.7162	0.04
Mof_C 	C 	0.5536	0.1426	0.778	-0.362
Mof_C 	C 	0.9846	0.4942	0.7838	0.038
Mof_C 	C 	0.8574	0.4464	0.722	-0.361
Mof_C 	C 	0.4942	0.9846	0.2838	0.04
Mof_C 	C 	0.4464	0.8574	0.222	-0.362
Mof_C 	C 	0.0154	0.5058	0.2162	0.038
Mof_C 	C 	0.1426	0.5536	0.278	-0.361
Mof_O 	O 	0.4097	0.1685	0.58889	-0.381
Mof_O 	O 	0.3106	0.91	0.58562	-0.419
Mof_O 	O 	0.2354	0.0776	0.69856	-0.468
Mof_O 	O 	0.6908	0.1018	0.59825	-0.42
Mof_O 	O 	0.59252	0.84388	0.59238	-0.39
Mof_O 	O 	0.76883	0.95137	0.71214	-0.485
Mof_O 	O 	0.4501	0.8987	0.766	-0.341
Mof_O 	O 	0.8315	0.5903	0.91111	-0.382
Mof_O 	O 	0.09	0.6894	0.91438	-0.421
Mof_O 	O 	0.9224	0.7646	0.80144	-0.469
Mof_O 	O 	0.8982	0.3092	0.90175	-0.42
Mof_O 	O 	0.15612	0.40748	0.90762	-0.39
Mof_O 	O 	0.04863	0.23117	0.78786	-0.485
Mof_O 	O 	0.1013	0.5499	0.734	-0.339
Mof_O 	O 	0.5903	0.8315	0.41111	-0.381
Mof_O 	O 	0.6894	0.09	0.41438	-0.419
Mof_O 	O 	0.7646	0.9224	0.30144	-0.468
Mof_O 	O 	0.3092	0.8982	0.40175	-0.42
Mof_O 	O 	0.40748	0.15612	0.40762	-0.39
Mof_O 	O 	0.23117	0.04863	0.28786	-0.485
Mof_O 	O 	0.5499	0.1013	0.234	-0.341
Mof_O 	O 	0.1685	0.4097	0.08889	-0.382
Mof_O 	O 	0.91	0.3106	0.08562	-0.421
Mof_O 	O 	0.0776	0.2354	0.19856	-0.469
Mof_O 	O 	0.1018	0.6908	0.09825	-0.42
Mof_O 	O 	0.84388	0.59252	0.09238	-0.39
Mof_O 	O 	0.95137	0.76883	0.21214	-0.485
Mof_O 	O 	0.8987	0.4501	0.266	-0.339
_end
