data_functionalizedCrystal
_audit_creation_method	'EQeq! by Chris Wilmer'
_symmetry_space_group_name_H-M	'P1'
_symmetry_Int_Tables_number	1
_symmetry_cell_setting	triclinic
loop_
_symmetry_equiv_pos_as_xyz
  x,y,z
_cell_length_a	14.7141
_cell_length_b	15.3016
_cell_length_c	15.8557
_cell_angle_alpha	67.095
_cell_angle_beta	66.061
_cell_angle_gamma	70.802
loop_
_atom_site_label
_atom_site_type_symbol
_atom_site_fract_x
_atom_site_fract_y
_atom_site_fract_z
_atom_site_charge
Mof_Co	Co	0.25454	0.93032	0.98084	1.181
Mof_O 	O 	0.18356	0.84139	0.10991	-0.427
Mof_O 	O 	0.04059	0.86127	0.07908	-0.428
Mof_O 	O 	0.29624	0.03958	0.8357	-0.398
Mof_O 	O 	0.15207	0.99056	0.9002	-0.456
Mof_O 	O 	0.20005	0.04014	0.04226	-0.454
Mof_O 	O 	0.0305	0.0593	0.08087	-0.446
Mof_O 	O 	0.63917	0.80173	0.19011	-0.464
Mof_H 	H 	0.6557	0.8521	0.1837	0.282
Mof_C 	C 	0.10502	0.81437	0.12222	0.361
Mof_N 	N 	0.68943	0.19397	0.07381	-0.185
Mof_N 	N 	0.38711	0.9007	0.01609	-0.212
Mof_C 	C 	0.1785	0.10905	0.74507	-0.1
Mof_C 	C 	0.20998	0.04507	0.83146	0.287
Mof_C 	C 	0.09331	0.11518	0.16191	-0.118
Mof_C 	C 	0.22343	0.18754	0.68104	0.014
Mof_H 	H 	0.274	0.2026	0.6929	0.034
Mof_C 	C 	0.1223	0.22103	0.57942	0.027
Mof_C 	C 	0.07681	0.21145	0.28784	0.043
Mof_C 	C 	0.16131	0.08188	0.21409	0.029
Mof_H 	H 	0.2142	0.0269	0.2061	0.011
Mof_C 	C 	0.10848	0.06749	0.08902	0.369
Mof_C 	C 	0.1037	0.08745	0.72776	0.011
Mof_H 	H 	0.0714	0.0352	0.7723	0.02
Mof_C 	C 	0.01454	0.19443	0.17582	-0.008
Mof_H 	H 	0.9657	0.2153	0.1435	0.055
Mof_C 	C 	0.07519	0.26748	0.3467	0.015
Mof_C 	C 	0.15204	0.12867	0.27748	-0.115
Mof_H 	H 	0.1973	0.1041	0.3142	0.058
Mof_C 	C 	0.07668	0.14268	0.64519	-0.091
Mof_H 	H 	0.0266	0.1271	0.6331	0.048
Mof_C 	C 	0.56295	0.83692	0.06889	-0.097
Mof_C 	C 	0.08901	0.71679	0.1922	-0.107
Mof_C 	C 	0.09202	0.22137	0.43593	-0.096
Mof_H 	H 	0.0987	0.1531	0.4623	0.053
Mof_C 	C 	0.00739	0.24306	0.23711	-0.144
Mof_H 	H 	0.9548	0.2984	0.2446	0.078
Mof_C 	C 	0.56767	0.8793	0.97246	-0.021
Mof_H 	H 	0.6309	0.8871	0.9231	0.042
Mof_C 	C 	0.4679	0.83255	0.13863	-0.029
Mof_H 	H 	0.4616	0.8082	0.2053	0.052
Mof_C 	C 	0.09922	0.27427	0.48714	0.029
Mof_C 	C 	0.07208	0.42226	0.35874	0.018
Mof_C 	C 	0.38266	0.86409	0.10985	0.022
Mof_H 	H 	0.3182	0.8599	0.1581	0.028
Mof_C 	C 	0.08895	0.37493	0.44799	-0.098
Mof_H 	H 	0.0935	0.4114	0.4823	0.056
Mof_C 	C 	0.47856	0.90999	0.94962	0.035
Mof_H 	H 	0.4824	0.9391	0.8836	0.021
Mof_C 	C 	0.06472	0.36789	0.30917	-0.094
Mof_H 	H 	0.0524	0.3999	0.249	0.04
Mof_C 	C 	0.69879	0.68596	0.10066	-0.871
Mof_C 	C 	0.01546	0.67592	0.19567	-0.002
Mof_H 	H 	0.9707	0.7126	0.1589	0.055
Mof_C 	C 	0.65885	0.79414	0.09798	0.4
Mof_H 	H 	0.7125	0.8315	0.0498	-0.086
Mof_C 	C 	0.07073	0.52735	0.3098	0.042
Mof_C 	C 	0.1497	0.66481	0.25105	0.027
Mof_H 	H 	0.1986	0.6933	0.2504	0.027
Mof_C 	C 	0.6224	0.36237	0.1315	-0.289
Mof_C 	C 	0.00754	0.58186	0.25262	-0.137
Mof_H 	H 	0.9586	0.5538	0.253	0.075
Mof_C 	C 	0.19413	0.24402	0.59939	-0.091
Mof_H 	H 	0.2234	0.2987	0.557	0.055
Mof_C 	C 	0.6471	0.27874	0.0217	-0.08
Mof_H 	H 	0.6395	0.2805	0.9643	0.054
Mof_C 	C 	0.1394	0.57135	0.31092	-0.106
Mof_H 	H 	0.1794	0.5374	0.3527	0.059
Mof_C 	C 	0.6138	0.36366	0.047	0.105
Mof_H 	H 	0.5855	0.4221	0.007	-0.024
Mof_C 	C 	0.66521	0.51309	0.13119	-0.987
Mof_C 	C 	0.6974	0.19347	0.1558	-0.041
Mof_H 	H 	0.7268	0.1344	0.1941	0.035
Mof_C 	C 	0.6648	0.2751	0.1867	0.091
Mof_H 	H 	0.6714	0.2713	0.2453	-0.01
Mof_C 	C 	0.5838	0.45253	0.1651	0.879
Mof_H 	H 	0.5634	0.429	0.2373	-0.532
Mof_O 	O 	0.4948	0.5115	0.142	0.561
Mof_H 	H 	0.4452	0.4846	0.1783	-0.128
Mof_B 	B 	0.6335	0.59989	0.1885	0.748
Mof_H 	H 	0.56	0.6154	0.2459	-0.253
Mof_B 	B 	0.7602	0.6615	0.9916	0.232
Mof_H 	H 	0.7702	0.7184	0.9197	-0.104
Mof_B 	B 	0.6407	0.63101	0.0656	0.722
Mof_H 	H 	0.5713	0.6666	0.0426	-0.252
Mof_B 	B 	0.7496	0.60795	0.1909	0.157
Mof_H 	H 	0.7531	0.629	0.2495	-0.077
Mof_B 	B 	0.7267	0.4935	0.2107	0.177
Mof_H 	H 	0.7144	0.4374	0.2831	-0.101
Mof_B 	B 	0.8477	0.5223	0.137	-0.389
Mof_H 	H 	0.9165	0.4856	0.1609	0.053
Mof_B 	B 	0.8285	0.6459	0.0691	0.892
Mof_H 	H 	0.8841	0.6921	0.048	-0.289
Mof_B 	B 	0.7383	0.5466	0.0117	0.136
Mof_H 	H 	0.7338	0.5256	0.9534	-0.075
Mof_B 	B 	0.7926	0.4613	0.1012	0.959
Mof_H 	H 	0.8243	0.3838	0.1016	-0.315
Mof_B 	B 	0.8551	0.5561	0.0131	-0.443
Mof_H 	H 	0.9284	0.5424	0.9549	0.076
Mof_H 	H 	0.528	0.4949	0.1379	-0.718
Mof_O 	O 	0.5463	0.4313	0.2579	0.286
Mof_H 	H 	0.4899	0.4161	0.2762	-0.001
Mof_Co	Co	0.74546	0.06968	0.01916	1.145
Mof_O 	O 	0.81644	0.15861	0.89009	-0.432
Mof_O 	O 	0.95941	0.13873	0.92092	-0.407
Mof_O 	O 	0.70376	0.96042	0.1643	-0.389
Mof_O 	O 	0.84793	0.00944	0.0998	-0.548
Mof_O 	O 	0.79995	0.95986	0.95774	-0.401
Mof_O 	O 	0.9695	0.9407	0.91913	-0.377
Mof_O 	O 	0.36083	0.19827	0.80989	-0.458
Mof_H 	H 	0.3443	0.1479	0.8163	0.272
Mof_C 	C 	0.89498	0.18563	0.87778	0.373
Mof_N 	N 	0.31057	0.80603	0.92619	-0.188
Mof_N 	N 	0.61289	0.0993	0.98391	-0.21
Mof_C 	C 	0.8215	0.89095	0.25493	-0.115
Mof_C 	C 	0.79002	0.95493	0.16854	0.388
Mof_C 	C 	0.90669	0.88482	0.83809	-0.107
Mof_C 	C 	0.77657	0.81246	0.31896	0.035
Mof_H 	H 	0.726	0.7974	0.3071	0.032
Mof_C 	C 	0.8777	0.77897	0.42058	0.037
Mof_C 	C 	0.92319	0.78855	0.71216	0.016
Mof_C 	C 	0.83869	0.91812	0.78591	0.028
Mof_H 	H 	0.7858	0.9731	0.7939	0.039
Mof_C 	C 	0.89152	0.93251	0.91098	0.373
Mof_C 	C 	0.8963	0.91255	0.27224	0.036
Mof_H 	H 	0.9286	0.9648	0.2277	0.06
Mof_C 	C 	0.98546	0.80557	0.82418	0.053
Mof_H 	H 	0.0343	0.7847	0.8565	0.003
Mof_C 	C 	0.92481	0.73252	0.6533	0.054
Mof_C 	C 	0.84796	0.87133	0.72252	-0.087
Mof_H 	H 	0.8027	0.8959	0.6858	0.065
Mof_C 	C 	0.92332	0.85732	0.35481	-0.085
Mof_H 	H 	0.9734	0.8729	0.3669	0.076
Mof_C 	C 	0.43705	0.16308	0.93111	-0.056
Mof_C 	C 	0.91099	0.28321	0.8078	-0.116
Mof_C 	C 	0.90798	0.77863	0.56407	-0.112
Mof_H 	H 	0.9013	0.8469	0.5377	0.077
Mof_C 	C 	0.99261	0.75694	0.76289	-0.057
Mof_H 	H 	0.0452	0.7016	0.7554	0.014
Mof_C 	C 	0.43233	0.1207	0.02754	-0.076
Mof_H 	H 	0.3691	0.1129	0.0769	0.046
Mof_C 	C 	0.5321	0.16745	0.86137	-0.058
Mof_H 	H 	0.5384	0.1918	0.7947	0.053
Mof_C 	C 	0.90078	0.72573	0.51286	0.051
Mof_C 	C 	0.92792	0.57774	0.64126	0.052
Mof_C 	C 	0.61734	0.13591	0.89015	0.024
Mof_H 	H 	0.6818	0.1401	0.8419	0.015
Mof_C 	C 	0.91105	0.62507	0.55201	-0.112
Mof_H 	H 	0.9065	0.5886	0.5177	0.073
Mof_C 	C 	0.52144	0.09001	0.05038	0.015
Mof_H 	H 	0.5176	0.0609	0.1164	0.002
Mof_C 	C 	0.93528	0.63211	0.69083	-0.113
Mof_H 	H 	0.9476	0.6001	0.751	0.061
Mof_C 	C 	0.30121	0.31404	0.89934	-0.802
Mof_C 	C 	0.98454	0.32408	0.80433	0.067
Mof_H 	H 	0.0293	0.2874	0.8411	-0.001
Mof_C 	C 	0.34115	0.20586	0.90202	0.361
Mof_H 	H 	0.2875	0.1685	0.9502	-0.068
Mof_C 	C 	0.92927	0.47265	0.6902	0.018
Mof_C 	C 	0.8503	0.33519	0.74895	0.033
Mof_H 	H 	0.8014	0.3067	0.7496	0.027
Mof_C 	C 	0.3776	0.63763	0.8685	-0.275
Mof_C 	C 	0.99246	0.41814	0.74738	-0.058
Mof_H 	H 	0.0414	0.4462	0.747	0.012
Mof_C 	C 	0.80587	0.75598	0.40061	-0.091
Mof_H 	H 	0.7766	0.7013	0.443	0.061
Mof_C 	C 	0.3529	0.72126	0.9783	-0.017
Mof_H 	H 	0.3605	0.7195	0.0357	0.015
Mof_C 	C 	0.8606	0.42865	0.68908	-0.091
Mof_H 	H 	0.8206	0.4626	0.6473	0.058
Mof_C 	C 	0.3862	0.63634	0.953	0.075
Mof_H 	H 	0.4145	0.5779	0.993	-0.003
Mof_C 	C 	0.33479	0.48691	0.86881	-1.023
Mof_C 	C 	0.3026	0.80653	0.8442	-0.035
Mof_H 	H 	0.2732	0.8656	0.8059	0.05
Mof_C 	C 	0.3352	0.7249	0.8133	0.085
Mof_H 	H 	0.3286	0.7287	0.7547	-0.004
Mof_C 	C 	0.4162	0.54747	0.8349	0.884
Mof_H 	H 	0.4366	0.571	0.7627	-0.531
Mof_O 	O 	0.5052	0.4885	0.858	0.552
Mof_H 	H 	0.5548	0.5154	0.8217	-0.122
Mof_B 	B 	0.3665	0.40011	0.8115	0.641
Mof_H 	H 	0.44	0.3846	0.7541	-0.223
Mof_B 	B 	0.2398	0.3385	0.0084	-0.067
Mof_H 	H 	0.2298	0.2816	0.0803	-0.025
Mof_B 	B 	0.3593	0.36899	0.9344	0.838
Mof_H 	H 	0.4287	0.3334	0.9574	-0.276
Mof_B 	B 	0.2504	0.39205	0.8091	0.114
Mof_H 	H 	0.2469	0.371	0.7505	-0.068
Mof_B 	B 	0.2733	0.5065	0.7893	0.343
Mof_H 	H 	0.2856	0.5626	0.7169	-0.147
Mof_B 	B 	0.1523	0.4777	0.863	-0.494
Mof_H 	H 	0.0835	0.5144	0.8391	0.069
Mof_B 	B 	0.1715	0.3541	0.9309	0.981
Mof_H 	H 	0.1159	0.3079	0.952	-0.314
Mof_B 	B 	0.2617	0.4534	0.9883	0.264
Mof_H 	H 	0.2662	0.4744	0.0466	-0.129
Mof_B 	B 	0.2074	0.5387	0.8988	0.828
Mof_H 	H 	0.1757	0.6162	0.8984	-0.279
Mof_B 	B 	0.1449	0.4439	0.9869	-0.261
Mof_H 	H 	0.0716	0.4576	0.0451	-0.005
Mof_H 	H 	0.472	0.5051	0.8621	-0.711
Mof_O 	O 	0.4537	0.5687	0.7421	0.283
Mof_H 	H 	0.5101	0.5839	0.7238	0.002
Mof_Co	Co	-0	0	-0	1.162
_end
