# CIF file generated by openbabel 3.1.0, see https://openbabel.org
data_I
_chemical_name_common 'image0'
_cell_length_a 10.195
_cell_length_b 21.342
_cell_length_c 18.533
_cell_angle_alpha 90
_cell_angle_beta 102.96
_cell_angle_gamma 90
_space_group_name_H-M_alt 'P 1'
_space_group_name_Hall 'P 1'
loop_
    _symmetry_equiv_pos_as_xyz
    x,y,z
loop_
    _atom_site_label
    _atom_site_type_symbol
    _atom_site_fract_x
    _atom_site_fract_y
    _atom_site_fract_z
    _atom_site_occupancy
    Zn1      Zn       0.34843    0.65082    0.78606    1.000
    O1       O        0.35680    0.52900    0.88370    1.000
    O2       O        0.23870    0.61577    0.84980    1.000
    O3       O        0.13060    0.73040    0.29480    1.000
    O4       O        0.23000    0.78911    0.22220    1.000
    O5       O        0.22750    0.55910    0.66010    1.000
    O6       O        0.42470    0.60080    0.71744    1.000
    O7       O        0.61620    0.72447    0.78150    1.000
    O8       O        0.49870    0.68466    0.85940    1.000
    C1       C        0.26350    0.56570    0.88680    1.000
    C2       C        0.10060    0.60000    0.96350    1.000
    H1       H        0.12250    0.64130    0.95560    1.000
    C3       C        0.16670    0.55020    0.93500    1.000
    C4       C        0.13480    0.48970    0.94680    1.000
    H2       H        0.18060    0.45740    0.92950    1.000
    C5       C        0.03240    0.47520    0.98550    1.000
    C6       C        0.00480    0.58710    0.00250    1.000
    H3       H        0.96320    0.62000    0.02160    1.000
    C7       C        0.13420    0.75450    0.23410    1.000
    C8       C        0.35050    0.56810    0.66670    1.000
    C9       C        0.36370    0.53760    0.53860    1.000
    H4       H        0.27690    0.55310    0.52200    1.000
    C10      C        0.42280    0.53900    0.61270    1.000
    C11      C        0.55320    0.51470    0.63880    1.000
    H5       H        0.59260    0.51620    0.68920    1.000
    C12      C        0.62320    0.48850    0.59050    1.000
    H6       H        0.70820    0.47140    0.60830    1.000
    C13      C        0.43490    0.51220    0.48600    1.000
    C14      C        0.60240    0.70970    0.84420    1.000
    C15      C        0.71690    0.72190    0.91070    1.000
    C16      C        0.70580    0.70280    0.97990    1.000
    H7       H        0.62890    0.68160    0.98540    1.000
    C17      C        0.81120    0.71500    0.04370    1.000
    C18      C        0.80370    0.69560    0.11540    1.000
    H8       H        0.72790    0.67400    0.12180    1.000
    C19      C        0.90520    0.70770    0.17560    1.000
    H9       H        0.89830    0.69430    0.22240    1.000
    C20      C        0.02160    0.74090    0.16670    1.000
    C21      C        0.03120    0.76030    0.09830    1.000
    H10      H        0.10730    0.78230    0.09310    1.000
    C22      C        0.92710    0.74780    0.03390    1.000
    C23      C        0.93620    0.76740    0.96180    1.000
    H11      H        0.01190    0.78900    0.95530    1.000
    C24      C        0.83370    0.75440    0.90210    1.000
    H12      H        0.84080    0.76710    0.85510    1.000
    Zn2      Zn       0.65157    0.15082    0.71394    1.000
    O9       O        0.64320    0.02900    0.61630    1.000
    O10      O        0.76130    0.11577    0.65020    1.000
    O11      O        0.86940    0.23040    0.20520    1.000
    O12      O        0.77000    0.28911    0.27780    1.000
    O13      O        0.77250    0.05910    0.83990    1.000
    O14      O        0.57530    0.10080    0.78256    1.000
    O15      O        0.38380    0.22447    0.71850    1.000
    O16      O        0.50130    0.18466    0.64060    1.000
    C25      C        0.73650    0.06570    0.61320    1.000
    C26      C        0.89940    0.10000    0.53650    1.000
    H13      H        0.87750    0.14130    0.54440    1.000
    C27      C        0.83330    0.05020    0.56500    1.000
    C28      C        0.86520    0.98970    0.55320    1.000
    H14      H        0.81940    0.95740    0.57050    1.000
    C29      C        0.96760    0.97520    0.51450    1.000
    C30      C        0.99520    0.08710    0.49750    1.000
    H15      H        0.03680    0.12000    0.47840    1.000
    C31      C        0.86580    0.25450    0.26590    1.000
    C32      C        0.64950    0.06810    0.83330    1.000
    C33      C        0.63630    0.03760    0.96140    1.000
    H16      H        0.72310    0.05310    0.97800    1.000
    C34      C        0.57720    0.03900    0.88730    1.000
    C35      C        0.44680    0.01470    0.86120    1.000
    H17      H        0.40740    0.01620    0.81080    1.000
    C36      C        0.37680    0.98850    0.90950    1.000
    H18      H        0.29180    0.97140    0.89170    1.000
    C37      C        0.56510    0.01220    0.01400    1.000
    C38      C        0.39760    0.20970    0.65580    1.000
    C39      C        0.28310    0.22190    0.58930    1.000
    C40      C        0.29420    0.20280    0.52010    1.000
    H19      H        0.37110    0.18160    0.51460    1.000
    C41      C        0.18880    0.21500    0.45630    1.000
    C42      C        0.19630    0.19560    0.38460    1.000
    H20      H        0.27210    0.17400    0.37820    1.000
    C43      C        0.09480    0.20770    0.32440    1.000
    H21      H        0.10170    0.19430    0.27760    1.000
    C44      C        0.97840    0.24090    0.33330    1.000
    C45      C        0.96880    0.26030    0.40170    1.000
    H22      H        0.89270    0.28230    0.40690    1.000
    C46      C        0.07290    0.24780    0.46610    1.000
    C47      C        0.06380    0.26740    0.53820    1.000
    H23      H        0.98810    0.28900    0.54470    1.000
    C48      C        0.16630    0.25440    0.59790    1.000
    H24      H        0.15920    0.26710    0.64490    1.000
    Zn3      Zn       0.65157    0.34918    0.21394    1.000
    O17      O        0.64320    0.47100    0.11630    1.000
    O18      O        0.76130    0.38423    0.15020    1.000
    O19      O        0.86940    0.26960    0.70520    1.000
    O20      O        0.77000    0.21089    0.77780    1.000
    O21      O        0.77250    0.44090    0.33990    1.000
    O22      O        0.57530    0.39920    0.28256    1.000
    O23      O        0.38380    0.27553    0.21850    1.000
    O24      O        0.50130    0.31534    0.14060    1.000
    C49      C        0.73650    0.43430    0.11320    1.000
    C50      C        0.89940    0.40000    0.03650    1.000
    H25      H        0.87750    0.35870    0.04440    1.000
    C51      C        0.83330    0.44980    0.06500    1.000
    C52      C        0.86520    0.51030    0.05320    1.000
    H26      H        0.81940    0.54260    0.07050    1.000
    C53      C        0.96760    0.52480    0.01450    1.000
    C54      C        0.99520    0.41290    0.99750    1.000
    H27      H        0.03680    0.38000    0.97840    1.000
    C55      C        0.86580    0.24550    0.76590    1.000
    C56      C        0.64950    0.43190    0.33330    1.000
    C57      C        0.63630    0.46240    0.46140    1.000
    H28      H        0.72310    0.44690    0.47800    1.000
    C58      C        0.57720    0.46100    0.38730    1.000
    C59      C        0.44680    0.48530    0.36120    1.000
    H29      H        0.40740    0.48380    0.31080    1.000
    C60      C        0.37680    0.51150    0.40950    1.000
    H30      H        0.29180    0.52860    0.39170    1.000
    C61      C        0.56510    0.48780    0.51400    1.000
    C62      C        0.39760    0.29030    0.15580    1.000
    C63      C        0.28310    0.27810    0.08930    1.000
    C64      C        0.29420    0.29720    0.02010    1.000
    H31      H        0.37110    0.31840    0.01460    1.000
    C65      C        0.18880    0.28500    0.95630    1.000
    C66      C        0.19630    0.30440    0.88460    1.000
    H32      H        0.27210    0.32600    0.87820    1.000
    C67      C        0.09480    0.29230    0.82440    1.000
    H33      H        0.10170    0.30570    0.77760    1.000
    C68      C        0.97840    0.25910    0.83330    1.000
    C69      C        0.96880    0.23970    0.90170    1.000
    H34      H        0.89270    0.21770    0.90690    1.000
    C70      C        0.07290    0.25220    0.96610    1.000
    C71      C        0.06380    0.23260    0.03820    1.000
    H35      H        0.98810    0.21100    0.04470    1.000
    C72      C        0.16630    0.24560    0.09790    1.000
    H36      H        0.15920    0.23290    0.14490    1.000
    Zn4      Zn       0.34843    0.84918    0.28606    1.000
    O25      O        0.35680    0.97100    0.38370    1.000
    O26      O        0.23870    0.88423    0.34980    1.000
    O27      O        0.13060    0.76960    0.79480    1.000
    O28      O        0.23000    0.71089    0.72220    1.000
    O29      O        0.22750    0.94090    0.16010    1.000
    O30      O        0.42470    0.89920    0.21744    1.000
    O31      O        0.61620    0.77553    0.28150    1.000
    O32      O        0.49870    0.81534    0.35940    1.000
    C73      C        0.26350    0.93430    0.38680    1.000
    C74      C        0.10060    0.90000    0.46350    1.000
    H37      H        0.12250    0.85870    0.45560    1.000
    C75      C        0.16670    0.94980    0.43500    1.000
    C76      C        0.13480    0.01030    0.44680    1.000
    H38      H        0.18060    0.04260    0.42950    1.000
    C77      C        0.03240    0.02480    0.48550    1.000
    C78      C        0.00480    0.91290    0.50250    1.000
    H39      H        0.96320    0.88000    0.52160    1.000
    C79      C        0.13420    0.74550    0.73410    1.000
    C80      C        0.35050    0.93190    0.16670    1.000
    C81      C        0.36370    0.96240    0.03860    1.000
    H40      H        0.27690    0.94690    0.02200    1.000
    C82      C        0.42280    0.96100    0.11270    1.000
    C83      C        0.55320    0.98530    0.13880    1.000
    H41      H        0.59260    0.98380    0.18920    1.000
    C84      C        0.62320    0.01150    0.09050    1.000
    H42      H        0.70820    0.02860    0.10830    1.000
    C85      C        0.43490    0.98780    0.98600    1.000
    C86      C        0.60240    0.79030    0.34420    1.000
    C87      C        0.71690    0.77810    0.41070    1.000
    C88      C        0.70580    0.79720    0.47990    1.000
    H43      H        0.62890    0.81840    0.48540    1.000
    C89      C        0.81120    0.78500    0.54370    1.000
    C90      C        0.80370    0.80440    0.61540    1.000
    H44      H        0.72790    0.82600    0.62180    1.000
    C91      C        0.90520    0.79230    0.67560    1.000
    H45      H        0.89830    0.80570    0.72240    1.000
    C92      C        0.02160    0.75910    0.66670    1.000
    C93      C        0.03120    0.73970    0.59830    1.000
    H46      H        0.10730    0.71770    0.59310    1.000
    C94      C        0.92710    0.75220    0.53390    1.000
    C95      C        0.93620    0.73260    0.46180    1.000
    H47      H        0.01190    0.71100    0.45530    1.000
    C96      C        0.83370    0.74560    0.40210    1.000
    H48      H        0.84080    0.73290    0.35510    1.000
