data_functionalizedCrystal
_audit_creation_method	'EQeq! by Chris Wilmer'
_symmetry_space_group_name_H-M	'P1'
_symmetry_Int_Tables_number	1
_symmetry_cell_setting	triclinic
loop_
_symmetry_equiv_pos_as_xyz
  x,y,z
_cell_length_a	25.6965
_cell_length_b	25.6965
_cell_length_c	25.6965
_cell_angle_alpha	77.2739
_cell_angle_beta	77.2739
_cell_angle_gamma	77.2739
loop_
_atom_site_label
_atom_site_type_symbol
_atom_site_fract_x
_atom_site_fract_y
_atom_site_fract_z
_atom_site_charge
Mof_Mn	Mn	0.05969	0.48379	0.29188	0.772
Mof_Mn	Mn	0.20727	0.76957	0.98851	0.743
Mof_Mn	Mn	0.17358	0.50263	0.99151	0.736
Mof_Mn	Mn	0.25532	0.51383	0.6913	0.743
Mof_Mn	Mn	0.29188	0.05969	0.48379	0.772
Mof_Mn	Mn	0.98851	0.20727	0.76957	0.743
Mof_Mn	Mn	0.99151	0.17358	0.50263	0.736
Mof_Mn	Mn	0.6913	0.25532	0.51383	0.743
Mof_Mn	Mn	0.48379	0.29188	0.05969	0.772
Mof_Mn	Mn	0.76957	0.98851	0.20727	0.743
Mof_Mn	Mn	0.50263	0.99151	0.17358	0.736
Mof_Mn	Mn	0.51383	0.6913	0.25532	0.743
Mof_Mn	Mn	0.94031	0.51621	0.70812	0.772
Mof_Mn	Mn	0.79273	0.23043	0.01149	0.743
Mof_Mn	Mn	0.82642	0.49737	0.00849	0.736
Mof_Mn	Mn	0.74468	0.48617	0.3087	0.743
Mof_Mn	Mn	0.70812	0.94031	0.51621	0.772
Mof_Mn	Mn	0.01149	0.79273	0.23043	0.743
Mof_Mn	Mn	0.00849	0.82642	0.49737	0.736
Mof_Mn	Mn	0.3087	0.74468	0.48617	0.743
Mof_Mn	Mn	0.51621	0.70812	0.94031	0.772
Mof_Mn	Mn	0.23043	0.01149	0.79273	0.743
Mof_Mn	Mn	0.49737	0.00849	0.82642	0.736
Mof_Mn	Mn	0.48617	0.3087	0.74468	0.743
Mof_Mo	Mo	0.07987	0.64059	0.11727	0.988
Mof_Mo	Mo	0.35756	0.45161	0.85351	1.004
Mof_Mo	Mo	0.11727	0.07987	0.64059	0.988
Mof_Mo	Mo	0.85351	0.35756	0.45161	1.004
Mof_Mo	Mo	0.64059	0.11727	0.07987	0.988
Mof_Mo	Mo	0.45161	0.85351	0.35756	1.004
Mof_Mo	Mo	0.92013	0.35941	0.88273	0.988
Mof_Mo	Mo	0.64244	0.54839	0.14649	1.004
Mof_Mo	Mo	0.88273	0.92013	0.35941	0.988
Mof_Mo	Mo	0.14649	0.64244	0.54839	1.004
Mof_Mo	Mo	0.35941	0.88273	0.92013	0.988
Mof_Mo	Mo	0.54839	0.14649	0.64244	1.004
Mof_H 	H 	0.0473	0.4022	0.3756	0.244
Mof_H 	H 	0.1368	0.4156	0.1659	0.036
Mof_H 	H 	0.1122	0.3842	0.2222	0.039
Mof_H 	H 	0.0552	0.4748	0.161	0.049
Mof_H 	H 	0.0448	0.4151	0.1711	0.039
Mof_H 	H 	0.9457	0.4725	0.2167	0.043
Mof_H 	H 	0.9735	0.5215	0.2152	0.045
Mof_H 	H 	0.9053	0.5236	0.2813	0.032
Mof_H 	H 	0.9209	0.4615	0.3038	0.044
Mof_H 	H 	0.8838	0.5214	0.4223	0.265
Mof_H 	H 	0.8802	0.578	0.3834	0.257
Mof_H 	H 	0.8706	0.5276	0.3642	0.271
Mof_H 	H 	0.9449	0.565	0.4556	0.033
Mof_H 	H 	0.0181	0.578	0.4912	0.042
Mof_H 	H 	0.1076	0.5495	0.4497	0.04
Mof_H 	H 	0.2037	0.5413	0.3528	0.218
Mof_H 	H 	0.1864	0.508	0.4106	0.225
Mof_H 	H 	0.2179	0.4779	0.363	0.222
Mof_H 	H 	0.218	0.4488	0.2981	0.027
Mof_H 	H 	0.2019	0.4983	0.2527	0.04
Mof_H 	H 	0.1699	0.398	0.2743	0.045
Mof_H 	H 	0.2064	0.4221	0.2212	0.038
Mof_H 	H 	0.3437	0.6637	0.9941	0.035
Mof_H 	H 	0.3545	0.7232	0.9847	0.041
Mof_H 	H 	0.3234	0.7017	0.0757	0.051
Mof_H 	H 	0.2759	0.6774	0.0665	0.05
Mof_H 	H 	0.2115	0.7375	0.1212	0.053
Mof_H 	H 	0.2487	0.7762	0.1266	0.051
Mof_H 	H 	0.1973	0.8501	0.0732	0.042
Mof_H 	H 	0.1597	0.8267	0.1264	0.05
Mof_H 	H 	0.0843	0.8633	0.0686	0.046
Mof_H 	H 	0.1299	0.8797	0.0195	0.039
Mof_H 	H 	0.0608	0.8627	0.9835	0.024
Mof_H 	H 	0.0612	0.806	0.0221	0.039
Mof_H 	H 	0.0656	0.8464	0.8672	0.219
Mof_H 	H 	0.0573	0.7859	0.8829	0.219
Mof_H 	H 	0.034	0.825	0.9247	0.222
Mof_H 	H 	0.1346	0.7733	0.8155	0.036
Mof_H 	H 	0.2171	0.7309	0.7679	0.031
Mof_H 	H 	0.2918	0.7082	0.8059	0.037
Mof_H 	H 	0.3828	0.7117	0.8875	0.248
Mof_H 	H 	0.3661	0.655	0.8943	0.249
Mof_H 	H 	0.3581	0.6989	0.8422	0.243
Mof_H 	H 	0.3065	0.5114	0.0447	0.055
Mof_H 	H 	0.2463	0.5326	0.0708	0.053
Mof_H 	H 	0.288	0.5528	0.9594	0.041
Mof_H 	H 	0.276	0.596	0.9975	0.041
Mof_H 	H 	0.2136	0.6472	0.9319	0.061
Mof_H 	H 	0.2261	0.5963	0.9037	0.057
Mof_H 	H 	0.1397	0.64	0.89	0.028
Mof_H 	H 	0.1212	0.6466	0.9511	0.042
Mof_H 	H 	0.0569	0.6375	0.8817	0.221
Mof_H 	H 	0.0308	0.5913	0.8724	0.22
Mof_H 	H 	0.0091	0.6165	0.925	0.226
Mof_H 	H 	0.9979	0.5118	0.9176	0.051
Mof_H 	H 	0.9974	0.4212	0.9424	0.023
Mof_H 	H 	0.0589	0.3624	0.9904	0.044
Mof_H 	H 	0.1442	0.3113	0.0618	0.197
Mof_H 	H 	0.1249	0.3177	0.0066	0.197
Mof_H 	H 	0.187	0.3087	0.0081	0.201
Mof_H 	H 	0.2531	0.3695	0.0312	0.043
Mof_H 	H 	0.2134	0.36	0.087	0.029
Mof_H 	H 	0.2178	0.4402	0.1041	0.049
Mof_H 	H 	0.2778	0.4108	0.087	0.06
Mof_H 	H 	0.3213	0.4303	0.5323	0.224
Mof_H 	H 	0.323	0.3725	0.5686	0.218
Mof_H 	H 	0.2694	0.4037	0.5484	0.221
Mof_H 	H 	0.2457	0.3363	0.6323	0.038
Mof_H 	H 	0.1938	0.3015	0.7106	0.025
Mof_H 	H 	0.1658	0.3463	0.7817	0.051
Mof_H 	H 	0.1244	0.4151	0.8425	0.248
Mof_H 	H 	0.182	0.3915	0.8574	0.247
Mof_H 	H 	0.1529	0.4499	0.8668	0.251
Mof_H 	H 	0.1397	0.5409	0.8184	0.031
Mof_H 	H 	0.1975	0.5276	0.8339	0.042
Mof_H 	H 	0.1862	0.6156	0.7941	0.052
Mof_H 	H 	0.1639	0.6039	0.7465	0.051
Mof_H 	H 	0.2329	0.6517	0.6819	0.055
Mof_H 	H 	0.2699	0.6556	0.7217	0.051
Mof_H 	H 	0.3406	0.595	0.6807	0.042
Mof_H 	H 	0.3232	0.6454	0.6369	0.048
Mof_H 	H 	0.3619	0.5756	0.569	0.046
Mof_H 	H 	0.3716	0.5302	0.6197	0.041
Mof_H 	H 	0.358	0.4876	0.5547	0.022
Mof_H 	H 	0.3048	0.5298	0.5456	0.037
Mof_H 	H 	0.3756	0.0473	0.4022	0.245
Mof_H 	H 	0.1659	0.1368	0.4156	0.037
Mof_H 	H 	0.2222	0.1122	0.3842	0.04
Mof_H 	H 	0.161	0.0552	0.4748	0.05
Mof_H 	H 	0.1711	0.0448	0.4151	0.04
Mof_H 	H 	0.2167	0.9457	0.4725	0.044
Mof_H 	H 	0.2152	0.9735	0.5215	0.046
Mof_H 	H 	0.2813	0.9053	0.5236	0.033
Mof_H 	H 	0.3038	0.9209	0.4615	0.045
Mof_H 	H 	0.4223	0.8838	0.5214	0.266
Mof_H 	H 	0.3834	0.8802	0.578	0.258
Mof_H 	H 	0.3642	0.8706	0.5276	0.272
Mof_H 	H 	0.4556	0.9449	0.565	0.034
Mof_H 	H 	0.4912	0.0181	0.578	0.043
Mof_H 	H 	0.4497	0.1076	0.5495	0.041
Mof_H 	H 	0.3528	0.2037	0.5413	0.219
Mof_H 	H 	0.4106	0.1864	0.508	0.226
Mof_H 	H 	0.363	0.2179	0.4779	0.223
Mof_H 	H 	0.2981	0.218	0.4488	0.027
Mof_H 	H 	0.2527	0.2019	0.4983	0.04
Mof_H 	H 	0.2743	0.1699	0.398	0.045
Mof_H 	H 	0.2212	0.2064	0.4221	0.038
Mof_H 	H 	0.9941	0.3437	0.6637	0.035
Mof_H 	H 	0.9847	0.3545	0.7232	0.041
Mof_H 	H 	0.0757	0.3234	0.7017	0.051
Mof_H 	H 	0.0665	0.2759	0.6774	0.05
Mof_H 	H 	0.1212	0.2115	0.7375	0.053
Mof_H 	H 	0.1266	0.2487	0.7762	0.051
Mof_H 	H 	0.0732	0.1973	0.8501	0.042
Mof_H 	H 	0.1264	0.1597	0.8267	0.05
Mof_H 	H 	0.0686	0.0843	0.8633	0.046
Mof_H 	H 	0.0195	0.1299	0.8797	0.039
Mof_H 	H 	0.9835	0.0608	0.8627	0.024
Mof_H 	H 	0.0221	0.0612	0.806	0.039
Mof_H 	H 	0.8672	0.0656	0.8464	0.219
Mof_H 	H 	0.8829	0.0573	0.7859	0.219
Mof_H 	H 	0.9247	0.034	0.825	0.222
Mof_H 	H 	0.8155	0.1346	0.7733	0.036
Mof_H 	H 	0.7679	0.2171	0.7309	0.031
Mof_H 	H 	0.8059	0.2918	0.7082	0.037
Mof_H 	H 	0.8875	0.3828	0.7117	0.248
Mof_H 	H 	0.8943	0.3661	0.655	0.249
Mof_H 	H 	0.8422	0.3581	0.6989	0.243
Mof_H 	H 	0.0447	0.3065	0.5114	0.055
Mof_H 	H 	0.0708	0.2463	0.5326	0.053
Mof_H 	H 	0.9594	0.288	0.5528	0.041
Mof_H 	H 	0.9975	0.276	0.596	0.041
Mof_H 	H 	0.9319	0.2136	0.6472	0.061
Mof_H 	H 	0.9037	0.2261	0.5963	0.057
Mof_H 	H 	0.89	0.1397	0.64	0.028
Mof_H 	H 	0.9511	0.1212	0.6466	0.042
Mof_H 	H 	0.8817	0.0569	0.6375	0.221
Mof_H 	H 	0.8724	0.0308	0.5913	0.22
Mof_H 	H 	0.925	0.0091	0.6165	0.226
Mof_H 	H 	0.9176	0.9979	0.5118	0.051
Mof_H 	H 	0.9424	0.9974	0.4212	0.023
Mof_H 	H 	0.9904	0.0589	0.3624	0.044
Mof_H 	H 	0.0618	0.1442	0.3113	0.197
Mof_H 	H 	0.0066	0.1249	0.3177	0.197
Mof_H 	H 	0.0081	0.187	0.3087	0.201
Mof_H 	H 	0.0312	0.2531	0.3695	0.043
Mof_H 	H 	0.087	0.2134	0.36	0.029
Mof_H 	H 	0.1041	0.2178	0.4402	0.049
Mof_H 	H 	0.087	0.2778	0.4108	0.06
Mof_H 	H 	0.5323	0.3213	0.4303	0.224
Mof_H 	H 	0.5686	0.323	0.3725	0.218
Mof_H 	H 	0.5484	0.2694	0.4037	0.221
Mof_H 	H 	0.6323	0.2457	0.3363	0.038
Mof_H 	H 	0.7106	0.1938	0.3015	0.025
Mof_H 	H 	0.7817	0.1658	0.3463	0.051
Mof_H 	H 	0.8425	0.1244	0.4151	0.248
Mof_H 	H 	0.8574	0.182	0.3915	0.247
Mof_H 	H 	0.8668	0.1529	0.4499	0.251
Mof_H 	H 	0.8184	0.1397	0.5409	0.031
Mof_H 	H 	0.8339	0.1975	0.5276	0.042
Mof_H 	H 	0.7941	0.1862	0.6156	0.052
Mof_H 	H 	0.7465	0.1639	0.6039	0.051
Mof_H 	H 	0.6819	0.2329	0.6517	0.055
Mof_H 	H 	0.7217	0.2699	0.6556	0.051
Mof_H 	H 	0.6807	0.3406	0.595	0.042
Mof_H 	H 	0.6369	0.3232	0.6454	0.048
Mof_H 	H 	0.569	0.3619	0.5756	0.046
Mof_H 	H 	0.6197	0.3716	0.5302	0.041
Mof_H 	H 	0.5547	0.358	0.4876	0.022
Mof_H 	H 	0.5456	0.3048	0.5298	0.037
Mof_H 	H 	0.4022	0.3756	0.0473	0.245
Mof_H 	H 	0.4156	0.1659	0.1368	0.037
Mof_H 	H 	0.3842	0.2222	0.1122	0.04
Mof_H 	H 	0.4748	0.161	0.0552	0.05
Mof_H 	H 	0.4151	0.1711	0.0448	0.04
Mof_H 	H 	0.4725	0.2167	0.9457	0.044
Mof_H 	H 	0.5215	0.2152	0.9735	0.046
Mof_H 	H 	0.5236	0.2813	0.9053	0.033
Mof_H 	H 	0.4615	0.3038	0.9209	0.045
Mof_H 	H 	0.5214	0.4223	0.8838	0.266
Mof_H 	H 	0.578	0.3834	0.8802	0.258
Mof_H 	H 	0.5276	0.3642	0.8706	0.272
Mof_H 	H 	0.565	0.4556	0.9449	0.034
Mof_H 	H 	0.578	0.4912	0.0181	0.043
Mof_H 	H 	0.5495	0.4497	0.1076	0.041
Mof_H 	H 	0.5413	0.3528	0.2037	0.219
Mof_H 	H 	0.508	0.4106	0.1864	0.226
Mof_H 	H 	0.4779	0.363	0.2179	0.223
Mof_H 	H 	0.4488	0.2981	0.218	0.027
Mof_H 	H 	0.4983	0.2527	0.2019	0.04
Mof_H 	H 	0.398	0.2743	0.1699	0.045
Mof_H 	H 	0.4221	0.2212	0.2064	0.038
Mof_H 	H 	0.6637	0.9941	0.3437	0.035
Mof_H 	H 	0.7232	0.9847	0.3545	0.041
Mof_H 	H 	0.7017	0.0757	0.3234	0.051
Mof_H 	H 	0.6774	0.0665	0.2759	0.05
Mof_H 	H 	0.7375	0.1212	0.2115	0.053
Mof_H 	H 	0.7762	0.1266	0.2487	0.051
Mof_H 	H 	0.8501	0.0732	0.1973	0.042
Mof_H 	H 	0.8267	0.1264	0.1597	0.05
Mof_H 	H 	0.8633	0.0686	0.0843	0.046
Mof_H 	H 	0.8797	0.0195	0.1299	0.039
Mof_H 	H 	0.8627	0.9835	0.0608	0.024
Mof_H 	H 	0.806	0.0221	0.0612	0.039
Mof_H 	H 	0.8464	0.8672	0.0656	0.219
Mof_H 	H 	0.7859	0.8829	0.0573	0.219
Mof_H 	H 	0.825	0.9247	0.034	0.222
Mof_H 	H 	0.7733	0.8155	0.1346	0.036
Mof_H 	H 	0.7309	0.7679	0.2171	0.031
Mof_H 	H 	0.7082	0.8059	0.2918	0.037
Mof_H 	H 	0.7117	0.8875	0.3828	0.248
Mof_H 	H 	0.655	0.8943	0.3661	0.249
Mof_H 	H 	0.6989	0.8422	0.3581	0.243
Mof_H 	H 	0.5114	0.0447	0.3065	0.055
Mof_H 	H 	0.5326	0.0708	0.2463	0.053
Mof_H 	H 	0.5528	0.9594	0.288	0.041
Mof_H 	H 	0.596	0.9975	0.276	0.041
Mof_H 	H 	0.6472	0.9319	0.2136	0.061
Mof_H 	H 	0.5963	0.9037	0.2261	0.057
Mof_H 	H 	0.64	0.89	0.1397	0.028
Mof_H 	H 	0.6466	0.9511	0.1212	0.042
Mof_H 	H 	0.6375	0.8817	0.0569	0.221
Mof_H 	H 	0.5913	0.8724	0.0308	0.22
Mof_H 	H 	0.6165	0.925	0.0091	0.226
Mof_H 	H 	0.5118	0.9176	0.9979	0.051
Mof_H 	H 	0.4212	0.9424	0.9974	0.023
Mof_H 	H 	0.3624	0.9904	0.0589	0.044
Mof_H 	H 	0.3113	0.0618	0.1442	0.197
Mof_H 	H 	0.3177	0.0066	0.1249	0.197
Mof_H 	H 	0.3087	0.0081	0.187	0.201
Mof_H 	H 	0.3695	0.0312	0.2531	0.043
Mof_H 	H 	0.36	0.087	0.2134	0.029
Mof_H 	H 	0.4402	0.1041	0.2178	0.049
Mof_H 	H 	0.4108	0.087	0.2778	0.06
Mof_H 	H 	0.4303	0.5323	0.3213	0.224
Mof_H 	H 	0.3725	0.5686	0.323	0.218
Mof_H 	H 	0.4037	0.5484	0.2694	0.221
Mof_H 	H 	0.3363	0.6323	0.2457	0.038
Mof_H 	H 	0.3015	0.7106	0.1938	0.025
Mof_H 	H 	0.3463	0.7817	0.1658	0.051
Mof_H 	H 	0.4151	0.8425	0.1244	0.248
Mof_H 	H 	0.3915	0.8574	0.182	0.247
Mof_H 	H 	0.4499	0.8668	0.1529	0.251
Mof_H 	H 	0.5409	0.8184	0.1397	0.031
Mof_H 	H 	0.5276	0.8339	0.1975	0.042
Mof_H 	H 	0.6156	0.7941	0.1862	0.052
Mof_H 	H 	0.6039	0.7465	0.1639	0.051
Mof_H 	H 	0.6517	0.6819	0.2329	0.055
Mof_H 	H 	0.6556	0.7217	0.2699	0.051
Mof_H 	H 	0.595	0.6807	0.3406	0.042
Mof_H 	H 	0.6454	0.6369	0.3232	0.048
Mof_H 	H 	0.5756	0.569	0.3619	0.046
Mof_H 	H 	0.5302	0.6197	0.3716	0.041
Mof_H 	H 	0.4876	0.5547	0.358	0.022
Mof_H 	H 	0.5298	0.5456	0.3048	0.037
Mof_H 	H 	0.9527	0.5978	0.6244	0.245
Mof_H 	H 	0.8632	0.5844	0.8341	0.037
Mof_H 	H 	0.8878	0.6158	0.7778	0.04
Mof_H 	H 	0.9448	0.5252	0.839	0.05
Mof_H 	H 	0.9552	0.5849	0.8289	0.04
Mof_H 	H 	0.0543	0.5275	0.7833	0.044
Mof_H 	H 	0.0265	0.4785	0.7848	0.046
Mof_H 	H 	0.0947	0.4764	0.7187	0.033
Mof_H 	H 	0.0791	0.5385	0.6962	0.045
Mof_H 	H 	0.1162	0.4786	0.5777	0.266
Mof_H 	H 	0.1198	0.422	0.6166	0.258
Mof_H 	H 	0.1294	0.4724	0.6358	0.272
Mof_H 	H 	0.0551	0.435	0.5444	0.034
Mof_H 	H 	0.9819	0.422	0.5088	0.043
Mof_H 	H 	0.8924	0.4505	0.5503	0.041
Mof_H 	H 	0.7963	0.4587	0.6472	0.219
Mof_H 	H 	0.8136	0.492	0.5894	0.226
Mof_H 	H 	0.7821	0.5221	0.637	0.223
Mof_H 	H 	0.782	0.5512	0.7019	0.027
Mof_H 	H 	0.7981	0.5017	0.7473	0.04
Mof_H 	H 	0.8301	0.602	0.7257	0.045
Mof_H 	H 	0.7936	0.5779	0.7788	0.038
Mof_H 	H 	0.6563	0.3363	0.0059	0.035
Mof_H 	H 	0.6455	0.2768	0.0153	0.041
Mof_H 	H 	0.6766	0.2983	0.9243	0.051
Mof_H 	H 	0.7241	0.3226	0.9335	0.05
Mof_H 	H 	0.7885	0.2625	0.8788	0.053
Mof_H 	H 	0.7513	0.2238	0.8734	0.051
Mof_H 	H 	0.8027	0.1499	0.9268	0.042
Mof_H 	H 	0.8403	0.1733	0.8736	0.05
Mof_H 	H 	0.9157	0.1367	0.9314	0.046
Mof_H 	H 	0.8701	0.1203	0.9805	0.039
Mof_H 	H 	0.9392	0.1373	0.0165	0.024
Mof_H 	H 	0.9388	0.194	0.9779	0.039
Mof_H 	H 	0.9344	0.1536	0.1328	0.219
Mof_H 	H 	0.9427	0.2141	0.1171	0.219
Mof_H 	H 	0.966	0.175	0.0753	0.222
Mof_H 	H 	0.8654	0.2267	0.1845	0.036
Mof_H 	H 	0.7829	0.2691	0.2321	0.031
Mof_H 	H 	0.7082	0.2918	0.1941	0.037
Mof_H 	H 	0.6172	0.2883	0.1125	0.248
Mof_H 	H 	0.6339	0.345	0.1057	0.249
Mof_H 	H 	0.6419	0.3011	0.1578	0.243
Mof_H 	H 	0.6935	0.4886	0.9553	0.055
Mof_H 	H 	0.7537	0.4674	0.9292	0.053
Mof_H 	H 	0.712	0.4472	0.0406	0.041
Mof_H 	H 	0.724	0.404	0.0025	0.041
Mof_H 	H 	0.7864	0.3528	0.0681	0.061
Mof_H 	H 	0.7739	0.4037	0.0963	0.057
Mof_H 	H 	0.8603	0.36	0.11	0.028
Mof_H 	H 	0.8788	0.3534	0.0489	0.042
Mof_H 	H 	0.9431	0.3625	0.1183	0.221
Mof_H 	H 	0.9692	0.4087	0.1276	0.22
Mof_H 	H 	0.9909	0.3835	0.075	0.226
Mof_H 	H 	0.0021	0.4882	0.0824	0.051
Mof_H 	H 	0.0026	0.5788	0.0576	0.023
Mof_H 	H 	0.9411	0.6376	0.0096	0.044
Mof_H 	H 	0.8558	0.6887	0.9382	0.197
Mof_H 	H 	0.8751	0.6823	0.9934	0.197
Mof_H 	H 	0.813	0.6913	0.9919	0.201
Mof_H 	H 	0.7469	0.6305	0.9688	0.043
Mof_H 	H 	0.7866	0.64	0.913	0.029
Mof_H 	H 	0.7822	0.5598	0.8959	0.049
Mof_H 	H 	0.7222	0.5892	0.913	0.06
Mof_H 	H 	0.6787	0.5697	0.4677	0.224
Mof_H 	H 	0.677	0.6275	0.4314	0.218
Mof_H 	H 	0.7306	0.5963	0.4516	0.221
Mof_H 	H 	0.7543	0.6637	0.3677	0.038
Mof_H 	H 	0.8062	0.6985	0.2894	0.025
Mof_H 	H 	0.8342	0.6537	0.2183	0.051
Mof_H 	H 	0.8756	0.5849	0.1575	0.248
Mof_H 	H 	0.818	0.6085	0.1426	0.247
Mof_H 	H 	0.8471	0.5501	0.1332	0.251
Mof_H 	H 	0.8603	0.4591	0.1816	0.031
Mof_H 	H 	0.8025	0.4724	0.1661	0.042
Mof_H 	H 	0.8138	0.3844	0.2059	0.052
Mof_H 	H 	0.8361	0.3961	0.2535	0.051
Mof_H 	H 	0.7671	0.3483	0.3181	0.055
Mof_H 	H 	0.7301	0.3444	0.2783	0.051
Mof_H 	H 	0.6594	0.405	0.3193	0.042
Mof_H 	H 	0.6768	0.3546	0.3631	0.048
Mof_H 	H 	0.6381	0.4244	0.431	0.046
Mof_H 	H 	0.6284	0.4698	0.3803	0.041
Mof_H 	H 	0.642	0.5124	0.4453	0.022
Mof_H 	H 	0.6952	0.4702	0.4544	0.037
Mof_H 	H 	0.6244	0.9527	0.5978	0.245
Mof_H 	H 	0.8341	0.8632	0.5844	0.037
Mof_H 	H 	0.7778	0.8878	0.6158	0.04
Mof_H 	H 	0.839	0.9448	0.5252	0.05
Mof_H 	H 	0.8289	0.9552	0.5849	0.04
Mof_H 	H 	0.7833	0.0543	0.5275	0.044
Mof_H 	H 	0.7848	0.0265	0.4785	0.046
Mof_H 	H 	0.7187	0.0947	0.4764	0.033
Mof_H 	H 	0.6962	0.0791	0.5385	0.045
Mof_H 	H 	0.5777	0.1162	0.4786	0.266
Mof_H 	H 	0.6166	0.1198	0.422	0.258
Mof_H 	H 	0.6358	0.1294	0.4724	0.272
Mof_H 	H 	0.5444	0.0551	0.435	0.034
Mof_H 	H 	0.5088	0.9819	0.422	0.043
Mof_H 	H 	0.5503	0.8924	0.4505	0.041
Mof_H 	H 	0.6472	0.7963	0.4587	0.219
Mof_H 	H 	0.5894	0.8136	0.492	0.226
Mof_H 	H 	0.637	0.7821	0.5221	0.223
Mof_H 	H 	0.7019	0.782	0.5512	0.027
Mof_H 	H 	0.7473	0.7981	0.5017	0.04
Mof_H 	H 	0.7257	0.8301	0.602	0.045
Mof_H 	H 	0.7788	0.7936	0.5779	0.038
Mof_H 	H 	0.0059	0.6563	0.3363	0.035
Mof_H 	H 	0.0153	0.6455	0.2768	0.041
Mof_H 	H 	0.9243	0.6766	0.2983	0.051
Mof_H 	H 	0.9335	0.7241	0.3226	0.05
Mof_H 	H 	0.8788	0.7885	0.2625	0.053
Mof_H 	H 	0.8734	0.7513	0.2238	0.051
Mof_H 	H 	0.9268	0.8027	0.1499	0.042
Mof_H 	H 	0.8736	0.8403	0.1733	0.05
Mof_H 	H 	0.9314	0.9157	0.1367	0.046
Mof_H 	H 	0.9805	0.8701	0.1203	0.039
Mof_H 	H 	0.0165	0.9392	0.1373	0.024
Mof_H 	H 	0.9779	0.9388	0.194	0.039
Mof_H 	H 	0.1328	0.9344	0.1536	0.219
Mof_H 	H 	0.1171	0.9427	0.2141	0.219
Mof_H 	H 	0.0753	0.966	0.175	0.222
Mof_H 	H 	0.1845	0.8654	0.2267	0.036
Mof_H 	H 	0.2321	0.7829	0.2691	0.031
Mof_H 	H 	0.1941	0.7082	0.2918	0.037
Mof_H 	H 	0.1125	0.6172	0.2883	0.248
Mof_H 	H 	0.1057	0.6339	0.345	0.249
Mof_H 	H 	0.1578	0.6419	0.3011	0.243
Mof_H 	H 	0.9553	0.6935	0.4886	0.055
Mof_H 	H 	0.9292	0.7537	0.4674	0.053
Mof_H 	H 	0.0406	0.712	0.4472	0.041
Mof_H 	H 	0.0025	0.724	0.404	0.041
Mof_H 	H 	0.0681	0.7864	0.3528	0.061
Mof_H 	H 	0.0963	0.7739	0.4037	0.057
Mof_H 	H 	0.11	0.8603	0.36	0.028
Mof_H 	H 	0.0489	0.8788	0.3534	0.042
Mof_H 	H 	0.1183	0.9431	0.3625	0.221
Mof_H 	H 	0.1276	0.9692	0.4087	0.22
Mof_H 	H 	0.075	0.9909	0.3835	0.226
Mof_H 	H 	0.0824	0.0021	0.4882	0.051
Mof_H 	H 	0.0576	0.0026	0.5788	0.023
Mof_H 	H 	0.0096	0.9411	0.6376	0.044
Mof_H 	H 	0.9382	0.8558	0.6887	0.197
Mof_H 	H 	0.9934	0.8751	0.6823	0.197
Mof_H 	H 	0.9919	0.813	0.6913	0.201
Mof_H 	H 	0.9688	0.7469	0.6305	0.043
Mof_H 	H 	0.913	0.7866	0.64	0.029
Mof_H 	H 	0.8959	0.7822	0.5598	0.049
Mof_H 	H 	0.913	0.7222	0.5892	0.06
Mof_H 	H 	0.4677	0.6787	0.5697	0.224
Mof_H 	H 	0.4314	0.677	0.6275	0.218
Mof_H 	H 	0.4516	0.7306	0.5963	0.221
Mof_H 	H 	0.3677	0.7543	0.6637	0.038
Mof_H 	H 	0.2894	0.8062	0.6985	0.025
Mof_H 	H 	0.2183	0.8342	0.6537	0.051
Mof_H 	H 	0.1575	0.8756	0.5849	0.248
Mof_H 	H 	0.1426	0.818	0.6085	0.247
Mof_H 	H 	0.1332	0.8471	0.5501	0.251
Mof_H 	H 	0.1816	0.8603	0.4591	0.031
Mof_H 	H 	0.1661	0.8025	0.4724	0.042
Mof_H 	H 	0.2059	0.8138	0.3844	0.052
Mof_H 	H 	0.2535	0.8361	0.3961	0.051
Mof_H 	H 	0.3181	0.7671	0.3483	0.055
Mof_H 	H 	0.2783	0.7301	0.3444	0.051
Mof_H 	H 	0.3193	0.6594	0.405	0.042
Mof_H 	H 	0.3631	0.6768	0.3546	0.048
Mof_H 	H 	0.431	0.6381	0.4244	0.046
Mof_H 	H 	0.3803	0.6284	0.4698	0.041
Mof_H 	H 	0.4453	0.642	0.5124	0.022
Mof_H 	H 	0.4544	0.6952	0.4702	0.037
Mof_H 	H 	0.5978	0.6244	0.9527	0.245
Mof_H 	H 	0.5844	0.8341	0.8632	0.037
Mof_H 	H 	0.6158	0.7778	0.8878	0.04
Mof_H 	H 	0.5252	0.839	0.9448	0.05
Mof_H 	H 	0.5849	0.8289	0.9552	0.04
Mof_H 	H 	0.5275	0.7833	0.0543	0.044
Mof_H 	H 	0.4785	0.7848	0.0265	0.046
Mof_H 	H 	0.4764	0.7187	0.0947	0.033
Mof_H 	H 	0.5385	0.6962	0.0791	0.045
Mof_H 	H 	0.4786	0.5777	0.1162	0.266
Mof_H 	H 	0.422	0.6166	0.1198	0.258
Mof_H 	H 	0.4724	0.6358	0.1294	0.272
Mof_H 	H 	0.435	0.5444	0.0551	0.034
Mof_H 	H 	0.422	0.5088	0.9819	0.043
Mof_H 	H 	0.4505	0.5503	0.8924	0.041
Mof_H 	H 	0.4587	0.6472	0.7963	0.219
Mof_H 	H 	0.492	0.5894	0.8136	0.226
Mof_H 	H 	0.5221	0.637	0.7821	0.223
Mof_H 	H 	0.5512	0.7019	0.782	0.027
Mof_H 	H 	0.5017	0.7473	0.7981	0.04
Mof_H 	H 	0.602	0.7257	0.8301	0.045
Mof_H 	H 	0.5779	0.7788	0.7936	0.038
Mof_H 	H 	0.3363	0.0059	0.6563	0.035
Mof_H 	H 	0.2768	0.0153	0.6455	0.041
Mof_H 	H 	0.2983	0.9243	0.6766	0.051
Mof_H 	H 	0.3226	0.9335	0.7241	0.05
Mof_H 	H 	0.2625	0.8788	0.7885	0.053
Mof_H 	H 	0.2238	0.8734	0.7513	0.051
Mof_H 	H 	0.1499	0.9268	0.8027	0.042
Mof_H 	H 	0.1733	0.8736	0.8403	0.05
Mof_H 	H 	0.1367	0.9314	0.9157	0.046
Mof_H 	H 	0.1203	0.9805	0.8701	0.039
Mof_H 	H 	0.1373	0.0165	0.9392	0.024
Mof_H 	H 	0.194	0.9779	0.9388	0.039
Mof_H 	H 	0.1536	0.1328	0.9344	0.219
Mof_H 	H 	0.2141	0.1171	0.9427	0.219
Mof_H 	H 	0.175	0.0753	0.966	0.222
Mof_H 	H 	0.2267	0.1845	0.8654	0.036
Mof_H 	H 	0.2691	0.2321	0.7829	0.031
Mof_H 	H 	0.2918	0.1941	0.7082	0.037
Mof_H 	H 	0.2883	0.1125	0.6172	0.248
Mof_H 	H 	0.345	0.1057	0.6339	0.249
Mof_H 	H 	0.3011	0.1578	0.6419	0.243
Mof_H 	H 	0.4886	0.9553	0.6935	0.055
Mof_H 	H 	0.4674	0.9292	0.7537	0.053
Mof_H 	H 	0.4472	0.0406	0.712	0.041
Mof_H 	H 	0.404	0.0025	0.724	0.041
Mof_H 	H 	0.3528	0.0681	0.7864	0.061
Mof_H 	H 	0.4037	0.0963	0.7739	0.057
Mof_H 	H 	0.36	0.11	0.8603	0.028
Mof_H 	H 	0.3534	0.0489	0.8788	0.042
Mof_H 	H 	0.3625	0.1183	0.9431	0.221
Mof_H 	H 	0.4087	0.1276	0.9692	0.22
Mof_H 	H 	0.3835	0.075	0.9909	0.226
Mof_H 	H 	0.4882	0.0824	0.0021	0.051
Mof_H 	H 	0.5788	0.0576	0.0026	0.023
Mof_H 	H 	0.6376	0.0096	0.9411	0.044
Mof_H 	H 	0.6887	0.9382	0.8558	0.197
Mof_H 	H 	0.6823	0.9934	0.8751	0.197
Mof_H 	H 	0.6913	0.9919	0.813	0.201
Mof_H 	H 	0.6305	0.9688	0.7469	0.043
Mof_H 	H 	0.64	0.913	0.7866	0.029
Mof_H 	H 	0.5598	0.8959	0.7822	0.049
Mof_H 	H 	0.5892	0.913	0.7222	0.06
Mof_H 	H 	0.5697	0.4677	0.6787	0.224
Mof_H 	H 	0.6275	0.4314	0.677	0.218
Mof_H 	H 	0.5963	0.4516	0.7306	0.221
Mof_H 	H 	0.6637	0.3677	0.7543	0.038
Mof_H 	H 	0.6985	0.2894	0.8062	0.025
Mof_H 	H 	0.6537	0.2183	0.8342	0.051
Mof_H 	H 	0.5849	0.1575	0.8756	0.248
Mof_H 	H 	0.6085	0.1426	0.818	0.247
Mof_H 	H 	0.5501	0.1332	0.8471	0.251
Mof_H 	H 	0.4591	0.1816	0.8603	0.031
Mof_H 	H 	0.4724	0.1661	0.8025	0.042
Mof_H 	H 	0.3844	0.2059	0.8138	0.052
Mof_H 	H 	0.3961	0.2535	0.8361	0.051
Mof_H 	H 	0.3483	0.3181	0.7671	0.055
Mof_H 	H 	0.3444	0.2783	0.7301	0.051
Mof_H 	H 	0.405	0.3193	0.6594	0.042
Mof_H 	H 	0.3546	0.3631	0.6768	0.048
Mof_H 	H 	0.4244	0.431	0.6381	0.046
Mof_H 	H 	0.4698	0.3803	0.6284	0.041
Mof_H 	H 	0.5124	0.4453	0.642	0.022
Mof_H 	H 	0.4702	0.4544	0.6952	0.037
Mof_C 	C 	0.14168	0.67448	0.05688	-0.12
Mof_C 	C 	0.10458	0.56598	0.08668	-0.144
Mof_C 	C 	0.1506	0.6268	0.1533	-0.141
Mof_C 	C 	0.06565	0.59095	0.19445	-0.136
Mof_C 	C 	0.9931	0.6411	0.1414	-0.132
Mof_C 	C 	0.05955	0.71735	0.14255	-0.141
Mof_C 	C 	0.04471	0.67691	0.04501	-0.134
Mof_C 	C 	0.27484	0.47324	0.89264	-0.12
Mof_C 	C 	0.3396	0.5397	0.8417	-0.14
Mof_C 	C 	0.3374	0.4664	0.7732	-0.128
Mof_C 	C 	0.4346	0.4795	0.8198	-0.142
Mof_C 	C 	0.41748	0.38298	0.83108	-0.119
Mof_C 	C 	0.3209	0.385	0.869	-0.168
Mof_C 	C 	0.376	0.4371	0.9319	-0.164
Mof_C 	C 	0.1118	0.4198	0.1996	-0.042
Mof_C 	C 	0.0558	0.4411	0.1869	-0.082
Mof_C 	C 	0.9665	0.4864	0.236	-0.072
Mof_C 	C 	0.9355	0.4939	0.2862	-0.038
Mof_C 	C 	0.949	0.5265	0.3634	0.267
Mof_C 	C 	0.8909	0.5394	0.3852	-0.802
Mof_C 	C 	0.9903	0.5339	0.3912	-0.044
Mof_C 	C 	0.9804	0.5553	0.4382	-0.04
Mof_C 	C 	0.0252	0.5624	0.4604	-0.033
Mof_C 	C 	0.078	0.5461	0.4362	-0.065
Mof_C 	C 	0.0834	0.5247	0.3901	-0.014
Mof_C 	C 	0.1377	0.5066	0.3575	0.198
Mof_C 	C 	0.1914	0.5086	0.3723	-0.683
Mof_C 	C 	0.1893	0.4677	0.2782	-0.051
Mof_C 	C 	0.1756	0.4313	0.2491	-0.053
Mof_C 	C 	0.3264	0.701	0.9954	-0.036
Mof_C 	C 	0.2971	0.706	0.0524	-0.082
Mof_C 	C 	0.2273	0.7692	0.1031	-0.069
Mof_C 	C 	0.1818	0.8185	0.0924	-0.069
Mof_C 	C 	0.1111	0.8504	0.0391	-0.071
Mof_C 	C 	0.0838	0.8318	0.0013	-0.035
Mof_C 	C 	0.1163	0.7997	0.9178	0.207
Mof_C 	C 	0.0634	0.8158	0.8961	-0.685
Mof_C 	C 	0.16448	0.77248	0.88238	-0.01
Mof_C 	C 	0.1656	0.7632	0.8309	-0.065
Mof_C 	C 	0.2154	0.7377	0.8024	-0.022
Mof_C 	C 	0.259	0.7239	0.8248	-0.054
Mof_C 	C 	0.256	0.733	0.8778	-0.017
Mof_C 	C 	0.3012	0.7151	0.9081	0.224
Mof_C 	C 	0.3571	0.6931	0.8805	-0.735
Mof_C 	C 	0.2693	0.5207	0.0387	-0.086
Mof_C 	C 	0.2648	0.5645	0.9916	-0.041
Mof_C 	C 	0.2031	0.6128	0.9333	-0.086
Mof_C 	C 	0.1432	0.6227	0.9269	-0.026
Mof_C 	C 	0.0812	0.564	0.9279	0.189
Mof_C 	C 	0.0408	0.6062	0.8991	-0.675
Mof_C 	C 	0.0705	0.5077	0.9454	-0
Mof_C 	C 	0.0249	0.4883	0.9345	-0.084
Mof_C 	C 	0.0247	0.4348	0.9507	0.008
Mof_C 	C 	0.0618	0.3988	0.9784	-0.09
Mof_C 	C 	0.1032	0.4195	0.9871	-0
Mof_C 	C 	0.1481	0.3889	0.0145	0.164
Mof_C 	C 	0.1514	0.3254	0.0237	-0.609
Mof_C 	C 	0.2243	0.3874	0.0562	-0.03
Mof_C 	C 	0.244	0.427	0.0743	-0.084
Mof_C 	C 	0.2838	0.4326	0.6101	0.206
Mof_C 	C 	0.3009	0.4076	0.5604	-0.692
Mof_C 	C 	0.25014	0.40434	0.65804	-0.015
Mof_C 	C 	0.2348	0.3549	0.6612	-0.076
Mof_C 	C 	0.204	0.3348	0.7076	-0.008
Mof_C 	C 	0.187	0.3613	0.75	-0.074
Mof_C 	C 	0.20212	0.41132	0.74552	-0.007
Mof_C 	C 	0.1845	0.4472	0.7869	0.212
Mof_C 	C 	0.1586	0.4239	0.8436	-0.73
Mof_C 	C 	0.17811	0.53761	0.80371	-0.037
Mof_C 	C 	0.19	0.5898	0.7705	-0.079
Mof_C 	C 	0.2618	0.6317	0.7012	-0.072
Mof_C 	C 	0.3115	0.6139	0.6615	-0.067
Mof_C 	C 	0.345	0.5496	0.5975	-0.075
Mof_C 	C 	0.3267	0.5102	0.5724	-0.034
Mof_C 	C 	0.05688	0.14168	0.67448	-0.12
Mof_C 	C 	0.08668	0.10458	0.56598	-0.144
Mof_C 	C 	0.1533	0.1506	0.6268	-0.141
Mof_C 	C 	0.19445	0.06565	0.59095	-0.136
Mof_C 	C 	0.1414	0.9931	0.6411	-0.132
Mof_C 	C 	0.14255	0.05955	0.71735	-0.141
Mof_C 	C 	0.04501	0.04471	0.67691	-0.134
Mof_C 	C 	0.89264	0.27484	0.47324	-0.12
Mof_C 	C 	0.8417	0.3396	0.5397	-0.14
Mof_C 	C 	0.7732	0.3374	0.4664	-0.128
Mof_C 	C 	0.8198	0.4346	0.4795	-0.142
Mof_C 	C 	0.83108	0.41748	0.38298	-0.119
Mof_C 	C 	0.869	0.3209	0.385	-0.168
Mof_C 	C 	0.9319	0.376	0.4371	-0.164
Mof_C 	C 	0.1996	0.1118	0.4198	-0.042
Mof_C 	C 	0.1869	0.0558	0.4411	-0.082
Mof_C 	C 	0.236	0.9665	0.4864	-0.072
Mof_C 	C 	0.2862	0.9355	0.4939	-0.038
Mof_C 	C 	0.3634	0.949	0.5265	0.267
Mof_C 	C 	0.3852	0.8909	0.5394	-0.802
Mof_C 	C 	0.3912	0.9903	0.5339	-0.044
Mof_C 	C 	0.4382	0.9804	0.5553	-0.04
Mof_C 	C 	0.4604	0.0252	0.5624	-0.033
Mof_C 	C 	0.4362	0.078	0.5461	-0.065
Mof_C 	C 	0.3901	0.0834	0.5247	-0.014
Mof_C 	C 	0.3575	0.1377	0.5066	0.198
Mof_C 	C 	0.3723	0.1914	0.5086	-0.683
Mof_C 	C 	0.2782	0.1893	0.4677	-0.051
Mof_C 	C 	0.2491	0.1756	0.4313	-0.053
Mof_C 	C 	0.9954	0.3264	0.701	-0.036
Mof_C 	C 	0.0524	0.2971	0.706	-0.082
Mof_C 	C 	0.1031	0.2273	0.7692	-0.069
Mof_C 	C 	0.0924	0.1818	0.8185	-0.069
Mof_C 	C 	0.0391	0.1111	0.8504	-0.071
Mof_C 	C 	0.0013	0.0838	0.8318	-0.035
Mof_C 	C 	0.9178	0.1163	0.7997	0.207
Mof_C 	C 	0.8961	0.0634	0.8158	-0.685
Mof_C 	C 	0.88238	0.16448	0.77248	-0.01
Mof_C 	C 	0.8309	0.1656	0.7632	-0.065
Mof_C 	C 	0.8024	0.2154	0.7377	-0.022
Mof_C 	C 	0.8248	0.259	0.7239	-0.054
Mof_C 	C 	0.8778	0.256	0.733	-0.017
Mof_C 	C 	0.9081	0.3012	0.7151	0.224
Mof_C 	C 	0.8805	0.3571	0.6931	-0.735
Mof_C 	C 	0.0387	0.2693	0.5207	-0.086
Mof_C 	C 	0.9916	0.2648	0.5645	-0.041
Mof_C 	C 	0.9333	0.2031	0.6128	-0.086
Mof_C 	C 	0.9269	0.1432	0.6227	-0.026
Mof_C 	C 	0.9279	0.0812	0.564	0.189
Mof_C 	C 	0.8991	0.0408	0.6062	-0.675
Mof_C 	C 	0.9454	0.0705	0.5077	-0
Mof_C 	C 	0.9345	0.0249	0.4883	-0.084
Mof_C 	C 	0.9507	0.0247	0.4348	0.008
Mof_C 	C 	0.9784	0.0618	0.3988	-0.09
Mof_C 	C 	0.9871	0.1032	0.4195	-0
Mof_C 	C 	0.0145	0.1481	0.3889	0.164
Mof_C 	C 	0.0237	0.1514	0.3254	-0.609
Mof_C 	C 	0.0562	0.2243	0.3874	-0.03
Mof_C 	C 	0.0743	0.244	0.427	-0.084
Mof_C 	C 	0.6101	0.2838	0.4326	0.206
Mof_C 	C 	0.5604	0.3009	0.4076	-0.692
Mof_C 	C 	0.65804	0.25014	0.40434	-0.015
Mof_C 	C 	0.6612	0.2348	0.3549	-0.076
Mof_C 	C 	0.7076	0.204	0.3348	-0.008
Mof_C 	C 	0.75	0.187	0.3613	-0.074
Mof_C 	C 	0.74552	0.20212	0.41132	-0.007
Mof_C 	C 	0.7869	0.1845	0.4472	0.212
Mof_C 	C 	0.8436	0.1586	0.4239	-0.73
Mof_C 	C 	0.80371	0.17811	0.53761	-0.037
Mof_C 	C 	0.7705	0.19	0.5898	-0.079
Mof_C 	C 	0.7012	0.2618	0.6317	-0.072
Mof_C 	C 	0.6615	0.3115	0.6139	-0.067
Mof_C 	C 	0.5975	0.345	0.5496	-0.075
Mof_C 	C 	0.5724	0.3267	0.5102	-0.034
Mof_C 	C 	0.67448	0.05688	0.14168	-0.12
Mof_C 	C 	0.56598	0.08668	0.10458	-0.144
Mof_C 	C 	0.6268	0.1533	0.1506	-0.141
Mof_C 	C 	0.59095	0.19445	0.06565	-0.136
Mof_C 	C 	0.6411	0.1414	0.9931	-0.132
Mof_C 	C 	0.71735	0.14255	0.05955	-0.141
Mof_C 	C 	0.67691	0.04501	0.04471	-0.134
Mof_C 	C 	0.47324	0.89264	0.27484	-0.12
Mof_C 	C 	0.5397	0.8417	0.3396	-0.14
Mof_C 	C 	0.4664	0.7732	0.3374	-0.128
Mof_C 	C 	0.4795	0.8198	0.4346	-0.142
Mof_C 	C 	0.38298	0.83108	0.41748	-0.119
Mof_C 	C 	0.385	0.869	0.3209	-0.168
Mof_C 	C 	0.4371	0.9319	0.376	-0.164
Mof_C 	C 	0.4198	0.1996	0.1118	-0.042
Mof_C 	C 	0.4411	0.1869	0.0558	-0.082
Mof_C 	C 	0.4864	0.236	0.9665	-0.072
Mof_C 	C 	0.4939	0.2862	0.9355	-0.038
Mof_C 	C 	0.5265	0.3634	0.949	0.267
Mof_C 	C 	0.5394	0.3852	0.8909	-0.802
Mof_C 	C 	0.5339	0.3912	0.9903	-0.044
Mof_C 	C 	0.5553	0.4382	0.9804	-0.04
Mof_C 	C 	0.5624	0.4604	0.0252	-0.033
Mof_C 	C 	0.5461	0.4362	0.078	-0.065
Mof_C 	C 	0.5247	0.3901	0.0834	-0.014
Mof_C 	C 	0.5066	0.3575	0.1377	0.198
Mof_C 	C 	0.5086	0.3723	0.1914	-0.683
Mof_C 	C 	0.4677	0.2782	0.1893	-0.051
Mof_C 	C 	0.4313	0.2491	0.1756	-0.053
Mof_C 	C 	0.701	0.9954	0.3264	-0.036
Mof_C 	C 	0.706	0.0524	0.2971	-0.082
Mof_C 	C 	0.7692	0.1031	0.2273	-0.069
Mof_C 	C 	0.8185	0.0924	0.1818	-0.069
Mof_C 	C 	0.8504	0.0391	0.1111	-0.071
Mof_C 	C 	0.8318	0.0013	0.0838	-0.035
Mof_C 	C 	0.7997	0.9178	0.1163	0.207
Mof_C 	C 	0.8158	0.8961	0.0634	-0.685
Mof_C 	C 	0.77248	0.88238	0.16448	-0.01
Mof_C 	C 	0.7632	0.8309	0.1656	-0.065
Mof_C 	C 	0.7377	0.8024	0.2154	-0.022
Mof_C 	C 	0.7239	0.8248	0.259	-0.054
Mof_C 	C 	0.733	0.8778	0.256	-0.017
Mof_C 	C 	0.7151	0.9081	0.3012	0.224
Mof_C 	C 	0.6931	0.8805	0.3571	-0.735
Mof_C 	C 	0.5207	0.0387	0.2693	-0.086
Mof_C 	C 	0.5645	0.9916	0.2648	-0.041
Mof_C 	C 	0.6128	0.9333	0.2031	-0.086
Mof_C 	C 	0.6227	0.9269	0.1432	-0.026
Mof_C 	C 	0.564	0.9279	0.0812	0.189
Mof_C 	C 	0.6062	0.8991	0.0408	-0.675
Mof_C 	C 	0.5077	0.9454	0.0705	-0
Mof_C 	C 	0.4883	0.9345	0.0249	-0.084
Mof_C 	C 	0.4348	0.9507	0.0247	0.008
Mof_C 	C 	0.3988	0.9784	0.0618	-0.09
Mof_C 	C 	0.4195	0.9871	0.1032	-0
Mof_C 	C 	0.3889	0.0145	0.1481	0.164
Mof_C 	C 	0.3254	0.0237	0.1514	-0.609
Mof_C 	C 	0.3874	0.0562	0.2243	-0.03
Mof_C 	C 	0.427	0.0743	0.244	-0.084
Mof_C 	C 	0.4326	0.6101	0.2838	0.206
Mof_C 	C 	0.4076	0.5604	0.3009	-0.692
Mof_C 	C 	0.40434	0.65804	0.25014	-0.015
Mof_C 	C 	0.3549	0.6612	0.2348	-0.076
Mof_C 	C 	0.3348	0.7076	0.204	-0.008
Mof_C 	C 	0.3613	0.75	0.187	-0.074
Mof_C 	C 	0.41132	0.74552	0.20212	-0.007
Mof_C 	C 	0.4472	0.7869	0.1845	0.212
Mof_C 	C 	0.4239	0.8436	0.1586	-0.73
Mof_C 	C 	0.53761	0.80371	0.17811	-0.037
Mof_C 	C 	0.5898	0.7705	0.19	-0.079
Mof_C 	C 	0.6317	0.7012	0.2618	-0.072
Mof_C 	C 	0.6139	0.6615	0.3115	-0.067
Mof_C 	C 	0.5496	0.5975	0.345	-0.075
Mof_C 	C 	0.5102	0.5724	0.3267	-0.034
Mof_C 	C 	0.85832	0.32552	0.94312	-0.12
Mof_C 	C 	0.89542	0.43402	0.91332	-0.144
Mof_C 	C 	0.8494	0.3732	0.8467	-0.141
Mof_C 	C 	0.93435	0.40905	0.80555	-0.136
Mof_C 	C 	0.0069	0.3589	0.8586	-0.132
Mof_C 	C 	0.94045	0.28265	0.85745	-0.141
Mof_C 	C 	0.95529	0.32309	0.95499	-0.134
Mof_C 	C 	0.72516	0.52676	0.10736	-0.12
Mof_C 	C 	0.6604	0.4603	0.1583	-0.14
Mof_C 	C 	0.6626	0.5336	0.2268	-0.128
Mof_C 	C 	0.5654	0.5205	0.1802	-0.142
Mof_C 	C 	0.58252	0.61702	0.16892	-0.119
Mof_C 	C 	0.6791	0.615	0.131	-0.168
Mof_C 	C 	0.624	0.5629	0.0681	-0.164
Mof_C 	C 	0.8882	0.5802	0.8004	-0.042
Mof_C 	C 	0.9442	0.5589	0.8131	-0.082
Mof_C 	C 	0.0335	0.5136	0.764	-0.072
Mof_C 	C 	0.0645	0.5061	0.7138	-0.038
Mof_C 	C 	0.051	0.4735	0.6366	0.267
Mof_C 	C 	0.1091	0.4606	0.6148	-0.802
Mof_C 	C 	0.0097	0.4661	0.6088	-0.044
Mof_C 	C 	0.0196	0.4447	0.5618	-0.04
Mof_C 	C 	0.9748	0.4376	0.5396	-0.033
Mof_C 	C 	0.922	0.4539	0.5638	-0.065
Mof_C 	C 	0.9166	0.4753	0.6099	-0.014
Mof_C 	C 	0.8623	0.4934	0.6425	0.198
Mof_C 	C 	0.8086	0.4914	0.6277	-0.683
Mof_C 	C 	0.8107	0.5323	0.7218	-0.051
Mof_C 	C 	0.8244	0.5687	0.7509	-0.053
Mof_C 	C 	0.6736	0.299	0.0046	-0.036
Mof_C 	C 	0.7029	0.294	0.9476	-0.082
Mof_C 	C 	0.7727	0.2308	0.8969	-0.069
Mof_C 	C 	0.8182	0.1815	0.9076	-0.069
Mof_C 	C 	0.8889	0.1496	0.9609	-0.071
Mof_C 	C 	0.9162	0.1682	0.9987	-0.035
Mof_C 	C 	0.8837	0.2003	0.0822	0.207
Mof_C 	C 	0.9366	0.1842	0.1039	-0.685
Mof_C 	C 	0.83552	0.22752	0.11762	-0.01
Mof_C 	C 	0.8344	0.2368	0.1691	-0.065
Mof_C 	C 	0.7846	0.2623	0.1976	-0.022
Mof_C 	C 	0.741	0.2761	0.1752	-0.054
Mof_C 	C 	0.744	0.267	0.1222	-0.017
Mof_C 	C 	0.6988	0.2849	0.0919	0.224
Mof_C 	C 	0.6429	0.3069	0.1195	-0.735
Mof_C 	C 	0.7307	0.4793	0.9613	-0.086
Mof_C 	C 	0.7352	0.4355	0.0084	-0.041
Mof_C 	C 	0.7969	0.3872	0.0667	-0.086
Mof_C 	C 	0.8568	0.3773	0.0731	-0.026
Mof_C 	C 	0.9188	0.436	0.0721	0.189
Mof_C 	C 	0.9592	0.3938	0.1009	-0.675
Mof_C 	C 	0.9295	0.4923	0.0546	-0
Mof_C 	C 	0.9751	0.5117	0.0655	-0.084
Mof_C 	C 	0.9753	0.5652	0.0493	0.008
Mof_C 	C 	0.9382	0.6012	0.0216	-0.09
Mof_C 	C 	0.8968	0.5805	0.0129	-0
Mof_C 	C 	0.8519	0.6111	0.9855	0.164
Mof_C 	C 	0.8486	0.6746	0.9763	-0.609
Mof_C 	C 	0.7757	0.6126	0.9438	-0.03
Mof_C 	C 	0.756	0.573	0.9257	-0.084
Mof_C 	C 	0.7162	0.5674	0.3899	0.206
Mof_C 	C 	0.6991	0.5924	0.4396	-0.692
Mof_C 	C 	0.74986	0.59566	0.34196	-0.015
Mof_C 	C 	0.7652	0.6451	0.3388	-0.076
Mof_C 	C 	0.796	0.6652	0.2924	-0.008
Mof_C 	C 	0.813	0.6387	0.25	-0.074
Mof_C 	C 	0.79788	0.58868	0.25448	-0.007
Mof_C 	C 	0.8155	0.5528	0.2131	0.212
Mof_C 	C 	0.8414	0.5761	0.1564	-0.73
Mof_C 	C 	0.82189	0.46239	0.19629	-0.037
Mof_C 	C 	0.81	0.4102	0.2295	-0.079
Mof_C 	C 	0.7382	0.3683	0.2988	-0.072
Mof_C 	C 	0.6885	0.3861	0.3385	-0.067
Mof_C 	C 	0.655	0.4504	0.4025	-0.075
Mof_C 	C 	0.6733	0.4898	0.4276	-0.034
Mof_C 	C 	0.94312	0.85832	0.32552	-0.12
Mof_C 	C 	0.91332	0.89542	0.43402	-0.144
Mof_C 	C 	0.8467	0.8494	0.3732	-0.141
Mof_C 	C 	0.80555	0.93435	0.40905	-0.136
Mof_C 	C 	0.8586	0.0069	0.3589	-0.132
Mof_C 	C 	0.85745	0.94045	0.28265	-0.141
Mof_C 	C 	0.95499	0.95529	0.32309	-0.134
Mof_C 	C 	0.10736	0.72516	0.52676	-0.12
Mof_C 	C 	0.1583	0.6604	0.4603	-0.14
Mof_C 	C 	0.2268	0.6626	0.5336	-0.128
Mof_C 	C 	0.1802	0.5654	0.5205	-0.142
Mof_C 	C 	0.16892	0.58252	0.61702	-0.119
Mof_C 	C 	0.131	0.6791	0.615	-0.168
Mof_C 	C 	0.0681	0.624	0.5629	-0.164
Mof_C 	C 	0.8004	0.8882	0.5802	-0.042
Mof_C 	C 	0.8131	0.9442	0.5589	-0.082
Mof_C 	C 	0.764	0.0335	0.5136	-0.072
Mof_C 	C 	0.7138	0.0645	0.5061	-0.038
Mof_C 	C 	0.6366	0.051	0.4735	0.267
Mof_C 	C 	0.6148	0.1091	0.4606	-0.802
Mof_C 	C 	0.6088	0.0097	0.4661	-0.044
Mof_C 	C 	0.5618	0.0196	0.4447	-0.04
Mof_C 	C 	0.5396	0.9748	0.4376	-0.033
Mof_C 	C 	0.5638	0.922	0.4539	-0.065
Mof_C 	C 	0.6099	0.9166	0.4753	-0.014
Mof_C 	C 	0.6425	0.8623	0.4934	0.198
Mof_C 	C 	0.6277	0.8086	0.4914	-0.683
Mof_C 	C 	0.7218	0.8107	0.5323	-0.051
Mof_C 	C 	0.7509	0.8244	0.5687	-0.053
Mof_C 	C 	0.0046	0.6736	0.299	-0.036
Mof_C 	C 	0.9476	0.7029	0.294	-0.082
Mof_C 	C 	0.8969	0.7727	0.2308	-0.069
Mof_C 	C 	0.9076	0.8182	0.1815	-0.069
Mof_C 	C 	0.9609	0.8889	0.1496	-0.071
Mof_C 	C 	0.9987	0.9162	0.1682	-0.035
Mof_C 	C 	0.0822	0.8837	0.2003	0.207
Mof_C 	C 	0.1039	0.9366	0.1842	-0.685
Mof_C 	C 	0.11762	0.83552	0.22752	-0.01
Mof_C 	C 	0.1691	0.8344	0.2368	-0.065
Mof_C 	C 	0.1976	0.7846	0.2623	-0.022
Mof_C 	C 	0.1752	0.741	0.2761	-0.054
Mof_C 	C 	0.1222	0.744	0.267	-0.017
Mof_C 	C 	0.0919	0.6988	0.2849	0.224
Mof_C 	C 	0.1195	0.6429	0.3069	-0.735
Mof_C 	C 	0.9613	0.7307	0.4793	-0.086
Mof_C 	C 	0.0084	0.7352	0.4355	-0.041
Mof_C 	C 	0.0667	0.7969	0.3872	-0.086
Mof_C 	C 	0.0731	0.8568	0.3773	-0.026
Mof_C 	C 	0.0721	0.9188	0.436	0.189
Mof_C 	C 	0.1009	0.9592	0.3938	-0.675
Mof_C 	C 	0.0546	0.9295	0.4923	-0
Mof_C 	C 	0.0655	0.9751	0.5117	-0.084
Mof_C 	C 	0.0493	0.9753	0.5652	0.008
Mof_C 	C 	0.0216	0.9382	0.6012	-0.09
Mof_C 	C 	0.0129	0.8968	0.5805	-0
Mof_C 	C 	0.9855	0.8519	0.6111	0.164
Mof_C 	C 	0.9763	0.8486	0.6746	-0.609
Mof_C 	C 	0.9438	0.7757	0.6126	-0.03
Mof_C 	C 	0.9257	0.756	0.573	-0.084
Mof_C 	C 	0.3899	0.7162	0.5674	0.206
Mof_C 	C 	0.4396	0.6991	0.5924	-0.692
Mof_C 	C 	0.34196	0.74986	0.59566	-0.015
Mof_C 	C 	0.3388	0.7652	0.6451	-0.076
Mof_C 	C 	0.2924	0.796	0.6652	-0.008
Mof_C 	C 	0.25	0.813	0.6387	-0.074
Mof_C 	C 	0.25448	0.79788	0.58868	-0.007
Mof_C 	C 	0.2131	0.8155	0.5528	0.212
Mof_C 	C 	0.1564	0.8414	0.5761	-0.73
Mof_C 	C 	0.19629	0.82189	0.46239	-0.037
Mof_C 	C 	0.2295	0.81	0.4102	-0.079
Mof_C 	C 	0.2988	0.7382	0.3683	-0.072
Mof_C 	C 	0.3385	0.6885	0.3861	-0.067
Mof_C 	C 	0.4025	0.655	0.4504	-0.075
Mof_C 	C 	0.4276	0.6733	0.4898	-0.034
Mof_C 	C 	0.32552	0.94312	0.85832	-0.12
Mof_C 	C 	0.43402	0.91332	0.89542	-0.144
Mof_C 	C 	0.3732	0.8467	0.8494	-0.141
Mof_C 	C 	0.40905	0.80555	0.93435	-0.136
Mof_C 	C 	0.3589	0.8586	0.0069	-0.132
Mof_C 	C 	0.28265	0.85745	0.94045	-0.141
Mof_C 	C 	0.32309	0.95499	0.95529	-0.134
Mof_C 	C 	0.52676	0.10736	0.72516	-0.12
Mof_C 	C 	0.4603	0.1583	0.6604	-0.14
Mof_C 	C 	0.5336	0.2268	0.6626	-0.128
Mof_C 	C 	0.5205	0.1802	0.5654	-0.142
Mof_C 	C 	0.61702	0.16892	0.58252	-0.119
Mof_C 	C 	0.615	0.131	0.6791	-0.168
Mof_C 	C 	0.5629	0.0681	0.624	-0.164
Mof_C 	C 	0.5802	0.8004	0.8882	-0.042
Mof_C 	C 	0.5589	0.8131	0.9442	-0.082
Mof_C 	C 	0.5136	0.764	0.0335	-0.072
Mof_C 	C 	0.5061	0.7138	0.0645	-0.038
Mof_C 	C 	0.4735	0.6366	0.051	0.267
Mof_C 	C 	0.4606	0.6148	0.1091	-0.802
Mof_C 	C 	0.4661	0.6088	0.0097	-0.044
Mof_C 	C 	0.4447	0.5618	0.0196	-0.04
Mof_C 	C 	0.4376	0.5396	0.9748	-0.033
Mof_C 	C 	0.4539	0.5638	0.922	-0.065
Mof_C 	C 	0.4753	0.6099	0.9166	-0.014
Mof_C 	C 	0.4934	0.6425	0.8623	0.198
Mof_C 	C 	0.4914	0.6277	0.8086	-0.683
Mof_C 	C 	0.5323	0.7218	0.8107	-0.051
Mof_C 	C 	0.5687	0.7509	0.8244	-0.053
Mof_C 	C 	0.299	0.0046	0.6736	-0.036
Mof_C 	C 	0.294	0.9476	0.7029	-0.082
Mof_C 	C 	0.2308	0.8969	0.7727	-0.069
Mof_C 	C 	0.1815	0.9076	0.8182	-0.069
Mof_C 	C 	0.1496	0.9609	0.8889	-0.071
Mof_C 	C 	0.1682	0.9987	0.9162	-0.035
Mof_C 	C 	0.2003	0.0822	0.8837	0.207
Mof_C 	C 	0.1842	0.1039	0.9366	-0.685
Mof_C 	C 	0.22752	0.11762	0.83552	-0.01
Mof_C 	C 	0.2368	0.1691	0.8344	-0.065
Mof_C 	C 	0.2623	0.1976	0.7846	-0.022
Mof_C 	C 	0.2761	0.1752	0.741	-0.054
Mof_C 	C 	0.267	0.1222	0.744	-0.017
Mof_C 	C 	0.2849	0.0919	0.6988	0.224
Mof_C 	C 	0.3069	0.1195	0.6429	-0.735
Mof_C 	C 	0.4793	0.9613	0.7307	-0.086
Mof_C 	C 	0.4355	0.0084	0.7352	-0.041
Mof_C 	C 	0.3872	0.0667	0.7969	-0.086
Mof_C 	C 	0.3773	0.0731	0.8568	-0.026
Mof_C 	C 	0.436	0.0721	0.9188	0.189
Mof_C 	C 	0.3938	0.1009	0.9592	-0.675
Mof_C 	C 	0.4923	0.0546	0.9295	-0
Mof_C 	C 	0.5117	0.0655	0.9751	-0.084
Mof_C 	C 	0.5652	0.0493	0.9753	0.008
Mof_C 	C 	0.6012	0.0216	0.9382	-0.09
Mof_C 	C 	0.5805	0.0129	0.8968	-0
Mof_C 	C 	0.6111	0.9855	0.8519	0.164
Mof_C 	C 	0.6746	0.9763	0.8486	-0.609
Mof_C 	C 	0.6126	0.9438	0.7757	-0.03
Mof_C 	C 	0.573	0.9257	0.756	-0.084
Mof_C 	C 	0.5674	0.3899	0.7162	0.206
Mof_C 	C 	0.5924	0.4396	0.6991	-0.692
Mof_C 	C 	0.59566	0.34196	0.74986	-0.015
Mof_C 	C 	0.6451	0.3388	0.7652	-0.076
Mof_C 	C 	0.6652	0.2924	0.796	-0.008
Mof_C 	C 	0.6387	0.25	0.813	-0.074
Mof_C 	C 	0.58868	0.25448	0.79788	-0.007
Mof_C 	C 	0.5528	0.2131	0.8155	0.212
Mof_C 	C 	0.5761	0.1564	0.8414	-0.73
Mof_C 	C 	0.46239	0.19629	0.82189	-0.037
Mof_C 	C 	0.4102	0.2295	0.81	-0.079
Mof_C 	C 	0.3683	0.2988	0.7382	-0.072
Mof_C 	C 	0.3861	0.3385	0.6885	-0.067
Mof_C 	C 	0.4504	0.4025	0.655	-0.075
Mof_C 	C 	0.4898	0.4276	0.6733	-0.034
Mof_N 	N 	0.17516	0.69346	0.02566	-0.134
Mof_N 	N 	0.12126	0.52716	0.06826	-0.132
Mof_N 	N 	0.1893	0.6183	0.172	-0.082
Mof_N 	N 	0.05946	0.56206	0.23526	-0.143
Mof_N 	N 	0.9468	0.6451	0.1567	-0.086
Mof_N 	N 	0.04777	0.76067	0.15367	-0.131
Mof_N 	N 	0.02519	0.69739	0.00709	-0.089
Mof_N 	N 	0.2314	0.4834	0.9168	-0.14
Mof_N 	N 	0.3307	0.5864	0.8315	-0.084
Mof_N 	N 	0.32627	0.47617	0.73067	-0.137
Mof_N 	N 	0.47461	0.49381	0.80091	-0.097
Mof_N 	N 	0.44768	0.34848	0.81618	-0.14
Mof_N 	N 	0.2993	0.3436	0.8795	-0.078
Mof_N 	N 	0.3848	0.425	0.9766	-0.079
Mof_N 	N 	0.1306	0.4515	0.2253	-0.139
Mof_N 	N 	0.0175	0.4501	0.2384	-0.133
Mof_N 	N 	0.9684	0.5063	0.3213	-0.214
Mof_N 	N 	0.0429	0.5186	0.3686	-0.154
Mof_N 	N 	0.1388	0.4873	0.3169	-0.199
Mof_N 	N 	0.26134	0.75904	0.05294	-0.134
Mof_N 	N 	0.14871	0.80511	0.05971	-0.136
Mof_N 	N 	0.12447	0.80687	0.96117	-0.201
Mof_N 	N 	0.20988	0.75718	0.90388	-0.155
Mof_N 	N 	0.28811	0.71891	0.95821	-0.204
Mof_N 	N 	0.1778	0.4127	0.0291	-0.196
Mof_N 	N 	0.10556	0.47376	0.97176	-0.167
Mof_N 	N 	0.125	0.5726	0.9394	-0.196
Mof_N 	N 	0.21069	0.57769	0.98419	-0.139
Mof_N 	N 	0.2526	0.472	0.0291	-0.129
Mof_N 	N 	0.2991	0.5777	0.6303	-0.137
Mof_N 	N 	0.24434	0.58384	0.73844	-0.135
Mof_N 	N 	0.19484	0.49544	0.77014	-0.2
Mof_N 	N 	0.23347	0.43157	0.70007	-0.159
Mof_N 	N 	0.29537	0.47707	0.61547	-0.199
Mof_N 	N 	0.02566	0.17516	0.69346	-0.134
Mof_N 	N 	0.06826	0.12126	0.52716	-0.132
Mof_N 	N 	0.172	0.1893	0.6183	-0.082
Mof_N 	N 	0.23526	0.05946	0.56206	-0.143
Mof_N 	N 	0.1567	0.9468	0.6451	-0.086
Mof_N 	N 	0.15367	0.04777	0.76067	-0.131
Mof_N 	N 	0.00709	0.02519	0.69739	-0.089
Mof_N 	N 	0.9168	0.2314	0.4834	-0.14
Mof_N 	N 	0.8315	0.3307	0.5864	-0.084
Mof_N 	N 	0.73067	0.32627	0.47617	-0.137
Mof_N 	N 	0.80091	0.47461	0.49381	-0.097
Mof_N 	N 	0.81618	0.44768	0.34848	-0.14
Mof_N 	N 	0.8795	0.2993	0.3436	-0.078
Mof_N 	N 	0.9766	0.3848	0.425	-0.079
Mof_N 	N 	0.2253	0.1306	0.4515	-0.139
Mof_N 	N 	0.2384	0.0175	0.4501	-0.133
Mof_N 	N 	0.3213	0.9684	0.5063	-0.214
Mof_N 	N 	0.3686	0.0429	0.5186	-0.154
Mof_N 	N 	0.3169	0.1388	0.4873	-0.199
Mof_N 	N 	0.05294	0.26134	0.75904	-0.134
Mof_N 	N 	0.05971	0.14871	0.80511	-0.136
Mof_N 	N 	0.96117	0.12447	0.80687	-0.201
Mof_N 	N 	0.90388	0.20988	0.75718	-0.155
Mof_N 	N 	0.95821	0.28811	0.71891	-0.204
Mof_N 	N 	0.0291	0.1778	0.4127	-0.196
Mof_N 	N 	0.97176	0.10556	0.47376	-0.167
Mof_N 	N 	0.9394	0.125	0.5726	-0.196
Mof_N 	N 	0.98419	0.21069	0.57769	-0.139
Mof_N 	N 	0.0291	0.2526	0.472	-0.129
Mof_N 	N 	0.6303	0.2991	0.5777	-0.137
Mof_N 	N 	0.73844	0.24434	0.58384	-0.135
Mof_N 	N 	0.77014	0.19484	0.49544	-0.2
Mof_N 	N 	0.70007	0.23347	0.43157	-0.159
Mof_N 	N 	0.61547	0.29537	0.47707	-0.199
Mof_N 	N 	0.69346	0.02566	0.17516	-0.134
Mof_N 	N 	0.52716	0.06826	0.12126	-0.132
Mof_N 	N 	0.6183	0.172	0.1893	-0.082
Mof_N 	N 	0.56206	0.23526	0.05946	-0.143
Mof_N 	N 	0.6451	0.1567	0.9468	-0.086
Mof_N 	N 	0.76067	0.15367	0.04777	-0.131
Mof_N 	N 	0.69739	0.00709	0.02519	-0.089
Mof_N 	N 	0.4834	0.9168	0.2314	-0.14
Mof_N 	N 	0.5864	0.8315	0.3307	-0.084
Mof_N 	N 	0.47617	0.73067	0.32627	-0.137
Mof_N 	N 	0.49381	0.80091	0.47461	-0.097
Mof_N 	N 	0.34848	0.81618	0.44768	-0.14
Mof_N 	N 	0.3436	0.8795	0.2993	-0.078
Mof_N 	N 	0.425	0.9766	0.3848	-0.079
Mof_N 	N 	0.4515	0.2253	0.1306	-0.139
Mof_N 	N 	0.4501	0.2384	0.0175	-0.133
Mof_N 	N 	0.5063	0.3213	0.9684	-0.214
Mof_N 	N 	0.5186	0.3686	0.0429	-0.154
Mof_N 	N 	0.4873	0.3169	0.1388	-0.199
Mof_N 	N 	0.75904	0.05294	0.26134	-0.134
Mof_N 	N 	0.80511	0.05971	0.14871	-0.136
Mof_N 	N 	0.80687	0.96117	0.12447	-0.201
Mof_N 	N 	0.75718	0.90388	0.20988	-0.155
Mof_N 	N 	0.71891	0.95821	0.28811	-0.204
Mof_N 	N 	0.4127	0.0291	0.1778	-0.196
Mof_N 	N 	0.47376	0.97176	0.10556	-0.167
Mof_N 	N 	0.5726	0.9394	0.125	-0.196
Mof_N 	N 	0.57769	0.98419	0.21069	-0.139
Mof_N 	N 	0.472	0.0291	0.2526	-0.129
Mof_N 	N 	0.5777	0.6303	0.2991	-0.137
Mof_N 	N 	0.58384	0.73844	0.24434	-0.135
Mof_N 	N 	0.49544	0.77014	0.19484	-0.2
Mof_N 	N 	0.43157	0.70007	0.23347	-0.159
Mof_N 	N 	0.47707	0.61547	0.29537	-0.199
Mof_N 	N 	0.82484	0.30654	0.97434	-0.134
Mof_N 	N 	0.87874	0.47284	0.93174	-0.132
Mof_N 	N 	0.8107	0.3817	0.828	-0.082
Mof_N 	N 	0.94054	0.43794	0.76474	-0.143
Mof_N 	N 	0.0532	0.3549	0.8433	-0.086
Mof_N 	N 	0.95223	0.23933	0.84633	-0.131
Mof_N 	N 	0.97481	0.30261	0.99291	-0.089
Mof_N 	N 	0.7686	0.5166	0.0832	-0.14
Mof_N 	N 	0.6693	0.4136	0.1685	-0.084
Mof_N 	N 	0.67373	0.52383	0.26933	-0.137
Mof_N 	N 	0.52539	0.50619	0.19909	-0.097
Mof_N 	N 	0.55232	0.65152	0.18382	-0.14
Mof_N 	N 	0.7007	0.6564	0.1205	-0.078
Mof_N 	N 	0.6152	0.575	0.0234	-0.079
Mof_N 	N 	0.8694	0.5485	0.7747	-0.139
Mof_N 	N 	0.9825	0.5499	0.7616	-0.133
Mof_N 	N 	0.0316	0.4937	0.6787	-0.214
Mof_N 	N 	0.9571	0.4814	0.6314	-0.154
Mof_N 	N 	0.8612	0.5127	0.6831	-0.199
Mof_N 	N 	0.73866	0.24096	0.94706	-0.134
Mof_N 	N 	0.85129	0.19489	0.94029	-0.136
Mof_N 	N 	0.87553	0.19313	0.03883	-0.201
Mof_N 	N 	0.79012	0.24282	0.09612	-0.155
Mof_N 	N 	0.71189	0.28109	0.04179	-0.204
Mof_N 	N 	0.8222	0.5873	0.9709	-0.196
Mof_N 	N 	0.89444	0.52624	0.02824	-0.167
Mof_N 	N 	0.875	0.4274	0.0606	-0.196
Mof_N 	N 	0.78931	0.42231	0.01581	-0.139
Mof_N 	N 	0.7474	0.528	0.9709	-0.129
Mof_N 	N 	0.7009	0.4223	0.3697	-0.137
Mof_N 	N 	0.75566	0.41616	0.26156	-0.135
Mof_N 	N 	0.80516	0.50456	0.22986	-0.2
Mof_N 	N 	0.76653	0.56843	0.29993	-0.159
Mof_N 	N 	0.70463	0.52293	0.38453	-0.199
Mof_N 	N 	0.97434	0.82484	0.30654	-0.134
Mof_N 	N 	0.93174	0.87874	0.47284	-0.132
Mof_N 	N 	0.828	0.8107	0.3817	-0.082
Mof_N 	N 	0.76474	0.94054	0.43794	-0.143
Mof_N 	N 	0.8433	0.0532	0.3549	-0.086
Mof_N 	N 	0.84633	0.95223	0.23933	-0.131
Mof_N 	N 	0.99291	0.97481	0.30261	-0.089
Mof_N 	N 	0.0832	0.7686	0.5166	-0.14
Mof_N 	N 	0.1685	0.6693	0.4136	-0.084
Mof_N 	N 	0.26933	0.67373	0.52383	-0.137
Mof_N 	N 	0.19909	0.52539	0.50619	-0.097
Mof_N 	N 	0.18382	0.55232	0.65152	-0.14
Mof_N 	N 	0.1205	0.7007	0.6564	-0.078
Mof_N 	N 	0.0234	0.6152	0.575	-0.079
Mof_N 	N 	0.7747	0.8694	0.5485	-0.139
Mof_N 	N 	0.7616	0.9825	0.5499	-0.133
Mof_N 	N 	0.6787	0.0316	0.4937	-0.214
Mof_N 	N 	0.6314	0.9571	0.4814	-0.154
Mof_N 	N 	0.6831	0.8612	0.5127	-0.199
Mof_N 	N 	0.94706	0.73866	0.24096	-0.134
Mof_N 	N 	0.94029	0.85129	0.19489	-0.136
Mof_N 	N 	0.03883	0.87553	0.19313	-0.201
Mof_N 	N 	0.09612	0.79012	0.24282	-0.155
Mof_N 	N 	0.04179	0.71189	0.28109	-0.204
Mof_N 	N 	0.9709	0.8222	0.5873	-0.196
Mof_N 	N 	0.02824	0.89444	0.52624	-0.167
Mof_N 	N 	0.0606	0.875	0.4274	-0.196
Mof_N 	N 	0.01581	0.78931	0.42231	-0.139
Mof_N 	N 	0.9709	0.7474	0.528	-0.129
Mof_N 	N 	0.3697	0.7009	0.4223	-0.137
Mof_N 	N 	0.26156	0.75566	0.41616	-0.135
Mof_N 	N 	0.22986	0.80516	0.50456	-0.2
Mof_N 	N 	0.29993	0.76653	0.56843	-0.159
Mof_N 	N 	0.38453	0.70463	0.52293	-0.199
Mof_N 	N 	0.30654	0.97434	0.82484	-0.134
Mof_N 	N 	0.47284	0.93174	0.87874	-0.132
Mof_N 	N 	0.3817	0.828	0.8107	-0.082
Mof_N 	N 	0.43794	0.76474	0.94054	-0.143
Mof_N 	N 	0.3549	0.8433	0.0532	-0.086
Mof_N 	N 	0.23933	0.84633	0.95223	-0.131
Mof_N 	N 	0.30261	0.99291	0.97481	-0.089
Mof_N 	N 	0.5166	0.0832	0.7686	-0.14
Mof_N 	N 	0.4136	0.1685	0.6693	-0.084
Mof_N 	N 	0.52383	0.26933	0.67373	-0.137
Mof_N 	N 	0.50619	0.19909	0.52539	-0.097
Mof_N 	N 	0.65152	0.18382	0.55232	-0.14
Mof_N 	N 	0.6564	0.1205	0.7007	-0.078
Mof_N 	N 	0.575	0.0234	0.6152	-0.079
Mof_N 	N 	0.5485	0.7747	0.8694	-0.139
Mof_N 	N 	0.5499	0.7616	0.9825	-0.133
Mof_N 	N 	0.4937	0.6787	0.0316	-0.214
Mof_N 	N 	0.4814	0.6314	0.9571	-0.154
Mof_N 	N 	0.5127	0.6831	0.8612	-0.199
Mof_N 	N 	0.24096	0.94706	0.73866	-0.134
Mof_N 	N 	0.19489	0.94029	0.85129	-0.136
Mof_N 	N 	0.19313	0.03883	0.87553	-0.201
Mof_N 	N 	0.24282	0.09612	0.79012	-0.155
Mof_N 	N 	0.28109	0.04179	0.71189	-0.204
Mof_N 	N 	0.5873	0.9709	0.8222	-0.196
Mof_N 	N 	0.52624	0.02824	0.89444	-0.167
Mof_N 	N 	0.4274	0.0606	0.875	-0.196
Mof_N 	N 	0.42231	0.01581	0.78931	-0.139
Mof_N 	N 	0.528	0.9709	0.7474	-0.129
Mof_N 	N 	0.4223	0.3697	0.7009	-0.137
Mof_N 	N 	0.41616	0.26156	0.75566	-0.135
Mof_N 	N 	0.50456	0.22986	0.80516	-0.2
Mof_N 	N 	0.56843	0.29993	0.76653	-0.159
Mof_N 	N 	0.52293	0.38453	0.70463	-0.199
Mof_O 	O 	0.0644	0.3995	0.345	-0.422
Mof_O 	O 	0.345	0.0644	0.3995	-0.422
Mof_O 	O 	0.3995	0.345	0.0644	-0.422
Mof_O 	O 	0.9356	0.6005	0.655	-0.422
Mof_O 	O 	0.655	0.9356	0.6005	-0.422
Mof_O 	O 	0.6005	0.655	0.9356	-0.422
_end
