# CIF file generated by openbabel 3.1.0, see https://openbabel.org
data_I
_chemical_name_common 'image0'
_cell_length_a 15.8206
_cell_length_b 9.0295
_cell_length_c 18.3005
_cell_angle_alpha 90
_cell_angle_beta 90
_cell_angle_gamma 90
_space_group_name_H-M_alt 'P 1'
_space_group_name_Hall 'P 1'
loop_
    _symmetry_equiv_pos_as_xyz
    x,y,z
loop_
    _atom_site_label
    _atom_site_type_symbol
    _atom_site_fract_x
    _atom_site_fract_y
    _atom_site_fract_z
    _atom_site_occupancy
    V1       V        0.20914    0.24857    0.16342    1.000
    V2       V        0.78752    0.24621    0.08746    1.000
    P1       P        0.25759    0.50750    0.03592    1.000
    P2       P        0.24452    0.00390    0.28658    1.000
    P3       P        0.00380    0.34080    0.10802    1.000
    O1       O        0.30510    0.10360    0.32960    1.000
    O2       O        0.18270    0.09600    0.23990    1.000
    O3       O        0.20120    0.40600    0.08280    1.000
    O4       O        0.19690    0.60550    0.99230    1.000
    O5       O        0.06570    0.27580    0.16140    1.000
    O6       O        0.93090    0.24050    0.08860    1.000
    O7       O        0.19020    0.91250    0.33950    1.000
    O8       O        0.31710    0.59770    0.08490    1.000
    O9       O        0.31370    0.41400    0.98460    1.000
    O10      O        0.30020    0.90500    0.24010    1.000
    O11      O        0.96850    0.49150    0.14000    1.000
    H1       H        0.90910    0.48600    0.15000    1.000
    O12      O        0.05070    0.38530    0.03610    1.000
    H2       H        0.09200    0.46200    0.02900    1.000
    Nb1      Nb       0.29086    0.74857    0.16342    1.000
    V3       V        0.29086    0.75143    0.66342    1.000
    V4       V        0.71248    0.75379    0.58746    1.000
    P4       P        0.24241    0.49250    0.53592    1.000
    P5       P        0.25548    0.99610    0.78658    1.000
    P6       P        0.49620    0.65920    0.60802    1.000
    O13      O        0.19490    0.89640    0.82960    1.000
    O14      O        0.31730    0.90400    0.73990    1.000
    O15      O        0.29880    0.59400    0.58280    1.000
    O16      O        0.30310    0.39450    0.49230    1.000
    O17      O        0.43430    0.72420    0.66140    1.000
    O18      O        0.56910    0.75950    0.58860    1.000
    O19      O        0.30980    0.08750    0.83950    1.000
    O20      O        0.18290    0.40230    0.58490    1.000
    O21      O        0.18630    0.58600    0.48460    1.000
    O22      O        0.19980    0.09500    0.74010    1.000
    O23      O        0.53150    0.50850    0.64000    1.000
    H3       H        0.59090    0.51400    0.65000    1.000
    O24      O        0.44930    0.61470    0.53610    1.000
    H4       H        0.40800    0.53800    0.52900    1.000
    Nb2      Nb       0.20914    0.25143    0.66342    1.000
    V5       V        0.79086    0.74857    0.33658    1.000
    V6       V        0.21248    0.74621    0.41254    1.000
    P7       P        0.74241    0.00750    0.46408    1.000
    P8       P        0.75548    0.50390    0.21342    1.000
    P9       P        0.99620    0.84080    0.39198    1.000
    O25      O        0.69490    0.60360    0.17040    1.000
    O26      O        0.81730    0.59600    0.26010    1.000
    O27      O        0.79880    0.90600    0.41720    1.000
    O28      O        0.80310    0.10550    0.50770    1.000
    O29      O        0.93430    0.77580    0.33860    1.000
    O30      O        0.06910    0.74050    0.41140    1.000
    O31      O        0.80980    0.41250    0.16050    1.000
    O32      O        0.68290    0.09770    0.41510    1.000
    O33      O        0.68630    0.91400    0.51540    1.000
    O34      O        0.69980    0.40500    0.25990    1.000
    O35      O        0.03150    0.99150    0.36000    1.000
    H5       H        0.09090    0.98600    0.35000    1.000
    O36      O        0.94930    0.88530    0.46390    1.000
    H6       H        0.90800    0.96200    0.47100    1.000
    Nb3      Nb       0.70914    0.24857    0.33658    1.000
    V7       V        0.70914    0.25143    0.83658    1.000
    V8       V        0.28752    0.25379    0.91254    1.000
    P10      P        0.75759    0.99250    0.96408    1.000
    P11      P        0.74452    0.49610    0.71342    1.000
    P12      P        0.50380    0.15920    0.89198    1.000
    O37      O        0.80510    0.39640    0.67040    1.000
    O38      O        0.68270    0.40400    0.76010    1.000
    O39      O        0.70120    0.09400    0.91720    1.000
    O40      O        0.69690    0.89450    0.00770    1.000
    O41      O        0.56570    0.22420    0.83860    1.000
    O42      O        0.43090    0.25950    0.91140    1.000
    O43      O        0.69020    0.58750    0.66050    1.000
    O44      O        0.81710    0.90230    0.91510    1.000
    O45      O        0.81370    0.08600    0.01540    1.000
    O46      O        0.80020    0.59500    0.75990    1.000
    O47      O        0.46850    0.00850    0.86000    1.000
    H7       H        0.40910    0.01400    0.85000    1.000
    O48      O        0.55070    0.11470    0.96390    1.000
    H8       H        0.59200    0.03800    0.97100    1.000
    Nb4      Nb       0.79086    0.75143    0.83658    1.000
    V9       V        0.21248    0.75379    0.91254    1.000
    P13      P        0.74241    0.49250    0.96408    1.000
    P14      P        0.75548    0.99610    0.71342    1.000
    P15      P        0.99620    0.65920    0.89198    1.000
    O49      O        0.69490    0.89640    0.67040    1.000
    O50      O        0.81730    0.90400    0.76010    1.000
    O51      O        0.79880    0.59400    0.91720    1.000
    O52      O        0.80310    0.39450    0.00770    1.000
    O53      O        0.93430    0.72420    0.83860    1.000
    O54      O        0.06910    0.75950    0.91140    1.000
    O55      O        0.80980    0.08750    0.66050    1.000
    O56      O        0.68290    0.40230    0.91510    1.000
    O57      O        0.68630    0.58600    0.01540    1.000
    O58      O        0.69980    0.09500    0.75990    1.000
    O59      O        0.03150    0.50850    0.86000    1.000
    H9       H        0.09090    0.51400    0.85000    1.000
    O60      O        0.94930    0.61470    0.96390    1.000
    H10      H        0.90800    0.53800    0.97100    1.000
    V10      V        0.28752    0.24621    0.41254    1.000
    P16      P        0.75759    0.50750    0.46408    1.000
    P17      P        0.74452    0.00390    0.21342    1.000
    P18      P        0.50380    0.34080    0.39198    1.000
    O61      O        0.80510    0.10360    0.17040    1.000
    O62      O        0.68270    0.09600    0.26010    1.000
    O63      O        0.70120    0.40600    0.41720    1.000
    O64      O        0.69690    0.60550    0.50770    1.000
    O65      O        0.56570    0.27580    0.33860    1.000
    O66      O        0.43090    0.24050    0.41140    1.000
    O67      O        0.69020    0.91250    0.16050    1.000
    O68      O        0.81710    0.59770    0.41510    1.000
    O69      O        0.81370    0.41400    0.51540    1.000
    O70      O        0.80020    0.90500    0.25990    1.000
    O71      O        0.46850    0.49150    0.36000    1.000
    H11      H        0.40910    0.48600    0.35000    1.000
    O72      O        0.55070    0.38530    0.46390    1.000
    H12      H        0.59200    0.46200    0.47100    1.000
    V11      V        0.78752    0.25379    0.58746    1.000
    P19      P        0.25759    0.99250    0.53592    1.000
    P20      P        0.24452    0.49610    0.78658    1.000
    P21      P        0.00380    0.15920    0.60802    1.000
    O73      O        0.30510    0.39640    0.82960    1.000
    O74      O        0.18270    0.40400    0.73990    1.000
    O75      O        0.20120    0.09400    0.58280    1.000
    O76      O        0.19690    0.89450    0.49230    1.000
    O77      O        0.06570    0.22420    0.66140    1.000
    O78      O        0.93090    0.25950    0.58860    1.000
    O79      O        0.19020    0.58750    0.83950    1.000
    O80      O        0.31710    0.90230    0.58490    1.000
    O81      O        0.31370    0.08600    0.48460    1.000
    O82      O        0.30020    0.59500    0.74010    1.000
    O83      O        0.96850    0.00850    0.64000    1.000
    H13      H        0.90910    0.01400    0.65000    1.000
    O84      O        0.05070    0.11470    0.53610    1.000
    H14      H        0.09200    0.03800    0.52900    1.000
    V12      V        0.71248    0.74621    0.08746    1.000
    P22      P        0.24241    0.00750    0.03592    1.000
    P23      P        0.25548    0.50390    0.28658    1.000
    P24      P        0.49620    0.84080    0.10802    1.000
    O85      O        0.19490    0.60360    0.32960    1.000
    O86      O        0.31730    0.59600    0.23990    1.000
    O87      O        0.29880    0.90600    0.08280    1.000
    O88      O        0.30310    0.10550    0.99230    1.000
    O89      O        0.43430    0.77580    0.16140    1.000
    O90      O        0.56910    0.74050    0.08860    1.000
    O91      O        0.30980    0.41250    0.33950    1.000
    O92      O        0.18290    0.09770    0.08490    1.000
    O93      O        0.18630    0.91400    0.98460    1.000
    O94      O        0.19980    0.40500    0.24010    1.000
    O95      O        0.53150    0.99150    0.14000    1.000
    H15      H        0.59090    0.98600    0.15000    1.000
    O96      O        0.44930    0.88530    0.03610    1.000
    H16      H        0.40800    0.96200    0.02900    1.000
