data_functionalizedCrystal
_audit_creation_method	'EQeq! by Chris Wilmer'
_symmetry_space_group_name_H-M	'P1'
_symmetry_Int_Tables_number	1
_symmetry_cell_setting	triclinic
loop_
_symmetry_equiv_pos_as_xyz
  x,y,z
_cell_length_a	8.793
_cell_length_b	8.793
_cell_length_c	24.53
_cell_angle_alpha	90
_cell_angle_beta	90
_cell_angle_gamma	120
loop_
_atom_site_label
_atom_site_type_symbol
_atom_site_fract_x
_atom_site_fract_y
_atom_site_fract_z
_atom_site_charge
Mof_O 	O 	0.5638	0.306	0.7236	-0.226
Mof_O 	O 	0.9112	0.658	0.7866	-0.415
Mof_O 	O 	0.7405	0.6602	0.7195	-0.134
Mof_O 	O 	0.7682	0.3167	0.7809	-0.512
Mof_C 	C 	0.7033	0.3827	0.7505	0.267
Mof_C 	C 	0.7888	0.5841	0.7517	0.24
Mof_O 	O 	0.694	0.2578	0.05693	-0.179
Mof_O 	O 	0.342	0.2532	0.11993	-0.577
Mof_O 	O 	0.3398	0.0803	0.05283	-0.275
Mof_O 	O 	0.6833	0.4515	0.11423	-0.493
Mof_C 	C 	0.6173	0.3206	0.08383	0.235
Mof_C 	C 	0.4159	0.2047	0.08503	0.255
Mof_O 	O 	0.7422	0.4362	0.39027	-0.14
Mof_O 	O 	0.7468	0.0888	0.45327	-0.573
Mof_O 	O 	0.9197	0.2595	0.38617	-0.128
Mof_O 	O 	0.5485	0.2318	0.44757	-0.56
Mof_C 	C 	0.6794	0.2967	0.41717	0.244
Mof_C 	C 	0.7953	0.2112	0.41837	0.251
Mof_O 	O 	0.4362	0.694	0.7236	-0.155
Mof_O 	O 	0.0888	0.342	0.7866	-0.627
Mof_O 	O 	0.2595	0.3398	0.7195	-0.248
Mof_O 	O 	0.2318	0.6833	0.7809	-0.529
Mof_C 	C 	0.2967	0.6173	0.7505	0.23
Mof_C 	C 	0.2112	0.4159	0.7517	0.259
Mof_O 	O 	0.306	0.7422	0.05693	-0.178
Mof_O 	O 	0.658	0.7468	0.11993	-0.471
Mof_O 	O 	0.6602	0.9197	0.05283	-0.074
Mof_O 	O 	0.3167	0.5485	0.11423	-0.555
Mof_C 	C 	0.3827	0.6794	0.08383	0.262
Mof_C 	C 	0.5841	0.7953	0.08503	0.241
Mof_O 	O 	0.2578	0.5638	0.39027	-0.211
Mof_O 	O 	0.2532	0.9112	0.45327	-0.466
Mof_O 	O 	0.0803	0.7405	0.38617	-0.216
Mof_O 	O 	0.4515	0.7682	0.44757	-0.481
Mof_C 	C 	0.3206	0.7033	0.41717	0.254
Mof_C 	C 	0.2047	0.7888	0.41837	0.246
Mof_O 	O 	0.306	0.5638	0.60973	-0.225
Mof_O 	O 	0.658	0.9112	0.54673	-0.415
Mof_O 	O 	0.6602	0.7405	0.61383	-0.134
Mof_O 	O 	0.3167	0.7682	0.55243	-0.513
Mof_C 	C 	0.3827	0.7033	0.58283	0.267
Mof_C 	C 	0.5841	0.7888	0.58163	0.24
Mof_O 	O 	0.2578	0.694	0.2764	-0.175
Mof_O 	O 	0.2532	0.342	0.2134	-0.576
Mof_O 	O 	0.0803	0.3398	0.2805	-0.273
Mof_O 	O 	0.4515	0.6833	0.2191	-0.491
Mof_C 	C 	0.3206	0.6173	0.2495	0.236
Mof_C 	C 	0.2047	0.4159	0.2483	0.255
Mof_O 	O 	0.4362	0.7422	0.94307	-0.135
Mof_O 	O 	0.0888	0.7468	0.88007	-0.573
Mof_O 	O 	0.2595	0.9197	0.94717	-0.122
Mof_O 	O 	0.2318	0.5485	0.88577	-0.559
Mof_C 	C 	0.2967	0.6794	0.91617	0.245
Mof_C 	C 	0.2112	0.7953	0.91497	0.251
Mof_O 	O 	0.694	0.4362	0.60973	-0.155
Mof_O 	O 	0.342	0.0888	0.54673	-0.627
Mof_O 	O 	0.3398	0.2595	0.61383	-0.248
Mof_O 	O 	0.6833	0.2318	0.55243	-0.529
Mof_C 	C 	0.6173	0.2967	0.58283	0.23
Mof_C 	C 	0.4159	0.2112	0.58163	0.259
Mof_O 	O 	0.7422	0.306	0.2764	-0.176
Mof_O 	O 	0.7468	0.658	0.2134	-0.47
Mof_O 	O 	0.9197	0.6602	0.2805	-0.071
Mof_O 	O 	0.5485	0.3167	0.2191	-0.554
Mof_C 	C 	0.6794	0.3827	0.2495	0.262
Mof_C 	C 	0.7953	0.5841	0.2483	0.241
Mof_O 	O 	0.5638	0.2578	0.94307	-0.204
Mof_O 	O 	0.9112	0.2532	0.88007	-0.464
Mof_O 	O 	0.7405	0.0803	0.94717	-0.208
Mof_O 	O 	0.7682	0.4515	0.88577	-0.479
Mof_C 	C 	0.7033	0.3206	0.91617	0.256
Mof_C 	C 	0.7888	0.2047	0.91497	0.246
Mof_Cd	Cd	0.5	0.5	0.66667	0.536
Mof_Cd	Cd	0.5	0	-0	0.371
Mof_Cd	Cd	2.45529e-17	0.5	0.33333	0.386
Mof_Zr	Zr	2.67724e-17	0.5	0.83333	3.171
Mof_Zr	Zr	0.5	0.5	0.16667	3.192
Mof_Zr	Zr	0.5	0	0.5	3.171
_end
