data_functionalizedCrystal
_audit_creation_method	'EQeq! by Chris Wilmer'
_symmetry_space_group_name_H-M	'P1'
_symmetry_Int_Tables_number	1
_symmetry_cell_setting	triclinic
loop_
_symmetry_equiv_pos_as_xyz
  x,y,z
_cell_length_a	42.4947
_cell_length_b	42.4947
_cell_length_c	16.3378
_cell_angle_alpha	90
_cell_angle_beta	90
_cell_angle_gamma	90
loop_
_atom_site_label
_atom_site_type_symbol
_atom_site_fract_x
_atom_site_fract_y
_atom_site_fract_z
_atom_site_charge
Mof_La	La	0.20761	0.26934	0.1059	1.739
Mof_La	La	0.37493	0.46571	0.20254	1.864
Mof_Cu	Cu	0.26099	0.39296	0.20019	0.879
Mof_Cu	Cu	0.13142	0.17181	0.25903	0.872
Mof_Cu	Cu	0.26828	0.19393	0.85315	0.689
Mof_O 	O 	0.22245	0.32566	0.067	-0.537
Mof_O 	O 	0.23485	0.30245	0.2167	-0.378
Mof_O 	O 	0.15576	0.23881	0.105	-0.446
Mof_O 	O 	0.19423	0.24045	0.2368	-0.382
Mof_O 	O 	0.21377	0.21749	0.0357	-0.436
Mof_O 	O 	0.24715	0.26931	0.9869	-0.303
Mof_O 	O 	0.31803	0.46166	0.1373	-0.376
Mof_O 	O 	0.33149	0.4434	0.2919	-0.364
Mof_O 	O 	0.10441	0.08449	0.221	-0.413
Mof_O 	O 	0.13705	0.08743	0.3625	-0.354
Mof_O 	O 	0.26764	0.12472	0.6939	-0.461
Mof_O 	O 	0.2994	0.17391	0.6291	-0.225
Mof_O 	O 	0.24058	0.37235	0.1024	-0.522
Mof_O 	O 	0.27855	0.42714	0.1313	-0.389
Mof_N 	N 	0.25346	0.35234	0.2518	-0.244
Mof_N 	N 	0.29034	0.40737	0.2814	-0.245
Mof_C 	C 	0.23428	0.34362	0.1185	0.267
Mof_C 	C 	0.241	0.3317	0.204	0.086
Mof_C 	C 	0.3015	0.4414	0.167	0.265
Mof_C 	C 	0.309	0.43	0.255	0.102
Mof_C 	C 	0.2619	0.3438	0.3342	0.014
Mof_H 	H 	0.2803	0.3303	0.3332	0.039
Mof_H 	H 	0.2448	0.3322	0.3594	0.019
Mof_C 	C 	0.2689	0.3727	0.3831	-0.107
Mof_H 	H 	0.2499	0.3853	0.3825	0.031
Mof_H 	H 	0.2719	0.3659	0.4392	0.06
Mof_C 	C 	0.2957	0.3585	0.3591	-0.162
Mof_H 	H 	0.3021	0.35	0.4117	0.072
Mof_H 	H 	0.3113	0.3521	0.3189	0.04
Mof_C 	C 	0.2949	0.3937	0.3638	0.015
Mof_H 	H 	0.3146	0.3822	0.3655	0.039
Mof_H 	H 	0.2959	0.4104	0.4041	0.019
Mof_O 	O 	0.12933	0.19843	0.1602	-0.405
Mof_O 	O 	0.11046	0.13634	0.2029	-0.395
Mof_N 	N 	0.16316	0.2019	0.2951	-0.241
Mof_N 	N 	0.14146	0.14128	0.3409	-0.247
Mof_C 	C 	0.1505	0.2192	0.1598	0.272
Mof_C 	C 	0.171	0.2209	0.2382	0.089
Mof_C 	C 	0.1144	0.1103	0.243	0.238
Mof_C 	C 	0.1327	0.112	0.3226	0.089
Mof_C 	C 	0.1801	0.2004	0.371	-0.04
Mof_H 	H 	0.183	0.2215	0.3924	-0.002
Mof_H 	H 	0.2008	0.1915	0.3614	0.015
Mof_C 	C 	0.1631	0.181	0.4324	-0.089
Mof_H 	H 	0.1419	0.1891	0.4374	-0.016
Mof_H 	H 	0.1733	0.1837	0.485	-0.087
Mof_C 	C 	0.1611	0.1462	0.4147	-0.05
Mof_H 	H 	0.1821	0.1377	0.4055	0.011
Mof_H 	H 	0.1519	0.1353	0.461	0.016
Mof_O 	O 	0.2384	0.18856	0.9425	-0.44
Mof_O 	O 	0.2581	0.15208	0.8065	-0.485
Mof_N 	N 	0.2703	0.23673	0.8909	1.013
Mof_N 	N 	0.2901	0.20068	0.7494	1.683
Mof_C 	C 	0.2331	0.2142	0.9791	0.306
Mof_C 	C 	0.2523	0.2432	0.9507	-0.338
Mof_C 	C 	0.2697	0.149	0.739	0.388
Mof_C 	C 	0.2883	0.177	0.6996	-0.493
Mof_C 	C 	0.2897	0.2615	0.8552	-11.11
Mof_H 	H 	0.2974	0.2751	0.8984	3.562
Mof_H 	H 	0.2768	0.2742	0.8188	2.771
Mof_C 	C 	0.3176	0.2482	0.8072	2.271
Mof_H 	H 	0.3296	0.2343	0.8426	0.856
Mof_H 	H 	0.3313	0.2654	0.7911	5.283
Mof_C 	C 	0.3047	0.2496	0.779	19.55
Mof_H 	H 	0.3009	0.2674	0.7437	-6.621
Mof_H 	H 	0.3266	0.2518	0.7949	-11.474
Mof_C 	C 	0.3074	0.2295	0.7287	-16.429
Mof_H 	H 	0.2942	0.2428	0.6949	4.246
Mof_H 	H 	0.3259	0.224	0.6971	5.534
Mof_La	La	0.70761	0.76934	0.6059	1.726
Mof_La	La	0.87493	0.96571	0.70254	1.877
Mof_Cu	Cu	0.76099	0.89296	0.70019	0.878
Mof_Cu	Cu	0.63142	0.67181	0.75903	0.87
Mof_Cu	Cu	0.76828	0.69393	0.35315	0.69
Mof_O 	O 	0.72245	0.82566	0.567	-0.543
Mof_O 	O 	0.73485	0.80245	0.7167	-0.378
Mof_O 	O 	0.65576	0.73881	0.605	-0.449
Mof_O 	O 	0.69423	0.74045	0.7368	-0.382
Mof_O 	O 	0.71377	0.71749	0.5357	-0.449
Mof_O 	O 	0.74715	0.76931	0.4869	-0.296
Mof_O 	O 	0.81803	0.96166	0.6373	-0.378
Mof_O 	O 	0.83149	0.9434	0.7919	-0.366
Mof_O 	O 	0.60441	0.58449	0.721	-0.415
Mof_O 	O 	0.63705	0.58743	0.8625	-0.353
Mof_O 	O 	0.76764	0.62472	0.1939	-0.46
Mof_O 	O 	0.7994	0.67391	0.1291	-0.227
Mof_O 	O 	0.74058	0.87235	0.6024	-0.527
Mof_O 	O 	0.77855	0.92714	0.6313	-0.39
Mof_N 	N 	0.75346	0.85234	0.7518	-0.243
Mof_N 	N 	0.79034	0.90737	0.7814	-0.245
Mof_C 	C 	0.73428	0.84362	0.6185	0.268
Mof_C 	C 	0.741	0.8317	0.704	0.085
Mof_C 	C 	0.8015	0.9414	0.667	0.266
Mof_C 	C 	0.809	0.93	0.755	0.102
Mof_C 	C 	0.7619	0.8438	0.8342	0.014
Mof_H 	H 	0.7803	0.8303	0.8332	0.039
Mof_H 	H 	0.7448	0.8322	0.8594	0.02
Mof_C 	C 	0.7689	0.8727	0.8831	-0.107
Mof_H 	H 	0.7499	0.8853	0.8825	0.031
Mof_H 	H 	0.7719	0.8659	0.9392	0.062
Mof_C 	C 	0.7957	0.8585	0.8591	-0.163
Mof_H 	H 	0.8021	0.85	0.9117	0.074
Mof_H 	H 	0.8113	0.8521	0.8189	0.041
Mof_C 	C 	0.7949	0.8937	0.8638	0.015
Mof_H 	H 	0.8146	0.8822	0.8655	0.04
Mof_H 	H 	0.7959	0.9104	0.9041	0.02
Mof_O 	O 	0.62933	0.69843	0.6602	-0.408
Mof_O 	O 	0.61046	0.63634	0.7029	-0.398
Mof_N 	N 	0.66316	0.7019	0.7951	-0.241
Mof_N 	N 	0.64146	0.64128	0.8409	-0.247
Mof_C 	C 	0.6505	0.7192	0.6598	0.273
Mof_C 	C 	0.671	0.7209	0.7382	0.088
Mof_C 	C 	0.6144	0.6103	0.743	0.237
Mof_C 	C 	0.6327	0.612	0.8226	0.087
Mof_C 	C 	0.6801	0.7004	0.871	-0.04
Mof_H 	H 	0.683	0.7215	0.8924	-0.001
Mof_H 	H 	0.7008	0.6915	0.8614	0.016
Mof_C 	C 	0.6631	0.681	0.9324	-0.089
Mof_H 	H 	0.6419	0.6891	0.9374	-0.015
Mof_H 	H 	0.6733	0.6837	0.985	-0.084
Mof_C 	C 	0.6611	0.6462	0.9147	-0.051
Mof_H 	H 	0.6821	0.6377	0.9055	0.012
Mof_H 	H 	0.6519	0.6353	0.961	0.018
Mof_O 	O 	0.7384	0.68856	0.4425	-0.44
Mof_O 	O 	0.7581	0.65208	0.3065	-0.482
Mof_N 	N 	0.7703	0.73673	0.3909	1.007
Mof_N 	N 	0.7901	0.70068	0.2494	1.673
Mof_C 	C 	0.7331	0.7142	0.4791	0.322
Mof_C 	C 	0.7523	0.7432	0.4507	-0.339
Mof_C 	C 	0.7697	0.649	0.239	0.387
Mof_C 	C 	0.7883	0.677	0.1996	-0.489
Mof_C 	C 	0.7897	0.7615	0.3552	-11.051
Mof_H 	H 	0.7974	0.7751	0.3984	3.546
Mof_H 	H 	0.7768	0.7742	0.3188	2.756
Mof_C 	C 	0.8176	0.7482	0.3072	2.259
Mof_H 	H 	0.8296	0.7343	0.3426	0.854
Mof_H 	H 	0.8313	0.7654	0.2911	5.257
Mof_C 	C 	0.8047	0.7496	0.279	19.445
Mof_H 	H 	0.8009	0.7674	0.2437	-6.586
Mof_H 	H 	0.8266	0.7518	0.2949	-11.413
Mof_C 	C 	0.8074	0.7295	0.2287	-16.341
Mof_H 	H 	0.7942	0.7428	0.1949	4.222
Mof_H 	H 	0.8259	0.724	0.1971	5.504
Mof_La	La	0.29239	0.73066	0.6059	1.726
Mof_La	La	0.12507	0.53429	0.70254	1.878
Mof_Cu	Cu	0.23901	0.60704	0.70019	0.878
Mof_Cu	Cu	0.36858	0.82819	0.75903	0.87
Mof_Cu	Cu	0.23172	0.80607	0.35315	0.69
Mof_O 	O 	0.27755	0.67434	0.567	-0.543
Mof_O 	O 	0.26515	0.69755	0.7167	-0.378
Mof_O 	O 	0.34424	0.76119	0.605	-0.449
Mof_O 	O 	0.30577	0.75955	0.7368	-0.382
Mof_O 	O 	0.28623	0.78251	0.5357	-0.449
Mof_O 	O 	0.25285	0.73069	0.4869	-0.296
Mof_O 	O 	0.18197	0.53834	0.6373	-0.378
Mof_O 	O 	0.16851	0.5566	0.7919	-0.366
Mof_O 	O 	0.39559	0.91551	0.721	-0.416
Mof_O 	O 	0.36295	0.91257	0.8625	-0.353
Mof_O 	O 	0.23236	0.87528	0.1939	-0.46
Mof_O 	O 	0.2006	0.82609	0.1291	-0.227
Mof_O 	O 	0.25942	0.62765	0.6024	-0.527
Mof_O 	O 	0.22145	0.57286	0.6313	-0.39
Mof_N 	N 	0.24654	0.64766	0.7518	-0.243
Mof_N 	N 	0.20966	0.59263	0.7814	-0.245
Mof_C 	C 	0.26572	0.65638	0.6185	0.268
Mof_C 	C 	0.259	0.6683	0.704	0.085
Mof_C 	C 	0.1985	0.5586	0.667	0.266
Mof_C 	C 	0.191	0.57	0.755	0.102
Mof_C 	C 	0.2381	0.6562	0.8342	0.014
Mof_H 	H 	0.2197	0.6697	0.8332	0.039
Mof_H 	H 	0.2552	0.6678	0.8594	0.02
Mof_C 	C 	0.2311	0.6273	0.8831	-0.107
Mof_H 	H 	0.2501	0.6147	0.8825	0.031
Mof_H 	H 	0.2281	0.6341	0.9392	0.062
Mof_C 	C 	0.2043	0.6415	0.8591	-0.163
Mof_H 	H 	0.1979	0.65	0.9117	0.074
Mof_H 	H 	0.1887	0.6479	0.8189	0.041
Mof_C 	C 	0.2051	0.6063	0.8638	0.015
Mof_H 	H 	0.1854	0.6178	0.8655	0.04
Mof_H 	H 	0.2041	0.5896	0.9041	0.02
Mof_O 	O 	0.37067	0.80157	0.6602	-0.408
Mof_O 	O 	0.38954	0.86366	0.7029	-0.398
Mof_N 	N 	0.33684	0.7981	0.7951	-0.241
Mof_N 	N 	0.35854	0.85872	0.8409	-0.247
Mof_C 	C 	0.3495	0.7808	0.6598	0.273
Mof_C 	C 	0.329	0.7791	0.7382	0.088
Mof_C 	C 	0.3856	0.8897	0.743	0.237
Mof_C 	C 	0.3673	0.888	0.8226	0.087
Mof_C 	C 	0.3199	0.7996	0.871	-0.04
Mof_H 	H 	0.317	0.7785	0.8924	-0.001
Mof_H 	H 	0.2992	0.8085	0.8614	0.016
Mof_C 	C 	0.3369	0.819	0.9324	-0.089
Mof_H 	H 	0.3581	0.8109	0.9374	-0.015
Mof_H 	H 	0.3267	0.8163	0.985	-0.084
Mof_C 	C 	0.3389	0.8538	0.9147	-0.051
Mof_H 	H 	0.3179	0.8623	0.9055	0.013
Mof_H 	H 	0.3481	0.8647	0.961	0.018
Mof_O 	O 	0.2616	0.81144	0.4425	-0.44
Mof_O 	O 	0.2419	0.84792	0.3065	-0.482
Mof_N 	N 	0.2297	0.76327	0.3909	1.007
Mof_N 	N 	0.2099	0.79932	0.2494	1.673
Mof_C 	C 	0.2669	0.7858	0.4791	0.322
Mof_C 	C 	0.2477	0.7568	0.4507	-0.339
Mof_C 	C 	0.2303	0.851	0.239	0.386
Mof_C 	C 	0.2117	0.823	0.1996	-0.489
Mof_C 	C 	0.2103	0.7385	0.3552	-11.051
Mof_H 	H 	0.2026	0.7249	0.3984	3.546
Mof_H 	H 	0.2232	0.7258	0.3188	2.756
Mof_C 	C 	0.1824	0.7518	0.3072	2.259
Mof_H 	H 	0.1704	0.7657	0.3426	0.854
Mof_H 	H 	0.1687	0.7346	0.2911	5.257
Mof_C 	C 	0.1953	0.7504	0.279	19.445
Mof_H 	H 	0.1991	0.7326	0.2437	-6.585
Mof_H 	H 	0.1734	0.7482	0.2949	-11.413
Mof_C 	C 	0.1926	0.7705	0.2287	-16.34
Mof_H 	H 	0.2058	0.7572	0.1949	4.222
Mof_H 	H 	0.1741	0.776	0.1971	5.504
Mof_La	La	0.79239	0.23066	0.1059	1.739
Mof_La	La	0.62507	0.03429	0.20254	1.86
Mof_Cu	Cu	0.73901	0.10704	0.20019	0.878
Mof_Cu	Cu	0.86858	0.32819	0.25903	0.871
Mof_Cu	Cu	0.73172	0.30607	0.85315	0.688
Mof_O 	O 	0.77755	0.17434	0.067	-0.538
Mof_O 	O 	0.76515	0.19755	0.2167	-0.379
Mof_O 	O 	0.84424	0.26119	0.105	-0.447
Mof_O 	O 	0.80577	0.25955	0.2368	-0.383
Mof_O 	O 	0.78623	0.28251	0.0357	-0.437
Mof_O 	O 	0.75285	0.23069	0.9869	-0.304
Mof_O 	O 	0.68197	0.03834	0.1373	-0.376
Mof_O 	O 	0.66851	0.0566	0.2919	-0.365
Mof_O 	O 	0.89559	0.41551	0.221	-0.414
Mof_O 	O 	0.86295	0.41257	0.3625	-0.355
Mof_O 	O 	0.73236	0.37528	0.6939	-0.462
Mof_O 	O 	0.7006	0.32609	0.6291	-0.226
Mof_O 	O 	0.75942	0.12765	0.1024	-0.523
Mof_O 	O 	0.72145	0.07286	0.1313	-0.389
Mof_N 	N 	0.74654	0.14766	0.2518	-0.244
Mof_N 	N 	0.70966	0.09263	0.2814	-0.245
Mof_C 	C 	0.76572	0.15638	0.1185	0.267
Mof_C 	C 	0.759	0.1683	0.204	0.086
Mof_C 	C 	0.6985	0.0586	0.167	0.265
Mof_C 	C 	0.691	0.07	0.255	0.102
Mof_C 	C 	0.7381	0.1562	0.3342	0.014
Mof_H 	H 	0.7197	0.1697	0.3332	0.039
Mof_H 	H 	0.7552	0.1678	0.3594	0.019
Mof_C 	C 	0.7311	0.1273	0.3831	-0.107
Mof_H 	H 	0.7501	0.1147	0.3825	0.031
Mof_H 	H 	0.7281	0.1341	0.4392	0.06
Mof_C 	C 	0.7043	0.1415	0.3591	-0.162
Mof_H 	H 	0.6979	0.15	0.4117	0.072
Mof_H 	H 	0.6887	0.1479	0.3189	0.04
Mof_C 	C 	0.7051	0.1063	0.3638	0.015
Mof_H 	H 	0.6854	0.1178	0.3655	0.039
Mof_H 	H 	0.7041	0.0896	0.4041	0.019
Mof_O 	O 	0.87067	0.30157	0.1602	-0.405
Mof_O 	O 	0.88954	0.36366	0.2029	-0.395
Mof_N 	N 	0.83684	0.2981	0.2951	-0.241
Mof_N 	N 	0.85854	0.35872	0.3409	-0.247
Mof_C 	C 	0.8495	0.2808	0.1598	0.272
Mof_C 	C 	0.829	0.2791	0.2382	0.089
Mof_C 	C 	0.8856	0.3897	0.243	0.238
Mof_C 	C 	0.8673	0.388	0.3226	0.089
Mof_C 	C 	0.8199	0.2996	0.371	-0.039
Mof_H 	H 	0.817	0.2785	0.3924	-0.002
Mof_H 	H 	0.7992	0.3085	0.3614	0.015
Mof_C 	C 	0.8369	0.319	0.4324	-0.089
Mof_H 	H 	0.8581	0.3109	0.4374	-0.016
Mof_H 	H 	0.8267	0.3163	0.485	-0.086
Mof_C 	C 	0.8389	0.3538	0.4147	-0.05
Mof_H 	H 	0.8179	0.3623	0.4055	0.011
Mof_H 	H 	0.8481	0.3647	0.461	0.016
Mof_O 	O 	0.7616	0.31144	0.9425	-0.44
Mof_O 	O 	0.7419	0.34792	0.8065	-0.484
Mof_N 	N 	0.7297	0.26327	0.8909	1.013
Mof_N 	N 	0.7099	0.29932	0.7494	1.684
Mof_C 	C 	0.7669	0.2858	0.9791	0.306
Mof_C 	C 	0.7477	0.2568	0.9507	-0.338
Mof_C 	C 	0.7303	0.351	0.739	0.388
Mof_C 	C 	0.7117	0.323	0.6996	-0.493
Mof_C 	C 	0.7103	0.2385	0.8552	-11.113
Mof_H 	H 	0.7026	0.2249	0.8984	3.563
Mof_H 	H 	0.7232	0.2258	0.8188	2.772
Mof_C 	C 	0.6824	0.2518	0.8072	2.272
Mof_H 	H 	0.6704	0.2657	0.8426	0.856
Mof_H 	H 	0.6687	0.2346	0.7911	5.284
Mof_C 	C 	0.6953	0.2504	0.779	19.555
Mof_H 	H 	0.6991	0.2326	0.7437	-6.622
Mof_H 	H 	0.6734	0.2482	0.7949	-11.477
Mof_C 	C 	0.6926	0.2705	0.7287	-16.434
Mof_H 	H 	0.7058	0.2572	0.6949	4.247
Mof_H 	H 	0.6741	0.276	0.6971	5.536
Mof_La	La	0.48066	0.45761	0.3559	1.711
Mof_La	La	0.28429	0.62493	0.45254	1.876
Mof_Cu	Cu	0.35704	0.51099	0.45019	0.878
Mof_Cu	Cu	0.57819	0.38142	0.50903	0.87
Mof_Cu	Cu	0.55607	0.51828	0.10315	0.663
Mof_O 	O 	0.42434	0.47245	0.317	-0.544
Mof_O 	O 	0.44755	0.48485	0.4667	-0.377
Mof_O 	O 	0.51119	0.40576	0.355	-0.451
Mof_O 	O 	0.50955	0.44423	0.4868	-0.38
Mof_O 	O 	0.53251	0.46377	0.2857	-0.451
Mof_O 	O 	0.48069	0.49715	0.2369	-0.284
Mof_O 	O 	0.28834	0.56803	0.3873	-0.378
Mof_O 	O 	0.3066	0.58149	0.5419	-0.366
Mof_O 	O 	0.66551	0.35441	0.471	-0.415
Mof_O 	O 	0.66257	0.38705	0.6125	-0.356
Mof_O 	O 	0.62528	0.51764	0.9439	-0.466
Mof_O 	O 	0.57609	0.5494	0.8791	-0.203
Mof_O 	O 	0.37765	0.49058	0.3524	-0.527
Mof_O 	O 	0.32286	0.52855	0.3813	-0.391
Mof_N 	N 	0.39766	0.50346	0.5018	-0.243
Mof_N 	N 	0.34263	0.54034	0.5314	-0.245
Mof_C 	C 	0.40638	0.48428	0.3685	0.268
Mof_C 	C 	0.4183	0.491	0.454	0.084
Mof_C 	C 	0.3086	0.5515	0.417	0.266
Mof_C 	C 	0.32	0.559	0.505	0.102
Mof_C 	C 	0.4062	0.5119	0.5842	0.013
Mof_H 	H 	0.4197	0.5303	0.5832	0.04
Mof_H 	H 	0.4178	0.4948	0.6094	0.019
Mof_C 	C 	0.3773	0.5189	0.6331	-0.106
Mof_H 	H 	0.3647	0.4999	0.6325	0.03
Mof_H 	H 	0.3841	0.5219	0.6892	0.06
Mof_C 	C 	0.3915	0.5457	0.6091	-0.162
Mof_H 	H 	0.4	0.5521	0.6617	0.072
Mof_H 	H 	0.3979	0.5613	0.5689	0.04
Mof_C 	C 	0.3563	0.5449	0.6138	0.015
Mof_H 	H 	0.3678	0.5646	0.6155	0.039
Mof_H 	H 	0.3396	0.5459	0.6541	0.019
Mof_O 	O 	0.55157	0.37933	0.4102	-0.409
Mof_O 	O 	0.61366	0.36046	0.4529	-0.397
Mof_N 	N 	0.5481	0.41316	0.5451	-0.24
Mof_N 	N 	0.60872	0.39146	0.5909	-0.246
Mof_C 	C 	0.5308	0.4005	0.4098	0.273
Mof_C 	C 	0.5291	0.421	0.4882	0.087
Mof_C 	C 	0.6397	0.3644	0.493	0.238
Mof_C 	C 	0.638	0.3827	0.5726	0.088
Mof_C 	C 	0.5496	0.4301	0.621	-0.051
Mof_H 	H 	0.5285	0.433	0.6424	-0.003
Mof_H 	H 	0.5585	0.4508	0.6114	0.017
Mof_C 	C 	0.569	0.4131	0.6824	-0.069
Mof_H 	H 	0.5609	0.3919	0.6874	-0.027
Mof_H 	H 	0.5663	0.4233	0.735	-0.109
Mof_C 	C 	0.6038	0.4111	0.6647	-0.06
Mof_H 	H 	0.6123	0.4321	0.6555	0.013
Mof_H 	H 	0.6147	0.4019	0.711	0.016
Mof_O 	O 	0.56144	0.4884	0.1925	-0.447
Mof_O 	O 	0.59792	0.5081	0.0565	-0.496
Mof_N 	N 	0.51327	0.5203	0.1409	1.181
Mof_N 	N 	0.54932	0.5401	0.9994	1.941
Mof_C 	C 	0.5358	0.4831	0.2291	0.332
Mof_C 	C 	0.5068	0.5023	0.2007	-0.399
Mof_C 	C 	0.601	0.5197	0.989	0.405
Mof_C 	C 	0.573	0.5383	0.9496	-0.571
Mof_C 	C 	0.4885	0.5397	0.1052	-12.584
Mof_H 	H 	0.4749	0.5474	0.1484	4.035
Mof_H 	H 	0.4758	0.5268	0.0688	3.135
Mof_C 	C 	0.5018	0.5676	0.0572	2.56
Mof_H 	H 	0.5157	0.5796	0.0926	0.977
Mof_H 	H 	0.4846	0.5813	0.0411	5.991
Mof_C 	C 	0.5004	0.5547	0.029	22.177
Mof_H 	H 	0.4826	0.5509	0.9937	-7.506
Mof_H 	H 	0.4982	0.5766	0.0449	-13.006
Mof_C 	C 	0.5205	0.5574	0.9787	-18.615
Mof_H 	H 	0.5072	0.5442	0.9449	4.808
Mof_H 	H 	0.526	0.5759	0.9471	6.271
Mof_La	La	0.98066	0.95761	0.8559	1.727
Mof_La	La	0.78429	0.12493	0.95254	1.852
Mof_Cu	Cu	0.85704	0.01099	0.95019	0.876
Mof_Cu	Cu	0.07819	0.88142	0.00903	0.866
Mof_Cu	Cu	0.05607	0.01828	0.60315	0.688
Mof_O 	O 	0.92434	0.97245	0.817	-0.543
Mof_O 	O 	0.94755	0.98485	0.9667	-0.378
Mof_O 	O 	0.01119	0.90576	0.855	-0.447
Mof_O 	O 	0.00955	0.94423	0.9868	-0.382
Mof_O 	O 	0.03251	0.96377	0.7857	-0.449
Mof_O 	O 	0.98069	0.99715	0.7369	-0.294
Mof_O 	O 	0.78834	0.06803	0.8873	-0.377
Mof_O 	O 	0.8066	0.08149	0.0419	-0.363
Mof_O 	O 	0.16551	0.85441	0.971	-0.411
Mof_O 	O 	0.16257	0.88705	0.1125	-0.352
Mof_O 	O 	0.12528	0.01764	0.4439	-0.461
Mof_O 	O 	0.07609	0.0494	0.3791	-0.225
Mof_O 	O 	0.87765	0.99058	0.8524	-0.526
Mof_O 	O 	0.82286	0.02855	0.8813	-0.39
Mof_N 	N 	0.89766	0.00346	0.0018	-0.243
Mof_N 	N 	0.84263	0.04034	0.0314	-0.244
Mof_C 	C 	0.90638	0.98428	0.8685	0.268
Mof_C 	C 	0.9183	0.991	0.954	0.085
Mof_C 	C 	0.8086	0.0515	0.917	0.26
Mof_C 	C 	0.82	0.059	0.005	0.107
Mof_C 	C 	0.9062	0.0119	0.0842	0.015
Mof_H 	H 	0.9197	0.0303	0.0832	0.04
Mof_H 	H 	0.9178	0.9948	0.1094	0.016
Mof_C 	C 	0.8773	0.0189	0.1331	-0.096
Mof_H 	H 	0.8647	0.9999	0.1325	0.025
Mof_H 	H 	0.8841	0.0219	0.1892	0.057
Mof_C 	C 	0.8915	0.0457	0.1091	-0.17
Mof_H 	H 	0.9	0.0521	0.1617	0.075
Mof_H 	H 	0.8979	0.0613	0.0689	0.044
Mof_C 	C 	0.8563	0.0449	0.1138	0.012
Mof_H 	H 	0.8678	0.0646	0.1155	0.042
Mof_H 	H 	0.8396	0.0459	0.1541	0.02
Mof_O 	O 	0.05157	0.87933	0.9102	-0.403
Mof_O 	O 	0.11366	0.86046	0.9529	-0.395
Mof_N 	N 	0.0481	0.91316	0.0451	-0.246
Mof_N 	N 	0.10872	0.89146	0.0909	-0.246
Mof_C 	C 	0.0308	0.9005	0.9098	0.271
Mof_C 	C 	0.0291	0.921	0.9882	0.096
Mof_C 	C 	0.1397	0.8644	0.993	0.247
Mof_C 	C 	0.138	0.8827	0.0726	0.079
Mof_C 	C 	0.0496	0.9301	0.121	-0.039
Mof_H 	H 	0.0285	0.933	0.1424	-0.004
Mof_H 	H 	0.0585	0.9508	0.1114	0.013
Mof_C 	C 	0.069	0.9131	0.1824	-0.088
Mof_H 	H 	0.0609	0.8919	0.1874	-0.017
Mof_H 	H 	0.0663	0.9233	0.235	-0.088
Mof_C 	C 	0.1038	0.9111	0.1647	-0.051
Mof_H 	H 	0.1123	0.9321	0.1555	0.011
Mof_H 	H 	0.1147	0.9019	0.211	0.016
Mof_O 	O 	0.06144	0.9884	0.6925	-0.44
Mof_O 	O 	0.09792	0.0081	0.5565	-0.483
Mof_N 	N 	0.01327	0.0203	0.6409	1.02
Mof_N 	N 	0.04932	0.0401	0.4994	1.692
Mof_C 	C 	0.0358	0.9831	0.7291	0.324
Mof_C 	C 	0.0068	0.0023	0.7007	-0.345
Mof_C 	C 	0.101	0.0197	0.489	0.388
Mof_C 	C 	0.073	0.0383	0.4496	-0.495
Mof_C 	C 	0.9885	0.0397	0.6052	-11.159
Mof_H 	H 	0.9749	0.0474	0.6484	3.58
Mof_H 	H 	0.9758	0.0268	0.5688	2.783
Mof_C 	C 	0.0018	0.0676	0.5572	2.281
Mof_H 	H 	0.0157	0.0796	0.5926	0.863
Mof_H 	H 	0.9846	0.0813	0.5411	5.31
Mof_C 	C 	0.0004	0.0547	0.529	19.637
Mof_H 	H 	0.9826	0.0509	0.4937	-6.649
Mof_H 	H 	0.9982	0.0766	0.5449	-11.526
Mof_C 	C 	0.0205	0.0574	0.4787	-16.502
Mof_H 	H 	0.0072	0.0442	0.4449	4.265
Mof_H 	H 	0.026	0.0759	0.4471	5.56
Mof_La	La	0.01934	0.54239	0.8559	1.729
Mof_La	La	0.21571	0.37507	0.95254	1.855
Mof_Cu	Cu	0.14296	0.48901	0.95019	0.877
Mof_Cu	Cu	0.92181	0.61858	0.00903	0.867
Mof_Cu	Cu	0.94393	0.48172	0.60315	0.692
Mof_O 	O 	0.07566	0.52755	0.817	-0.543
Mof_O 	O 	0.05245	0.51515	0.9667	-0.378
Mof_O 	O 	0.98881	0.59424	0.855	-0.447
Mof_O 	O 	0.99045	0.55577	0.9868	-0.383
Mof_O 	O 	0.96749	0.53623	0.7857	-0.448
Mof_O 	O 	0.01931	0.50285	0.7369	-0.297
Mof_O 	O 	0.21166	0.43197	0.8873	-0.377
Mof_O 	O 	0.1934	0.41851	0.0419	-0.363
Mof_O 	O 	0.83449	0.64559	0.971	-0.411
Mof_O 	O 	0.83743	0.61295	0.1125	-0.352
Mof_O 	O 	0.87472	0.48236	0.4439	-0.461
Mof_O 	O 	0.92391	0.4506	0.3791	-0.228
Mof_O 	O 	0.12235	0.50942	0.8524	-0.527
Mof_O 	O 	0.17714	0.47145	0.8813	-0.389
Mof_N 	N 	0.10234	0.49654	0.0018	-0.243
Mof_N 	N 	0.15737	0.45966	0.0314	-0.245
Mof_C 	C 	0.09362	0.51572	0.8685	0.268
Mof_C 	C 	0.0817	0.509	0.954	0.085
Mof_C 	C 	0.1914	0.4485	0.917	0.261
Mof_C 	C 	0.18	0.441	0.005	0.105
Mof_C 	C 	0.0938	0.4881	0.0842	0.013
Mof_H 	H 	0.0803	0.4697	0.0832	0.04
Mof_H 	H 	0.0822	0.5052	0.1094	0.018
Mof_C 	C 	0.1227	0.4811	0.1331	-0.104
Mof_H 	H 	0.1353	0.5001	0.1325	0.029
Mof_H 	H 	0.1159	0.4781	0.1892	0.059
Mof_C 	C 	0.1085	0.4543	0.1091	-0.164
Mof_H 	H 	0.1	0.4479	0.1617	0.073
Mof_H 	H 	0.1021	0.4387	0.0689	0.042
Mof_C 	C 	0.1437	0.4551	0.1138	0.015
Mof_H 	H 	0.1322	0.4354	0.1155	0.04
Mof_H 	H 	0.1604	0.4541	0.1541	0.019
Mof_O 	O 	0.94843	0.62067	0.9102	-0.403
Mof_O 	O 	0.88634	0.63954	0.9529	-0.395
Mof_N 	N 	0.9519	0.58684	0.0451	-0.245
Mof_N 	N 	0.89128	0.60854	0.0909	-0.246
Mof_C 	C 	0.9692	0.5995	0.9098	0.271
Mof_C 	C 	0.9709	0.579	0.9882	0.095
Mof_C 	C 	0.8603	0.6356	0.993	0.246
Mof_C 	C 	0.862	0.6173	0.0726	0.08
Mof_C 	C 	0.9504	0.5699	0.121	-0.038
Mof_H 	H 	0.9715	0.567	0.1424	-0.003
Mof_H 	H 	0.9415	0.5492	0.1114	0.014
Mof_C 	C 	0.931	0.5869	0.1824	-0.09
Mof_H 	H 	0.9391	0.6081	0.1874	-0.016
Mof_H 	H 	0.9337	0.5767	0.235	-0.085
Mof_C 	C 	0.8962	0.5889	0.1647	-0.05
Mof_H 	H 	0.8877	0.5679	0.1555	0.011
Mof_H 	H 	0.8853	0.5981	0.211	0.016
Mof_O 	O 	0.93856	0.5116	0.6925	-0.439
Mof_O 	O 	0.90208	0.4919	0.5565	-0.481
Mof_N 	N 	0.98673	0.4797	0.6409	0.996
Mof_N 	N 	0.95068	0.4599	0.4994	1.655
Mof_C 	C 	0.9642	0.5169	0.7291	0.321
Mof_C 	C 	0.9932	0.4977	0.7007	-0.334
Mof_C 	C 	0.899	0.4803	0.489	0.386
Mof_C 	C 	0.927	0.4617	0.4496	-0.483
Mof_C 	C 	0.0115	0.4603	0.6052	-10.949
Mof_H 	H 	0.0251	0.4526	0.6484	3.513
Mof_H 	H 	0.0242	0.4732	0.5688	2.731
Mof_C 	C 	0.9982	0.4324	0.5572	2.238
Mof_H 	H 	0.9843	0.4204	0.5926	0.846
Mof_H 	H 	0.0154	0.4187	0.5411	5.208
Mof_C 	C 	0.9996	0.4453	0.529	19.263
Mof_H 	H 	0.0174	0.4491	0.4937	-6.523
Mof_H 	H 	0.0018	0.4234	0.5449	-11.307
Mof_C 	C 	0.9795	0.4426	0.4787	-16.189
Mof_H 	H 	0.9928	0.4558	0.4449	4.184
Mof_H 	H 	0.974	0.4241	0.4471	5.455
Mof_La	La	0.51934	0.04239	0.3559	1.705
Mof_La	La	0.71571	0.87507	0.45254	1.876
Mof_Cu	Cu	0.64296	0.98901	0.45019	0.877
Mof_Cu	Cu	0.42181	0.11858	0.50903	0.87
Mof_Cu	Cu	0.44393	0.98172	0.10315	0.653
Mof_O 	O 	0.57566	0.02755	0.317	-0.545
Mof_O 	O 	0.55245	0.01515	0.4667	-0.376
Mof_O 	O 	0.48881	0.09424	0.355	-0.452
Mof_O 	O 	0.49045	0.05577	0.4868	-0.38
Mof_O 	O 	0.46749	0.03623	0.2857	-0.453
Mof_O 	O 	0.51931	0.00285	0.2369	-0.277
Mof_O 	O 	0.71166	0.93197	0.3873	-0.379
Mof_O 	O 	0.6934	0.91851	0.5419	-0.366
Mof_O 	O 	0.33449	0.14559	0.471	-0.415
Mof_O 	O 	0.33743	0.11295	0.6125	-0.356
Mof_O 	O 	0.37472	0.98236	0.9439	-0.468
Mof_O 	O 	0.42391	0.9506	0.8791	-0.194
Mof_O 	O 	0.62235	0.00942	0.3524	-0.527
Mof_O 	O 	0.67714	0.97145	0.3813	-0.391
Mof_N 	N 	0.60234	0.99654	0.5018	-0.243
Mof_N 	N 	0.65737	0.95966	0.5314	-0.245
Mof_C 	C 	0.59362	0.01572	0.3685	0.268
Mof_C 	C 	0.5817	0.009	0.454	0.084
Mof_C 	C 	0.6914	0.9485	0.417	0.266
Mof_C 	C 	0.68	0.941	0.505	0.101
Mof_C 	C 	0.5938	0.9881	0.5842	0.013
Mof_H 	H 	0.5803	0.9697	0.5832	0.04
Mof_H 	H 	0.5822	0.0052	0.6094	0.018
Mof_C 	C 	0.6227	0.9811	0.6331	-0.104
Mof_H 	H 	0.6353	0.0001	0.6325	0.029
Mof_H 	H 	0.6159	0.9781	0.6892	0.059
Mof_C 	C 	0.6085	0.9543	0.6091	-0.164
Mof_H 	H 	0.6	0.9479	0.6617	0.072
Mof_H 	H 	0.6021	0.9387	0.5689	0.041
Mof_C 	C 	0.6437	0.9551	0.6138	0.014
Mof_H 	H 	0.6322	0.9354	0.6155	0.04
Mof_H 	H 	0.6604	0.9541	0.6541	0.019
Mof_O 	O 	0.44843	0.12067	0.4102	-0.409
Mof_O 	O 	0.38634	0.13954	0.4529	-0.398
Mof_N 	N 	0.4519	0.08684	0.5451	-0.239
Mof_N 	N 	0.39128	0.10854	0.5909	-0.246
Mof_C 	C 	0.4692	0.0995	0.4098	0.274
Mof_C 	C 	0.4709	0.079	0.4882	0.087
Mof_C 	C 	0.3603	0.1356	0.493	0.238
Mof_C 	C 	0.362	0.1173	0.5726	0.088
Mof_C 	C 	0.4504	0.0699	0.621	-0.055
Mof_H 	H 	0.4715	0.067	0.6424	-0.004
Mof_H 	H 	0.4415	0.0492	0.6114	0.017
Mof_C 	C 	0.431	0.0869	0.6824	-0.063
Mof_H 	H 	0.4391	0.1081	0.6874	-0.031
Mof_H 	H 	0.4337	0.0767	0.735	-0.117
Mof_C 	C 	0.3962	0.0889	0.6647	-0.063
Mof_H 	H 	0.3877	0.0679	0.6555	0.013
Mof_H 	H 	0.3853	0.0981	0.711	0.016
Mof_O 	O 	0.43856	0.0116	0.1925	-0.449
Mof_O 	O 	0.40208	0.9919	0.0565	-0.503
Mof_N 	N 	0.48673	0.9797	0.1409	1.244
Mof_N 	N 	0.45068	0.9599	0.9994	2.038
Mof_C 	C 	0.4642	0.0169	0.2291	0.337
Mof_C 	C 	0.4932	0.9977	0.2007	-0.423
Mof_C 	C 	0.399	0.9803	0.989	0.414
Mof_C 	C 	0.427	0.9617	0.9496	-0.601
Mof_C 	C 	0.5115	0.9603	0.1052	-13.135
Mof_H 	H 	0.5251	0.9526	0.1484	4.211
Mof_H 	H 	0.5242	0.9732	0.0688	3.271
Mof_C 	C 	0.4982	0.9324	0.0572	2.669
Mof_H 	H 	0.4843	0.9204	0.0926	1.021
Mof_H 	H 	0.5154	0.9187	0.0411	6.254
Mof_C 	C 	0.4996	0.9453	0.029	23.159
Mof_H 	H 	0.5174	0.9491	0.9937	-7.837
Mof_H 	H 	0.5018	0.9234	0.0449	-13.579
Mof_C 	C 	0.4795	0.9426	0.9787	-19.432
Mof_H 	H 	0.4928	0.9558	0.9449	5.019
Mof_H 	H 	0.474	0.9241	0.9471	6.546
Mof_La	La	0.79239	0.73066	0.8941	1.738
Mof_La	La	0.62507	0.53429	0.79746	1.863
Mof_Cu	Cu	0.73901	0.60704	0.79981	0.878
Mof_Cu	Cu	0.86858	0.82819	0.74097	0.871
Mof_Cu	Cu	0.73172	0.80607	0.14685	0.688
Mof_O 	O 	0.77755	0.67434	0.933	-0.538
Mof_O 	O 	0.76515	0.69755	0.7833	-0.379
Mof_O 	O 	0.84424	0.76119	0.895	-0.447
Mof_O 	O 	0.80577	0.75955	0.7632	-0.383
Mof_O 	O 	0.78623	0.78251	0.9643	-0.437
Mof_O 	O 	0.75285	0.73069	0.0131	-0.304
Mof_O 	O 	0.68197	0.53834	0.8627	-0.377
Mof_O 	O 	0.66851	0.5566	0.7081	-0.365
Mof_O 	O 	0.89559	0.91551	0.779	-0.414
Mof_O 	O 	0.86295	0.91257	0.6375	-0.355
Mof_O 	O 	0.73236	0.87528	0.3061	-0.462
Mof_O 	O 	0.7006	0.82609	0.3709	-0.226
Mof_O 	O 	0.75942	0.62765	0.8976	-0.523
Mof_O 	O 	0.72145	0.57286	0.8687	-0.389
Mof_N 	N 	0.74654	0.64766	0.7482	-0.244
Mof_N 	N 	0.70966	0.59263	0.7186	-0.245
Mof_C 	C 	0.76572	0.65638	0.8815	0.267
Mof_C 	C 	0.759	0.6683	0.796	0.086
Mof_C 	C 	0.6985	0.5586	0.833	0.265
Mof_C 	C 	0.691	0.57	0.745	0.102
Mof_C 	C 	0.7381	0.6562	0.6658	0.014
Mof_H 	H 	0.7197	0.6697	0.6668	0.039
Mof_H 	H 	0.7552	0.6678	0.6406	0.019
Mof_C 	C 	0.7311	0.6273	0.6169	-0.107
Mof_H 	H 	0.7501	0.6147	0.6175	0.031
Mof_H 	H 	0.7281	0.6341	0.5608	0.06
Mof_C 	C 	0.7043	0.6415	0.6409	-0.162
Mof_H 	H 	0.6979	0.65	0.5883	0.072
Mof_H 	H 	0.6887	0.6479	0.6811	0.04
Mof_C 	C 	0.7051	0.6063	0.6362	0.015
Mof_H 	H 	0.6854	0.6178	0.6345	0.039
Mof_H 	H 	0.7041	0.5896	0.5959	0.019
Mof_O 	O 	0.87067	0.80157	0.8398	-0.405
Mof_O 	O 	0.88954	0.86366	0.7971	-0.395
Mof_N 	N 	0.83684	0.7981	0.7049	-0.241
Mof_N 	N 	0.85854	0.85872	0.6591	-0.247
Mof_C 	C 	0.8495	0.7808	0.8402	0.272
Mof_C 	C 	0.829	0.7791	0.7618	0.089
Mof_C 	C 	0.8856	0.8897	0.757	0.238
Mof_C 	C 	0.8673	0.888	0.6774	0.089
Mof_C 	C 	0.8199	0.7996	0.629	-0.04
Mof_H 	H 	0.817	0.7785	0.6076	-0.002
Mof_H 	H 	0.7992	0.8085	0.6386	0.015
Mof_C 	C 	0.8369	0.819	0.5676	-0.089
Mof_H 	H 	0.8581	0.8109	0.5626	-0.016
Mof_H 	H 	0.8267	0.8163	0.515	-0.087
Mof_C 	C 	0.8389	0.8538	0.5853	-0.05
Mof_H 	H 	0.8179	0.8623	0.5945	0.011
Mof_H 	H 	0.8481	0.8647	0.539	0.016
Mof_O 	O 	0.7616	0.81144	0.0575	-0.44
Mof_O 	O 	0.7419	0.84792	0.1935	-0.485
Mof_N 	N 	0.7297	0.76327	0.1091	1.013
Mof_N 	N 	0.7099	0.79932	0.2506	1.683
Mof_C 	C 	0.7669	0.7858	0.0209	0.306
Mof_C 	C 	0.7477	0.7568	0.0493	-0.338
Mof_C 	C 	0.7303	0.851	0.261	0.388
Mof_C 	C 	0.7117	0.823	0.3004	-0.493
Mof_C 	C 	0.7103	0.7385	0.1448	-11.11
Mof_H 	H 	0.7026	0.7249	0.1016	3.562
Mof_H 	H 	0.7232	0.7258	0.1812	2.771
Mof_C 	C 	0.6824	0.7518	0.1928	2.271
Mof_H 	H 	0.6704	0.7657	0.1574	0.856
Mof_H 	H 	0.6687	0.7346	0.2089	5.283
Mof_C 	C 	0.6953	0.7504	0.221	19.55
Mof_H 	H 	0.6991	0.7326	0.2563	-6.621
Mof_H 	H 	0.6734	0.7482	0.2051	-11.474
Mof_C 	C 	0.6926	0.7705	0.2713	-16.429
Mof_H 	H 	0.7058	0.7572	0.3051	4.246
Mof_H 	H 	0.6741	0.776	0.3029	5.534
Mof_La	La	0.29239	0.23066	0.3941	1.726
Mof_La	La	0.12507	0.03429	0.29746	1.877
Mof_Cu	Cu	0.23901	0.10704	0.29981	0.878
Mof_Cu	Cu	0.36858	0.32819	0.24097	0.87
Mof_Cu	Cu	0.23172	0.30607	0.64685	0.69
Mof_O 	O 	0.27755	0.17434	0.433	-0.543
Mof_O 	O 	0.26515	0.19755	0.2833	-0.378
Mof_O 	O 	0.34424	0.26119	0.395	-0.449
Mof_O 	O 	0.30577	0.25955	0.2632	-0.382
Mof_O 	O 	0.28623	0.28251	0.4643	-0.449
Mof_O 	O 	0.25285	0.23069	0.5131	-0.296
Mof_O 	O 	0.18197	0.03834	0.3627	-0.378
Mof_O 	O 	0.16851	0.0566	0.2081	-0.366
Mof_O 	O 	0.39559	0.41551	0.279	-0.415
Mof_O 	O 	0.36295	0.41257	0.1375	-0.353
Mof_O 	O 	0.23236	0.37528	0.8061	-0.46
Mof_O 	O 	0.2006	0.32609	0.8709	-0.227
Mof_O 	O 	0.25942	0.12765	0.3976	-0.527
Mof_O 	O 	0.22145	0.07286	0.3687	-0.39
Mof_N 	N 	0.24654	0.14766	0.2482	-0.243
Mof_N 	N 	0.20966	0.09263	0.2186	-0.245
Mof_C 	C 	0.26572	0.15638	0.3815	0.268
Mof_C 	C 	0.259	0.1683	0.296	0.085
Mof_C 	C 	0.1985	0.0586	0.333	0.266
Mof_C 	C 	0.191	0.07	0.245	0.102
Mof_C 	C 	0.2381	0.1562	0.1658	0.014
Mof_H 	H 	0.2197	0.1697	0.1668	0.039
Mof_H 	H 	0.2552	0.1678	0.1406	0.02
Mof_C 	C 	0.2311	0.1273	0.1169	-0.107
Mof_H 	H 	0.2501	0.1147	0.1175	0.031
Mof_H 	H 	0.2281	0.1341	0.0608	0.062
Mof_C 	C 	0.2043	0.1415	0.1409	-0.163
Mof_H 	H 	0.1979	0.15	0.0883	0.074
Mof_H 	H 	0.1887	0.1479	0.1811	0.041
Mof_C 	C 	0.2051	0.1063	0.1362	0.015
Mof_H 	H 	0.1854	0.1178	0.1345	0.04
Mof_H 	H 	0.2041	0.0896	0.0959	0.02
Mof_O 	O 	0.37067	0.30157	0.3398	-0.408
Mof_O 	O 	0.38954	0.36366	0.2971	-0.398
Mof_N 	N 	0.33684	0.2981	0.2049	-0.241
Mof_N 	N 	0.35854	0.35872	0.1591	-0.247
Mof_C 	C 	0.3495	0.2808	0.3402	0.273
Mof_C 	C 	0.329	0.2791	0.2618	0.088
Mof_C 	C 	0.3856	0.3897	0.257	0.237
Mof_C 	C 	0.3673	0.388	0.1774	0.087
Mof_C 	C 	0.3199	0.2996	0.129	-0.04
Mof_H 	H 	0.317	0.2785	0.1076	-0.001
Mof_H 	H 	0.2992	0.3085	0.1386	0.016
Mof_C 	C 	0.3369	0.319	0.0676	-0.089
Mof_H 	H 	0.3581	0.3109	0.0626	-0.015
Mof_H 	H 	0.3267	0.3163	0.015	-0.084
Mof_C 	C 	0.3389	0.3538	0.0853	-0.051
Mof_H 	H 	0.3179	0.3623	0.0945	0.012
Mof_H 	H 	0.3481	0.3647	0.039	0.018
Mof_O 	O 	0.2616	0.31144	0.5575	-0.44
Mof_O 	O 	0.2419	0.34792	0.6935	-0.482
Mof_N 	N 	0.2297	0.26327	0.6091	1.007
Mof_N 	N 	0.2099	0.29932	0.7506	1.673
Mof_C 	C 	0.2669	0.2858	0.5209	0.322
Mof_C 	C 	0.2477	0.2568	0.5493	-0.339
Mof_C 	C 	0.2303	0.351	0.761	0.387
Mof_C 	C 	0.2117	0.323	0.8004	-0.489
Mof_C 	C 	0.2103	0.2385	0.6448	-11.051
Mof_H 	H 	0.2026	0.2249	0.6016	3.546
Mof_H 	H 	0.2232	0.2258	0.6812	2.756
Mof_C 	C 	0.1824	0.2518	0.6928	2.259
Mof_H 	H 	0.1704	0.2657	0.6574	0.854
Mof_H 	H 	0.1687	0.2346	0.7089	5.257
Mof_C 	C 	0.1953	0.2504	0.721	19.445
Mof_H 	H 	0.1991	0.2326	0.7563	-6.586
Mof_H 	H 	0.1734	0.2482	0.7051	-11.413
Mof_C 	C 	0.1926	0.2705	0.7713	-16.341
Mof_H 	H 	0.2058	0.2572	0.8051	4.222
Mof_H 	H 	0.1741	0.276	0.8029	5.504
Mof_La	La	0.70761	0.26934	0.3941	1.726
Mof_La	La	0.87493	0.46571	0.29746	1.878
Mof_Cu	Cu	0.76099	0.39296	0.29981	0.878
Mof_Cu	Cu	0.63142	0.17181	0.24097	0.87
Mof_Cu	Cu	0.76828	0.19393	0.64685	0.69
Mof_O 	O 	0.72245	0.32566	0.433	-0.543
Mof_O 	O 	0.73485	0.30245	0.2833	-0.378
Mof_O 	O 	0.65576	0.23881	0.395	-0.449
Mof_O 	O 	0.69423	0.24045	0.2632	-0.382
Mof_O 	O 	0.71377	0.21749	0.4643	-0.449
Mof_O 	O 	0.74715	0.26931	0.5131	-0.296
Mof_O 	O 	0.81803	0.46166	0.3627	-0.378
Mof_O 	O 	0.83149	0.4434	0.2081	-0.366
Mof_O 	O 	0.60441	0.08449	0.279	-0.416
Mof_O 	O 	0.63705	0.08743	0.1375	-0.353
Mof_O 	O 	0.76764	0.12472	0.8061	-0.46
Mof_O 	O 	0.7994	0.17391	0.8709	-0.227
Mof_O 	O 	0.74058	0.37235	0.3976	-0.527
Mof_O 	O 	0.77855	0.42714	0.3687	-0.39
Mof_N 	N 	0.75346	0.35234	0.2482	-0.243
Mof_N 	N 	0.79034	0.40737	0.2186	-0.245
Mof_C 	C 	0.73428	0.34362	0.3815	0.268
Mof_C 	C 	0.741	0.3317	0.296	0.085
Mof_C 	C 	0.8015	0.4414	0.333	0.266
Mof_C 	C 	0.809	0.43	0.245	0.102
Mof_C 	C 	0.7619	0.3438	0.1658	0.014
Mof_H 	H 	0.7803	0.3303	0.1668	0.039
Mof_H 	H 	0.7448	0.3322	0.1406	0.02
Mof_C 	C 	0.7689	0.3727	0.1169	-0.107
Mof_H 	H 	0.7499	0.3853	0.1175	0.031
Mof_H 	H 	0.7719	0.3659	0.0608	0.062
Mof_C 	C 	0.7957	0.3585	0.1409	-0.163
Mof_H 	H 	0.8021	0.35	0.0883	0.074
Mof_H 	H 	0.8113	0.3521	0.1811	0.041
Mof_C 	C 	0.7949	0.3937	0.1362	0.015
Mof_H 	H 	0.8146	0.3822	0.1345	0.04
Mof_H 	H 	0.7959	0.4104	0.0959	0.02
Mof_O 	O 	0.62933	0.19843	0.3398	-0.408
Mof_O 	O 	0.61046	0.13634	0.2971	-0.398
Mof_N 	N 	0.66316	0.2019	0.2049	-0.241
Mof_N 	N 	0.64146	0.14128	0.1591	-0.247
Mof_C 	C 	0.6505	0.2192	0.3402	0.273
Mof_C 	C 	0.671	0.2209	0.2618	0.088
Mof_C 	C 	0.6144	0.1103	0.257	0.237
Mof_C 	C 	0.6327	0.112	0.1774	0.087
Mof_C 	C 	0.6801	0.2004	0.129	-0.04
Mof_H 	H 	0.683	0.2215	0.1076	-0.001
Mof_H 	H 	0.7008	0.1915	0.1386	0.016
Mof_C 	C 	0.6631	0.181	0.0676	-0.089
Mof_H 	H 	0.6419	0.1891	0.0626	-0.015
Mof_H 	H 	0.6733	0.1837	0.015	-0.084
Mof_C 	C 	0.6611	0.1462	0.0853	-0.051
Mof_H 	H 	0.6821	0.1377	0.0945	0.013
Mof_H 	H 	0.6519	0.1353	0.039	0.018
Mof_O 	O 	0.7384	0.18856	0.5575	-0.44
Mof_O 	O 	0.7581	0.15208	0.6935	-0.482
Mof_N 	N 	0.7703	0.23673	0.6091	1.007
Mof_N 	N 	0.7901	0.20068	0.7506	1.673
Mof_C 	C 	0.7331	0.2142	0.5209	0.322
Mof_C 	C 	0.7523	0.2432	0.5493	-0.339
Mof_C 	C 	0.7697	0.149	0.761	0.386
Mof_C 	C 	0.7883	0.177	0.8004	-0.489
Mof_C 	C 	0.7897	0.2615	0.6448	-11.051
Mof_H 	H 	0.7974	0.2751	0.6016	3.546
Mof_H 	H 	0.7768	0.2742	0.6812	2.756
Mof_C 	C 	0.8176	0.2482	0.6928	2.259
Mof_H 	H 	0.8296	0.2343	0.6574	0.854
Mof_H 	H 	0.8313	0.2654	0.7089	5.257
Mof_C 	C 	0.8047	0.2496	0.721	19.445
Mof_H 	H 	0.8009	0.2674	0.7563	-6.585
Mof_H 	H 	0.8266	0.2518	0.7051	-11.413
Mof_C 	C 	0.8074	0.2295	0.7713	-16.34
Mof_H 	H 	0.7942	0.2428	0.8051	4.222
Mof_H 	H 	0.8259	0.224	0.8029	5.504
Mof_La	La	0.20761	0.76934	0.8941	1.739
Mof_La	La	0.37493	0.96571	0.79746	1.86
Mof_Cu	Cu	0.26099	0.89296	0.79981	0.878
Mof_Cu	Cu	0.13142	0.67181	0.74097	0.871
Mof_Cu	Cu	0.26828	0.69393	0.14685	0.688
Mof_O 	O 	0.22245	0.82566	0.933	-0.538
Mof_O 	O 	0.23485	0.80245	0.7833	-0.379
Mof_O 	O 	0.15576	0.73881	0.895	-0.447
Mof_O 	O 	0.19423	0.74045	0.7632	-0.383
Mof_O 	O 	0.21377	0.71749	0.9643	-0.437
Mof_O 	O 	0.24715	0.76931	0.0131	-0.304
Mof_O 	O 	0.31803	0.96166	0.8627	-0.376
Mof_O 	O 	0.33149	0.9434	0.7081	-0.365
Mof_O 	O 	0.10441	0.58449	0.779	-0.414
Mof_O 	O 	0.13705	0.58743	0.6375	-0.355
Mof_O 	O 	0.26764	0.62472	0.3061	-0.462
Mof_O 	O 	0.2994	0.67391	0.3709	-0.226
Mof_O 	O 	0.24058	0.87235	0.8976	-0.523
Mof_O 	O 	0.27855	0.92714	0.8687	-0.389
Mof_N 	N 	0.25346	0.85234	0.7482	-0.244
Mof_N 	N 	0.29034	0.90737	0.7186	-0.245
Mof_C 	C 	0.23428	0.84362	0.8815	0.267
Mof_C 	C 	0.241	0.8317	0.796	0.086
Mof_C 	C 	0.3015	0.9414	0.833	0.265
Mof_C 	C 	0.309	0.93	0.745	0.102
Mof_C 	C 	0.2619	0.8438	0.6658	0.014
Mof_H 	H 	0.2803	0.8303	0.6668	0.039
Mof_H 	H 	0.2448	0.8322	0.6406	0.019
Mof_C 	C 	0.2689	0.8727	0.6169	-0.107
Mof_H 	H 	0.2499	0.8853	0.6175	0.031
Mof_H 	H 	0.2719	0.8659	0.5608	0.06
Mof_C 	C 	0.2957	0.8585	0.6409	-0.162
Mof_H 	H 	0.3021	0.85	0.5883	0.072
Mof_H 	H 	0.3113	0.8521	0.6811	0.04
Mof_C 	C 	0.2949	0.8937	0.6362	0.015
Mof_H 	H 	0.3146	0.8822	0.6345	0.039
Mof_H 	H 	0.2959	0.9104	0.5959	0.019
Mof_O 	O 	0.12933	0.69843	0.8398	-0.405
Mof_O 	O 	0.11046	0.63634	0.7971	-0.395
Mof_N 	N 	0.16316	0.7019	0.7049	-0.241
Mof_N 	N 	0.14146	0.64128	0.6591	-0.247
Mof_C 	C 	0.1505	0.7192	0.8402	0.272
Mof_C 	C 	0.171	0.7209	0.7618	0.089
Mof_C 	C 	0.1144	0.6103	0.757	0.238
Mof_C 	C 	0.1327	0.612	0.6774	0.089
Mof_C 	C 	0.1801	0.7004	0.629	-0.039
Mof_H 	H 	0.183	0.7215	0.6076	-0.002
Mof_H 	H 	0.2008	0.6915	0.6386	0.015
Mof_C 	C 	0.1631	0.681	0.5676	-0.089
Mof_H 	H 	0.1419	0.6891	0.5626	-0.016
Mof_H 	H 	0.1733	0.6837	0.515	-0.086
Mof_C 	C 	0.1611	0.6462	0.5853	-0.05
Mof_H 	H 	0.1821	0.6377	0.5945	0.011
Mof_H 	H 	0.1519	0.6353	0.539	0.016
Mof_O 	O 	0.2384	0.68856	0.0575	-0.44
Mof_O 	O 	0.2581	0.65208	0.1935	-0.484
Mof_N 	N 	0.2703	0.73673	0.1091	1.013
Mof_N 	N 	0.2901	0.70068	0.2506	1.684
Mof_C 	C 	0.2331	0.7142	0.0209	0.306
Mof_C 	C 	0.2523	0.7432	0.0493	-0.338
Mof_C 	C 	0.2697	0.649	0.261	0.388
Mof_C 	C 	0.2883	0.677	0.3004	-0.493
Mof_C 	C 	0.2897	0.7615	0.1448	-11.113
Mof_H 	H 	0.2974	0.7751	0.1016	3.563
Mof_H 	H 	0.2768	0.7742	0.1812	2.772
Mof_C 	C 	0.3176	0.7482	0.1928	2.272
Mof_H 	H 	0.3296	0.7343	0.1574	0.856
Mof_H 	H 	0.3313	0.7654	0.2089	5.284
Mof_C 	C 	0.3047	0.7496	0.221	19.555
Mof_H 	H 	0.3009	0.7674	0.2563	-6.622
Mof_H 	H 	0.3266	0.7518	0.2051	-11.477
Mof_C 	C 	0.3074	0.7295	0.2713	-16.434
Mof_H 	H 	0.2942	0.7428	0.3051	4.247
Mof_H 	H 	0.3259	0.724	0.3029	5.536
Mof_La	La	0.51934	0.54239	0.6441	1.711
Mof_La	La	0.71571	0.37507	0.54746	1.876
Mof_Cu	Cu	0.64296	0.48901	0.54981	0.878
Mof_Cu	Cu	0.42181	0.61858	0.49097	0.87
Mof_Cu	Cu	0.44393	0.48172	0.89685	0.663
Mof_O 	O 	0.57566	0.52755	0.683	-0.544
Mof_O 	O 	0.55245	0.51515	0.5333	-0.377
Mof_O 	O 	0.48881	0.59424	0.645	-0.451
Mof_O 	O 	0.49045	0.55577	0.5132	-0.38
Mof_O 	O 	0.46749	0.53623	0.7143	-0.451
Mof_O 	O 	0.51931	0.50285	0.7631	-0.284
Mof_O 	O 	0.71166	0.43197	0.6127	-0.378
Mof_O 	O 	0.6934	0.41851	0.4581	-0.366
Mof_O 	O 	0.33449	0.64559	0.529	-0.415
Mof_O 	O 	0.33743	0.61295	0.3875	-0.356
Mof_O 	O 	0.37472	0.48236	0.0561	-0.466
Mof_O 	O 	0.42391	0.4506	0.1209	-0.203
Mof_O 	O 	0.62235	0.50942	0.6476	-0.527
Mof_O 	O 	0.67714	0.47145	0.6187	-0.391
Mof_N 	N 	0.60234	0.49654	0.4982	-0.243
Mof_N 	N 	0.65737	0.45966	0.4686	-0.245
Mof_C 	C 	0.59362	0.51572	0.6315	0.268
Mof_C 	C 	0.5817	0.509	0.546	0.084
Mof_C 	C 	0.6914	0.4485	0.583	0.266
Mof_C 	C 	0.68	0.441	0.495	0.102
Mof_C 	C 	0.5938	0.4881	0.4158	0.013
Mof_H 	H 	0.5803	0.4697	0.4168	0.04
Mof_H 	H 	0.5822	0.5052	0.3906	0.019
Mof_C 	C 	0.6227	0.4811	0.3669	-0.106
Mof_H 	H 	0.6353	0.5001	0.3675	0.03
Mof_H 	H 	0.6159	0.4781	0.3108	0.06
Mof_C 	C 	0.6085	0.4543	0.3909	-0.162
Mof_H 	H 	0.6	0.4479	0.3383	0.072
Mof_H 	H 	0.6021	0.4387	0.4311	0.04
Mof_C 	C 	0.6437	0.4551	0.3862	0.015
Mof_H 	H 	0.6322	0.4354	0.3845	0.039
Mof_H 	H 	0.6604	0.4541	0.3459	0.019
Mof_O 	O 	0.44843	0.62067	0.5898	-0.409
Mof_O 	O 	0.38634	0.63954	0.5471	-0.397
Mof_N 	N 	0.4519	0.58684	0.4549	-0.24
Mof_N 	N 	0.39128	0.60854	0.4091	-0.246
Mof_C 	C 	0.4692	0.5995	0.5902	0.273
Mof_C 	C 	0.4709	0.579	0.5118	0.087
Mof_C 	C 	0.3603	0.6356	0.507	0.238
Mof_C 	C 	0.362	0.6173	0.4274	0.088
Mof_C 	C 	0.4504	0.5699	0.379	-0.051
Mof_H 	H 	0.4715	0.567	0.3576	-0.003
Mof_H 	H 	0.4415	0.5492	0.3886	0.017
Mof_C 	C 	0.431	0.5869	0.3176	-0.069
Mof_H 	H 	0.4391	0.6081	0.3126	-0.027
Mof_H 	H 	0.4337	0.5767	0.265	-0.109
Mof_C 	C 	0.3962	0.5889	0.3353	-0.06
Mof_H 	H 	0.3877	0.5679	0.3445	0.013
Mof_H 	H 	0.3853	0.5981	0.289	0.016
Mof_O 	O 	0.43856	0.5116	0.8075	-0.447
Mof_O 	O 	0.40208	0.4919	0.9435	-0.496
Mof_N 	N 	0.48673	0.4797	0.8591	1.181
Mof_N 	N 	0.45068	0.4599	0.0006	1.941
Mof_C 	C 	0.4642	0.5169	0.7709	0.332
Mof_C 	C 	0.4932	0.4977	0.7993	-0.399
Mof_C 	C 	0.399	0.4803	0.011	0.405
Mof_C 	C 	0.427	0.4617	0.0504	-0.571
Mof_C 	C 	0.5115	0.4603	0.8948	-12.584
Mof_H 	H 	0.5251	0.4526	0.8516	4.035
Mof_H 	H 	0.5242	0.4732	0.9312	3.135
Mof_C 	C 	0.4982	0.4324	0.9428	2.56
Mof_H 	H 	0.4843	0.4204	0.9074	0.977
Mof_H 	H 	0.5154	0.4187	0.9589	5.991
Mof_C 	C 	0.4996	0.4453	0.971	22.177
Mof_H 	H 	0.5174	0.4491	0.0063	-7.506
Mof_H 	H 	0.5018	0.4234	0.9551	-13.006
Mof_C 	C 	0.4795	0.4426	0.0213	-18.615
Mof_H 	H 	0.4928	0.4558	0.0551	4.808
Mof_H 	H 	0.474	0.4241	0.0529	6.271
Mof_La	La	0.01934	0.04239	0.1441	1.727
Mof_La	La	0.21571	0.87507	0.04746	1.852
Mof_Cu	Cu	0.14296	0.98901	0.04981	0.876
Mof_Cu	Cu	0.92181	0.11858	0.99097	0.866
Mof_Cu	Cu	0.94393	0.98172	0.39685	0.688
Mof_O 	O 	0.07566	0.02755	0.183	-0.543
Mof_O 	O 	0.05245	0.01515	0.0333	-0.378
Mof_O 	O 	0.98881	0.09424	0.145	-0.447
Mof_O 	O 	0.99045	0.05577	0.0132	-0.382
Mof_O 	O 	0.96749	0.03623	0.2143	-0.449
Mof_O 	O 	0.01931	0.00285	0.2631	-0.294
Mof_O 	O 	0.21166	0.93197	0.1127	-0.377
Mof_O 	O 	0.1934	0.91851	0.9581	-0.363
Mof_O 	O 	0.83449	0.14559	0.029	-0.411
Mof_O 	O 	0.83743	0.11295	0.8875	-0.352
Mof_O 	O 	0.87472	0.98236	0.5561	-0.461
Mof_O 	O 	0.92391	0.9506	0.6209	-0.225
Mof_O 	O 	0.12235	0.00942	0.1476	-0.526
Mof_O 	O 	0.17714	0.97145	0.1187	-0.39
Mof_N 	N 	0.10234	0.99654	0.9982	-0.243
Mof_N 	N 	0.15737	0.95966	0.9686	-0.244
Mof_C 	C 	0.09362	0.01572	0.1315	0.268
Mof_C 	C 	0.0817	0.009	0.046	0.085
Mof_C 	C 	0.1914	0.9485	0.083	0.26
Mof_C 	C 	0.18	0.941	0.995	0.107
Mof_C 	C 	0.0938	0.9881	0.9158	0.015
Mof_H 	H 	0.0803	0.9697	0.9168	0.04
Mof_H 	H 	0.0822	0.0052	0.8906	0.016
Mof_C 	C 	0.1227	0.9811	0.8669	-0.096
Mof_H 	H 	0.1353	0.0001	0.8675	0.025
Mof_H 	H 	0.1159	0.9781	0.8108	0.057
Mof_C 	C 	0.1085	0.9543	0.8909	-0.17
Mof_H 	H 	0.1	0.9479	0.8383	0.075
Mof_H 	H 	0.1021	0.9387	0.9311	0.044
Mof_C 	C 	0.1437	0.9551	0.8862	0.012
Mof_H 	H 	0.1322	0.9354	0.8845	0.042
Mof_H 	H 	0.1604	0.9541	0.8459	0.02
Mof_O 	O 	0.94843	0.12067	0.0898	-0.403
Mof_O 	O 	0.88634	0.13954	0.0471	-0.395
Mof_N 	N 	0.9519	0.08684	0.9549	-0.246
Mof_N 	N 	0.89128	0.10854	0.9091	-0.246
Mof_C 	C 	0.9692	0.0995	0.0902	0.271
Mof_C 	C 	0.9709	0.079	0.0118	0.096
Mof_C 	C 	0.8603	0.1356	0.007	0.247
Mof_C 	C 	0.862	0.1173	0.9274	0.079
Mof_C 	C 	0.9504	0.0699	0.879	-0.039
Mof_H 	H 	0.9715	0.067	0.8576	-0.004
Mof_H 	H 	0.9415	0.0492	0.8886	0.013
Mof_C 	C 	0.931	0.0869	0.8176	-0.088
Mof_H 	H 	0.9391	0.1081	0.8126	-0.017
Mof_H 	H 	0.9337	0.0767	0.765	-0.088
Mof_C 	C 	0.8962	0.0889	0.8353	-0.051
Mof_H 	H 	0.8877	0.0679	0.8445	0.011
Mof_H 	H 	0.8853	0.0981	0.789	0.016
Mof_O 	O 	0.93856	0.0116	0.3075	-0.44
Mof_O 	O 	0.90208	0.9919	0.4435	-0.483
Mof_N 	N 	0.98673	0.9797	0.3591	1.02
Mof_N 	N 	0.95068	0.9599	0.5006	1.692
Mof_C 	C 	0.9642	0.0169	0.2709	0.324
Mof_C 	C 	0.9932	0.9977	0.2993	-0.345
Mof_C 	C 	0.899	0.9803	0.511	0.388
Mof_C 	C 	0.927	0.9617	0.5504	-0.495
Mof_C 	C 	0.0115	0.9603	0.3948	-11.159
Mof_H 	H 	0.0251	0.9526	0.3516	3.58
Mof_H 	H 	0.0242	0.9732	0.4312	2.783
Mof_C 	C 	0.9982	0.9324	0.4428	2.281
Mof_H 	H 	0.9843	0.9204	0.4074	0.863
Mof_H 	H 	0.0154	0.9187	0.4589	5.31
Mof_C 	C 	0.9996	0.9453	0.471	19.637
Mof_H 	H 	0.0174	0.9491	0.5063	-6.649
Mof_H 	H 	0.0018	0.9234	0.4551	-11.526
Mof_C 	C 	0.9795	0.9426	0.5213	-16.502
Mof_H 	H 	0.9928	0.9558	0.5551	4.265
Mof_H 	H 	0.974	0.9241	0.5529	5.56
Mof_La	La	0.98066	0.45761	0.1441	1.729
Mof_La	La	0.78429	0.62493	0.04746	1.855
Mof_Cu	Cu	0.85704	0.51099	0.04981	0.877
Mof_Cu	Cu	0.07819	0.38142	0.99097	0.867
Mof_Cu	Cu	0.05607	0.51828	0.39685	0.692
Mof_O 	O 	0.92434	0.47245	0.183	-0.543
Mof_O 	O 	0.94755	0.48485	0.0333	-0.378
Mof_O 	O 	0.01119	0.40576	0.145	-0.447
Mof_O 	O 	0.00955	0.44423	0.0132	-0.383
Mof_O 	O 	0.03251	0.46377	0.2143	-0.448
Mof_O 	O 	0.98069	0.49715	0.2631	-0.297
Mof_O 	O 	0.78834	0.56803	0.1127	-0.377
Mof_O 	O 	0.8066	0.58149	0.9581	-0.363
Mof_O 	O 	0.16551	0.35441	0.029	-0.411
Mof_O 	O 	0.16257	0.38705	0.8875	-0.352
Mof_O 	O 	0.12528	0.51764	0.5561	-0.461
Mof_O 	O 	0.07609	0.5494	0.6209	-0.228
Mof_O 	O 	0.87765	0.49058	0.1476	-0.527
Mof_O 	O 	0.82286	0.52855	0.1187	-0.389
Mof_N 	N 	0.89766	0.50346	0.9982	-0.243
Mof_N 	N 	0.84263	0.54034	0.9686	-0.245
Mof_C 	C 	0.90638	0.48428	0.1315	0.268
Mof_C 	C 	0.9183	0.491	0.046	0.085
Mof_C 	C 	0.8086	0.5515	0.083	0.261
Mof_C 	C 	0.82	0.559	0.995	0.105
Mof_C 	C 	0.9062	0.5119	0.9158	0.013
Mof_H 	H 	0.9197	0.5303	0.9168	0.04
Mof_H 	H 	0.9178	0.4948	0.8906	0.018
Mof_C 	C 	0.8773	0.5189	0.8669	-0.104
Mof_H 	H 	0.8647	0.4999	0.8675	0.029
Mof_H 	H 	0.8841	0.5219	0.8108	0.059
Mof_C 	C 	0.8915	0.5457	0.8909	-0.164
Mof_H 	H 	0.9	0.5521	0.8383	0.073
Mof_H 	H 	0.8979	0.5613	0.9311	0.042
Mof_C 	C 	0.8563	0.5449	0.8862	0.015
Mof_H 	H 	0.8678	0.5646	0.8845	0.04
Mof_H 	H 	0.8396	0.5459	0.8459	0.019
Mof_O 	O 	0.05157	0.37933	0.0898	-0.403
Mof_O 	O 	0.11366	0.36046	0.0471	-0.395
Mof_N 	N 	0.0481	0.41316	0.9549	-0.245
Mof_N 	N 	0.10872	0.39146	0.9091	-0.246
Mof_C 	C 	0.0308	0.4005	0.0902	0.271
Mof_C 	C 	0.0291	0.421	0.0118	0.095
Mof_C 	C 	0.1397	0.3644	0.007	0.246
Mof_C 	C 	0.138	0.3827	0.9274	0.08
Mof_C 	C 	0.0496	0.4301	0.879	-0.038
Mof_H 	H 	0.0285	0.433	0.8576	-0.003
Mof_H 	H 	0.0585	0.4508	0.8886	0.014
Mof_C 	C 	0.069	0.4131	0.8176	-0.09
Mof_H 	H 	0.0609	0.3919	0.8126	-0.016
Mof_H 	H 	0.0663	0.4233	0.765	-0.085
Mof_C 	C 	0.1038	0.4111	0.8353	-0.05
Mof_H 	H 	0.1123	0.4321	0.8445	0.011
Mof_H 	H 	0.1147	0.4019	0.789	0.016
Mof_O 	O 	0.06144	0.4884	0.3075	-0.439
Mof_O 	O 	0.09792	0.5081	0.4435	-0.481
Mof_N 	N 	0.01327	0.5203	0.3591	0.996
Mof_N 	N 	0.04932	0.5401	0.5006	1.655
Mof_C 	C 	0.0358	0.4831	0.2709	0.321
Mof_C 	C 	0.0068	0.5023	0.2993	-0.334
Mof_C 	C 	0.101	0.5197	0.511	0.386
Mof_C 	C 	0.073	0.5383	0.5504	-0.483
Mof_C 	C 	0.9885	0.5397	0.3948	-10.949
Mof_H 	H 	0.9749	0.5474	0.3516	3.513
Mof_H 	H 	0.9758	0.5268	0.4312	2.731
Mof_C 	C 	0.0018	0.5676	0.4428	2.238
Mof_H 	H 	0.0157	0.5796	0.4074	0.846
Mof_H 	H 	0.9846	0.5813	0.4589	5.208
Mof_C 	C 	0.0004	0.5547	0.471	19.263
Mof_H 	H 	0.9826	0.5509	0.5063	-6.523
Mof_H 	H 	0.9982	0.5766	0.4551	-11.307
Mof_C 	C 	0.0205	0.5574	0.5213	-16.189
Mof_H 	H 	0.0072	0.5442	0.5551	4.184
Mof_H 	H 	0.026	0.5759	0.5529	5.455
Mof_La	La	0.48066	0.95761	0.6441	1.705
Mof_La	La	0.28429	0.12493	0.54746	1.876
Mof_Cu	Cu	0.35704	0.01099	0.54981	0.877
Mof_Cu	Cu	0.57819	0.88142	0.49097	0.87
Mof_Cu	Cu	0.55607	0.01828	0.89685	0.653
Mof_O 	O 	0.42434	0.97245	0.683	-0.545
Mof_O 	O 	0.44755	0.98485	0.5333	-0.376
Mof_O 	O 	0.51119	0.90576	0.645	-0.452
Mof_O 	O 	0.50955	0.94423	0.5132	-0.38
Mof_O 	O 	0.53251	0.96377	0.7143	-0.453
Mof_O 	O 	0.48069	0.99715	0.7631	-0.277
Mof_O 	O 	0.28834	0.06803	0.6127	-0.379
Mof_O 	O 	0.3066	0.08149	0.4581	-0.366
Mof_O 	O 	0.66551	0.85441	0.529	-0.415
Mof_O 	O 	0.66257	0.88705	0.3875	-0.356
Mof_O 	O 	0.62528	0.01764	0.0561	-0.468
Mof_O 	O 	0.57609	0.0494	0.1209	-0.194
Mof_O 	O 	0.37765	0.99058	0.6476	-0.527
Mof_O 	O 	0.32286	0.02855	0.6187	-0.391
Mof_N 	N 	0.39766	0.00346	0.4982	-0.243
Mof_N 	N 	0.34263	0.04034	0.4686	-0.245
Mof_C 	C 	0.40638	0.98428	0.6315	0.268
Mof_C 	C 	0.4183	0.991	0.546	0.084
Mof_C 	C 	0.3086	0.0515	0.583	0.266
Mof_C 	C 	0.32	0.059	0.495	0.101
Mof_C 	C 	0.4062	0.0119	0.4158	0.013
Mof_H 	H 	0.4197	0.0303	0.4168	0.04
Mof_H 	H 	0.4178	0.9948	0.3906	0.018
Mof_C 	C 	0.3773	0.0189	0.3669	-0.104
Mof_H 	H 	0.3647	0.9999	0.3675	0.029
Mof_H 	H 	0.3841	0.0219	0.3108	0.059
Mof_C 	C 	0.3915	0.0457	0.3909	-0.164
Mof_H 	H 	0.4	0.0521	0.3383	0.072
Mof_H 	H 	0.3979	0.0613	0.4311	0.041
Mof_C 	C 	0.3563	0.0449	0.3862	0.014
Mof_H 	H 	0.3678	0.0646	0.3845	0.04
Mof_H 	H 	0.3396	0.0459	0.3459	0.019
Mof_O 	O 	0.55157	0.87933	0.5898	-0.409
Mof_O 	O 	0.61366	0.86046	0.5471	-0.398
Mof_N 	N 	0.5481	0.91316	0.4549	-0.239
Mof_N 	N 	0.60872	0.89146	0.4091	-0.246
Mof_C 	C 	0.5308	0.9005	0.5902	0.274
Mof_C 	C 	0.5291	0.921	0.5118	0.087
Mof_C 	C 	0.6397	0.8644	0.507	0.238
Mof_C 	C 	0.638	0.8827	0.4274	0.088
Mof_C 	C 	0.5496	0.9301	0.379	-0.055
Mof_H 	H 	0.5285	0.933	0.3576	-0.004
Mof_H 	H 	0.5585	0.9508	0.3886	0.017
Mof_C 	C 	0.569	0.9131	0.3176	-0.063
Mof_H 	H 	0.5609	0.8919	0.3126	-0.031
Mof_H 	H 	0.5663	0.9233	0.265	-0.117
Mof_C 	C 	0.6038	0.9111	0.3353	-0.063
Mof_H 	H 	0.6123	0.9321	0.3445	0.013
Mof_H 	H 	0.6147	0.9019	0.289	0.016
Mof_O 	O 	0.56144	0.9884	0.8075	-0.449
Mof_O 	O 	0.59792	0.0081	0.9435	-0.503
Mof_N 	N 	0.51327	0.0203	0.8591	1.244
Mof_N 	N 	0.54932	0.0401	0.0006	2.038
Mof_C 	C 	0.5358	0.9831	0.7709	0.337
Mof_C 	C 	0.5068	0.0023	0.7993	-0.423
Mof_C 	C 	0.601	0.0197	0.011	0.414
Mof_C 	C 	0.573	0.0383	0.0504	-0.601
Mof_C 	C 	0.4885	0.0397	0.8948	-13.135
Mof_H 	H 	0.4749	0.0474	0.8516	4.211
Mof_H 	H 	0.4758	0.0268	0.9312	3.271
Mof_C 	C 	0.5018	0.0676	0.9428	2.669
Mof_H 	H 	0.5157	0.0796	0.9074	1.021
Mof_H 	H 	0.4846	0.0813	0.9589	6.254
Mof_C 	C 	0.5004	0.0547	0.971	23.159
Mof_H 	H 	0.4826	0.0509	0.0063	-7.837
Mof_H 	H 	0.4982	0.0766	0.9551	-13.579
Mof_C 	C 	0.5205	0.0574	0.0213	-19.432
Mof_H 	H 	0.5072	0.0442	0.0551	5.019
Mof_H 	H 	0.526	0.0759	0.0529	6.546
_end
