data_functionalizedCrystal
_audit_creation_method	'EQeq! by Chris Wilmer'
_symmetry_space_group_name_H-M	'P1'
_symmetry_Int_Tables_number	1
_symmetry_cell_setting	triclinic
loop_
_symmetry_equiv_pos_as_xyz
  x,y,z
_cell_length_a	14.1381
_cell_length_b	14.1381
_cell_length_c	21.558
_cell_angle_alpha	90
_cell_angle_beta	90
_cell_angle_gamma	120
loop_
_atom_site_label
_atom_site_type_symbol
_atom_site_fract_x
_atom_site_fract_y
_atom_site_fract_z
_atom_site_charge
Mof_C 	C 	0.1935	0.0032	0.0848	0.403
Mof_C 	C 	0.2708	0.999	0.1311	0.019
Mof_C 	C 	0.2955	0.9186	0.1442	-0.06
Mof_H 	H 	0.2652	0.8504	0.1254	0.044
Mof_O 	O 	0.2023	0.0939	0.07557	-0.503
Mof_O 	O 	0.1299	0.9162	0.061	-0.539
Mof_C 	C 	0.86017	0.33653	0.41813	0.436
Mof_C 	C 	0.93747	0.33233	0.46443	0.004
Mof_C 	C 	0.96217	0.25193	0.47753	-0.017
Mof_H 	H 	0.93187	0.18373	0.45873	0.043
Mof_O 	O 	0.86897	0.42723	0.4089	-0.476
Mof_O 	O 	0.79657	0.24953	0.39433	-0.518
Mof_C 	C 	0.52683	0.66987	0.75147	0.439
Mof_C 	C 	0.60413	0.66567	0.79777	0.004
Mof_C 	C 	0.62883	0.58527	0.81087	-0.019
Mof_H 	H 	0.59853	0.51707	0.79207	0.052
Mof_O 	O 	0.53563	0.76057	0.74224	-0.472
Mof_O 	O 	0.46323	0.58287	0.72767	-0.513
Mof_C 	C 	0.9968	0.1903	0.0848	0.458
Mof_C 	C 	0.001	0.2718	0.1311	-0.037
Mof_C 	C 	0.0814	0.3769	0.1442	-0.01
Mof_H 	H 	0.1496	0.4148	0.1254	0.025
Mof_O 	O 	0.9061	0.1084	0.07557	-0.518
Mof_O 	O 	0.0838	0.2137	0.061	-0.563
Mof_C 	C 	0.66347	0.52363	0.41813	0.436
Mof_C 	C 	0.66767	0.60513	0.46443	0.001
Mof_C 	C 	0.74807	0.71023	0.47753	-0.029
Mof_H 	H 	0.81627	0.74813	0.45873	0.053
Mof_O 	O 	0.57277	0.44173	0.4089	-0.479
Mof_O 	O 	0.75047	0.54703	0.39433	-0.514
Mof_C 	C 	0.33013	0.85697	0.75147	0.432
Mof_C 	C 	0.33433	0.93847	0.79777	0.022
Mof_C 	C 	0.41473	0.04357	0.81087	-0.051
Mof_H 	H 	0.48293	0.08147	0.79207	0.059
Mof_O 	O 	0.23943	0.77507	0.74224	-0.474
Mof_O 	O 	0.41713	0.88037	0.72767	-0.508
Mof_C 	C 	0.8097	0.8065	0.0848	0.437
Mof_C 	C 	0.7282	0.7292	0.1311	-0.014
Mof_C 	C 	0.6231	0.7045	0.1442	-0.029
Mof_H 	H 	0.5852	0.7348	0.1254	0.034
Mof_O 	O 	0.8916	0.7977	0.07557	-0.5
Mof_O 	O 	0.7863	0.8701	0.061	-0.544
Mof_C 	C 	0.47637	0.13983	0.41813	0.432
Mof_C 	C 	0.39487	0.06253	0.46443	0.007
Mof_C 	C 	0.28977	0.03783	0.47753	-0.055
Mof_H 	H 	0.25187	0.06813	0.45873	0.054
Mof_O 	O 	0.55827	0.13103	0.4089	-0.481
Mof_O 	O 	0.45297	0.20343	0.39433	-0.516
Mof_C 	C 	0.14303	0.47317	0.75147	0.443
Mof_C 	C 	0.06153	0.39587	0.79777	-0.012
Mof_C 	C 	0.95643	0.37117	0.81087	0.003
Mof_H 	H 	0.91853	0.40147	0.79207	0.046
Mof_O 	O 	0.22493	0.46437	0.74224	-0.477
Mof_O 	O 	0.11963	0.53677	0.72767	-0.517
Mof_C 	C 	0.0032	0.1935	0.9152	0.412
Mof_C 	C 	0.999	0.2708	0.8689	0.036
Mof_C 	C 	0.9186	0.2955	0.8558	-0.051
Mof_H 	H 	0.8504	0.2652	0.8746	0.073
Mof_O 	O 	0.0939	0.2023	0.92443	-0.43
Mof_O 	O 	0.9162	0.1299	0.939	-0.458
Mof_C 	C 	0.66987	0.52683	0.24853	0.434
Mof_C 	C 	0.66567	0.60413	0.20223	-0.003
Mof_C 	C 	0.58527	0.62883	0.18913	-0.037
Mof_H 	H 	0.51707	0.59853	0.20793	0.046
Mof_O 	O 	0.76057	0.53563	0.25776	-0.481
Mof_O 	O 	0.58287	0.46323	0.27233	-0.519
Mof_C 	C 	0.33653	0.86017	0.58187	0.435
Mof_C 	C 	0.33233	0.93747	0.53557	0.006
Mof_C 	C 	0.25193	0.96217	0.52247	-0.01
Mof_H 	H 	0.18373	0.93187	0.54127	0.042
Mof_O 	O 	0.42723	0.86897	0.5911	-0.475
Mof_O 	O 	0.24953	0.79657	0.60567	-0.517
Mof_C 	C 	0.1903	0.9968	0.9152	0.453
Mof_C 	C 	0.2718	0.001	0.8689	-0.009
Mof_C 	C 	0.3769	0.0814	0.8558	-0.009
Mof_H 	H 	0.4148	0.1496	0.8746	0.058
Mof_O 	O 	0.1084	0.9061	0.92443	-0.442
Mof_O 	O 	0.2137	0.0838	0.939	-0.473
Mof_C 	C 	0.85697	0.33013	0.24853	0.429
Mof_C 	C 	0.93847	0.33433	0.20223	0.01
Mof_C 	C 	0.04357	0.41473	0.18913	-0.062
Mof_H 	H 	0.08147	0.48293	0.20793	0.052
Mof_O 	O 	0.77507	0.23943	0.25776	-0.484
Mof_O 	O 	0.88037	0.41713	0.27233	-0.515
Mof_C 	C 	0.52363	0.66347	0.58187	0.435
Mof_C 	C 	0.60513	0.66767	0.53557	0.002
Mof_C 	C 	0.71023	0.74807	0.52247	-0.029
Mof_H 	H 	0.74813	0.81627	0.54127	0.054
Mof_O 	O 	0.44173	0.57277	0.5911	-0.479
Mof_O 	O 	0.54703	0.75047	0.60567	-0.513
Mof_C 	C 	0.8065	0.8097	0.9152	0.429
Mof_C 	C 	0.7292	0.7282	0.8689	0.021
Mof_C 	C 	0.7045	0.6231	0.8558	-0.034
Mof_H 	H 	0.7348	0.5852	0.8746	0.069
Mof_O 	O 	0.7977	0.8916	0.92443	-0.424
Mof_O 	O 	0.8701	0.7863	0.939	-0.454
Mof_C 	C 	0.47317	0.14303	0.24853	0.441
Mof_C 	C 	0.39587	0.06153	0.20223	-0.027
Mof_C 	C 	0.37117	0.95643	0.18913	0.001
Mof_H 	H 	0.40147	0.91853	0.20793	0.036
Mof_O 	O 	0.46437	0.22493	0.25776	-0.486
Mof_O 	O 	0.53677	0.11963	0.27233	-0.525
Mof_C 	C 	0.13983	0.47637	0.58187	0.433
Mof_C 	C 	0.06253	0.39487	0.53557	0.004
Mof_C 	C 	0.03783	0.28977	0.52247	-0.046
Mof_H 	H 	0.06813	0.25187	0.54127	0.052
Mof_O 	O 	0.13103	0.55827	0.5911	-0.48
Mof_O 	O 	0.20343	0.45297	0.60567	-0.516
Mof_Mg	Mg	0.14289	0.14289	-0	1.462
Mof_Mg	Mg	0.80956	0.47622	0.33333	1.472
Mof_Mg	Mg	0.47622	0.80956	0.66667	1.472
Mof_Mg	Mg	0.85711	0	-0	1.461
Mof_Mg	Mg	0.52378	0.33333	0.33333	1.472
Mof_Mg	Mg	0.19044	0.66667	0.66667	1.472
Mof_Mg	Mg	-0	0.85711	-0	1.462
Mof_Mg	Mg	0.66667	0.19044	0.33333	1.472
Mof_Mg	Mg	0.33333	0.52378	0.66667	1.472
Mof_O 	O 	0.33333	0.08722	0.16667	-0.158
Mof_O 	O 	-6.29039e-17	0.42055	0.5	-0.151
Mof_O 	O 	0.91278	0.24612	0.16667	-0.145
Mof_O 	O 	0.57945	0.57945	0.5	-0.143
Mof_O 	O 	0.75388	0.66667	0.16667	-0.146
Mof_O 	O 	0.42055	0	0.5	-0.155
Mof_O 	O 	0.08722	0.33333	0.83333	-0.143
Mof_O 	O 	0.24612	0.91278	0.83333	-0.133
Mof_O 	O 	0.66667	0.75388	0.83333	-0.136
Mof_O 	O 	-0	0	-0	-0.829
Mof_O 	O 	0.66667	0.33333	0.33333	-0.748
Mof_O 	O 	0.33333	0.66667	0.66667	-0.746
_end
