data_functionalizedCrystal
_audit_creation_method	'EQeq! by Chris Wilmer'
_symmetry_space_group_name_H-M	'P1'
_symmetry_Int_Tables_number	1
_symmetry_cell_setting	triclinic
loop_
_symmetry_equiv_pos_as_xyz
  x,y,z
_cell_length_a	24.295
_cell_length_b	24.295
_cell_length_c	15.0574
_cell_angle_alpha	90
_cell_angle_beta	90
_cell_angle_gamma	90
loop_
_atom_site_label
_atom_site_type_symbol
_atom_site_fract_x
_atom_site_fract_y
_atom_site_fract_z
_atom_site_charge
Mof_F 	F 	0.3444	0.294	0.0803	-0.08
Mof_F 	F 	0.3298	0.381	0.0576	-0.021
Mof_F 	F 	0.367	0.3513	0.1848	-0.066
Mof_O 	O 	0.14785	0.44465	0.0878	-0.69
Mof_O 	O 	0.08362	0.39754	0.1646	-0.808
Mof_C 	C 	0.2542	0.2963	0.2329	0.669
Mof_C 	C 	0.2669	0.3342	0.1691	-1.068
Mof_C 	C 	0.2276	0.3714	0.139	0.92
Mof_H 	H 	0.2366	0.3975	0.0945	-0.161
Mof_C 	C 	0.1758	0.3698	0.1741	-0.754
Mof_C 	C 	0.1627	0.3344	0.2413	0.962
Mof_H 	H 	0.1272	0.3357	0.2678	-0.221
Mof_C 	C 	0.2015	0.2965	0.271	-1.17
Mof_H 	H 	0.1924	0.2711	0.3166	1.44
Mof_C 	C 	0.1326	0.4074	0.1388	0.777
Mof_C 	C 	0.3225	0.3416	0.1244	-0.939
Mof_H 	H 	0.3031	0.3351	0.145	1.264
Mof_F 	F 	0.2149	0.2536	0.4205	-0.068
Mof_F 	F 	0.129	0.2725	0.387	-0.069
Mof_C 	C 	0.1796	0.2597	0.3449	-1.162
Mof_F 	F 	0.1703	0.2034	0.3224	-0.1
Mof_F 	F 	0.6556	0.706	0.0803	-0.07
Mof_F 	F 	0.6702	0.619	0.0576	-0.016
Mof_F 	F 	0.633	0.6487	0.1848	-0.06
Mof_O 	O 	0.85215	0.55535	0.0878	-0.677
Mof_O 	O 	0.91638	0.60246	0.1646	-0.679
Mof_C 	C 	0.7458	0.7037	0.2329	0.667
Mof_C 	C 	0.7331	0.6658	0.1691	-1.061
Mof_C 	C 	0.7724	0.6286	0.139	0.909
Mof_H 	H 	0.7634	0.6025	0.0945	-0.154
Mof_C 	C 	0.8242	0.6302	0.1741	-0.708
Mof_C 	C 	0.8373	0.6656	0.2413	0.949
Mof_H 	H 	0.8728	0.6643	0.2678	-0.158
Mof_C 	C 	0.7985	0.7035	0.271	-1.145
Mof_H 	H 	0.8076	0.7289	0.3166	1.458
Mof_C 	C 	0.8674	0.5926	0.1388	0.755
Mof_C 	C 	0.6775	0.6584	0.1244	-0.959
Mof_H 	H 	0.6969	0.6649	0.145	1.276
Mof_F 	F 	0.7851	0.7464	0.4205	-0.037
Mof_F 	F 	0.871	0.7275	0.387	0.029
Mof_C 	C 	0.8204	0.7403	0.3449	-1.189
Mof_F 	F 	0.8297	0.7966	0.3224	-0.004
Mof_F 	F 	0.706	0.3444	0.5803	-0.064
Mof_F 	F 	0.619	0.3298	0.5576	-0.008
Mof_F 	F 	0.6487	0.367	0.6848	-0.059
Mof_O 	O 	0.55535	0.14785	0.5878	-0.683
Mof_O 	O 	0.60246	0.08362	0.6646	-0.798
Mof_C 	C 	0.7037	0.2542	0.7329	0.668
Mof_C 	C 	0.6658	0.2669	0.6691	-1.063
Mof_C 	C 	0.6286	0.2276	0.639	0.918
Mof_H 	H 	0.6025	0.2366	0.5945	-0.154
Mof_C 	C 	0.6302	0.1758	0.6741	-0.744
Mof_C 	C 	0.6656	0.1627	0.7413	0.959
Mof_H 	H 	0.6643	0.1272	0.7678	-0.211
Mof_C 	C 	0.7035	0.2015	0.771	-1.16
Mof_H 	H 	0.7289	0.1924	0.8166	1.439
Mof_C 	C 	0.5926	0.1326	0.6388	0.775
Mof_C 	C 	0.6584	0.3225	0.6244	-0.943
Mof_H 	H 	0.6649	0.3031	0.645	1.265
Mof_F 	F 	0.7464	0.2149	0.9205	-0.047
Mof_F 	F 	0.7275	0.129	0.887	-0.043
Mof_C 	C 	0.7403	0.1796	0.8449	-1.162
Mof_F 	F 	0.7966	0.1703	0.8224	-0.053
Mof_F 	F 	0.294	0.6556	0.5803	-0.068
Mof_F 	F 	0.381	0.6702	0.5576	-0.005
Mof_F 	F 	0.3513	0.633	0.6848	-0.059
Mof_O 	O 	0.44465	0.85215	0.5878	-0.671
Mof_O 	O 	0.39754	0.91638	0.6646	-0.682
Mof_C 	C 	0.2963	0.7458	0.7329	0.668
Mof_C 	C 	0.3342	0.7331	0.6691	-1.061
Mof_C 	C 	0.3714	0.7724	0.639	0.91
Mof_H 	H 	0.3975	0.7634	0.5945	-0.149
Mof_C 	C 	0.3698	0.8242	0.6741	-0.709
Mof_C 	C 	0.3344	0.8373	0.7413	0.95
Mof_H 	H 	0.3357	0.8728	0.7678	-0.162
Mof_C 	C 	0.2965	0.7985	0.771	-1.151
Mof_H 	H 	0.2711	0.8076	0.8166	1.462
Mof_C 	C 	0.4074	0.8674	0.6388	0.755
Mof_C 	C 	0.3416	0.6775	0.6244	-0.96
Mof_H 	H 	0.3351	0.6969	0.645	1.278
Mof_F 	F 	0.2536	0.7851	0.9205	-0.043
Mof_F 	F 	0.2725	0.871	0.887	0.017
Mof_C 	C 	0.2597	0.8204	0.8449	-1.194
Mof_F 	F 	0.2034	0.8297	0.8224	-0.042
Mof_F 	F 	0.6556	0.294	0.9197	-0.061
Mof_F 	F 	0.6702	0.381	0.9424	0.005
Mof_F 	F 	0.633	0.3513	0.8152	-0.057
Mof_O 	O 	0.85215	0.44465	0.9122	-0.662
Mof_O 	O 	0.91638	0.39754	0.8354	-0.679
Mof_C 	C 	0.7458	0.2963	0.7671	0.668
Mof_C 	C 	0.7331	0.3342	0.8309	-1.058
Mof_C 	C 	0.7724	0.3714	0.861	0.909
Mof_H 	H 	0.7634	0.3975	0.9055	-0.144
Mof_C 	C 	0.8242	0.3698	0.8259	-0.707
Mof_C 	C 	0.8373	0.3344	0.7587	0.95
Mof_H 	H 	0.8728	0.3357	0.7322	-0.163
Mof_C 	C 	0.7985	0.2965	0.729	-1.152
Mof_H 	H 	0.8076	0.2711	0.6834	1.464
Mof_C 	C 	0.8674	0.4074	0.8612	0.754
Mof_C 	C 	0.6775	0.3416	0.8756	-0.961
Mof_H 	H 	0.6969	0.3351	0.855	1.278
Mof_F 	F 	0.7851	0.2536	0.5795	-0.05
Mof_F 	F 	0.871	0.2725	0.613	0.012
Mof_C 	C 	0.8204	0.2597	0.6551	-1.196
Mof_F 	F 	0.8297	0.2034	0.6776	-0.044
Mof_F 	F 	0.3444	0.706	0.9197	-0.057
Mof_F 	F 	0.3298	0.619	0.9424	0.002
Mof_F 	F 	0.367	0.6487	0.8152	-0.058
Mof_O 	O 	0.14785	0.55535	0.9122	-0.674
Mof_O 	O 	0.08362	0.60246	0.8354	-0.794
Mof_C 	C 	0.2542	0.7037	0.7671	0.667
Mof_C 	C 	0.2669	0.6658	0.8309	-1.06
Mof_C 	C 	0.2276	0.6286	0.861	0.917
Mof_H 	H 	0.2366	0.6025	0.9055	-0.149
Mof_C 	C 	0.1758	0.6302	0.8259	-0.741
Mof_C 	C 	0.1627	0.6656	0.7587	0.959
Mof_H 	H 	0.1272	0.6643	0.7322	-0.212
Mof_C 	C 	0.2015	0.7035	0.729	-1.161
Mof_H 	H 	0.1924	0.7289	0.6834	1.441
Mof_C 	C 	0.1326	0.5926	0.8612	0.775
Mof_C 	C 	0.3225	0.6584	0.8756	-0.943
Mof_H 	H 	0.3031	0.6649	0.855	1.266
Mof_F 	F 	0.2149	0.7464	0.5795	-0.054
Mof_F 	F 	0.129	0.7275	0.613	-0.048
Mof_C 	C 	0.1796	0.7403	0.6551	-1.165
Mof_F 	F 	0.1703	0.7966	0.6776	-0.055
Mof_F 	F 	0.294	0.3444	0.4197	-0.072
Mof_F 	F 	0.381	0.3298	0.4424	-0.01
Mof_F 	F 	0.3513	0.367	0.3152	-0.063
Mof_O 	O 	0.44465	0.14785	0.4122	-0.685
Mof_O 	O 	0.39754	0.08362	0.3354	-0.808
Mof_C 	C 	0.2963	0.2542	0.2671	0.669
Mof_C 	C 	0.3342	0.2669	0.3309	-1.066
Mof_C 	C 	0.3714	0.2276	0.361	0.919
Mof_H 	H 	0.3975	0.2366	0.4055	-0.156
Mof_C 	C 	0.3698	0.1758	0.3259	-0.752
Mof_C 	C 	0.3344	0.1627	0.2587	0.961
Mof_H 	H 	0.3357	0.1272	0.2322	-0.222
Mof_C 	C 	0.2965	0.2015	0.229	-1.171
Mof_H 	H 	0.2711	0.1924	0.1834	1.442
Mof_C 	C 	0.4074	0.1326	0.3612	0.776
Mof_C 	C 	0.3416	0.3225	0.3756	-0.94
Mof_H 	H 	0.3351	0.3031	0.355	1.264
Mof_F 	F 	0.2536	0.2149	0.0795	-0.075
Mof_F 	F 	0.2725	0.129	0.113	-0.074
Mof_C 	C 	0.2597	0.1796	0.1551	-1.164
Mof_F 	F 	0.2034	0.1703	0.1776	-0.102
Mof_F 	F 	0.706	0.6556	0.4197	-0.062
Mof_F 	F 	0.619	0.6702	0.4424	-0.005
Mof_F 	F 	0.6487	0.633	0.3152	-0.058
Mof_O 	O 	0.55535	0.85215	0.4122	-0.671
Mof_O 	O 	0.60246	0.91638	0.3354	-0.678
Mof_C 	C 	0.7037	0.7458	0.2671	0.667
Mof_C 	C 	0.6658	0.7331	0.3309	-1.059
Mof_C 	C 	0.6286	0.7724	0.361	0.908
Mof_H 	H 	0.6025	0.7634	0.4055	-0.149
Mof_C 	C 	0.6302	0.8242	0.3259	-0.706
Mof_C 	C 	0.6656	0.8373	0.2587	0.949
Mof_H 	H 	0.6643	0.8728	0.2322	-0.159
Mof_C 	C 	0.7035	0.7985	0.229	-1.147
Mof_H 	H 	0.7289	0.8076	0.1834	1.46
Mof_C 	C 	0.5926	0.8674	0.3612	0.754
Mof_C 	C 	0.6584	0.6775	0.3756	-0.96
Mof_H 	H 	0.6649	0.6969	0.355	1.277
Mof_F 	F 	0.7464	0.7851	0.0795	-0.045
Mof_F 	F 	0.7275	0.871	0.113	0.023
Mof_C 	C 	0.7403	0.8204	0.1551	-1.192
Mof_F 	F 	0.7966	0.8297	0.1776	-0.006
Mof_F 	F 	0.6556	0.706	0.9197	-0.054
Mof_F 	F 	0.6702	0.619	0.9424	0.005
Mof_F 	F 	0.633	0.6487	0.8152	-0.055
Mof_O 	O 	0.85215	0.55535	0.9122	-0.661
Mof_O 	O 	0.91638	0.60246	0.8354	-0.672
Mof_C 	C 	0.7458	0.7037	0.7671	0.666
Mof_C 	C 	0.7331	0.6658	0.8309	-1.056
Mof_C 	C 	0.7724	0.6286	0.861	0.907
Mof_H 	H 	0.7634	0.6025	0.9055	-0.143
Mof_C 	C 	0.8242	0.6302	0.8259	-0.701
Mof_C 	C 	0.8373	0.6656	0.7587	0.948
Mof_H 	H 	0.8728	0.6643	0.7322	-0.156
Mof_C 	C 	0.7985	0.7035	0.729	-1.144
Mof_H 	H 	0.8076	0.7289	0.6834	1.462
Mof_C 	C 	0.8674	0.5926	0.8612	0.754
Mof_C 	C 	0.6775	0.6584	0.8756	-0.962
Mof_H 	H 	0.6969	0.6649	0.855	1.278
Mof_F 	F 	0.7851	0.7464	0.5795	-0.036
Mof_F 	F 	0.871	0.7275	0.613	0.031
Mof_C 	C 	0.8204	0.7403	0.6551	-1.194
Mof_F 	F 	0.8297	0.7966	0.6776	-0.001
Mof_F 	F 	0.3444	0.294	0.9197	-0.064
Mof_F 	F 	0.3298	0.381	0.9424	0.001
Mof_F 	F 	0.367	0.3513	0.8152	-0.06
Mof_O 	O 	0.14785	0.44465	0.9122	-0.674
Mof_O 	O 	0.08362	0.39754	0.8354	-0.801
Mof_C 	C 	0.2542	0.2963	0.7671	0.669
Mof_C 	C 	0.2669	0.3342	0.8309	-1.063
Mof_C 	C 	0.2276	0.3714	0.861	0.918
Mof_H 	H 	0.2366	0.3975	0.9055	-0.15
Mof_C 	C 	0.1758	0.3698	0.8259	-0.747
Mof_C 	C 	0.1627	0.3344	0.7587	0.961
Mof_H 	H 	0.1272	0.3357	0.7322	-0.219
Mof_C 	C 	0.2015	0.2965	0.729	-1.169
Mof_H 	H 	0.1924	0.2711	0.6834	1.444
Mof_C 	C 	0.1326	0.4074	0.8612	0.775
Mof_C 	C 	0.3225	0.3416	0.8756	-0.942
Mof_H 	H 	0.3031	0.3351	0.855	1.266
Mof_F 	F 	0.2149	0.2536	0.5795	-0.068
Mof_F 	F 	0.129	0.2725	0.613	-0.068
Mof_C 	C 	0.1796	0.2597	0.6551	-1.167
Mof_F 	F 	0.1703	0.2034	0.6776	-0.097
Mof_F 	F 	0.294	0.6556	0.4197	-0.069
Mof_F 	F 	0.381	0.6702	0.4424	-0.006
Mof_F 	F 	0.3513	0.633	0.3152	-0.06
Mof_O 	O 	0.44465	0.85215	0.4122	-0.672
Mof_O 	O 	0.39754	0.91638	0.3354	-0.685
Mof_C 	C 	0.2963	0.7458	0.2671	0.668
Mof_C 	C 	0.3342	0.7331	0.3309	-1.061
Mof_C 	C 	0.3714	0.7724	0.361	0.91
Mof_H 	H 	0.3975	0.7634	0.4055	-0.15
Mof_C 	C 	0.3698	0.8242	0.3259	-0.711
Mof_C 	C 	0.3344	0.8373	0.2587	0.951
Mof_H 	H 	0.3357	0.8728	0.2322	-0.166
Mof_C 	C 	0.2965	0.7985	0.229	-1.154
Mof_H 	H 	0.2711	0.8076	0.1834	1.463
Mof_C 	C 	0.4074	0.8674	0.3612	0.755
Mof_C 	C 	0.3416	0.6775	0.3756	-0.959
Mof_H 	H 	0.3351	0.6969	0.355	1.277
Mof_F 	F 	0.2536	0.7851	0.0795	-0.058
Mof_F 	F 	0.2725	0.871	0.113	0.005
Mof_C 	C 	0.2597	0.8204	0.1551	-1.194
Mof_F 	F 	0.2034	0.8297	0.1776	-0.048
Mof_F 	F 	0.706	0.3444	0.4197	-0.065
Mof_F 	F 	0.619	0.3298	0.4424	-0.009
Mof_F 	F 	0.6487	0.367	0.3152	-0.061
Mof_O 	O 	0.55535	0.14785	0.4122	-0.684
Mof_O 	O 	0.60246	0.08362	0.3354	-0.801
Mof_C 	C 	0.7037	0.2542	0.2671	0.668
Mof_C 	C 	0.6658	0.2669	0.3309	-1.063
Mof_C 	C 	0.6286	0.2276	0.361	0.918
Mof_H 	H 	0.6025	0.2366	0.4055	-0.155
Mof_C 	C 	0.6302	0.1758	0.3259	-0.746
Mof_C 	C 	0.6656	0.1627	0.2587	0.96
Mof_H 	H 	0.6643	0.1272	0.2322	-0.215
Mof_C 	C 	0.7035	0.2015	0.229	-1.163
Mof_H 	H 	0.7289	0.1924	0.1834	1.439
Mof_C 	C 	0.5926	0.1326	0.3612	0.775
Mof_C 	C 	0.6584	0.3225	0.3756	-0.941
Mof_H 	H 	0.6649	0.3031	0.355	1.264
Mof_F 	F 	0.7464	0.2149	0.0795	-0.062
Mof_F 	F 	0.7275	0.129	0.113	-0.055
Mof_C 	C 	0.7403	0.1796	0.1551	-1.162
Mof_F 	F 	0.7966	0.1703	0.1776	-0.06
Mof_F 	F 	0.3444	0.706	0.0803	-0.072
Mof_F 	F 	0.3298	0.619	0.0576	-0.019
Mof_F 	F 	0.367	0.6487	0.1848	-0.063
Mof_O 	O 	0.14785	0.55535	0.0878	-0.689
Mof_O 	O 	0.08362	0.60246	0.1646	-0.801
Mof_C 	C 	0.2542	0.7037	0.2329	0.668
Mof_C 	C 	0.2669	0.6658	0.1691	-1.066
Mof_C 	C 	0.2276	0.6286	0.139	0.918
Mof_H 	H 	0.2366	0.6025	0.0945	-0.16
Mof_C 	C 	0.1758	0.6302	0.1741	-0.749
Mof_C 	C 	0.1627	0.6656	0.2413	0.96
Mof_H 	H 	0.1272	0.6643	0.2678	-0.214
Mof_C 	C 	0.2015	0.7035	0.271	-1.162
Mof_H 	H 	0.1924	0.7289	0.3166	1.438
Mof_C 	C 	0.1326	0.5926	0.1388	0.776
Mof_C 	C 	0.3225	0.6584	0.1244	-0.94
Mof_H 	H 	0.3031	0.6649	0.145	1.264
Mof_F 	F 	0.2149	0.7464	0.4205	-0.055
Mof_F 	F 	0.129	0.7275	0.387	-0.05
Mof_C 	C 	0.1796	0.7403	0.3449	-1.16
Mof_F 	F 	0.1703	0.7966	0.3224	-0.057
Mof_F 	F 	0.6556	0.294	0.0803	-0.076
Mof_F 	F 	0.6702	0.381	0.0576	-0.016
Mof_F 	F 	0.633	0.3513	0.1848	-0.062
Mof_O 	O 	0.85215	0.44465	0.0878	-0.678
Mof_O 	O 	0.91638	0.39754	0.1646	-0.686
Mof_C 	C 	0.7458	0.2963	0.2329	0.668
Mof_C 	C 	0.7331	0.3342	0.1691	-1.064
Mof_C 	C 	0.7724	0.3714	0.139	0.911
Mof_H 	H 	0.7634	0.3975	0.0945	-0.155
Mof_C 	C 	0.8242	0.3698	0.1741	-0.714
Mof_C 	C 	0.8373	0.3344	0.2413	0.951
Mof_H 	H 	0.8728	0.3357	0.2678	-0.165
Mof_C 	C 	0.7985	0.2965	0.271	-1.153
Mof_H 	H 	0.8076	0.2711	0.3166	1.461
Mof_C 	C 	0.8674	0.4074	0.1388	0.756
Mof_C 	C 	0.6775	0.3416	0.1244	-0.958
Mof_H 	H 	0.6969	0.3351	0.145	1.276
Mof_F 	F 	0.7851	0.2536	0.4205	-0.051
Mof_F 	F 	0.871	0.2725	0.387	0.01
Mof_C 	C 	0.8204	0.2597	0.3449	-1.191
Mof_F 	F 	0.8297	0.2034	0.3224	-0.047
Mof_F 	F 	0.706	0.6556	0.5803	-0.061
Mof_F 	F 	0.619	0.6702	0.5576	-0.004
Mof_F 	F 	0.6487	0.633	0.6848	-0.056
Mof_O 	O 	0.55535	0.85215	0.5878	-0.67
Mof_O 	O 	0.60246	0.91638	0.6646	-0.675
Mof_C 	C 	0.7037	0.7458	0.7329	0.667
Mof_C 	C 	0.6658	0.7331	0.6691	-1.058
Mof_C 	C 	0.6286	0.7724	0.639	0.908
Mof_H 	H 	0.6025	0.7634	0.5945	-0.148
Mof_C 	C 	0.6302	0.8242	0.6741	-0.703
Mof_C 	C 	0.6656	0.8373	0.7413	0.949
Mof_H 	H 	0.6643	0.8728	0.7678	-0.155
Mof_C 	C 	0.7035	0.7985	0.771	-1.143
Mof_H 	H 	0.7289	0.8076	0.8166	1.46
Mof_C 	C 	0.5926	0.8674	0.6388	0.754
Mof_C 	C 	0.6584	0.6775	0.6244	-0.961
Mof_H 	H 	0.6649	0.6969	0.645	1.278
Mof_F 	F 	0.7464	0.7851	0.9205	-0.03
Mof_F 	F 	0.7275	0.871	0.887	0.036
Mof_C 	C 	0.7403	0.8204	0.8449	-1.192
Mof_F 	F 	0.7966	0.8297	0.8224	0
Mof_F 	F 	0.294	0.3444	0.5803	-0.072
Mof_F 	F 	0.381	0.3298	0.5576	-0.009
Mof_F 	F 	0.3513	0.367	0.6848	-0.061
Mof_O 	O 	0.44465	0.14785	0.5878	-0.684
Mof_O 	O 	0.39754	0.08362	0.6646	-0.805
Mof_C 	C 	0.2963	0.2542	0.7329	0.669
Mof_C 	C 	0.3342	0.2669	0.6691	-1.065
Mof_C 	C 	0.3714	0.2276	0.639	0.919
Mof_H 	H 	0.3975	0.2366	0.5945	-0.155
Mof_C 	C 	0.3698	0.1758	0.6741	-0.75
Mof_C 	C 	0.3344	0.1627	0.7413	0.961
Mof_H 	H 	0.3357	0.1272	0.7678	-0.218
Mof_C 	C 	0.2965	0.2015	0.771	-1.167
Mof_H 	H 	0.2711	0.1924	0.8166	1.441
Mof_C 	C 	0.4074	0.1326	0.6388	0.776
Mof_C 	C 	0.3416	0.3225	0.6244	-0.941
Mof_H 	H 	0.3351	0.3031	0.645	1.265
Mof_F 	F 	0.2536	0.2149	0.9205	-0.06
Mof_F 	F 	0.2725	0.129	0.887	-0.062
Mof_C 	C 	0.2597	0.1796	0.8449	-1.164
Mof_F 	F 	0.2034	0.1703	0.8224	-0.095
Mof_Zr	Zr	0.10068	0.5	-0	3.212
Mof_Zr	Zr	0.89932	0.5	-0	3.21
Mof_Zr	Zr	0.5	0.10068	0.5	3.214
Mof_Zr	Zr	0.5	0.89932	0.5	3.213
Mof_Zr	Zr	1.69292e-33	0.42736	0.11738	3.152
Mof_Zr	Zr	1.69292e-33	0.57264	0.11738	3.152
Mof_Zr	Zr	0.57264	0	0.61738	3.152
Mof_Zr	Zr	0.42736	0	0.61738	3.151
Mof_Zr	Zr	7.73165e-33	0.42736	0.88262	3.154
Mof_Zr	Zr	2.05101e-33	0.57264	0.88262	3.154
Mof_Zr	Zr	0.42736	2.84032e-33	0.38262	3.151
Mof_Zr	Zr	0.57264	2.84032e-33	0.38262	3.152
Mof_O 	O 	0.0495	0.5	0.1185	-1.4
Mof_O 	O 	0.9505	0.5	0.1185	-1.225
Mof_O 	O 	0.5	0.0495	0.6185	-1.399
Mof_O 	O 	0.5	0.9505	0.6185	-1.222
Mof_O 	O 	0.9505	0.5	0.8815	-1.215
Mof_O 	O 	0.0495	0.5	0.8815	-1.39
Mof_O 	O 	0.5	0.0495	0.3815	-1.401
Mof_O 	O 	0.5	0.9505	0.3815	-1.224
Mof_O 	O 	0.0497	0.4266	-0	-1.412
Mof_O 	O 	0.9503	0.5734	-0	-1.237
Mof_O 	O 	0.5734	0.0497	0.5	-1.397
Mof_O 	O 	0.4266	0.9503	0.5	-1.226
Mof_O 	O 	0.9503	0.4266	-0	-1.242
Mof_O 	O 	0.0497	0.5734	-0	-1.407
Mof_O 	O 	0.4266	0.0497	0.5	-1.402
Mof_O 	O 	0.5734	0.9503	0.5	-1.221
_end
