data_functionalizedCrystal
_audit_creation_method	'EQeq! by Chris Wilmer'
_symmetry_space_group_name_H-M	'P1'
_symmetry_Int_Tables_number	1
_symmetry_cell_setting	triclinic
loop_
_symmetry_equiv_pos_as_xyz
  x,y,z
_cell_length_a	8.701
_cell_length_b	9.21
_cell_length_c	12.385
_cell_angle_alpha	111.11
_cell_angle_beta	101.42
_cell_angle_gamma	102.08
loop_
_atom_site_label
_atom_site_type_symbol
_atom_site_fract_x
_atom_site_fract_y
_atom_site_fract_z
_atom_site_charge
Mof_Al	Al	0.6985	0.2096	0.6241	7.192
Mof_Al	Al	0.6494	0.7823	0.1443	7.836
Mof_Al	Al	0.9802	0.6694	0.9428	7.446
Mof_Al	Al	0.5051	0.2067	0.1462	7.474
Mof_P 	P 	0.599	0.484	0.8011	1.974
Mof_P 	P 	0.5571	0.0549	0.3433	1.937
Mof_P 	P 	0.7794	0.0517	0.0678	1.721
Mof_P 	P 	0.0363	0.3432	0.8193	1.882
Mof_O 	O 	0.6732	0.1599	0.4723	-2.183
Mof_O 	O 	0.5164	0.1643	0.2835	-1.877
Mof_O 	O 	0.9094	0.2594	0.6935	-2.123
Mof_O 	O 	0.5116	0.7481	0.9984	-2.862
Mof_O 	O 	0.6367	0.9348	0.2768	-2.264
Mof_O 	O 	0.5085	0.595	0.77	-2.038
Mof_O 	O 	0.5121	0.3862	0.8578	-2.064
Mof_O 	O 	0.3947	0.9601	0.354	-2.211
Mof_O 	O 	0.6234	0.3712	0.684	-2.247
Mof_O 	O 	0.0715	0.5284	0.8678	-2.289
Mof_O 	O 	0.7695	0.5918	0.8903	-2.475
Mof_O 	O 	0.1945	0.3043	0.813	-2.107
Mof_O 	O 	0.6928	0.1652	0.1347	-2.189
Mof_O 	O 	0.9504	0.1557	0.0787	-2.089
Mof_O 	O 	0.8095	0.9344	0.1242	-1.918
Mof_O 	O 	0.6836	0.9582	0.9329	-2.172
Mof_O 	O 	0.958	0.2831	0.9026	-2.353
Mof_Al	Al	0.3015	0.7904	0.3759	7.191
Mof_Al	Al	0.3506	0.2177	0.8557	7.835
Mof_Al	Al	0.0198	0.3306	0.0572	7.446
Mof_Al	Al	0.4949	0.7933	0.8538	7.474
Mof_P 	P 	0.401	0.516	0.1989	1.974
Mof_P 	P 	0.4429	0.9451	0.6567	1.937
Mof_P 	P 	0.2206	0.9483	0.9322	1.721
Mof_P 	P 	0.9637	0.6568	0.1807	1.882
Mof_O 	O 	0.3268	0.8401	0.5277	-2.183
Mof_O 	O 	0.4836	0.8357	0.7165	-1.877
Mof_O 	O 	0.0906	0.7406	0.3065	-2.123
Mof_O 	O 	0.4884	0.2519	0.0016	-2.862
Mof_O 	O 	0.3633	0.0652	0.7232	-2.264
Mof_O 	O 	0.4915	0.405	0.23	-2.038
Mof_O 	O 	0.4879	0.6138	0.1422	-2.064
Mof_O 	O 	0.6053	0.0399	0.646	-2.211
Mof_O 	O 	0.3766	0.6288	0.316	-2.247
Mof_O 	O 	0.9285	0.4716	0.1322	-2.289
Mof_O 	O 	0.2305	0.4082	0.1097	-2.475
Mof_O 	O 	0.8055	0.6957	0.187	-2.107
Mof_O 	O 	0.3072	0.8348	0.8653	-2.189
Mof_O 	O 	0.0496	0.8443	0.9213	-2.089
Mof_O 	O 	0.1905	0.0656	0.8758	-1.918
Mof_O 	O 	0.3164	0.0418	0.0671	-2.172
Mof_O 	O 	0.042	0.7169	0.0974	-2.353
_end
