data_functionalizedCrystal
_audit_creation_method	'EQeq! by Chris Wilmer'
_symmetry_space_group_name_H-M	'P1'
_symmetry_Int_Tables_number	1
_symmetry_cell_setting	triclinic
loop_
_symmetry_equiv_pos_as_xyz
  x,y,z
_cell_length_a	25.8421
_cell_length_b	25.8421
_cell_length_c	25.8421
_cell_angle_alpha	90
_cell_angle_beta	90
_cell_angle_gamma	90
loop_
_atom_site_label
_atom_site_type_symbol
_atom_site_fract_x
_atom_site_fract_y
_atom_site_fract_z
_atom_site_charge
Mof_H 	H 	0.3118	0.1449	0.0413	0.062
Mof_H 	H 	0.3118	0.6449	0.5413	0.062
Mof_H 	H 	0.8118	0.1449	0.5413	0.062
Mof_H 	H 	0.8118	0.6449	0.0413	0.062
Mof_H 	H 	0.6882	0.8551	0.0413	0.062
Mof_H 	H 	0.6882	0.3551	0.5413	0.062
Mof_H 	H 	0.1882	0.8551	0.5413	0.062
Mof_H 	H 	0.1882	0.3551	0.0413	0.062
Mof_H 	H 	0.6882	0.1449	0.9587	0.062
Mof_H 	H 	0.6882	0.6449	0.4587	0.062
Mof_H 	H 	0.1882	0.1449	0.4587	0.062
Mof_H 	H 	0.1882	0.6449	0.9587	0.062
Mof_H 	H 	0.3118	0.8551	0.9587	0.062
Mof_H 	H 	0.3118	0.3551	0.4587	0.062
Mof_H 	H 	0.8118	0.8551	0.4587	0.062
Mof_H 	H 	0.8118	0.3551	0.9587	0.062
Mof_H 	H 	0.0413	0.3118	0.1449	0.062
Mof_H 	H 	0.0413	0.8118	0.6449	0.062
Mof_H 	H 	0.5413	0.3118	0.6449	0.062
Mof_H 	H 	0.5413	0.8118	0.1449	0.062
Mof_H 	H 	0.0413	0.6882	0.8551	0.062
Mof_H 	H 	0.0413	0.1882	0.3551	0.062
Mof_H 	H 	0.5413	0.6882	0.3551	0.062
Mof_H 	H 	0.5413	0.1882	0.8551	0.062
Mof_H 	H 	0.9587	0.6882	0.1449	0.062
Mof_H 	H 	0.9587	0.1882	0.6449	0.062
Mof_H 	H 	0.4587	0.6882	0.6449	0.062
Mof_H 	H 	0.4587	0.1882	0.1449	0.062
Mof_H 	H 	0.9587	0.3118	0.8551	0.062
Mof_H 	H 	0.9587	0.8118	0.3551	0.062
Mof_H 	H 	0.4587	0.3118	0.3551	0.062
Mof_H 	H 	0.4587	0.8118	0.8551	0.062
Mof_H 	H 	0.1449	0.0413	0.3118	0.062
Mof_H 	H 	0.1449	0.5413	0.8118	0.062
Mof_H 	H 	0.6449	0.0413	0.8118	0.062
Mof_H 	H 	0.6449	0.5413	0.3118	0.062
Mof_H 	H 	0.8551	0.0413	0.6882	0.062
Mof_H 	H 	0.8551	0.5413	0.1882	0.062
Mof_H 	H 	0.3551	0.0413	0.1882	0.062
Mof_H 	H 	0.3551	0.5413	0.6882	0.062
Mof_H 	H 	0.1449	0.9587	0.6882	0.061
Mof_H 	H 	0.1449	0.4587	0.1882	0.061
Mof_H 	H 	0.6449	0.9587	0.1882	0.061
Mof_H 	H 	0.6449	0.4587	0.6882	0.061
Mof_H 	H 	0.8551	0.9587	0.3118	0.061
Mof_H 	H 	0.8551	0.4587	0.8118	0.061
Mof_H 	H 	0.3551	0.9587	0.8118	0.061
Mof_H 	H 	0.3551	0.4587	0.3118	0.061
Mof_H 	H 	0.1449	0.3118	0.9587	0.061
Mof_H 	H 	0.1449	0.8118	0.4587	0.061
Mof_H 	H 	0.6449	0.3118	0.4587	0.061
Mof_H 	H 	0.6449	0.8118	0.9587	0.061
Mof_H 	H 	0.8551	0.6882	0.9587	0.061
Mof_H 	H 	0.8551	0.1882	0.4587	0.061
Mof_H 	H 	0.3551	0.6882	0.4587	0.061
Mof_H 	H 	0.3551	0.1882	0.9587	0.061
Mof_H 	H 	0.1449	0.6882	0.0413	0.061
Mof_H 	H 	0.1449	0.1882	0.5413	0.061
Mof_H 	H 	0.6449	0.6882	0.5413	0.061
Mof_H 	H 	0.6449	0.1882	0.0413	0.061
Mof_H 	H 	0.8551	0.3118	0.0413	0.061
Mof_H 	H 	0.8551	0.8118	0.5413	0.061
Mof_H 	H 	0.3551	0.3118	0.5413	0.061
Mof_H 	H 	0.3551	0.8118	0.0413	0.061
Mof_H 	H 	0.3118	0.0413	0.8551	0.061
Mof_H 	H 	0.3118	0.5413	0.3551	0.061
Mof_H 	H 	0.8118	0.0413	0.3551	0.061
Mof_H 	H 	0.8118	0.5413	0.8551	0.061
Mof_H 	H 	0.6882	0.0413	0.1449	0.061
Mof_H 	H 	0.6882	0.5413	0.6449	0.061
Mof_H 	H 	0.1882	0.0413	0.6449	0.061
Mof_H 	H 	0.1882	0.5413	0.1449	0.061
Mof_H 	H 	0.6882	0.9587	0.8551	0.061
Mof_H 	H 	0.6882	0.4587	0.3551	0.061
Mof_H 	H 	0.1882	0.9587	0.3551	0.061
Mof_H 	H 	0.1882	0.4587	0.8551	0.061
Mof_H 	H 	0.3118	0.9587	0.1449	0.061
Mof_H 	H 	0.3118	0.4587	0.6449	0.061
Mof_H 	H 	0.8118	0.9587	0.6449	0.061
Mof_H 	H 	0.8118	0.4587	0.1449	0.061
Mof_H 	H 	0.0413	0.1449	0.6882	0.061
Mof_H 	H 	0.0413	0.6449	0.1882	0.061
Mof_H 	H 	0.5413	0.1449	0.1882	0.061
Mof_H 	H 	0.5413	0.6449	0.6882	0.061
Mof_H 	H 	0.0413	0.8551	0.3118	0.061
Mof_H 	H 	0.0413	0.3551	0.8118	0.061
Mof_H 	H 	0.5413	0.8551	0.8118	0.061
Mof_H 	H 	0.5413	0.3551	0.3118	0.061
Mof_H 	H 	0.9587	0.1449	0.3118	0.061
Mof_H 	H 	0.9587	0.6449	0.8118	0.061
Mof_H 	H 	0.4587	0.1449	0.8118	0.061
Mof_H 	H 	0.4587	0.6449	0.3118	0.061
Mof_H 	H 	0.9587	0.8551	0.6882	0.061
Mof_H 	H 	0.9587	0.3551	0.1882	0.061
Mof_H 	H 	0.4587	0.8551	0.1882	0.061
Mof_H 	H 	0.4587	0.3551	0.6882	0.061
Mof_H 	H 	0.6882	0.8551	0.9587	0.061
Mof_H 	H 	0.6882	0.3551	0.4587	0.061
Mof_H 	H 	0.1882	0.8551	0.4587	0.061
Mof_H 	H 	0.1882	0.3551	0.9587	0.061
Mof_H 	H 	0.3118	0.1449	0.9587	0.061
Mof_H 	H 	0.3118	0.6449	0.4587	0.061
Mof_H 	H 	0.8118	0.1449	0.4587	0.061
Mof_H 	H 	0.8118	0.6449	0.9587	0.061
Mof_H 	H 	0.3118	0.8551	0.0413	0.061
Mof_H 	H 	0.3118	0.3551	0.5413	0.061
Mof_H 	H 	0.8118	0.8551	0.5413	0.061
Mof_H 	H 	0.8118	0.3551	0.0413	0.061
Mof_H 	H 	0.6882	0.1449	0.0413	0.061
Mof_H 	H 	0.6882	0.6449	0.5413	0.061
Mof_H 	H 	0.1882	0.1449	0.5413	0.061
Mof_H 	H 	0.1882	0.6449	0.0413	0.061
Mof_H 	H 	0.9587	0.6882	0.8551	0.061
Mof_H 	H 	0.9587	0.1882	0.3551	0.061
Mof_H 	H 	0.4587	0.6882	0.3551	0.061
Mof_H 	H 	0.4587	0.1882	0.8551	0.061
Mof_H 	H 	0.9587	0.3118	0.1449	0.061
Mof_H 	H 	0.9587	0.8118	0.6449	0.061
Mof_H 	H 	0.4587	0.3118	0.6449	0.061
Mof_H 	H 	0.4587	0.8118	0.1449	0.061
Mof_H 	H 	0.0413	0.3118	0.8551	0.061
Mof_H 	H 	0.0413	0.8118	0.3551	0.061
Mof_H 	H 	0.5413	0.3118	0.3551	0.061
Mof_H 	H 	0.5413	0.8118	0.8551	0.061
Mof_H 	H 	0.0413	0.6882	0.1449	0.061
Mof_H 	H 	0.0413	0.1882	0.6449	0.061
Mof_H 	H 	0.5413	0.6882	0.6449	0.061
Mof_H 	H 	0.5413	0.1882	0.1449	0.061
Mof_H 	H 	0.8551	0.9587	0.6882	0.061
Mof_H 	H 	0.8551	0.4587	0.1882	0.061
Mof_H 	H 	0.3551	0.9587	0.1882	0.061
Mof_H 	H 	0.3551	0.4587	0.6882	0.061
Mof_H 	H 	0.1449	0.9587	0.3118	0.061
Mof_H 	H 	0.1449	0.4587	0.8118	0.061
Mof_H 	H 	0.6449	0.9587	0.8118	0.061
Mof_H 	H 	0.6449	0.4587	0.3118	0.061
Mof_H 	H 	0.8551	0.0413	0.3118	0.061
Mof_H 	H 	0.8551	0.5413	0.8118	0.061
Mof_H 	H 	0.3551	0.0413	0.8118	0.061
Mof_H 	H 	0.3551	0.5413	0.3118	0.061
Mof_H 	H 	0.1449	0.0413	0.6882	0.061
Mof_H 	H 	0.1449	0.5413	0.1882	0.061
Mof_H 	H 	0.6449	0.0413	0.1882	0.061
Mof_H 	H 	0.6449	0.5413	0.6882	0.061
Mof_H 	H 	0.8551	0.6882	0.0413	0.061
Mof_H 	H 	0.8551	0.1882	0.5413	0.061
Mof_H 	H 	0.3551	0.6882	0.5413	0.061
Mof_H 	H 	0.3551	0.1882	0.0413	0.061
Mof_H 	H 	0.1449	0.3118	0.0413	0.061
Mof_H 	H 	0.1449	0.8118	0.5413	0.061
Mof_H 	H 	0.6449	0.3118	0.5413	0.061
Mof_H 	H 	0.6449	0.8118	0.0413	0.061
Mof_H 	H 	0.8551	0.3118	0.9587	0.061
Mof_H 	H 	0.8551	0.8118	0.4587	0.061
Mof_H 	H 	0.3551	0.3118	0.4587	0.061
Mof_H 	H 	0.3551	0.8118	0.9587	0.061
Mof_H 	H 	0.1449	0.6882	0.9587	0.061
Mof_H 	H 	0.1449	0.1882	0.4587	0.061
Mof_H 	H 	0.6449	0.6882	0.4587	0.061
Mof_H 	H 	0.6449	0.1882	0.9587	0.061
Mof_H 	H 	0.6882	0.9587	0.1449	0.061
Mof_H 	H 	0.6882	0.4587	0.6449	0.061
Mof_H 	H 	0.1882	0.9587	0.6449	0.061
Mof_H 	H 	0.1882	0.4587	0.1449	0.061
Mof_H 	H 	0.3118	0.9587	0.8551	0.061
Mof_H 	H 	0.3118	0.4587	0.3551	0.061
Mof_H 	H 	0.8118	0.9587	0.3551	0.061
Mof_H 	H 	0.8118	0.4587	0.8551	0.061
Mof_H 	H 	0.3118	0.0413	0.1449	0.061
Mof_H 	H 	0.3118	0.5413	0.6449	0.061
Mof_H 	H 	0.8118	0.0413	0.6449	0.061
Mof_H 	H 	0.8118	0.5413	0.1449	0.061
Mof_H 	H 	0.6882	0.0413	0.8551	0.061
Mof_H 	H 	0.6882	0.5413	0.3551	0.061
Mof_H 	H 	0.1882	0.0413	0.3551	0.061
Mof_H 	H 	0.1882	0.5413	0.8551	0.061
Mof_H 	H 	0.9587	0.8551	0.3118	0.061
Mof_H 	H 	0.9587	0.3551	0.8118	0.061
Mof_H 	H 	0.4587	0.8551	0.8118	0.061
Mof_H 	H 	0.4587	0.3551	0.3118	0.061
Mof_H 	H 	0.9587	0.1449	0.6882	0.061
Mof_H 	H 	0.9587	0.6449	0.1882	0.061
Mof_H 	H 	0.4587	0.1449	0.1882	0.061
Mof_H 	H 	0.4587	0.6449	0.6882	0.061
Mof_H 	H 	0.0413	0.8551	0.6882	0.061
Mof_H 	H 	0.0413	0.3551	0.1882	0.061
Mof_H 	H 	0.5413	0.8551	0.1882	0.061
Mof_H 	H 	0.5413	0.3551	0.6882	0.061
Mof_H 	H 	0.0413	0.1449	0.3118	0.061
Mof_H 	H 	0.0413	0.6449	0.8118	0.061
Mof_H 	H 	0.5413	0.1449	0.8118	0.061
Mof_H 	H 	0.5413	0.6449	0.3118	0.061
Mof_Zn	Zn	0.20645	0.29355	0.20645	1.209
Mof_Zn	Zn	0.79355	0.70645	0.20645	1.209
Mof_Zn	Zn	0.29355	0.20645	0.20645	1.209
Mof_Zn	Zn	0.79355	0.29355	0.79355	1.209
Mof_Zn	Zn	0.29355	0.29355	0.29355	1.209
Mof_Zn	Zn	0.20645	0.70645	0.79355	1.209
Mof_Zn	Zn	0.20645	0.20645	0.29355	1.209
Mof_Zn	Zn	0.20645	0.79355	0.70645	1.209
Mof_Zn	Zn	0.79355	0.79355	0.29355	1.209
Mof_Zn	Zn	0.79355	0.20645	0.70645	1.209
Mof_Zn	Zn	0.29355	0.70645	0.70645	1.209
Mof_Zn	Zn	0.70645	0.20645	0.79355	1.209
Mof_Zn	Zn	0.70645	0.70645	0.29355	1.209
Mof_Zn	Zn	0.29355	0.79355	0.79355	1.209
Mof_Zn	Zn	0.70645	0.79355	0.20645	1.209
Mof_Zn	Zn	0.70645	0.29355	0.70645	1.209
Mof_Zn	Zn	0.29355	0.20645	0.79355	1.209
Mof_Zn	Zn	0.29355	0.70645	0.29355	1.209
Mof_Zn	Zn	0.70645	0.79355	0.79355	1.209
Mof_Zn	Zn	0.70645	0.29355	0.29355	1.209
Mof_Zn	Zn	0.20645	0.79355	0.29355	1.209
Mof_Zn	Zn	0.20645	0.29355	0.79355	1.209
Mof_Zn	Zn	0.29355	0.79355	0.20645	1.209
Mof_Zn	Zn	0.29355	0.29355	0.70645	1.209
Mof_Zn	Zn	0.70645	0.20645	0.20645	1.209
Mof_Zn	Zn	0.70645	0.70645	0.70645	1.209
Mof_Zn	Zn	0.20645	0.20645	0.70645	1.209
Mof_Zn	Zn	0.79355	0.20645	0.29355	1.209
Mof_Zn	Zn	0.79355	0.79355	0.70645	1.209
Mof_Zn	Zn	0.79355	0.29355	0.20645	1.209
Mof_Zn	Zn	0.20645	0.70645	0.20645	1.209
Mof_Zn	Zn	0.79355	0.70645	0.79355	1.209
Mof_O 	O 	0.25	0.25	0.25	-0.965
Mof_O 	O 	0.75	0.75	0.25	-0.965
Mof_O 	O 	0.75	0.25	0.75	-0.965
Mof_O 	O 	0.25	0.75	0.75	-0.965
Mof_O 	O 	0.25	0.25	0.75	-0.965
Mof_O 	O 	0.75	0.75	0.75	-0.965
Mof_O 	O 	0.75	0.25	0.25	-0.965
Mof_O 	O 	0.25	0.75	0.25	-0.965
Mof_O 	O 	0.2186	0.2814	0.1334	-0.511
Mof_C 	C 	0.2789	0.2211	0.0282	0.078
Mof_C 	C 	0.32	0.18	0.027	-0.121
Mof_O 	O 	0.2186	0.7814	0.6334	-0.511
Mof_C 	C 	0.2789	0.7211	0.5282	0.078
Mof_C 	C 	0.32	0.68	0.527	-0.121
Mof_O 	O 	0.7814	0.7186	0.1334	-0.511
Mof_C 	C 	0.7211	0.7789	0.0282	0.078
Mof_C 	C 	0.68	0.82	0.027	-0.121
Mof_O 	O 	0.7814	0.2186	0.6334	-0.511
Mof_C 	C 	0.7211	0.2789	0.5282	0.078
Mof_C 	C 	0.68	0.32	0.527	-0.121
Mof_O 	O 	0.2814	0.2186	0.1334	-0.511
Mof_C 	C 	0.2211	0.2789	0.0282	0.078
Mof_C 	C 	0.18	0.32	0.027	-0.121
Mof_O 	O 	0.7814	0.2814	0.8666	-0.511
Mof_C 	C 	0.7211	0.2211	0.9718	0.078
Mof_C 	C 	0.68	0.18	0.973	-0.121
Mof_O 	O 	0.7814	0.7814	0.3666	-0.511
Mof_C 	C 	0.7211	0.7211	0.4718	0.078
Mof_C 	C 	0.68	0.68	0.473	-0.121
Mof_O 	O 	0.2814	0.2814	0.3666	-0.511
Mof_C 	C 	0.2211	0.2211	0.4718	0.078
Mof_C 	C 	0.18	0.18	0.473	-0.121
Mof_O 	O 	0.2186	0.7186	0.8666	-0.511
Mof_C 	C 	0.2789	0.7789	0.9718	0.078
Mof_C 	C 	0.32	0.82	0.973	-0.121
Mof_O 	O 	0.2186	0.2186	0.3666	-0.511
Mof_C 	C 	0.2789	0.2789	0.4718	0.078
Mof_C 	C 	0.32	0.32	0.473	-0.121
Mof_O 	O 	0.1334	0.2186	0.2814	-0.511
Mof_C 	C 	0.0282	0.2789	0.2211	0.078
Mof_C 	C 	0.027	0.32	0.18	-0.121
Mof_O 	O 	0.6334	0.2186	0.7814	-0.511
Mof_C 	C 	0.5282	0.2789	0.7211	0.078
Mof_C 	C 	0.527	0.32	0.68	-0.121
Mof_O 	O 	0.1334	0.7814	0.7186	-0.511
Mof_C 	C 	0.0282	0.7211	0.7789	0.078
Mof_C 	C 	0.027	0.68	0.82	-0.121
Mof_O 	O 	0.1334	0.2814	0.2186	-0.511
Mof_C 	C 	0.0282	0.2211	0.2789	0.078
Mof_C 	C 	0.027	0.18	0.32	-0.121
Mof_O 	O 	0.6334	0.7814	0.2186	-0.511
Mof_C 	C 	0.5282	0.7211	0.2789	0.078
Mof_C 	C 	0.527	0.68	0.32	-0.121
Mof_O 	O 	0.8666	0.7814	0.2814	-0.511
Mof_C 	C 	0.9718	0.7211	0.2211	0.078
Mof_C 	C 	0.973	0.68	0.18	-0.121
Mof_O 	O 	0.3666	0.7814	0.7814	-0.511
Mof_C 	C 	0.4718	0.7211	0.7211	0.078
Mof_C 	C 	0.473	0.68	0.68	-0.121
Mof_O 	O 	0.3666	0.2814	0.2814	-0.511
Mof_C 	C 	0.4718	0.2211	0.2211	0.078
Mof_C 	C 	0.473	0.18	0.18	-0.121
Mof_O 	O 	0.8666	0.2186	0.7186	-0.511
Mof_C 	C 	0.9718	0.2789	0.7789	0.078
Mof_C 	C 	0.973	0.32	0.82	-0.121
Mof_O 	O 	0.3666	0.2186	0.2186	-0.511
Mof_C 	C 	0.4718	0.2789	0.2789	0.078
Mof_C 	C 	0.473	0.32	0.32	-0.121
Mof_O 	O 	0.2814	0.1334	0.2186	-0.511
Mof_C 	C 	0.2211	0.0282	0.2789	0.078
Mof_C 	C 	0.18	0.027	0.32	-0.121
Mof_O 	O 	0.2814	0.6334	0.7186	-0.511
Mof_C 	C 	0.2211	0.5282	0.7789	0.078
Mof_C 	C 	0.18	0.527	0.82	-0.121
Mof_O 	O 	0.7186	0.1334	0.7814	-0.511
Mof_C 	C 	0.7789	0.0282	0.7211	0.078
Mof_C 	C 	0.82	0.027	0.68	-0.121
Mof_O 	O 	0.7186	0.6334	0.2814	-0.511
Mof_C 	C 	0.7789	0.5282	0.2211	0.078
Mof_C 	C 	0.82	0.527	0.18	-0.121
Mof_O 	O 	0.2186	0.1334	0.2814	-0.511
Mof_C 	C 	0.2789	0.0282	0.2211	0.078
Mof_C 	C 	0.32	0.027	0.18	-0.121
Mof_O 	O 	0.2814	0.8666	0.7814	-0.511
Mof_C 	C 	0.2211	0.9718	0.7211	0.078
Mof_C 	C 	0.18	0.973	0.68	-0.121
Mof_O 	O 	0.2814	0.3666	0.2814	-0.511
Mof_C 	C 	0.2211	0.4718	0.2211	0.078
Mof_C 	C 	0.18	0.473	0.18	-0.121
Mof_O 	O 	0.7186	0.8666	0.2186	-0.511
Mof_C 	C 	0.7789	0.9718	0.2789	0.078
Mof_C 	C 	0.82	0.973	0.32	-0.121
Mof_O 	O 	0.7186	0.3666	0.7186	-0.511
Mof_C 	C 	0.7789	0.4718	0.7789	0.078
Mof_C 	C 	0.82	0.473	0.82	-0.121
Mof_O 	O 	0.2186	0.3666	0.2186	-0.511
Mof_C 	C 	0.2789	0.4718	0.2789	0.078
Mof_C 	C 	0.32	0.473	0.32	-0.121
Mof_O 	O 	0.2814	0.2186	0.8666	-0.511
Mof_C 	C 	0.2211	0.2789	0.9718	0.078
Mof_C 	C 	0.18	0.32	0.973	-0.121
Mof_O 	O 	0.2814	0.7186	0.3666	-0.511
Mof_C 	C 	0.2211	0.7789	0.4718	0.078
Mof_C 	C 	0.18	0.82	0.473	-0.121
Mof_O 	O 	0.7186	0.7814	0.8666	-0.511
Mof_C 	C 	0.7789	0.7211	0.9718	0.078
Mof_C 	C 	0.82	0.68	0.973	-0.121
Mof_O 	O 	0.7186	0.2814	0.3666	-0.511
Mof_C 	C 	0.7789	0.2211	0.4718	0.078
Mof_C 	C 	0.82	0.18	0.473	-0.121
Mof_O 	O 	0.2186	0.2814	0.8666	-0.511
Mof_C 	C 	0.2789	0.2211	0.9718	0.078
Mof_C 	C 	0.32	0.18	0.973	-0.121
Mof_O 	O 	0.2814	0.7814	0.1334	-0.511
Mof_C 	C 	0.2211	0.7211	0.0282	0.078
Mof_C 	C 	0.18	0.68	0.027	-0.121
Mof_O 	O 	0.2814	0.2814	0.6334	-0.511
Mof_C 	C 	0.2211	0.2211	0.5282	0.078
Mof_C 	C 	0.18	0.18	0.527	-0.121
Mof_O 	O 	0.7186	0.2186	0.1334	-0.511
Mof_C 	C 	0.7789	0.2789	0.0282	0.078
Mof_C 	C 	0.82	0.32	0.027	-0.121
Mof_O 	O 	0.7186	0.7186	0.6334	-0.511
Mof_C 	C 	0.7789	0.7789	0.5282	0.078
Mof_C 	C 	0.82	0.82	0.527	-0.121
Mof_O 	O 	0.2186	0.2186	0.6334	-0.511
Mof_C 	C 	0.2789	0.2789	0.5282	0.078
Mof_C 	C 	0.32	0.32	0.527	-0.121
Mof_O 	O 	0.2186	0.1334	0.7186	-0.511
Mof_C 	C 	0.2789	0.0282	0.7789	0.078
Mof_C 	C 	0.32	0.027	0.82	-0.121
Mof_O 	O 	0.2186	0.6334	0.2186	-0.511
Mof_C 	C 	0.2789	0.5282	0.2789	0.078
Mof_C 	C 	0.32	0.527	0.32	-0.121
Mof_O 	O 	0.7814	0.1334	0.2814	-0.511
Mof_C 	C 	0.7211	0.0282	0.2211	0.078
Mof_C 	C 	0.68	0.027	0.18	-0.121
Mof_O 	O 	0.7814	0.6334	0.7814	-0.511
Mof_C 	C 	0.7211	0.5282	0.7211	0.078
Mof_C 	C 	0.68	0.527	0.68	-0.121
Mof_O 	O 	0.2814	0.6334	0.2814	-0.511
Mof_C 	C 	0.2211	0.5282	0.2211	0.078
Mof_C 	C 	0.18	0.527	0.18	-0.121
Mof_O 	O 	0.7814	0.8666	0.7186	-0.511
Mof_C 	C 	0.7211	0.9718	0.7789	0.078
Mof_C 	C 	0.68	0.973	0.82	-0.121
Mof_O 	O 	0.7814	0.3666	0.2186	-0.511
Mof_C 	C 	0.7211	0.4718	0.2789	0.078
Mof_C 	C 	0.68	0.473	0.32	-0.121
Mof_O 	O 	0.2814	0.8666	0.2186	-0.511
Mof_C 	C 	0.2211	0.9718	0.2789	0.078
Mof_C 	C 	0.18	0.973	0.32	-0.121
Mof_O 	O 	0.2186	0.8666	0.2814	-0.511
Mof_C 	C 	0.2789	0.9718	0.2211	0.078
Mof_C 	C 	0.32	0.973	0.18	-0.121
Mof_O 	O 	0.2186	0.3666	0.7814	-0.511
Mof_C 	C 	0.2789	0.4718	0.7211	0.078
Mof_C 	C 	0.32	0.473	0.68	-0.121
Mof_O 	O 	0.1334	0.2814	0.7814	-0.511
Mof_C 	C 	0.0282	0.2211	0.7211	0.078
Mof_C 	C 	0.027	0.18	0.68	-0.121
Mof_O 	O 	0.6334	0.2814	0.2814	-0.511
Mof_C 	C 	0.5282	0.2211	0.2211	0.078
Mof_C 	C 	0.527	0.18	0.18	-0.121
Mof_O 	O 	0.1334	0.7186	0.2186	-0.511
Mof_C 	C 	0.0282	0.7789	0.2789	0.078
Mof_C 	C 	0.027	0.82	0.32	-0.121
Mof_O 	O 	0.6334	0.7186	0.7186	-0.511
Mof_C 	C 	0.5282	0.7789	0.7789	0.078
Mof_C 	C 	0.527	0.82	0.82	-0.121
Mof_O 	O 	0.6334	0.2186	0.2186	-0.511
Mof_C 	C 	0.5282	0.2789	0.2789	0.078
Mof_C 	C 	0.527	0.32	0.32	-0.121
Mof_O 	O 	0.8666	0.2814	0.2186	-0.511
Mof_C 	C 	0.9718	0.2211	0.2789	0.078
Mof_C 	C 	0.973	0.18	0.32	-0.121
Mof_O 	O 	0.3666	0.2814	0.7186	-0.511
Mof_C 	C 	0.4718	0.2211	0.7789	0.078
Mof_C 	C 	0.473	0.18	0.82	-0.121
Mof_O 	O 	0.8666	0.7186	0.7814	-0.511
Mof_C 	C 	0.9718	0.7789	0.7211	0.078
Mof_C 	C 	0.973	0.82	0.68	-0.121
Mof_O 	O 	0.8666	0.2186	0.2814	-0.511
Mof_C 	C 	0.9718	0.2789	0.2211	0.078
Mof_C 	C 	0.973	0.32	0.18	-0.121
Mof_O 	O 	0.3666	0.7186	0.2814	-0.511
Mof_C 	C 	0.4718	0.7789	0.2211	0.078
Mof_C 	C 	0.473	0.82	0.18	-0.121
Mof_O 	O 	0.7814	0.7186	0.8666	-0.511
Mof_C 	C 	0.7211	0.7789	0.9718	0.078
Mof_C 	C 	0.68	0.82	0.973	-0.121
Mof_O 	O 	0.7814	0.2186	0.3666	-0.511
Mof_C 	C 	0.7211	0.2789	0.4718	0.078
Mof_C 	C 	0.68	0.32	0.473	-0.121
Mof_O 	O 	0.2186	0.7814	0.3666	-0.511
Mof_C 	C 	0.2789	0.7211	0.4718	0.078
Mof_C 	C 	0.32	0.68	0.473	-0.121
Mof_O 	O 	0.2186	0.7186	0.1334	-0.511
Mof_C 	C 	0.2789	0.7789	0.0282	0.078
Mof_C 	C 	0.32	0.82	0.027	-0.121
Mof_O 	O 	0.7814	0.2814	0.1334	-0.511
Mof_C 	C 	0.7211	0.2211	0.0282	0.078
Mof_C 	C 	0.68	0.18	0.027	-0.121
Mof_O 	O 	0.7814	0.7814	0.6334	-0.511
Mof_C 	C 	0.7211	0.7211	0.5282	0.078
Mof_C 	C 	0.68	0.68	0.527	-0.121
Mof_O 	O 	0.8666	0.7814	0.7186	-0.511
Mof_C 	C 	0.9718	0.7211	0.7789	0.078
Mof_C 	C 	0.973	0.68	0.82	-0.121
Mof_O 	O 	0.3666	0.7814	0.2186	-0.511
Mof_C 	C 	0.4718	0.7211	0.2789	0.078
Mof_C 	C 	0.473	0.68	0.32	-0.121
Mof_O 	O 	0.3666	0.2186	0.7814	-0.511
Mof_C 	C 	0.4718	0.2789	0.7211	0.078
Mof_C 	C 	0.473	0.32	0.68	-0.121
Mof_O 	O 	0.1334	0.2186	0.7186	-0.511
Mof_C 	C 	0.0282	0.2789	0.7789	0.078
Mof_C 	C 	0.027	0.32	0.82	-0.121
Mof_O 	O 	0.1334	0.7814	0.2814	-0.511
Mof_C 	C 	0.0282	0.7211	0.2211	0.078
Mof_C 	C 	0.027	0.68	0.18	-0.121
Mof_O 	O 	0.6334	0.7814	0.7814	-0.511
Mof_C 	C 	0.5282	0.7211	0.7211	0.078
Mof_C 	C 	0.527	0.68	0.68	-0.121
Mof_O 	O 	0.7186	0.8666	0.7814	-0.511
Mof_C 	C 	0.7789	0.9718	0.7211	0.078
Mof_C 	C 	0.82	0.973	0.68	-0.121
Mof_O 	O 	0.7186	0.3666	0.2814	-0.511
Mof_C 	C 	0.7789	0.4718	0.2211	0.078
Mof_C 	C 	0.82	0.473	0.18	-0.121
Mof_O 	O 	0.2814	0.3666	0.7186	-0.511
Mof_C 	C 	0.2211	0.4718	0.7789	0.078
Mof_C 	C 	0.18	0.473	0.82	-0.121
Mof_O 	O 	0.7186	0.1334	0.2186	-0.511
Mof_C 	C 	0.7789	0.0282	0.2789	0.078
Mof_C 	C 	0.82	0.027	0.32	-0.121
Mof_O 	O 	0.7186	0.6334	0.7186	-0.511
Mof_C 	C 	0.7789	0.5282	0.7789	0.078
Mof_C 	C 	0.82	0.527	0.82	-0.121
Mof_O 	O 	0.2814	0.1334	0.7814	-0.511
Mof_C 	C 	0.2211	0.0282	0.7211	0.078
Mof_C 	C 	0.18	0.027	0.68	-0.121
Mof_O 	O 	0.7186	0.7814	0.1334	-0.511
Mof_C 	C 	0.7789	0.7211	0.0282	0.078
Mof_C 	C 	0.82	0.68	0.027	-0.121
Mof_O 	O 	0.7186	0.2814	0.6334	-0.511
Mof_C 	C 	0.7789	0.2211	0.5282	0.078
Mof_C 	C 	0.82	0.18	0.527	-0.121
Mof_O 	O 	0.2814	0.7186	0.6334	-0.511
Mof_C 	C 	0.2211	0.7789	0.5282	0.078
Mof_C 	C 	0.18	0.82	0.527	-0.121
Mof_O 	O 	0.7186	0.2186	0.8666	-0.511
Mof_C 	C 	0.7789	0.2789	0.9718	0.078
Mof_C 	C 	0.82	0.32	0.973	-0.121
Mof_O 	O 	0.7186	0.7186	0.3666	-0.511
Mof_C 	C 	0.7789	0.7789	0.4718	0.078
Mof_C 	C 	0.82	0.82	0.473	-0.121
Mof_O 	O 	0.2814	0.7814	0.8666	-0.511
Mof_C 	C 	0.2211	0.7211	0.9718	0.078
Mof_C 	C 	0.18	0.68	0.973	-0.121
Mof_O 	O 	0.7814	0.8666	0.2814	-0.511
Mof_C 	C 	0.7211	0.9718	0.2211	0.078
Mof_C 	C 	0.68	0.973	0.18	-0.121
Mof_O 	O 	0.7814	0.3666	0.7814	-0.511
Mof_C 	C 	0.7211	0.4718	0.7211	0.078
Mof_C 	C 	0.68	0.473	0.68	-0.121
Mof_O 	O 	0.2186	0.8666	0.7186	-0.511
Mof_C 	C 	0.2789	0.9718	0.7789	0.078
Mof_C 	C 	0.32	0.973	0.82	-0.121
Mof_O 	O 	0.2186	0.6334	0.7814	-0.511
Mof_C 	C 	0.2789	0.5282	0.7211	0.078
Mof_C 	C 	0.32	0.527	0.68	-0.121
Mof_O 	O 	0.7814	0.1334	0.7186	-0.511
Mof_C 	C 	0.7211	0.0282	0.7789	0.078
Mof_C 	C 	0.68	0.027	0.82	-0.121
Mof_O 	O 	0.7814	0.6334	0.2186	-0.511
Mof_C 	C 	0.7211	0.5282	0.2789	0.078
Mof_C 	C 	0.68	0.527	0.32	-0.121
Mof_O 	O 	0.8666	0.7186	0.2186	-0.511
Mof_C 	C 	0.9718	0.7789	0.2789	0.078
Mof_C 	C 	0.973	0.82	0.32	-0.121
Mof_O 	O 	0.3666	0.7186	0.7186	-0.511
Mof_C 	C 	0.4718	0.7789	0.7789	0.078
Mof_C 	C 	0.473	0.82	0.82	-0.121
Mof_O 	O 	0.8666	0.2814	0.7814	-0.511
Mof_C 	C 	0.9718	0.2211	0.7211	0.078
Mof_C 	C 	0.973	0.18	0.68	-0.121
Mof_O 	O 	0.1334	0.7186	0.7814	-0.511
Mof_C 	C 	0.0282	0.7789	0.7211	0.078
Mof_C 	C 	0.027	0.82	0.68	-0.121
Mof_O 	O 	0.6334	0.7186	0.2814	-0.511
Mof_C 	C 	0.5282	0.7789	0.2211	0.078
Mof_C 	C 	0.527	0.82	0.18	-0.121
Mof_O 	O 	0.6334	0.2814	0.7186	-0.511
Mof_C 	C 	0.5282	0.2211	0.7789	0.078
Mof_C 	C 	0.527	0.18	0.82	-0.121
Mof_C 	C 	0.25	0.25	0.112	0.406
Mof_C 	C 	0.25	0.25	0.0565	-0.188
Mof_C 	C 	0.25	0.75	0.612	0.406
Mof_C 	C 	0.25	0.75	0.5565	-0.188
Mof_C 	C 	0.75	0.75	0.112	0.406
Mof_C 	C 	0.75	0.75	0.0565	-0.188
Mof_C 	C 	0.75	0.25	0.612	0.406
Mof_C 	C 	0.75	0.25	0.5565	-0.188
Mof_C 	C 	0.75	0.25	0.888	0.406
Mof_C 	C 	0.75	0.25	0.9435	-0.188
Mof_C 	C 	0.75	0.75	0.388	0.406
Mof_C 	C 	0.75	0.75	0.4435	-0.188
Mof_C 	C 	0.25	0.25	0.388	0.406
Mof_C 	C 	0.25	0.25	0.4435	-0.188
Mof_C 	C 	0.25	0.75	0.888	0.406
Mof_C 	C 	0.25	0.75	0.9435	-0.188
Mof_C 	C 	0.112	0.25	0.25	0.406
Mof_C 	C 	0.0565	0.25	0.25	-0.188
Mof_C 	C 	0.612	0.25	0.75	0.406
Mof_C 	C 	0.5565	0.25	0.75	-0.188
Mof_C 	C 	0.112	0.75	0.75	0.406
Mof_C 	C 	0.0565	0.75	0.75	-0.188
Mof_C 	C 	0.612	0.75	0.25	0.406
Mof_C 	C 	0.5565	0.75	0.25	-0.188
Mof_C 	C 	0.888	0.75	0.25	0.406
Mof_C 	C 	0.9435	0.75	0.25	-0.188
Mof_C 	C 	0.388	0.75	0.75	0.406
Mof_C 	C 	0.4435	0.75	0.75	-0.188
Mof_C 	C 	0.388	0.25	0.25	0.406
Mof_C 	C 	0.4435	0.25	0.25	-0.188
Mof_C 	C 	0.888	0.25	0.75	0.406
Mof_C 	C 	0.9435	0.25	0.75	-0.188
Mof_C 	C 	0.25	0.112	0.25	0.406
Mof_C 	C 	0.25	0.0565	0.25	-0.188
Mof_C 	C 	0.25	0.612	0.75	0.406
Mof_C 	C 	0.25	0.5565	0.75	-0.188
Mof_C 	C 	0.75	0.112	0.75	0.406
Mof_C 	C 	0.75	0.0565	0.75	-0.188
Mof_C 	C 	0.75	0.612	0.25	0.406
Mof_C 	C 	0.75	0.5565	0.25	-0.188
Mof_C 	C 	0.25	0.888	0.75	0.406
Mof_C 	C 	0.25	0.9435	0.75	-0.188
Mof_C 	C 	0.25	0.388	0.25	0.406
Mof_C 	C 	0.25	0.4435	0.25	-0.188
Mof_C 	C 	0.75	0.888	0.25	0.406
Mof_C 	C 	0.75	0.9435	0.25	-0.188
Mof_C 	C 	0.75	0.388	0.75	0.406
Mof_C 	C 	0.75	0.4435	0.75	-0.188
Mof_C 	C 	0.25	0.25	0.888	0.406
Mof_C 	C 	0.25	0.25	0.9435	-0.188
Mof_C 	C 	0.25	0.75	0.388	0.406
Mof_C 	C 	0.25	0.75	0.4435	-0.188
Mof_C 	C 	0.75	0.75	0.888	0.406
Mof_C 	C 	0.75	0.75	0.9435	-0.188
Mof_C 	C 	0.75	0.25	0.388	0.406
Mof_C 	C 	0.75	0.25	0.4435	-0.188
Mof_C 	C 	0.25	0.75	0.112	0.406
Mof_C 	C 	0.25	0.75	0.0565	-0.188
Mof_C 	C 	0.25	0.25	0.612	0.406
Mof_C 	C 	0.25	0.25	0.5565	-0.188
Mof_C 	C 	0.75	0.25	0.112	0.406
Mof_C 	C 	0.75	0.25	0.0565	-0.188
Mof_C 	C 	0.75	0.75	0.612	0.406
Mof_C 	C 	0.75	0.75	0.5565	-0.188
Mof_C 	C 	0.25	0.112	0.75	0.406
Mof_C 	C 	0.25	0.0565	0.75	-0.188
Mof_C 	C 	0.25	0.612	0.25	0.406
Mof_C 	C 	0.25	0.5565	0.25	-0.188
Mof_C 	C 	0.75	0.112	0.25	0.406
Mof_C 	C 	0.75	0.0565	0.25	-0.188
Mof_C 	C 	0.75	0.612	0.75	0.406
Mof_C 	C 	0.75	0.5565	0.75	-0.188
Mof_C 	C 	0.75	0.888	0.75	0.406
Mof_C 	C 	0.75	0.9435	0.75	-0.188
Mof_C 	C 	0.75	0.388	0.25	0.406
Mof_C 	C 	0.75	0.4435	0.25	-0.188
Mof_C 	C 	0.25	0.888	0.25	0.406
Mof_C 	C 	0.25	0.9435	0.25	-0.188
Mof_C 	C 	0.25	0.388	0.75	0.406
Mof_C 	C 	0.25	0.4435	0.75	-0.188
Mof_C 	C 	0.112	0.25	0.75	0.406
Mof_C 	C 	0.0565	0.25	0.75	-0.188
Mof_C 	C 	0.612	0.25	0.25	0.406
Mof_C 	C 	0.5565	0.25	0.25	-0.188
Mof_C 	C 	0.112	0.75	0.25	0.406
Mof_C 	C 	0.0565	0.75	0.25	-0.188
Mof_C 	C 	0.612	0.75	0.75	0.406
Mof_C 	C 	0.5565	0.75	0.75	-0.188
Mof_C 	C 	0.888	0.25	0.25	0.406
Mof_C 	C 	0.9435	0.25	0.25	-0.188
Mof_C 	C 	0.388	0.25	0.75	0.406
Mof_C 	C 	0.4435	0.25	0.75	-0.188
Mof_C 	C 	0.888	0.75	0.75	0.406
Mof_C 	C 	0.9435	0.75	0.75	-0.188
Mof_C 	C 	0.388	0.75	0.25	0.406
Mof_C 	C 	0.4435	0.75	0.25	-0.188
_end
