data_functionalizedCrystal
_audit_creation_method	'EQeq! by Chris Wilmer'
_symmetry_space_group_name_H-M	'P1'
_symmetry_Int_Tables_number	1
_symmetry_cell_setting	triclinic
loop_
_symmetry_equiv_pos_as_xyz
  x,y,z
_cell_length_a	13.451
_cell_length_b	13.451
_cell_length_c	25.498
_cell_angle_alpha	90
_cell_angle_beta	90
_cell_angle_gamma	90
loop_
_atom_site_label
_atom_site_type_symbol
_atom_site_fract_x
_atom_site_fract_y
_atom_site_fract_z
_atom_site_charge
Mof_Co	Co	0.25	0.25	0.88824	1.117
Mof_Co	Co	0.75	0.75	0.38824	1.117
Mof_C 	C 	0.1265	0.447	0.8932	0.095
Mof_C 	C 	0.4033	0.2304	0.7954	0.022
Mof_C 	C 	0.4843	0.2538	0.764	-0.024
Mof_C 	C 	0.5266	0.3493	0.7695	-0.053
Mof_C 	C 	0.4834	0.4178	0.8052	-0.024
Mof_C 	C 	0.4027	0.3842	0.8347	0.03
Mof_C 	C 	0.6113	0.3827	0.7373	0.3
Mof_C 	C 	0.7255	0.3404	0.672	0.117
Mof_C 	C 	0.6605	0.2278	0.6042	0.116
Mof_C 	C 	0.6348	0.062	0.57	0.304
Mof_C 	C 	0.6606	0.9942	0.5276	-0.06
Mof_C 	C 	0.7273	0.0156	0.4893	-0.016
Mof_C 	C 	0.6223	0.8998	0.5265	-0.017
Mof_C 	C 	0.7476	0.9478	0.4492	0.03
Mof_C 	C 	0.6438	0.834	0.4867	0.028
Mof_C 	C 	0.3735	0.053	0.8932	0.095
Mof_C 	C 	0.0967	0.2696	0.7954	0.023
Mof_C 	C 	0.0157	0.2462	0.764	-0.025
Mof_C 	C 	0.9734	0.1507	0.7695	-0.051
Mof_C 	C 	0.0166	0.0822	0.8052	-0.025
Mof_C 	C 	0.0973	0.1158	0.8347	0.03
Mof_C 	C 	0.8887	0.1173	0.7373	0.3
Mof_C 	C 	0.7745	0.1596	0.672	0.117
Mof_C 	C 	0.8395	0.2722	0.6042	0.116
Mof_C 	C 	0.8652	0.438	0.57	0.304
Mof_C 	C 	0.8394	0.5058	0.5276	-0.06
Mof_C 	C 	0.7727	0.4844	0.4893	-0.017
Mof_C 	C 	0.8777	0.6002	0.5265	-0.017
Mof_C 	C 	0.7524	0.5522	0.4492	0.03
Mof_C 	C 	0.8562	0.666	0.4867	0.028
Mof_C 	C 	0.553	0.6265	0.3932	0.096
Mof_C 	C 	0.7696	0.9033	0.2954	0.023
Mof_C 	C 	0.7462	0.9843	0.264	-0.025
Mof_C 	C 	0.6507	0.0266	0.2695	-0.051
Mof_C 	C 	0.5822	0.9834	0.3052	-0.024
Mof_C 	C 	0.6158	0.9027	0.3347	0.03
Mof_C 	C 	0.6173	0.1113	0.2373	0.3
Mof_C 	C 	0.6596	0.2255	0.172	0.117
Mof_C 	C 	0.7722	0.1605	0.1042	0.116
Mof_C 	C 	0.938	0.1348	0.07	0.304
Mof_C 	C 	0.0058	0.1606	0.0276	-0.06
Mof_C 	C 	0.9844	0.2273	0.9893	-0.016
Mof_C 	C 	0.1002	0.1223	0.0265	-0.017
Mof_C 	C 	0.0522	0.2476	0.9492	0.03
Mof_C 	C 	0.166	0.1438	0.9867	0.028
Mof_C 	C 	0.947	0.8735	0.3932	0.095
Mof_C 	C 	0.7304	0.5967	0.2954	0.023
Mof_C 	C 	0.7538	0.5157	0.264	-0.024
Mof_C 	C 	0.8493	0.4734	0.2695	-0.053
Mof_C 	C 	0.9178	0.5166	0.3052	-0.024
Mof_C 	C 	0.8842	0.5973	0.3347	0.03
Mof_C 	C 	0.8827	0.3887	0.2373	0.3
Mof_C 	C 	0.8404	0.2745	0.172	0.117
Mof_C 	C 	0.7278	0.3395	0.1042	0.116
Mof_C 	C 	0.562	0.3652	0.07	0.304
Mof_C 	C 	0.4942	0.3394	0.0276	-0.059
Mof_C 	C 	0.5156	0.2727	0.9893	-0.017
Mof_C 	C 	0.3998	0.3777	0.0265	-0.017
Mof_C 	C 	0.4478	0.2524	0.9492	0.03
Mof_C 	C 	0.334	0.3562	0.9867	0.028
Mof_C 	C 	0.75	0.25	0.6377	-0.075
Mof_C 	C 	0.75	0.25	0.1377	-0.075
Mof_S 	S 	0.0352	0.5207	0.8979	-0.03
Mof_S 	S 	0.4648	0.9793	0.8979	-0.029
Mof_S 	S 	0.4793	0.5352	0.3979	-0.03
Mof_S 	S 	0.0207	0.9648	0.3979	-0.029
Mof_N 	N 	0.1913	0.3927	0.8868	-0.259
Mof_N 	N 	0.3633	0.2941	0.83038	-0.218
Mof_N 	N 	0.7095	0.8583	0.45	-0.216
Mof_N 	N 	0.3087	0.1073	0.8868	-0.259
Mof_N 	N 	0.1367	0.2059	0.83038	-0.219
Mof_N 	N 	0.7905	0.6417	0.45	-0.216
Mof_N 	N 	0.6073	0.6913	0.3868	-0.259
Mof_N 	N 	0.7059	0.8633	0.33038	-0.219
Mof_N 	N 	0.1417	0.2095	0.95	-0.216
Mof_N 	N 	0.8927	0.8087	0.3868	-0.259
Mof_N 	N 	0.7941	0.6367	0.33038	-0.218
Mof_N 	N 	0.3583	0.2905	0.95	-0.216
Mof_O 	O 	0.6529	0.46	0.7432	-0.239
Mof_O 	O 	0.6425	0.3127	0.70488	-0.257
Mof_O 	O 	0.6831	0.1472	0.56756	-0.26
Mof_O 	O 	0.5802	0.0419	0.6056	-0.258
Mof_O 	O 	0.8471	0.04	0.7432	-0.239
Mof_O 	O 	0.8575	0.1873	0.70488	-0.257
Mof_O 	O 	0.8169	0.3528	0.56756	-0.26
Mof_O 	O 	0.9198	0.4581	0.6056	-0.258
Mof_O 	O 	0.54	0.1529	0.2432	-0.238
Mof_O 	O 	0.6873	0.1425	0.20488	-0.257
Mof_O 	O 	0.8528	0.1831	0.06756	-0.26
Mof_O 	O 	0.9581	0.0802	0.1056	-0.258
Mof_O 	O 	0.96	0.3471	0.2432	-0.239
Mof_O 	O 	0.8127	0.3575	0.20488	-0.257
Mof_O 	O 	0.6472	0.3169	0.06756	-0.26
Mof_O 	O 	0.5419	0.4198	0.1056	-0.258
Mof_Co	Co	0.75	0.75	0.11176	1.118
Mof_Co	Co	0.25	0.25	0.61176	1.118
Mof_C 	C 	0.8735	0.553	0.1068	0.096
Mof_C 	C 	0.5967	0.7696	0.2046	0.023
Mof_C 	C 	0.5157	0.7462	0.236	-0.024
Mof_C 	C 	0.4734	0.6507	0.2305	-0.053
Mof_C 	C 	0.5166	0.5822	0.1948	-0.024
Mof_C 	C 	0.5973	0.6158	0.1653	0.03
Mof_C 	C 	0.3887	0.6173	0.2627	0.3
Mof_C 	C 	0.2745	0.6596	0.328	0.117
Mof_C 	C 	0.3395	0.7722	0.3958	0.116
Mof_C 	C 	0.3652	0.938	0.43	0.304
Mof_C 	C 	0.3394	0.0058	0.4724	-0.06
Mof_C 	C 	0.2727	0.9844	0.5107	-0.016
Mof_C 	C 	0.3777	0.1002	0.4735	-0.017
Mof_C 	C 	0.2524	0.0522	0.5508	0.03
Mof_C 	C 	0.3562	0.166	0.5133	0.028
Mof_C 	C 	0.6265	0.947	0.1068	0.095
Mof_C 	C 	0.9033	0.7304	0.2046	0.023
Mof_C 	C 	0.9843	0.7538	0.236	-0.025
Mof_C 	C 	0.0266	0.8493	0.2305	-0.051
Mof_C 	C 	0.9834	0.9178	0.1948	-0.025
Mof_C 	C 	0.9027	0.8842	0.1653	0.03
Mof_C 	C 	0.1113	0.8827	0.2627	0.3
Mof_C 	C 	0.2255	0.8404	0.328	0.117
Mof_C 	C 	0.1605	0.7278	0.3958	0.116
Mof_C 	C 	0.1348	0.562	0.43	0.304
Mof_C 	C 	0.1606	0.4942	0.4724	-0.06
Mof_C 	C 	0.2273	0.5156	0.5107	-0.017
Mof_C 	C 	0.1223	0.3998	0.4735	-0.017
Mof_C 	C 	0.2476	0.4478	0.5508	0.03
Mof_C 	C 	0.1438	0.334	0.5133	0.028
Mof_C 	C 	0.447	0.3735	0.6068	0.096
Mof_C 	C 	0.2304	0.0967	0.7046	0.023
Mof_C 	C 	0.2538	0.0157	0.736	-0.025
Mof_C 	C 	0.3493	0.9734	0.7305	-0.051
Mof_C 	C 	0.4178	0.0166	0.6948	-0.024
Mof_C 	C 	0.3842	0.0973	0.6653	0.03
Mof_C 	C 	0.3827	0.8887	0.7627	0.3
Mof_C 	C 	0.3404	0.7745	0.828	0.117
Mof_C 	C 	0.2278	0.8395	0.8958	0.116
Mof_C 	C 	0.062	0.8652	0.93	0.304
Mof_C 	C 	0.9942	0.8394	0.9724	-0.06
Mof_C 	C 	0.0156	0.7727	0.0107	-0.016
Mof_C 	C 	0.8998	0.8777	0.9735	-0.017
Mof_C 	C 	0.9478	0.7524	0.0508	0.03
Mof_C 	C 	0.834	0.8562	0.0133	0.028
Mof_C 	C 	0.053	0.1265	0.6068	0.095
Mof_C 	C 	0.2696	0.4033	0.7046	0.023
Mof_C 	C 	0.2462	0.4843	0.736	-0.024
Mof_C 	C 	0.1507	0.5266	0.7305	-0.053
Mof_C 	C 	0.0822	0.4834	0.6948	-0.024
Mof_C 	C 	0.1158	0.4027	0.6653	0.03
Mof_C 	C 	0.1173	0.6113	0.7627	0.3
Mof_C 	C 	0.1596	0.7255	0.828	0.117
Mof_C 	C 	0.2722	0.6605	0.8958	0.116
Mof_C 	C 	0.438	0.6348	0.93	0.304
Mof_C 	C 	0.5058	0.6606	0.9724	-0.059
Mof_C 	C 	0.4844	0.7273	0.0107	-0.017
Mof_C 	C 	0.6002	0.6223	0.9735	-0.017
Mof_C 	C 	0.5522	0.7476	0.0508	0.03
Mof_C 	C 	0.666	0.6438	0.0133	0.028
Mof_C 	C 	0.25	0.75	0.3623	-0.075
Mof_C 	C 	0.25	0.75	0.8623	-0.075
Mof_S 	S 	0.9648	0.4793	0.1021	-0.03
Mof_S 	S 	0.5352	0.0207	0.1021	-0.029
Mof_S 	S 	0.5207	0.4648	0.6021	-0.03
Mof_S 	S 	0.9793	0.0352	0.6021	-0.029
Mof_N 	N 	0.8087	0.6073	0.1132	-0.259
Mof_N 	N 	0.6367	0.7059	0.16962	-0.218
Mof_N 	N 	0.2905	0.1417	0.55	-0.216
Mof_N 	N 	0.6913	0.8927	0.1132	-0.259
Mof_N 	N 	0.8633	0.7941	0.16962	-0.219
Mof_N 	N 	0.2095	0.3583	0.55	-0.216
Mof_N 	N 	0.3927	0.3087	0.6132	-0.259
Mof_N 	N 	0.2941	0.1367	0.66962	-0.219
Mof_N 	N 	0.8583	0.7905	0.05	-0.216
Mof_N 	N 	0.1073	0.1913	0.6132	-0.259
Mof_N 	N 	0.2059	0.3633	0.66962	-0.218
Mof_N 	N 	0.6417	0.7095	0.05	-0.216
Mof_O 	O 	0.3471	0.54	0.2568	-0.239
Mof_O 	O 	0.3575	0.6873	0.29512	-0.257
Mof_O 	O 	0.3169	0.8528	0.43244	-0.26
Mof_O 	O 	0.4198	0.9581	0.3944	-0.258
Mof_O 	O 	0.1529	0.96	0.2568	-0.239
Mof_O 	O 	0.1425	0.8127	0.29512	-0.257
Mof_O 	O 	0.1831	0.6472	0.43244	-0.26
Mof_O 	O 	0.0802	0.5419	0.3944	-0.258
Mof_O 	O 	0.46	0.8471	0.7568	-0.238
Mof_O 	O 	0.3127	0.8575	0.79512	-0.257
Mof_O 	O 	0.1472	0.8169	0.93244	-0.26
Mof_O 	O 	0.0419	0.9198	0.8944	-0.258
Mof_O 	O 	0.04	0.6529	0.7568	-0.239
Mof_O 	O 	0.1873	0.6425	0.79512	-0.257
Mof_O 	O 	0.3528	0.6831	0.93244	-0.26
Mof_O 	O 	0.4581	0.5802	0.8944	-0.258
Mof_H 	H 	0.36713	0.15397	0.79235	0.016
Mof_H 	H 	0.51442	0.19672	0.73502	0.054
Mof_H 	H 	0.51481	0.49623	0.80876	0.07
Mof_H 	H 	0.36644	0.43534	0.86479	0.026
Mof_H 	H 	0.77087	0.41158	0.66801	0.042
Mof_H 	H 	0.58897	0.27198	0.60982	0.025
Mof_H 	H 	0.7679	0.09	0.48948	0.053
Mof_H 	H 	0.57087	0.87356	0.55923	0.053
Mof_H 	H 	0.79793	0.97018	0.41522	0.012
Mof_H 	H 	0.60518	0.75861	0.48524	0.014
Mof_H 	H 	0.13287	0.34603	0.79235	0.016
Mof_H 	H 	0.98558	0.30328	0.73502	0.055
Mof_H 	H 	0.98519	0.00377	0.80876	0.071
Mof_H 	H 	0.13356	0.06466	0.86479	0.026
Mof_H 	H 	0.72913	0.08842	0.66801	0.042
Mof_H 	H 	0.91103	0.22802	0.60982	0.025
Mof_H 	H 	0.7321	0.41	0.48948	0.054
Mof_H 	H 	0.92913	0.62644	0.55923	0.053
Mof_H 	H 	0.70207	0.52982	0.41522	0.012
Mof_H 	H 	0.89482	0.74139	0.48524	0.014
Mof_H 	H 	0.84603	0.86713	0.29235	0.016
Mof_H 	H 	0.80328	0.01442	0.23502	0.055
Mof_H 	H 	0.50377	0.01481	0.30876	0.07
Mof_H 	H 	0.56466	0.86644	0.36479	0.026
Mof_H 	H 	0.58842	0.27087	0.16801	0.042
Mof_H 	H 	0.72802	0.08897	0.10982	0.025
Mof_H 	H 	0.91	0.2679	0.98948	0.053
Mof_H 	H 	0.12644	0.07087	0.05923	0.053
Mof_H 	H 	0.02982	0.29793	0.91522	0.012
Mof_H 	H 	0.24139	0.10518	0.98524	0.014
Mof_H 	H 	0.65397	0.63287	0.29235	0.016
Mof_H 	H 	0.69672	0.48558	0.23502	0.054
Mof_H 	H 	0.99623	0.48519	0.30876	0.07
Mof_H 	H 	0.93534	0.63356	0.36479	0.026
Mof_H 	H 	0.91158	0.22913	0.16801	0.042
Mof_H 	H 	0.77198	0.41103	0.10982	0.025
Mof_H 	H 	0.59	0.2321	0.98948	0.054
Mof_H 	H 	0.37356	0.42913	0.05923	0.053
Mof_H 	H 	0.47018	0.20207	0.91522	0.012
Mof_H 	H 	0.25861	0.39482	0.98524	0.014
Mof_H 	H 	0.63287	0.84603	0.20765	0.016
Mof_H 	H 	0.48558	0.80328	0.26498	0.054
Mof_H 	H 	0.48519	0.50377	0.19124	0.07
Mof_H 	H 	0.63356	0.56466	0.13521	0.026
Mof_H 	H 	0.22913	0.58842	0.33199	0.042
Mof_H 	H 	0.41103	0.72802	0.39018	0.025
Mof_H 	H 	0.2321	0.91	0.51052	0.053
Mof_H 	H 	0.42913	0.12644	0.44077	0.053
Mof_H 	H 	0.20207	0.02982	0.58478	0.012
Mof_H 	H 	0.39482	0.24139	0.51476	0.014
Mof_H 	H 	0.86713	0.65397	0.20765	0.016
Mof_H 	H 	0.01442	0.69672	0.26498	0.055
Mof_H 	H 	0.01481	0.99623	0.19124	0.071
Mof_H 	H 	0.86644	0.93534	0.13521	0.026
Mof_H 	H 	0.27087	0.91158	0.33199	0.042
Mof_H 	H 	0.08897	0.77198	0.39018	0.025
Mof_H 	H 	0.2679	0.59	0.51052	0.054
Mof_H 	H 	0.07087	0.37356	0.44077	0.053
Mof_H 	H 	0.29793	0.47018	0.58478	0.012
Mof_H 	H 	0.10518	0.25861	0.51476	0.014
Mof_H 	H 	0.15397	0.13287	0.70765	0.016
Mof_H 	H 	0.19672	0.98558	0.76498	0.055
Mof_H 	H 	0.49623	0.98519	0.69124	0.07
Mof_H 	H 	0.43534	0.13356	0.63521	0.026
Mof_H 	H 	0.41158	0.72913	0.83199	0.042
Mof_H 	H 	0.27198	0.91103	0.89018	0.025
Mof_H 	H 	0.09	0.7321	0.01052	0.053
Mof_H 	H 	0.87356	0.92913	0.94077	0.053
Mof_H 	H 	0.97018	0.70207	0.08478	0.012
Mof_H 	H 	0.75861	0.89482	0.01476	0.014
Mof_H 	H 	0.34603	0.36713	0.70765	0.016
Mof_H 	H 	0.30328	0.51442	0.76498	0.054
Mof_H 	H 	0.00377	0.51481	0.69124	0.07
Mof_H 	H 	0.06466	0.36644	0.63521	0.026
Mof_H 	H 	0.08842	0.77087	0.83199	0.042
Mof_H 	H 	0.22802	0.58897	0.89018	0.025
Mof_H 	H 	0.41	0.7679	0.01052	0.054
Mof_H 	H 	0.62644	0.57087	0.94077	0.053
Mof_H 	H 	0.52982	0.79793	0.08478	0.012
Mof_H 	H 	0.74139	0.60518	0.01476	0.014
_end
