# CIF file generated by openbabel 3.1.0, see https://openbabel.org
data_I
_chemical_name_common 'AHUTIH01_clean'
_cell_length_a 6.1092
_cell_length_b 7.6866
_cell_length_c 22.6987
_cell_angle_alpha 90
_cell_angle_beta 91.657
_cell_angle_gamma 90
_space_group_name_H-M_alt 'P 1'
_space_group_name_Hall 'P 1'
loop_
    _symmetry_equiv_pos_as_xyz
    x,y,z
loop_
    _atom_site_label
    _atom_site_type_symbol
    _atom_site_fract_x
    _atom_site_fract_y
    _atom_site_fract_z
    _atom_site_occupancy
    La1      La       0.45487    0.50172    0.85390    1.000
    La2      La       0.54513    0.00172    0.64610    1.000
    La3      La       0.54513    0.49828    0.14610    1.000
    La4      La       0.45487    0.99828    0.35390    1.000
    H1       H        0.30200    0.72400    0.75810    1.000
    H2       H        0.44400    0.62500    0.61660    1.000
    H3       H        0.04160    0.47800    0.71760    1.000
    H4       H        0.12020    0.56560    0.62510    1.000
    H5       H        0.69800    0.22400    0.74190    1.000
    H6       H        0.55600    0.12500    0.88340    1.000
    H7       H        0.95840    0.97800    0.78240    1.000
    H8       H        0.87980    0.06560    0.87490    1.000
    H9       H        0.69800    0.27600    0.24190    1.000
    H10      H        0.55600    0.37500    0.38340    1.000
    H11      H        0.95840    0.52200    0.28240    1.000
    H12      H        0.87980    0.43440    0.37490    1.000
    H13      H        0.30200    0.77600    0.25810    1.000
    H14      H        0.44400    0.87500    0.11660    1.000
    H15      H        0.04160    0.02200    0.21760    1.000
    H16      H        0.12020    0.93440    0.12510    1.000
    C1       C        0.36140    0.39410    0.71127    1.000
    C2       C        0.18400    0.53540    0.71445    1.000
    C3       C        0.18260    0.63910    0.65667    1.000
    C4       C        0.04660    0.80580    0.65986    1.000
    C5       C        0.58240    0.57600    0.99870    1.000
    C6       C        0.63860    0.89410    0.78873    1.000
    C7       C        0.81600    0.03540    0.78555    1.000
    C8       C        0.81740    0.13910    0.84333    1.000
    C9       C        0.95340    0.30580    0.84014    1.000
    C10      C        0.41760    0.07600    0.50130    1.000
    C11      C        0.63860    0.60590    0.28873    1.000
    C12      C        0.81600    0.46460    0.28555    1.000
    C13      C        0.81740    0.36090    0.34333    1.000
    C14      C        0.95340    0.19420    0.34014    1.000
    C15      C        0.41760    0.42400    0.00130    1.000
    C16      C        0.36140    0.10590    0.21127    1.000
    C17      C        0.18400    0.96460    0.21445    1.000
    C18      C        0.18260    0.86090    0.15667    1.000
    C19      C        0.04660    0.69420    0.15986    1.000
    C20      C        0.58240    0.92400    0.49870    1.000
    O1       O        0.51110    0.39790    0.75078    1.000
    O2       O        0.35060    0.28690    0.67020    1.000
    O3       O        0.22020    0.64020    0.76536    1.000
    O4       O        0.39980    0.68590    0.64175    1.000
    O5       O        0.14550    0.94730    0.65467    1.000
    O6       O        0.84620    0.78930    0.66667    1.000
    O7       O        0.62350    0.63190    0.94824    1.000
    O8       O        0.66150    0.63060    0.04630    1.000
    O9       O        0.48890    0.89790    0.74922    1.000
    O10      O        0.64940    0.78690    0.82980    1.000
    O11      O        0.77980    0.14020    0.73464    1.000
    O12      O        0.60020    0.18590    0.85825    1.000
    O13      O        0.85450    0.44730    0.84533    1.000
    O14      O        0.15380    0.28930    0.83333    1.000
    O15      O        0.37650    0.13190    0.55176    1.000
    O16      O        0.33850    0.13060    0.45370    1.000
    O17      O        0.48890    0.60210    0.24922    1.000
    O18      O        0.64940    0.71310    0.32980    1.000
    O19      O        0.77980    0.35980    0.23464    1.000
    O20      O        0.60020    0.31410    0.35825    1.000
    O21      O        0.85450    0.05270    0.34533    1.000
    O22      O        0.15380    0.21070    0.33333    1.000
    O23      O        0.37650    0.36810    0.05176    1.000
    O24      O        0.33850    0.36940    0.95370    1.000
    O25      O        0.51110    0.10210    0.25078    1.000
    O26      O        0.35060    0.21310    0.17020    1.000
    O27      O        0.22020    0.85980    0.26536    1.000
    O28      O        0.39980    0.81410    0.14175    1.000
    O29      O        0.14550    0.55270    0.15467    1.000
    O30      O        0.84620    0.71070    0.16667    1.000
    O31      O        0.62350    0.86810    0.44824    1.000
    O32      O        0.66150    0.86940    0.54630    1.000
