data_functionalizedCrystal
_audit_creation_method	'EQeq! by Chris Wilmer'
_symmetry_space_group_name_H-M	'P1'
_symmetry_Int_Tables_number	1
_symmetry_cell_setting	triclinic
loop_
_symmetry_equiv_pos_as_xyz
  x,y,z
_cell_length_a	13.079
_cell_length_b	13.853
_cell_length_c	14.263
_cell_angle_alpha	90
_cell_angle_beta	107.983
_cell_angle_gamma	90
loop_
_atom_site_label
_atom_site_type_symbol
_atom_site_fract_x
_atom_site_fract_y
_atom_site_fract_z
_atom_site_charge
Mof_Cs	Cs	0.25516	0.89849	0.26106	4.031
Mof_Cd	Cd	0.49763	0.07175	0.2433	0.432
Mof_Cd	Cd	0.98834	0.72915	0.26294	0.43
Mof_C 	C 	0.6025	0.3611	0.072	0.054
Mof_H 	H 	0.5278	0.3579	0.0488	0.025
Mof_C 	C 	0.6551	0.4247	0.0276	-0.198
Mof_C 	C 	0.767	0.431	0.0668	0.055
Mof_H 	H 	0.805	0.4737	0.0398	-0.035
Mof_C 	C 	0.8218	0.3726	0.1473	-0.137
Mof_H 	H 	0.896	0.378	0.174	0.065
Mof_C 	C 	0.767	0.3073	0.1873	0.04
Mof_H 	H 	0.8044	0.2675	0.2389	0.029
Mof_C 	C 	0.6578	0.3016	0.1506	-0.113
Mof_C 	C 	0.5938	0.4776	0.9372	0.373
Mof_C 	C 	0.5962	0.2265	0.1869	0.283
Mof_C 	C 	0.5935	0.7821	0.5011	0.215
Mof_H 	H 	0.5239	0.7959	0.501	-0.099
Mof_C 	C 	0.638	0.8327	0.4375	-0.313
Mof_C 	C 	0.7404	0.8094	0.4363	0.221
Mof_H 	H 	0.7697	0.8404	0.3927	-0.025
Mof_C 	C 	0.7984	0.741	0.4992	-0.328
Mof_H 	H 	0.8685	0.7273	0.5005	0.146
Mof_C 	C 	0.7526	0.6915	0.5617	0.264
Mof_H 	H 	0.7923	0.6435	0.6025	-0.159
Mof_C 	C 	0.6534	0.7109	0.5647	-0.328
Mof_C 	C 	0.5749	0.9091	0.3739	0.442
Mof_C 	C 	0.6039	0.6603	0.6355	0.444
Mof_C 	C 	0.8846	0.4399	0.4358	0.074
Mof_H 	H 	0.9593	0.4394	0.4559	0.012
Mof_C 	C 	0.8292	0.3781	0.4791	-0.225
Mof_C 	C 	0.7193	0.3737	0.4468	0.038
Mof_H 	H 	0.6831	0.3295	0.474	-0.07
Mof_C 	C 	0.6615	0.4374	0.3713	-0.136
Mof_H 	H 	0.5868	0.4354	0.3496	0.054
Mof_C 	C 	0.7143	0.5019	0.3299	0.036
Mof_H 	H 	0.6761	0.5445	0.2813	0.02
Mof_C 	C 	0.828	0.5026	0.3622	-0.126
Mof_C 	C 	0.8872	0.5799	0.3234	0.312
Mof_C 	C 	0.8903	0.3172	0.5632	0.325
Mof_C 	C 	0.9352	0.0235	0.033	0.499
Mof_H 	H 	0.0021	0.9978	0.0369	-0.232
Mof_C 	C 	0.8809	0.986	0.0921	-0.575
Mof_C 	C 	0.7798	0.0241	0.0866	0.5
Mof_H 	H 	0.7421	0.9988	0.1265	-0.138
Mof_C 	C 	0.7352	0.0991	0.0221	-0.517
Mof_H 	H 	0.6681	0.1244	0.018	0.21
Mof_C 	C 	0.7945	0.135	0.9638	0.414
Mof_H 	H 	0.7654	0.1855	0.9209	-0.242
Mof_C 	C 	0.8945	0.0998	0.9659	-0.462
Mof_C 	C 	0.9568	0.1352	0.9007	0.464
Mof_C 	C 	0.9246	0.9002	0.1546	0.598
Mof_O 	O 	0.4953	0.4865	0.9163	-0.306
Mof_O 	O 	0.6463	0.51	0.8825	-0.6
Mof_O 	O 	0.6485	0.1604	0.2425	-0.241
Mof_O 	O 	0.4928	0.2261	0.1579	-0.246
Mof_O 	O 	0.483	0.9332	0.377	-0.705
Mof_O 	O 	0.6145	0.9527	0.3139	-0.345
Mof_O 	O 	0.667	0.6181	0.7081	-0.592
Mof_O 	O 	0.5058	0.6643	0.619	-0.345
Mof_O 	O 	0.832	0.6379	0.2572	-0.255
Mof_O 	O 	0.9843	0.5851	0.3559	-0.282
Mof_O 	O 	0.9943	0.3164	0.5903	-0.303
Mof_O 	O 	0.8421	0.2722	0.613	-0.608
Mof_O 	O 	0.8985	0.1703	0.8171	-0.469
Mof_O 	O 	0.0527	0.1328	0.9285	-0.33
Mof_O 	O 	0.0231	0.8835	0.179	-0.767
Mof_O 	O 	0.861	0.8458	0.1812	-0.348
Mof_Cs	Cs	0.74484	0.39849	0.73894	4.132
Mof_Cd	Cd	0.50237	0.57175	0.7567	0.402
Mof_Cd	Cd	0.01166	0.22915	0.73706	0.447
Mof_C 	C 	0.3975	0.8611	0.928	0.043
Mof_H 	H 	0.4722	0.8579	0.9512	0.024
Mof_C 	C 	0.3449	0.9247	0.9724	-0.188
Mof_C 	C 	0.233	0.931	0.9332	0.04
Mof_H 	H 	0.195	0.9737	0.9602	-0.039
Mof_C 	C 	0.1782	0.8726	0.8527	-0.134
Mof_H 	H 	0.104	0.878	0.826	0.058
Mof_C 	C 	0.233	0.8073	0.8127	0.033
Mof_H 	H 	0.1956	0.7675	0.7611	0.028
Mof_C 	C 	0.3422	0.8016	0.8494	-0.112
Mof_C 	C 	0.4062	0.9776	0.0628	0.322
Mof_C 	C 	0.4038	0.7265	0.8131	0.284
Mof_C 	C 	0.4065	0.2821	0.4989	0.212
Mof_H 	H 	0.4761	0.2959	0.499	-0.096
Mof_C 	C 	0.362	0.3327	0.5625	-0.305
Mof_C 	C 	0.2596	0.3094	0.5637	0.217
Mof_H 	H 	0.2303	0.3404	0.6073	-0.019
Mof_C 	C 	0.2016	0.241	0.5008	-0.316
Mof_H 	H 	0.1315	0.2273	0.4995	0.15
Mof_C 	C 	0.2474	0.1915	0.4383	0.257
Mof_H 	H 	0.2077	0.1435	0.3975	-0.143
Mof_C 	C 	0.3466	0.2109	0.4353	-0.315
Mof_C 	C 	0.4251	0.4091	0.6261	0.442
Mof_C 	C 	0.3961	0.1603	0.3645	0.442
Mof_C 	C 	0.1154	0.9399	0.5642	0.019
Mof_H 	H 	0.0407	0.9394	0.5441	0.023
Mof_C 	C 	0.1708	0.8781	0.5209	-0.218
Mof_C 	C 	0.2807	0.8737	0.5532	0.054
Mof_H 	H 	0.3169	0.8295	0.526	-0.076
Mof_C 	C 	0.3385	0.9374	0.6287	-0.204
Mof_H 	H 	0.4132	0.9354	0.6504	0.068
Mof_C 	C 	0.2857	0.0019	0.6701	0.095
Mof_H 	H 	0.3239	0.0445	0.7187	0.009
Mof_C 	C 	0.172	0.0026	0.6378	-0.086
Mof_C 	C 	0.1128	0.0799	0.6766	0.305
Mof_C 	C 	0.1097	0.8172	0.4368	0.32
Mof_C 	C 	0.0648	0.5235	0.967	0.282
Mof_H 	H 	0.9979	0.4978	0.9631	-0.146
Mof_C 	C 	0.1191	0.486	0.9079	-0.357
Mof_C 	C 	0.2202	0.5241	0.9134	0.233
Mof_H 	H 	0.2579	0.4988	0.8735	-0.023
Mof_C 	C 	0.2648	0.5991	0.9779	-0.337
Mof_H 	H 	0.3319	0.6244	0.982	0.139
Mof_C 	C 	0.2055	0.635	0.0362	0.276
Mof_H 	H 	0.2346	0.6855	0.0791	-0.194
Mof_C 	C 	0.1055	0.5998	0.0341	-0.344
Mof_C 	C 	0.0432	0.6352	0.0993	0.441
Mof_C 	C 	0.0754	0.4002	0.8454	0.545
Mof_O 	O 	0.5047	0.9865	0.0837	-0.308
Mof_O 	O 	0.3537	0.01	0.1175	-0.544
Mof_O 	O 	0.3515	0.6604	0.7575	-0.249
Mof_O 	O 	0.5072	0.7261	0.8421	-0.252
Mof_O 	O 	0.517	0.4332	0.623	-0.698
Mof_O 	O 	0.3855	0.4527	0.6861	-0.329
Mof_O 	O 	0.333	0.1181	0.2919	-0.572
Mof_O 	O 	0.4942	0.1643	0.381	-0.338
Mof_O 	O 	0.168	0.1379	0.7428	-0.248
Mof_O 	O 	0.0157	0.0851	0.6441	-0.261
Mof_O 	O 	0.0057	0.8164	0.4097	-0.294
Mof_O 	O 	0.1579	0.7722	0.387	-0.599
Mof_O 	O 	0.1015	0.6703	0.1829	-0.457
Mof_O 	O 	0.9473	0.6328	0.0715	-0.346
Mof_O 	O 	0.9769	0.3835	0.821	-0.77
Mof_O 	O 	0.139	0.3458	0.8188	-0.33
_end
