# CIF file generated by openbabel 3.1.0, see https://openbabel.org
data_I
_chemical_name_common 'image0'
_cell_length_a 21.2401
_cell_length_b 7.2164
_cell_length_c 15.2493
_cell_angle_alpha 90
_cell_angle_beta 90
_cell_angle_gamma 90
_space_group_name_H-M_alt 'P 1'
_space_group_name_Hall 'P 1'
loop_
    _symmetry_equiv_pos_as_xyz
    x,y,z
loop_
    _atom_site_label
    _atom_site_type_symbol
    _atom_site_fract_x
    _atom_site_fract_y
    _atom_site_fract_z
    _atom_site_occupancy
    N1       N        0.06639    0.15490    0.56002    1.000
    C1       C        0.11341    0.89980    0.39095    1.000
    H1       H        0.12400    0.02250    0.37960    1.000
    C2       C        0.24760    0.63820    0.32310    1.000
    C3       C        0.19950    0.63600    0.23210    1.000
    H2       H        0.24450    0.55590    0.37240    1.000
    H3       H        0.16370    0.56020    0.21850    1.000
    N2       N        0.56639    0.65490    0.06002    1.000
    C4       C        0.61341    0.39980    0.89095    1.000
    H4       H        0.62400    0.52250    0.87960    1.000
    C5       C        0.74760    0.13820    0.82310    1.000
    C6       C        0.69950    0.13600    0.73210    1.000
    H5       H        0.74450    0.05590    0.87240    1.000
    H6       H        0.66370    0.06020    0.71850    1.000
    N3       N        0.93361    0.34510    0.56002    1.000
    C7       C        0.88659    0.60020    0.39095    1.000
    H7       H        0.87600    0.47750    0.37960    1.000
    C8       C        0.75240    0.86180    0.32310    1.000
    C9       C        0.80050    0.86400    0.23210    1.000
    H8       H        0.75550    0.94410    0.37240    1.000
    H9       H        0.83630    0.93980    0.21850    1.000
    N4       N        0.43361    0.84510    0.06002    1.000
    C10      C        0.38659    0.10020    0.89095    1.000
    H10      H        0.37600    0.97750    0.87960    1.000
    C11      C        0.25240    0.36180    0.82310    1.000
    C12      C        0.30050    0.36400    0.73210    1.000
    H11      H        0.25550    0.44410    0.87240    1.000
    H12      H        0.33630    0.43980    0.71850    1.000
    N5       N        0.93361    0.65490    0.43998    1.000
    C13      C        0.88659    0.39980    0.60905    1.000
    H13      H        0.87600    0.52250    0.62040    1.000
    C14      C        0.75240    0.13820    0.67690    1.000
    C15      C        0.80050    0.13600    0.76790    1.000
    H14      H        0.75550    0.05590    0.62760    1.000
    H15      H        0.83630    0.06020    0.78150    1.000
    N6       N        0.43361    0.15490    0.93998    1.000
    C16      C        0.38659    0.89980    0.10905    1.000
    H16      H        0.37600    0.02250    0.12040    1.000
    C17      C        0.25240    0.63820    0.17690    1.000
    C18      C        0.30050    0.63600    0.26790    1.000
    H17      H        0.25550    0.55590    0.12760    1.000
    H18      H        0.33630    0.56020    0.28150    1.000
    N7       N        0.06639    0.84510    0.43998    1.000
    C19      C        0.11341    0.10020    0.60905    1.000
    H19      H        0.12400    0.97750    0.62040    1.000
    C20      C        0.24760    0.36180    0.67690    1.000
    C21      C        0.19950    0.36400    0.76790    1.000
    H20      H        0.24450    0.44410    0.62760    1.000
    H21      H        0.16370    0.43980    0.78150    1.000
    N8       N        0.56639    0.34510    0.93998    1.000
    C22      C        0.61341    0.60020    0.10905    1.000
    H22      H        0.62400    0.47750    0.12040    1.000
    C23      C        0.74760    0.86180    0.17690    1.000
    C24      C        0.69950    0.86400    0.26790    1.000
    H23      H        0.74450    0.94410    0.12760    1.000
    H24      H        0.66370    0.93980    0.28150    1.000
    N9       N        0.93361    0.84510    0.43998    1.000
    C25      C        0.88659    0.10020    0.60905    1.000
    H25      H        0.87600    0.97750    0.62040    1.000
    C26      C        0.75240    0.36180    0.67690    1.000
    C27      C        0.80050    0.36400    0.76790    1.000
    H26      H        0.75550    0.44410    0.62760    1.000
    H27      H        0.83630    0.43980    0.78150    1.000
    N10      N        0.43361    0.34510    0.93998    1.000
    C28      C        0.38659    0.60020    0.10905    1.000
    H28      H        0.37600    0.47750    0.12040    1.000
    C29      C        0.25240    0.86180    0.17690    1.000
    C30      C        0.30050    0.86400    0.26790    1.000
    H29      H        0.25550    0.94410    0.12760    1.000
    H30      H        0.33630    0.93980    0.28150    1.000
    N11      N        0.06639    0.65490    0.43998    1.000
    C31      C        0.11341    0.39980    0.60905    1.000
    H31      H        0.12400    0.52250    0.62040    1.000
    C32      C        0.24760    0.13820    0.67690    1.000
    C33      C        0.19950    0.13600    0.76790    1.000
    H32      H        0.24450    0.05590    0.62760    1.000
    H33      H        0.16370    0.06020    0.78150    1.000
    N12      N        0.56639    0.15490    0.93998    1.000
    C34      C        0.61341    0.89980    0.10905    1.000
    H34      H        0.62400    0.02250    0.12040    1.000
    C35      C        0.74760    0.63820    0.17690    1.000
    C36      C        0.69950    0.63600    0.26790    1.000
    H35      H        0.74450    0.55590    0.12760    1.000
    H36      H        0.66370    0.56020    0.28150    1.000
    N13      N        0.06639    0.34510    0.56002    1.000
    C37      C        0.11341    0.60020    0.39095    1.000
    H37      H        0.12400    0.47750    0.37960    1.000
    C38      C        0.24760    0.86180    0.32310    1.000
    C39      C        0.19950    0.86400    0.23210    1.000
    H38      H        0.24450    0.94410    0.37240    1.000
    H39      H        0.16370    0.93980    0.21850    1.000
    N14      N        0.56639    0.84510    0.06002    1.000
    C40      C        0.61341    0.10020    0.89095    1.000
    H40      H        0.62400    0.97750    0.87960    1.000
    C41      C        0.74760    0.36180    0.82310    1.000
    C42      C        0.69950    0.36400    0.73210    1.000
    H41      H        0.74450    0.44410    0.87240    1.000
    H42      H        0.66370    0.43980    0.71850    1.000
    N15      N        0.93361    0.15490    0.56002    1.000
    C43      C        0.88659    0.89980    0.39095    1.000
    H43      H        0.87600    0.02250    0.37960    1.000
    C44      C        0.75240    0.63820    0.32310    1.000
    C45      C        0.80050    0.63600    0.23210    1.000
    H44      H        0.75550    0.55590    0.37240    1.000
    H45      H        0.83630    0.56020    0.21850    1.000
    N16      N        0.43361    0.65490    0.06002    1.000
    C46      C        0.38659    0.39980    0.89095    1.000
    H46      H        0.37600    0.52250    0.87960    1.000
    C47      C        0.25240    0.13820    0.82310    1.000
    C48      C        0.30050    0.13600    0.73210    1.000
    H47      H        0.25550    0.05590    0.87240    1.000
    H48      H        0.33630    0.06020    0.71850    1.000
    Cu1      Cu       0.00000    0.00000    0.50000    1.000
    Cu2      Cu       0.50000    0.50000    0.00000    1.000
    Cu3      Cu       0.00000    0.50000    0.50000    1.000
    Cu4      Cu       0.50000    0.00000    0.00000    1.000
    N17      N        0.14410    0.75000    0.35950    1.000
    C49      C        0.19893    0.75000    0.30260    1.000
    N18      N        0.64410    0.25000    0.85950    1.000
    C50      C        0.69893    0.25000    0.80260    1.000
    N19      N        0.85590    0.75000    0.35950    1.000
    C51      C        0.80107    0.75000    0.30260    1.000
    N20      N        0.35590    0.25000    0.85950    1.000
    C52      C        0.30107    0.25000    0.80260    1.000
    N21      N        0.85590    0.25000    0.64050    1.000
    C53      C        0.80107    0.25000    0.69740    1.000
    N22      N        0.35590    0.75000    0.14050    1.000
    C54      C        0.30107    0.75000    0.19740    1.000
    N23      N        0.14410    0.25000    0.64050    1.000
    C55      C        0.19893    0.25000    0.69740    1.000
    N24      N        0.64410    0.75000    0.14050    1.000
    C56      C        0.69893    0.75000    0.19740    1.000
