# CIF file generated by openbabel 3.1.0, see https://openbabel.org
data_I
_chemical_name_common 'image0'
_cell_length_a 15.29
_cell_length_b 15.29
_cell_length_c 6.905
_cell_angle_alpha 90
_cell_angle_beta 90
_cell_angle_gamma 120
_space_group_name_H-M_alt 'P 1'
_space_group_name_Hall 'P 1'
loop_
    _symmetry_equiv_pos_as_xyz
    x,y,z
loop_
    _atom_site_label
    _atom_site_type_symbol
    _atom_site_fract_x
    _atom_site_fract_y
    _atom_site_fract_z
    _atom_site_occupancy
    Ag1      Ag       0.26446    0.73554    0.99999    1.000
    N1       N        0.48550    0.89590    0.68230    1.000
    N2       N        0.41070    0.89640    0.31710    1.000
    C1       C        0.35740    0.83710    0.20980    1.000
    C2       C        0.47950    0.83710    0.79070    1.000
    N3       N        0.62540    0.01480    0.38210    1.000
    C3       C        0.70560    0.11110    0.34500    1.000
    H1       H        0.69890    0.16730    0.36920    1.000
    C4       C        0.79580    0.12350    0.27190    1.000
    H2       H        0.84940    0.18790    0.24710    1.000
    C5       C        0.80580    0.03950    0.23580    1.000
    H3       H        0.86610    0.04770    0.18680    1.000
    C6       C        0.72560    0.94310    0.27290    1.000
    C7       C        0.63540    0.93080    0.34600    1.000
    H4       H        0.58180    0.86630    0.37080    1.000
    C8       C        0.73970    0.86090    0.24230    1.000
    N4       N        0.75300    0.79390    0.21520    1.000
    N5       N        0.61020    0.98460    0.38250    1.000
    C9       C        0.70410    0.06880    0.34700    1.000
    H5       H        0.71460    0.13320    0.37180    1.000
    C10      C        0.78240    0.05690    0.27440    1.000
    C11      C        0.76670    0.96080    0.23730    1.000
    H6       H        0.81900    0.95280    0.18870    1.000
    C12      C        0.67280    0.87650    0.27280    1.000
    H7       H        0.66230    0.81220    0.24800    1.000
    C13      C        0.59460    0.88840    0.34540    1.000
    H8       H        0.53170    0.83200    0.36920    1.000
    C14      C        0.87980    0.13990    0.24030    1.000
    N6       N        0.96040    0.20660    0.21710    1.000
    Ag2      Ag       0.26446    0.52892    0.99999    1.000
    N7       N        0.10410    0.58960    0.68230    1.000
    N8       N        0.10360    0.51430    0.31710    1.000
    C15      C        0.16290    0.52030    0.20980    1.000
    C16      C        0.16290    0.64240    0.79070    1.000
    N9       N        0.98520    0.61060    0.38210    1.000
    C17      C        0.88890    0.59450    0.34500    1.000
    H9       H        0.83270    0.53160    0.36920    1.000
    C18      C        0.87650    0.67230    0.27190    1.000
    H10      H        0.81210    0.66150    0.24710    1.000
    C19      C        0.96050    0.76630    0.23580    1.000
    H11      H        0.95230    0.81840    0.18680    1.000
    C20      C        0.05690    0.78250    0.27290    1.000
    C21      C        0.06920    0.70460    0.34600    1.000
    H12      H        0.13370    0.71550    0.37080    1.000
    C22      C        0.13910    0.87880    0.24230    1.000
    N10      N        0.20610    0.95910    0.21520    1.000
    N11      N        0.01540    0.62560    0.38250    1.000
    C23      C        0.93120    0.63530    0.34700    1.000
    H13      H        0.86680    0.58140    0.37180    1.000
    C24      C        0.94310    0.72550    0.27440    1.000
    C25      C        0.03920    0.80590    0.23730    1.000
    H14      H        0.04720    0.86620    0.18870    1.000
    C26      C        0.12350    0.79630    0.27280    1.000
    H15      H        0.18780    0.85010    0.24800    1.000
    C27      C        0.11160    0.70620    0.34540    1.000
    H16      H        0.16800    0.69970    0.36920    1.000
    C28      C        0.86010    0.73990    0.24030    1.000
    N12      N        0.79340    0.75380    0.21710    1.000
    Ag3      Ag       0.47108    0.73554    0.99999    1.000
    N13      N        0.41040    0.51450    0.68230    1.000
    N14      N        0.48570    0.58930    0.31710    1.000
    C29      C        0.47970    0.64260    0.20980    1.000
    C30      C        0.35760    0.52050    0.79070    1.000
    N15      N        0.38940    0.37460    0.38210    1.000
    C31      C        0.40550    0.29440    0.34500    1.000
    H17      H        0.46840    0.30110    0.36920    1.000
    C32      C        0.32770    0.20420    0.27190    1.000
    H18      H        0.33850    0.15060    0.24710    1.000
    C33      C        0.23370    0.19420    0.23580    1.000
    H19      H        0.18160    0.13390    0.18680    1.000
    C34      C        0.21750    0.27440    0.27290    1.000
    C35      C        0.29540    0.36460    0.34600    1.000
    H20      H        0.28450    0.41820    0.37080    1.000
    C36      C        0.12120    0.26030    0.24230    1.000
    N16      N        0.04090    0.24700    0.21520    1.000
    N17      N        0.37440    0.38980    0.38250    1.000
    C37      C        0.36470    0.29590    0.34700    1.000
    H21      H        0.41860    0.28540    0.37180    1.000
    C38      C        0.27450    0.21760    0.27440    1.000
    C39      C        0.19410    0.23330    0.23730    1.000
    H22      H        0.13380    0.18100    0.18870    1.000
    C40      C        0.20370    0.32720    0.27280    1.000
    H23      H        0.14990    0.33770    0.24800    1.000
    C41      C        0.29380    0.40540    0.34540    1.000
    H24      H        0.30030    0.46830    0.36920    1.000
    C42      C        0.26010    0.12020    0.24030    1.000
    N18      N        0.24620    0.03960    0.21710    1.000
    Ag4      Ag       0.73554    0.26446    0.00001    1.000
    N19      N        0.51450    0.10410    0.31770    1.000
    N20      N        0.58930    0.10360    0.68290    1.000
    C43      C        0.64260    0.16290    0.79020    1.000
    C44      C        0.52050    0.16290    0.20930    1.000
    N21      N        0.37460    0.98520    0.61790    1.000
    C45      C        0.29440    0.88890    0.65500    1.000
    H25      H        0.30110    0.83270    0.63080    1.000
    C46      C        0.20420    0.87650    0.72810    1.000
    H26      H        0.15060    0.81210    0.75290    1.000
    C47      C        0.19420    0.96050    0.76420    1.000
    H27      H        0.13390    0.95230    0.81320    1.000
    C48      C        0.27440    0.05690    0.72710    1.000
    C49      C        0.36460    0.06920    0.65400    1.000
    H28      H        0.41820    0.13370    0.62920    1.000
    C50      C        0.26030    0.13910    0.75770    1.000
    N22      N        0.24700    0.20610    0.78480    1.000
    N23      N        0.38980    0.01540    0.61750    1.000
    C51      C        0.29590    0.93120    0.65300    1.000
    H29      H        0.28540    0.86680    0.62820    1.000
    C52      C        0.21760    0.94310    0.72560    1.000
    C53      C        0.23330    0.03920    0.76270    1.000
    H30      H        0.18100    0.04720    0.81130    1.000
    C54      C        0.32720    0.12350    0.72720    1.000
    H31      H        0.33770    0.18780    0.75200    1.000
    C55      C        0.40540    0.11160    0.65460    1.000
    H32      H        0.46830    0.16800    0.63080    1.000
    C56      C        0.12020    0.86010    0.75970    1.000
    N24      N        0.03960    0.79340    0.78290    1.000
    Ag5      Ag       0.73554    0.47108    0.00001    1.000
    N25      N        0.89590    0.41040    0.31770    1.000
    N26      N        0.89640    0.48570    0.68290    1.000
    C57      C        0.83710    0.47970    0.79020    1.000
    C58      C        0.83710    0.35760    0.20930    1.000
    N27      N        0.01480    0.38940    0.61790    1.000
    C59      C        0.11110    0.40550    0.65500    1.000
    H33      H        0.16730    0.46840    0.63080    1.000
    C60      C        0.12350    0.32770    0.72810    1.000
    H34      H        0.18790    0.33850    0.75290    1.000
    C61      C        0.03950    0.23370    0.76420    1.000
    H35      H        0.04770    0.18160    0.81320    1.000
    C62      C        0.94310    0.21750    0.72710    1.000
    C63      C        0.93080    0.29540    0.65400    1.000
    H36      H        0.86630    0.28450    0.62920    1.000
    C64      C        0.86090    0.12120    0.75770    1.000
    N28      N        0.79390    0.04090    0.78480    1.000
    N29      N        0.98460    0.37440    0.61750    1.000
    C65      C        0.06880    0.36470    0.65300    1.000
    H37      H        0.13320    0.41860    0.62820    1.000
    C66      C        0.05690    0.27450    0.72560    1.000
    C67      C        0.96080    0.19410    0.76270    1.000
    H38      H        0.95280    0.13380    0.81130    1.000
    C68      C        0.87650    0.20370    0.72720    1.000
    H39      H        0.81220    0.14990    0.75200    1.000
    C69      C        0.88840    0.29380    0.65460    1.000
    H40      H        0.83200    0.30030    0.63080    1.000
    C70      C        0.13990    0.26010    0.75970    1.000
    N30      N        0.20660    0.24620    0.78290    1.000
    Ag6      Ag       0.52892    0.26446    0.00001    1.000
    N31      N        0.58960    0.48550    0.31770    1.000
    N32      N        0.51430    0.41070    0.68290    1.000
    C71      C        0.52030    0.35740    0.79020    1.000
    C72      C        0.64240    0.47950    0.20930    1.000
    N33      N        0.61060    0.62540    0.61790    1.000
    C73      C        0.59450    0.70560    0.65500    1.000
    H41      H        0.53160    0.69890    0.63080    1.000
    C74      C        0.67230    0.79580    0.72810    1.000
    H42      H        0.66150    0.84940    0.75290    1.000
    C75      C        0.76630    0.80580    0.76420    1.000
    H43      H        0.81840    0.86610    0.81320    1.000
    C76      C        0.78250    0.72560    0.72710    1.000
    C77      C        0.70460    0.63540    0.65400    1.000
    H44      H        0.71550    0.58180    0.62920    1.000
    C78      C        0.87880    0.73970    0.75770    1.000
    N34      N        0.95910    0.75300    0.78480    1.000
    N35      N        0.62560    0.61020    0.61750    1.000
    C79      C        0.63530    0.70410    0.65300    1.000
    H45      H        0.58140    0.71460    0.62820    1.000
    C80      C        0.72550    0.78240    0.72560    1.000
    C81      C        0.80590    0.76670    0.76270    1.000
    H46      H        0.86620    0.81900    0.81130    1.000
    C82      C        0.79630    0.67280    0.72720    1.000
    H47      H        0.85010    0.66230    0.75200    1.000
    C83      C        0.70620    0.59460    0.65460    1.000
    H48      H        0.69970    0.53170    0.63080    1.000
    C84      C        0.73990    0.87980    0.75970    1.000
    N36      N        0.75380    0.96040    0.78290    1.000
    Fe1      Fe       0.50000    0.00000    0.50000    1.000
    Fe2      Fe       0.00000    0.50000    0.50000    1.000
    Fe3      Fe       0.50000    0.50000    0.50000    1.000
