# CIF file generated by openbabel 3.1.0, see https://openbabel.org
data_I
_chemical_name_common 'image0'
_cell_length_a 9.8162
_cell_length_b 23.284
_cell_length_c 8.9306
_cell_angle_alpha 90
_cell_angle_beta 90
_cell_angle_gamma 90
_space_group_name_H-M_alt 'P 1'
_space_group_name_Hall 'P 1'
loop_
    _symmetry_equiv_pos_as_xyz
    x,y,z
loop_
    _atom_site_label
    _atom_site_type_symbol
    _atom_site_fract_x
    _atom_site_fract_y
    _atom_site_fract_z
    _atom_site_occupancy
    Zn1      Zn       0.44051    0.54696    0.21892    1.000
    P1       P        0.28715    0.49715    0.93735    1.000
    H1       H        0.29300    0.45490    0.01900    1.000
    P2       P        0.42532    0.68444    0.26368    1.000
    H2       H        0.53600    0.70890    0.20700    1.000
    O1       O        0.32580    0.54516    0.04300    1.000
    O2       O        0.14180    0.50339    0.88150    1.000
    O3       O        0.38640    0.49118    0.80940    1.000
    O4       O        0.46520    0.62308    0.29730    1.000
    O5       O        0.31380    0.68794    0.14710    1.000
    O6       O        0.39690    0.71573    0.40690    1.000
    Zn2      Zn       0.05949    0.95304    0.21892    1.000
    P3       P        0.21285    0.00285    0.93735    1.000
    H3       H        0.20700    0.04510    0.01900    1.000
    P4       P        0.07468    0.81556    0.26368    1.000
    H4       H        0.96400    0.79110    0.20700    1.000
    O7       O        0.17420    0.95484    0.04300    1.000
    O8       O        0.35820    0.99661    0.88150    1.000
    O9       O        0.11360    0.00882    0.80940    1.000
    O10      O        0.03480    0.87692    0.29730    1.000
    O11      O        0.18620    0.81206    0.14710    1.000
    O12      O        0.10310    0.78427    0.40690    1.000
    Zn3      Zn       0.55949    0.04696    0.28108    1.000
    P5       P        0.71285    0.99715    0.56265    1.000
    H5       H        0.70700    0.95490    0.48100    1.000
    P6       P        0.57468    0.18444    0.23632    1.000
    H6       H        0.46400    0.20890    0.29300    1.000
    O13      O        0.67420    0.04516    0.45700    1.000
    O14      O        0.85820    0.00339    0.61850    1.000
    O15      O        0.61360    0.99118    0.69060    1.000
    O16      O        0.53480    0.12308    0.20270    1.000
    O17      O        0.68620    0.18794    0.35290    1.000
    O18      O        0.60310    0.21573    0.09310    1.000
    Zn4      Zn       0.94051    0.45304    0.28108    1.000
    P7       P        0.78715    0.50285    0.56265    1.000
    H7       H        0.79300    0.54510    0.48100    1.000
    P8       P        0.92532    0.31556    0.23632    1.000
    H8       H        0.03600    0.29110    0.29300    1.000
    O19      O        0.82580    0.45484    0.45700    1.000
    O20      O        0.64180    0.49661    0.61850    1.000
    O21      O        0.88640    0.50882    0.69060    1.000
    O22      O        0.96520    0.37692    0.20270    1.000
    O23      O        0.81380    0.31206    0.35290    1.000
    O24      O        0.89690    0.28427    0.09310    1.000
    Zn5      Zn       0.55949    0.45304    0.78108    1.000
    P9       P        0.71285    0.50285    0.06265    1.000
    H9       H        0.70700    0.54510    0.98100    1.000
    P10      P        0.57468    0.31556    0.73632    1.000
    H10      H        0.46400    0.29110    0.79300    1.000
    O25      O        0.67420    0.45484    0.95700    1.000
    O26      O        0.85820    0.49661    0.11850    1.000
    O27      O        0.61360    0.50882    0.19060    1.000
    O28      O        0.53480    0.37692    0.70270    1.000
    O29      O        0.68620    0.31206    0.85290    1.000
    O30      O        0.60310    0.28427    0.59310    1.000
    Zn6      Zn       0.94051    0.04696    0.78108    1.000
    P11      P        0.78715    0.99715    0.06265    1.000
    H11      H        0.79300    0.95490    0.98100    1.000
    P12      P        0.92532    0.18444    0.73632    1.000
    H12      H        0.03600    0.20890    0.79300    1.000
    O31      O        0.82580    0.04516    0.95700    1.000
    O32      O        0.64180    0.00339    0.11850    1.000
    O33      O        0.88640    0.99118    0.19060    1.000
    O34      O        0.96520    0.12308    0.70270    1.000
    O35      O        0.81380    0.18794    0.85290    1.000
    O36      O        0.89690    0.21573    0.59310    1.000
    Zn7      Zn       0.44051    0.95304    0.71892    1.000
    P13      P        0.28715    0.00285    0.43735    1.000
    H13      H        0.29300    0.04510    0.51900    1.000
    P14      P        0.42532    0.81556    0.76368    1.000
    H14      H        0.53600    0.79110    0.70700    1.000
    O37      O        0.32580    0.95484    0.54300    1.000
    O38      O        0.14180    0.99661    0.38150    1.000
    O39      O        0.38640    0.00882    0.30940    1.000
    O40      O        0.46520    0.87692    0.79730    1.000
    O41      O        0.31380    0.81206    0.64710    1.000
    O42      O        0.39690    0.78427    0.90690    1.000
    Zn8      Zn       0.05949    0.54696    0.71892    1.000
    P15      P        0.21285    0.49715    0.43735    1.000
    H15      H        0.20700    0.45490    0.51900    1.000
    P16      P        0.07468    0.68444    0.76368    1.000
    H16      H        0.96400    0.70890    0.70700    1.000
    O43      O        0.17420    0.54516    0.54300    1.000
    O44      O        0.35820    0.50339    0.38150    1.000
    O45      O        0.11360    0.49118    0.30940    1.000
    O46      O        0.03480    0.62308    0.79730    1.000
    O47      O        0.18620    0.68794    0.64710    1.000
    O48      O        0.10310    0.71573    0.90690    1.000
    Zn9      Zn       0.25000    0.75000    0.01889    1.000
    Zn10     Zn       0.75000    0.25000    0.48111    1.000
    Zn11     Zn       0.75000    0.25000    0.98111    1.000
    Zn12     Zn       0.25000    0.75000    0.51889    1.000
