# CIF file generated by openbabel 3.1.0, see https://openbabel.org
data_I
_chemical_name_common 'image0'
_cell_length_a 34.1447
_cell_length_b 34.1447
_cell_length_c 8.3594
_cell_angle_alpha 90
_cell_angle_beta 90
_cell_angle_gamma 120
_space_group_name_H-M_alt 'P 1'
_space_group_name_Hall 'P 1'
loop_
    _symmetry_equiv_pos_as_xyz
    x,y,z
loop_
    _atom_site_label
    _atom_site_type_symbol
    _atom_site_fract_x
    _atom_site_fract_y
    _atom_site_fract_z
    _atom_site_occupancy
    Ag1      Ag       0.14711    0.32014    0.50711    1.000
    O1       O        0.33472    0.32830    0.77580    1.000
    N1       N        0.20603    0.33960    0.66120    1.000
    N2       N        0.27764    0.19651    0.60940    1.000
    C1       C        0.21966    0.37535    0.75960    1.000
    H1       H        0.20310    0.39100    0.76060    1.000
    C2       C        0.25698    0.39028    0.85960    1.000
    H2       H        0.26580    0.41570    0.92750    1.000
    C3       C        0.28109    0.36768    0.85890    1.000
    H3       H        0.30690    0.37750    0.92520    1.000
    C4       C        0.26696    0.33031    0.75980    1.000
    C5       C        0.22933    0.31740    0.66300    1.000
    H4       H        0.21970    0.29180    0.59540    1.000
    C6       C        0.29392    0.30693    0.75310    1.000
    C7       C        0.27079    0.25735    0.72120    1.000
    C8       C        0.22820    0.22737    0.78170    1.000
    H5       H        0.21140    0.23790    0.84020    1.000
    C9       C        0.21096    0.18141    0.75360    1.000
    H6       H        0.18200    0.15980    0.79350    1.000
    C10      C        0.23631    0.16772    0.66730    1.000
    H7       H        0.22400    0.13630    0.64770    1.000
    C11      C        0.29427    0.24057    0.63840    1.000
    H8       H        0.32370    0.26140    0.60010    1.000
    Ag2      Ag       0.81378    0.65347    0.84044    1.000
    O2       O        0.00139    0.66163    0.10913    1.000
    N3       N        0.87270    0.67293    0.99453    1.000
    N4       N        0.94431    0.52984    0.94273    1.000
    C12      C        0.88633    0.70868    0.09293    1.000
    H9       H        0.86977    0.72433    0.09393    1.000
    C13      C        0.92365    0.72361    0.19293    1.000
    H10      H        0.93247    0.74903    0.26083    1.000
    C14      C        0.94776    0.70101    0.19223    1.000
    H11      H        0.97357    0.71083    0.25853    1.000
    C15      C        0.93363    0.66364    0.09313    1.000
    C16      C        0.89600    0.65073    0.99633    1.000
    H12      H        0.88637    0.62513    0.92873    1.000
    C17      C        0.96059    0.64026    0.08643    1.000
    C18      C        0.93746    0.59068    0.05453    1.000
    C19      C        0.89487    0.56070    0.11503    1.000
    H13      H        0.87807    0.57123    0.17353    1.000
    C20      C        0.87763    0.51474    0.08693    1.000
    H14      H        0.84867    0.49313    0.12683    1.000
    C21      C        0.90298    0.50105    0.00063    1.000
    H15      H        0.89067    0.46963    0.98103    1.000
    C22      C        0.96094    0.57390    0.97173    1.000
    H16      H        0.99037    0.59473    0.93343    1.000
    Ag3      Ag       0.48045    0.98680    0.17378    1.000
    O3       O        0.66805    0.99497    0.44247    1.000
    N5       N        0.53936    0.00627    0.32787    1.000
    N6       N        0.61097    0.86318    0.27607    1.000
    C23      C        0.55299    0.04202    0.42627    1.000
    H17      H        0.53643    0.05767    0.42727    1.000
    C24      C        0.59031    0.05695    0.52627    1.000
    H18      H        0.59913    0.08237    0.59417    1.000
    C25      C        0.61442    0.03435    0.52557    1.000
    H19      H        0.64023    0.04417    0.59187    1.000
    C26      C        0.60029    0.99698    0.42647    1.000
    C27      C        0.56266    0.98407    0.32967    1.000
    H20      H        0.55303    0.95847    0.26207    1.000
    C28      C        0.62725    0.97360    0.41977    1.000
    C29      C        0.60412    0.92402    0.38787    1.000
    C30      C        0.56153    0.89404    0.44837    1.000
    H21      H        0.54473    0.90457    0.50687    1.000
    C31      C        0.54429    0.84808    0.42027    1.000
    H22      H        0.51533    0.82647    0.46017    1.000
    C32      C        0.56964    0.83439    0.33397    1.000
    H23      H        0.55733    0.80297    0.31437    1.000
    C33      C        0.62760    0.90724    0.30507    1.000
    H24      H        0.65703    0.92807    0.26677    1.000
    Ag4      Ag       0.67986    0.82698    0.50711    1.000
    O4       O        0.67170    0.00642    0.77580    1.000
    N7       N        0.66040    0.86643    0.66120    1.000
    N8       N        0.80349    0.08113    0.60940    1.000
    C34      C        0.62465    0.84431    0.75960    1.000
    H25      H        0.60900    0.81210    0.76060    1.000
    C35      C        0.60972    0.86670    0.85960    1.000
    H26      H        0.58430    0.85010    0.92750    1.000
    C36      C        0.63232    0.91341    0.85890    1.000
    H27      H        0.62250    0.92940    0.92520    1.000
    C37      C        0.66969    0.93665    0.75980    1.000
    C38      C        0.68260    0.91193    0.66300    1.000
    H28      H        0.70820    0.92790    0.59540    1.000
    C39      C        0.69307    0.98699    0.75310    1.000
    C40      C        0.74265    0.01344    0.72120    1.000
    C41      C        0.77263    0.00083    0.78170    1.000
    H29      H        0.76210    0.97350    0.84020    1.000
    C42      C        0.81859    0.02955    0.75360    1.000
    H30      H        0.84020    0.02220    0.79350    1.000
    C43      C        0.83228    0.06859    0.66730    1.000
    H31      H        0.86370    0.08770    0.64770    1.000
    C44      C        0.75943    0.05370    0.63840    1.000
    H32      H        0.73860    0.06230    0.60010    1.000
    Ag5      Ag       0.34653    0.16031    0.84044    1.000
    O5       O        0.33837    0.33975    0.10913    1.000
    N9       N        0.32707    0.19976    0.99453    1.000
    N10      N        0.47016    0.41446    0.94273    1.000
    C45      C        0.29132    0.17764    0.09293    1.000
    H33      H        0.27567    0.14543    0.09393    1.000
    C46      C        0.27639    0.20003    0.19293    1.000
    H34      H        0.25097    0.18343    0.26083    1.000
    C47      C        0.29899    0.24674    0.19223    1.000
    H35      H        0.28917    0.26273    0.25853    1.000
    C48      C        0.33636    0.26998    0.09313    1.000
    C49      C        0.34927    0.24526    0.99633    1.000
    H36      H        0.37487    0.26123    0.92873    1.000
    C50      C        0.35974    0.32032    0.08643    1.000
    C51      C        0.40932    0.34677    0.05453    1.000
    C52      C        0.43930    0.33416    0.11503    1.000
    H37      H        0.42877    0.30683    0.17353    1.000
    C53      C        0.48526    0.36288    0.08693    1.000
    H38      H        0.50687    0.35553    0.12683    1.000
    C54      C        0.49895    0.40192    0.00063    1.000
    H39      H        0.53037    0.42103    0.98103    1.000
    C55      C        0.42610    0.38703    0.97173    1.000
    H40      H        0.40527    0.39563    0.93343    1.000
    Ag6      Ag       0.01320    0.49364    0.17378    1.000
    O6       O        0.00503    0.67309    0.44247    1.000
    N11      N        0.99373    0.53310    0.32787    1.000
    N12      N        0.13682    0.74780    0.27607    1.000
    C56      C        0.95798    0.51098    0.42627    1.000
    H41      H        0.94233    0.47877    0.42727    1.000
    C57      C        0.94305    0.53337    0.52627    1.000
    H42      H        0.91763    0.51677    0.59417    1.000
    C58      C        0.96565    0.58008    0.52557    1.000
    H43      H        0.95583    0.59607    0.59187    1.000
    C59      C        0.00302    0.60332    0.42647    1.000
    C60      C        0.01593    0.57860    0.32967    1.000
    H44      H        0.04153    0.59457    0.26207    1.000
    C61      C        0.02640    0.65366    0.41977    1.000
    C62      C        0.07598    0.68011    0.38787    1.000
    C63      C        0.10596    0.66750    0.44837    1.000
    H45      H        0.09543    0.64017    0.50687    1.000
    C64      C        0.15192    0.69622    0.42027    1.000
    H46      H        0.17353    0.68887    0.46017    1.000
    C65      C        0.16561    0.73526    0.33397    1.000
    H47      H        0.19703    0.75437    0.31437    1.000
    C66      C        0.09276    0.72037    0.30507    1.000
    H48      H        0.07193    0.72897    0.26677    1.000
    Ag7      Ag       0.17302    0.85289    0.50711    1.000
    O7       O        0.99358    0.66528    0.77580    1.000
    N13      N        0.13357    0.79397    0.66120    1.000
    N14      N        0.91887    0.72236    0.60940    1.000
    C67      C        0.15569    0.78034    0.75960    1.000
    H49      H        0.18790    0.79690    0.76060    1.000
    C68      C        0.13330    0.74302    0.85960    1.000
    H50      H        0.14990    0.73420    0.92750    1.000
    C69      C        0.08659    0.71891    0.85890    1.000
    H51      H        0.07060    0.69310    0.92520    1.000
    C70      C        0.06335    0.73304    0.75980    1.000
    C71      C        0.08807    0.77067    0.66300    1.000
    H52      H        0.07210    0.78030    0.59540    1.000
    C72      C        0.01301    0.70608    0.75310    1.000
    C73      C        0.98656    0.72921    0.72120    1.000
    C74      C        0.99917    0.77180    0.78170    1.000
    H53      H        0.02650    0.78860    0.84020    1.000
    C75      C        0.97045    0.78904    0.75360    1.000
    H54      H        0.97780    0.81800    0.79350    1.000
    C76      C        0.93141    0.76369    0.66730    1.000
    H55      H        0.91230    0.77600    0.64770    1.000
    C77      C        0.94630    0.70573    0.63840    1.000
    H56      H        0.93770    0.67630    0.60010    1.000
    Ag8      Ag       0.83969    0.18622    0.84044    1.000
    O8       O        0.66025    0.99861    0.10913    1.000
    N15      N        0.80024    0.12730    0.99453    1.000
    N16      N        0.58554    0.05569    0.94273    1.000
    C78      C        0.82236    0.11367    0.09293    1.000
    H57      H        0.85457    0.13023    0.09393    1.000
    C79      C        0.79997    0.07635    0.19293    1.000
    H58      H        0.81657    0.06753    0.26083    1.000
    C80      C        0.75326    0.05224    0.19223    1.000
    H59      H        0.73727    0.02643    0.25853    1.000
    C81      C        0.73002    0.06637    0.09313    1.000
    C82      C        0.75474    0.10400    0.99633    1.000
    H60      H        0.73877    0.11363    0.92873    1.000
    C83      C        0.67968    0.03941    0.08643    1.000
    C84      C        0.65323    0.06254    0.05453    1.000
    C85      C        0.66584    0.10513    0.11503    1.000
    H61      H        0.69317    0.12193    0.17353    1.000
    C86      C        0.63712    0.12237    0.08693    1.000
    H62      H        0.64447    0.15133    0.12683    1.000
    C87      C        0.59808    0.09702    0.00063    1.000
    H63      H        0.57897    0.10933    0.98103    1.000
    C88      C        0.61297    0.03906    0.97173    1.000
    H64      H        0.60437    0.00963    0.93343    1.000
    Ag9      Ag       0.50636    0.51955    0.17378    1.000
    O9       O        0.32691    0.33195    0.44247    1.000
    N17      N        0.46690    0.46064    0.32787    1.000
    N18      N        0.25220    0.38903    0.27607    1.000
    C89      C        0.48902    0.44701    0.42627    1.000
    H65      H        0.52123    0.46357    0.42727    1.000
    C90      C        0.46663    0.40969    0.52627    1.000
    H66      H        0.48323    0.40087    0.59417    1.000
    C91      C        0.41992    0.38558    0.52557    1.000
    H67      H        0.40393    0.35977    0.59187    1.000
    C92      C        0.39668    0.39971    0.42647    1.000
    C93      C        0.42140    0.43734    0.32967    1.000
    H68      H        0.40543    0.44697    0.26207    1.000
    C94      C        0.34634    0.37275    0.41977    1.000
    C95      C        0.31989    0.39588    0.38787    1.000
    C96      C        0.33250    0.43847    0.44837    1.000
    H69      H        0.35983    0.45527    0.50687    1.000
    C97      C        0.30378    0.45571    0.42027    1.000
    H70      H        0.31113    0.48467    0.46017    1.000
    C98      C        0.26474    0.43036    0.33397    1.000
    H71      H        0.24563    0.44267    0.31437    1.000
    C99      C        0.27963    0.37240    0.30507    1.000
    H72      H        0.27103    0.34297    0.26677    1.000
    Ag10     Ag       0.85289    0.67986    0.49289    1.000
    O10      O        0.66528    0.67170    0.22420    1.000
    N19      N        0.79397    0.66040    0.33880    1.000
    N20      N        0.72236    0.80349    0.39060    1.000
    C100     C        0.78034    0.62465    0.24040    1.000
    H73      H        0.79690    0.60900    0.23940    1.000
    C101     C        0.74302    0.60972    0.14040    1.000
    H74      H        0.73420    0.58430    0.07250    1.000
    C102     C        0.71891    0.63232    0.14110    1.000
    H75      H        0.69310    0.62250    0.07480    1.000
    C103     C        0.73304    0.66969    0.24020    1.000
    C104     C        0.77067    0.68260    0.33700    1.000
    H76      H        0.78030    0.70820    0.40460    1.000
    C105     C        0.70608    0.69307    0.24690    1.000
    C106     C        0.72921    0.74265    0.27880    1.000
    C107     C        0.77180    0.77263    0.21830    1.000
    H77      H        0.78860    0.76210    0.15980    1.000
    C108     C        0.78904    0.81859    0.24640    1.000
    H78      H        0.81800    0.84020    0.20650    1.000
    C109     C        0.76369    0.83228    0.33270    1.000
    H79      H        0.77600    0.86370    0.35230    1.000
    C110     C        0.70573    0.75943    0.36160    1.000
    H80      H        0.67630    0.73860    0.39990    1.000
    Ag11     Ag       0.51955    0.01320    0.82622    1.000
    O11      O        0.33195    0.00503    0.55753    1.000
    N21      N        0.46064    0.99373    0.67213    1.000
    N22      N        0.38903    0.13682    0.72393    1.000
    C111     C        0.44701    0.95798    0.57373    1.000
    H81      H        0.46357    0.94233    0.57273    1.000
    C112     C        0.40969    0.94305    0.47373    1.000
    H82      H        0.40087    0.91763    0.40583    1.000
    C113     C        0.38558    0.96565    0.47443    1.000
    H83      H        0.35977    0.95583    0.40813    1.000
    C114     C        0.39971    0.00302    0.57353    1.000
    C115     C        0.43734    0.01593    0.67033    1.000
    H84      H        0.44697    0.04153    0.73793    1.000
    C116     C        0.37275    0.02640    0.58023    1.000
    C117     C        0.39588    0.07598    0.61213    1.000
    C118     C        0.43847    0.10596    0.55163    1.000
    H85      H        0.45527    0.09543    0.49313    1.000
    C119     C        0.45571    0.15192    0.57973    1.000
    H86      H        0.48467    0.17353    0.53983    1.000
    C120     C        0.43036    0.16561    0.66603    1.000
    H87      H        0.44267    0.19703    0.68563    1.000
    C121     C        0.37240    0.09276    0.69493    1.000
    H88      H        0.34297    0.07193    0.73323    1.000
    Ag12     Ag       0.18622    0.34653    0.15956    1.000
    O12      O        0.99861    0.33837    0.89087    1.000
    N23      N        0.12730    0.32707    0.00547    1.000
    N24      N        0.05569    0.47016    0.05727    1.000
    C122     C        0.11367    0.29132    0.90707    1.000
    H89      H        0.13023    0.27567    0.90607    1.000
    C123     C        0.07635    0.27639    0.80707    1.000
    H90      H        0.06753    0.25097    0.73917    1.000
    C124     C        0.05224    0.29899    0.80777    1.000
    H91      H        0.02643    0.28917    0.74147    1.000
    C125     C        0.06637    0.33636    0.90687    1.000
    C126     C        0.10400    0.34927    0.00367    1.000
    H92      H        0.11363    0.37487    0.07127    1.000
    C127     C        0.03941    0.35974    0.91357    1.000
    C128     C        0.06254    0.40932    0.94547    1.000
    C129     C        0.10513    0.43930    0.88497    1.000
    H93      H        0.12193    0.42877    0.82647    1.000
    C130     C        0.12237    0.48526    0.91307    1.000
    H94      H        0.15133    0.50687    0.87317    1.000
    C131     C        0.09702    0.49895    0.99937    1.000
    H95      H        0.10933    0.53037    0.01897    1.000
    C132     C        0.03906    0.42610    0.02827    1.000
    H96      H        0.00963    0.40527    0.06657    1.000
    Ag13     Ag       0.32014    0.17302    0.49289    1.000
    O13      O        0.32830    0.99358    0.22420    1.000
    N25      N        0.33960    0.13357    0.33880    1.000
    N26      N        0.19651    0.91887    0.39060    1.000
    C133     C        0.37535    0.15569    0.24040    1.000
    H97      H        0.39100    0.18790    0.23940    1.000
    C134     C        0.39028    0.13330    0.14040    1.000
    H98      H        0.41570    0.14990    0.07250    1.000
    C135     C        0.36768    0.08659    0.14110    1.000
    H99      H        0.37750    0.07060    0.07480    1.000
    C136     C        0.33031    0.06335    0.24020    1.000
    C137     C        0.31740    0.08807    0.33700    1.000
    H100     H        0.29180    0.07210    0.40460    1.000
    C138     C        0.30693    0.01301    0.24690    1.000
    C139     C        0.25735    0.98656    0.27880    1.000
    C140     C        0.22737    0.99917    0.21830    1.000
    H101     H        0.23790    0.02650    0.15980    1.000
    C141     C        0.18141    0.97045    0.24640    1.000
    H102     H        0.15980    0.97780    0.20650    1.000
    C142     C        0.16772    0.93141    0.33270    1.000
    H103     H        0.13630    0.91230    0.35230    1.000
    C143     C        0.24057    0.94630    0.36160    1.000
    H104     H        0.26140    0.93770    0.39990    1.000
    Ag14     Ag       0.98680    0.50636    0.82622    1.000
    O14      O        0.99497    0.32691    0.55753    1.000
    N27      N        0.00627    0.46690    0.67213    1.000
    N28      N        0.86318    0.25220    0.72393    1.000
    C144     C        0.04202    0.48902    0.57373    1.000
    H105     H        0.05767    0.52123    0.57273    1.000
    C145     C        0.05695    0.46663    0.47373    1.000
    H106     H        0.08237    0.48323    0.40583    1.000
    C146     C        0.03435    0.41992    0.47443    1.000
    H107     H        0.04417    0.40393    0.40813    1.000
    C147     C        0.99698    0.39668    0.57353    1.000
    C148     C        0.98407    0.42140    0.67033    1.000
    H108     H        0.95847    0.40543    0.73793    1.000
    C149     C        0.97360    0.34634    0.58023    1.000
    C150     C        0.92402    0.31989    0.61213    1.000
    C151     C        0.89404    0.33250    0.55163    1.000
    H109     H        0.90457    0.35983    0.49313    1.000
    C152     C        0.84808    0.30378    0.57973    1.000
    H110     H        0.82647    0.31113    0.53983    1.000
    C153     C        0.83439    0.26474    0.66603    1.000
    H111     H        0.80297    0.24563    0.68563    1.000
    C154     C        0.90724    0.27963    0.69493    1.000
    H112     H        0.92807    0.27103    0.73323    1.000
    Ag15     Ag       0.65347    0.83969    0.15956    1.000
    O15      O        0.66163    0.66025    0.89087    1.000
    N29      N        0.67293    0.80024    0.00547    1.000
    N30      N        0.52984    0.58554    0.05727    1.000
    C155     C        0.70868    0.82236    0.90707    1.000
    H113     H        0.72433    0.85457    0.90607    1.000
    C156     C        0.72361    0.79997    0.80707    1.000
    H114     H        0.74903    0.81657    0.73917    1.000
    C157     C        0.70101    0.75326    0.80777    1.000
    H115     H        0.71083    0.73727    0.74147    1.000
    C158     C        0.66364    0.73002    0.90687    1.000
    C159     C        0.65073    0.75474    0.00367    1.000
    H116     H        0.62513    0.73877    0.07127    1.000
    C160     C        0.64026    0.67968    0.91357    1.000
    C161     C        0.59068    0.65323    0.94547    1.000
    C162     C        0.56070    0.66584    0.88497    1.000
    H117     H        0.57123    0.69317    0.82647    1.000
    C163     C        0.51474    0.63712    0.91307    1.000
    H118     H        0.49313    0.64447    0.87317    1.000
    C164     C        0.50105    0.59808    0.99937    1.000
    H119     H        0.46963    0.57897    0.01897    1.000
    C165     C        0.57390    0.61297    0.02827    1.000
    H120     H        0.59473    0.60437    0.06657    1.000
    Ag16     Ag       0.82698    0.14711    0.49289    1.000
    O16      O        0.00642    0.33472    0.22420    1.000
    N31      N        0.86643    0.20603    0.33880    1.000
    N32      N        0.08113    0.27764    0.39060    1.000
    C166     C        0.84431    0.21966    0.24040    1.000
    H121     H        0.81210    0.20310    0.23940    1.000
    C167     C        0.86670    0.25698    0.14040    1.000
    H122     H        0.85010    0.26580    0.07250    1.000
    C168     C        0.91341    0.28109    0.14110    1.000
    H123     H        0.92940    0.30690    0.07480    1.000
    C169     C        0.93665    0.26696    0.24020    1.000
    C170     C        0.91193    0.22933    0.33700    1.000
    H124     H        0.92790    0.21970    0.40460    1.000
    C171     C        0.98699    0.29392    0.24690    1.000
    C172     C        0.01344    0.27079    0.27880    1.000
    C173     C        0.00083    0.22820    0.21830    1.000
    H125     H        0.97350    0.21140    0.15980    1.000
    C174     C        0.02955    0.21096    0.24640    1.000
    H126     H        0.02220    0.18200    0.20650    1.000
    C175     C        0.06859    0.23631    0.33270    1.000
    H127     H        0.08770    0.22400    0.35230    1.000
    C176     C        0.05370    0.29427    0.36160    1.000
    H128     H        0.06230    0.32370    0.39990    1.000
    Ag17     Ag       0.49364    0.48045    0.82622    1.000
    O17      O        0.67309    0.66805    0.55753    1.000
    N33      N        0.53310    0.53936    0.67213    1.000
    N34      N        0.74780    0.61097    0.72393    1.000
    C177     C        0.51098    0.55299    0.57373    1.000
    H129     H        0.47877    0.53643    0.57273    1.000
    C178     C        0.53337    0.59031    0.47373    1.000
    H130     H        0.51677    0.59913    0.40583    1.000
    C179     C        0.58008    0.61442    0.47443    1.000
    H131     H        0.59607    0.64023    0.40813    1.000
    C180     C        0.60332    0.60029    0.57353    1.000
    C181     C        0.57860    0.56266    0.67033    1.000
    H132     H        0.59457    0.55303    0.73793    1.000
    C182     C        0.65366    0.62725    0.58023    1.000
    C183     C        0.68011    0.60412    0.61213    1.000
    C184     C        0.66750    0.56153    0.55163    1.000
    H133     H        0.64017    0.54473    0.49313    1.000
    C185     C        0.69622    0.54429    0.57973    1.000
    H134     H        0.68887    0.51533    0.53983    1.000
    C186     C        0.73526    0.56964    0.66603    1.000
    H135     H        0.75437    0.55733    0.68563    1.000
    C187     C        0.72037    0.62760    0.69493    1.000
    H136     H        0.72897    0.65703    0.73323    1.000
    Ag18     Ag       0.16031    0.81378    0.15956    1.000
    O18      O        0.33975    0.00139    0.89087    1.000
    N35      N        0.19976    0.87270    0.00547    1.000
    N36      N        0.41446    0.94431    0.05727    1.000
    C188     C        0.17764    0.88633    0.90707    1.000
    H137     H        0.14543    0.86977    0.90607    1.000
    C189     C        0.20003    0.92365    0.80707    1.000
    H138     H        0.18343    0.93247    0.73917    1.000
    C190     C        0.24674    0.94776    0.80777    1.000
    H139     H        0.26273    0.97357    0.74147    1.000
    C191     C        0.26998    0.93363    0.90687    1.000
    C192     C        0.24526    0.89600    0.00367    1.000
    H140     H        0.26123    0.88637    0.07127    1.000
    C193     C        0.32032    0.96059    0.91357    1.000
    C194     C        0.34677    0.93746    0.94547    1.000
    C195     C        0.33416    0.89487    0.88497    1.000
    H141     H        0.30683    0.87807    0.82647    1.000
    C196     C        0.36288    0.87763    0.91307    1.000
    H142     H        0.35553    0.84867    0.87317    1.000
    C197     C        0.40192    0.90298    0.99937    1.000
    H143     H        0.42103    0.89067    0.01897    1.000
    C198     C        0.38703    0.96094    0.02827    1.000
    H144     H        0.39563    0.99037    0.06657    1.000
