# CIF file generated by openbabel 3.1.0, see https://openbabel.org
data_I
_chemical_name_common 'image0'
_cell_length_a 13.6728
_cell_length_b 45.5987
_cell_length_c 28.4576
_cell_angle_alpha 90
_cell_angle_beta 90
_cell_angle_gamma 90
_space_group_name_H-M_alt 'P 1'
_space_group_name_Hall 'P 1'
loop_
    _symmetry_equiv_pos_as_xyz
    x,y,z
loop_
    _atom_site_label
    _atom_site_type_symbol
    _atom_site_fract_x
    _atom_site_fract_y
    _atom_site_fract_z
    _atom_site_occupancy
    Zn1      Zn       0.33055    0.56823    0.56324    1.000
    Zn2      Zn       0.63817    0.81006    0.75686    1.000
    Zn3      Zn       0.34718    0.58737    0.02618    1.000
    I1       I        0.40234    0.59660    0.49538    1.000
    I2       I        0.15060    0.55533    0.57667    1.000
    I3       I        0.80099    0.80327    0.79881    1.000
    I4       I        0.63409    0.82470    0.67096    1.000
    I5       I        0.27007    0.53743    0.01020    1.000
    I6       I        0.26145    0.62796    0.07173    1.000
    C1       C        0.41530    0.64139    0.74860    1.000
    C2       C        0.45280    0.68484    0.78240    1.000
    C3       C        0.41700    0.64556    0.82730    1.000
    C4       C        0.40150    0.62402    0.70460    1.000
    C5       C        0.37480    0.59473    0.70680    1.000
    H1       H        0.36710    0.58530    0.73630    1.000
    C6       C        0.35980    0.57968    0.66600    1.000
    H2       H        0.34200    0.55960    0.66800    1.000
    C7       C        0.39630    0.61983    0.62130    1.000
    H3       H        0.40440    0.62850    0.59110    1.000
    C8       C        0.41340    0.63670    0.66050    1.000
    H4       H        0.43300    0.65660    0.65760    1.000
    C9       C        0.48680    0.71569    0.77710    1.000
    C10      C        0.48190    0.72957    0.73450    1.000
    H5       H        0.45210    0.72010    0.70840    1.000
    C11      C        0.52080    0.75767    0.72980    1.000
    H6       H        0.51660    0.76740    0.70030    1.000
    C12      C        0.56660    0.75807    0.80750    1.000
    H7       H        0.59540    0.76800    0.83340    1.000
    C13      C        0.52840    0.72999    0.81440    1.000
    H8       H        0.53120    0.72100    0.84450    1.000
    C14      C        0.40690    0.63164    0.87410    1.000
    C15      C        0.40730    0.64856    0.91500    1.000
    H9       H        0.41550    0.66920    0.91350    1.000
    C16      C        0.39570    0.63470    0.95750    1.000
    H10      H        0.39710    0.64630    0.98520    1.000
    C17      C        0.38270    0.58963    0.92230    1.000
    H11      H        0.37350    0.56900    0.92470    1.000
    C18      C        0.39580    0.60202    0.87840    1.000
    H12      H        0.39710    0.58990    0.85120    1.000
    C19      C        0.58260    0.45546    0.60750    1.000
    C20      C        0.59140    0.41001    0.63830    1.000
    C21      C        0.72540    0.43054    0.60660    1.000
    C22      C        0.52410    0.48167    0.59460    1.000
    C23      C        0.56050    0.50352    0.56650    1.000
    H13      H        0.62530    0.50240    0.55450    1.000
    C24      C        0.50090    0.52739    0.55570    1.000
    H14      H        0.52540    0.54220    0.53540    1.000
    C25      C        0.37440    0.50879    0.59850    1.000
    H15      H        0.30830    0.51000    0.60860    1.000
    C26      C        0.42930    0.48431    0.61130    1.000
    H16      H        0.40210    0.46970    0.63120    1.000
    C27      C        0.54070    0.38509    0.66040    1.000
    C28      C        0.43950    0.38444    0.66190    1.000
    H17      H        0.40290    0.40000    0.64830    1.000
    C29      C        0.39170    0.36131    0.68300    1.000
    H18      H        0.32220    0.36070    0.68250    1.000
    C30      C        0.53780    0.33996    0.70280    1.000
    H19      H        0.57230    0.32430    0.71710    1.000
    C31      C        0.59110    0.36240    0.68090    1.000
    H20      H        0.66050    0.36190    0.68030    1.000
    C32      C        0.82860    0.42781    0.59070    1.000
    C33      C        0.88340    0.40297    0.60110    1.000
    H21      H        0.85640    0.38810    0.62060    1.000
    C34      C        0.97550    0.39973    0.58360    1.000
    H22      H        0.01120    0.38250    0.59120    1.000
    C35      C        0.96580    0.44387    0.54670    1.000
    H23      H        0.99500    0.45860    0.52770    1.000
    C36      C        0.87320    0.44859    0.56280    1.000
    H24      H        0.83950    0.46610    0.55480    1.000
    N1       N        0.43820    0.67009    0.74220    1.000
    N2       N        0.44120    0.67415    0.82540    1.000
    N3       N        0.40440    0.62833    0.78930    1.000
    N4       N        0.36870    0.59164    0.62390    1.000
    N5       N        0.56420    0.77137    0.76610    1.000
    N6       N        0.38260    0.60608    0.96200    1.000
    N7       N        0.53670    0.43382    0.62790    1.000
    N8       N        0.68720    0.40754    0.62860    1.000
    N9       N        0.67920    0.45551    0.59570    1.000
    N10      N        0.41010    0.53017    0.57300    1.000
    N11      N        0.44040    0.33993    0.70410    1.000
    N12      N        0.01780    0.42002    0.55580    1.000
    Zn4      Zn       0.16945    0.43177    0.06324    1.000
    Zn5      Zn       0.86183    0.18994    0.25686    1.000
    Zn6      Zn       0.15282    0.41263    0.52618    1.000
    I7       I        0.09766    0.40340    0.99538    1.000
    I8       I        0.34940    0.44467    0.07667    1.000
    I9       I        0.69901    0.19673    0.29881    1.000
    I10      I        0.86591    0.17530    0.17096    1.000
    I11      I        0.22993    0.46257    0.51020    1.000
    I12      I        0.23855    0.37204    0.57173    1.000
    C37      C        0.08470    0.35861    0.24860    1.000
    C38      C        0.04720    0.31516    0.28240    1.000
    C39      C        0.08300    0.35444    0.32730    1.000
    C40      C        0.09850    0.37598    0.20460    1.000
    C41      C        0.12520    0.40527    0.20680    1.000
    H25      H        0.13290    0.41470    0.23630    1.000
    C42      C        0.14020    0.42032    0.16600    1.000
    H26      H        0.15800    0.44040    0.16800    1.000
    C43      C        0.10370    0.38017    0.12130    1.000
    H27      H        0.09560    0.37150    0.09110    1.000
    C44      C        0.08660    0.36330    0.16050    1.000
    H28      H        0.06700    0.34340    0.15760    1.000
    C45      C        0.01320    0.28431    0.27710    1.000
    C46      C        0.01810    0.27043    0.23450    1.000
    H29      H        0.04790    0.27990    0.20840    1.000
    C47      C        0.97920    0.24233    0.22980    1.000
    H30      H        0.98340    0.23260    0.20030    1.000
    C48      C        0.93340    0.24193    0.30750    1.000
    H31      H        0.90460    0.23200    0.33340    1.000
    C49      C        0.97160    0.27001    0.31440    1.000
    H32      H        0.96880    0.27900    0.34450    1.000
    C50      C        0.09310    0.36836    0.37410    1.000
    C51      C        0.09270    0.35144    0.41500    1.000
    H33      H        0.08450    0.33080    0.41350    1.000
    C52      C        0.10430    0.36530    0.45750    1.000
    H34      H        0.10290    0.35370    0.48520    1.000
    C53      C        0.11730    0.41037    0.42230    1.000
    H35      H        0.12650    0.43100    0.42470    1.000
    C54      C        0.10420    0.39798    0.37840    1.000
    H36      H        0.10290    0.41010    0.35120    1.000
    C55      C        0.91740    0.54454    0.10750    1.000
    C56      C        0.90860    0.58999    0.13830    1.000
    C57      C        0.77460    0.56946    0.10660    1.000
    C58      C        0.97590    0.51833    0.09460    1.000
    C59      C        0.93950    0.49648    0.06650    1.000
    H37      H        0.87470    0.49760    0.05450    1.000
    C60      C        0.99910    0.47261    0.05570    1.000
    H38      H        0.97460    0.45780    0.03540    1.000
    C61      C        0.12560    0.49121    0.09850    1.000
    H39      H        0.19170    0.49000    0.10860    1.000
    C62      C        0.07070    0.51569    0.11130    1.000
    H40      H        0.09790    0.53030    0.13120    1.000
    C63      C        0.95930    0.61491    0.16040    1.000
    C64      C        0.06050    0.61556    0.16190    1.000
    H41      H        0.09710    0.60000    0.14830    1.000
    C65      C        0.10830    0.63869    0.18300    1.000
    H42      H        0.17780    0.63930    0.18250    1.000
    C66      C        0.96220    0.66004    0.20280    1.000
    H43      H        0.92770    0.67570    0.21710    1.000
    C67      C        0.90890    0.63760    0.18090    1.000
    H44      H        0.83950    0.63810    0.18030    1.000
    C68      C        0.67140    0.57219    0.09070    1.000
    C69      C        0.61660    0.59703    0.10110    1.000
    H45      H        0.64360    0.61190    0.12060    1.000
    C70      C        0.52450    0.60027    0.08360    1.000
    H46      H        0.48880    0.61750    0.09120    1.000
    C71      C        0.53420    0.55613    0.04670    1.000
    H47      H        0.50500    0.54140    0.02770    1.000
    C72      C        0.62680    0.55141    0.06280    1.000
    H48      H        0.66050    0.53390    0.05480    1.000
    N13      N        0.06180    0.32991    0.24220    1.000
    N14      N        0.05880    0.32585    0.32540    1.000
    N15      N        0.09560    0.37167    0.28930    1.000
    N16      N        0.13130    0.40836    0.12390    1.000
    N17      N        0.93580    0.22863    0.26610    1.000
    N18      N        0.11740    0.39392    0.46200    1.000
    N19      N        0.96330    0.56618    0.12790    1.000
    N20      N        0.81280    0.59246    0.12860    1.000
    N21      N        0.82080    0.54449    0.09570    1.000
    N22      N        0.08990    0.46983    0.07300    1.000
    N23      N        0.05960    0.66007    0.20410    1.000
    N24      N        0.48220    0.57998    0.05580    1.000
    Zn7      Zn       0.66945    0.06823    0.93676    1.000
    Zn8      Zn       0.36183    0.31006    0.74314    1.000
    Zn9      Zn       0.65282    0.08737    0.47382    1.000
    I13      I        0.59766    0.09660    0.00462    1.000
    I14      I        0.84940    0.05533    0.92333    1.000
    I15      I        0.19901    0.30327    0.70119    1.000
    I16      I        0.36591    0.32470    0.82904    1.000
    I17      I        0.72993    0.03743    0.48980    1.000
    I18      I        0.73855    0.12796    0.42827    1.000
    C73      C        0.58470    0.14139    0.75140    1.000
    C74      C        0.54720    0.18484    0.71760    1.000
    C75      C        0.58300    0.14556    0.67270    1.000
    C76      C        0.59850    0.12402    0.79540    1.000
    C77      C        0.62520    0.09473    0.79320    1.000
    H49      H        0.63290    0.08530    0.76370    1.000
    C78      C        0.64020    0.07968    0.83400    1.000
    H50      H        0.65800    0.05960    0.83200    1.000
    C79      C        0.60370    0.11983    0.87870    1.000
    H51      H        0.59560    0.12850    0.90890    1.000
    C80      C        0.58660    0.13670    0.83950    1.000
    H52      H        0.56700    0.15660    0.84240    1.000
    C81      C        0.51320    0.21569    0.72290    1.000
    C82      C        0.51810    0.22957    0.76550    1.000
    H53      H        0.54790    0.22010    0.79160    1.000
    C83      C        0.47920    0.25767    0.77020    1.000
    H54      H        0.48340    0.26740    0.79970    1.000
    C84      C        0.43340    0.25807    0.69250    1.000
    H55      H        0.40460    0.26800    0.66660    1.000
    C85      C        0.47160    0.22999    0.68560    1.000
    H56      H        0.46880    0.22100    0.65550    1.000
    C86      C        0.59310    0.13164    0.62590    1.000
    C87      C        0.59270    0.14856    0.58500    1.000
    H57      H        0.58450    0.16920    0.58650    1.000
    C88      C        0.60430    0.13470    0.54250    1.000
    H58      H        0.60290    0.14630    0.51480    1.000
    C89      C        0.61730    0.08963    0.57770    1.000
    H59      H        0.62650    0.06900    0.57530    1.000
    C90      C        0.60420    0.10202    0.62160    1.000
    H60      H        0.60290    0.08990    0.64880    1.000
    C91      C        0.41740    0.95546    0.89250    1.000
    C92      C        0.40860    0.91001    0.86170    1.000
    C93      C        0.27460    0.93054    0.89340    1.000
    C94      C        0.47590    0.98167    0.90540    1.000
    C95      C        0.43950    0.00352    0.93350    1.000
    H61      H        0.37470    0.00240    0.94550    1.000
    C96      C        0.49910    0.02739    0.94430    1.000
    H62      H        0.47460    0.04220    0.96460    1.000
    C97      C        0.62560    0.00879    0.90150    1.000
    H63      H        0.69170    0.01000    0.89140    1.000
    C98      C        0.57070    0.98431    0.88870    1.000
    H64      H        0.59790    0.96970    0.86880    1.000
    C99      C        0.45930    0.88509    0.83960    1.000
    C100     C        0.56050    0.88444    0.83810    1.000
    H65      H        0.59710    0.90000    0.85170    1.000
    C101     C        0.60830    0.86131    0.81700    1.000
    H66      H        0.67780    0.86070    0.81750    1.000
    C102     C        0.46220    0.83996    0.79720    1.000
    H67      H        0.42770    0.82430    0.78290    1.000
    C103     C        0.40890    0.86240    0.81910    1.000
    H68      H        0.33950    0.86190    0.81970    1.000
    C104     C        0.17140    0.92781    0.90930    1.000
    C105     C        0.11660    0.90297    0.89890    1.000
    H69      H        0.14360    0.88810    0.87940    1.000
    C106     C        0.02450    0.89973    0.91640    1.000
    H70      H        0.98880    0.88250    0.90880    1.000
    C107     C        0.03420    0.94387    0.95330    1.000
    H71      H        0.00500    0.95860    0.97230    1.000
    C108     C        0.12680    0.94859    0.93720    1.000
    H72      H        0.16050    0.96610    0.94520    1.000
    N25      N        0.56180    0.17009    0.75780    1.000
    N26      N        0.55880    0.17415    0.67460    1.000
    N27      N        0.59560    0.12833    0.71070    1.000
    N28      N        0.63130    0.09164    0.87610    1.000
    N29      N        0.43580    0.27137    0.73390    1.000
    N30      N        0.61740    0.10608    0.53800    1.000
    N31      N        0.46330    0.93382    0.87210    1.000
    N32      N        0.31280    0.90754    0.87140    1.000
    N33      N        0.32080    0.95551    0.90430    1.000
    N34      N        0.58990    0.03017    0.92700    1.000
    N35      N        0.55960    0.83993    0.79590    1.000
    N36      N        0.98220    0.92002    0.94420    1.000
    Zn10     Zn       0.83055    0.93177    0.43676    1.000
    Zn11     Zn       0.13817    0.68994    0.24314    1.000
    Zn12     Zn       0.84718    0.91263    0.97382    1.000
    I19      I        0.90234    0.90340    0.50462    1.000
    I20      I        0.65060    0.94467    0.42333    1.000
    I21      I        0.30099    0.69673    0.20119    1.000
    I22      I        0.13409    0.67530    0.32904    1.000
    I23      I        0.77007    0.96257    0.98980    1.000
    I24      I        0.76145    0.87204    0.92827    1.000
    C109     C        0.91530    0.85861    0.25140    1.000
    C110     C        0.95280    0.81516    0.21760    1.000
    C111     C        0.91700    0.85444    0.17270    1.000
    C112     C        0.90150    0.87598    0.29540    1.000
    C113     C        0.87480    0.90527    0.29320    1.000
    H73      H        0.86710    0.91470    0.26370    1.000
    C114     C        0.85980    0.92032    0.33400    1.000
    H74      H        0.84200    0.94040    0.33200    1.000
    C115     C        0.89630    0.88017    0.37870    1.000
    H75      H        0.90440    0.87150    0.40890    1.000
    C116     C        0.91340    0.86330    0.33950    1.000
    H76      H        0.93300    0.84340    0.34240    1.000
    C117     C        0.98680    0.78431    0.22290    1.000
    C118     C        0.98190    0.77043    0.26550    1.000
    H77      H        0.95210    0.77990    0.29160    1.000
    C119     C        0.02080    0.74233    0.27020    1.000
    H78      H        0.01660    0.73260    0.29970    1.000
    C120     C        0.06660    0.74193    0.19250    1.000
    H79      H        0.09540    0.73200    0.16660    1.000
    C121     C        0.02840    0.77001    0.18560    1.000
    H80      H        0.03120    0.77900    0.15550    1.000
    C122     C        0.90690    0.86836    0.12590    1.000
    C123     C        0.90730    0.85144    0.08500    1.000
    H81      H        0.91550    0.83080    0.08650    1.000
    C124     C        0.89570    0.86530    0.04250    1.000
    H82      H        0.89710    0.85370    0.01480    1.000
    C125     C        0.88270    0.91037    0.07770    1.000
    H83      H        0.87350    0.93100    0.07530    1.000
    C126     C        0.89580    0.89798    0.12160    1.000
    H84      H        0.89710    0.91010    0.14880    1.000
    C127     C        0.08260    0.04454    0.39250    1.000
    C128     C        0.09140    0.08999    0.36170    1.000
    C129     C        0.22540    0.06946    0.39340    1.000
    C130     C        0.02410    0.01833    0.40540    1.000
    C131     C        0.06050    0.99648    0.43350    1.000
    H85      H        0.12530    0.99760    0.44550    1.000
    C132     C        0.00090    0.97261    0.44430    1.000
    H86      H        0.02540    0.95780    0.46460    1.000
    C133     C        0.87440    0.99121    0.40150    1.000
    H87      H        0.80830    0.99000    0.39140    1.000
    C134     C        0.92930    0.01569    0.38870    1.000
    H88      H        0.90210    0.03030    0.36880    1.000
    C135     C        0.04070    0.11491    0.33960    1.000
    C136     C        0.93950    0.11556    0.33810    1.000
    H89      H        0.90290    0.10000    0.35170    1.000
    C137     C        0.89170    0.13869    0.31700    1.000
    H90      H        0.82220    0.13930    0.31750    1.000
    C138     C        0.03780    0.16004    0.29720    1.000
    H91      H        0.07230    0.17570    0.28290    1.000
    C139     C        0.09110    0.13760    0.31910    1.000
    H92      H        0.16050    0.13810    0.31970    1.000
    C140     C        0.32860    0.07219    0.40930    1.000
    C141     C        0.38340    0.09703    0.39890    1.000
    H93      H        0.35640    0.11190    0.37940    1.000
    C142     C        0.47550    0.10027    0.41640    1.000
    H94      H        0.51120    0.11750    0.40880    1.000
    C143     C        0.46580    0.05613    0.45330    1.000
    H95      H        0.49500    0.04140    0.47230    1.000
    C144     C        0.37320    0.05141    0.43720    1.000
    H96      H        0.33950    0.03390    0.44520    1.000
    N37      N        0.93820    0.82991    0.25780    1.000
    N38      N        0.94120    0.82585    0.17460    1.000
    N39      N        0.90440    0.87167    0.21070    1.000
    N40      N        0.86870    0.90836    0.37610    1.000
    N41      N        0.06420    0.72863    0.23390    1.000
    N42      N        0.88260    0.89392    0.03800    1.000
    N43      N        0.03670    0.06618    0.37210    1.000
    N44      N        0.18720    0.09246    0.37140    1.000
    N45      N        0.17920    0.04449    0.40430    1.000
    N46      N        0.91010    0.96983    0.42700    1.000
    N47      N        0.94040    0.16007    0.29590    1.000
    N48      N        0.51780    0.07998    0.44420    1.000
    Zn13     Zn       0.66945    0.43177    0.43676    1.000
    Zn14     Zn       0.36183    0.18994    0.24314    1.000
    Zn15     Zn       0.65282    0.41263    0.97382    1.000
    I25      I        0.59766    0.40340    0.50462    1.000
    I26      I        0.84940    0.44467    0.42333    1.000
    I27      I        0.19901    0.19673    0.20119    1.000
    I28      I        0.36591    0.17530    0.32904    1.000
    I29      I        0.72993    0.46257    0.98980    1.000
    I30      I        0.73855    0.37204    0.92827    1.000
    C145     C        0.58470    0.35861    0.25140    1.000
    C146     C        0.54720    0.31516    0.21760    1.000
    C147     C        0.58300    0.35444    0.17270    1.000
    C148     C        0.59850    0.37598    0.29540    1.000
    C149     C        0.62520    0.40527    0.29320    1.000
    H97      H        0.63290    0.41470    0.26370    1.000
    C150     C        0.64020    0.42032    0.33400    1.000
    H98      H        0.65800    0.44040    0.33200    1.000
    C151     C        0.60370    0.38017    0.37870    1.000
    H99      H        0.59560    0.37150    0.40890    1.000
    C152     C        0.58660    0.36330    0.33950    1.000
    H100     H        0.56700    0.34340    0.34240    1.000
    C153     C        0.51320    0.28431    0.22290    1.000
    C154     C        0.51810    0.27043    0.26550    1.000
    H101     H        0.54790    0.27990    0.29160    1.000
    C155     C        0.47920    0.24233    0.27020    1.000
    H102     H        0.48340    0.23260    0.29970    1.000
    C156     C        0.43340    0.24193    0.19250    1.000
    H103     H        0.40460    0.23200    0.16660    1.000
    C157     C        0.47160    0.27001    0.18560    1.000
    H104     H        0.46880    0.27900    0.15550    1.000
    C158     C        0.59310    0.36836    0.12590    1.000
    C159     C        0.59270    0.35144    0.08500    1.000
    H105     H        0.58450    0.33080    0.08650    1.000
    C160     C        0.60430    0.36530    0.04250    1.000
    H106     H        0.60290    0.35370    0.01480    1.000
    C161     C        0.61730    0.41037    0.07770    1.000
    H107     H        0.62650    0.43100    0.07530    1.000
    C162     C        0.60420    0.39798    0.12160    1.000
    H108     H        0.60290    0.41010    0.14880    1.000
    C163     C        0.41740    0.54454    0.39250    1.000
    C164     C        0.40860    0.58999    0.36170    1.000
    C165     C        0.27460    0.56946    0.39340    1.000
    C166     C        0.47590    0.51833    0.40540    1.000
    C167     C        0.43950    0.49648    0.43350    1.000
    H109     H        0.37470    0.49760    0.44550    1.000
    C168     C        0.49910    0.47261    0.44430    1.000
    H110     H        0.47460    0.45780    0.46460    1.000
    C169     C        0.62560    0.49121    0.40150    1.000
    H111     H        0.69170    0.49000    0.39140    1.000
    C170     C        0.57070    0.51569    0.38870    1.000
    H112     H        0.59790    0.53030    0.36880    1.000
    C171     C        0.45930    0.61491    0.33960    1.000
    C172     C        0.56050    0.61556    0.33810    1.000
    H113     H        0.59710    0.60000    0.35170    1.000
    C173     C        0.60830    0.63869    0.31700    1.000
    H114     H        0.67780    0.63930    0.31750    1.000
    C174     C        0.46220    0.66004    0.29720    1.000
    H115     H        0.42770    0.67570    0.28290    1.000
    C175     C        0.40890    0.63760    0.31910    1.000
    H116     H        0.33950    0.63810    0.31970    1.000
    C176     C        0.17140    0.57219    0.40930    1.000
    C177     C        0.11660    0.59703    0.39890    1.000
    H117     H        0.14360    0.61190    0.37940    1.000
    C178     C        0.02450    0.60027    0.41640    1.000
    H118     H        0.98880    0.61750    0.40880    1.000
    C179     C        0.03420    0.55613    0.45330    1.000
    H119     H        0.00500    0.54140    0.47230    1.000
    C180     C        0.12680    0.55141    0.43720    1.000
    H120     H        0.16050    0.53390    0.44520    1.000
    N49      N        0.56180    0.32991    0.25780    1.000
    N50      N        0.55880    0.32585    0.17460    1.000
    N51      N        0.59560    0.37167    0.21070    1.000
    N52      N        0.63130    0.40836    0.37610    1.000
    N53      N        0.43580    0.22863    0.23390    1.000
    N54      N        0.61740    0.39392    0.03800    1.000
    N55      N        0.46330    0.56618    0.37210    1.000
    N56      N        0.31280    0.59246    0.37140    1.000
    N57      N        0.32080    0.54449    0.40430    1.000
    N58      N        0.58990    0.46983    0.42700    1.000
    N59      N        0.55960    0.66007    0.29590    1.000
    N60      N        0.98220    0.57998    0.44420    1.000
    Zn16     Zn       0.83055    0.56823    0.93676    1.000
    Zn17     Zn       0.13817    0.81006    0.74314    1.000
    Zn18     Zn       0.84718    0.58737    0.47382    1.000
    I31      I        0.90234    0.59660    0.00462    1.000
    I32      I        0.65060    0.55533    0.92333    1.000
    I33      I        0.30099    0.80327    0.70119    1.000
    I34      I        0.13409    0.82470    0.82904    1.000
    I35      I        0.77007    0.53743    0.48980    1.000
    I36      I        0.76145    0.62796    0.42827    1.000
    C181     C        0.91530    0.64139    0.75140    1.000
    C182     C        0.95280    0.68484    0.71760    1.000
    C183     C        0.91700    0.64556    0.67270    1.000
    C184     C        0.90150    0.62402    0.79540    1.000
    C185     C        0.87480    0.59473    0.79320    1.000
    H121     H        0.86710    0.58530    0.76370    1.000
    C186     C        0.85980    0.57968    0.83400    1.000
    H122     H        0.84200    0.55960    0.83200    1.000
    C187     C        0.89630    0.61983    0.87870    1.000
    H123     H        0.90440    0.62850    0.90890    1.000
    C188     C        0.91340    0.63670    0.83950    1.000
    H124     H        0.93300    0.65660    0.84240    1.000
    C189     C        0.98680    0.71569    0.72290    1.000
    C190     C        0.98190    0.72957    0.76550    1.000
    H125     H        0.95210    0.72010    0.79160    1.000
    C191     C        0.02080    0.75767    0.77020    1.000
    H126     H        0.01660    0.76740    0.79970    1.000
    C192     C        0.06660    0.75807    0.69250    1.000
    H127     H        0.09540    0.76800    0.66660    1.000
    C193     C        0.02840    0.72999    0.68560    1.000
    H128     H        0.03120    0.72100    0.65550    1.000
    C194     C        0.90690    0.63164    0.62590    1.000
    C195     C        0.90730    0.64856    0.58500    1.000
    H129     H        0.91550    0.66920    0.58650    1.000
    C196     C        0.89570    0.63470    0.54250    1.000
    H130     H        0.89710    0.64630    0.51480    1.000
    C197     C        0.88270    0.58963    0.57770    1.000
    H131     H        0.87350    0.56900    0.57530    1.000
    C198     C        0.89580    0.60202    0.62160    1.000
    H132     H        0.89710    0.58990    0.64880    1.000
    C199     C        0.08260    0.45546    0.89250    1.000
    C200     C        0.09140    0.41001    0.86170    1.000
    C201     C        0.22540    0.43054    0.89340    1.000
    C202     C        0.02410    0.48167    0.90540    1.000
    C203     C        0.06050    0.50352    0.93350    1.000
    H133     H        0.12530    0.50240    0.94550    1.000
    C204     C        0.00090    0.52739    0.94430    1.000
    H134     H        0.02540    0.54220    0.96460    1.000
    C205     C        0.87440    0.50879    0.90150    1.000
    H135     H        0.80830    0.51000    0.89140    1.000
    C206     C        0.92930    0.48431    0.88870    1.000
    H136     H        0.90210    0.46970    0.86880    1.000
    C207     C        0.04070    0.38509    0.83960    1.000
    C208     C        0.93950    0.38444    0.83810    1.000
    H137     H        0.90290    0.40000    0.85170    1.000
    C209     C        0.89170    0.36131    0.81700    1.000
    H138     H        0.82220    0.36070    0.81750    1.000
    C210     C        0.03780    0.33996    0.79720    1.000
    H139     H        0.07230    0.32430    0.78290    1.000
    C211     C        0.09110    0.36240    0.81910    1.000
    H140     H        0.16050    0.36190    0.81970    1.000
    C212     C        0.32860    0.42781    0.90930    1.000
    C213     C        0.38340    0.40297    0.89890    1.000
    H141     H        0.35640    0.38810    0.87940    1.000
    C214     C        0.47550    0.39973    0.91640    1.000
    H142     H        0.51120    0.38250    0.90880    1.000
    C215     C        0.46580    0.44387    0.95330    1.000
    H143     H        0.49500    0.45860    0.97230    1.000
    C216     C        0.37320    0.44859    0.93720    1.000
    H144     H        0.33950    0.46610    0.94520    1.000
    N61      N        0.93820    0.67009    0.75780    1.000
    N62      N        0.94120    0.67415    0.67460    1.000
    N63      N        0.90440    0.62833    0.71070    1.000
    N64      N        0.86870    0.59164    0.87610    1.000
    N65      N        0.06420    0.77137    0.73390    1.000
    N66      N        0.88260    0.60608    0.53800    1.000
    N67      N        0.03670    0.43382    0.87210    1.000
    N68      N        0.18720    0.40754    0.87140    1.000
    N69      N        0.17920    0.45551    0.90430    1.000
    N70      N        0.91010    0.53017    0.92700    1.000
    N71      N        0.94040    0.33993    0.79590    1.000
    N72      N        0.51780    0.42002    0.94420    1.000
    Zn19     Zn       0.33055    0.93177    0.06324    1.000
    Zn20     Zn       0.63817    0.68994    0.25686    1.000
    Zn21     Zn       0.34718    0.91263    0.52618    1.000
    I37      I        0.40234    0.90340    0.99538    1.000
    I38      I        0.15060    0.94467    0.07667    1.000
    I39      I        0.80099    0.69673    0.29881    1.000
    I40      I        0.63409    0.67530    0.17096    1.000
    I41      I        0.27007    0.96257    0.51020    1.000
    I42      I        0.26145    0.87204    0.57173    1.000
    C217     C        0.41530    0.85861    0.24860    1.000
    C218     C        0.45280    0.81516    0.28240    1.000
    C219     C        0.41700    0.85444    0.32730    1.000
    C220     C        0.40150    0.87598    0.20460    1.000
    C221     C        0.37480    0.90527    0.20680    1.000
    H145     H        0.36710    0.91470    0.23630    1.000
    C222     C        0.35980    0.92032    0.16600    1.000
    H146     H        0.34200    0.94040    0.16800    1.000
    C223     C        0.39630    0.88017    0.12130    1.000
    H147     H        0.40440    0.87150    0.09110    1.000
    C224     C        0.41340    0.86330    0.16050    1.000
    H148     H        0.43300    0.84340    0.15760    1.000
    C225     C        0.48680    0.78431    0.27710    1.000
    C226     C        0.48190    0.77043    0.23450    1.000
    H149     H        0.45210    0.77990    0.20840    1.000
    C227     C        0.52080    0.74233    0.22980    1.000
    H150     H        0.51660    0.73260    0.20030    1.000
    C228     C        0.56660    0.74193    0.30750    1.000
    H151     H        0.59540    0.73200    0.33340    1.000
    C229     C        0.52840    0.77001    0.31440    1.000
    H152     H        0.53120    0.77900    0.34450    1.000
    C230     C        0.40690    0.86836    0.37410    1.000
    C231     C        0.40730    0.85144    0.41500    1.000
    H153     H        0.41550    0.83080    0.41350    1.000
    C232     C        0.39570    0.86530    0.45750    1.000
    H154     H        0.39710    0.85370    0.48520    1.000
    C233     C        0.38270    0.91037    0.42230    1.000
    H155     H        0.37350    0.93100    0.42470    1.000
    C234     C        0.39580    0.89798    0.37840    1.000
    H156     H        0.39710    0.91010    0.35120    1.000
    C235     C        0.58260    0.04454    0.10750    1.000
    C236     C        0.59140    0.08999    0.13830    1.000
    C237     C        0.72540    0.06946    0.10660    1.000
    C238     C        0.52410    0.01833    0.09460    1.000
    C239     C        0.56050    0.99648    0.06650    1.000
    H157     H        0.62530    0.99760    0.05450    1.000
    C240     C        0.50090    0.97261    0.05570    1.000
    H158     H        0.52540    0.95780    0.03540    1.000
    C241     C        0.37440    0.99121    0.09850    1.000
    H159     H        0.30830    0.99000    0.10860    1.000
    C242     C        0.42930    0.01569    0.11130    1.000
    H160     H        0.40210    0.03030    0.13120    1.000
    C243     C        0.54070    0.11491    0.16040    1.000
    C244     C        0.43950    0.11556    0.16190    1.000
    H161     H        0.40290    0.10000    0.14830    1.000
    C245     C        0.39170    0.13869    0.18300    1.000
    H162     H        0.32220    0.13930    0.18250    1.000
    C246     C        0.53780    0.16004    0.20280    1.000
    H163     H        0.57230    0.17570    0.21710    1.000
    C247     C        0.59110    0.13760    0.18090    1.000
    H164     H        0.66050    0.13810    0.18030    1.000
    C248     C        0.82860    0.07219    0.09070    1.000
    C249     C        0.88340    0.09703    0.10110    1.000
    H165     H        0.85640    0.11190    0.12060    1.000
    C250     C        0.97550    0.10027    0.08360    1.000
    H166     H        0.01120    0.11750    0.09120    1.000
    C251     C        0.96580    0.05613    0.04670    1.000
    H167     H        0.99500    0.04140    0.02770    1.000
    C252     C        0.87320    0.05141    0.06280    1.000
    H168     H        0.83950    0.03390    0.05480    1.000
    N73      N        0.43820    0.82991    0.24220    1.000
    N74      N        0.44120    0.82585    0.32540    1.000
    N75      N        0.40440    0.87167    0.28930    1.000
    N76      N        0.36870    0.90836    0.12390    1.000
    N77      N        0.56420    0.72863    0.26610    1.000
    N78      N        0.38260    0.89392    0.46200    1.000
    N79      N        0.53670    0.06618    0.12790    1.000
    N80      N        0.68720    0.09246    0.12860    1.000
    N81      N        0.67920    0.04449    0.09570    1.000
    N82      N        0.41010    0.96983    0.07300    1.000
    N83      N        0.44040    0.16007    0.20410    1.000
    N84      N        0.01780    0.07998    0.05580    1.000
    Zn22     Zn       0.16945    0.06823    0.56324    1.000
    Zn23     Zn       0.86183    0.31006    0.75686    1.000
    Zn24     Zn       0.15282    0.08737    0.02618    1.000
    I43      I        0.09766    0.09660    0.49538    1.000
    I44      I        0.34940    0.05533    0.57667    1.000
    I45      I        0.69901    0.30327    0.79881    1.000
    I46      I        0.86591    0.32470    0.67096    1.000
    I47      I        0.22993    0.03743    0.01020    1.000
    I48      I        0.23855    0.12796    0.07173    1.000
    C253     C        0.08470    0.14139    0.74860    1.000
    C254     C        0.04720    0.18484    0.78240    1.000
    C255     C        0.08300    0.14556    0.82730    1.000
    C256     C        0.09850    0.12402    0.70460    1.000
    C257     C        0.12520    0.09473    0.70680    1.000
    H169     H        0.13290    0.08530    0.73630    1.000
    C258     C        0.14020    0.07968    0.66600    1.000
    H170     H        0.15800    0.05960    0.66800    1.000
    C259     C        0.10370    0.11983    0.62130    1.000
    H171     H        0.09560    0.12850    0.59110    1.000
    C260     C        0.08660    0.13670    0.66050    1.000
    H172     H        0.06700    0.15660    0.65760    1.000
    C261     C        0.01320    0.21569    0.77710    1.000
    C262     C        0.01810    0.22957    0.73450    1.000
    H173     H        0.04790    0.22010    0.70840    1.000
    C263     C        0.97920    0.25767    0.72980    1.000
    H174     H        0.98340    0.26740    0.70030    1.000
    C264     C        0.93340    0.25807    0.80750    1.000
    H175     H        0.90460    0.26800    0.83340    1.000
    C265     C        0.97160    0.22999    0.81440    1.000
    H176     H        0.96880    0.22100    0.84450    1.000
    C266     C        0.09310    0.13164    0.87410    1.000
    C267     C        0.09270    0.14856    0.91500    1.000
    H177     H        0.08450    0.16920    0.91350    1.000
    C268     C        0.10430    0.13470    0.95750    1.000
    H178     H        0.10290    0.14630    0.98520    1.000
    C269     C        0.11730    0.08963    0.92230    1.000
    H179     H        0.12650    0.06900    0.92470    1.000
    C270     C        0.10420    0.10202    0.87840    1.000
    H180     H        0.10290    0.08990    0.85120    1.000
    C271     C        0.91740    0.95546    0.60750    1.000
    C272     C        0.90860    0.91001    0.63830    1.000
    C273     C        0.77460    0.93054    0.60660    1.000
    C274     C        0.97590    0.98167    0.59460    1.000
    C275     C        0.93950    0.00352    0.56650    1.000
    H181     H        0.87470    0.00240    0.55450    1.000
    C276     C        0.99910    0.02739    0.55570    1.000
    H182     H        0.97460    0.04220    0.53540    1.000
    C277     C        0.12560    0.00879    0.59850    1.000
    H183     H        0.19170    0.01000    0.60860    1.000
    C278     C        0.07070    0.98431    0.61130    1.000
    H184     H        0.09790    0.96970    0.63120    1.000
    C279     C        0.95930    0.88509    0.66040    1.000
    C280     C        0.06050    0.88444    0.66190    1.000
    H185     H        0.09710    0.90000    0.64830    1.000
    C281     C        0.10830    0.86131    0.68300    1.000
    H186     H        0.17780    0.86070    0.68250    1.000
    C282     C        0.96220    0.83996    0.70280    1.000
    H187     H        0.92770    0.82430    0.71710    1.000
    C283     C        0.90890    0.86240    0.68090    1.000
    H188     H        0.83950    0.86190    0.68030    1.000
    C284     C        0.67140    0.92781    0.59070    1.000
    C285     C        0.61660    0.90297    0.60110    1.000
    H189     H        0.64360    0.88810    0.62060    1.000
    C286     C        0.52450    0.89973    0.58360    1.000
    H190     H        0.48880    0.88250    0.59120    1.000
    C287     C        0.53420    0.94387    0.54670    1.000
    H191     H        0.50500    0.95860    0.52770    1.000
    C288     C        0.62680    0.94859    0.56280    1.000
    H192     H        0.66050    0.96610    0.55480    1.000
    N85      N        0.06180    0.17009    0.74220    1.000
    N86      N        0.05880    0.17415    0.82540    1.000
    N87      N        0.09560    0.12833    0.78930    1.000
    N88      N        0.13130    0.09164    0.62390    1.000
    N89      N        0.93580    0.27137    0.76610    1.000
    N90      N        0.11740    0.10608    0.96200    1.000
    N91      N        0.96330    0.93382    0.62790    1.000
    N92      N        0.81280    0.90754    0.62860    1.000
    N93      N        0.82080    0.95551    0.59570    1.000
    N94      N        0.08990    0.03017    0.57300    1.000
    N95      N        0.05960    0.83993    0.70410    1.000
    N96      N        0.48220    0.92002    0.55580    1.000
