data_functionalizedCrystal
_audit_creation_method	'EQeq! by Chris Wilmer'
_symmetry_space_group_name_H-M	'P1'
_symmetry_Int_Tables_number	1
_symmetry_cell_setting	triclinic
loop_
_symmetry_equiv_pos_as_xyz
  x,y,z
_cell_length_a	13.4541
_cell_length_b	13.4541
_cell_length_c	27.755
_cell_angle_alpha	90
_cell_angle_beta	90
_cell_angle_gamma	120
loop_
_atom_site_label
_atom_site_type_symbol
_atom_site_fract_x
_atom_site_fract_y
_atom_site_fract_z
_atom_site_charge
Mof_V 	V 	0.14188	0.43412	0.47322	1.725
Mof_P 	P 	0.02559	0.18703	0.41572	0.196
Mof_P 	P 	0.87287	0.36903	0.46431	0.479
Mof_O 	O 	0.2278	0.5522	0.42347	-0.515
Mof_O 	O 	0.97357	0.10886	0.45959	-0.36
Mof_O 	O 	0.07121	0.14026	0.3774	-0.517
Mof_O 	O 	0.11974	0.30721	0.42952	-0.489
Mof_O 	O 	0.9985	0.4273	0.45039	-0.374
Mof_O 	O 	0.8335	0.45287	0.47659	-0.472
Mof_O 	O 	0.84806	0.28152	0.50398	-0.491
Mof_O 	O 	0.1419	0.0764	0.29532	-0.559
Mof_H 	H 	0.9366	0.1964	0.3966	0.064
Mof_H 	H 	0.8049	0.3081	0.4218	-0.012
Mof_V 	V 	0.56588	0.70776	0.47322	1.765
Mof_P 	P 	0.81297	0.83856	0.41572	0.466
Mof_P 	P 	0.63097	0.50384	0.46431	0.476
Mof_O 	O 	0.4478	0.6756	0.42347	-0.469
Mof_O 	O 	0.89114	0.86471	0.45959	-0.369
Mof_O 	O 	0.85974	0.93095	0.3774	-0.313
Mof_O 	O 	0.69279	0.81253	0.42952	-0.448
Mof_O 	O 	0.5727	0.5712	0.45039	-0.489
Mof_O 	O 	0.54713	0.38063	0.47659	-0.506
Mof_O 	O 	0.71848	0.56654	0.50398	-0.508
Mof_O 	O 	0.9236	0.0655	0.29532	-0.481
Mof_H 	H 	0.8036	0.7402	0.3966	-0.012
Mof_H 	H 	0.6919	0.4968	0.4218	-0.006
Mof_V 	V 	0.29224	0.85812	0.47322	1.8
Mof_P 	P 	0.16144	0.97441	0.41572	0.731
Mof_P 	P 	0.49616	0.12713	0.46431	0.472
Mof_O 	O 	0.3244	0.7722	0.42347	-0.454
Mof_O 	O 	0.13529	0.02643	0.45959	-0.684
Mof_O 	O 	0.06905	0.92879	0.3774	-0.491
Mof_O 	O 	0.18747	0.88026	0.42952	-0.486
Mof_O 	O 	0.4288	0.0015	0.45039	-0.606
Mof_O 	O 	0.61937	0.1665	0.47659	-0.538
Mof_O 	O 	0.43346	0.15194	0.50398	-0.553
Mof_O 	O 	0.9345	0.8581	0.29532	-0.341
Mof_H 	H 	0.2598	0.0634	0.3966	-0.15
Mof_H 	H 	0.5032	0.1951	0.4218	-0.024
Mof_V 	V 	0.85812	0.56588	0.97322	1.804
Mof_P 	P 	0.97441	0.81297	0.91572	0.7
Mof_P 	P 	0.12713	0.63097	0.96431	0.493
Mof_O 	O 	0.7722	0.4478	0.92347	-0.443
Mof_O 	O 	0.02643	0.89114	0.95959	-0.541
Mof_O 	O 	0.92879	0.85974	0.8774	-0.366
Mof_O 	O 	0.88026	0.69279	0.92952	-0.456
Mof_O 	O 	0.0015	0.5727	0.95039	-0.597
Mof_O 	O 	0.1665	0.54713	0.97659	-0.528
Mof_O 	O 	0.15194	0.71848	0.00398	-0.567
Mof_O 	O 	0.8581	0.9236	0.79532	-0.369
Mof_H 	H 	0.0634	0.8036	0.8966	-0.114
Mof_H 	H 	0.1951	0.6919	0.9218	-0.016
Mof_V 	V 	0.43412	0.29224	0.97322	1.768
Mof_P 	P 	0.18703	0.16144	0.91572	0.464
Mof_P 	P 	0.36903	0.49616	0.96431	0.496
Mof_O 	O 	0.5522	0.3244	0.92347	-0.486
Mof_O 	O 	0.10886	0.13529	0.95959	-0.568
Mof_O 	O 	0.14026	0.06905	0.8774	-0.574
Mof_O 	O 	0.30721	0.18747	0.92952	-0.499
Mof_O 	O 	0.4273	0.4288	0.95039	-0.487
Mof_O 	O 	0.45287	0.61937	0.97659	-0.493
Mof_O 	O 	0.28152	0.43346	0.00398	-0.551
Mof_O 	O 	0.0764	0.9345	0.79532	-0.423
Mof_H 	H 	0.1964	0.2598	0.8966	-0.055
Mof_H 	H 	0.3081	0.5032	0.9218	-0.023
Mof_V 	V 	0.70776	0.14188	0.97322	1.734
Mof_P 	P 	0.83856	0.02559	0.91572	0.222
Mof_P 	P 	0.50384	0.87287	0.96431	0.5
Mof_O 	O 	0.6756	0.2278	0.92347	-0.5
Mof_O 	O 	0.86471	0.97357	0.95959	-0.264
Mof_O 	O 	0.93095	0.07121	0.8774	-0.378
Mof_O 	O 	0.81253	0.11974	0.92952	-0.459
Mof_O 	O 	0.5712	0.9985	0.95039	-0.372
Mof_O 	O 	0.38063	0.8335	0.97659	-0.459
Mof_O 	O 	0.56654	0.84806	0.00398	-0.507
Mof_O 	O 	0.0655	0.1419	0.79532	-0.587
Mof_H 	H 	0.7402	0.9366	0.8966	0.075
Mof_H 	H 	0.4968	0.8049	0.9218	-0.005
Mof_V 	V 	0.85812	0.56588	0.52678	1.8
Mof_P 	P 	0.97441	0.81297	0.58428	0.705
Mof_P 	P 	0.12713	0.63097	0.53569	0.472
Mof_O 	O 	0.7722	0.4478	0.57653	-0.445
Mof_O 	O 	0.02643	0.89114	0.54041	-0.557
Mof_O 	O 	0.92879	0.85974	0.6226	-0.367
Mof_O 	O 	0.88026	0.69279	0.57048	-0.459
Mof_O 	O 	0.0015	0.5727	0.54961	-0.603
Mof_O 	O 	0.1665	0.54713	0.52341	-0.54
Mof_O 	O 	0.15194	0.71848	0.49602	-0.542
Mof_O 	O 	0.8581	0.9236	0.70468	-0.369
Mof_H 	H 	0.0634	0.8036	0.6034	-0.117
Mof_H 	H 	0.1951	0.6919	0.5782	-0.016
Mof_V 	V 	0.43412	0.29224	0.52678	1.762
Mof_P 	P 	0.18703	0.16144	0.58428	0.464
Mof_P 	P 	0.36903	0.49616	0.53569	0.476
Mof_O 	O 	0.5522	0.3244	0.57653	-0.489
Mof_O 	O 	0.10886	0.13529	0.54041	-0.582
Mof_O 	O 	0.14026	0.06905	0.6226	-0.575
Mof_O 	O 	0.30721	0.18747	0.57048	-0.502
Mof_O 	O 	0.4273	0.4288	0.54961	-0.491
Mof_O 	O 	0.45287	0.61937	0.52341	-0.505
Mof_O 	O 	0.28152	0.43346	0.49602	-0.528
Mof_O 	O 	0.0764	0.9345	0.70468	-0.424
Mof_H 	H 	0.1964	0.2598	0.6034	-0.056
Mof_H 	H 	0.3081	0.5032	0.5782	-0.023
Mof_V 	V 	0.70776	0.14188	0.52678	1.729
Mof_P 	P 	0.83856	0.02559	0.58428	0.224
Mof_P 	P 	0.50384	0.87287	0.53569	0.48
Mof_O 	O 	0.6756	0.2278	0.57653	-0.503
Mof_O 	O 	0.86471	0.97357	0.54041	-0.276
Mof_O 	O 	0.93095	0.07121	0.6226	-0.377
Mof_O 	O 	0.81253	0.11974	0.57048	-0.461
Mof_O 	O 	0.5712	0.9985	0.54961	-0.376
Mof_O 	O 	0.38063	0.8335	0.52341	-0.472
Mof_O 	O 	0.56654	0.84806	0.49602	-0.484
Mof_O 	O 	0.0655	0.1419	0.70468	-0.588
Mof_H 	H 	0.7402	0.9366	0.6034	0.073
Mof_H 	H 	0.4968	0.8049	0.5782	-0.005
Mof_V 	V 	0.14188	0.43412	0.02678	1.72
Mof_P 	P 	0.02559	0.18703	0.08428	0.194
Mof_P 	P 	0.87287	0.36903	0.03569	0.464
Mof_O 	O 	0.2278	0.5522	0.07653	-0.517
Mof_O 	O 	0.97357	0.10886	0.04041	-0.364
Mof_O 	O 	0.07121	0.14026	0.1226	-0.517
Mof_O 	O 	0.11974	0.30721	0.07048	-0.492
Mof_O 	O 	0.9985	0.4273	0.04961	-0.377
Mof_O 	O 	0.8335	0.45287	0.02341	-0.482
Mof_O 	O 	0.84806	0.28152	0.99602	-0.473
Mof_O 	O 	0.1419	0.0764	0.20468	-0.559
Mof_H 	H 	0.9366	0.1964	0.1034	0.065
Mof_H 	H 	0.8049	0.3081	0.0782	-0.012
Mof_V 	V 	0.56588	0.70776	0.02678	1.759
Mof_P 	P 	0.81297	0.83856	0.08428	0.465
Mof_P 	P 	0.63097	0.50384	0.03569	0.458
Mof_O 	O 	0.4478	0.6756	0.07653	-0.472
Mof_O 	O 	0.89114	0.86471	0.04041	-0.378
Mof_O 	O 	0.85974	0.93095	0.1226	-0.314
Mof_O 	O 	0.69279	0.81253	0.07048	-0.451
Mof_O 	O 	0.5727	0.5712	0.04961	-0.493
Mof_O 	O 	0.54713	0.38063	0.02341	-0.516
Mof_O 	O 	0.71848	0.56654	0.99602	-0.487
Mof_O 	O 	0.9236	0.0655	0.20468	-0.48
Mof_H 	H 	0.8036	0.7402	0.1034	-0.014
Mof_H 	H 	0.6919	0.4968	0.0782	-0.006
Mof_V 	V 	0.29224	0.85812	0.02678	1.793
Mof_P 	P 	0.16144	0.97441	0.08428	0.727
Mof_P 	P 	0.49616	0.12713	0.03569	0.454
Mof_O 	O 	0.3244	0.7722	0.07653	-0.458
Mof_O 	O 	0.13529	0.02643	0.04041	-0.692
Mof_O 	O 	0.06905	0.92879	0.1226	-0.492
Mof_O 	O 	0.18747	0.88026	0.07048	-0.49
Mof_O 	O 	0.4288	0.0015	0.04961	-0.608
Mof_O 	O 	0.61937	0.1665	0.02341	-0.547
Mof_O 	O 	0.43346	0.15194	0.99602	-0.531
Mof_O 	O 	0.9345	0.8581	0.20468	-0.341
Mof_H 	H 	0.2598	0.0634	0.1034	-0.15
Mof_H 	H 	0.5032	0.1951	0.0782	-0.024
Mof_V 	V 	-0	0	0.5	1.639
Mof_V 	V 	-0	0	-0	1.628
Mof_V 	V 	5.80189e-33	0	0.33611	1.641
Mof_V 	V 	2.32075e-32	0	0.83611	1.642
Mof_V 	V 	-1.16038e-32	0	0.66389	1.641
Mof_V 	V 	-2.90094e-33	0	0.16389	1.641
Mof_P 	P 	0.1918	0.06298	0.25	0.344
Mof_O 	O 	0.3223	0.139	0.25	-0.206
Mof_H 	H 	0.3517	0.0981	0.25	0.117
Mof_H 	H 	0.2001	0.9575	0.25	0.062
Mof_H 	H 	0.3055	0.2276	0.25	0.178
Mof_O 	O 	0.312	0.17	0.25	-0.195
Mof_P 	P 	0.93702	0.12882	0.25	0.599
Mof_O 	O 	0.861	0.1833	0.25	-0.191
Mof_H 	H 	0.9019	0.2536	0.25	0.208
Mof_H 	H 	0.0425	0.2426	0.25	-0.144
Mof_H 	H 	0.7724	0.0779	0.25	0.163
Mof_O 	O 	0.83	0.142	0.25	-0.248
Mof_P 	P 	0.87118	0.8082	0.25	0.48
Mof_O 	O 	0.8167	0.6777	0.25	-0.219
Mof_H 	H 	0.7464	0.6483	0.25	0.181
Mof_H 	H 	0.7574	0.7999	0.25	0.003
Mof_H 	H 	0.9221	0.6945	0.25	0.233
Mof_O 	O 	0.858	0.688	0.25	-0.198
Mof_P 	P 	0.8082	0.93702	0.75	0.595
Mof_O 	O 	0.6777	0.861	0.75	-0.204
Mof_H 	H 	0.6483	0.9019	0.75	0.217
Mof_H 	H 	0.7999	0.0425	0.75	-0.103
Mof_H 	H 	0.6945	0.7724	0.75	0.204
Mof_O 	O 	0.688	0.83	0.75	-0.232
Mof_P 	P 	0.06298	0.87118	0.75	0.361
Mof_O 	O 	0.139	0.8167	0.75	-0.221
Mof_H 	H 	0.0981	0.7464	0.75	0.133
Mof_H 	H 	0.9575	0.7574	0.75	0.081
Mof_H 	H 	0.2276	0.9221	0.75	0.224
Mof_O 	O 	0.17	0.858	0.75	-0.179
Mof_P 	P 	0.12882	0.1918	0.75	0.465
Mof_O 	O 	0.1833	0.3223	0.75	-0.192
Mof_H 	H 	0.2536	0.3517	0.75	0.155
Mof_H 	H 	0.2426	0.2001	0.75	-0.056
Mof_H 	H 	0.0779	0.3055	0.75	0.148
Mof_O 	O 	0.142	0.312	0.75	-0.229
Mof_P 	P 	0.33333	0.66667	0.4104	0.891
Mof_H 	H 	0.33333	0.66667	0.3644	-0.069
Mof_B 	B 	0.33333	0.66667	0.42	-0.323
Mof_P 	P 	0.66667	0.33333	0.9104	0.894
Mof_H 	H 	0.66667	0.33333	0.8644	-0.07
Mof_B 	B 	0.66667	0.33333	0.92	-0.325
Mof_P 	P 	0.66667	0.33333	0.5896	0.891
Mof_H 	H 	0.66667	0.33333	0.6356	-0.069
Mof_B 	B 	0.66667	0.33333	0.58	-0.323
Mof_P 	P 	0.33333	0.66667	0.0896	0.887
Mof_H 	H 	0.33333	0.66667	0.1356	-0.069
Mof_B 	B 	0.33333	0.66667	0.08	-0.322
_end
