# CIF file generated by openbabel 3.1.0, see https://openbabel.org
data_I
_chemical_name_common 'LOJFUL_clean'
_cell_length_a 16.315
_cell_length_b 17.405
_cell_length_c 18.41
_cell_angle_alpha 89.592
_cell_angle_beta 84.33
_cell_angle_gamma 82.521
_space_group_name_H-M_alt 'P 1'
_space_group_name_Hall 'P 1'
loop_
    _symmetry_equiv_pos_as_xyz
    x,y,z
loop_
    _atom_site_label
    _atom_site_type_symbol
    _atom_site_fract_x
    _atom_site_fract_y
    _atom_site_fract_z
    _atom_site_occupancy
    Na1      Na       0.08878    0.05066    0.00020    1.000
    Na2      Na       0.91122    0.94934    0.99980    1.000
    Zn1      Zn       0.52530    0.49890    0.19010    1.000
    Zn2      Zn       0.47470    0.50110    0.80990    1.000
    H1       H        0.60530    0.20490    0.15670    1.000
    H2       H        0.45500    0.22220    0.16010    1.000
    H3       H        0.21780    0.46550    0.17590    1.000
    H4       H        0.21800    0.60480    0.17450    1.000
    H5       H        0.44950    0.79400    0.17880    1.000
    H6       H        0.59850    0.77780    0.17820    1.000
    H7       H        0.83620    0.53380    0.16250    1.000
    H8       H        0.83710    0.39250    0.15750    1.000
    H9       H        0.73530    0.25230    0.04950    1.000
    H10      H        0.83710    0.14820    0.03580    1.000
    H11      H        0.88520    0.16890    0.24200    1.000
    H12      H        0.78070    0.27430    0.25950    1.000
    H13      H        0.30490    0.34230    0.05890    1.000
    H14      H        0.20840    0.25800    0.04500    1.000
    H15      H        0.20610    0.20350    0.25760    1.000
    H16      H        0.30260    0.28780    0.27150    1.000
    H17      H        0.36110    0.75760    0.06960    1.000
    H18      H        0.26550    0.86640    0.05630    1.000
    H19      H        0.14130    0.82050    0.24620    1.000
    H20      H        0.24040    0.71560    0.26310    1.000
    H21      H        0.72340    0.71430    0.06720    1.000
    H22      H        0.82350    0.79510    0.05820    1.000
    H23      H        0.88160    0.73740    0.25810    1.000
    H24      H        0.77970    0.65420    0.26820    1.000
    H25      H        0.39470    0.79510    0.84330    1.000
    H26      H        0.54500    0.77780    0.83990    1.000
    H27      H        0.78220    0.53450    0.82410    1.000
    H28      H        0.78200    0.39520    0.82550    1.000
    H29      H        0.55050    0.20600    0.82120    1.000
    H30      H        0.40150    0.22220    0.82180    1.000
    H31      H        0.16380    0.46620    0.83750    1.000
    H32      H        0.16290    0.60750    0.84250    1.000
    H33      H        0.26470    0.74770    0.95050    1.000
    H34      H        0.16290    0.85180    0.96420    1.000
    H35      H        0.11480    0.83110    0.75800    1.000
    H36      H        0.21930    0.72570    0.74050    1.000
    H37      H        0.69510    0.65770    0.94110    1.000
    H38      H        0.79160    0.74200    0.95500    1.000
    H39      H        0.79390    0.79650    0.74240    1.000
    H40      H        0.69740    0.71220    0.72850    1.000
    H41      H        0.63890    0.24240    0.93040    1.000
    H42      H        0.73450    0.13360    0.94370    1.000
    H43      H        0.85870    0.17950    0.75380    1.000
    H44      H        0.75960    0.28440    0.73690    1.000
    H45      H        0.27660    0.28570    0.93280    1.000
    H46      H        0.17650    0.20490    0.94180    1.000
    H47      H        0.11840    0.26260    0.74190    1.000
    H48      H        0.22030    0.34580    0.73180    1.000
    C1       C        0.70430    0.41550    0.16880    1.000
    C2       C        0.67910    0.34210    0.16580    1.000
    C3       C        0.59580    0.32670    0.16680    1.000
    C4       C        0.57060    0.25180    0.16110    1.000
    C5       C        0.48820    0.26140    0.16320    1.000
    C6       C        0.45960    0.34250    0.17120    1.000
    C7       C        0.37750    0.37720    0.17430    1.000
    C8       C        0.34960    0.45640    0.17780    1.000
    C9       C        0.26410    0.49150    0.17640    1.000
    C10      C        0.26430    0.56780    0.17600    1.000
    C11      C        0.34840    0.58340    0.17830    1.000
    C12      C        0.37540    0.65620    0.17600    1.000
    C13      C        0.45800    0.67190    0.17600    1.000
    C14      C        0.48400    0.74700    0.17770    1.000
    C15      C        0.56530    0.73820    0.17750    1.000
    C16      C        0.59420    0.65540    0.17570    1.000
    C17      C        0.67610    0.62200    0.17360    1.000
    C18      C        0.70400    0.54140    0.17260    1.000
    C19      C        0.79000    0.50740    0.16510    1.000
    C20      C        0.79050    0.42970    0.16240    1.000
    C21      C        0.74530    0.27380    0.15610    1.000
    C22      C        0.76430    0.23560    0.08890    1.000
    C23      C        0.82560    0.17340    0.08080    1.000
    C24      C        0.87030    0.14760    0.13740    1.000
    C25      C        0.85420    0.18560    0.20380    1.000
    C26      C        0.79150    0.24900    0.21450    1.000
    C27      C        0.93700    0.07920    0.12720    1.000
    C28      C        0.31330    0.32340    0.16660    1.000
    C29      C        0.28510    0.31450    0.09870    1.000
    C30      C        0.22730    0.26400    0.09040    1.000
    C31      C        0.19770    0.22240    0.14990    1.000
    C32      C        0.22590    0.23130    0.21770    1.000
    C33      C        0.28370    0.28180    0.22610    1.000
    C34      C        0.13380    0.16900    0.13780    1.000
    C35      C        0.31150    0.72520    0.16730    1.000
    C36      C        0.31780    0.77050    0.10590    1.000
    C37      C        0.25990    0.83580    0.09760    1.000
    C38      C        0.19450    0.85490    0.15030    1.000
    C39      C        0.18640    0.80880    0.21130    1.000
    C40      C        0.24520    0.74510    0.22100    1.000
    C41      C        0.13440    0.92580    0.14000    1.000
    C42      C        0.74140    0.67500    0.16840    1.000
    C43      C        0.75520    0.71830    0.10600    1.000
    C44      C        0.81490    0.76680    0.10070    1.000
    C45      C        0.86330    0.77470    0.15800    1.000
    C46      C        0.84980    0.73280    0.21940    1.000
    C47      C        0.78840    0.68240    0.22570    1.000
    C48      C        0.92630    0.82950    0.14930    1.000
    C49      C        0.45300    0.46470    0.34670    1.000
    C50      C        0.44700    0.46480    0.42250    1.000
    C51      C        0.50340    0.49940    0.45894    1.000
    C52      C        0.56590    0.53380    0.41950    1.000
    C53      C        0.57200    0.53370    0.34370    1.000
    C54      C        0.29570    0.58450    0.83120    1.000
    C55      C        0.32090    0.65790    0.83420    1.000
    C56      C        0.40420    0.67330    0.83320    1.000
    C57      C        0.42940    0.74820    0.83890    1.000
    C58      C        0.51180    0.73860    0.83680    1.000
    C59      C        0.54040    0.65750    0.82880    1.000
    C60      C        0.62250    0.62280    0.82570    1.000
    C61      C        0.65040    0.54360    0.82220    1.000
    C62      C        0.73590    0.50850    0.82360    1.000
    C63      C        0.73570    0.43220    0.82400    1.000
    C64      C        0.65160    0.41660    0.82170    1.000
    C65      C        0.62460    0.34380    0.82400    1.000
    C66      C        0.54200    0.32810    0.82400    1.000
    C67      C        0.51600    0.25300    0.82230    1.000
    C68      C        0.43470    0.26180    0.82250    1.000
    C69      C        0.40580    0.34460    0.82430    1.000
    C70      C        0.32390    0.37800    0.82640    1.000
    C71      C        0.29600    0.45860    0.82740    1.000
    C72      C        0.21000    0.49260    0.83490    1.000
    C73      C        0.20950    0.57030    0.83760    1.000
    C74      C        0.25470    0.72620    0.84390    1.000
    C75      C        0.23570    0.76440    0.91110    1.000
    C76      C        0.17440    0.82660    0.91920    1.000
    C77      C        0.12970    0.85240    0.86260    1.000
    C78      C        0.14580    0.81440    0.79620    1.000
    C79      C        0.20850    0.75100    0.78550    1.000
    C80      C        0.06300    0.92080    0.87280    1.000
    C81      C        0.68670    0.67660    0.83340    1.000
    C82      C        0.71490    0.68550    0.90130    1.000
    C83      C        0.77270    0.73600    0.90960    1.000
    C84      C        0.80230    0.77760    0.85010    1.000
    C85      C        0.77410    0.76870    0.78230    1.000
    C86      C        0.71630    0.71820    0.77390    1.000
    C87      C        0.86620    0.83100    0.86220    1.000
    C88      C        0.68850    0.27480    0.83270    1.000
    C89      C        0.68220    0.22950    0.89410    1.000
    C90      C        0.74010    0.16420    0.90240    1.000
    C91      C        0.80550    0.14510    0.84970    1.000
    C92      C        0.81360    0.19120    0.78870    1.000
    C93      C        0.75480    0.25490    0.77900    1.000
    C94      C        0.86560    0.07420    0.86000    1.000
    C95      C        0.25860    0.32500    0.83160    1.000
    C96      C        0.24480    0.28170    0.89400    1.000
    C97      C        0.18510    0.23320    0.89930    1.000
    C98      C        0.13670    0.22530    0.84200    1.000
    C99      C        0.15020    0.26720    0.78060    1.000
    C100     C        0.21160    0.31760    0.77430    1.000
    C101     C        0.07370    0.17050    0.85070    1.000
    C102     C        0.54700    0.53530    0.65330    1.000
    C103     C        0.55300    0.53520    0.57750    1.000
    C104     C        0.49660    0.50060    0.54106    1.000
    C105     C        0.43410    0.46620    0.58050    1.000
    C106     C        0.42800    0.46630    0.65630    1.000
    N1       N        0.52810    0.38130    0.17370    1.000
    N2       N        0.39950    0.51390    0.17990    1.000
    N3       N        0.52570    0.61640    0.17710    1.000
    N4       N        0.65430    0.48440    0.17470    1.000
    N5       N        0.51550    0.49920    0.30725    1.000
    N6       N        0.47190    0.61870    0.82630    1.000
    N7       N        0.60050    0.48610    0.82010    1.000
    N8       N        0.47430    0.38360    0.82290    1.000
    N9       N        0.34570    0.51560    0.82530    1.000
    N10      N        0.48450    0.50080    0.69275    1.000
    O1       O        0.95470    0.04850    0.06710    1.000
    O2       O        0.97340    0.05840    0.18330    1.000
    O3       O        0.11710    0.15190    0.07780    1.000
    O4       O        0.08890    0.15210    0.20220    1.000
    O5       O        0.14740    0.97060    0.09000    1.000
    O6       O        0.07080    0.93710    0.18840    1.000
    O7       O        0.94090    0.86610    0.09570    1.000
    O8       O        0.96720    0.83250    0.20880    1.000
    O9       O        0.04530    0.95150    0.93290    1.000
    O10      O        0.02660    0.94160    0.81670    1.000
    O11      O        0.88290    0.84810    0.92220    1.000
    O12      O        0.91110    0.84790    0.79780    1.000
    O13      O        0.85260    0.02940    0.91000    1.000
    O14      O        0.92920    0.06290    0.81160    1.000
    O15      O        0.05910    0.13390    0.90430    1.000
    O16      O        0.03280    0.16750    0.79120    1.000
