data_functionalizedCrystal
_audit_creation_method	'EQeq! by Chris Wilmer'
_symmetry_space_group_name_H-M	'P1'
_symmetry_Int_Tables_number	1
_symmetry_cell_setting	triclinic
loop_
_symmetry_equiv_pos_as_xyz
  x,y,z
_cell_length_a	16.2387
_cell_length_b	9.3708
_cell_length_c	10.5007
_cell_angle_alpha	90
_cell_angle_beta	93.898
_cell_angle_gamma	90
loop_
_atom_site_label
_atom_site_type_symbol
_atom_site_fract_x
_atom_site_fract_y
_atom_site_fract_z
_atom_site_charge
Mof_Zn	Zn	0.04748	0.42901	0.83836	1.243
Mof_Zn	Zn	0.41487	0.62609	0.86153	1.246
Mof_P 	P 	0.93842	0.70717	0.88843	0.594
Mof_P 	P 	0.24612	0.47725	0.88173	0.565
Mof_P 	P 	0.46048	0.61325	0.15908	0.584
Mof_O 	O 	0.84067	0.7193	0.8639	-0.488
Mof_H 	H 	0.8183	0.6724	0.9178	0.314
Mof_O 	O 	0.96141	0.5676	0.8298	-0.466
Mof_O 	O 	0.97109	0.8368	0.82423	-0.426
Mof_O 	O 	0.96088	0.7128	0.03032	-0.453
Mof_O 	O 	0.15615	0.514	0.8667	-0.445
Mof_O 	O 	0.27016	0.3996	0.0059	-0.249
Mof_O 	O 	0.26852	0.3744	0.7694	-0.445
Mof_H 	H 	0.2265	0.3351	0.7392	0.312
Mof_O 	O 	0.29864	0.6097	0.8707	-0.409
Mof_O 	O 	0.42981	0.7132	0.2545	-0.42
Mof_O 	O 	0.54253	0.5495	0.2074	-0.42
Mof_O 	O 	0.46479	0.6818	0.02846	-0.444
Mof_O 	O 	0.40062	0.4804	0.1466	-0.422
Mof_H 	H 	0.4211	0.4185	0.1035	0.23
Mof_Zn	Zn	0.95252	0.92901	0.66164	1.242
Mof_Zn	Zn	0.58513	0.12609	0.63847	1.247
Mof_P 	P 	0.06158	0.20717	0.61157	0.595
Mof_P 	P 	0.75388	0.97725	0.61827	0.561
Mof_P 	P 	0.53952	0.11325	0.34092	0.583
Mof_O 	O 	0.15933	0.2193	0.6361	-0.488
Mof_H 	H 	0.1817	0.1724	0.5822	0.314
Mof_O 	O 	0.03859	0.0676	0.6702	-0.467
Mof_O 	O 	0.02891	0.3368	0.67577	-0.425
Mof_O 	O 	0.03912	0.2128	0.46968	-0.454
Mof_O 	O 	0.84385	0.014	0.6333	-0.441
Mof_O 	O 	0.72984	0.8996	0.4941	-0.248
Mof_O 	O 	0.73148	0.8744	0.7306	-0.445
Mof_H 	H 	0.7735	0.8351	0.7608	0.311
Mof_O 	O 	0.70136	0.1097	0.6293	-0.407
Mof_O 	O 	0.57019	0.2132	0.2455	-0.421
Mof_O 	O 	0.45747	0.0495	0.2926	-0.421
Mof_O 	O 	0.53521	0.1818	0.47154	-0.445
Mof_O 	O 	0.59938	0.9804	0.3534	-0.422
Mof_H 	H 	0.5789	0.9185	0.3965	0.23
Mof_Zn	Zn	0.95252	0.57099	0.16164	1.243
Mof_Zn	Zn	0.58513	0.37391	0.13847	1.246
Mof_P 	P 	0.06158	0.29283	0.11157	0.594
Mof_P 	P 	0.75388	0.52275	0.11827	0.565
Mof_P 	P 	0.53952	0.38675	0.84092	0.584
Mof_O 	O 	0.15933	0.2807	0.1361	-0.488
Mof_H 	H 	0.1817	0.3276	0.0822	0.314
Mof_O 	O 	0.03859	0.4324	0.1702	-0.466
Mof_O 	O 	0.02891	0.1632	0.17577	-0.426
Mof_O 	O 	0.03912	0.2872	0.96968	-0.453
Mof_O 	O 	0.84385	0.486	0.1333	-0.445
Mof_O 	O 	0.72984	0.6004	0.9941	-0.249
Mof_O 	O 	0.73148	0.6256	0.2306	-0.445
Mof_H 	H 	0.7735	0.6649	0.2608	0.312
Mof_O 	O 	0.70136	0.3903	0.1293	-0.409
Mof_O 	O 	0.57019	0.2868	0.7455	-0.42
Mof_O 	O 	0.45747	0.4505	0.7926	-0.42
Mof_O 	O 	0.53521	0.3182	0.97154	-0.444
Mof_O 	O 	0.59938	0.5196	0.8534	-0.422
Mof_H 	H 	0.5789	0.5815	0.8965	0.23
Mof_Zn	Zn	0.04748	0.07099	0.33836	1.242
Mof_Zn	Zn	0.41487	0.87391	0.36153	1.247
Mof_P 	P 	0.93842	0.79283	0.38843	0.595
Mof_P 	P 	0.24612	0.02275	0.38173	0.561
Mof_P 	P 	0.46048	0.88675	0.65908	0.583
Mof_O 	O 	0.84067	0.7807	0.3639	-0.488
Mof_H 	H 	0.8183	0.8276	0.4178	0.314
Mof_O 	O 	0.96141	0.9324	0.3298	-0.467
Mof_O 	O 	0.97109	0.6632	0.32423	-0.425
Mof_O 	O 	0.96088	0.7872	0.53032	-0.454
Mof_O 	O 	0.15615	0.986	0.3667	-0.441
Mof_O 	O 	0.27016	0.1004	0.5059	-0.248
Mof_O 	O 	0.26852	0.1256	0.2694	-0.445
Mof_H 	H 	0.2265	0.1649	0.2392	0.311
Mof_O 	O 	0.29864	0.8903	0.3707	-0.407
Mof_O 	O 	0.42981	0.7868	0.7545	-0.421
Mof_O 	O 	0.54253	0.9505	0.7074	-0.421
Mof_O 	O 	0.46479	0.8182	0.52846	-0.445
Mof_O 	O 	0.40062	0.0196	0.6466	-0.422
Mof_H 	H 	0.4211	0.0815	0.6035	0.23
_end
