data_functionalizedCrystal
_audit_creation_method	'EQeq! by Chris Wilmer'
_symmetry_space_group_name_H-M	'P1'
_symmetry_Int_Tables_number	1
_symmetry_cell_setting	triclinic
loop_
_symmetry_equiv_pos_as_xyz
  x,y,z
_cell_length_a	14.1129
_cell_length_b	14.7903
_cell_length_c	21.1602
_cell_angle_alpha	90
_cell_angle_beta	107.645
_cell_angle_gamma	90
loop_
_atom_site_label
_atom_site_type_symbol
_atom_site_fract_x
_atom_site_fract_y
_atom_site_fract_z
_atom_site_charge
Mof_Cd	Cd	0.92195	0.56246	0.31704	0.491
Mof_Cd	Cd	0.28544	0.06477	0.55116	0.464
Mof_O 	O 	0.1772	0.1801	0.5343	-0.239
Mof_O 	O 	0.1545	0.3242	0.5027	-0.233
Mof_O 	O 	0.4198	0.9102	0.2983	-0.257
Mof_O 	O 	0.5646	0.9445	0.3692	-0.28
Mof_O 	O 	0.7591	0.5573	0.3189	-0.245
Mof_C 	C 	0.5035	0.8868	0.3373	0.308
Mof_C 	C 	0.37	0.8181	0.4158	-0.043
Mof_H 	H 	0.4265	0.8521	0.436	0.081
Mof_C 	C 	0.4693	0.7223	0.3594	0.061
Mof_C 	C 	0.1965	0.7862	0.3995	-0.017
Mof_H 	H 	0.1377	0.7984	0.4092	0.075
Mof_C 	C 	0.2806	0.8383	0.4279	-0.027
Mof_C 	C 	0.3755	0.7481	0.3741	0.024
Mof_C 	C 	0.5301	0.7879	0.3423	-0.089
Mof_C 	C 	0.6199	0.761	0.3327	0.021
Mof_H 	H 	0.6619	0.8045	0.3239	0.055
Mof_C 	C 	0.2893	0.6982	0.3444	-0.043
Mof_H 	H 	0.2915	0.6516	0.3155	0.072
Mof_C 	C 	0.2001	0.7169	0.3573	-0.034
Mof_C 	C 	0.1113	0.6579	0.3259	0.302
Mof_C 	C 	0.6473	0.6701	0.336	-0.066
Mof_C 	C 	0.2741	0.9173	0.4716	0.278
Mof_C 	C 	0.4994	0.6315	0.3634	-0.094
Mof_H 	H 	0.4596	0.5875	0.3738	0.084
Mof_C 	C 	0.5859	0.6067	0.3522	0.024
Mof_H 	H 	0.6041	0.546	0.3555	0.056
Mof_O 	O 	0.1919	0.9468	0.4749	-0.249
Mof_O 	O 	0.1223	0.589	0.2955	-0.268
Mof_O 	O 	0.0296	0.6807	0.335	-0.25
Mof_O 	O 	0.3539	0.9578	0.5009	-0.247
Mof_C 	C 	0.2008	0.2512	0.5106	0.223
Mof_O 	O 	0.8063	0.7023	0.3231	-0.222
Mof_C 	C 	0.7439	0.6423	0.3256	0.275
Mof_Cd	Cd	0.42195	0.06246	0.31704	0.492
Mof_Cd	Cd	0.78544	0.56477	0.55116	0.465
Mof_O 	O 	0.6772	0.6801	0.5343	-0.238
Mof_O 	O 	0.6545	0.8242	0.5027	-0.232
Mof_O 	O 	0.9198	0.4102	0.2983	-0.256
Mof_O 	O 	0.0646	0.4445	0.3692	-0.279
Mof_O 	O 	0.2591	0.0573	0.3189	-0.244
Mof_C 	C 	0.0035	0.3868	0.3373	0.308
Mof_C 	C 	0.87	0.3181	0.4158	-0.042
Mof_H 	H 	0.9265	0.3521	0.436	0.082
Mof_C 	C 	0.9693	0.2223	0.3594	0.062
Mof_C 	C 	0.6965	0.2862	0.3995	-0.016
Mof_H 	H 	0.6377	0.2984	0.4092	0.075
Mof_C 	C 	0.7806	0.3383	0.4279	-0.027
Mof_C 	C 	0.8755	0.2481	0.3741	0.024
Mof_C 	C 	0.0301	0.2879	0.3423	-0.089
Mof_C 	C 	0.1199	0.261	0.3327	0.021
Mof_H 	H 	0.1619	0.3045	0.3239	0.055
Mof_C 	C 	0.7893	0.1982	0.3444	-0.043
Mof_H 	H 	0.7915	0.1516	0.3155	0.072
Mof_C 	C 	0.7001	0.2169	0.3573	-0.034
Mof_C 	C 	0.6113	0.1579	0.3259	0.302
Mof_C 	C 	0.1473	0.1701	0.336	-0.066
Mof_C 	C 	0.7741	0.4173	0.4716	0.278
Mof_C 	C 	0.9994	0.1315	0.3634	-0.094
Mof_H 	H 	0.9596	0.0875	0.3738	0.084
Mof_C 	C 	0.0859	0.1067	0.3522	0.023
Mof_H 	H 	0.1041	0.046	0.3555	0.056
Mof_O 	O 	0.6919	0.4468	0.4749	-0.249
Mof_O 	O 	0.6223	0.089	0.2955	-0.268
Mof_O 	O 	0.5296	0.1807	0.335	-0.25
Mof_O 	O 	0.8539	0.4578	0.5009	-0.247
Mof_C 	C 	0.7008	0.7512	0.5106	0.223
Mof_O 	O 	0.3063	0.2023	0.3231	-0.222
Mof_C 	C 	0.2439	0.1423	0.3256	0.275
Mof_Cd	Cd	0.07805	0.56246	0.18296	0.491
Mof_Cd	Cd	0.71456	0.06477	0.94884	0.464
Mof_O 	O 	0.8228	0.1801	0.9657	-0.239
Mof_O 	O 	0.8455	0.3242	0.9973	-0.232
Mof_O 	O 	0.5802	0.9102	0.2017	-0.256
Mof_O 	O 	0.4354	0.9445	0.1308	-0.279
Mof_O 	O 	0.2409	0.5573	0.1811	-0.244
Mof_C 	C 	0.4965	0.8868	0.1627	0.309
Mof_C 	C 	0.63	0.8181	0.0842	-0.043
Mof_H 	H 	0.5735	0.8521	0.064	0.082
Mof_C 	C 	0.5307	0.7223	0.1406	0.062
Mof_C 	C 	0.8035	0.7862	0.1005	-0.016
Mof_H 	H 	0.8623	0.7984	0.0908	0.075
Mof_C 	C 	0.7194	0.8383	0.0721	-0.027
Mof_C 	C 	0.6245	0.7481	0.1259	0.024
Mof_C 	C 	0.4699	0.7879	0.1577	-0.089
Mof_C 	C 	0.3801	0.761	0.1673	0.021
Mof_H 	H 	0.3381	0.8045	0.1761	0.055
Mof_C 	C 	0.7107	0.6982	0.1556	-0.043
Mof_H 	H 	0.7085	0.6516	0.1845	0.072
Mof_C 	C 	0.7999	0.7169	0.1427	-0.034
Mof_C 	C 	0.8887	0.6579	0.1741	0.302
Mof_C 	C 	0.3527	0.6701	0.164	-0.066
Mof_C 	C 	0.7259	0.9173	0.0284	0.277
Mof_C 	C 	0.5006	0.6315	0.1366	-0.094
Mof_H 	H 	0.5404	0.5875	0.1262	0.084
Mof_C 	C 	0.4141	0.6067	0.1478	0.024
Mof_H 	H 	0.3959	0.546	0.1445	0.056
Mof_O 	O 	0.8081	0.9468	0.0251	-0.249
Mof_O 	O 	0.8777	0.589	0.2045	-0.268
Mof_O 	O 	0.9704	0.6807	0.165	-0.25
Mof_O 	O 	0.6461	0.9578	0.9991	-0.246
Mof_C 	C 	0.7992	0.2512	0.9894	0.223
Mof_O 	O 	0.1937	0.7023	0.1769	-0.222
Mof_C 	C 	0.2561	0.6423	0.1744	0.275
Mof_Cd	Cd	0.57805	0.06246	0.18296	0.492
Mof_Cd	Cd	0.21456	0.56477	0.94884	0.465
Mof_O 	O 	0.3228	0.6801	0.9657	-0.238
Mof_O 	O 	0.3455	0.8242	0.9973	-0.232
Mof_O 	O 	0.0802	0.4102	0.2017	-0.256
Mof_O 	O 	0.9354	0.4445	0.1308	-0.279
Mof_O 	O 	0.7409	0.0573	0.1811	-0.244
Mof_C 	C 	0.9965	0.3868	0.1627	0.309
Mof_C 	C 	0.13	0.3181	0.0842	-0.042
Mof_H 	H 	0.0735	0.3521	0.064	0.082
Mof_C 	C 	0.0307	0.2223	0.1406	0.062
Mof_C 	C 	0.3035	0.2862	0.1005	-0.016
Mof_H 	H 	0.3623	0.2984	0.0908	0.075
Mof_C 	C 	0.2194	0.3383	0.0721	-0.027
Mof_C 	C 	0.1245	0.2481	0.1259	0.024
Mof_C 	C 	0.9699	0.2879	0.1577	-0.089
Mof_C 	C 	0.8801	0.261	0.1673	0.021
Mof_H 	H 	0.8381	0.3045	0.1761	0.055
Mof_C 	C 	0.2107	0.1982	0.1556	-0.043
Mof_H 	H 	0.2085	0.1516	0.1845	0.072
Mof_C 	C 	0.2999	0.2169	0.1427	-0.034
Mof_C 	C 	0.3887	0.1579	0.1741	0.302
Mof_C 	C 	0.8527	0.1701	0.164	-0.066
Mof_C 	C 	0.2259	0.4173	0.0284	0.277
Mof_C 	C 	0.0006	0.1315	0.1366	-0.095
Mof_H 	H 	0.0404	0.0875	0.1262	0.084
Mof_C 	C 	0.9141	0.1067	0.1478	0.024
Mof_H 	H 	0.8959	0.046	0.1445	0.056
Mof_O 	O 	0.3081	0.4468	0.0251	-0.249
Mof_O 	O 	0.3777	0.089	0.2045	-0.268
Mof_O 	O 	0.4704	0.1807	0.165	-0.25
Mof_O 	O 	0.1461	0.4578	0.9991	-0.246
Mof_C 	C 	0.2992	0.7512	0.9894	0.224
Mof_O 	O 	0.6937	0.2023	0.1769	-0.222
Mof_C 	C 	0.7561	0.1423	0.1744	0.275
Mof_Cd	Cd	0.07805	0.43754	0.68296	0.492
Mof_Cd	Cd	0.71456	0.93523	0.44884	0.465
Mof_O 	O 	0.8228	0.8199	0.4657	-0.238
Mof_O 	O 	0.8455	0.6758	0.4973	-0.232
Mof_O 	O 	0.5802	0.0898	0.7017	-0.256
Mof_O 	O 	0.4354	0.0555	0.6308	-0.279
Mof_O 	O 	0.2409	0.4427	0.6811	-0.244
Mof_C 	C 	0.4965	0.1132	0.6627	0.309
Mof_C 	C 	0.63	0.1819	0.5842	-0.042
Mof_H 	H 	0.5735	0.1479	0.564	0.082
Mof_C 	C 	0.5307	0.2777	0.6406	0.062
Mof_C 	C 	0.8035	0.2138	0.6005	-0.016
Mof_H 	H 	0.8623	0.2016	0.5908	0.075
Mof_C 	C 	0.7194	0.1617	0.5721	-0.027
Mof_C 	C 	0.6245	0.2519	0.6259	0.024
Mof_C 	C 	0.4699	0.2121	0.6577	-0.089
Mof_C 	C 	0.3801	0.239	0.6673	0.021
Mof_H 	H 	0.3381	0.1955	0.6761	0.055
Mof_C 	C 	0.7107	0.3018	0.6556	-0.043
Mof_H 	H 	0.7085	0.3484	0.6845	0.072
Mof_C 	C 	0.7999	0.2831	0.6427	-0.034
Mof_C 	C 	0.8887	0.3421	0.6741	0.302
Mof_C 	C 	0.3527	0.3299	0.664	-0.066
Mof_C 	C 	0.7259	0.0827	0.5284	0.278
Mof_C 	C 	0.5006	0.3685	0.6366	-0.094
Mof_H 	H 	0.5404	0.4125	0.6262	0.084
Mof_C 	C 	0.4141	0.3933	0.6478	0.024
Mof_H 	H 	0.3959	0.454	0.6445	0.056
Mof_O 	O 	0.8081	0.0532	0.5251	-0.249
Mof_O 	O 	0.8777	0.411	0.7045	-0.268
Mof_O 	O 	0.9704	0.3193	0.665	-0.25
Mof_O 	O 	0.6461	0.0422	0.4991	-0.247
Mof_C 	C 	0.7992	0.7488	0.4894	0.223
Mof_O 	O 	0.1937	0.2977	0.6769	-0.222
Mof_C 	C 	0.2561	0.3577	0.6744	0.275
Mof_Cd	Cd	0.57805	0.93754	0.68296	0.492
Mof_Cd	Cd	0.21456	0.43523	0.44884	0.465
Mof_O 	O 	0.3228	0.3199	0.4657	-0.238
Mof_O 	O 	0.3455	0.1758	0.4973	-0.232
Mof_O 	O 	0.0802	0.5898	0.7017	-0.256
Mof_O 	O 	0.9354	0.5555	0.6308	-0.279
Mof_O 	O 	0.7409	0.9427	0.6811	-0.244
Mof_C 	C 	0.9965	0.6132	0.6627	0.308
Mof_C 	C 	0.13	0.6819	0.5842	-0.042
Mof_H 	H 	0.0735	0.6479	0.564	0.082
Mof_C 	C 	0.0307	0.7777	0.6406	0.062
Mof_C 	C 	0.3035	0.7138	0.6005	-0.016
Mof_H 	H 	0.3623	0.7016	0.5908	0.075
Mof_C 	C 	0.2194	0.6617	0.5721	-0.027
Mof_C 	C 	0.1245	0.7519	0.6259	0.024
Mof_C 	C 	0.9699	0.7121	0.6577	-0.089
Mof_C 	C 	0.8801	0.739	0.6673	0.021
Mof_H 	H 	0.8381	0.6955	0.6761	0.055
Mof_C 	C 	0.2107	0.8018	0.6556	-0.043
Mof_H 	H 	0.2085	0.8484	0.6845	0.072
Mof_C 	C 	0.2999	0.7831	0.6427	-0.034
Mof_C 	C 	0.3887	0.8421	0.6741	0.302
Mof_C 	C 	0.8527	0.8299	0.664	-0.066
Mof_C 	C 	0.2259	0.5827	0.5284	0.278
Mof_C 	C 	0.0006	0.8685	0.6366	-0.094
Mof_H 	H 	0.0404	0.9125	0.6262	0.084
Mof_C 	C 	0.9141	0.8933	0.6478	0.023
Mof_H 	H 	0.8959	0.954	0.6445	0.056
Mof_O 	O 	0.3081	0.5532	0.5251	-0.249
Mof_O 	O 	0.3777	0.911	0.7045	-0.268
Mof_O 	O 	0.4704	0.8193	0.665	-0.25
Mof_O 	O 	0.1461	0.5422	0.4991	-0.247
Mof_C 	C 	0.2992	0.2488	0.4894	0.223
Mof_O 	O 	0.6937	0.7977	0.6769	-0.222
Mof_C 	C 	0.7561	0.8577	0.6744	0.275
Mof_Cd	Cd	0.92195	0.43754	0.81704	0.491
Mof_Cd	Cd	0.28544	0.93523	0.05116	0.464
Mof_O 	O 	0.1772	0.8199	0.0343	-0.239
Mof_O 	O 	0.1545	0.6758	0.0027	-0.232
Mof_O 	O 	0.4198	0.0898	0.7983	-0.256
Mof_O 	O 	0.5646	0.0555	0.8692	-0.279
Mof_O 	O 	0.7591	0.4427	0.8189	-0.244
Mof_C 	C 	0.5035	0.1132	0.8373	0.309
Mof_C 	C 	0.37	0.1819	0.9158	-0.043
Mof_H 	H 	0.4265	0.1479	0.936	0.082
Mof_C 	C 	0.4693	0.2777	0.8594	0.062
Mof_C 	C 	0.1965	0.2138	0.8995	-0.016
Mof_H 	H 	0.1377	0.2016	0.9092	0.075
Mof_C 	C 	0.2806	0.1617	0.9279	-0.027
Mof_C 	C 	0.3755	0.2519	0.8741	0.024
Mof_C 	C 	0.5301	0.2121	0.8423	-0.089
Mof_C 	C 	0.6199	0.239	0.8327	0.021
Mof_H 	H 	0.6619	0.1955	0.8239	0.055
Mof_C 	C 	0.2893	0.3018	0.8444	-0.043
Mof_H 	H 	0.2915	0.3484	0.8155	0.072
Mof_C 	C 	0.2001	0.2831	0.8573	-0.034
Mof_C 	C 	0.1113	0.3421	0.8259	0.302
Mof_C 	C 	0.6473	0.3299	0.836	-0.066
Mof_C 	C 	0.2741	0.0827	0.9716	0.277
Mof_C 	C 	0.4994	0.3685	0.8634	-0.094
Mof_H 	H 	0.4596	0.4125	0.8738	0.084
Mof_C 	C 	0.5859	0.3933	0.8522	0.024
Mof_H 	H 	0.6041	0.454	0.8555	0.056
Mof_O 	O 	0.1919	0.0532	0.9749	-0.249
Mof_O 	O 	0.1223	0.411	0.7955	-0.268
Mof_O 	O 	0.0296	0.3193	0.835	-0.25
Mof_O 	O 	0.3539	0.0422	0.0009	-0.246
Mof_C 	C 	0.2008	0.7488	0.0106	0.223
Mof_O 	O 	0.8063	0.2977	0.8231	-0.222
Mof_C 	C 	0.7439	0.3577	0.8256	0.275
Mof_Cd	Cd	0.42195	0.93754	0.81704	0.492
Mof_Cd	Cd	0.78544	0.43523	0.05116	0.465
Mof_O 	O 	0.6772	0.3199	0.0343	-0.238
Mof_O 	O 	0.6545	0.1758	0.0027	-0.232
Mof_O 	O 	0.9198	0.5898	0.7983	-0.256
Mof_O 	O 	0.0646	0.5555	0.8692	-0.279
Mof_O 	O 	0.2591	0.9427	0.8189	-0.244
Mof_C 	C 	0.0035	0.6132	0.8373	0.309
Mof_C 	C 	0.87	0.6819	0.9158	-0.042
Mof_H 	H 	0.9265	0.6479	0.936	0.082
Mof_C 	C 	0.9693	0.7777	0.8594	0.062
Mof_C 	C 	0.6965	0.7138	0.8995	-0.016
Mof_H 	H 	0.6377	0.7016	0.9092	0.075
Mof_C 	C 	0.7806	0.6617	0.9279	-0.027
Mof_C 	C 	0.8755	0.7519	0.8741	0.024
Mof_C 	C 	0.0301	0.7121	0.8423	-0.089
Mof_C 	C 	0.1199	0.739	0.8327	0.021
Mof_H 	H 	0.1619	0.6955	0.8239	0.055
Mof_C 	C 	0.7893	0.8018	0.8444	-0.043
Mof_H 	H 	0.7915	0.8484	0.8155	0.072
Mof_C 	C 	0.7001	0.7831	0.8573	-0.034
Mof_C 	C 	0.6113	0.8421	0.8259	0.302
Mof_C 	C 	0.1473	0.8299	0.836	-0.066
Mof_C 	C 	0.7741	0.5827	0.9716	0.277
Mof_C 	C 	0.9994	0.8685	0.8634	-0.095
Mof_H 	H 	0.9596	0.9125	0.8738	0.084
Mof_C 	C 	0.0859	0.8933	0.8522	0.024
Mof_H 	H 	0.1041	0.954	0.8555	0.056
Mof_O 	O 	0.6919	0.5532	0.9749	-0.249
Mof_O 	O 	0.6223	0.911	0.7955	-0.268
Mof_O 	O 	0.5296	0.8193	0.835	-0.25
Mof_O 	O 	0.8539	0.5422	0.0009	-0.246
Mof_C 	C 	0.7008	0.2488	0.0106	0.224
Mof_O 	O 	0.3063	0.7977	0.8231	-0.222
Mof_C 	C 	0.2439	0.8577	0.8256	0.275
_end
