data_functionalizedCrystal
_audit_creation_method	'EQeq! by Chris Wilmer'
_symmetry_space_group_name_H-M	'P1'
_symmetry_Int_Tables_number	1
_symmetry_cell_setting	triclinic
loop_
_symmetry_equiv_pos_as_xyz
  x,y,z
_cell_length_a	38.222
_cell_length_b	38.222
_cell_length_c	38.222
_cell_angle_alpha	90
_cell_angle_beta	90
_cell_angle_gamma	90
loop_
_atom_site_label
_atom_site_type_symbol
_atom_site_fract_x
_atom_site_fract_y
_atom_site_fract_z
_atom_site_charge
Mof_C 	C 	0.1905	0.2358	0.0541	0.075
Mof_H 	H 	0.18	0.2556	0.0449	0.006
Mof_C 	C 	0.1775	0.22	0.0816	-0.132
Mof_H 	H 	0.1578	0.2301	0.0916	0.086
Mof_C 	C 	0.1905	0.7358	0.5541	0.075
Mof_H 	H 	0.18	0.7556	0.5449	0.006
Mof_C 	C 	0.1775	0.72	0.5816	-0.132
Mof_H 	H 	0.1578	0.7301	0.5916	0.086
Mof_C 	C 	0.6905	0.2358	0.5541	0.075
Mof_H 	H 	0.68	0.2556	0.5449	0.006
Mof_C 	C 	0.6775	0.22	0.5816	-0.132
Mof_H 	H 	0.6578	0.2301	0.5916	0.086
Mof_C 	C 	0.6905	0.7358	0.0541	0.075
Mof_H 	H 	0.68	0.7556	0.0449	0.006
Mof_C 	C 	0.6775	0.72	0.0816	-0.132
Mof_H 	H 	0.6578	0.7301	0.0916	0.086
Mof_C 	C 	0.8095	0.7642	0.0541	0.075
Mof_H 	H 	0.82	0.7444	0.0449	0.006
Mof_C 	C 	0.8225	0.78	0.0816	-0.132
Mof_H 	H 	0.8422	0.7699	0.0916	0.086
Mof_C 	C 	0.8095	0.2642	0.5541	0.075
Mof_H 	H 	0.82	0.2444	0.5449	0.006
Mof_C 	C 	0.8225	0.28	0.5816	-0.132
Mof_H 	H 	0.8422	0.2699	0.5916	0.086
Mof_C 	C 	0.3095	0.7642	0.5541	0.075
Mof_H 	H 	0.32	0.7444	0.5449	0.006
Mof_C 	C 	0.3225	0.78	0.5816	-0.132
Mof_H 	H 	0.3422	0.7699	0.5916	0.086
Mof_C 	C 	0.3095	0.2642	0.0541	0.075
Mof_H 	H 	0.32	0.2444	0.0449	0.006
Mof_C 	C 	0.3225	0.28	0.0816	-0.132
Mof_H 	H 	0.3422	0.2699	0.0916	0.086
Mof_C 	C 	0.8095	0.2358	0.9459	0.075
Mof_H 	H 	0.82	0.2556	0.9551	0.007
Mof_C 	C 	0.8225	0.22	0.9184	-0.132
Mof_H 	H 	0.8422	0.2301	0.9084	0.086
Mof_C 	C 	0.8095	0.7358	0.4459	0.075
Mof_H 	H 	0.82	0.7556	0.4551	0.006
Mof_C 	C 	0.8225	0.72	0.4184	-0.132
Mof_H 	H 	0.8422	0.7301	0.4084	0.086
Mof_C 	C 	0.3095	0.2358	0.4459	0.075
Mof_H 	H 	0.32	0.2556	0.4551	0.006
Mof_C 	C 	0.3225	0.22	0.4184	-0.132
Mof_H 	H 	0.3422	0.2301	0.4084	0.086
Mof_C 	C 	0.3095	0.7358	0.9459	0.075
Mof_H 	H 	0.32	0.7556	0.9551	0.007
Mof_C 	C 	0.3225	0.72	0.9184	-0.132
Mof_H 	H 	0.3422	0.7301	0.9084	0.086
Mof_C 	C 	0.1905	0.7642	0.9459	0.075
Mof_H 	H 	0.18	0.7444	0.9551	0.007
Mof_C 	C 	0.1775	0.78	0.9184	-0.132
Mof_H 	H 	0.1578	0.7699	0.9084	0.085
Mof_C 	C 	0.1905	0.2642	0.4459	0.074
Mof_H 	H 	0.18	0.2444	0.4551	0.005
Mof_C 	C 	0.1775	0.28	0.4184	-0.133
Mof_H 	H 	0.1578	0.2699	0.4084	0.085
Mof_C 	C 	0.6905	0.7642	0.4459	0.074
Mof_H 	H 	0.68	0.7444	0.4551	0.005
Mof_C 	C 	0.6775	0.78	0.4184	-0.133
Mof_H 	H 	0.6578	0.7699	0.4084	0.085
Mof_C 	C 	0.6905	0.2642	0.9459	0.074
Mof_H 	H 	0.68	0.2444	0.9551	0.006
Mof_C 	C 	0.6775	0.28	0.9184	-0.133
Mof_H 	H 	0.6578	0.2699	0.9084	0.085
Mof_C 	C 	0.0541	0.1905	0.2358	0.074
Mof_H 	H 	0.0449	0.18	0.2556	0.005
Mof_C 	C 	0.0816	0.1775	0.22	-0.133
Mof_H 	H 	0.0916	0.1578	0.2301	0.085
Mof_C 	C 	0.0541	0.6905	0.7358	0.074
Mof_H 	H 	0.0449	0.68	0.7556	0.005
Mof_C 	C 	0.0816	0.6775	0.72	-0.133
Mof_H 	H 	0.0916	0.6578	0.7301	0.085
Mof_C 	C 	0.5541	0.1905	0.7358	0.074
Mof_H 	H 	0.5449	0.18	0.7556	0.005
Mof_C 	C 	0.5816	0.1775	0.72	-0.133
Mof_H 	H 	0.5916	0.1578	0.7301	0.085
Mof_C 	C 	0.5541	0.6905	0.2358	0.074
Mof_H 	H 	0.5449	0.68	0.2556	0.005
Mof_C 	C 	0.5816	0.6775	0.22	-0.133
Mof_H 	H 	0.5916	0.6578	0.2301	0.085
Mof_C 	C 	0.0541	0.8095	0.7642	0.074
Mof_H 	H 	0.0449	0.82	0.7444	0.005
Mof_C 	C 	0.0816	0.8225	0.78	-0.133
Mof_H 	H 	0.0916	0.8422	0.7699	0.085
Mof_C 	C 	0.0541	0.3095	0.2642	0.074
Mof_H 	H 	0.0449	0.32	0.2444	0.005
Mof_C 	C 	0.0816	0.3225	0.28	-0.133
Mof_H 	H 	0.0916	0.3422	0.2699	0.085
Mof_C 	C 	0.5541	0.8095	0.2642	0.074
Mof_H 	H 	0.5449	0.82	0.2444	0.005
Mof_C 	C 	0.5816	0.8225	0.28	-0.133
Mof_H 	H 	0.5916	0.8422	0.2699	0.085
Mof_C 	C 	0.5541	0.3095	0.7642	0.074
Mof_H 	H 	0.5449	0.32	0.7444	0.005
Mof_C 	C 	0.5816	0.3225	0.78	-0.133
Mof_H 	H 	0.5916	0.3422	0.7699	0.085
Mof_C 	C 	0.9459	0.8095	0.2358	0.074
Mof_H 	H 	0.9551	0.82	0.2556	0.006
Mof_C 	C 	0.9184	0.8225	0.22	-0.133
Mof_H 	H 	0.9084	0.8422	0.2301	0.085
Mof_C 	C 	0.9459	0.3095	0.7358	0.074
Mof_H 	H 	0.9551	0.32	0.7556	0.006
Mof_C 	C 	0.9184	0.3225	0.72	-0.133
Mof_H 	H 	0.9084	0.3422	0.7301	0.085
Mof_C 	C 	0.4459	0.8095	0.7358	0.074
Mof_H 	H 	0.4551	0.82	0.7556	0.005
Mof_C 	C 	0.4184	0.8225	0.72	-0.133
Mof_H 	H 	0.4084	0.8422	0.7301	0.085
Mof_C 	C 	0.4459	0.3095	0.2358	0.074
Mof_H 	H 	0.4551	0.32	0.2556	0.005
Mof_C 	C 	0.4184	0.3225	0.22	-0.133
Mof_H 	H 	0.4084	0.3422	0.2301	0.085
Mof_C 	C 	0.9459	0.1905	0.7642	0.074
Mof_H 	H 	0.9551	0.18	0.7444	0.006
Mof_C 	C 	0.9184	0.1775	0.78	-0.133
Mof_H 	H 	0.9084	0.1578	0.7699	0.085
Mof_C 	C 	0.9459	0.6905	0.2642	0.074
Mof_H 	H 	0.9551	0.68	0.2444	0.006
Mof_C 	C 	0.9184	0.6775	0.28	-0.133
Mof_H 	H 	0.9084	0.6578	0.2699	0.085
Mof_C 	C 	0.4459	0.1905	0.2642	0.074
Mof_H 	H 	0.4551	0.18	0.2444	0.005
Mof_C 	C 	0.4184	0.1775	0.28	-0.133
Mof_H 	H 	0.4084	0.1578	0.2699	0.085
Mof_C 	C 	0.4459	0.6905	0.7642	0.074
Mof_H 	H 	0.4551	0.68	0.7444	0.005
Mof_C 	C 	0.4184	0.6775	0.78	-0.133
Mof_H 	H 	0.4084	0.6578	0.7699	0.085
Mof_C 	C 	0.2358	0.0541	0.1905	0.074
Mof_H 	H 	0.2556	0.0449	0.18	0.005
Mof_C 	C 	0.22	0.0816	0.1775	-0.133
Mof_H 	H 	0.2301	0.0916	0.1578	0.085
Mof_C 	C 	0.2358	0.5541	0.6905	0.074
Mof_H 	H 	0.2556	0.5449	0.68	0.005
Mof_C 	C 	0.22	0.5816	0.6775	-0.133
Mof_H 	H 	0.2301	0.5916	0.6578	0.085
Mof_C 	C 	0.7358	0.0541	0.6905	0.074
Mof_H 	H 	0.7556	0.0449	0.68	0.005
Mof_C 	C 	0.72	0.0816	0.6775	-0.133
Mof_H 	H 	0.7301	0.0916	0.6578	0.085
Mof_C 	C 	0.7358	0.5541	0.1905	0.074
Mof_H 	H 	0.7556	0.5449	0.18	0.005
Mof_C 	C 	0.72	0.5816	0.1775	-0.133
Mof_H 	H 	0.7301	0.5916	0.1578	0.085
Mof_C 	C 	0.7642	0.0541	0.8095	0.074
Mof_H 	H 	0.7444	0.0449	0.82	0.005
Mof_C 	C 	0.78	0.0816	0.8225	-0.133
Mof_H 	H 	0.7699	0.0916	0.8422	0.085
Mof_C 	C 	0.7642	0.5541	0.3095	0.074
Mof_H 	H 	0.7444	0.5449	0.32	0.005
Mof_C 	C 	0.78	0.5816	0.3225	-0.133
Mof_H 	H 	0.7699	0.5916	0.3422	0.085
Mof_C 	C 	0.2642	0.0541	0.3095	0.074
Mof_H 	H 	0.2444	0.0449	0.32	0.005
Mof_C 	C 	0.28	0.0816	0.3225	-0.133
Mof_H 	H 	0.2699	0.0916	0.3422	0.085
Mof_C 	C 	0.2642	0.5541	0.8095	0.074
Mof_H 	H 	0.2444	0.5449	0.82	0.005
Mof_C 	C 	0.28	0.5816	0.8225	-0.133
Mof_H 	H 	0.2699	0.5916	0.8422	0.085
Mof_C 	C 	0.2358	0.9459	0.8095	0.074
Mof_H 	H 	0.2556	0.9551	0.82	0.006
Mof_C 	C 	0.22	0.9184	0.8225	-0.133
Mof_H 	H 	0.2301	0.9084	0.8422	0.085
Mof_C 	C 	0.2358	0.4459	0.3095	0.074
Mof_H 	H 	0.2556	0.4551	0.32	0.005
Mof_C 	C 	0.22	0.4184	0.3225	-0.133
Mof_H 	H 	0.2301	0.4084	0.3422	0.085
Mof_C 	C 	0.7358	0.9459	0.3095	0.074
Mof_H 	H 	0.7556	0.9551	0.32	0.006
Mof_C 	C 	0.72	0.9184	0.3225	-0.133
Mof_H 	H 	0.7301	0.9084	0.3422	0.085
Mof_C 	C 	0.7358	0.4459	0.8095	0.074
Mof_H 	H 	0.7556	0.4551	0.82	0.005
Mof_C 	C 	0.72	0.4184	0.8225	-0.133
Mof_H 	H 	0.7301	0.4084	0.8422	0.085
Mof_C 	C 	0.7642	0.9459	0.1905	0.074
Mof_H 	H 	0.7444	0.9551	0.18	0.006
Mof_C 	C 	0.78	0.9184	0.1775	-0.133
Mof_H 	H 	0.7699	0.9084	0.1578	0.085
Mof_C 	C 	0.7642	0.4459	0.6905	0.074
Mof_H 	H 	0.7444	0.4551	0.68	0.005
Mof_C 	C 	0.78	0.4184	0.6775	-0.133
Mof_H 	H 	0.7699	0.4084	0.6578	0.085
Mof_C 	C 	0.2642	0.9459	0.6905	0.074
Mof_H 	H 	0.2444	0.9551	0.68	0.006
Mof_C 	C 	0.28	0.9184	0.6775	-0.133
Mof_H 	H 	0.2699	0.9084	0.6578	0.085
Mof_C 	C 	0.2642	0.4459	0.1905	0.074
Mof_H 	H 	0.2444	0.4551	0.18	0.005
Mof_C 	C 	0.28	0.4184	0.1775	-0.133
Mof_H 	H 	0.2699	0.4084	0.1578	0.085
Mof_C 	C 	0.2358	0.1905	0.9459	0.074
Mof_H 	H 	0.2556	0.18	0.9551	0.006
Mof_C 	C 	0.22	0.1775	0.9184	-0.133
Mof_H 	H 	0.2301	0.1578	0.9084	0.085
Mof_C 	C 	0.2358	0.6905	0.4459	0.074
Mof_H 	H 	0.2556	0.68	0.4551	0.005
Mof_C 	C 	0.22	0.6775	0.4184	-0.133
Mof_H 	H 	0.2301	0.6578	0.4084	0.085
Mof_C 	C 	0.7358	0.1905	0.4459	0.074
Mof_H 	H 	0.7556	0.18	0.4551	0.005
Mof_C 	C 	0.72	0.1775	0.4184	-0.133
Mof_H 	H 	0.7301	0.1578	0.4084	0.085
Mof_C 	C 	0.7358	0.6905	0.9459	0.074
Mof_H 	H 	0.7556	0.68	0.9551	0.006
Mof_C 	C 	0.72	0.6775	0.9184	-0.133
Mof_H 	H 	0.7301	0.6578	0.9084	0.085
Mof_C 	C 	0.7642	0.8095	0.9459	0.074
Mof_H 	H 	0.7444	0.82	0.9551	0.006
Mof_C 	C 	0.78	0.8225	0.9184	-0.133
Mof_H 	H 	0.7699	0.8422	0.9084	0.085
Mof_C 	C 	0.7642	0.3095	0.4459	0.074
Mof_H 	H 	0.7444	0.32	0.4551	0.005
Mof_C 	C 	0.78	0.3225	0.4184	-0.133
Mof_H 	H 	0.7699	0.3422	0.4084	0.085
Mof_C 	C 	0.2642	0.8095	0.4459	0.074
Mof_H 	H 	0.2444	0.82	0.4551	0.005
Mof_C 	C 	0.28	0.8225	0.4184	-0.133
Mof_H 	H 	0.2699	0.8422	0.4084	0.085
Mof_C 	C 	0.2642	0.3095	0.9459	0.074
Mof_H 	H 	0.2444	0.32	0.9551	0.006
Mof_C 	C 	0.28	0.3225	0.9184	-0.133
Mof_H 	H 	0.2699	0.3422	0.9084	0.085
Mof_C 	C 	0.2358	0.8095	0.0541	0.074
Mof_H 	H 	0.2556	0.82	0.0449	0.005
Mof_C 	C 	0.22	0.8225	0.0816	-0.133
Mof_H 	H 	0.2301	0.8422	0.0916	0.085
Mof_C 	C 	0.2358	0.3095	0.5541	0.074
Mof_H 	H 	0.2556	0.32	0.5449	0.005
Mof_C 	C 	0.22	0.3225	0.5816	-0.133
Mof_H 	H 	0.2301	0.3422	0.5916	0.085
Mof_C 	C 	0.7358	0.8095	0.5541	0.074
Mof_H 	H 	0.7556	0.82	0.5449	0.005
Mof_C 	C 	0.72	0.8225	0.5816	-0.133
Mof_H 	H 	0.7301	0.8422	0.5916	0.085
Mof_C 	C 	0.7358	0.3095	0.0541	0.074
Mof_H 	H 	0.7556	0.32	0.0449	0.005
Mof_C 	C 	0.72	0.3225	0.0816	-0.133
Mof_H 	H 	0.7301	0.3422	0.0916	0.085
Mof_C 	C 	0.7642	0.1905	0.0541	0.074
Mof_H 	H 	0.7444	0.18	0.0449	0.005
Mof_C 	C 	0.78	0.1775	0.0816	-0.133
Mof_H 	H 	0.7699	0.1578	0.0916	0.085
Mof_C 	C 	0.7642	0.6905	0.5541	0.074
Mof_H 	H 	0.7444	0.68	0.5449	0.005
Mof_C 	C 	0.78	0.6775	0.5816	-0.133
Mof_H 	H 	0.7699	0.6578	0.5916	0.085
Mof_C 	C 	0.2642	0.1905	0.5541	0.074
Mof_H 	H 	0.2444	0.18	0.5449	0.005
Mof_C 	C 	0.28	0.1775	0.5816	-0.133
Mof_H 	H 	0.2699	0.1578	0.5916	0.085
Mof_C 	C 	0.2642	0.6905	0.0541	0.074
Mof_H 	H 	0.2444	0.68	0.0449	0.005
Mof_C 	C 	0.28	0.6775	0.0816	-0.133
Mof_H 	H 	0.2699	0.6578	0.0916	0.085
Mof_C 	C 	0.1905	0.0541	0.7642	0.074
Mof_H 	H 	0.18	0.0449	0.7444	0.005
Mof_C 	C 	0.1775	0.0816	0.78	-0.133
Mof_H 	H 	0.1578	0.0916	0.7699	0.085
Mof_C 	C 	0.1905	0.5541	0.2642	0.074
Mof_H 	H 	0.18	0.5449	0.2444	0.005
Mof_C 	C 	0.1775	0.5816	0.28	-0.133
Mof_H 	H 	0.1578	0.5916	0.2699	0.085
Mof_C 	C 	0.6905	0.0541	0.2642	0.074
Mof_H 	H 	0.68	0.0449	0.2444	0.005
Mof_C 	C 	0.6775	0.0816	0.28	-0.133
Mof_H 	H 	0.6578	0.0916	0.2699	0.085
Mof_C 	C 	0.6905	0.5541	0.7642	0.074
Mof_H 	H 	0.68	0.5449	0.7444	0.005
Mof_C 	C 	0.6775	0.5816	0.78	-0.133
Mof_H 	H 	0.6578	0.5916	0.7699	0.085
Mof_C 	C 	0.8095	0.0541	0.2358	0.074
Mof_H 	H 	0.82	0.0449	0.2556	0.005
Mof_C 	C 	0.8225	0.0816	0.22	-0.133
Mof_H 	H 	0.8422	0.0916	0.2301	0.085
Mof_C 	C 	0.8095	0.5541	0.7358	0.074
Mof_H 	H 	0.82	0.5449	0.7556	0.005
Mof_C 	C 	0.8225	0.5816	0.72	-0.133
Mof_H 	H 	0.8422	0.5916	0.7301	0.085
Mof_C 	C 	0.3095	0.0541	0.7358	0.074
Mof_H 	H 	0.32	0.0449	0.7556	0.005
Mof_C 	C 	0.3225	0.0816	0.72	-0.133
Mof_H 	H 	0.3422	0.0916	0.7301	0.085
Mof_C 	C 	0.3095	0.5541	0.2358	0.074
Mof_H 	H 	0.32	0.5449	0.2556	0.005
Mof_C 	C 	0.3225	0.5816	0.22	-0.133
Mof_H 	H 	0.3422	0.5916	0.2301	0.085
Mof_C 	C 	0.8095	0.9459	0.7642	0.074
Mof_H 	H 	0.82	0.9551	0.7444	0.006
Mof_C 	C 	0.8225	0.9184	0.78	-0.133
Mof_H 	H 	0.8422	0.9084	0.7699	0.085
Mof_C 	C 	0.8095	0.4459	0.2642	0.074
Mof_H 	H 	0.82	0.4551	0.2444	0.005
Mof_C 	C 	0.8225	0.4184	0.28	-0.133
Mof_H 	H 	0.8422	0.4084	0.2699	0.085
Mof_C 	C 	0.3095	0.9459	0.2642	0.074
Mof_H 	H 	0.32	0.9551	0.2444	0.006
Mof_C 	C 	0.3225	0.9184	0.28	-0.133
Mof_H 	H 	0.3422	0.9084	0.2699	0.085
Mof_C 	C 	0.3095	0.4459	0.7642	0.074
Mof_H 	H 	0.32	0.4551	0.7444	0.005
Mof_C 	C 	0.3225	0.4184	0.78	-0.133
Mof_H 	H 	0.3422	0.4084	0.7699	0.085
Mof_C 	C 	0.1905	0.9459	0.2358	0.074
Mof_H 	H 	0.18	0.9551	0.2556	0.006
Mof_C 	C 	0.1775	0.9184	0.22	-0.133
Mof_H 	H 	0.1578	0.9084	0.2301	0.085
Mof_C 	C 	0.1905	0.4459	0.7358	0.074
Mof_H 	H 	0.18	0.4551	0.7556	0.005
Mof_C 	C 	0.1775	0.4184	0.72	-0.133
Mof_H 	H 	0.1578	0.4084	0.7301	0.085
Mof_C 	C 	0.6905	0.9459	0.7358	0.074
Mof_H 	H 	0.68	0.9551	0.7556	0.006
Mof_C 	C 	0.6775	0.9184	0.72	-0.133
Mof_H 	H 	0.6578	0.9084	0.7301	0.085
Mof_C 	C 	0.6905	0.4459	0.2358	0.074
Mof_H 	H 	0.68	0.4551	0.2556	0.005
Mof_C 	C 	0.6775	0.4184	0.22	-0.133
Mof_H 	H 	0.6578	0.4084	0.2301	0.085
Mof_C 	C 	0.0541	0.2358	0.8095	0.074
Mof_H 	H 	0.0449	0.2556	0.82	0.005
Mof_C 	C 	0.0816	0.22	0.8225	-0.133
Mof_H 	H 	0.0916	0.2301	0.8422	0.085
Mof_C 	C 	0.0541	0.7358	0.3095	0.074
Mof_H 	H 	0.0449	0.7556	0.32	0.005
Mof_C 	C 	0.0816	0.72	0.3225	-0.133
Mof_H 	H 	0.0916	0.7301	0.3422	0.085
Mof_C 	C 	0.5541	0.2358	0.3095	0.074
Mof_H 	H 	0.5449	0.2556	0.32	0.005
Mof_C 	C 	0.5816	0.22	0.3225	-0.133
Mof_H 	H 	0.5916	0.2301	0.3422	0.085
Mof_C 	C 	0.5541	0.7358	0.8095	0.074
Mof_H 	H 	0.5449	0.7556	0.82	0.005
Mof_C 	C 	0.5816	0.72	0.8225	-0.133
Mof_H 	H 	0.5916	0.7301	0.8422	0.085
Mof_C 	C 	0.0541	0.7642	0.1905	0.074
Mof_H 	H 	0.0449	0.7444	0.18	0.005
Mof_C 	C 	0.0816	0.78	0.1775	-0.133
Mof_H 	H 	0.0916	0.7699	0.1578	0.085
Mof_C 	C 	0.0541	0.2642	0.6905	0.074
Mof_H 	H 	0.0449	0.2444	0.68	0.005
Mof_C 	C 	0.0816	0.28	0.6775	-0.133
Mof_H 	H 	0.0916	0.2699	0.6578	0.085
Mof_C 	C 	0.5541	0.7642	0.6905	0.074
Mof_H 	H 	0.5449	0.7444	0.68	0.005
Mof_C 	C 	0.5816	0.78	0.6775	-0.133
Mof_H 	H 	0.5916	0.7699	0.6578	0.085
Mof_C 	C 	0.5541	0.2642	0.1905	0.074
Mof_H 	H 	0.5449	0.2444	0.18	0.005
Mof_C 	C 	0.5816	0.28	0.1775	-0.133
Mof_H 	H 	0.5916	0.2699	0.1578	0.085
Mof_C 	C 	0.9459	0.2358	0.1905	0.074
Mof_H 	H 	0.9551	0.2556	0.18	0.006
Mof_C 	C 	0.9184	0.22	0.1775	-0.133
Mof_H 	H 	0.9084	0.2301	0.1578	0.085
Mof_C 	C 	0.9459	0.7358	0.6905	0.074
Mof_H 	H 	0.9551	0.7556	0.68	0.006
Mof_C 	C 	0.9184	0.72	0.6775	-0.133
Mof_H 	H 	0.9084	0.7301	0.6578	0.085
Mof_C 	C 	0.4459	0.2358	0.6905	0.074
Mof_H 	H 	0.4551	0.2556	0.68	0.005
Mof_C 	C 	0.4184	0.22	0.6775	-0.133
Mof_H 	H 	0.4084	0.2301	0.6578	0.085
Mof_C 	C 	0.4459	0.7358	0.1905	0.074
Mof_H 	H 	0.4551	0.7556	0.18	0.005
Mof_C 	C 	0.4184	0.72	0.1775	-0.133
Mof_H 	H 	0.4084	0.7301	0.1578	0.085
Mof_C 	C 	0.9459	0.7642	0.8095	0.074
Mof_H 	H 	0.9551	0.7444	0.82	0.006
Mof_C 	C 	0.9184	0.78	0.8225	-0.133
Mof_H 	H 	0.9084	0.7699	0.8422	0.085
Mof_C 	C 	0.9459	0.2642	0.3095	0.074
Mof_H 	H 	0.9551	0.2444	0.32	0.006
Mof_C 	C 	0.9184	0.28	0.3225	-0.133
Mof_H 	H 	0.9084	0.2699	0.3422	0.085
Mof_C 	C 	0.4459	0.7642	0.3095	0.074
Mof_H 	H 	0.4551	0.7444	0.32	0.005
Mof_C 	C 	0.4184	0.78	0.3225	-0.133
Mof_H 	H 	0.4084	0.7699	0.3422	0.085
Mof_C 	C 	0.4459	0.2642	0.8095	0.074
Mof_H 	H 	0.4551	0.2444	0.82	0.005
Mof_C 	C 	0.4184	0.28	0.8225	-0.133
Mof_H 	H 	0.4084	0.2699	0.8422	0.085
Mof_C 	C 	0.8095	0.7642	0.9459	0.074
Mof_H 	H 	0.82	0.7444	0.9551	0.006
Mof_C 	C 	0.8225	0.78	0.9184	-0.133
Mof_H 	H 	0.8422	0.7699	0.9084	0.085
Mof_C 	C 	0.8095	0.2642	0.4459	0.074
Mof_H 	H 	0.82	0.2444	0.4551	0.005
Mof_C 	C 	0.8225	0.28	0.4184	-0.133
Mof_H 	H 	0.8422	0.2699	0.4084	0.085
Mof_C 	C 	0.3095	0.7642	0.4459	0.074
Mof_H 	H 	0.32	0.7444	0.4551	0.005
Mof_C 	C 	0.3225	0.78	0.4184	-0.133
Mof_H 	H 	0.3422	0.7699	0.4084	0.085
Mof_C 	C 	0.3095	0.2642	0.9459	0.074
Mof_H 	H 	0.32	0.2444	0.9551	0.006
Mof_C 	C 	0.3225	0.28	0.9184	-0.133
Mof_H 	H 	0.3422	0.2699	0.9084	0.085
Mof_C 	C 	0.1905	0.2358	0.9459	0.074
Mof_H 	H 	0.18	0.2556	0.9551	0.006
Mof_C 	C 	0.1775	0.22	0.9184	-0.133
Mof_H 	H 	0.1578	0.2301	0.9084	0.085
Mof_C 	C 	0.1905	0.7358	0.4459	0.074
Mof_H 	H 	0.18	0.7556	0.4551	0.005
Mof_C 	C 	0.1775	0.72	0.4184	-0.133
Mof_H 	H 	0.1578	0.7301	0.4084	0.085
Mof_C 	C 	0.6905	0.2358	0.4459	0.074
Mof_H 	H 	0.68	0.2556	0.4551	0.005
Mof_C 	C 	0.6775	0.22	0.4184	-0.133
Mof_H 	H 	0.6578	0.2301	0.4084	0.085
Mof_C 	C 	0.6905	0.7358	0.9459	0.074
Mof_H 	H 	0.68	0.7556	0.9551	0.006
Mof_C 	C 	0.6775	0.72	0.9184	-0.133
Mof_H 	H 	0.6578	0.7301	0.9084	0.085
Mof_C 	C 	0.1905	0.7642	0.0541	0.074
Mof_H 	H 	0.18	0.7444	0.0449	0.005
Mof_C 	C 	0.1775	0.78	0.0816	-0.133
Mof_H 	H 	0.1578	0.7699	0.0916	0.085
Mof_C 	C 	0.1905	0.2642	0.5541	0.074
Mof_H 	H 	0.18	0.2444	0.5449	0.005
Mof_C 	C 	0.1775	0.28	0.5816	-0.133
Mof_H 	H 	0.1578	0.2699	0.5916	0.085
Mof_C 	C 	0.6905	0.7642	0.5541	0.074
Mof_H 	H 	0.68	0.7444	0.5449	0.005
Mof_C 	C 	0.6775	0.78	0.5816	-0.133
Mof_H 	H 	0.6578	0.7699	0.5916	0.085
Mof_C 	C 	0.6905	0.2642	0.0541	0.074
Mof_H 	H 	0.68	0.2444	0.0449	0.005
Mof_C 	C 	0.6775	0.28	0.0816	-0.133
Mof_H 	H 	0.6578	0.2699	0.0916	0.085
Mof_C 	C 	0.8095	0.2358	0.0541	0.074
Mof_H 	H 	0.82	0.2556	0.0449	0.005
Mof_C 	C 	0.8225	0.22	0.0816	-0.133
Mof_H 	H 	0.8422	0.2301	0.0916	0.085
Mof_C 	C 	0.8095	0.7358	0.5541	0.074
Mof_H 	H 	0.82	0.7556	0.5449	0.005
Mof_C 	C 	0.8225	0.72	0.5816	-0.133
Mof_H 	H 	0.8422	0.7301	0.5916	0.085
Mof_C 	C 	0.3095	0.2358	0.5541	0.074
Mof_H 	H 	0.32	0.2556	0.5449	0.005
Mof_C 	C 	0.3225	0.22	0.5816	-0.133
Mof_H 	H 	0.3422	0.2301	0.5916	0.085
Mof_C 	C 	0.3095	0.7358	0.0541	0.074
Mof_H 	H 	0.32	0.7556	0.0449	0.005
Mof_C 	C 	0.3225	0.72	0.0816	-0.133
Mof_H 	H 	0.3422	0.7301	0.0916	0.085
Mof_C 	C 	0.9459	0.8095	0.7642	0.074
Mof_H 	H 	0.9551	0.82	0.7444	0.006
Mof_C 	C 	0.9184	0.8225	0.78	-0.133
Mof_H 	H 	0.9084	0.8422	0.7699	0.085
Mof_C 	C 	0.9459	0.3095	0.2642	0.074
Mof_H 	H 	0.9551	0.32	0.2444	0.006
Mof_C 	C 	0.9184	0.3225	0.28	-0.133
Mof_H 	H 	0.9084	0.3422	0.2699	0.085
Mof_C 	C 	0.4459	0.8095	0.2642	0.074
Mof_H 	H 	0.4551	0.82	0.2444	0.005
Mof_C 	C 	0.4184	0.8225	0.28	-0.133
Mof_H 	H 	0.4084	0.8422	0.2699	0.085
Mof_C 	C 	0.4459	0.3095	0.7642	0.074
Mof_H 	H 	0.4551	0.32	0.7444	0.005
Mof_C 	C 	0.4184	0.3225	0.78	-0.133
Mof_H 	H 	0.4084	0.3422	0.7699	0.085
Mof_C 	C 	0.9459	0.1905	0.2358	0.074
Mof_H 	H 	0.9551	0.18	0.2556	0.006
Mof_C 	C 	0.9184	0.1775	0.22	-0.133
Mof_H 	H 	0.9084	0.1578	0.2301	0.085
Mof_C 	C 	0.9459	0.6905	0.7358	0.074
Mof_H 	H 	0.9551	0.68	0.7556	0.006
Mof_C 	C 	0.9184	0.6775	0.72	-0.133
Mof_H 	H 	0.9084	0.6578	0.7301	0.085
Mof_C 	C 	0.4459	0.1905	0.7358	0.074
Mof_H 	H 	0.4551	0.18	0.7556	0.005
Mof_C 	C 	0.4184	0.1775	0.72	-0.133
Mof_H 	H 	0.4084	0.1578	0.7301	0.085
Mof_C 	C 	0.4459	0.6905	0.2358	0.074
Mof_H 	H 	0.4551	0.68	0.2556	0.005
Mof_C 	C 	0.4184	0.6775	0.22	-0.133
Mof_H 	H 	0.4084	0.6578	0.2301	0.085
Mof_C 	C 	0.0541	0.1905	0.7642	0.074
Mof_H 	H 	0.0449	0.18	0.7444	0.005
Mof_C 	C 	0.0816	0.1775	0.78	-0.133
Mof_H 	H 	0.0916	0.1578	0.7699	0.085
Mof_C 	C 	0.0541	0.6905	0.2642	0.074
Mof_H 	H 	0.0449	0.68	0.2444	0.005
Mof_C 	C 	0.0816	0.6775	0.28	-0.133
Mof_H 	H 	0.0916	0.6578	0.2699	0.085
Mof_C 	C 	0.5541	0.1905	0.2642	0.074
Mof_H 	H 	0.5449	0.18	0.2444	0.005
Mof_C 	C 	0.5816	0.1775	0.28	-0.133
Mof_H 	H 	0.5916	0.1578	0.2699	0.085
Mof_C 	C 	0.5541	0.6905	0.7642	0.074
Mof_H 	H 	0.5449	0.68	0.7444	0.005
Mof_C 	C 	0.5816	0.6775	0.78	-0.133
Mof_H 	H 	0.5916	0.6578	0.7699	0.085
Mof_C 	C 	0.0541	0.8095	0.2358	0.074
Mof_H 	H 	0.0449	0.82	0.2556	0.005
Mof_C 	C 	0.0816	0.8225	0.22	-0.133
Mof_H 	H 	0.0916	0.8422	0.2301	0.085
Mof_C 	C 	0.0541	0.3095	0.7358	0.074
Mof_H 	H 	0.0449	0.32	0.7556	0.005
Mof_C 	C 	0.0816	0.3225	0.72	-0.133
Mof_H 	H 	0.0916	0.3422	0.7301	0.085
Mof_C 	C 	0.5541	0.8095	0.7358	0.074
Mof_H 	H 	0.5449	0.82	0.7556	0.005
Mof_C 	C 	0.5816	0.8225	0.72	-0.133
Mof_H 	H 	0.5916	0.8422	0.7301	0.085
Mof_C 	C 	0.5541	0.3095	0.2358	0.074
Mof_H 	H 	0.5449	0.32	0.2556	0.005
Mof_C 	C 	0.5816	0.3225	0.22	-0.133
Mof_H 	H 	0.5916	0.3422	0.2301	0.085
Mof_C 	C 	0.7642	0.9459	0.8095	0.074
Mof_H 	H 	0.7444	0.9551	0.82	0.006
Mof_C 	C 	0.78	0.9184	0.8225	-0.133
Mof_H 	H 	0.7699	0.9084	0.8422	0.085
Mof_C 	C 	0.7642	0.4459	0.3095	0.074
Mof_H 	H 	0.7444	0.4551	0.32	0.005
Mof_C 	C 	0.78	0.4184	0.3225	-0.133
Mof_H 	H 	0.7699	0.4084	0.3422	0.085
Mof_C 	C 	0.2642	0.9459	0.3095	0.074
Mof_H 	H 	0.2444	0.9551	0.32	0.006
Mof_C 	C 	0.28	0.9184	0.3225	-0.133
Mof_H 	H 	0.2699	0.9084	0.3422	0.085
Mof_C 	C 	0.2642	0.4459	0.8095	0.074
Mof_H 	H 	0.2444	0.4551	0.82	0.005
Mof_C 	C 	0.28	0.4184	0.8225	-0.133
Mof_H 	H 	0.2699	0.4084	0.8422	0.085
Mof_C 	C 	0.2358	0.9459	0.1905	0.074
Mof_H 	H 	0.2556	0.9551	0.18	0.006
Mof_C 	C 	0.22	0.9184	0.1775	-0.133
Mof_H 	H 	0.2301	0.9084	0.1578	0.085
Mof_C 	C 	0.2358	0.4459	0.6905	0.074
Mof_H 	H 	0.2556	0.4551	0.68	0.005
Mof_C 	C 	0.22	0.4184	0.6775	-0.133
Mof_H 	H 	0.2301	0.4084	0.6578	0.085
Mof_C 	C 	0.7358	0.9459	0.6905	0.074
Mof_H 	H 	0.7556	0.9551	0.68	0.006
Mof_C 	C 	0.72	0.9184	0.6775	-0.133
Mof_H 	H 	0.7301	0.9084	0.6578	0.085
Mof_C 	C 	0.7358	0.4459	0.1905	0.074
Mof_H 	H 	0.7556	0.4551	0.18	0.005
Mof_C 	C 	0.72	0.4184	0.1775	-0.133
Mof_H 	H 	0.7301	0.4084	0.1578	0.085
Mof_C 	C 	0.7642	0.0541	0.1905	0.074
Mof_H 	H 	0.7444	0.0449	0.18	0.005
Mof_C 	C 	0.78	0.0816	0.1775	-0.133
Mof_H 	H 	0.7699	0.0916	0.1578	0.085
Mof_C 	C 	0.7642	0.5541	0.6905	0.074
Mof_H 	H 	0.7444	0.5449	0.68	0.005
Mof_C 	C 	0.78	0.5816	0.6775	-0.133
Mof_H 	H 	0.7699	0.5916	0.6578	0.085
Mof_C 	C 	0.2642	0.0541	0.6905	0.074
Mof_H 	H 	0.2444	0.0449	0.68	0.005
Mof_C 	C 	0.28	0.0816	0.6775	-0.133
Mof_H 	H 	0.2699	0.0916	0.6578	0.085
Mof_C 	C 	0.2642	0.5541	0.1905	0.074
Mof_H 	H 	0.2444	0.5449	0.18	0.005
Mof_C 	C 	0.28	0.5816	0.1775	-0.133
Mof_H 	H 	0.2699	0.5916	0.1578	0.085
Mof_C 	C 	0.2358	0.0541	0.8095	0.074
Mof_H 	H 	0.2556	0.0449	0.82	0.005
Mof_C 	C 	0.22	0.0816	0.8225	-0.133
Mof_H 	H 	0.2301	0.0916	0.8422	0.085
Mof_C 	C 	0.2358	0.5541	0.3095	0.074
Mof_H 	H 	0.2556	0.5449	0.32	0.005
Mof_C 	C 	0.22	0.5816	0.3225	-0.133
Mof_H 	H 	0.2301	0.5916	0.3422	0.085
Mof_C 	C 	0.7358	0.0541	0.3095	0.074
Mof_H 	H 	0.7556	0.0449	0.32	0.005
Mof_C 	C 	0.72	0.0816	0.3225	-0.133
Mof_H 	H 	0.7301	0.0916	0.3422	0.085
Mof_C 	C 	0.7358	0.5541	0.8095	0.074
Mof_H 	H 	0.7556	0.5449	0.82	0.005
Mof_C 	C 	0.72	0.5816	0.8225	-0.133
Mof_H 	H 	0.7301	0.5916	0.8422	0.085
Mof_C 	C 	0.7642	0.8095	0.0541	0.074
Mof_H 	H 	0.7444	0.82	0.0449	0.005
Mof_C 	C 	0.78	0.8225	0.0816	-0.133
Mof_H 	H 	0.7699	0.8422	0.0916	0.085
Mof_C 	C 	0.7642	0.3095	0.5541	0.074
Mof_H 	H 	0.7444	0.32	0.5449	0.005
Mof_C 	C 	0.78	0.3225	0.5816	-0.133
Mof_H 	H 	0.7699	0.3422	0.5916	0.085
Mof_C 	C 	0.2642	0.8095	0.5541	0.074
Mof_H 	H 	0.2444	0.82	0.5449	0.005
Mof_C 	C 	0.28	0.8225	0.5816	-0.133
Mof_H 	H 	0.2699	0.8422	0.5916	0.085
Mof_C 	C 	0.2642	0.3095	0.0541	0.074
Mof_H 	H 	0.2444	0.32	0.0449	0.005
Mof_C 	C 	0.28	0.3225	0.0816	-0.133
Mof_H 	H 	0.2699	0.3422	0.0916	0.085
Mof_C 	C 	0.2358	0.1905	0.0541	0.074
Mof_H 	H 	0.2556	0.18	0.0449	0.005
Mof_C 	C 	0.22	0.1775	0.0816	-0.133
Mof_H 	H 	0.2301	0.1578	0.0916	0.085
Mof_C 	C 	0.2358	0.6905	0.5541	0.074
Mof_H 	H 	0.2556	0.68	0.5449	0.005
Mof_C 	C 	0.22	0.6775	0.5816	-0.133
Mof_H 	H 	0.2301	0.6578	0.5916	0.085
Mof_C 	C 	0.7358	0.1905	0.5541	0.074
Mof_H 	H 	0.7556	0.18	0.5449	0.005
Mof_C 	C 	0.72	0.1775	0.5816	-0.133
Mof_H 	H 	0.7301	0.1578	0.5916	0.085
Mof_C 	C 	0.7358	0.6905	0.0541	0.074
Mof_H 	H 	0.7556	0.68	0.0449	0.005
Mof_C 	C 	0.72	0.6775	0.0816	-0.133
Mof_H 	H 	0.7301	0.6578	0.0916	0.085
Mof_C 	C 	0.7642	0.1905	0.9459	0.074
Mof_H 	H 	0.7444	0.18	0.9551	0.006
Mof_C 	C 	0.78	0.1775	0.9184	-0.133
Mof_H 	H 	0.7699	0.1578	0.9084	0.085
Mof_C 	C 	0.7642	0.6905	0.4459	0.074
Mof_H 	H 	0.7444	0.68	0.4551	0.005
Mof_C 	C 	0.78	0.6775	0.4184	-0.133
Mof_H 	H 	0.7699	0.6578	0.4084	0.085
Mof_C 	C 	0.2642	0.1905	0.4459	0.074
Mof_H 	H 	0.2444	0.18	0.4551	0.005
Mof_C 	C 	0.28	0.1775	0.4184	-0.133
Mof_H 	H 	0.2699	0.1578	0.4084	0.085
Mof_C 	C 	0.2642	0.6905	0.9459	0.074
Mof_H 	H 	0.2444	0.68	0.9551	0.006
Mof_C 	C 	0.28	0.6775	0.9184	-0.133
Mof_H 	H 	0.2699	0.6578	0.9084	0.085
Mof_C 	C 	0.2358	0.8095	0.9459	0.074
Mof_H 	H 	0.2556	0.82	0.9551	0.006
Mof_C 	C 	0.22	0.8225	0.9184	-0.133
Mof_H 	H 	0.2301	0.8422	0.9084	0.085
Mof_C 	C 	0.2358	0.3095	0.4459	0.074
Mof_H 	H 	0.2556	0.32	0.4551	0.005
Mof_C 	C 	0.22	0.3225	0.4184	-0.133
Mof_H 	H 	0.2301	0.3422	0.4084	0.085
Mof_C 	C 	0.7358	0.8095	0.4459	0.074
Mof_H 	H 	0.7556	0.82	0.4551	0.005
Mof_C 	C 	0.72	0.8225	0.4184	-0.133
Mof_H 	H 	0.7301	0.8422	0.4084	0.085
Mof_C 	C 	0.7358	0.3095	0.9459	0.074
Mof_H 	H 	0.7556	0.32	0.9551	0.006
Mof_C 	C 	0.72	0.3225	0.9184	-0.133
Mof_H 	H 	0.7301	0.3422	0.9084	0.085
Mof_C 	C 	0.8095	0.9459	0.2358	0.074
Mof_H 	H 	0.82	0.9551	0.2556	0.006
Mof_C 	C 	0.8225	0.9184	0.22	-0.133
Mof_H 	H 	0.8422	0.9084	0.2301	0.085
Mof_C 	C 	0.8095	0.4459	0.7358	0.074
Mof_H 	H 	0.82	0.4551	0.7556	0.005
Mof_C 	C 	0.8225	0.4184	0.72	-0.133
Mof_H 	H 	0.8422	0.4084	0.7301	0.085
Mof_C 	C 	0.3095	0.9459	0.7358	0.074
Mof_H 	H 	0.32	0.9551	0.7556	0.006
Mof_C 	C 	0.3225	0.9184	0.72	-0.133
Mof_H 	H 	0.3422	0.9084	0.7301	0.085
Mof_C 	C 	0.3095	0.4459	0.2358	0.074
Mof_H 	H 	0.32	0.4551	0.2556	0.005
Mof_C 	C 	0.3225	0.4184	0.22	-0.133
Mof_H 	H 	0.3422	0.4084	0.2301	0.085
Mof_C 	C 	0.1905	0.9459	0.7642	0.074
Mof_H 	H 	0.18	0.9551	0.7444	0.006
Mof_C 	C 	0.1775	0.9184	0.78	-0.133
Mof_H 	H 	0.1578	0.9084	0.7699	0.085
Mof_C 	C 	0.1905	0.4459	0.2642	0.074
Mof_H 	H 	0.18	0.4551	0.2444	0.005
Mof_C 	C 	0.1775	0.4184	0.28	-0.133
Mof_H 	H 	0.1578	0.4084	0.2699	0.085
Mof_C 	C 	0.6905	0.9459	0.2642	0.074
Mof_H 	H 	0.68	0.9551	0.2444	0.006
Mof_C 	C 	0.6775	0.9184	0.28	-0.133
Mof_H 	H 	0.6578	0.9084	0.2699	0.085
Mof_C 	C 	0.6905	0.4459	0.7642	0.074
Mof_H 	H 	0.68	0.4551	0.7444	0.005
Mof_C 	C 	0.6775	0.4184	0.78	-0.133
Mof_H 	H 	0.6578	0.4084	0.7699	0.085
Mof_C 	C 	0.1905	0.0541	0.2358	0.074
Mof_H 	H 	0.18	0.0449	0.2556	0.005
Mof_C 	C 	0.1775	0.0816	0.22	-0.133
Mof_H 	H 	0.1578	0.0916	0.2301	0.085
Mof_C 	C 	0.1905	0.5541	0.7358	0.074
Mof_H 	H 	0.18	0.5449	0.7556	0.005
Mof_C 	C 	0.1775	0.5816	0.72	-0.133
Mof_H 	H 	0.1578	0.5916	0.7301	0.085
Mof_C 	C 	0.6905	0.0541	0.7358	0.074
Mof_H 	H 	0.68	0.0449	0.7556	0.005
Mof_C 	C 	0.6775	0.0816	0.72	-0.133
Mof_H 	H 	0.6578	0.0916	0.7301	0.085
Mof_C 	C 	0.6905	0.5541	0.2358	0.074
Mof_H 	H 	0.68	0.5449	0.2556	0.005
Mof_C 	C 	0.6775	0.5816	0.22	-0.133
Mof_H 	H 	0.6578	0.5916	0.2301	0.085
Mof_C 	C 	0.8095	0.0541	0.7642	0.074
Mof_H 	H 	0.82	0.0449	0.7444	0.005
Mof_C 	C 	0.8225	0.0816	0.78	-0.133
Mof_H 	H 	0.8422	0.0916	0.7699	0.085
Mof_C 	C 	0.8095	0.5541	0.2642	0.074
Mof_H 	H 	0.82	0.5449	0.2444	0.005
Mof_C 	C 	0.8225	0.5816	0.28	-0.133
Mof_H 	H 	0.8422	0.5916	0.2699	0.085
Mof_C 	C 	0.3095	0.0541	0.2642	0.074
Mof_H 	H 	0.32	0.0449	0.2444	0.005
Mof_C 	C 	0.3225	0.0816	0.28	-0.133
Mof_H 	H 	0.3422	0.0916	0.2699	0.085
Mof_C 	C 	0.3095	0.5541	0.7642	0.074
Mof_H 	H 	0.32	0.5449	0.7444	0.005
Mof_C 	C 	0.3225	0.5816	0.78	-0.133
Mof_H 	H 	0.3422	0.5916	0.7699	0.085
Mof_C 	C 	0.9459	0.7642	0.1905	0.074
Mof_H 	H 	0.9551	0.7444	0.18	0.006
Mof_C 	C 	0.9184	0.78	0.1775	-0.133
Mof_H 	H 	0.9084	0.7699	0.1578	0.085
Mof_C 	C 	0.9459	0.2642	0.6905	0.074
Mof_H 	H 	0.9551	0.2444	0.68	0.006
Mof_C 	C 	0.9184	0.28	0.6775	-0.133
Mof_H 	H 	0.9084	0.2699	0.6578	0.085
Mof_C 	C 	0.4459	0.7642	0.6905	0.074
Mof_H 	H 	0.4551	0.7444	0.68	0.005
Mof_C 	C 	0.4184	0.78	0.6775	-0.133
Mof_H 	H 	0.4084	0.7699	0.6578	0.085
Mof_C 	C 	0.4459	0.2642	0.1905	0.074
Mof_H 	H 	0.4551	0.2444	0.18	0.005
Mof_C 	C 	0.4184	0.28	0.1775	-0.133
Mof_H 	H 	0.4084	0.2699	0.1578	0.085
Mof_C 	C 	0.9459	0.2358	0.8095	0.074
Mof_H 	H 	0.9551	0.2556	0.82	0.006
Mof_C 	C 	0.9184	0.22	0.8225	-0.133
Mof_H 	H 	0.9084	0.2301	0.8422	0.085
Mof_C 	C 	0.9459	0.7358	0.3095	0.074
Mof_H 	H 	0.9551	0.7556	0.32	0.006
Mof_C 	C 	0.9184	0.72	0.3225	-0.133
Mof_H 	H 	0.9084	0.7301	0.3422	0.085
Mof_C 	C 	0.4459	0.2358	0.3095	0.074
Mof_H 	H 	0.4551	0.2556	0.32	0.005
Mof_C 	C 	0.4184	0.22	0.3225	-0.133
Mof_H 	H 	0.4084	0.2301	0.3422	0.085
Mof_C 	C 	0.4459	0.7358	0.8095	0.074
Mof_H 	H 	0.4551	0.7556	0.82	0.005
Mof_C 	C 	0.4184	0.72	0.8225	-0.133
Mof_H 	H 	0.4084	0.7301	0.8422	0.085
Mof_C 	C 	0.0541	0.7642	0.8095	0.074
Mof_H 	H 	0.0449	0.7444	0.82	0.005
Mof_C 	C 	0.0816	0.78	0.8225	-0.133
Mof_H 	H 	0.0916	0.7699	0.8422	0.085
Mof_C 	C 	0.0541	0.2642	0.3095	0.074
Mof_H 	H 	0.0449	0.2444	0.32	0.005
Mof_C 	C 	0.0816	0.28	0.3225	-0.133
Mof_H 	H 	0.0916	0.2699	0.3422	0.085
Mof_C 	C 	0.5541	0.7642	0.3095	0.074
Mof_H 	H 	0.5449	0.7444	0.32	0.005
Mof_C 	C 	0.5816	0.78	0.3225	-0.133
Mof_H 	H 	0.5916	0.7699	0.3422	0.085
Mof_C 	C 	0.5541	0.2642	0.8095	0.074
Mof_H 	H 	0.5449	0.2444	0.82	0.005
Mof_C 	C 	0.5816	0.28	0.8225	-0.133
Mof_H 	H 	0.5916	0.2699	0.8422	0.085
Mof_C 	C 	0.0541	0.2358	0.1905	0.074
Mof_H 	H 	0.0449	0.2556	0.18	0.005
Mof_C 	C 	0.0816	0.22	0.1775	-0.133
Mof_H 	H 	0.0916	0.2301	0.1578	0.085
Mof_C 	C 	0.0541	0.7358	0.6905	0.074
Mof_H 	H 	0.0449	0.7556	0.68	0.005
Mof_C 	C 	0.0816	0.72	0.6775	-0.133
Mof_H 	H 	0.0916	0.7301	0.6578	0.085
Mof_C 	C 	0.5541	0.2358	0.6905	0.074
Mof_H 	H 	0.5449	0.2556	0.68	0.005
Mof_C 	C 	0.5816	0.22	0.6775	-0.133
Mof_H 	H 	0.5916	0.2301	0.6578	0.085
Mof_C 	C 	0.5541	0.7358	0.1905	0.074
Mof_H 	H 	0.5449	0.7556	0.18	0.005
Mof_C 	C 	0.5816	0.72	0.1775	-0.133
Mof_H 	H 	0.5916	0.7301	0.1578	0.085
Mof_Fe	Fe	0.25	0.25	-0	0.658
Mof_Fe	Fe	0.25	0.75	0.5	0.659
Mof_Fe	Fe	0.75	0.75	-0	0.658
Mof_Fe	Fe	0.75	0.25	0.5	0.659
Mof_Fe	Fe	0.75	0.25	-0	0.658
Mof_Fe	Fe	0.75	0.75	0.5	0.659
Mof_Fe	Fe	0.25	0.25	0.5	0.659
Mof_Fe	Fe	0.25	0.75	-0	0.658
Mof_Fe	Fe	-2.67925e-33	0.25	0.25	0.658
Mof_Fe	Fe	0.5	0.25	0.75	0.659
Mof_Fe	Fe	2.81205e-33	0.75	0.75	0.658
Mof_Fe	Fe	0.5	0.75	0.25	0.659
Mof_Fe	Fe	-2.67925e-33	0.75	0.25	0.658
Mof_Fe	Fe	0.5	0.75	0.75	0.659
Mof_Fe	Fe	0.5	0.25	0.25	0.659
Mof_Fe	Fe	-4.42115e-33	0.25	0.75	0.658
Mof_Fe	Fe	0.25	-1.8083e-33	0.25	0.658
Mof_Fe	Fe	0.25	0.5	0.75	0.659
Mof_Fe	Fe	0.75	0	0.75	0.658
Mof_Fe	Fe	0.75	0.5	0.25	0.659
Mof_Fe	Fe	0.25	0	0.75	0.658
Mof_Fe	Fe	0.25	0.5	0.25	0.659
Mof_Fe	Fe	0.75	-1.8083e-33	0.25	0.658
Mof_Fe	Fe	0.75	0.5	0.75	0.659
Mof_N 	N 	0.2214	0.2214	0.0388	-0.177
Mof_C 	C 	0.1898	0.1898	0.0975	0.066
Mof_C 	C 	0.1696	0.1696	0.1274	0.094
Mof_N 	N 	0.2214	0.7214	0.5388	-0.177
Mof_C 	C 	0.1898	0.6898	0.5975	0.066
Mof_C 	C 	0.1696	0.6696	0.6274	0.094
Mof_N 	N 	0.7214	0.2214	0.5388	-0.177
Mof_C 	C 	0.6898	0.1898	0.5975	0.066
Mof_C 	C 	0.6696	0.1696	0.6274	0.094
Mof_N 	N 	0.7214	0.7214	0.0388	-0.177
Mof_C 	C 	0.6898	0.6898	0.0975	0.066
Mof_C 	C 	0.6696	0.6696	0.1274	0.094
Mof_N 	N 	0.7786	0.7786	0.0388	-0.177
Mof_C 	C 	0.8102	0.8102	0.0975	0.066
Mof_C 	C 	0.8304	0.8304	0.1274	0.094
Mof_N 	N 	0.7786	0.2786	0.5388	-0.177
Mof_C 	C 	0.8102	0.3102	0.5975	0.066
Mof_C 	C 	0.8304	0.3304	0.6274	0.094
Mof_N 	N 	0.2786	0.7786	0.5388	-0.177
Mof_C 	C 	0.3102	0.8102	0.5975	0.066
Mof_C 	C 	0.3304	0.8304	0.6274	0.094
Mof_N 	N 	0.2786	0.2786	0.0388	-0.177
Mof_C 	C 	0.3102	0.3102	0.0975	0.066
Mof_C 	C 	0.3304	0.3304	0.1274	0.094
Mof_N 	N 	0.7786	0.2214	0.9612	-0.176
Mof_C 	C 	0.8102	0.1898	0.9025	0.066
Mof_C 	C 	0.8304	0.1696	0.8726	0.094
Mof_N 	N 	0.7786	0.7214	0.4612	-0.177
Mof_C 	C 	0.8102	0.6898	0.4025	0.066
Mof_C 	C 	0.8304	0.6696	0.3726	0.094
Mof_N 	N 	0.2786	0.2214	0.4612	-0.177
Mof_C 	C 	0.3102	0.1898	0.4025	0.066
Mof_C 	C 	0.3304	0.1696	0.3726	0.094
Mof_N 	N 	0.2786	0.7214	0.9612	-0.176
Mof_C 	C 	0.3102	0.6898	0.9025	0.066
Mof_C 	C 	0.3304	0.6696	0.8726	0.094
Mof_N 	N 	0.2214	0.7786	0.9612	-0.176
Mof_C 	C 	0.1898	0.8102	0.9025	0.066
Mof_C 	C 	0.1696	0.8304	0.8726	0.094
Mof_N 	N 	0.2214	0.2786	0.4612	-0.177
Mof_C 	C 	0.1898	0.3102	0.4025	0.066
Mof_C 	C 	0.1696	0.3304	0.3726	0.094
Mof_N 	N 	0.7214	0.7786	0.4612	-0.177
Mof_C 	C 	0.6898	0.8102	0.4025	0.066
Mof_C 	C 	0.6696	0.8304	0.3726	0.094
Mof_N 	N 	0.7214	0.2786	0.9612	-0.176
Mof_C 	C 	0.6898	0.3102	0.9025	0.066
Mof_C 	C 	0.6696	0.3304	0.8726	0.094
Mof_N 	N 	0.0388	0.2214	0.2214	-0.177
Mof_C 	C 	0.0975	0.1898	0.1898	0.066
Mof_C 	C 	0.1274	0.1696	0.1696	0.094
Mof_N 	N 	0.0388	0.7214	0.7214	-0.177
Mof_C 	C 	0.0975	0.6898	0.6898	0.066
Mof_C 	C 	0.1274	0.6696	0.6696	0.094
Mof_N 	N 	0.5388	0.2214	0.7214	-0.177
Mof_C 	C 	0.5975	0.1898	0.6898	0.066
Mof_C 	C 	0.6274	0.1696	0.6696	0.094
Mof_N 	N 	0.5388	0.7214	0.2214	-0.177
Mof_C 	C 	0.5975	0.6898	0.1898	0.066
Mof_C 	C 	0.6274	0.6696	0.1696	0.094
Mof_N 	N 	0.0388	0.7786	0.7786	-0.177
Mof_C 	C 	0.0975	0.8102	0.8102	0.066
Mof_C 	C 	0.1274	0.8304	0.8304	0.094
Mof_N 	N 	0.0388	0.2786	0.2786	-0.177
Mof_C 	C 	0.0975	0.3102	0.3102	0.066
Mof_C 	C 	0.1274	0.3304	0.3304	0.094
Mof_N 	N 	0.5388	0.7786	0.2786	-0.177
Mof_C 	C 	0.5975	0.8102	0.3102	0.066
Mof_C 	C 	0.6274	0.8304	0.3304	0.094
Mof_N 	N 	0.5388	0.2786	0.7786	-0.177
Mof_C 	C 	0.5975	0.3102	0.8102	0.066
Mof_C 	C 	0.6274	0.3304	0.8304	0.094
Mof_N 	N 	0.9612	0.7786	0.2214	-0.176
Mof_C 	C 	0.9025	0.8102	0.1898	0.066
Mof_C 	C 	0.8726	0.8304	0.1696	0.094
Mof_N 	N 	0.9612	0.2786	0.7214	-0.176
Mof_C 	C 	0.9025	0.3102	0.6898	0.066
Mof_C 	C 	0.8726	0.3304	0.6696	0.094
Mof_N 	N 	0.4612	0.7786	0.7214	-0.177
Mof_C 	C 	0.4025	0.8102	0.6898	0.066
Mof_C 	C 	0.3726	0.8304	0.6696	0.094
Mof_N 	N 	0.4612	0.2786	0.2214	-0.177
Mof_C 	C 	0.4025	0.3102	0.1898	0.066
Mof_C 	C 	0.3726	0.3304	0.1696	0.094
Mof_N 	N 	0.9612	0.2214	0.7786	-0.176
Mof_C 	C 	0.9025	0.1898	0.8102	0.066
Mof_C 	C 	0.8726	0.1696	0.8304	0.094
Mof_N 	N 	0.9612	0.7214	0.2786	-0.176
Mof_C 	C 	0.9025	0.6898	0.3102	0.066
Mof_C 	C 	0.8726	0.6696	0.3304	0.094
Mof_N 	N 	0.4612	0.2214	0.2786	-0.177
Mof_C 	C 	0.4025	0.1898	0.3102	0.066
Mof_C 	C 	0.3726	0.1696	0.3304	0.094
Mof_N 	N 	0.4612	0.7214	0.7786	-0.177
Mof_C 	C 	0.4025	0.6898	0.8102	0.066
Mof_C 	C 	0.3726	0.6696	0.8304	0.094
Mof_N 	N 	0.2214	0.0388	0.2214	-0.177
Mof_C 	C 	0.1898	0.0975	0.1898	0.066
Mof_C 	C 	0.1696	0.1274	0.1696	0.094
Mof_N 	N 	0.2214	0.5388	0.7214	-0.177
Mof_C 	C 	0.1898	0.5975	0.6898	0.066
Mof_C 	C 	0.1696	0.6274	0.6696	0.094
Mof_N 	N 	0.7214	0.0388	0.7214	-0.177
Mof_C 	C 	0.6898	0.0975	0.6898	0.066
Mof_C 	C 	0.6696	0.1274	0.6696	0.094
Mof_N 	N 	0.7214	0.5388	0.2214	-0.177
Mof_C 	C 	0.6898	0.5975	0.1898	0.066
Mof_C 	C 	0.6696	0.6274	0.1696	0.094
Mof_N 	N 	0.7786	0.0388	0.7786	-0.177
Mof_C 	C 	0.8102	0.0975	0.8102	0.066
Mof_C 	C 	0.8304	0.1274	0.8304	0.094
Mof_N 	N 	0.7786	0.5388	0.2786	-0.177
Mof_C 	C 	0.8102	0.5975	0.3102	0.066
Mof_C 	C 	0.8304	0.6274	0.3304	0.094
Mof_N 	N 	0.2786	0.0388	0.2786	-0.177
Mof_C 	C 	0.3102	0.0975	0.3102	0.066
Mof_C 	C 	0.3304	0.1274	0.3304	0.094
Mof_N 	N 	0.2786	0.5388	0.7786	-0.177
Mof_C 	C 	0.3102	0.5975	0.8102	0.066
Mof_C 	C 	0.3304	0.6274	0.8304	0.094
Mof_N 	N 	0.2214	0.9612	0.7786	-0.176
Mof_C 	C 	0.1898	0.9025	0.8102	0.066
Mof_C 	C 	0.1696	0.8726	0.8304	0.094
Mof_N 	N 	0.2214	0.4612	0.2786	-0.177
Mof_C 	C 	0.1898	0.4025	0.3102	0.066
Mof_C 	C 	0.1696	0.3726	0.3304	0.094
Mof_N 	N 	0.7214	0.9612	0.2786	-0.176
Mof_C 	C 	0.6898	0.9025	0.3102	0.066
Mof_C 	C 	0.6696	0.8726	0.3304	0.094
Mof_N 	N 	0.7214	0.4612	0.7786	-0.177
Mof_C 	C 	0.6898	0.4025	0.8102	0.066
Mof_C 	C 	0.6696	0.3726	0.8304	0.094
Mof_N 	N 	0.7786	0.9612	0.2214	-0.176
Mof_C 	C 	0.8102	0.9025	0.1898	0.066
Mof_C 	C 	0.8304	0.8726	0.1696	0.094
Mof_N 	N 	0.7786	0.4612	0.7214	-0.177
Mof_C 	C 	0.8102	0.4025	0.6898	0.066
Mof_C 	C 	0.8304	0.3726	0.6696	0.094
Mof_N 	N 	0.2786	0.9612	0.7214	-0.176
Mof_C 	C 	0.3102	0.9025	0.6898	0.066
Mof_C 	C 	0.3304	0.8726	0.6696	0.094
Mof_N 	N 	0.2786	0.4612	0.2214	-0.177
Mof_C 	C 	0.3102	0.4025	0.1898	0.066
Mof_C 	C 	0.3304	0.3726	0.1696	0.094
Mof_N 	N 	0.2214	0.2214	0.9612	-0.176
Mof_C 	C 	0.1898	0.1898	0.9025	0.066
Mof_C 	C 	0.1696	0.1696	0.8726	0.094
Mof_N 	N 	0.2214	0.7214	0.4612	-0.177
Mof_C 	C 	0.1898	0.6898	0.4025	0.066
Mof_C 	C 	0.1696	0.6696	0.3726	0.094
Mof_N 	N 	0.7214	0.2214	0.4612	-0.177
Mof_C 	C 	0.6898	0.1898	0.4025	0.066
Mof_C 	C 	0.6696	0.1696	0.3726	0.094
Mof_N 	N 	0.7214	0.7214	0.9612	-0.176
Mof_C 	C 	0.6898	0.6898	0.9025	0.066
Mof_C 	C 	0.6696	0.6696	0.8726	0.094
Mof_N 	N 	0.7786	0.7786	0.9612	-0.176
Mof_C 	C 	0.8102	0.8102	0.9025	0.066
Mof_C 	C 	0.8304	0.8304	0.8726	0.095
Mof_N 	N 	0.7786	0.2786	0.4612	-0.177
Mof_C 	C 	0.8102	0.3102	0.4025	0.066
Mof_C 	C 	0.8304	0.3304	0.3726	0.094
Mof_N 	N 	0.2786	0.7786	0.4612	-0.177
Mof_C 	C 	0.3102	0.8102	0.4025	0.066
Mof_C 	C 	0.3304	0.8304	0.3726	0.094
Mof_N 	N 	0.2786	0.2786	0.9612	-0.176
Mof_C 	C 	0.3102	0.3102	0.9025	0.066
Mof_C 	C 	0.3304	0.3304	0.8726	0.094
Mof_N 	N 	0.2214	0.7786	0.0388	-0.177
Mof_C 	C 	0.1898	0.8102	0.0975	0.066
Mof_C 	C 	0.1696	0.8304	0.1274	0.094
Mof_N 	N 	0.2214	0.2786	0.5388	-0.177
Mof_C 	C 	0.1898	0.3102	0.5975	0.066
Mof_C 	C 	0.1696	0.3304	0.6274	0.094
Mof_N 	N 	0.7214	0.7786	0.5388	-0.177
Mof_C 	C 	0.6898	0.8102	0.5975	0.066
Mof_C 	C 	0.6696	0.8304	0.6274	0.094
Mof_N 	N 	0.7214	0.2786	0.0388	-0.177
Mof_C 	C 	0.6898	0.3102	0.0975	0.066
Mof_C 	C 	0.6696	0.3304	0.1274	0.094
Mof_N 	N 	0.7786	0.2214	0.0388	-0.177
Mof_C 	C 	0.8102	0.1898	0.0975	0.066
Mof_C 	C 	0.8304	0.1696	0.1274	0.094
Mof_N 	N 	0.7786	0.7214	0.5388	-0.177
Mof_C 	C 	0.8102	0.6898	0.5975	0.066
Mof_C 	C 	0.8304	0.6696	0.6274	0.094
Mof_N 	N 	0.2786	0.2214	0.5388	-0.177
Mof_C 	C 	0.3102	0.1898	0.5975	0.066
Mof_C 	C 	0.3304	0.1696	0.6274	0.094
Mof_N 	N 	0.2786	0.7214	0.0388	-0.177
Mof_C 	C 	0.3102	0.6898	0.0975	0.066
Mof_C 	C 	0.3304	0.6696	0.1274	0.094
Mof_N 	N 	0.2214	0.0388	0.7786	-0.177
Mof_C 	C 	0.1898	0.0975	0.8102	0.066
Mof_C 	C 	0.1696	0.1274	0.8304	0.094
Mof_N 	N 	0.2214	0.5388	0.2786	-0.177
Mof_C 	C 	0.1898	0.5975	0.3102	0.066
Mof_C 	C 	0.1696	0.6274	0.3304	0.094
Mof_N 	N 	0.7214	0.0388	0.2786	-0.177
Mof_C 	C 	0.6898	0.0975	0.3102	0.066
Mof_C 	C 	0.6696	0.1274	0.3304	0.094
Mof_N 	N 	0.7214	0.5388	0.7786	-0.177
Mof_C 	C 	0.6898	0.5975	0.8102	0.066
Mof_C 	C 	0.6696	0.6274	0.8304	0.094
Mof_N 	N 	0.7786	0.0388	0.2214	-0.177
Mof_C 	C 	0.8102	0.0975	0.1898	0.066
Mof_C 	C 	0.8304	0.1274	0.1696	0.094
Mof_N 	N 	0.7786	0.5388	0.7214	-0.177
Mof_C 	C 	0.8102	0.5975	0.6898	0.066
Mof_C 	C 	0.8304	0.6274	0.6696	0.094
Mof_N 	N 	0.2786	0.0388	0.7214	-0.177
Mof_C 	C 	0.3102	0.0975	0.6898	0.066
Mof_C 	C 	0.3304	0.1274	0.6696	0.094
Mof_N 	N 	0.2786	0.5388	0.2214	-0.177
Mof_C 	C 	0.3102	0.5975	0.1898	0.066
Mof_C 	C 	0.3304	0.6274	0.1696	0.094
Mof_N 	N 	0.7786	0.9612	0.7786	-0.176
Mof_C 	C 	0.8102	0.9025	0.8102	0.066
Mof_C 	C 	0.8304	0.8726	0.8304	0.095
Mof_N 	N 	0.7786	0.4612	0.2786	-0.177
Mof_C 	C 	0.8102	0.4025	0.3102	0.066
Mof_C 	C 	0.8304	0.3726	0.3304	0.094
Mof_N 	N 	0.2786	0.9612	0.2786	-0.176
Mof_C 	C 	0.3102	0.9025	0.3102	0.066
Mof_C 	C 	0.3304	0.8726	0.3304	0.094
Mof_N 	N 	0.2786	0.4612	0.7786	-0.177
Mof_C 	C 	0.3102	0.4025	0.8102	0.066
Mof_C 	C 	0.3304	0.3726	0.8304	0.094
Mof_N 	N 	0.2214	0.9612	0.2214	-0.176
Mof_C 	C 	0.1898	0.9025	0.1898	0.066
Mof_C 	C 	0.1696	0.8726	0.1696	0.094
Mof_N 	N 	0.2214	0.4612	0.7214	-0.177
Mof_C 	C 	0.1898	0.4025	0.6898	0.066
Mof_C 	C 	0.1696	0.3726	0.6696	0.094
Mof_N 	N 	0.7214	0.9612	0.7214	-0.176
Mof_C 	C 	0.6898	0.9025	0.6898	0.066
Mof_C 	C 	0.6696	0.8726	0.6696	0.094
Mof_N 	N 	0.7214	0.4612	0.2214	-0.177
Mof_C 	C 	0.6898	0.4025	0.1898	0.066
Mof_C 	C 	0.6696	0.3726	0.1696	0.094
Mof_N 	N 	0.0388	0.2214	0.7786	-0.177
Mof_C 	C 	0.0975	0.1898	0.8102	0.066
Mof_C 	C 	0.1274	0.1696	0.8304	0.094
Mof_N 	N 	0.0388	0.7214	0.2786	-0.177
Mof_C 	C 	0.0975	0.6898	0.3102	0.066
Mof_C 	C 	0.1274	0.6696	0.3304	0.094
Mof_N 	N 	0.5388	0.2214	0.2786	-0.177
Mof_C 	C 	0.5975	0.1898	0.3102	0.066
Mof_C 	C 	0.6274	0.1696	0.3304	0.094
Mof_N 	N 	0.5388	0.7214	0.7786	-0.177
Mof_C 	C 	0.5975	0.6898	0.8102	0.066
Mof_C 	C 	0.6274	0.6696	0.8304	0.094
Mof_N 	N 	0.0388	0.7786	0.2214	-0.177
Mof_C 	C 	0.0975	0.8102	0.1898	0.066
Mof_C 	C 	0.1274	0.8304	0.1696	0.094
Mof_N 	N 	0.0388	0.2786	0.7214	-0.177
Mof_C 	C 	0.0975	0.3102	0.6898	0.066
Mof_C 	C 	0.1274	0.3304	0.6696	0.094
Mof_N 	N 	0.5388	0.7786	0.7214	-0.177
Mof_C 	C 	0.5975	0.8102	0.6898	0.066
Mof_C 	C 	0.6274	0.8304	0.6696	0.094
Mof_N 	N 	0.5388	0.2786	0.2214	-0.177
Mof_C 	C 	0.5975	0.3102	0.1898	0.066
Mof_C 	C 	0.6274	0.3304	0.1696	0.094
Mof_N 	N 	0.9612	0.2214	0.2214	-0.176
Mof_C 	C 	0.9025	0.1898	0.1898	0.066
Mof_C 	C 	0.8726	0.1696	0.1696	0.094
Mof_N 	N 	0.9612	0.7214	0.7214	-0.176
Mof_C 	C 	0.9025	0.6898	0.6898	0.066
Mof_C 	C 	0.8726	0.6696	0.6696	0.094
Mof_N 	N 	0.4612	0.2214	0.7214	-0.177
Mof_C 	C 	0.4025	0.1898	0.6898	0.066
Mof_C 	C 	0.3726	0.1696	0.6696	0.094
Mof_N 	N 	0.4612	0.7214	0.2214	-0.177
Mof_C 	C 	0.4025	0.6898	0.1898	0.066
Mof_C 	C 	0.3726	0.6696	0.1696	0.094
Mof_N 	N 	0.9612	0.7786	0.7786	-0.176
Mof_C 	C 	0.9025	0.8102	0.8102	0.066
Mof_C 	C 	0.8726	0.8304	0.8304	0.095
Mof_N 	N 	0.9612	0.2786	0.2786	-0.176
Mof_C 	C 	0.9025	0.3102	0.3102	0.066
Mof_C 	C 	0.8726	0.3304	0.3304	0.094
Mof_N 	N 	0.4612	0.7786	0.2786	-0.177
Mof_C 	C 	0.4025	0.8102	0.3102	0.066
Mof_C 	C 	0.3726	0.8304	0.3304	0.094
Mof_N 	N 	0.4612	0.2786	0.7786	-0.177
Mof_C 	C 	0.4025	0.3102	0.8102	0.066
Mof_C 	C 	0.3726	0.3304	0.8304	0.094
Mof_N 	N 	0.143	0.1868	0.143	-0.135
Mof_N 	N 	0.143	0.6868	0.643	-0.135
Mof_N 	N 	0.643	0.1868	0.643	-0.135
Mof_N 	N 	0.643	0.6868	0.143	-0.135
Mof_N 	N 	0.857	0.8132	0.143	-0.135
Mof_N 	N 	0.857	0.3132	0.643	-0.135
Mof_N 	N 	0.357	0.8132	0.643	-0.135
Mof_N 	N 	0.357	0.3132	0.143	-0.135
Mof_N 	N 	0.857	0.1868	0.857	-0.135
Mof_N 	N 	0.857	0.6868	0.357	-0.135
Mof_N 	N 	0.357	0.1868	0.357	-0.135
Mof_N 	N 	0.357	0.6868	0.857	-0.135
Mof_N 	N 	0.143	0.8132	0.857	-0.135
Mof_N 	N 	0.143	0.3132	0.357	-0.135
Mof_N 	N 	0.643	0.8132	0.357	-0.135
Mof_N 	N 	0.643	0.3132	0.857	-0.135
Mof_N 	N 	0.143	0.143	0.1868	-0.135
Mof_N 	N 	0.143	0.643	0.6868	-0.135
Mof_N 	N 	0.643	0.143	0.6868	-0.135
Mof_N 	N 	0.643	0.643	0.1868	-0.135
Mof_N 	N 	0.143	0.857	0.8132	-0.135
Mof_N 	N 	0.143	0.357	0.3132	-0.135
Mof_N 	N 	0.643	0.857	0.3132	-0.135
Mof_N 	N 	0.643	0.357	0.8132	-0.135
Mof_N 	N 	0.857	0.857	0.1868	-0.135
Mof_N 	N 	0.857	0.357	0.6868	-0.135
Mof_N 	N 	0.357	0.857	0.6868	-0.135
Mof_N 	N 	0.357	0.357	0.1868	-0.135
Mof_N 	N 	0.857	0.143	0.8132	-0.135
Mof_N 	N 	0.857	0.643	0.3132	-0.135
Mof_N 	N 	0.357	0.143	0.3132	-0.135
Mof_N 	N 	0.357	0.643	0.8132	-0.135
Mof_N 	N 	0.1868	0.143	0.143	-0.135
Mof_N 	N 	0.1868	0.643	0.643	-0.135
Mof_N 	N 	0.6868	0.143	0.643	-0.135
Mof_N 	N 	0.6868	0.643	0.143	-0.135
Mof_N 	N 	0.8132	0.143	0.857	-0.135
Mof_N 	N 	0.8132	0.643	0.357	-0.135
Mof_N 	N 	0.3132	0.143	0.357	-0.135
Mof_N 	N 	0.3132	0.643	0.857	-0.135
Mof_N 	N 	0.1868	0.857	0.857	-0.135
Mof_N 	N 	0.1868	0.357	0.357	-0.135
Mof_N 	N 	0.6868	0.857	0.357	-0.135
Mof_N 	N 	0.6868	0.357	0.857	-0.135
Mof_N 	N 	0.8132	0.857	0.143	-0.135
Mof_N 	N 	0.8132	0.357	0.643	-0.135
Mof_N 	N 	0.3132	0.857	0.643	-0.135
Mof_N 	N 	0.3132	0.357	0.143	-0.135
Mof_N 	N 	0.1868	0.143	0.857	-0.135
Mof_N 	N 	0.1868	0.643	0.357	-0.135
Mof_N 	N 	0.6868	0.143	0.357	-0.135
Mof_N 	N 	0.6868	0.643	0.857	-0.135
Mof_N 	N 	0.8132	0.857	0.857	-0.135
Mof_N 	N 	0.8132	0.357	0.357	-0.135
Mof_N 	N 	0.3132	0.857	0.357	-0.135
Mof_N 	N 	0.3132	0.357	0.857	-0.135
Mof_N 	N 	0.1868	0.857	0.143	-0.135
Mof_N 	N 	0.1868	0.357	0.643	-0.135
Mof_N 	N 	0.6868	0.857	0.643	-0.135
Mof_N 	N 	0.6868	0.357	0.143	-0.135
Mof_N 	N 	0.8132	0.143	0.143	-0.135
Mof_N 	N 	0.8132	0.643	0.643	-0.135
Mof_N 	N 	0.3132	0.143	0.643	-0.135
Mof_N 	N 	0.3132	0.643	0.143	-0.135
Mof_N 	N 	0.143	0.143	0.8132	-0.135
Mof_N 	N 	0.143	0.643	0.3132	-0.135
Mof_N 	N 	0.643	0.143	0.3132	-0.135
Mof_N 	N 	0.643	0.643	0.8132	-0.135
Mof_N 	N 	0.857	0.143	0.1868	-0.135
Mof_N 	N 	0.857	0.643	0.6868	-0.135
Mof_N 	N 	0.357	0.143	0.6868	-0.135
Mof_N 	N 	0.357	0.643	0.1868	-0.135
Mof_N 	N 	0.857	0.857	0.8132	-0.135
Mof_N 	N 	0.857	0.357	0.3132	-0.135
Mof_N 	N 	0.357	0.857	0.3132	-0.135
Mof_N 	N 	0.357	0.357	0.8132	-0.135
Mof_N 	N 	0.143	0.857	0.1868	-0.135
Mof_N 	N 	0.143	0.357	0.6868	-0.135
Mof_N 	N 	0.643	0.857	0.6868	-0.135
Mof_N 	N 	0.643	0.357	0.1868	-0.135
Mof_N 	N 	0.143	0.1868	0.857	-0.135
Mof_N 	N 	0.143	0.6868	0.357	-0.135
Mof_N 	N 	0.643	0.1868	0.357	-0.135
Mof_N 	N 	0.643	0.6868	0.857	-0.135
Mof_N 	N 	0.143	0.8132	0.143	-0.135
Mof_N 	N 	0.143	0.3132	0.643	-0.135
Mof_N 	N 	0.643	0.8132	0.643	-0.135
Mof_N 	N 	0.643	0.3132	0.143	-0.135
Mof_N 	N 	0.857	0.1868	0.143	-0.135
Mof_N 	N 	0.857	0.6868	0.643	-0.135
Mof_N 	N 	0.357	0.1868	0.643	-0.135
Mof_N 	N 	0.357	0.6868	0.143	-0.135
Mof_N 	N 	0.857	0.8132	0.857	-0.135
Mof_N 	N 	0.857	0.3132	0.357	-0.135
Mof_N 	N 	0.357	0.8132	0.357	-0.135
Mof_N 	N 	0.357	0.3132	0.857	-0.135
Mof_N 	N 	0.2907	0.2093	-0	-0.212
Mof_N 	N 	0.2907	0.7093	0.5	-0.212
Mof_N 	N 	0.7093	0.7907	-0	-0.212
Mof_N 	N 	0.7093	0.2907	0.5	-0.212
Mof_N 	N 	0.2093	0.2907	-0	-0.212
Mof_N 	N 	0.7093	0.2093	-0	-0.212
Mof_N 	N 	0.7093	0.7093	0.5	-0.212
Mof_N 	N 	0.2093	0.2093	0.5	-0.212
Mof_N 	N 	0.2907	0.7907	-0	-0.212
Mof_N 	N 	0.2907	0.2907	0.5	-0.212
Mof_N 	N 	-2.83185e-33	0.2907	0.2093	-0.212
Mof_N 	N 	0.5	0.2907	0.7093	-0.212
Mof_N 	N 	-4.26854e-33	0.7093	0.7907	-0.212
Mof_N 	N 	-6.14324e-33	0.2093	0.2907	-0.212
Mof_N 	N 	0.5	0.7093	0.2907	-0.212
Mof_N 	N 	7.84749e-34	0.7093	0.2093	-0.212
Mof_N 	N 	0.5	0.7093	0.7093	-0.212
Mof_N 	N 	0.5	0.2093	0.2093	-0.212
Mof_N 	N 	2.96465e-33	0.2907	0.7907	-0.212
Mof_N 	N 	0.5	0.2907	0.2907	-0.212
Mof_N 	N 	0.2093	-3.6166e-33	0.2907	-0.212
Mof_N 	N 	0.2093	0.5	0.7907	-0.212
Mof_N 	N 	0.7907	0	0.7093	-0.212
Mof_N 	N 	0.7907	0.5	0.2093	-0.212
Mof_N 	N 	0.2907	0	0.2093	-0.212
Mof_N 	N 	0.2093	0	0.7093	-0.212
Mof_N 	N 	0.2093	0.5	0.2093	-0.212
Mof_N 	N 	0.7907	-3.6166e-33	0.2907	-0.212
Mof_N 	N 	0.7907	0.5	0.7907	-0.212
Mof_N 	N 	0.2907	0.5	0.2907	-0.212
Mof_N 	N 	0.2093	0.7907	0.5	-0.212
Mof_N 	N 	0.7907	0.7093	-0	-0.212
Mof_N 	N 	0.7907	0.2093	0.5	-0.212
Mof_N 	N 	0.2093	0.7093	-0	-0.212
Mof_N 	N 	0.7907	0.2907	-0	-0.212
Mof_N 	N 	0.7907	0.7907	0.5	-0.212
Mof_N 	N 	0.2907	0	0.7907	-0.212
Mof_N 	N 	0.7093	0	0.2093	-0.212
Mof_N 	N 	0.7093	0.5	0.7093	-0.212
Mof_N 	N 	0.7093	0	0.7907	-0.212
Mof_N 	N 	0.7093	0.5	0.2907	-0.212
Mof_N 	N 	0.2907	0.5	0.7093	-0.212
Mof_N 	N 	2.65945e-33	0.2093	0.7093	-0.212
Mof_N 	N 	1.08995e-33	0.7907	0.2907	-0.212
Mof_N 	N 	0.5	0.7907	0.7907	-0.212
Mof_N 	N 	0.5	0.2093	0.7907	-0.212
Mof_N 	N 	2.65945e-33	0.7907	0.7093	-0.212
Mof_N 	N 	0.5	0.7907	0.2093	-0.212
Mof_S 	S 	0.3189	0.1442	-0	-0.035
Mof_C 	C 	0.3024	0.1855	-0	0.064
Mof_S 	S 	0.3189	0.6442	0.5	-0.034
Mof_C 	C 	0.3024	0.6855	0.5	0.064
Mof_S 	S 	0.8189	0.1442	0.5	-0.034
Mof_C 	C 	0.8024	0.1855	0.5	0.064
Mof_S 	S 	0.8189	0.6442	-0	-0.034
Mof_C 	C 	0.8024	0.6855	-0	0.064
Mof_S 	S 	0.6811	0.8558	-0	-0.034
Mof_C 	C 	0.6976	0.8145	-0	0.064
Mof_S 	S 	0.6811	0.3558	0.5	-0.034
Mof_C 	C 	0.6976	0.3145	0.5	0.064
Mof_S 	S 	0.1811	0.8558	0.5	-0.033
Mof_C 	C 	0.1976	0.8145	0.5	0.064
Mof_S 	S 	0.1811	0.3558	-0	-0.034
Mof_C 	C 	0.1976	0.3145	-0	0.064
Mof_S 	S 	0.6811	0.1442	-0	-0.034
Mof_C 	C 	0.6976	0.1855	-0	0.064
Mof_S 	S 	0.6811	0.6442	0.5	-0.034
Mof_C 	C 	0.6976	0.6855	0.5	0.064
Mof_S 	S 	0.1811	0.1442	0.5	-0.034
Mof_C 	C 	0.1976	0.1855	0.5	0.064
Mof_S 	S 	0.1811	0.6442	-0	-0.034
Mof_C 	C 	0.1976	0.6855	-0	0.064
Mof_S 	S 	0.3189	0.8558	-0	-0.034
Mof_C 	C 	0.3024	0.8145	-0	0.064
Mof_S 	S 	0.3189	0.3558	0.5	-0.034
Mof_C 	C 	0.3024	0.3145	0.5	0.064
Mof_S 	S 	0.8189	0.8558	0.5	-0.033
Mof_C 	C 	0.8024	0.8145	0.5	0.064
Mof_S 	S 	0.8189	0.3558	-0	-0.034
Mof_C 	C 	0.8024	0.3145	-0	0.064
Mof_S 	S 	-1.26764e-33	0.3189	0.1442	-0.035
Mof_C 	C 	-1.11279e-33	0.3024	0.1855	0.064
Mof_S 	S 	-4.81783e-33	0.8189	0.6442	-0.034
Mof_C 	C 	9.80341e-33	0.8024	0.6855	0.064
Mof_S 	S 	0.5	0.3189	0.6442	-0.034
Mof_C 	C 	0.5	0.3024	0.6855	0.064
Mof_S 	S 	0.5	0.8189	0.1442	-0.034
Mof_C 	C 	0.5	0.8024	0.1855	0.064
Mof_S 	S 	-4.02446e-33	0.6811	0.8558	-0.034
Mof_C 	C 	-1.14125e-32	0.6976	0.8145	0.064
Mof_S 	S 	1.33404e-33	0.1811	0.3558	-0.034
Mof_C 	C 	-2.43741e-33	0.1976	0.3145	0.064
Mof_S 	S 	0.5	0.6811	0.3558	-0.034
Mof_C 	C 	0.5	0.6976	0.3145	0.064
Mof_S 	S 	0.5	0.1811	0.8558	-0.033
Mof_C 	C 	0.5	0.1976	0.8145	0.064
Mof_S 	S 	-4.88423e-33	0.6811	0.1442	-0.034
Mof_C 	C 	-8.34598e-33	0.6976	0.1855	0.064
Mof_S 	S 	-1.2051e-32	0.1811	0.6442	-0.034
Mof_C 	C 	-4.66298e-33	0.1976	0.6855	0.064
Mof_S 	S 	0.5	0.6811	0.6442	-0.034
Mof_C 	C 	0.5	0.6976	0.6855	0.064
Mof_S 	S 	0.5	0.1811	0.1442	-0.034
Mof_C 	C 	0.5	0.1976	0.1855	0.064
Mof_S 	S 	3.20874e-33	0.3189	0.8558	-0.034
Mof_C 	C 	1.02871e-32	0.3024	0.8145	0.064
Mof_S 	S 	8.56723e-33	0.8189	0.3558	-0.034
Mof_C 	C 	1.2029e-32	0.8024	0.3145	0.064
Mof_S 	S 	0.5	0.3189	0.3558	-0.034
Mof_C 	C 	0.5	0.3024	0.3145	0.064
Mof_S 	S 	0.5	0.8189	0.8558	-0.033
Mof_C 	C 	0.5	0.8024	0.8145	0.064
Mof_S 	S 	0.1442	0	0.3189	-0.035
Mof_C 	C 	0.1855	0	0.3024	0.064
Mof_S 	S 	0.1442	0.5	0.8189	-0.034
Mof_C 	C 	0.1855	0.5	0.8024	0.064
Mof_S 	S 	0.6442	7.23319e-33	0.8189	-0.034
Mof_C 	C 	0.6855	7.23319e-33	0.8024	0.064
Mof_S 	S 	0.6442	0.5	0.3189	-0.034
Mof_C 	C 	0.6855	0.5	0.3024	0.064
Mof_S 	S 	0.8558	0	0.6811	-0.034
Mof_C 	C 	0.8145	-7.23319e-33	0.6976	0.064
Mof_S 	S 	0.8558	0.5	0.1811	-0.033
Mof_C 	C 	0.8145	0.5	0.1976	0.064
Mof_S 	S 	0.3558	-1.8083e-33	0.1811	-0.034
Mof_C 	C 	0.3145	-1.8083e-33	0.1976	0.064
Mof_S 	S 	0.3558	0.5	0.6811	-0.034
Mof_C 	C 	0.3145	0.5	0.6976	0.064
Mof_S 	S 	0.1442	0	0.6811	-0.034
Mof_C 	C 	0.1855	-7.23319e-33	0.6976	0.064
Mof_S 	S 	0.1442	0.5	0.1811	-0.034
Mof_C 	C 	0.1855	0.5	0.1976	0.064
Mof_S 	S 	0.6442	-1.8083e-33	0.1811	-0.034
Mof_C 	C 	0.6855	-1.8083e-33	0.1976	0.064
Mof_S 	S 	0.6442	0.5	0.6811	-0.034
Mof_C 	C 	0.6855	0.5	0.6976	0.064
Mof_S 	S 	0.8558	0	0.3189	-0.034
Mof_C 	C 	0.8145	0	0.3024	0.064
Mof_S 	S 	0.8558	0.5	0.8189	-0.033
Mof_C 	C 	0.8145	0.5	0.8024	0.064
Mof_S 	S 	0.3558	7.23319e-33	0.8189	-0.034
Mof_C 	C 	0.3145	7.23319e-33	0.8024	0.064
Mof_S 	S 	0.3558	0.5	0.3189	-0.034
Mof_C 	C 	0.3145	0.5	0.3024	0.064
Mof_S 	S 	0.1442	0.3189	-0	-0.035
Mof_C 	C 	0.1855	0.3024	-0	0.064
Mof_S 	S 	0.1442	0.8189	0.5	-0.034
Mof_C 	C 	0.1855	0.8024	0.5	0.064
Mof_S 	S 	0.6442	0.3189	0.5	-0.034
Mof_C 	C 	0.6855	0.3024	0.5	0.064
Mof_S 	S 	0.6442	0.8189	-0	-0.034
Mof_C 	C 	0.6855	0.8024	-0	0.064
Mof_S 	S 	0.8558	0.6811	-0	-0.034
Mof_C 	C 	0.8145	0.6976	-0	0.064
Mof_S 	S 	0.8558	0.1811	0.5	-0.033
Mof_C 	C 	0.8145	0.1976	0.5	0.064
Mof_S 	S 	0.3558	0.6811	0.5	-0.034
Mof_C 	C 	0.3145	0.6976	0.5	0.064
Mof_S 	S 	0.3558	0.1811	-0	-0.034
Mof_C 	C 	0.3145	0.1976	-0	0.064
Mof_S 	S 	0.1442	0.6811	-0	-0.034
Mof_C 	C 	0.1855	0.6976	-0	0.064
Mof_S 	S 	0.1442	0.1811	0.5	-0.034
Mof_C 	C 	0.1855	0.1976	0.5	0.064
Mof_S 	S 	0.6442	0.6811	0.5	-0.034
Mof_C 	C 	0.6855	0.6976	0.5	0.064
Mof_S 	S 	0.6442	0.1811	-0	-0.034
Mof_C 	C 	0.6855	0.1976	-0	0.064
Mof_S 	S 	0.8558	0.3189	-0	-0.034
Mof_C 	C 	0.8145	0.3024	-0	0.064
Mof_S 	S 	0.8558	0.8189	0.5	-0.033
Mof_C 	C 	0.8145	0.8024	0.5	0.064
Mof_S 	S 	0.3558	0.3189	0.5	-0.034
Mof_C 	C 	0.3145	0.3024	0.5	0.064
Mof_S 	S 	0.3558	0.8189	-0	-0.034
Mof_C 	C 	0.3145	0.8024	-0	0.064
Mof_S 	S 	0.3189	0	0.8558	-0.034
Mof_C 	C 	0.3024	0	0.8145	0.064
Mof_S 	S 	0.3189	0.5	0.3558	-0.034
Mof_C 	C 	0.3024	0.5	0.3145	0.064
Mof_S 	S 	0.8189	0	0.3558	-0.034
Mof_C 	C 	0.8024	0	0.3145	0.064
Mof_S 	S 	0.8189	0.5	0.8558	-0.033
Mof_C 	C 	0.8024	0.5	0.8145	0.064
Mof_S 	S 	0.6811	-1.8083e-33	0.1442	-0.034
Mof_C 	C 	0.6976	0	0.1855	0.064
Mof_S 	S 	0.6811	0.5	0.6442	-0.034
Mof_C 	C 	0.6976	0.5	0.6855	0.064
Mof_S 	S 	0.1811	-7.23319e-33	0.6442	-0.034
Mof_C 	C 	0.1976	0	0.6855	0.064
Mof_S 	S 	0.1811	0.5	0.1442	-0.034
Mof_C 	C 	0.1976	0.5	0.1855	0.064
Mof_S 	S 	0.6811	0	0.8558	-0.034
Mof_C 	C 	0.6976	0	0.8145	0.064
Mof_S 	S 	0.6811	0.5	0.3558	-0.034
Mof_C 	C 	0.6976	0.5	0.3145	0.064
Mof_S 	S 	0.1811	0	0.3558	-0.034
Mof_C 	C 	0.1976	0	0.3145	0.064
Mof_S 	S 	0.1811	0.5	0.8558	-0.033
Mof_C 	C 	0.1976	0.5	0.8145	0.064
Mof_S 	S 	0.3189	-1.8083e-33	0.1442	-0.035
Mof_C 	C 	0.3024	0	0.1855	0.064
Mof_S 	S 	0.3189	0.5	0.6442	-0.034
Mof_C 	C 	0.3024	0.5	0.6855	0.064
Mof_S 	S 	0.8189	-7.23319e-33	0.6442	-0.034
Mof_C 	C 	0.8024	0	0.6855	0.064
Mof_S 	S 	0.8189	0.5	0.1442	-0.034
Mof_C 	C 	0.8024	0.5	0.1855	0.064
Mof_S 	S 	-4.67948e-33	0.1442	0.6811	-0.034
Mof_C 	C 	-1.18508e-32	0.1855	0.6976	0.064
Mof_S 	S 	-8.36248e-33	0.6442	0.1811	-0.034
Mof_C 	C 	-6.49231e-33	0.6855	0.1976	0.064
Mof_S 	S 	0.5	0.1442	0.1811	-0.034
Mof_C 	C 	0.5	0.1855	0.1976	0.064
Mof_S 	S 	0.5	0.6442	0.6811	-0.034
Mof_C 	C 	0.5	0.6855	0.6976	0.064
Mof_S 	S 	1.19568e-33	0.8558	0.3189	-0.034
Mof_C 	C 	8.36701e-33	0.8145	0.3024	0.064
Mof_S 	S 	1.03036e-32	0.3558	0.8189	-0.034
Mof_C 	C 	1.02417e-32	0.3145	0.8024	0.064
Mof_S 	S 	0.5	0.8558	0.8189	-0.033
Mof_C 	C 	0.5	0.8145	0.8024	0.064
Mof_S 	S 	0.5	0.3558	0.3189	-0.034
Mof_C 	C 	0.5	0.3145	0.3024	0.064
Mof_S 	S 	1.19568e-33	0.1442	0.3189	-0.035
Mof_C 	C 	-2.48278e-33	0.1855	0.3024	0.064
Mof_S 	S 	-4.16281e-33	0.6442	0.8189	-0.034
Mof_C 	C 	3.00852e-33	0.6855	0.8024	0.064
Mof_S 	S 	0.5	0.1442	0.8189	-0.034
Mof_C 	C 	0.5	0.1855	0.8024	0.064
Mof_S 	S 	0.5	0.6442	0.3189	-0.034
Mof_C 	C 	0.5	0.6855	0.3024	0.064
Mof_S 	S 	2.55372e-33	0.8558	0.6811	-0.034
Mof_C 	C 	-4.61761e-33	0.8145	0.6976	0.064
Mof_S 	S 	-1.12928e-33	0.3558	0.1811	-0.034
Mof_C 	C 	7.40881e-34	0.3145	0.1976	0.064
Mof_S 	S 	0.5	0.8558	0.1811	-0.033
Mof_C 	C 	0.5	0.8145	0.1976	0.064
Mof_S 	S 	0.5	0.3558	0.6811	-0.034
Mof_C 	C 	0.5	0.3145	0.6976	0.064
_end
