data_functionalizedCrystal
_audit_creation_method	'EQeq! by Chris Wilmer'
_symmetry_space_group_name_H-M	'P1'
_symmetry_Int_Tables_number	1
_symmetry_cell_setting	triclinic
loop_
_symmetry_equiv_pos_as_xyz
  x,y,z
_cell_length_a	35.8373
_cell_length_b	35.8373
_cell_length_c	15.1343
_cell_angle_alpha	90
_cell_angle_beta	90
_cell_angle_gamma	120
loop_
_atom_site_label
_atom_site_type_symbol
_atom_site_fract_x
_atom_site_fract_y
_atom_site_fract_z
_atom_site_charge
Mof_O 	O 	0.55762	0.0384	0.5802	-0.41
Mof_O 	O 	0.56401	0.05079	0.4333	-0.416
Mof_C 	C 	0.57842	0.05697	0.5087	0.378
Mof_C 	C 	0.62506	0.08907	0.5234	-0.164
Mof_C 	C 	0.65183	0.1103	0.4568	0.118
Mof_H 	H 	0.6412	0.106	0.3994	0.001
Mof_C 	C 	0.69541	0.1388	0.4722	-0.21
Mof_H 	H 	0.7129	0.1537	0.4245	0.116
Mof_C 	C 	0.71295	0.14551	0.5519	0.159
Mof_C 	C 	0.68521	0.1258	0.6227	-0.193
Mof_H 	H 	0.6962	0.1313	0.6798	0.098
Mof_C 	C 	0.64173	0.0982	0.6099	0.1
Mof_H 	H 	0.6235	0.0858	0.6581	0.01
Mof_C 	C 	0.75994	0.17267	0.57	-0.099
Mof_C 	C 	0.77982	0.15421	0.6177	-0.032
Mof_H 	H 	0.7636	0.1253	0.6336	0.041
Mof_H 	H 	0.7708	0.2729	0.5991	-0.068
Mof_H 	H 	0.7452	0.2985	0.4824	0.258
Mof_O 	O 	0.22429	0.37173	0.91353	-0.41
Mof_O 	O 	0.23068	0.38412	0.76663	-0.416
Mof_C 	C 	0.24509	0.3903	0.84203	0.378
Mof_C 	C 	0.29173	0.4224	0.85673	-0.164
Mof_C 	C 	0.3185	0.44363	0.79013	0.118
Mof_H 	H 	0.30787	0.43933	0.73273	0.001
Mof_C 	C 	0.36208	0.47213	0.80553	-0.21
Mof_H 	H 	0.37957	0.48703	0.75783	0.116
Mof_C 	C 	0.37962	0.47884	0.88523	0.159
Mof_C 	C 	0.35188	0.45913	0.95603	-0.193
Mof_H 	H 	0.36287	0.46463	0.01313	0.098
Mof_C 	C 	0.3084	0.43153	0.94323	0.1
Mof_H 	H 	0.29017	0.41913	0.99143	0.01
Mof_C 	C 	0.42661	0.506	0.90333	-0.099
Mof_C 	C 	0.44649	0.48754	0.95103	-0.032
Mof_H 	H 	0.43027	0.45863	0.96693	0.041
Mof_H 	H 	0.43747	0.60623	0.93243	-0.068
Mof_H 	H 	0.41187	0.63183	0.81573	0.258
Mof_O 	O 	0.89095	0.70507	0.24687	-0.41
Mof_O 	O 	0.89734	0.71746	0.09997	-0.416
Mof_C 	C 	0.91175	0.72364	0.17537	0.378
Mof_C 	C 	0.95839	0.75574	0.19007	-0.164
Mof_C 	C 	0.98516	0.77697	0.12347	0.118
Mof_H 	H 	0.97453	0.77267	0.06607	0.001
Mof_C 	C 	0.02874	0.80547	0.13887	-0.21
Mof_H 	H 	0.04623	0.82037	0.09117	0.116
Mof_C 	C 	0.04628	0.81218	0.21857	0.159
Mof_C 	C 	0.01854	0.79247	0.28937	-0.193
Mof_H 	H 	0.02953	0.79797	0.34647	0.099
Mof_C 	C 	0.97506	0.76487	0.27657	0.101
Mof_H 	H 	0.95683	0.75247	0.32477	0.011
Mof_C 	C 	0.09327	0.83934	0.23667	-0.098
Mof_C 	C 	0.11315	0.82088	0.28437	-0.031
Mof_H 	H 	0.09693	0.79197	0.30027	0.042
Mof_H 	H 	0.10413	0.93957	0.26577	-0.067
Mof_H 	H 	0.07853	0.96517	0.14907	0.259
Mof_O 	O 	0.9616	0.51922	0.5802	-0.409
Mof_O 	O 	0.94921	0.51322	0.4333	-0.415
Mof_C 	C 	0.94303	0.52145	0.5087	0.379
Mof_C 	C 	0.91093	0.53599	0.5234	-0.163
Mof_C 	C 	0.8897	0.54153	0.4568	0.119
Mof_H 	H 	0.894	0.5352	0.3994	0.002
Mof_C 	C 	0.8612	0.55661	0.4722	-0.209
Mof_H 	H 	0.8463	0.5592	0.4245	0.117
Mof_C 	C 	0.85449	0.56744	0.5519	0.16
Mof_C 	C 	0.8742	0.55941	0.6227	-0.192
Mof_H 	H 	0.8687	0.5649	0.6798	0.099
Mof_C 	C 	0.9018	0.54353	0.6099	0.101
Mof_H 	H 	0.9142	0.5377	0.6581	0.011
Mof_C 	C 	0.82733	0.58727	0.57	-0.098
Mof_C 	C 	0.84579	0.62561	0.6177	-0.031
Mof_H 	H 	0.8747	0.6383	0.6336	0.042
Mof_H 	H 	0.7271	0.4979	0.5991	-0.067
Mof_H 	H 	0.7015	0.4467	0.4824	0.259
Mof_O 	O 	0.62827	0.85255	0.91353	-0.409
Mof_O 	O 	0.61588	0.84655	0.76663	-0.415
Mof_C 	C 	0.6097	0.85478	0.84203	0.379
Mof_C 	C 	0.5776	0.86932	0.85673	-0.163
Mof_C 	C 	0.55637	0.87486	0.79013	0.119
Mof_H 	H 	0.56067	0.86853	0.73273	0.002
Mof_C 	C 	0.52787	0.88994	0.80553	-0.209
Mof_H 	H 	0.51297	0.89253	0.75783	0.117
Mof_C 	C 	0.52116	0.90077	0.88523	0.16
Mof_C 	C 	0.54087	0.89274	0.95603	-0.192
Mof_H 	H 	0.53537	0.89823	0.01313	0.099
Mof_C 	C 	0.56847	0.87686	0.94323	0.101
Mof_H 	H 	0.58087	0.87103	0.99143	0.011
Mof_C 	C 	0.494	0.9206	0.90333	-0.098
Mof_C 	C 	0.51246	0.95894	0.95103	-0.031
Mof_H 	H 	0.54137	0.97163	0.96693	0.042
Mof_H 	H 	0.39377	0.83123	0.93243	-0.067
Mof_H 	H 	0.36817	0.78003	0.81573	0.259
Mof_O 	O 	0.29493	0.18589	0.24687	-0.409
Mof_O 	O 	0.28254	0.17989	0.09997	-0.415
Mof_C 	C 	0.27636	0.18812	0.17537	0.379
Mof_C 	C 	0.24426	0.20266	0.19007	-0.163
Mof_C 	C 	0.22303	0.2082	0.12347	0.119
Mof_H 	H 	0.22733	0.20187	0.06607	0.002
Mof_C 	C 	0.19453	0.22328	0.13887	-0.209
Mof_H 	H 	0.17963	0.22587	0.09117	0.117
Mof_C 	C 	0.18782	0.23411	0.21857	0.16
Mof_C 	C 	0.20753	0.22608	0.28937	-0.192
Mof_H 	H 	0.20203	0.23157	0.34647	0.099
Mof_C 	C 	0.23513	0.2102	0.27657	0.101
Mof_H 	H 	0.24753	0.20437	0.32477	0.011
Mof_C 	C 	0.16066	0.25394	0.23667	-0.098
Mof_C 	C 	0.17912	0.29228	0.28437	-0.031
Mof_H 	H 	0.20803	0.30497	0.30027	0.042
Mof_H 	H 	0.06043	0.16457	0.26577	-0.067
Mof_H 	H 	0.03483	0.11337	0.14907	0.259
Mof_O 	O 	0.48078	0.44238	0.5802	-0.409
Mof_O 	O 	0.48678	0.43599	0.4333	-0.415
Mof_C 	C 	0.47855	0.42158	0.5087	0.379
Mof_C 	C 	0.46401	0.37494	0.5234	-0.163
Mof_C 	C 	0.45847	0.34817	0.4568	0.119
Mof_H 	H 	0.4648	0.3588	0.3994	0.002
Mof_C 	C 	0.44339	0.30459	0.4722	-0.209
Mof_H 	H 	0.4408	0.2871	0.4245	0.117
Mof_C 	C 	0.43256	0.28705	0.5519	0.16
Mof_C 	C 	0.44059	0.31479	0.6227	-0.192
Mof_H 	H 	0.4351	0.3038	0.6798	0.099
Mof_C 	C 	0.45647	0.35827	0.6099	0.101
Mof_H 	H 	0.4623	0.3765	0.6581	0.01
Mof_C 	C 	0.41273	0.24006	0.57	-0.098
Mof_C 	C 	0.37439	0.22018	0.6177	-0.031
Mof_H 	H 	0.3617	0.2364	0.6336	0.042
Mof_H 	H 	0.5021	0.2292	0.5991	-0.067
Mof_H 	H 	0.5533	0.2548	0.4824	0.259
Mof_O 	O 	0.14745	0.77571	0.91353	-0.409
Mof_O 	O 	0.15345	0.76932	0.76663	-0.415
Mof_C 	C 	0.14522	0.75491	0.84203	0.379
Mof_C 	C 	0.13068	0.70827	0.85673	-0.163
Mof_C 	C 	0.12514	0.6815	0.79013	0.119
Mof_H 	H 	0.13147	0.69213	0.73273	0.002
Mof_C 	C 	0.11006	0.63792	0.80553	-0.209
Mof_H 	H 	0.10747	0.62043	0.75783	0.117
Mof_C 	C 	0.09923	0.62038	0.88523	0.16
Mof_C 	C 	0.10726	0.64812	0.95603	-0.192
Mof_H 	H 	0.10177	0.63713	0.01313	0.099
Mof_C 	C 	0.12314	0.6916	0.94323	0.101
Mof_H 	H 	0.12897	0.70983	0.99143	0.011
Mof_C 	C 	0.0794	0.57339	0.90333	-0.098
Mof_C 	C 	0.04106	0.55351	0.95103	-0.031
Mof_H 	H 	0.02837	0.56973	0.96693	0.042
Mof_H 	H 	0.16877	0.56253	0.93243	-0.067
Mof_H 	H 	0.21997	0.58813	0.81573	0.259
Mof_O 	O 	0.81411	0.10905	0.24687	-0.409
Mof_O 	O 	0.82011	0.10266	0.09997	-0.415
Mof_C 	C 	0.81188	0.08825	0.17537	0.379
Mof_C 	C 	0.79734	0.04161	0.19007	-0.164
Mof_C 	C 	0.7918	0.01484	0.12347	0.119
Mof_H 	H 	0.79813	0.02547	0.06607	0.002
Mof_C 	C 	0.77672	0.97126	0.13887	-0.209
Mof_H 	H 	0.77413	0.95377	0.09117	0.117
Mof_C 	C 	0.76589	0.95372	0.21857	0.161
Mof_C 	C 	0.77392	0.98146	0.28937	-0.192
Mof_H 	H 	0.76843	0.97047	0.34647	0.099
Mof_C 	C 	0.7898	0.02494	0.27657	0.101
Mof_H 	H 	0.79563	0.04317	0.32477	0.01
Mof_C 	C 	0.74606	0.90673	0.23667	-0.098
Mof_C 	C 	0.70772	0.88685	0.28437	-0.031
Mof_H 	H 	0.69503	0.90307	0.30027	0.042
Mof_H 	H 	0.83543	0.89587	0.26577	-0.067
Mof_H 	H 	0.88663	0.92147	0.14907	0.259
Mof_O 	O 	0.0384	0.55762	0.4198	-0.409
Mof_O 	O 	0.05079	0.56401	0.5667	-0.415
Mof_C 	C 	0.05697	0.57842	0.4913	0.379
Mof_C 	C 	0.08907	0.62506	0.4766	-0.163
Mof_C 	C 	0.1103	0.65183	0.5432	0.119
Mof_H 	H 	0.106	0.6412	0.6006	0.002
Mof_C 	C 	0.1388	0.69541	0.5278	-0.209
Mof_H 	H 	0.1537	0.7129	0.5755	0.117
Mof_C 	C 	0.14551	0.71295	0.4481	0.16
Mof_C 	C 	0.1258	0.68521	0.3773	-0.192
Mof_H 	H 	0.1313	0.6962	0.3202	0.099
Mof_C 	C 	0.0982	0.64173	0.3901	0.101
Mof_H 	H 	0.0858	0.6235	0.3419	0.011
Mof_C 	C 	0.17267	0.75994	0.43	-0.098
Mof_C 	C 	0.15421	0.77982	0.3823	-0.031
Mof_H 	H 	0.1253	0.7636	0.3664	0.042
Mof_H 	H 	0.2729	0.7708	0.4009	-0.067
Mof_H 	H 	0.2985	0.7452	0.5176	0.259
Mof_O 	O 	0.70507	0.89095	0.75313	-0.409
Mof_O 	O 	0.71746	0.89734	0.90003	-0.415
Mof_C 	C 	0.72364	0.91175	0.82463	0.379
Mof_C 	C 	0.75574	0.95839	0.80993	-0.163
Mof_C 	C 	0.77697	0.98516	0.87653	0.119
Mof_H 	H 	0.77267	0.97453	0.93393	0.002
Mof_C 	C 	0.80547	0.02874	0.86113	-0.209
Mof_H 	H 	0.82037	0.04623	0.90883	0.117
Mof_C 	C 	0.81218	0.04628	0.78143	0.16
Mof_C 	C 	0.79247	0.01854	0.71063	-0.192
Mof_H 	H 	0.79797	0.02953	0.65353	0.099
Mof_C 	C 	0.76487	0.97506	0.72343	0.101
Mof_H 	H 	0.75247	0.95683	0.67523	0.011
Mof_C 	C 	0.83934	0.09327	0.76333	-0.098
Mof_C 	C 	0.82088	0.11315	0.71563	-0.031
Mof_H 	H 	0.79197	0.09693	0.69973	0.042
Mof_H 	H 	0.93957	0.10413	0.73423	-0.067
Mof_H 	H 	0.96517	0.07853	0.85093	0.259
Mof_O 	O 	0.37173	0.22429	0.08647	-0.409
Mof_O 	O 	0.38412	0.23068	0.23337	-0.415
Mof_C 	C 	0.3903	0.24509	0.15797	0.379
Mof_C 	C 	0.4224	0.29173	0.14327	-0.163
Mof_C 	C 	0.44363	0.3185	0.20987	0.119
Mof_H 	H 	0.43933	0.30787	0.26727	0.002
Mof_C 	C 	0.47213	0.36208	0.19447	-0.209
Mof_H 	H 	0.48703	0.37957	0.24217	0.117
Mof_C 	C 	0.47884	0.37962	0.11477	0.16
Mof_C 	C 	0.45913	0.35188	0.04397	-0.192
Mof_H 	H 	0.46463	0.36287	0.98687	0.099
Mof_C 	C 	0.43153	0.3084	0.05677	0.101
Mof_H 	H 	0.41913	0.29017	0.00857	0.011
Mof_C 	C 	0.506	0.42661	0.09667	-0.098
Mof_C 	C 	0.48754	0.44649	0.04897	-0.031
Mof_H 	H 	0.45863	0.43027	0.03307	0.042
Mof_H 	H 	0.60623	0.43747	0.06757	-0.067
Mof_H 	H 	0.63183	0.41187	0.18427	0.259
Mof_O 	O 	0.51922	0.9616	0.4198	-0.409
Mof_O 	O 	0.51322	0.94921	0.5667	-0.415
Mof_C 	C 	0.52145	0.94303	0.4913	0.379
Mof_C 	C 	0.53599	0.91093	0.4766	-0.163
Mof_C 	C 	0.54153	0.8897	0.5432	0.119
Mof_H 	H 	0.5352	0.894	0.6006	0.002
Mof_C 	C 	0.55661	0.8612	0.5278	-0.209
Mof_H 	H 	0.5592	0.8463	0.5755	0.117
Mof_C 	C 	0.56744	0.85449	0.4481	0.16
Mof_C 	C 	0.55941	0.8742	0.3773	-0.192
Mof_H 	H 	0.5649	0.8687	0.3202	0.099
Mof_C 	C 	0.54353	0.9018	0.3901	0.101
Mof_H 	H 	0.5377	0.9142	0.3419	0.011
Mof_C 	C 	0.58727	0.82733	0.43	-0.098
Mof_C 	C 	0.62561	0.84579	0.3823	-0.031
Mof_H 	H 	0.6383	0.8747	0.3664	0.042
Mof_H 	H 	0.4979	0.7271	0.4009	-0.067
Mof_H 	H 	0.4467	0.7015	0.5176	0.259
Mof_O 	O 	0.18589	0.29493	0.75313	-0.409
Mof_O 	O 	0.17989	0.28254	0.90003	-0.415
Mof_C 	C 	0.18812	0.27636	0.82463	0.379
Mof_C 	C 	0.20266	0.24426	0.80993	-0.163
Mof_C 	C 	0.2082	0.22303	0.87653	0.119
Mof_H 	H 	0.20187	0.22733	0.93393	0.002
Mof_C 	C 	0.22328	0.19453	0.86113	-0.209
Mof_H 	H 	0.22587	0.17963	0.90883	0.117
Mof_C 	C 	0.23411	0.18782	0.78143	0.16
Mof_C 	C 	0.22608	0.20753	0.71063	-0.192
Mof_H 	H 	0.23157	0.20203	0.65353	0.099
Mof_C 	C 	0.2102	0.23513	0.72343	0.101
Mof_H 	H 	0.20437	0.24753	0.67523	0.011
Mof_C 	C 	0.25394	0.16066	0.76333	-0.098
Mof_C 	C 	0.29228	0.17912	0.71563	-0.031
Mof_H 	H 	0.30497	0.20803	0.69973	0.042
Mof_H 	H 	0.16457	0.06043	0.73423	-0.067
Mof_H 	H 	0.11337	0.03483	0.85093	0.259
Mof_O 	O 	0.85255	0.62827	0.08647	-0.409
Mof_O 	O 	0.84655	0.61588	0.23337	-0.415
Mof_C 	C 	0.85478	0.6097	0.15797	0.379
Mof_C 	C 	0.86932	0.5776	0.14327	-0.163
Mof_C 	C 	0.87486	0.55637	0.20987	0.119
Mof_H 	H 	0.86853	0.56067	0.26727	0.002
Mof_C 	C 	0.88994	0.52787	0.19447	-0.209
Mof_H 	H 	0.89253	0.51297	0.24217	0.117
Mof_C 	C 	0.90077	0.52116	0.11477	0.16
Mof_C 	C 	0.89274	0.54087	0.04397	-0.192
Mof_H 	H 	0.89823	0.53537	0.98687	0.099
Mof_C 	C 	0.87686	0.56847	0.05677	0.101
Mof_H 	H 	0.87103	0.58087	0.00857	0.011
Mof_C 	C 	0.9206	0.494	0.09667	-0.098
Mof_C 	C 	0.95894	0.51246	0.04897	-0.031
Mof_H 	H 	0.97163	0.54137	0.03307	0.042
Mof_H 	H 	0.83123	0.39377	0.06757	-0.067
Mof_H 	H 	0.78003	0.36817	0.18427	0.259
Mof_O 	O 	0.44238	0.48078	0.4198	-0.409
Mof_O 	O 	0.43599	0.48678	0.5667	-0.415
Mof_C 	C 	0.42158	0.47855	0.4913	0.379
Mof_C 	C 	0.37494	0.46401	0.4766	-0.163
Mof_C 	C 	0.34817	0.45847	0.5432	0.119
Mof_H 	H 	0.3588	0.4648	0.6006	0.002
Mof_C 	C 	0.30459	0.44339	0.5278	-0.209
Mof_H 	H 	0.2871	0.4408	0.5755	0.117
Mof_C 	C 	0.28705	0.43256	0.4481	0.16
Mof_C 	C 	0.31479	0.44059	0.3773	-0.192
Mof_H 	H 	0.3038	0.4351	0.3202	0.099
Mof_C 	C 	0.35827	0.45647	0.3901	0.101
Mof_H 	H 	0.3765	0.4623	0.3419	0.01
Mof_C 	C 	0.24006	0.41273	0.43	-0.098
Mof_C 	C 	0.22018	0.37439	0.3823	-0.031
Mof_H 	H 	0.2364	0.3617	0.3664	0.042
Mof_H 	H 	0.2292	0.5021	0.4009	-0.067
Mof_H 	H 	0.2548	0.5533	0.5176	0.259
Mof_O 	O 	0.10905	0.81411	0.75313	-0.409
Mof_O 	O 	0.10266	0.82011	0.90003	-0.415
Mof_C 	C 	0.08825	0.81188	0.82463	0.379
Mof_C 	C 	0.04161	0.79734	0.80993	-0.164
Mof_C 	C 	0.01484	0.7918	0.87653	0.119
Mof_H 	H 	0.02547	0.79813	0.93393	0.002
Mof_C 	C 	0.97126	0.77672	0.86113	-0.209
Mof_H 	H 	0.95377	0.77413	0.90883	0.117
Mof_C 	C 	0.95372	0.76589	0.78143	0.161
Mof_C 	C 	0.98146	0.77392	0.71063	-0.192
Mof_H 	H 	0.97047	0.76843	0.65353	0.099
Mof_C 	C 	0.02494	0.7898	0.72343	0.101
Mof_H 	H 	0.04317	0.79563	0.67523	0.01
Mof_C 	C 	0.90673	0.74606	0.76333	-0.098
Mof_C 	C 	0.88685	0.70772	0.71563	-0.031
Mof_H 	H 	0.90307	0.69503	0.69973	0.042
Mof_H 	H 	0.89587	0.83543	0.73423	-0.067
Mof_H 	H 	0.92147	0.88663	0.85093	0.259
Mof_O 	O 	0.77571	0.14745	0.08647	-0.409
Mof_O 	O 	0.76932	0.15345	0.23337	-0.415
Mof_C 	C 	0.75491	0.14522	0.15797	0.379
Mof_C 	C 	0.70827	0.13068	0.14327	-0.163
Mof_C 	C 	0.6815	0.12514	0.20987	0.119
Mof_H 	H 	0.69213	0.13147	0.26727	0.002
Mof_C 	C 	0.63792	0.11006	0.19447	-0.209
Mof_H 	H 	0.62043	0.10747	0.24217	0.117
Mof_C 	C 	0.62038	0.09923	0.11477	0.16
Mof_C 	C 	0.64812	0.10726	0.04397	-0.192
Mof_H 	H 	0.63713	0.10177	0.98687	0.099
Mof_C 	C 	0.6916	0.12314	0.05677	0.101
Mof_H 	H 	0.70983	0.12897	0.00857	0.011
Mof_C 	C 	0.57339	0.0794	0.09667	-0.098
Mof_C 	C 	0.55351	0.04106	0.04897	-0.031
Mof_H 	H 	0.56973	0.02837	0.03307	0.042
Mof_H 	H 	0.56253	0.16877	0.06757	-0.067
Mof_H 	H 	0.58813	0.21997	0.18427	0.259
Mof_O 	O 	0.44238	0.9616	0.4198	-0.409
Mof_O 	O 	0.43599	0.94921	0.5667	-0.415
Mof_C 	C 	0.42158	0.94303	0.4913	0.379
Mof_C 	C 	0.37494	0.91093	0.4766	-0.163
Mof_C 	C 	0.34817	0.8897	0.5432	0.119
Mof_H 	H 	0.3588	0.894	0.6006	0.002
Mof_C 	C 	0.30459	0.8612	0.5278	-0.209
Mof_H 	H 	0.2871	0.8463	0.5755	0.117
Mof_C 	C 	0.28705	0.85449	0.4481	0.16
Mof_C 	C 	0.31479	0.8742	0.3773	-0.192
Mof_H 	H 	0.3038	0.8687	0.3202	0.099
Mof_C 	C 	0.35827	0.9018	0.3901	0.101
Mof_H 	H 	0.3765	0.9142	0.3419	0.011
Mof_C 	C 	0.24006	0.82733	0.43	-0.098
Mof_C 	C 	0.22018	0.84579	0.3823	-0.031
Mof_H 	H 	0.2364	0.8747	0.3664	0.042
Mof_H 	H 	0.2292	0.7271	0.4009	-0.067
Mof_H 	H 	0.2548	0.7015	0.5176	0.259
Mof_O 	O 	0.10905	0.29493	0.75313	-0.409
Mof_O 	O 	0.10266	0.28254	0.90003	-0.415
Mof_C 	C 	0.08825	0.27636	0.82463	0.379
Mof_C 	C 	0.04161	0.24426	0.80993	-0.163
Mof_C 	C 	0.01484	0.22303	0.87653	0.119
Mof_H 	H 	0.02547	0.22733	0.93393	0.002
Mof_C 	C 	0.97126	0.19453	0.86113	-0.209
Mof_H 	H 	0.95377	0.17963	0.90883	0.117
Mof_C 	C 	0.95372	0.18782	0.78143	0.16
Mof_C 	C 	0.98146	0.20753	0.71063	-0.192
Mof_H 	H 	0.97047	0.20203	0.65353	0.099
Mof_C 	C 	0.02494	0.23513	0.72343	0.101
Mof_H 	H 	0.04317	0.24753	0.67523	0.011
Mof_C 	C 	0.90673	0.16066	0.76333	-0.098
Mof_C 	C 	0.88685	0.17912	0.71563	-0.031
Mof_H 	H 	0.90307	0.20803	0.69973	0.042
Mof_H 	H 	0.89587	0.06043	0.73423	-0.067
Mof_H 	H 	0.92147	0.03483	0.85093	0.259
Mof_O 	O 	0.77571	0.62827	0.08647	-0.409
Mof_O 	O 	0.76932	0.61588	0.23337	-0.415
Mof_C 	C 	0.75491	0.6097	0.15797	0.379
Mof_C 	C 	0.70827	0.5776	0.14327	-0.163
Mof_C 	C 	0.6815	0.55637	0.20987	0.119
Mof_H 	H 	0.69213	0.56067	0.26727	0.002
Mof_C 	C 	0.63792	0.52787	0.19447	-0.209
Mof_H 	H 	0.62043	0.51297	0.24217	0.117
Mof_C 	C 	0.62038	0.52116	0.11477	0.16
Mof_C 	C 	0.64812	0.54087	0.04397	-0.192
Mof_H 	H 	0.63713	0.53537	0.98687	0.099
Mof_C 	C 	0.6916	0.56847	0.05677	0.101
Mof_H 	H 	0.70983	0.58087	0.00857	0.011
Mof_C 	C 	0.57339	0.494	0.09667	-0.098
Mof_C 	C 	0.55351	0.51246	0.04897	-0.031
Mof_H 	H 	0.56973	0.54137	0.03307	0.042
Mof_H 	H 	0.56253	0.39377	0.06757	-0.067
Mof_H 	H 	0.58813	0.36817	0.18427	0.259
Mof_O 	O 	0.0384	0.48078	0.4198	-0.409
Mof_O 	O 	0.05079	0.48678	0.5667	-0.415
Mof_C 	C 	0.05697	0.47855	0.4913	0.379
Mof_C 	C 	0.08907	0.46401	0.4766	-0.163
Mof_C 	C 	0.1103	0.45847	0.5432	0.119
Mof_H 	H 	0.106	0.4648	0.6006	0.002
Mof_C 	C 	0.1388	0.44339	0.5278	-0.209
Mof_H 	H 	0.1537	0.4408	0.5755	0.117
Mof_C 	C 	0.14551	0.43256	0.4481	0.16
Mof_C 	C 	0.1258	0.44059	0.3773	-0.192
Mof_H 	H 	0.1313	0.4351	0.3202	0.099
Mof_C 	C 	0.0982	0.45647	0.3901	0.101
Mof_H 	H 	0.0858	0.4623	0.3419	0.011
Mof_C 	C 	0.17267	0.41273	0.43	-0.098
Mof_C 	C 	0.15421	0.37439	0.3823	-0.031
Mof_H 	H 	0.1253	0.3617	0.3664	0.042
Mof_H 	H 	0.2729	0.5021	0.4009	-0.067
Mof_H 	H 	0.2985	0.5533	0.5176	0.259
Mof_O 	O 	0.70507	0.81411	0.75313	-0.409
Mof_O 	O 	0.71746	0.82011	0.90003	-0.415
Mof_C 	C 	0.72364	0.81188	0.82463	0.379
Mof_C 	C 	0.75574	0.79734	0.80993	-0.163
Mof_C 	C 	0.77697	0.7918	0.87653	0.119
Mof_H 	H 	0.77267	0.79813	0.93393	0.002
Mof_C 	C 	0.80547	0.77672	0.86113	-0.209
Mof_H 	H 	0.82037	0.77413	0.90883	0.117
Mof_C 	C 	0.81218	0.76589	0.78143	0.16
Mof_C 	C 	0.79247	0.77392	0.71063	-0.192
Mof_H 	H 	0.79797	0.76843	0.65353	0.099
Mof_C 	C 	0.76487	0.7898	0.72343	0.101
Mof_H 	H 	0.75247	0.79563	0.67523	0.011
Mof_C 	C 	0.83934	0.74606	0.76333	-0.098
Mof_C 	C 	0.82088	0.70772	0.71563	-0.031
Mof_H 	H 	0.79197	0.69503	0.69973	0.042
Mof_H 	H 	0.93957	0.83543	0.73423	-0.067
Mof_H 	H 	0.96517	0.88663	0.85093	0.259
Mof_O 	O 	0.37173	0.14745	0.08647	-0.409
Mof_O 	O 	0.38412	0.15345	0.23337	-0.415
Mof_C 	C 	0.3903	0.14522	0.15797	0.379
Mof_C 	C 	0.4224	0.13068	0.14327	-0.163
Mof_C 	C 	0.44363	0.12514	0.20987	0.119
Mof_H 	H 	0.43933	0.13147	0.26727	0.002
Mof_C 	C 	0.47213	0.11006	0.19447	-0.209
Mof_H 	H 	0.48703	0.10747	0.24217	0.117
Mof_C 	C 	0.47884	0.09923	0.11477	0.16
Mof_C 	C 	0.45913	0.10726	0.04397	-0.192
Mof_H 	H 	0.46463	0.10177	0.98687	0.099
Mof_C 	C 	0.43153	0.12314	0.05677	0.101
Mof_H 	H 	0.41913	0.12897	0.00857	0.011
Mof_C 	C 	0.506	0.0794	0.09667	-0.098
Mof_C 	C 	0.48754	0.04106	0.04897	-0.031
Mof_H 	H 	0.45863	0.02837	0.03307	0.042
Mof_H 	H 	0.60623	0.16877	0.06757	-0.067
Mof_H 	H 	0.63183	0.21997	0.18427	0.259
Mof_O 	O 	0.51922	0.55762	0.4198	-0.409
Mof_O 	O 	0.51322	0.56401	0.5667	-0.415
Mof_C 	C 	0.52145	0.57842	0.4913	0.379
Mof_C 	C 	0.53599	0.62506	0.4766	-0.163
Mof_C 	C 	0.54153	0.65183	0.5432	0.119
Mof_H 	H 	0.5352	0.6412	0.6006	0.002
Mof_C 	C 	0.55661	0.69541	0.5278	-0.209
Mof_H 	H 	0.5592	0.7129	0.5755	0.117
Mof_C 	C 	0.56744	0.71295	0.4481	0.16
Mof_C 	C 	0.55941	0.68521	0.3773	-0.192
Mof_H 	H 	0.5649	0.6962	0.3202	0.099
Mof_C 	C 	0.54353	0.64173	0.3901	0.101
Mof_H 	H 	0.5377	0.6235	0.3419	0.01
Mof_C 	C 	0.58727	0.75994	0.43	-0.098
Mof_C 	C 	0.62561	0.77982	0.3823	-0.031
Mof_H 	H 	0.6383	0.7636	0.3664	0.042
Mof_H 	H 	0.4979	0.7708	0.4009	-0.067
Mof_H 	H 	0.4467	0.7452	0.5176	0.259
Mof_O 	O 	0.18589	0.89095	0.75313	-0.409
Mof_O 	O 	0.17989	0.89734	0.90003	-0.415
Mof_C 	C 	0.18812	0.91175	0.82463	0.379
Mof_C 	C 	0.20266	0.95839	0.80993	-0.164
Mof_C 	C 	0.2082	0.98516	0.87653	0.119
Mof_H 	H 	0.20187	0.97453	0.93393	0.002
Mof_C 	C 	0.22328	0.02874	0.86113	-0.209
Mof_H 	H 	0.22587	0.04623	0.90883	0.117
Mof_C 	C 	0.23411	0.04628	0.78143	0.161
Mof_C 	C 	0.22608	0.01854	0.71063	-0.192
Mof_H 	H 	0.23157	0.02953	0.65353	0.099
Mof_C 	C 	0.2102	0.97506	0.72343	0.101
Mof_H 	H 	0.20437	0.95683	0.67523	0.01
Mof_C 	C 	0.25394	0.09327	0.76333	-0.098
Mof_C 	C 	0.29228	0.11315	0.71563	-0.031
Mof_H 	H 	0.30497	0.09693	0.69973	0.042
Mof_H 	H 	0.16457	0.10413	0.73423	-0.067
Mof_H 	H 	0.11337	0.07853	0.85093	0.259
Mof_O 	O 	0.85255	0.22429	0.08647	-0.409
Mof_O 	O 	0.84655	0.23068	0.23337	-0.415
Mof_C 	C 	0.85478	0.24509	0.15797	0.379
Mof_C 	C 	0.86932	0.29173	0.14327	-0.163
Mof_C 	C 	0.87486	0.3185	0.20987	0.119
Mof_H 	H 	0.86853	0.30787	0.26727	0.002
Mof_C 	C 	0.88994	0.36208	0.19447	-0.209
Mof_H 	H 	0.89253	0.37957	0.24217	0.117
Mof_C 	C 	0.90077	0.37962	0.11477	0.16
Mof_C 	C 	0.89274	0.35188	0.04397	-0.192
Mof_H 	H 	0.89823	0.36287	0.98687	0.099
Mof_C 	C 	0.87686	0.3084	0.05677	0.101
Mof_H 	H 	0.87103	0.29017	0.00857	0.011
Mof_C 	C 	0.9206	0.42661	0.09667	-0.098
Mof_C 	C 	0.95894	0.44649	0.04897	-0.031
Mof_H 	H 	0.97163	0.43027	0.03307	0.042
Mof_H 	H 	0.83123	0.43747	0.06757	-0.067
Mof_H 	H 	0.78003	0.41187	0.18427	0.259
Mof_O 	O 	0.9616	0.44238	0.5802	-0.409
Mof_O 	O 	0.94921	0.43599	0.4333	-0.415
Mof_C 	C 	0.94303	0.42158	0.5087	0.379
Mof_C 	C 	0.91093	0.37494	0.5234	-0.163
Mof_C 	C 	0.8897	0.34817	0.4568	0.119
Mof_H 	H 	0.894	0.3588	0.3994	0.002
Mof_C 	C 	0.8612	0.30459	0.4722	-0.209
Mof_H 	H 	0.8463	0.2871	0.4245	0.117
Mof_C 	C 	0.85449	0.28705	0.5519	0.16
Mof_C 	C 	0.8742	0.31479	0.6227	-0.192
Mof_H 	H 	0.8687	0.3038	0.6798	0.099
Mof_C 	C 	0.9018	0.35827	0.6099	0.101
Mof_H 	H 	0.9142	0.3765	0.6581	0.011
Mof_C 	C 	0.82733	0.24006	0.57	-0.098
Mof_C 	C 	0.84579	0.22018	0.6177	-0.031
Mof_H 	H 	0.8747	0.2364	0.6336	0.042
Mof_H 	H 	0.7271	0.2292	0.5991	-0.067
Mof_H 	H 	0.7015	0.2548	0.4824	0.259
Mof_O 	O 	0.62827	0.77571	0.91353	-0.409
Mof_O 	O 	0.61588	0.76932	0.76663	-0.415
Mof_C 	C 	0.6097	0.75491	0.84203	0.379
Mof_C 	C 	0.5776	0.70827	0.85673	-0.163
Mof_C 	C 	0.55637	0.6815	0.79013	0.119
Mof_H 	H 	0.56067	0.69213	0.73273	0.002
Mof_C 	C 	0.52787	0.63792	0.80553	-0.209
Mof_H 	H 	0.51297	0.62043	0.75783	0.117
Mof_C 	C 	0.52116	0.62038	0.88523	0.16
Mof_C 	C 	0.54087	0.64812	0.95603	-0.192
Mof_H 	H 	0.53537	0.63713	0.01313	0.099
Mof_C 	C 	0.56847	0.6916	0.94323	0.101
Mof_H 	H 	0.58087	0.70983	0.99143	0.011
Mof_C 	C 	0.494	0.57339	0.90333	-0.098
Mof_C 	C 	0.51246	0.55351	0.95103	-0.031
Mof_H 	H 	0.54137	0.56973	0.96693	0.042
Mof_H 	H 	0.39377	0.56253	0.93243	-0.067
Mof_H 	H 	0.36817	0.58813	0.81573	0.259
Mof_O 	O 	0.29493	0.10905	0.24687	-0.409
Mof_O 	O 	0.28254	0.10266	0.09997	-0.415
Mof_C 	C 	0.27636	0.08825	0.17537	0.379
Mof_C 	C 	0.24426	0.04161	0.19007	-0.163
Mof_C 	C 	0.22303	0.01484	0.12347	0.119
Mof_H 	H 	0.22733	0.02547	0.06607	0.002
Mof_C 	C 	0.19453	0.97126	0.13887	-0.209
Mof_H 	H 	0.17963	0.95377	0.09117	0.117
Mof_C 	C 	0.18782	0.95372	0.21857	0.16
Mof_C 	C 	0.20753	0.98146	0.28937	-0.192
Mof_H 	H 	0.20203	0.97047	0.34647	0.099
Mof_C 	C 	0.23513	0.02494	0.27657	0.101
Mof_H 	H 	0.24753	0.04317	0.32477	0.011
Mof_C 	C 	0.16066	0.90673	0.23667	-0.098
Mof_C 	C 	0.17912	0.88685	0.28437	-0.031
Mof_H 	H 	0.20803	0.90307	0.30027	0.042
Mof_H 	H 	0.06043	0.89587	0.26577	-0.067
Mof_H 	H 	0.03483	0.92147	0.14907	0.259
Mof_O 	O 	0.48078	0.0384	0.5802	-0.409
Mof_O 	O 	0.48678	0.05079	0.4333	-0.415
Mof_C 	C 	0.47855	0.05697	0.5087	0.379
Mof_C 	C 	0.46401	0.08907	0.5234	-0.163
Mof_C 	C 	0.45847	0.1103	0.4568	0.119
Mof_H 	H 	0.4648	0.106	0.3994	0.002
Mof_C 	C 	0.44339	0.1388	0.4722	-0.209
Mof_H 	H 	0.4408	0.1537	0.4245	0.117
Mof_C 	C 	0.43256	0.14551	0.5519	0.16
Mof_C 	C 	0.44059	0.1258	0.6227	-0.192
Mof_H 	H 	0.4351	0.1313	0.6798	0.099
Mof_C 	C 	0.45647	0.0982	0.6099	0.101
Mof_H 	H 	0.4623	0.0858	0.6581	0.011
Mof_C 	C 	0.41273	0.17267	0.57	-0.098
Mof_C 	C 	0.37439	0.15421	0.6177	-0.031
Mof_H 	H 	0.3617	0.1253	0.6336	0.042
Mof_H 	H 	0.5021	0.2729	0.5991	-0.067
Mof_H 	H 	0.5533	0.2985	0.4824	0.259
Mof_O 	O 	0.14745	0.37173	0.91353	-0.409
Mof_O 	O 	0.15345	0.38412	0.76663	-0.415
Mof_C 	C 	0.14522	0.3903	0.84203	0.379
Mof_C 	C 	0.13068	0.4224	0.85673	-0.163
Mof_C 	C 	0.12514	0.44363	0.79013	0.119
Mof_H 	H 	0.13147	0.43933	0.73273	0.002
Mof_C 	C 	0.11006	0.47213	0.80553	-0.209
Mof_H 	H 	0.10747	0.48703	0.75783	0.117
Mof_C 	C 	0.09923	0.47884	0.88523	0.16
Mof_C 	C 	0.10726	0.45913	0.95603	-0.192
Mof_H 	H 	0.10177	0.46463	0.01313	0.099
Mof_C 	C 	0.12314	0.43153	0.94323	0.101
Mof_H 	H 	0.12897	0.41913	0.99143	0.011
Mof_C 	C 	0.0794	0.506	0.90333	-0.098
Mof_C 	C 	0.04106	0.48754	0.95103	-0.031
Mof_H 	H 	0.02837	0.45863	0.96693	0.042
Mof_H 	H 	0.16877	0.60623	0.93243	-0.067
Mof_H 	H 	0.21997	0.63183	0.81573	0.259
Mof_O 	O 	0.81411	0.70507	0.24687	-0.409
Mof_O 	O 	0.82011	0.71746	0.09997	-0.415
Mof_C 	C 	0.81188	0.72364	0.17537	0.379
Mof_C 	C 	0.79734	0.75574	0.19007	-0.163
Mof_C 	C 	0.7918	0.77697	0.12347	0.119
Mof_H 	H 	0.79813	0.77267	0.06607	0.002
Mof_C 	C 	0.77672	0.80547	0.13887	-0.209
Mof_H 	H 	0.77413	0.82037	0.09117	0.117
Mof_C 	C 	0.76589	0.81218	0.21857	0.16
Mof_C 	C 	0.77392	0.79247	0.28937	-0.192
Mof_H 	H 	0.76843	0.79797	0.34647	0.099
Mof_C 	C 	0.7898	0.76487	0.27657	0.101
Mof_H 	H 	0.79563	0.75247	0.32477	0.011
Mof_C 	C 	0.74606	0.83934	0.23667	-0.098
Mof_C 	C 	0.70772	0.82088	0.28437	-0.031
Mof_H 	H 	0.69503	0.79197	0.30027	0.042
Mof_H 	H 	0.83543	0.93957	0.26577	-0.067
Mof_H 	H 	0.88663	0.96517	0.14907	0.259
Mof_O 	O 	0.55762	0.51922	0.5802	-0.409
Mof_O 	O 	0.56401	0.51322	0.4333	-0.415
Mof_C 	C 	0.57842	0.52145	0.5087	0.379
Mof_C 	C 	0.62506	0.53599	0.5234	-0.163
Mof_C 	C 	0.65183	0.54153	0.4568	0.119
Mof_H 	H 	0.6412	0.5352	0.3994	0.002
Mof_C 	C 	0.69541	0.55661	0.4722	-0.209
Mof_H 	H 	0.7129	0.5592	0.4245	0.117
Mof_C 	C 	0.71295	0.56744	0.5519	0.16
Mof_C 	C 	0.68521	0.55941	0.6227	-0.192
Mof_H 	H 	0.6962	0.5649	0.6798	0.099
Mof_C 	C 	0.64173	0.54353	0.6099	0.101
Mof_H 	H 	0.6235	0.5377	0.6581	0.01
Mof_C 	C 	0.75994	0.58727	0.57	-0.098
Mof_C 	C 	0.77982	0.62561	0.6177	-0.031
Mof_H 	H 	0.7636	0.6383	0.6336	0.042
Mof_H 	H 	0.7708	0.4979	0.5991	-0.067
Mof_H 	H 	0.7452	0.4467	0.4824	0.259
Mof_O 	O 	0.22429	0.85255	0.91353	-0.409
Mof_O 	O 	0.23068	0.84655	0.76663	-0.415
Mof_C 	C 	0.24509	0.85478	0.84203	0.379
Mof_C 	C 	0.29173	0.86932	0.85673	-0.163
Mof_C 	C 	0.3185	0.87486	0.79013	0.119
Mof_H 	H 	0.30787	0.86853	0.73273	0.002
Mof_C 	C 	0.36208	0.88994	0.80553	-0.209
Mof_H 	H 	0.37957	0.89253	0.75783	0.117
Mof_C 	C 	0.37962	0.90077	0.88523	0.16
Mof_C 	C 	0.35188	0.89274	0.95603	-0.192
Mof_H 	H 	0.36287	0.89823	0.01313	0.099
Mof_C 	C 	0.3084	0.87686	0.94323	0.101
Mof_H 	H 	0.29017	0.87103	0.99143	0.011
Mof_C 	C 	0.42661	0.9206	0.90333	-0.098
Mof_C 	C 	0.44649	0.95894	0.95103	-0.031
Mof_H 	H 	0.43027	0.97163	0.96693	0.042
Mof_H 	H 	0.43747	0.83123	0.93243	-0.067
Mof_H 	H 	0.41187	0.78003	0.81573	0.259
Mof_O 	O 	0.89095	0.18589	0.24687	-0.409
Mof_O 	O 	0.89734	0.17989	0.09997	-0.415
Mof_C 	C 	0.91175	0.18812	0.17537	0.379
Mof_C 	C 	0.95839	0.20266	0.19007	-0.164
Mof_C 	C 	0.98516	0.2082	0.12347	0.119
Mof_H 	H 	0.97453	0.20187	0.06607	0.002
Mof_C 	C 	0.02874	0.22328	0.13887	-0.209
Mof_H 	H 	0.04623	0.22587	0.09117	0.117
Mof_C 	C 	0.04628	0.23411	0.21857	0.161
Mof_C 	C 	0.01854	0.22608	0.28937	-0.192
Mof_H 	H 	0.02953	0.23157	0.34647	0.099
Mof_C 	C 	0.97506	0.2102	0.27657	0.101
Mof_H 	H 	0.95683	0.20437	0.32477	0.01
Mof_C 	C 	0.09327	0.25394	0.23667	-0.098
Mof_C 	C 	0.11315	0.29228	0.28437	-0.031
Mof_H 	H 	0.09693	0.30497	0.30027	0.042
Mof_H 	H 	0.10413	0.16457	0.26577	-0.067
Mof_H 	H 	0.07853	0.11337	0.14907	0.259
Mof_Cu	Cu	0.50331	0.00662	0.41405	0.902
Mof_Cu	Cu	0.16998	0.33995	0.74738	0.902
Mof_Cu	Cu	0.83664	0.67329	0.08072	0.902
Mof_Cu	Cu	0.99338	0.49669	0.41405	0.902
Mof_Cu	Cu	0.66005	0.83002	0.74738	0.902
Mof_Cu	Cu	0.32671	0.16336	0.08072	0.902
Mof_Cu	Cu	0.50331	0.49669	0.41405	0.902
Mof_Cu	Cu	0.16998	0.83002	0.74738	0.902
Mof_Cu	Cu	0.83664	0.16336	0.08072	0.902
Mof_Cu	Cu	0.00662	0.50331	0.58595	0.902
Mof_Cu	Cu	0.67329	0.83664	0.91928	0.902
Mof_Cu	Cu	0.33995	0.16998	0.25262	0.902
Mof_Cu	Cu	0.49669	0.99338	0.58595	0.902
Mof_Cu	Cu	0.16336	0.32671	0.91928	0.902
Mof_Cu	Cu	0.83002	0.66005	0.25262	0.902
Mof_Cu	Cu	0.49669	0.50331	0.58595	0.902
Mof_Cu	Cu	0.16336	0.83664	0.91928	0.902
Mof_Cu	Cu	0.83002	0.16998	0.25262	0.902
Mof_O 	O 	0.76535	0.23465	0.4969	-0.276
Mof_C 	C 	0.82288	0.17712	0.6426	-0.002
Mof_C 	C 	0.78429	0.21571	0.5448	0.164
Mof_C 	C 	0.7476	0.2524	0.5617	0.334
Mof_C 	C 	0.7249	0.2751	0.5184	-0.778
Mof_H 	H 	0.7141	0.2859	0.5637	0.249
Mof_O 	O 	0.43202	0.56798	0.83023	-0.276
Mof_C 	C 	0.48955	0.51045	0.97593	-0.002
Mof_C 	C 	0.45096	0.54904	0.87813	0.164
Mof_C 	C 	0.41427	0.58573	0.89503	0.334
Mof_C 	C 	0.39157	0.60843	0.85173	-0.778
Mof_H 	H 	0.38077	0.61923	0.89703	0.249
Mof_O 	O 	0.09868	0.90132	0.16357	-0.276
Mof_C 	C 	0.15621	0.84379	0.30927	-0.002
Mof_C 	C 	0.11762	0.88238	0.21147	0.164
Mof_C 	C 	0.08093	0.91907	0.22837	0.334
Mof_C 	C 	0.05823	0.94177	0.18507	-0.778
Mof_H 	H 	0.04743	0.95257	0.23037	0.249
Mof_O 	O 	0.76535	0.5307	0.4969	-0.276
Mof_C 	C 	0.82288	0.64576	0.6426	-0.002
Mof_C 	C 	0.78429	0.56858	0.5448	0.164
Mof_C 	C 	0.7476	0.4952	0.5617	0.334
Mof_C 	C 	0.7249	0.4498	0.5184	-0.778
Mof_H 	H 	0.7141	0.4282	0.5637	0.249
Mof_O 	O 	0.43202	0.86403	0.83023	-0.276
Mof_C 	C 	0.48955	0.97909	0.97593	-0.002
Mof_C 	C 	0.45096	0.90191	0.87813	0.164
Mof_C 	C 	0.41427	0.82853	0.89503	0.334
Mof_C 	C 	0.39157	0.78313	0.85173	-0.778
Mof_H 	H 	0.38077	0.76153	0.89703	0.249
Mof_O 	O 	0.09868	0.19737	0.16357	-0.276
Mof_C 	C 	0.15621	0.31243	0.30927	-0.002
Mof_C 	C 	0.11762	0.23525	0.21147	0.164
Mof_C 	C 	0.08093	0.16187	0.22837	0.334
Mof_C 	C 	0.05823	0.11647	0.18507	-0.778
Mof_H 	H 	0.04743	0.09487	0.23037	0.249
Mof_O 	O 	0.4693	0.23465	0.4969	-0.276
Mof_C 	C 	0.35424	0.17712	0.6426	-0.002
Mof_C 	C 	0.43142	0.21571	0.5448	0.164
Mof_C 	C 	0.5048	0.2524	0.5617	0.334
Mof_C 	C 	0.5502	0.2751	0.5184	-0.778
Mof_H 	H 	0.5718	0.2859	0.5637	0.249
Mof_O 	O 	0.13597	0.56798	0.83023	-0.276
Mof_C 	C 	0.02091	0.51045	0.97593	-0.002
Mof_C 	C 	0.09809	0.54904	0.87813	0.164
Mof_C 	C 	0.17147	0.58573	0.89503	0.334
Mof_C 	C 	0.21687	0.60843	0.85173	-0.778
Mof_H 	H 	0.23847	0.61923	0.89703	0.249
Mof_O 	O 	0.80263	0.90132	0.16357	-0.276
Mof_C 	C 	0.68757	0.84379	0.30927	-0.002
Mof_C 	C 	0.76475	0.88238	0.21147	0.164
Mof_C 	C 	0.83813	0.91907	0.22837	0.334
Mof_C 	C 	0.88353	0.94177	0.18507	-0.778
Mof_H 	H 	0.90513	0.95257	0.23037	0.249
Mof_O 	O 	0.23465	0.76535	0.5031	-0.276
Mof_C 	C 	0.17712	0.82288	0.3574	-0.002
Mof_C 	C 	0.21571	0.78429	0.4552	0.164
Mof_C 	C 	0.2524	0.7476	0.4383	0.334
Mof_C 	C 	0.2751	0.7249	0.4816	-0.778
Mof_H 	H 	0.2859	0.7141	0.4363	0.249
Mof_O 	O 	0.90132	0.09868	0.83643	-0.276
Mof_C 	C 	0.84379	0.15621	0.69073	-0.002
Mof_C 	C 	0.88238	0.11762	0.78853	0.164
Mof_C 	C 	0.91907	0.08093	0.77163	0.334
Mof_C 	C 	0.94177	0.05823	0.81493	-0.778
Mof_H 	H 	0.95257	0.04743	0.76963	0.249
Mof_O 	O 	0.56798	0.43202	0.16977	-0.276
Mof_C 	C 	0.51045	0.48955	0.02407	-0.002
Mof_C 	C 	0.54904	0.45096	0.12187	0.164
Mof_C 	C 	0.58573	0.41427	0.10497	0.334
Mof_C 	C 	0.60843	0.39157	0.14827	-0.778
Mof_H 	H 	0.61923	0.38077	0.10297	0.249
Mof_O 	O 	0.5307	0.76535	0.5031	-0.276
Mof_C 	C 	0.64576	0.82288	0.3574	-0.002
Mof_C 	C 	0.56858	0.78429	0.4552	0.164
Mof_C 	C 	0.4952	0.7476	0.4383	0.334
Mof_C 	C 	0.4498	0.7249	0.4816	-0.778
Mof_H 	H 	0.4282	0.7141	0.4363	0.249
Mof_O 	O 	0.19737	0.09868	0.83643	-0.276
Mof_C 	C 	0.31243	0.15621	0.69073	-0.002
Mof_C 	C 	0.23525	0.11762	0.78853	0.164
Mof_C 	C 	0.16187	0.08093	0.77163	0.334
Mof_C 	C 	0.11647	0.05823	0.81493	-0.778
Mof_H 	H 	0.09487	0.04743	0.76963	0.249
Mof_O 	O 	0.86403	0.43202	0.16977	-0.276
Mof_C 	C 	0.97909	0.48955	0.02407	-0.002
Mof_C 	C 	0.90191	0.45096	0.12187	0.164
Mof_C 	C 	0.82853	0.41427	0.10497	0.334
Mof_C 	C 	0.78313	0.39157	0.14827	-0.778
Mof_H 	H 	0.76153	0.38077	0.10297	0.249
Mof_O 	O 	0.23465	0.4693	0.5031	-0.276
Mof_C 	C 	0.17712	0.35424	0.3574	-0.002
Mof_C 	C 	0.21571	0.43142	0.4552	0.164
Mof_C 	C 	0.2524	0.5048	0.4383	0.334
Mof_C 	C 	0.2751	0.5502	0.4816	-0.778
Mof_H 	H 	0.2859	0.5718	0.4363	0.249
Mof_O 	O 	0.90132	0.80263	0.83643	-0.276
Mof_C 	C 	0.84379	0.68757	0.69073	-0.002
Mof_C 	C 	0.88238	0.76475	0.78853	0.164
Mof_C 	C 	0.91907	0.83813	0.77163	0.334
Mof_C 	C 	0.94177	0.88353	0.81493	-0.778
Mof_H 	H 	0.95257	0.90513	0.76963	0.249
Mof_O 	O 	0.56798	0.13597	0.16977	-0.276
Mof_C 	C 	0.51045	0.02091	0.02407	-0.002
Mof_C 	C 	0.54904	0.09809	0.12187	0.164
Mof_C 	C 	0.58573	0.17147	0.10497	0.334
Mof_C 	C 	0.60843	0.21687	0.14827	-0.778
Mof_H 	H 	0.61923	0.23847	0.10297	0.249
_end
