# CIF file generated by openbabel 3.1.0, see https://openbabel.org
data_I
_chemical_name_common 'image0'
_cell_length_a 28.124
_cell_length_b 20.007
_cell_length_c 16.214
_cell_angle_alpha 90
_cell_angle_beta 114.096
_cell_angle_gamma 90
_space_group_name_H-M_alt 'P 1'
_space_group_name_Hall 'P 1'
loop_
    _symmetry_equiv_pos_as_xyz
    x,y,z
loop_
    _atom_site_label
    _atom_site_type_symbol
    _atom_site_fract_x
    _atom_site_fract_y
    _atom_site_fract_z
    _atom_site_occupancy
    Cu1      Cu       0.65362    0.79801    0.17837    1.000
    O1       O        0.60320    0.86690    0.11510    1.000
    O2       O        0.63510    0.94200    0.22580    1.000
    O3       O        0.61520    0.06690    0.08690    1.000
    O4       O        0.58270    0.14190    0.15100    1.000
    C1       C        0.60040    0.92130    0.15230    1.000
    C2       C        0.55250    0.96290    0.10300    1.000
    H1       H        0.54800    0.96730    0.04060    1.000
    H2       H        0.52260    0.93880    0.10290    1.000
    C3       C        0.58520    0.08250    0.12160    1.000
    C4       C        0.55240    0.03160    0.13990    1.000
    H3       H        0.56370    0.02800    0.20480    1.000
    H4       H        0.51670    0.04770    0.11530    1.000
    Cu2      Cu       0.62407    0.21808    0.14752    1.000
    Cu3      Cu       0.63713    0.70164    0.50471    1.000
    Cu4      Cu       0.64652    0.70584    0.31356    1.000
    O5       O        0.63430    0.79910    0.28310    1.000
    H5       H        0.59790    0.81200    0.26630    1.000
    O6       O        0.60040    0.69660    0.37480    1.000
    H6       H        0.56640    0.71880    0.34740    1.000
    Cu5      Cu       0.68416    0.86997    0.35288    1.000
    Cu6      Cu       0.76186    0.75585    0.30317    1.000
    O7       O        0.72610    0.84010    0.29010    1.000
    H7       H        0.74210    0.87670    0.27030    1.000
    O8       O        0.79760    0.67140    0.33130    1.000
    H8       H        0.78460    0.63760    0.28360    1.000
    Cu7      Cu       0.71588    0.59659    0.46100    1.000
    Cu8      Cu       0.67206    0.86345    0.54477    1.000
    O9       O        0.64530    0.89720    0.42370    1.000
    H9       H        0.61250    0.90140    0.39600    1.000
    Cu9      Cu       0.69746    0.99899    0.46872    1.000
    O10      O        0.75850    0.76480    0.15670    1.000
    O11      O        0.67380    0.78760    0.07650    1.000
    C5       C        0.71810    0.77020    0.08350    1.000
    C6       C        0.72450    0.76020    0.99780    1.000
    H10      H        0.69940    0.72680    0.96280    1.000
    H11      H        0.71510    0.80170    0.96400    1.000
    O12      O        0.69030    0.71660    0.24650    1.000
    H12      H        0.68810    0.67850    0.20700    1.000
    O13      O        0.66090    0.61110    0.34070    1.000
    H13      H        0.66420    0.58460    0.29240    1.000
    O14      O        0.77240    0.56680    0.42860    1.000
    O15      O        0.65710    0.60740    0.49590    1.000
    H14      H        0.65810    0.57830    0.54520    1.000
    O16      O        0.61700    0.79270    0.52030    1.000
    H15      H        0.58220    0.80590    0.47710    1.000
    O17      O        0.66730    0.70500    0.63820    1.000
    H16      H        0.66260    0.66390    0.66680    1.000
    O18      O        0.73540    0.93790    0.42170    1.000
    H17      H        0.75240    0.96030    0.38710    1.000
    Cu10     Cu       0.60104    0.58484    0.37303    1.000
    O19      O        0.55230    0.55010    0.42120    1.000
    C7       C        0.50240    0.54170    0.50500    1.000
    H18      H        0.46770    0.55950    0.47210    1.000
    H19      H        0.51180    0.55180    0.56840    1.000
    C8       C        0.54000    0.58300    0.47500    1.000
    O20      O        0.55150    0.63980    0.51400    1.000
    O21      O        0.73870    0.81360    0.50380    1.000
    O22      O        0.70300    0.75990    0.48650    1.000
    O23      O        0.71290    0.71000    0.46930    1.000
    Cu11     Cu       0.15362    0.29801    0.17837    1.000
    O24      O        0.10320    0.36690    0.11510    1.000
    O25      O        0.13510    0.44200    0.22580    1.000
    O26      O        0.11520    0.56690    0.08690    1.000
    O27      O        0.08270    0.64190    0.15100    1.000
    C9       C        0.10040    0.42130    0.15230    1.000
    C10      C        0.05250    0.46290    0.10300    1.000
    H20      H        0.04800    0.46730    0.04060    1.000
    H21      H        0.02260    0.43880    0.10290    1.000
    C11      C        0.08520    0.58250    0.12160    1.000
    C12      C        0.05240    0.53160    0.13990    1.000
    H22      H        0.06370    0.52800    0.20480    1.000
    H23      H        0.01670    0.54770    0.11530    1.000
    Cu12     Cu       0.12407    0.71808    0.14752    1.000
    Cu13     Cu       0.13713    0.20164    0.50471    1.000
    Cu14     Cu       0.14652    0.20584    0.31356    1.000
    O28      O        0.13430    0.29910    0.28310    1.000
    H24      H        0.09790    0.31200    0.26630    1.000
    O29      O        0.10040    0.19660    0.37480    1.000
    H25      H        0.06640    0.21880    0.34740    1.000
    Cu15     Cu       0.18416    0.36997    0.35288    1.000
    Cu16     Cu       0.26186    0.25585    0.30317    1.000
    O30      O        0.22610    0.34010    0.29010    1.000
    H26      H        0.24210    0.37670    0.27030    1.000
    O31      O        0.29760    0.17140    0.33130    1.000
    H27      H        0.28460    0.13760    0.28360    1.000
    Cu17     Cu       0.21588    0.09659    0.46100    1.000
    Cu18     Cu       0.17206    0.36345    0.54477    1.000
    O32      O        0.14530    0.39720    0.42370    1.000
    H28      H        0.11250    0.40140    0.39600    1.000
    Cu19     Cu       0.19746    0.49899    0.46872    1.000
    O33      O        0.25850    0.26480    0.15670    1.000
    O34      O        0.17380    0.28760    0.07650    1.000
    C13      C        0.21810    0.27020    0.08350    1.000
    C14      C        0.22450    0.26020    0.99780    1.000
    H29      H        0.19940    0.22680    0.96280    1.000
    H30      H        0.21510    0.30170    0.96400    1.000
    O35      O        0.19030    0.21660    0.24650    1.000
    H31      H        0.18810    0.17850    0.20700    1.000
    O36      O        0.16090    0.11110    0.34070    1.000
    H32      H        0.16420    0.08460    0.29240    1.000
    O37      O        0.27240    0.06680    0.42860    1.000
    O38      O        0.15710    0.10740    0.49590    1.000
    H33      H        0.15810    0.07830    0.54520    1.000
    O39      O        0.11700    0.29270    0.52030    1.000
    H34      H        0.08220    0.30590    0.47710    1.000
    O40      O        0.16730    0.20500    0.63820    1.000
    H35      H        0.16260    0.16390    0.66680    1.000
    O41      O        0.23540    0.43790    0.42170    1.000
    H36      H        0.25240    0.46030    0.38710    1.000
    Cu20     Cu       0.10104    0.08484    0.37303    1.000
    O42      O        0.05230    0.05010    0.42120    1.000
    C15      C        0.00240    0.04170    0.50500    1.000
    H37      H        0.96770    0.05950    0.47210    1.000
    H38      H        0.01180    0.05180    0.56840    1.000
    C16      C        0.04000    0.08300    0.47500    1.000
    O43      O        0.05150    0.13980    0.51400    1.000
    O44      O        0.23870    0.31360    0.50380    1.000
    O45      O        0.20300    0.25990    0.48650    1.000
    O46      O        0.21290    0.21000    0.46930    1.000
    Cu21     Cu       0.34638    0.79801    0.32163    1.000
    O47      O        0.39680    0.86690    0.38490    1.000
    O48      O        0.36490    0.94200    0.27420    1.000
    O49      O        0.38480    0.06690    0.41310    1.000
    O50      O        0.41730    0.14190    0.34900    1.000
    C17      C        0.39960    0.92130    0.34770    1.000
    C18      C        0.44750    0.96290    0.39700    1.000
    H39      H        0.45200    0.96730    0.45940    1.000
    H40      H        0.47740    0.93880    0.39710    1.000
    C19      C        0.41480    0.08250    0.37840    1.000
    C20      C        0.44760    0.03160    0.36010    1.000
    H41      H        0.43630    0.02800    0.29520    1.000
    H42      H        0.48330    0.04770    0.38470    1.000
    Cu22     Cu       0.37593    0.21808    0.35248    1.000
    Cu23     Cu       0.36287    0.70164    0.99529    1.000
    Cu24     Cu       0.35348    0.70584    0.18644    1.000
    O51      O        0.36570    0.79910    0.21690    1.000
    H43      H        0.40210    0.81200    0.23370    1.000
    O52      O        0.39960    0.69660    0.12520    1.000
    H44      H        0.43360    0.71880    0.15260    1.000
    Cu25     Cu       0.31584    0.86997    0.14712    1.000
    Cu26     Cu       0.23814    0.75585    0.19683    1.000
    O53      O        0.27390    0.84010    0.20990    1.000
    H45      H        0.25790    0.87670    0.22970    1.000
    O54      O        0.20240    0.67140    0.16870    1.000
    H46      H        0.21540    0.63760    0.21640    1.000
    Cu27     Cu       0.28412    0.59659    0.03900    1.000
    Cu28     Cu       0.32794    0.86345    0.95523    1.000
    O55      O        0.35470    0.89720    0.07630    1.000
    H47      H        0.38750    0.90140    0.10400    1.000
    Cu29     Cu       0.30254    0.99899    0.03128    1.000
    O56      O        0.24150    0.76480    0.34330    1.000
    O57      O        0.32620    0.78760    0.42350    1.000
    C21      C        0.28190    0.77020    0.41650    1.000
    C22      C        0.27550    0.76020    0.50220    1.000
    H48      H        0.30060    0.72680    0.53720    1.000
    H49      H        0.28490    0.80170    0.53600    1.000
    O58      O        0.30970    0.71660    0.25350    1.000
    H50      H        0.31190    0.67850    0.29300    1.000
    O59      O        0.33910    0.61110    0.15930    1.000
    H51      H        0.33580    0.58460    0.20760    1.000
    O60      O        0.22760    0.56680    0.07140    1.000
    O61      O        0.34290    0.60740    0.00410    1.000
    H52      H        0.34190    0.57830    0.95480    1.000
    O62      O        0.38300    0.79270    0.97970    1.000
    H53      H        0.41780    0.80590    0.02290    1.000
    O63      O        0.33270    0.70500    0.86180    1.000
    H54      H        0.33740    0.66390    0.83320    1.000
    O64      O        0.26460    0.93790    0.07830    1.000
    H55      H        0.24760    0.96030    0.11290    1.000
    Cu30     Cu       0.39896    0.58484    0.12697    1.000
    O65      O        0.44770    0.55010    0.07880    1.000
    C23      C        0.49760    0.54170    0.99500    1.000
    H56      H        0.53230    0.55950    0.02790    1.000
    H57      H        0.48820    0.55180    0.93160    1.000
    C24      C        0.46000    0.58300    0.02500    1.000
    O66      O        0.44850    0.63980    0.98600    1.000
    O67      O        0.26130    0.81360    0.99620    1.000
    O68      O        0.29700    0.75990    0.01350    1.000
    O69      O        0.28710    0.71000    0.03070    1.000
    Cu31     Cu       0.84638    0.29801    0.32163    1.000
    O70      O        0.89680    0.36690    0.38490    1.000
    O71      O        0.86490    0.44200    0.27420    1.000
    O72      O        0.88480    0.56690    0.41310    1.000
    O73      O        0.91730    0.64190    0.34900    1.000
    C25      C        0.89960    0.42130    0.34770    1.000
    C26      C        0.94750    0.46290    0.39700    1.000
    H58      H        0.95200    0.46730    0.45940    1.000
    H59      H        0.97740    0.43880    0.39710    1.000
    C27      C        0.91480    0.58250    0.37840    1.000
    C28      C        0.94760    0.53160    0.36010    1.000
    H60      H        0.93630    0.52800    0.29520    1.000
    H61      H        0.98330    0.54770    0.38470    1.000
    Cu32     Cu       0.87593    0.71808    0.35248    1.000
    Cu33     Cu       0.86287    0.20164    0.99529    1.000
    Cu34     Cu       0.85348    0.20584    0.18644    1.000
    O74      O        0.86570    0.29910    0.21690    1.000
    H62      H        0.90210    0.31200    0.23370    1.000
    O75      O        0.89960    0.19660    0.12520    1.000
    H63      H        0.93360    0.21880    0.15260    1.000
    Cu35     Cu       0.81584    0.36997    0.14712    1.000
    Cu36     Cu       0.73814    0.25585    0.19683    1.000
    O76      O        0.77390    0.34010    0.20990    1.000
    H64      H        0.75790    0.37670    0.22970    1.000
    O77      O        0.70240    0.17140    0.16870    1.000
    H65      H        0.71540    0.13760    0.21640    1.000
    Cu37     Cu       0.78412    0.09659    0.03900    1.000
    Cu38     Cu       0.82794    0.36345    0.95523    1.000
    O78      O        0.85470    0.39720    0.07630    1.000
    H66      H        0.88750    0.40140    0.10400    1.000
    Cu39     Cu       0.80254    0.49899    0.03128    1.000
    O79      O        0.74150    0.26480    0.34330    1.000
    O80      O        0.82620    0.28760    0.42350    1.000
    C29      C        0.78190    0.27020    0.41650    1.000
    C30      C        0.77550    0.26020    0.50220    1.000
    H67      H        0.80060    0.22680    0.53720    1.000
    H68      H        0.78490    0.30170    0.53600    1.000
    O81      O        0.80970    0.21660    0.25350    1.000
    H69      H        0.81190    0.17850    0.29300    1.000
    O82      O        0.83910    0.11110    0.15930    1.000
    H70      H        0.83580    0.08460    0.20760    1.000
    O83      O        0.72760    0.06680    0.07140    1.000
    O84      O        0.84290    0.10740    0.00410    1.000
    H71      H        0.84190    0.07830    0.95480    1.000
    O85      O        0.88300    0.29270    0.97970    1.000
    H72      H        0.91780    0.30590    0.02290    1.000
    O86      O        0.83270    0.20500    0.86180    1.000
    H73      H        0.83740    0.16390    0.83320    1.000
    O87      O        0.76460    0.43790    0.07830    1.000
    H74      H        0.74760    0.46030    0.11290    1.000
    Cu40     Cu       0.89896    0.08484    0.12697    1.000
    O88      O        0.94770    0.05010    0.07880    1.000
    C31      C        0.99760    0.04170    0.99500    1.000
    H75      H        0.03230    0.05950    0.02790    1.000
    H76      H        0.98820    0.05180    0.93160    1.000
    C32      C        0.96000    0.08300    0.02500    1.000
    O89      O        0.94850    0.13980    0.98600    1.000
    O90      O        0.76130    0.31360    0.99620    1.000
    O91      O        0.79700    0.25990    0.01350    1.000
    O92      O        0.78710    0.21000    0.03070    1.000
    Cu41     Cu       0.34638    0.20199    0.82163    1.000
    O93      O        0.39680    0.13310    0.88490    1.000
    O94      O        0.36490    0.05800    0.77420    1.000
    O95      O        0.38480    0.93310    0.91310    1.000
    O96      O        0.41730    0.85810    0.84900    1.000
    C33      C        0.39960    0.07870    0.84770    1.000
    C34      C        0.44750    0.03710    0.89700    1.000
    H77      H        0.45200    0.03270    0.95940    1.000
    H78      H        0.47740    0.06120    0.89710    1.000
    C35      C        0.41480    0.91750    0.87840    1.000
    C36      C        0.44760    0.96840    0.86010    1.000
    H79      H        0.43630    0.97200    0.79520    1.000
    H80      H        0.48330    0.95230    0.88470    1.000
    Cu42     Cu       0.37593    0.78192    0.85248    1.000
    Cu43     Cu       0.36287    0.29836    0.49529    1.000
    Cu44     Cu       0.35348    0.29416    0.68644    1.000
    O97      O        0.36570    0.20090    0.71690    1.000
    H81      H        0.40210    0.18800    0.73370    1.000
    O98      O        0.39960    0.30340    0.62520    1.000
    H82      H        0.43360    0.28120    0.65260    1.000
    Cu45     Cu       0.31584    0.13003    0.64712    1.000
    Cu46     Cu       0.23814    0.24415    0.69683    1.000
    O99      O        0.27390    0.15990    0.70990    1.000
    H83      H        0.25790    0.12330    0.72970    1.000
    O100     O        0.20240    0.32860    0.66870    1.000
    H84      H        0.21540    0.36240    0.71640    1.000
    Cu47     Cu       0.28412    0.40341    0.53900    1.000
    Cu48     Cu       0.32794    0.13655    0.45523    1.000
    O101     O        0.35470    0.10280    0.57630    1.000
    H85      H        0.38750    0.09860    0.60400    1.000
    Cu49     Cu       0.30254    0.00101    0.53128    1.000
    O102     O        0.24150    0.23520    0.84330    1.000
    O103     O        0.32620    0.21240    0.92350    1.000
    C37      C        0.28190    0.22980    0.91650    1.000
    C38      C        0.27550    0.23980    0.00220    1.000
    H86      H        0.30060    0.27320    0.03720    1.000
    H87      H        0.28490    0.19830    0.03600    1.000
    O104     O        0.30970    0.28340    0.75350    1.000
    H88      H        0.31190    0.32150    0.79300    1.000
    O105     O        0.33910    0.38890    0.65930    1.000
    H89      H        0.33580    0.41540    0.70760    1.000
    O106     O        0.22760    0.43320    0.57140    1.000
    O107     O        0.34290    0.39260    0.50410    1.000
    H90      H        0.34190    0.42170    0.45480    1.000
    O108     O        0.38300    0.20730    0.47970    1.000
    H91      H        0.41780    0.19410    0.52290    1.000
    O109     O        0.33270    0.29500    0.36180    1.000
    H92      H        0.33740    0.33610    0.33320    1.000
    O110     O        0.26460    0.06210    0.57830    1.000
    H93      H        0.24760    0.03970    0.61290    1.000
    Cu50     Cu       0.39896    0.41516    0.62697    1.000
    O111     O        0.44770    0.44990    0.57880    1.000
    C39      C        0.49760    0.45830    0.49500    1.000
    H94      H        0.53230    0.44050    0.52790    1.000
    H95      H        0.48820    0.44820    0.43160    1.000
    C40      C        0.46000    0.41700    0.52500    1.000
    O112     O        0.44850    0.36020    0.48600    1.000
    O113     O        0.26130    0.18640    0.49620    1.000
    O114     O        0.29700    0.24010    0.51350    1.000
    O115     O        0.28710    0.29000    0.53070    1.000
    Cu51     Cu       0.84638    0.70199    0.82163    1.000
    O116     O        0.89680    0.63310    0.88490    1.000
    O117     O        0.86490    0.55800    0.77420    1.000
    O118     O        0.88480    0.43310    0.91310    1.000
    O119     O        0.91730    0.35810    0.84900    1.000
    C41      C        0.89960    0.57870    0.84770    1.000
    C42      C        0.94750    0.53710    0.89700    1.000
    H96      H        0.95200    0.53270    0.95940    1.000
    H97      H        0.97740    0.56120    0.89710    1.000
    C43      C        0.91480    0.41750    0.87840    1.000
    C44      C        0.94760    0.46840    0.86010    1.000
    H98      H        0.93630    0.47200    0.79520    1.000
    H99      H        0.98330    0.45230    0.88470    1.000
    Cu52     Cu       0.87593    0.28192    0.85248    1.000
    Cu53     Cu       0.86287    0.79836    0.49529    1.000
    Cu54     Cu       0.85348    0.79416    0.68644    1.000
    O120     O        0.86570    0.70090    0.71690    1.000
    H100     H        0.90210    0.68800    0.73370    1.000
    O121     O        0.89960    0.80340    0.62520    1.000
    H101     H        0.93360    0.78120    0.65260    1.000
    Cu55     Cu       0.81584    0.63003    0.64712    1.000
    Cu56     Cu       0.73814    0.74415    0.69683    1.000
    O122     O        0.77390    0.65990    0.70990    1.000
    H102     H        0.75790    0.62330    0.72970    1.000
    O123     O        0.70240    0.82860    0.66870    1.000
    H103     H        0.71540    0.86240    0.71640    1.000
    Cu57     Cu       0.78412    0.90341    0.53900    1.000
    Cu58     Cu       0.82794    0.63655    0.45523    1.000
    O124     O        0.85470    0.60280    0.57630    1.000
    H104     H        0.88750    0.59860    0.60400    1.000
    Cu59     Cu       0.80254    0.50101    0.53128    1.000
    O125     O        0.74150    0.73520    0.84330    1.000
    O126     O        0.82620    0.71240    0.92350    1.000
    C45      C        0.78190    0.72980    0.91650    1.000
    C46      C        0.77550    0.73980    0.00220    1.000
    H105     H        0.80060    0.77320    0.03720    1.000
    H106     H        0.78490    0.69830    0.03600    1.000
    O127     O        0.80970    0.78340    0.75350    1.000
    H107     H        0.81190    0.82150    0.79300    1.000
    O128     O        0.83910    0.88890    0.65930    1.000
    H108     H        0.83580    0.91540    0.70760    1.000
    O129     O        0.72760    0.93320    0.57140    1.000
    O130     O        0.84290    0.89260    0.50410    1.000
    H109     H        0.84190    0.92170    0.45480    1.000
    O131     O        0.88300    0.70730    0.47970    1.000
    H110     H        0.91780    0.69410    0.52290    1.000
    O132     O        0.83270    0.79500    0.36180    1.000
    H111     H        0.83740    0.83610    0.33320    1.000
    O133     O        0.76460    0.56210    0.57830    1.000
    H112     H        0.74760    0.53970    0.61290    1.000
    Cu60     Cu       0.89896    0.91516    0.62697    1.000
    O134     O        0.94770    0.94990    0.57880    1.000
    C47      C        0.99760    0.95830    0.49500    1.000
    H113     H        0.03230    0.94050    0.52790    1.000
    H114     H        0.98820    0.94820    0.43160    1.000
    C48      C        0.96000    0.91700    0.52500    1.000
    O135     O        0.94850    0.86020    0.48600    1.000
    O136     O        0.76130    0.68640    0.49620    1.000
    O137     O        0.79700    0.74010    0.51350    1.000
    O138     O        0.78710    0.79000    0.53070    1.000
    Cu61     Cu       0.65362    0.20199    0.67837    1.000
    O139     O        0.60320    0.13310    0.61510    1.000
    O140     O        0.63510    0.05800    0.72580    1.000
    O141     O        0.61520    0.93310    0.58690    1.000
    O142     O        0.58270    0.85810    0.65100    1.000
    C49      C        0.60040    0.07870    0.65230    1.000
    C50      C        0.55250    0.03710    0.60300    1.000
    H115     H        0.54800    0.03270    0.54060    1.000
    H116     H        0.52260    0.06120    0.60290    1.000
    C51      C        0.58520    0.91750    0.62160    1.000
    C52      C        0.55240    0.96840    0.63990    1.000
    H117     H        0.56370    0.97200    0.70480    1.000
    H118     H        0.51670    0.95230    0.61530    1.000
    Cu62     Cu       0.62407    0.78192    0.64752    1.000
    Cu63     Cu       0.63713    0.29836    0.00471    1.000
    Cu64     Cu       0.64652    0.29416    0.81356    1.000
    O143     O        0.63430    0.20090    0.78310    1.000
    H119     H        0.59790    0.18800    0.76630    1.000
    O144     O        0.60040    0.30340    0.87480    1.000
    H120     H        0.56640    0.28120    0.84740    1.000
    Cu65     Cu       0.68416    0.13003    0.85288    1.000
    Cu66     Cu       0.76186    0.24415    0.80317    1.000
    O145     O        0.72610    0.15990    0.79010    1.000
    H121     H        0.74210    0.12330    0.77030    1.000
    O146     O        0.79760    0.32860    0.83130    1.000
    H122     H        0.78460    0.36240    0.78360    1.000
    Cu67     Cu       0.71588    0.40341    0.96100    1.000
    Cu68     Cu       0.67206    0.13655    0.04477    1.000
    O147     O        0.64530    0.10280    0.92370    1.000
    H123     H        0.61250    0.09860    0.89600    1.000
    Cu69     Cu       0.69746    0.00101    0.96872    1.000
    O148     O        0.75850    0.23520    0.65670    1.000
    O149     O        0.67380    0.21240    0.57650    1.000
    C53      C        0.71810    0.22980    0.58350    1.000
    C54      C        0.72450    0.23980    0.49780    1.000
    H124     H        0.69940    0.27320    0.46280    1.000
    H125     H        0.71510    0.19830    0.46400    1.000
    O150     O        0.69030    0.28340    0.74650    1.000
    H126     H        0.68810    0.32150    0.70700    1.000
    O151     O        0.66090    0.38890    0.84070    1.000
    H127     H        0.66420    0.41540    0.79240    1.000
    O152     O        0.77240    0.43320    0.92860    1.000
    O153     O        0.65710    0.39260    0.99590    1.000
    H128     H        0.65810    0.42170    0.04520    1.000
    O154     O        0.61700    0.20730    0.02030    1.000
    H129     H        0.58220    0.19410    0.97710    1.000
    O155     O        0.66730    0.29500    0.13820    1.000
    H130     H        0.66260    0.33610    0.16680    1.000
    O156     O        0.73540    0.06210    0.92170    1.000
    H131     H        0.75240    0.03970    0.88710    1.000
    Cu70     Cu       0.60104    0.41516    0.87303    1.000
    O157     O        0.55230    0.44990    0.92120    1.000
    C55      C        0.50240    0.45830    0.00500    1.000
    H132     H        0.46770    0.44050    0.97210    1.000
    H133     H        0.51180    0.44820    0.06840    1.000
    C56      C        0.54000    0.41700    0.97500    1.000
    O158     O        0.55150    0.36020    0.01400    1.000
    O159     O        0.73870    0.18640    0.00380    1.000
    O160     O        0.70300    0.24010    0.98650    1.000
    O161     O        0.71290    0.29000    0.96930    1.000
    Cu71     Cu       0.15362    0.70199    0.67837    1.000
    O162     O        0.10320    0.63310    0.61510    1.000
    O163     O        0.13510    0.55800    0.72580    1.000
    O164     O        0.11520    0.43310    0.58690    1.000
    O165     O        0.08270    0.35810    0.65100    1.000
    C57      C        0.10040    0.57870    0.65230    1.000
    C58      C        0.05250    0.53710    0.60300    1.000
    H134     H        0.04800    0.53270    0.54060    1.000
    H135     H        0.02260    0.56120    0.60290    1.000
    C59      C        0.08520    0.41750    0.62160    1.000
    C60      C        0.05240    0.46840    0.63990    1.000
    H136     H        0.06370    0.47200    0.70480    1.000
    H137     H        0.01670    0.45230    0.61530    1.000
    Cu72     Cu       0.12407    0.28192    0.64752    1.000
    Cu73     Cu       0.13713    0.79836    0.00471    1.000
    Cu74     Cu       0.14652    0.79416    0.81356    1.000
    O166     O        0.13430    0.70090    0.78310    1.000
    H138     H        0.09790    0.68800    0.76630    1.000
    O167     O        0.10040    0.80340    0.87480    1.000
    H139     H        0.06640    0.78120    0.84740    1.000
    Cu75     Cu       0.18416    0.63003    0.85288    1.000
    Cu76     Cu       0.26186    0.74415    0.80317    1.000
    O168     O        0.22610    0.65990    0.79010    1.000
    H140     H        0.24210    0.62330    0.77030    1.000
    O169     O        0.29760    0.82860    0.83130    1.000
    H141     H        0.28460    0.86240    0.78360    1.000
    Cu77     Cu       0.21588    0.90341    0.96100    1.000
    Cu78     Cu       0.17206    0.63655    0.04477    1.000
    O170     O        0.14530    0.60280    0.92370    1.000
    H142     H        0.11250    0.59860    0.89600    1.000
    Cu79     Cu       0.19746    0.50101    0.96872    1.000
    O171     O        0.25850    0.73520    0.65670    1.000
    O172     O        0.17380    0.71240    0.57650    1.000
    C61      C        0.21810    0.72980    0.58350    1.000
    C62      C        0.22450    0.73980    0.49780    1.000
    H143     H        0.19940    0.77320    0.46280    1.000
    H144     H        0.21510    0.69830    0.46400    1.000
    O173     O        0.19030    0.78340    0.74650    1.000
    H145     H        0.18810    0.82150    0.70700    1.000
    O174     O        0.16090    0.88890    0.84070    1.000
    H146     H        0.16420    0.91540    0.79240    1.000
    O175     O        0.27240    0.93320    0.92860    1.000
    O176     O        0.15710    0.89260    0.99590    1.000
    H147     H        0.15810    0.92170    0.04520    1.000
    O177     O        0.11700    0.70730    0.02030    1.000
    H148     H        0.08220    0.69410    0.97710    1.000
    O178     O        0.16730    0.79500    0.13820    1.000
    H149     H        0.16260    0.83610    0.16680    1.000
    O179     O        0.23540    0.56210    0.92170    1.000
    H150     H        0.25240    0.53970    0.88710    1.000
    Cu80     Cu       0.10104    0.91516    0.87303    1.000
    O180     O        0.05230    0.94990    0.92120    1.000
    C63      C        0.00240    0.95830    0.00500    1.000
    H151     H        0.96770    0.94050    0.97210    1.000
    H152     H        0.01180    0.94820    0.06840    1.000
    C64      C        0.04000    0.91700    0.97500    1.000
    O181     O        0.05150    0.86020    0.01400    1.000
    O182     O        0.23870    0.68640    0.00380    1.000
    O183     O        0.20300    0.74010    0.98650    1.000
    O184     O        0.21290    0.79000    0.96930    1.000
    C65      C        0.75000    0.75000    0.50000    1.000
    C66      C        0.25000    0.75000    0.00000    1.000
    C67      C        0.25000    0.25000    0.50000    1.000
    C68      C        0.75000    0.25000    0.00000    1.000
