data_functionalizedCrystal
_audit_creation_method	'EQeq! by Chris Wilmer'
_symmetry_space_group_name_H-M	'P1'
_symmetry_Int_Tables_number	1
_symmetry_cell_setting	triclinic
loop_
_symmetry_equiv_pos_as_xyz
  x,y,z
_cell_length_a	14.4099
_cell_length_b	14.4099
_cell_length_c	33.222
_cell_angle_alpha	90
_cell_angle_beta	90
_cell_angle_gamma	120
loop_
_atom_site_label
_atom_site_type_symbol
_atom_site_fract_x
_atom_site_fract_y
_atom_site_fract_z
_atom_site_charge
Mof_Cu	Cu	0.06718	0.15424	0.81192	0.865
Mof_O 	O 	0.0897	0.1962	0.7537	-0.364
Mof_O 	O 	0.0653	0.1473	0.87134	-0.543
Mof_O 	O 	0.122	0.2437	0.92765	-0.388
Mof_O 	O 	0.2116	0.4224	0.61293	-0.372
Mof_O 	O 	0.2527	0.5197	0.6691	-0.529
Mof_O 	O 	0.2275	0.4699	0.787	-0.364
Mof_N 	N 	0.14	0.3072	0.8221	-0.19
Mof_N 	N 	0.1674	0.3592	0.7187	-0.214
Mof_C 	C 	0.1136	0.2377	0.8897	0.367
Mof_C 	C 	0.1574	0.3415	0.8638	-0.395
Mof_H 	H 	0.2365	0.3848	0.8683	0.12
Mof_C 	C 	0.1067	0.4125	0.8768	0.783
Mof_C 	C 	0.1719	0.3668	0.7896	0.071
Mof_C 	C 	0.9889	0.3552	0.8671	-1.09
Mof_H 	H 	0.9584	0.3997	0.8752	0.305
Mof_H 	H 	0.9527	0.2869	0.8816	0.32
Mof_H 	H 	0.9789	0.3416	0.8381	0.309
Mof_C 	C 	0.1672	0.509	0.8896	-1.485
Mof_H 	H 	0.1229	0.5403	0.8967	0.413
Mof_H 	H 	0.2178	0.5517	0.8684	0.422
Mof_H 	H 	0.2069	0.5075	0.9133	0.41
Mof_C 	C 	0.209	0.4283	0.6506	0.327
Mof_C 	C 	0.1491	0.3233	0.6758	-0.221
Mof_H 	H 	0.1843	0.2796	0.6709	0.079
Mof_C 	C 	0.0288	0.2554	0.6631	0.274
Mof_C 	C 	0.1377	0.3004	0.7506	0.09
Mof_C 	C 	0.9669	0.3123	0.6736	-0.538
Mof_H 	H 	0.0125	0.3894	0.6688	0.151
Mof_H 	H 	0.9457	0.2998	0.702	0.156
Mof_H 	H 	0.9028	0.2843	0.6567	0.148
Mof_C 	C 	0.969	0.14	0.6663	-0.626
Mof_H 	H 	0.8965	0.1128	0.6569	0.186
Mof_H 	H 	0.9691	0.1193	0.6945	0.211
Mof_H 	H 	0.0049	0.11	0.6497	0.166
Mof_Cu	Cu	0.24729	0.51227	0.72848	0.866
Mof_Cu	Cu	0.73385	0.48757	0.14525	0.867
Mof_O 	O 	0.75637	0.52953	0.08703	-0.36
Mof_O 	O 	0.73197	0.48063	0.20467	-0.544
Mof_O 	O 	0.78867	0.57703	0.26098	-0.387
Mof_O 	O 	0.87827	0.75573	0.94626	-0.358
Mof_O 	O 	0.91937	0.85303	0.00243	-0.495
Mof_O 	O 	0.89417	0.80323	0.12033	-0.359
Mof_N 	N 	0.80667	0.64053	0.15543	-0.187
Mof_N 	N 	0.83407	0.69253	0.05203	-0.216
Mof_C 	C 	0.78027	0.57103	0.22303	0.371
Mof_C 	C 	0.82407	0.67483	0.19713	-0.41
Mof_H 	H 	0.90317	0.71813	0.20163	0.126
Mof_C 	C 	0.77337	0.74583	0.21013	0.827
Mof_C 	C 	0.83857	0.70013	0.12293	0.071
Mof_C 	C 	0.65557	0.68853	0.20043	-1.141
Mof_H 	H 	0.62507	0.73303	0.20853	0.318
Mof_H 	H 	0.61937	0.62023	0.21493	0.333
Mof_H 	H 	0.64557	0.67493	0.17143	0.322
Mof_C 	C 	0.83387	0.84233	0.22293	-1.556
Mof_H 	H 	0.78957	0.87363	0.23003	0.437
Mof_H 	H 	0.88447	0.88503	0.20173	0.446
Mof_H 	H 	0.87357	0.84083	0.24663	0.433
Mof_C 	C 	0.87567	0.76163	0.98393	0.281
Mof_C 	C 	0.81577	0.65663	0.00913	-0.184
Mof_H 	H 	0.85097	0.61293	0.00423	0.08
Mof_C 	C 	0.69547	0.58873	0.99643	0.261
Mof_C 	C 	0.80437	0.63373	0.08393	0.095
Mof_C 	C 	0.63357	0.64563	0.00693	-0.48
Mof_H 	H 	0.67917	0.72273	0.00213	0.149
Mof_H 	H 	0.61237	0.63313	0.03533	0.142
Mof_H 	H 	0.56947	0.61763	0.99003	0.118
Mof_C 	C 	0.63567	0.47333	0.99963	-0.71
Mof_H 	H 	0.56317	0.44613	0.99023	0.206
Mof_H 	H 	0.63577	0.45263	0.02783	0.245
Mof_H 	H 	0.67157	0.44333	0.98303	0.192
Mof_Cu	Cu	0.91396	0.8456	0.06181	0.87
Mof_Cu	Cu	0.40051	0.82091	0.47859	0.867
Mof_O 	O 	0.42303	0.86287	0.42037	-0.364
Mof_O 	O 	0.39863	0.81397	0.53801	-0.545
Mof_O 	O 	0.45533	0.91037	0.59432	-0.388
Mof_O 	O 	0.54493	0.08907	0.2796	-0.373
Mof_O 	O 	0.58603	0.18637	0.33577	-0.529
Mof_O 	O 	0.56083	0.13657	0.45367	-0.362
Mof_N 	N 	0.47333	0.97387	0.48877	-0.18
Mof_N 	N 	0.50073	0.02587	0.38537	-0.222
Mof_C 	C 	0.44693	0.90437	0.55637	0.376
Mof_C 	C 	0.49073	0.00817	0.53047	-0.417
Mof_H 	H 	0.56983	0.05147	0.53497	0.125
Mof_C 	C 	0.44003	0.07917	0.54347	0.823
Mof_C 	C 	0.50523	0.03347	0.45627	0.058
Mof_C 	C 	0.32223	0.02187	0.53377	-1.148
Mof_H 	H 	0.29173	0.06637	0.54187	0.316
Mof_H 	H 	0.28603	0.95357	0.54827	0.337
Mof_H 	H 	0.31223	0.00827	0.50477	0.32
Mof_C 	C 	0.50053	0.17567	0.55627	-1.544
Mof_H 	H 	0.45623	0.20697	0.56337	0.431
Mof_H 	H 	0.55113	0.21837	0.53507	0.439
Mof_H 	H 	0.54023	0.17417	0.57997	0.426
Mof_C 	C 	0.54233	0.09497	0.31727	0.321
Mof_C 	C 	0.48243	0.98997	0.34247	-0.221
Mof_H 	H 	0.51763	0.94627	0.33757	0.082
Mof_C 	C 	0.36213	0.92207	0.32977	0.314
Mof_C 	C 	0.47103	0.96707	0.41727	0.105
Mof_C 	C 	0.30023	0.97897	0.34027	-0.579
Mof_H 	H 	0.34583	0.05607	0.33547	0.162
Mof_H 	H 	0.27903	0.96647	0.36867	0.166
Mof_H 	H 	0.23613	0.95097	0.32337	0.162
Mof_C 	C 	0.30233	0.80667	0.33297	-0.699
Mof_H 	H 	0.22983	0.77947	0.32357	0.208
Mof_H 	H 	0.30243	0.78597	0.36117	0.229
Mof_H 	H 	0.33823	0.77667	0.31637	0.193
Mof_Cu	Cu	0.58062	0.17894	0.39515	0.865
Mof_Cu	Cu	0.84576	0.91294	0.81192	0.87
Mof_O 	O 	0.8038	0.8935	0.7537	-0.358
Mof_O 	O 	0.8527	0.918	0.87134	-0.535
Mof_O 	O 	0.7563	0.8783	0.92765	-0.384
Mof_O 	O 	0.5776	0.7892	0.61293	-0.374
Mof_O 	O 	0.4803	0.733	0.6691	-0.531
Mof_O 	O 	0.5301	0.7576	0.787	-0.364
Mof_N 	N 	0.6928	0.8328	0.8221	-0.188
Mof_N 	N 	0.6408	0.8082	0.7187	-0.211
Mof_C 	C 	0.7623	0.8759	0.8897	0.369
Mof_C 	C 	0.6585	0.8159	0.8638	-0.403
Mof_H 	H 	0.6152	0.8517	0.8683	0.122
Mof_C 	C 	0.5875	0.6942	0.8768	0.81
Mof_C 	C 	0.6332	0.8051	0.7896	0.072
Mof_C 	C 	0.6448	0.6337	0.8671	-1.123
Mof_H 	H 	0.6003	0.5587	0.8752	0.312
Mof_H 	H 	0.7131	0.6658	0.8816	0.328
Mof_H 	H 	0.6584	0.6373	0.8381	0.316
Mof_C 	C 	0.491	0.6582	0.8896	-1.524
Mof_H 	H 	0.4597	0.5826	0.8967	0.426
Mof_H 	H 	0.4483	0.6661	0.8684	0.433
Mof_H 	H 	0.4925	0.6994	0.9133	0.421
Mof_C 	C 	0.5717	0.7807	0.6506	0.332
Mof_C 	C 	0.6767	0.8258	0.6758	-0.24
Mof_H 	H 	0.7204	0.9047	0.6709	0.087
Mof_C 	C 	0.7446	0.7734	0.6631	0.328
Mof_C 	C 	0.6996	0.8373	0.7506	0.09
Mof_C 	C 	0.6877	0.6546	0.6736	-0.616
Mof_H 	H 	0.6106	0.6231	0.6688	0.178
Mof_H 	H 	0.7002	0.6459	0.702	0.176
Mof_H 	H 	0.7157	0.6185	0.6567	0.168
Mof_C 	C 	0.86	0.829	0.6663	-0.719
Mof_H 	H 	0.8872	0.7837	0.6569	0.215
Mof_H 	H 	0.8807	0.8498	0.6945	0.237
Mof_H 	H 	0.89	0.8949	0.6497	0.201
Mof_Cu	Cu	0.48773	0.73502	0.72848	0.866
Mof_Cu	Cu	0.51243	0.24627	0.14525	0.867
Mof_O 	O 	0.47047	0.22683	0.08703	-0.36
Mof_O 	O 	0.51937	0.25133	0.20467	-0.541
Mof_O 	O 	0.42297	0.21163	0.26098	-0.383
Mof_O 	O 	0.24427	0.12253	0.94626	-0.362
Mof_O 	O 	0.14697	0.06633	0.00243	-0.501
Mof_O 	O 	0.19677	0.09093	0.12033	-0.364
Mof_N 	N 	0.35947	0.16613	0.15543	-0.194
Mof_N 	N 	0.30747	0.14153	0.05203	-0.217
Mof_C 	C 	0.42897	0.20923	0.22303	0.359
Mof_C 	C 	0.32517	0.14923	0.19713	-0.364
Mof_H 	H 	0.28187	0.18503	0.20163	0.111
Mof_C 	C 	0.25417	0.02753	0.21013	0.695
Mof_C 	C 	0.29987	0.13843	0.12293	0.073
Mof_C 	C 	0.31147	0.96703	0.20043	-1.008
Mof_H 	H 	0.26697	0.89203	0.20853	0.282
Mof_H 	H 	0.37977	0.99913	0.21493	0.3
Mof_H 	H 	0.32507	0.97063	0.17143	0.289
Mof_C 	C 	0.15767	0.99153	0.22293	-1.318
Mof_H 	H 	0.12637	0.91593	0.23003	0.37
Mof_H 	H 	0.11497	0.99943	0.20173	0.38
Mof_H 	H 	0.15917	0.03273	0.24663	0.358
Mof_C 	C 	0.23837	0.11403	0.98393	0.278
Mof_C 	C 	0.34337	0.15913	0.00913	-0.179
Mof_H 	H 	0.38707	0.23803	0.00423	0.078
Mof_C 	C 	0.41127	0.10673	0.99643	0.244
Mof_C 	C 	0.36627	0.17063	0.08393	0.093
Mof_C 	C 	0.35437	0.98793	0.00693	-0.456
Mof_H 	H 	0.27727	0.95643	0.00213	0.144
Mof_H 	H 	0.36687	0.97923	0.03533	0.139
Mof_H 	H 	0.38237	0.95183	0.99003	0.113
Mof_C 	C 	0.52667	0.16233	0.99963	-0.693
Mof_H 	H 	0.55387	0.11703	0.99023	0.199
Mof_H 	H 	0.54737	0.18313	0.02783	0.239
Mof_H 	H 	0.55667	0.22823	0.98303	0.187
Mof_Cu	Cu	0.1544	0.06835	0.06181	0.866
Mof_Cu	Cu	0.17909	0.57961	0.47859	0.866
Mof_O 	O 	0.13713	0.56017	0.42037	-0.36
Mof_O 	O 	0.18603	0.58467	0.53801	-0.542
Mof_O 	O 	0.08963	0.54497	0.59432	-0.386
Mof_O 	O 	0.91093	0.45587	0.2796	-0.374
Mof_O 	O 	0.81363	0.39967	0.33577	-0.531
Mof_O 	O 	0.86343	0.42427	0.45367	-0.365
Mof_N 	N 	0.02613	0.49947	0.48877	-0.195
Mof_N 	N 	0.97413	0.47487	0.38537	-0.208
Mof_C 	C 	0.09563	0.54257	0.55637	0.362
Mof_C 	C 	0.99183	0.48257	0.53047	-0.388
Mof_H 	H 	0.94853	0.51837	0.53497	0.119
Mof_C 	C 	0.92083	0.36087	0.54347	0.793
Mof_C 	C 	0.96653	0.47177	0.45627	0.079
Mof_C 	C 	0.97813	0.30037	0.53377	-1.09
Mof_H 	H 	0.93363	0.22537	0.54187	0.303
Mof_H 	H 	0.04643	0.33247	0.54827	0.314
Mof_H 	H 	0.99173	0.30397	0.50477	0.307
Mof_C 	C 	0.82433	0.32487	0.55627	-1.5
Mof_H 	H 	0.79303	0.24927	0.56337	0.42
Mof_H 	H 	0.78163	0.33277	0.53507	0.427
Mof_H 	H 	0.82583	0.36607	0.57997	0.416
Mof_C 	C 	0.90503	0.44737	0.31727	0.333
Mof_C 	C 	0.01003	0.49247	0.34247	-0.242
Mof_H 	H 	0.05373	0.57137	0.33757	0.086
Mof_C 	C 	0.07793	0.44007	0.32977	0.325
Mof_C 	C 	0.03293	0.50397	0.41727	0.084
Mof_C 	C 	0.02103	0.32127	0.34027	-0.616
Mof_H 	H 	0.94393	0.28977	0.33547	0.178
Mof_H 	H 	0.03353	0.31257	0.36867	0.174
Mof_H 	H 	0.04903	0.28517	0.32337	0.167
Mof_C 	C 	0.19333	0.49567	0.33297	-0.711
Mof_H 	H 	0.22053	0.45037	0.32357	0.211
Mof_H 	H 	0.21403	0.51647	0.36117	0.233
Mof_H 	H 	0.22333	0.56157	0.31637	0.196
Mof_Cu	Cu	0.82106	0.40169	0.39515	0.866
Mof_Cu	Cu	0.08706	0.93282	0.81192	0.868
Mof_O 	O 	0.1065	0.9103	0.7537	-0.362
Mof_O 	O 	0.082	0.9347	0.87134	-0.539
Mof_O 	O 	0.1217	0.878	0.92765	-0.387
Mof_O 	O 	0.2108	0.7884	0.61293	-0.376
Mof_O 	O 	0.267	0.7473	0.6691	-0.531
Mof_O 	O 	0.2424	0.7725	0.787	-0.364
Mof_N 	N 	0.1672	0.86	0.8221	-0.187
Mof_N 	N 	0.1918	0.8326	0.7187	-0.21
Mof_C 	C 	0.1241	0.8864	0.8897	0.371
Mof_C 	C 	0.1841	0.8426	0.8638	-0.409
Mof_H 	H 	0.1483	0.7635	0.8683	0.122
Mof_C 	C 	0.3058	0.8933	0.8768	0.83
Mof_C 	C 	0.1949	0.8281	0.7896	0.071
Mof_C 	C 	0.3663	0.0111	0.8671	-1.148
Mof_H 	H 	0.4413	0.0416	0.8752	0.317
Mof_H 	H 	0.3342	0.0473	0.8816	0.332
Mof_H 	H 	0.3627	0.0211	0.8381	0.32
Mof_C 	C 	0.3418	0.8328	0.8896	-1.553
Mof_H 	H 	0.4174	0.8771	0.8967	0.436
Mof_H 	H 	0.3339	0.7822	0.8684	0.442
Mof_H 	H 	0.3006	0.7931	0.9133	0.429
Mof_C 	C 	0.2193	0.791	0.6506	0.332
Mof_C 	C 	0.1742	0.8509	0.6758	-0.246
Mof_H 	H 	0.0953	0.8157	0.6709	0.085
Mof_C 	C 	0.2266	0.9712	0.6631	0.346
Mof_C 	C 	0.1627	0.8623	0.7506	0.09
Mof_C 	C 	0.3454	0.0331	0.6736	-0.647
Mof_H 	H 	0.3769	0.9875	0.6688	0.189
Mof_H 	H 	0.3541	0.0543	0.702	0.183
Mof_H 	H 	0.3815	0.0972	0.6567	0.176
Mof_C 	C 	0.171	0.031	0.6663	-0.748
Mof_H 	H 	0.2163	0.1035	0.6569	0.221
Mof_H 	H 	0.1502	0.0309	0.6945	0.241
Mof_H 	H 	0.1051	0.9951	0.6497	0.207
Mof_Cu	Cu	0.26498	0.75271	0.72848	0.866
Mof_Cu	Cu	0.75373	0.26615	0.14525	0.867
Mof_O 	O 	0.77317	0.24363	0.08703	-0.36
Mof_O 	O 	0.74867	0.26803	0.20467	-0.544
Mof_O 	O 	0.78837	0.21133	0.26098	-0.388
Mof_O 	O 	0.87747	0.12173	0.94626	-0.361
Mof_O 	O 	0.93367	0.08063	0.00243	-0.501
Mof_O 	O 	0.90907	0.10583	0.12033	-0.364
Mof_N 	N 	0.83387	0.19333	0.15543	-0.188
Mof_N 	N 	0.85847	0.16593	0.05203	-0.216
Mof_C 	C 	0.79077	0.21973	0.22303	0.37
Mof_C 	C 	0.85077	0.17593	0.19713	-0.405
Mof_H 	H 	0.81497	0.09683	0.20163	0.12
Mof_C 	C 	0.97247	0.22663	0.21013	0.818
Mof_C 	C 	0.86157	0.16143	0.12293	0.071
Mof_C 	C 	0.03297	0.34443	0.20043	-1.133
Mof_H 	H 	0.10797	0.37493	0.20853	0.315
Mof_H 	H 	0.00087	0.38063	0.21493	0.33
Mof_H 	H 	0.02937	0.35443	0.17143	0.319
Mof_C 	C 	0.00847	0.16613	0.22293	-1.538
Mof_H 	H 	0.08407	0.21043	0.23003	0.43
Mof_H 	H 	0.00057	0.11553	0.20173	0.436
Mof_H 	H 	0.96727	0.12643	0.24663	0.424
Mof_C 	C 	0.88597	0.12433	0.98393	0.283
Mof_C 	C 	0.84087	0.18423	0.00913	-0.187
Mof_H 	H 	0.76197	0.14903	0.00423	0.079
Mof_C 	C 	0.89327	0.30453	0.99643	0.268
Mof_C 	C 	0.82937	0.19563	0.08393	0.094
Mof_C 	C 	0.01207	0.36643	0.00693	-0.487
Mof_H 	H 	0.04357	0.32083	0.00213	0.149
Mof_H 	H 	0.02077	0.38763	0.03533	0.143
Mof_H 	H 	0.04817	0.43053	0.99003	0.118
Mof_C 	C 	0.83767	0.36433	0.99963	-0.715
Mof_H 	H 	0.88297	0.43683	0.99023	0.209
Mof_H 	H 	0.81687	0.36423	0.02783	0.247
Mof_H 	H 	0.77177	0.32843	0.98303	0.193
Mof_Cu	Cu	0.93165	0.08604	0.06181	0.867
Mof_Cu	Cu	0.42039	0.59949	0.47859	0.867
Mof_O 	O 	0.43983	0.57697	0.42037	-0.361
Mof_O 	O 	0.41533	0.60137	0.53801	-0.544
Mof_O 	O 	0.45503	0.54467	0.59432	-0.387
Mof_O 	O 	0.54413	0.45507	0.2796	-0.374
Mof_O 	O 	0.60033	0.41397	0.33577	-0.531
Mof_O 	O 	0.57573	0.43917	0.45367	-0.364
Mof_N 	N 	0.50053	0.52667	0.48877	-0.188
Mof_N 	N 	0.52513	0.49927	0.38537	-0.211
Mof_C 	C 	0.45743	0.55307	0.55637	0.369
Mof_C 	C 	0.51743	0.50927	0.53047	-0.404
Mof_H 	H 	0.48163	0.43017	0.53497	0.121
Mof_C 	C 	0.63913	0.55997	0.54347	0.813
Mof_C 	C 	0.52823	0.49477	0.45627	0.071
Mof_C 	C 	0.69963	0.67777	0.53377	-1.127
Mof_H 	H 	0.77463	0.70827	0.54187	0.314
Mof_H 	H 	0.66753	0.71397	0.54827	0.329
Mof_H 	H 	0.69603	0.68777	0.50477	0.317
Mof_C 	C 	0.67513	0.49947	0.55627	-1.53
Mof_H 	H 	0.75073	0.54377	0.56337	0.428
Mof_H 	H 	0.66723	0.44887	0.53507	0.435
Mof_H 	H 	0.63393	0.45977	0.57997	0.423
Mof_C 	C 	0.55263	0.45767	0.31727	0.331
Mof_C 	C 	0.50753	0.51757	0.34247	-0.239
Mof_H 	H 	0.42863	0.48237	0.33757	0.084
Mof_C 	C 	0.55993	0.63787	0.32977	0.325
Mof_C 	C 	0.49603	0.52897	0.41727	0.09
Mof_C 	C 	0.67873	0.69977	0.34027	-0.614
Mof_H 	H 	0.71023	0.65417	0.33547	0.178
Mof_H 	H 	0.68743	0.72097	0.36867	0.176
Mof_H 	H 	0.71483	0.76387	0.32337	0.169
Mof_C 	C 	0.50433	0.69767	0.33297	-0.712
Mof_H 	H 	0.54963	0.77017	0.32357	0.212
Mof_H 	H 	0.48353	0.69757	0.36117	0.233
Mof_H 	H 	0.43843	0.66177	0.31637	0.196
Mof_Cu	Cu	0.59831	0.41938	0.39515	0.866
Mof_Ba	Ba	3.38035e-32	0	0.93687	1.847
Mof_O 	O 	-0	0	0.7985	-0.586
Mof_Ba	Ba	0.66667	0.33333	0.2702	1.908
Mof_O 	O 	0.66667	0.33333	0.13183	-0.578
Mof_Ba	Ba	0.33333	0.66667	0.60354	1.909
Mof_O 	O 	0.33333	0.66667	0.46517	-0.579
Mof_O 	O 	0.33333	0.66667	0.7421	-0.582
Mof_O 	O 	4.22544e-33	4.22544e-33	0.07543	-0.587
Mof_O 	O 	0.66667	0.33333	0.40877	-0.582
_end
