# CIF file generated by openbabel 3.1.0, see https://openbabel.org
data_I
_chemical_name_common 'image0'
_cell_length_a 12.024
_cell_length_b 15.032
_cell_length_c 12.948
_cell_angle_alpha 90
_cell_angle_beta 90
_cell_angle_gamma 90
_space_group_name_H-M_alt 'P 1'
_space_group_name_Hall 'P 1'
loop_
    _symmetry_equiv_pos_as_xyz
    x,y,z
loop_
    _atom_site_label
    _atom_site_type_symbol
    _atom_site_fract_x
    _atom_site_fract_y
    _atom_site_fract_z
    _atom_site_occupancy
    O1       O        0.33770    0.42030    0.72071    1.000
    O2       O        0.43160    0.48210    0.84840    1.000
    O3       O        0.10310    0.15251    0.80760    1.000
    O4       O        0.13570    0.08251    0.95450    1.000
    C1       C        0.32250    0.35620    0.88760    1.000
    C2       C        0.25480    0.28720    0.85670    1.000
    H1       H        0.23260    0.28270    0.78650    1.000
    C3       C        0.21870    0.22420    0.92820    1.000
    C4       C        0.22690    0.24410    0.03500    1.000
    H2       H        0.18750    0.20970    0.08450    1.000
    C5       C        0.29350    0.31490    0.06610    1.000
    H3       H        0.31100    0.32250    0.13710    1.000
    C6       C        0.33420    0.37400    0.99390    1.000
    H4       H        0.37010    0.42690    0.01590    1.000
    C7       C        0.27100    0.22260    0.02740    1.000
    H5       H        0.25520    0.17540    0.07380    1.000
    C8       C        0.34280    0.28740    0.05610    1.000
    H6       H        0.37210    0.28790    0.12420    1.000
    C9       C        0.37390    0.35390    0.98570    1.000
    H7       H        0.42870    0.39670    0.00370    1.000
    C10      C        0.36640    0.42360    0.81230    1.000
    C11      C        0.14770    0.14760    0.89520    1.000
    Li1      Li       0.40560    0.45960    0.58960    1.000
    Li2      Li       0.30290    0.46380    0.58770    1.000
    O5       O        0.14500    0.49490    0.56700    1.000
    H8       H        0.11150    0.49330    0.62460    1.000
    H9       H        0.10670    0.51280    0.51610    1.000
    O6       O        0.14000    0.45390    0.59300    1.000
    H10      H        0.10650    0.46490    0.64970    1.000
    H11      H        0.08970    0.42780    0.55850    1.000
    O7       O        0.18600    0.08700    0.94500    1.000
    H12      H        0.21270    0.11400    0.99710    1.000
    O8       O        0.83770    0.92030    0.72071    1.000
    O9       O        0.93160    0.98210    0.84840    1.000
    O10      O        0.60310    0.65251    0.80760    1.000
    O11      O        0.63570    0.58251    0.95450    1.000
    C12      C        0.82250    0.85620    0.88760    1.000
    C13      C        0.75480    0.78720    0.85670    1.000
    H13      H        0.73260    0.78270    0.78650    1.000
    C14      C        0.71870    0.72420    0.92820    1.000
    C15      C        0.72690    0.74410    0.03500    1.000
    H14      H        0.68750    0.70970    0.08450    1.000
    C16      C        0.79350    0.81490    0.06610    1.000
    H15      H        0.81100    0.82250    0.13710    1.000
    C17      C        0.83420    0.87400    0.99390    1.000
    H16      H        0.87010    0.92690    0.01590    1.000
    C18      C        0.77100    0.72260    0.02740    1.000
    H17      H        0.75520    0.67540    0.07380    1.000
    C19      C        0.84280    0.78740    0.05610    1.000
    H18      H        0.87210    0.78790    0.12420    1.000
    C20      C        0.87390    0.85390    0.98570    1.000
    H19      H        0.92870    0.89670    0.00370    1.000
    C21      C        0.86640    0.92360    0.81230    1.000
    C22      C        0.64770    0.64760    0.89520    1.000
    Li3      Li       0.90560    0.95960    0.58960    1.000
    Li4      Li       0.80290    0.96380    0.58770    1.000
    O12      O        0.64500    0.99490    0.56700    1.000
    H20      H        0.61150    0.99330    0.62460    1.000
    H21      H        0.60670    0.01280    0.51610    1.000
    O13      O        0.64000    0.95390    0.59300    1.000
    H22      H        0.60650    0.96490    0.64970    1.000
    H23      H        0.58970    0.92780    0.55850    1.000
    O14      O        0.68600    0.58700    0.94500    1.000
    H24      H        0.71270    0.61400    0.99710    1.000
    O15      O        0.66230    0.57970    0.22071    1.000
    O16      O        0.56840    0.51790    0.34840    1.000
    O17      O        0.89690    0.84749    0.30760    1.000
    O18      O        0.86430    0.91749    0.45450    1.000
    C23      C        0.67750    0.64380    0.38760    1.000
    C24      C        0.74520    0.71280    0.35670    1.000
    H25      H        0.76740    0.71730    0.28650    1.000
    C25      C        0.78130    0.77580    0.42820    1.000
    C26      C        0.77310    0.75590    0.53500    1.000
    H26      H        0.81250    0.79030    0.58450    1.000
    C27      C        0.70650    0.68510    0.56610    1.000
    H27      H        0.68900    0.67750    0.63710    1.000
    C28      C        0.66580    0.62600    0.49390    1.000
    H28      H        0.62990    0.57310    0.51590    1.000
    C29      C        0.72900    0.77740    0.52740    1.000
    H29      H        0.74480    0.82460    0.57380    1.000
    C30      C        0.65720    0.71260    0.55610    1.000
    H30      H        0.62790    0.71210    0.62420    1.000
    C31      C        0.62610    0.64610    0.48570    1.000
    H31      H        0.57130    0.60330    0.50370    1.000
    C32      C        0.63360    0.57640    0.31230    1.000
    C33      C        0.85230    0.85240    0.39520    1.000
    Li5      Li       0.59440    0.54040    0.08960    1.000
    Li6      Li       0.69710    0.53620    0.08770    1.000
    O19      O        0.85500    0.50510    0.06700    1.000
    H32      H        0.88850    0.50670    0.12460    1.000
    H33      H        0.89330    0.48720    0.01610    1.000
    O20      O        0.86000    0.54610    0.09300    1.000
    H34      H        0.89350    0.53510    0.14970    1.000
    H35      H        0.91030    0.57220    0.05850    1.000
    O21      O        0.81400    0.91300    0.44500    1.000
    H36      H        0.78730    0.88600    0.49710    1.000
    O22      O        0.16230    0.07970    0.22071    1.000
    O23      O        0.06840    0.01790    0.34840    1.000
    O24      O        0.39690    0.34749    0.30760    1.000
    O25      O        0.36430    0.41749    0.45450    1.000
    C34      C        0.17750    0.14380    0.38760    1.000
    C35      C        0.24520    0.21280    0.35670    1.000
    H37      H        0.26740    0.21730    0.28650    1.000
    C36      C        0.28130    0.27580    0.42820    1.000
    C37      C        0.27310    0.25590    0.53500    1.000
    H38      H        0.31250    0.29030    0.58450    1.000
    C38      C        0.20650    0.18510    0.56610    1.000
    H39      H        0.18900    0.17750    0.63710    1.000
    C39      C        0.16580    0.12600    0.49390    1.000
    H40      H        0.12990    0.07310    0.51590    1.000
    C40      C        0.22900    0.27740    0.52740    1.000
    H41      H        0.24480    0.32460    0.57380    1.000
    C41      C        0.15720    0.21260    0.55610    1.000
    H42      H        0.12790    0.21210    0.62420    1.000
    C42      C        0.12610    0.14610    0.48570    1.000
    H43      H        0.07130    0.10330    0.50370    1.000
    C43      C        0.13360    0.07640    0.31230    1.000
    C44      C        0.35230    0.35240    0.39520    1.000
    Li7      Li       0.09440    0.04040    0.08960    1.000
    Li8      Li       0.19710    0.03620    0.08770    1.000
    O26      O        0.35500    0.00510    0.06700    1.000
    H44      H        0.38850    0.00670    0.12460    1.000
    H45      H        0.39330    0.98720    0.01610    1.000
    O27      O        0.36000    0.04610    0.09300    1.000
    H46      H        0.39350    0.03510    0.14970    1.000
    H47      H        0.41030    0.07220    0.05850    1.000
    O28      O        0.31400    0.41300    0.44500    1.000
    H48      H        0.28730    0.38600    0.49710    1.000
    O29      O        0.66230    0.42030    0.77929    1.000
    O30      O        0.56840    0.48210    0.65160    1.000
    O31      O        0.89690    0.15251    0.69240    1.000
    O32      O        0.86430    0.08251    0.54550    1.000
    C45      C        0.67750    0.35620    0.61240    1.000
    C46      C        0.74520    0.28720    0.64330    1.000
    H49      H        0.76740    0.28270    0.71350    1.000
    C47      C        0.78130    0.22420    0.57180    1.000
    C48      C        0.77310    0.24410    0.46500    1.000
    H50      H        0.81250    0.20970    0.41550    1.000
    C49      C        0.70650    0.31490    0.43390    1.000
    H51      H        0.68900    0.32250    0.36290    1.000
    C50      C        0.66580    0.37400    0.50610    1.000
    H52      H        0.62990    0.42690    0.48410    1.000
    C51      C        0.72900    0.22260    0.47260    1.000
    H53      H        0.74480    0.17540    0.42620    1.000
    C52      C        0.65720    0.28740    0.44390    1.000
    H54      H        0.62790    0.28790    0.37580    1.000
    C53      C        0.62610    0.35390    0.51430    1.000
    H55      H        0.57130    0.39670    0.49630    1.000
    C54      C        0.63360    0.42360    0.68770    1.000
    C55      C        0.85230    0.14760    0.60480    1.000
    Li9      Li       0.59440    0.45960    0.91040    1.000
    Li10     Li       0.69710    0.46380    0.91230    1.000
    O33      O        0.85500    0.49490    0.93300    1.000
    H56      H        0.88850    0.49330    0.87540    1.000
    H57      H        0.89330    0.51280    0.98390    1.000
    O34      O        0.86000    0.45390    0.90700    1.000
    H58      H        0.89350    0.46490    0.85030    1.000
    H59      H        0.91030    0.42780    0.94150    1.000
    O35      O        0.81400    0.08700    0.55500    1.000
    H60      H        0.78730    0.11400    0.50290    1.000
    O36      O        0.16230    0.92030    0.77929    1.000
    O37      O        0.06840    0.98210    0.65160    1.000
    O38      O        0.39690    0.65251    0.69240    1.000
    O39      O        0.36430    0.58251    0.54550    1.000
    C56      C        0.17750    0.85620    0.61240    1.000
    C57      C        0.24520    0.78720    0.64330    1.000
    H61      H        0.26740    0.78270    0.71350    1.000
    C58      C        0.28130    0.72420    0.57180    1.000
    C59      C        0.27310    0.74410    0.46500    1.000
    H62      H        0.31250    0.70970    0.41550    1.000
    C60      C        0.20650    0.81490    0.43390    1.000
    H63      H        0.18900    0.82250    0.36290    1.000
    C61      C        0.16580    0.87400    0.50610    1.000
    H64      H        0.12990    0.92690    0.48410    1.000
    C62      C        0.22900    0.72260    0.47260    1.000
    H65      H        0.24480    0.67540    0.42620    1.000
    C63      C        0.15720    0.78740    0.44390    1.000
    H66      H        0.12790    0.78790    0.37580    1.000
    C64      C        0.12610    0.85390    0.51430    1.000
    H67      H        0.07130    0.89670    0.49630    1.000
    C65      C        0.13360    0.92360    0.68770    1.000
    C66      C        0.35230    0.64760    0.60480    1.000
    Li11     Li       0.09440    0.95960    0.91040    1.000
    Li12     Li       0.19710    0.96380    0.91230    1.000
    O40      O        0.35500    0.99490    0.93300    1.000
    H68      H        0.38850    0.99330    0.87540    1.000
    H69      H        0.39330    0.01280    0.98390    1.000
    O41      O        0.36000    0.95390    0.90700    1.000
    H70      H        0.39350    0.96490    0.85030    1.000
    H71      H        0.41030    0.92780    0.94150    1.000
    O42      O        0.31400    0.58700    0.55500    1.000
    H72      H        0.28730    0.61400    0.50290    1.000
    O43      O        0.33770    0.57970    0.27929    1.000
    O44      O        0.43160    0.51790    0.15160    1.000
    O45      O        0.10310    0.84749    0.19240    1.000
    O46      O        0.13570    0.91749    0.04550    1.000
    C67      C        0.32250    0.64380    0.11240    1.000
    C68      C        0.25480    0.71280    0.14330    1.000
    H73      H        0.23260    0.71730    0.21350    1.000
    C69      C        0.21870    0.77580    0.07180    1.000
    C70      C        0.22690    0.75590    0.96500    1.000
    H74      H        0.18750    0.79030    0.91550    1.000
    C71      C        0.29350    0.68510    0.93390    1.000
    H75      H        0.31100    0.67750    0.86290    1.000
    C72      C        0.33420    0.62600    0.00610    1.000
    H76      H        0.37010    0.57310    0.98410    1.000
    C73      C        0.27100    0.77740    0.97260    1.000
    H77      H        0.25520    0.82460    0.92620    1.000
    C74      C        0.34280    0.71260    0.94390    1.000
    H78      H        0.37210    0.71210    0.87580    1.000
    C75      C        0.37390    0.64610    0.01430    1.000
    H79      H        0.42870    0.60330    0.99630    1.000
    C76      C        0.36640    0.57640    0.18770    1.000
    C77      C        0.14770    0.85240    0.10480    1.000
    Li13     Li       0.40560    0.54040    0.41040    1.000
    Li14     Li       0.30290    0.53620    0.41230    1.000
    O47      O        0.14500    0.50510    0.43300    1.000
    H80      H        0.11150    0.50670    0.37540    1.000
    H81      H        0.10670    0.48720    0.48390    1.000
    O48      O        0.14000    0.54610    0.40700    1.000
    H82      H        0.10650    0.53510    0.35030    1.000
    H83      H        0.08970    0.57220    0.44150    1.000
    O49      O        0.18600    0.91300    0.05500    1.000
    H84      H        0.21270    0.88600    0.00290    1.000
    O50      O        0.83770    0.07970    0.27929    1.000
    O51      O        0.93160    0.01790    0.15160    1.000
    O52      O        0.60310    0.34749    0.19240    1.000
    O53      O        0.63570    0.41749    0.04550    1.000
    C78      C        0.82250    0.14380    0.11240    1.000
    C79      C        0.75480    0.21280    0.14330    1.000
    H85      H        0.73260    0.21730    0.21350    1.000
    C80      C        0.71870    0.27580    0.07180    1.000
    C81      C        0.72690    0.25590    0.96500    1.000
    H86      H        0.68750    0.29030    0.91550    1.000
    C82      C        0.79350    0.18510    0.93390    1.000
    H87      H        0.81100    0.17750    0.86290    1.000
    C83      C        0.83420    0.12600    0.00610    1.000
    H88      H        0.87010    0.07310    0.98410    1.000
    C84      C        0.77100    0.27740    0.97260    1.000
    H89      H        0.75520    0.32460    0.92620    1.000
    C85      C        0.84280    0.21260    0.94390    1.000
    H90      H        0.87210    0.21210    0.87580    1.000
    C86      C        0.87390    0.14610    0.01430    1.000
    H91      H        0.92870    0.10330    0.99630    1.000
    C87      C        0.86640    0.07640    0.18770    1.000
    C88      C        0.64770    0.35240    0.10480    1.000
    Li15     Li       0.90560    0.04040    0.41040    1.000
    Li16     Li       0.80290    0.03620    0.41230    1.000
    O54      O        0.64500    0.00510    0.43300    1.000
    H92      H        0.61150    0.00670    0.37540    1.000
    H93      H        0.60670    0.98720    0.48390    1.000
    O55      O        0.64000    0.04610    0.40700    1.000
    H94      H        0.60650    0.03510    0.35030    1.000
    H95      H        0.58970    0.07220    0.44150    1.000
    O56      O        0.68600    0.41300    0.05500    1.000
    H96      H        0.71270    0.38600    0.00290    1.000
    Co1      Co       0.50000    0.56435    0.75000    1.000
    Co2      Co       0.00000    0.06435    0.75000    1.000
    Co3      Co       0.50000    0.43565    0.25000    1.000
    Co4      Co       0.00000    0.93565    0.25000    1.000
