data_functionalizedCrystal
_audit_creation_method	'EQeq! by Chris Wilmer'
_symmetry_space_group_name_H-M	'P1'
_symmetry_Int_Tables_number	1
_symmetry_cell_setting	triclinic
loop_
_symmetry_equiv_pos_as_xyz
  x,y,z
_cell_length_a	17.398
_cell_length_b	17.398
_cell_length_c	8.0808
_cell_angle_alpha	90
_cell_angle_beta	90
_cell_angle_gamma	90
loop_
_atom_site_label
_atom_site_type_symbol
_atom_site_fract_x
_atom_site_fract_y
_atom_site_fract_z
_atom_site_charge
Mof_N 	N 	0.9069	0.9988	0.1562	-0.2
Mof_N 	N 	0.5917	0.0027	0.1013	-0.309
Mof_C 	C 	0.9058	0.9472	0.2753	0.069
Mof_H 	H 	0.9382	0.9048	0.2673	-0.001
Mof_C 	C 	0.8589	0.9535	0.4103	-0.087
Mof_H 	H 	0.8653	0.9205	0.4997	0.069
Mof_C 	C 	0.8001	0.0105	0.4146	0.041
Mof_C 	C 	0.8048	0.0624	0.2851	-0.136
Mof_H 	H 	0.7711	0.1038	0.2821	0.066
Mof_C 	C 	0.8582	0.0542	0.1607	0.033
Mof_H 	H 	0.859	0.0904	0.0761	-0.013
Mof_C 	C 	0.7461	0.0211	0.5497	-0.109
Mof_H 	H 	0.7119	0.0621	0.542	0.052
Mof_C 	C 	0.7418	0.9781	0.6797	-0.086
Mof_H 	H 	0.7718	0.9339	0.6768	0.061
Mof_C 	C 	0.6964	0.9887	0.8314	0.233
Mof_C 	C 	0.6961	0.9363	0.9571	-0.247
Mof_H 	H 	0.7292	0.8943	0.9552	0.115
Mof_C 	C 	0.6462	0.9469	0.0857	0.164
Mof_H 	H 	0.6499	0.9121	0.1726	-0.039
Mof_C 	C 	0.6013	0.0559	0.985	0.17
Mof_H 	H 	0.5708	0.0997	0.9911	-0.045
Mof_C 	C 	0.653	0.0512	0.8547	-0.316
Mof_H 	H 	0.6575	0.0924	0.782	0.132
Mof_N 	N 	0.4069	0.4988	0.6562	-0.264
Mof_N 	N 	0.0917	0.5027	0.6013	-0.26
Mof_C 	C 	0.4058	0.4472	0.7753	0.121
Mof_H 	H 	0.4382	0.4048	0.7673	-0.032
Mof_C 	C 	0.3589	0.4535	0.9103	-0.206
Mof_H 	H 	0.3653	0.4205	0.9997	0.107
Mof_C 	C 	0.3001	0.5105	0.9146	0.16
Mof_C 	C 	0.3048	0.5624	0.7851	-0.22
Mof_H 	H 	0.2711	0.6038	0.7821	0.102
Mof_C 	C 	0.3582	0.5542	0.6607	0.136
Mof_H 	H 	0.359	0.5904	0.5761	-0.041
Mof_C 	C 	0.2461	0.5211	0.0497	-0.135
Mof_H 	H 	0.2119	0.5621	0.042	0.063
Mof_C 	C 	0.2418	0.4781	0.1797	-0.079
Mof_H 	H 	0.2718	0.4339	0.1768	0.045
Mof_C 	C 	0.1964	0.4887	0.3314	0.129
Mof_C 	C 	0.1961	0.4363	0.4571	-0.197
Mof_H 	H 	0.2292	0.3943	0.4552	0.089
Mof_C 	C 	0.1462	0.4469	0.5857	0.098
Mof_H 	H 	0.1499	0.4121	0.6726	-0.022
Mof_C 	C 	0.1013	0.5559	0.485	0.102
Mof_H 	H 	0.0708	0.5997	0.4911	-0.033
Mof_C 	C 	0.153	0.5512	0.3547	-0.198
Mof_H 	H 	0.1575	0.5924	0.282	0.094
Mof_N 	N 	0.0931	0.0012	0.1562	-0.317
Mof_N 	N 	0.4083	0.9973	0.1013	-0.21
Mof_C 	C 	0.0942	0.0528	0.2753	0.146
Mof_H 	H 	0.0618	0.0952	0.2673	-0.06
Mof_C 	C 	0.1411	0.0465	0.4103	-0.291
Mof_H 	H 	0.1347	0.0795	0.4997	0.119
Mof_C 	C 	0.1999	0.9895	0.4146	0.207
Mof_C 	C 	0.1952	0.9376	0.2851	-0.268
Mof_H 	H 	0.2289	0.8962	0.2821	0.116
Mof_C 	C 	0.1418	0.9458	0.1607	0.215
Mof_H 	H 	0.141	0.9096	0.0761	-0.068
Mof_C 	C 	0.2539	0.9789	0.5497	-0.078
Mof_H 	H 	0.2881	0.9379	0.542	0.058
Mof_C 	C 	0.2582	0.0219	0.6797	-0.112
Mof_H 	H 	0.2282	0.0661	0.6768	0.053
Mof_C 	C 	0.3036	0.0113	0.8314	0.034
Mof_C 	C 	0.3039	0.0637	0.9571	-0.093
Mof_H 	H 	0.2708	0.1057	0.9552	0.056
Mof_C 	C 	0.3538	0.0531	0.0857	-0.023
Mof_H 	H 	0.3501	0.0879	0.1726	0.009
Mof_C 	C 	0.3987	0.9441	0.985	0.078
Mof_H 	H 	0.4292	0.9003	0.9911	-0.007
Mof_C 	C 	0.347	0.9488	0.8547	-0.084
Mof_H 	H 	0.3425	0.9076	0.782	0.065
Mof_N 	N 	0.5931	0.5012	0.6562	-0.264
Mof_N 	N 	0.9083	0.4973	0.6013	-0.244
Mof_C 	C 	0.5942	0.5528	0.7753	0.121
Mof_H 	H 	0.5618	0.5952	0.7673	-0.033
Mof_C 	C 	0.6411	0.5465	0.9103	-0.206
Mof_H 	H 	0.6347	0.5795	0.9997	0.107
Mof_C 	C 	0.6999	0.4895	0.9146	0.16
Mof_C 	C 	0.6952	0.4376	0.7851	-0.221
Mof_H 	H 	0.7289	0.3962	0.7821	0.103
Mof_C 	C 	0.6418	0.4458	0.6607	0.137
Mof_H 	H 	0.641	0.4096	0.5761	-0.041
Mof_C 	C 	0.7539	0.4789	0.0497	-0.136
Mof_H 	H 	0.7881	0.4379	0.042	0.065
Mof_C 	C 	0.7582	0.5219	0.1797	-0.077
Mof_H 	H 	0.7282	0.5661	0.1768	0.046
Mof_C 	C 	0.8036	0.5113	0.3314	0.128
Mof_C 	C 	0.8039	0.5637	0.4571	-0.193
Mof_H 	H 	0.7708	0.6057	0.4552	0.089
Mof_C 	C 	0.8538	0.5531	0.5857	0.101
Mof_H 	H 	0.8501	0.5879	0.6726	-0.018
Mof_C 	C 	0.8987	0.4441	0.485	0.105
Mof_H 	H 	0.9292	0.4003	0.4911	-0.013
Mof_C 	C 	0.847	0.4488	0.3547	-0.189
Mof_H 	H 	0.8425	0.4076	0.282	0.094
Mof_N 	N 	0.9988	0.0931	0.8438	-0.203
Mof_N 	N 	0.0027	0.4083	0.8987	-0.299
Mof_C 	C 	0.9472	0.0942	0.7247	0.062
Mof_H 	H 	0.9048	0.0618	0.7327	-0.017
Mof_C 	C 	0.9535	0.1411	0.5897	-0.085
Mof_H 	H 	0.9205	0.1347	0.5003	0.063
Mof_C 	C 	0.0105	0.1999	0.5854	0.033
Mof_C 	C 	0.0624	0.1952	0.7149	-0.131
Mof_H 	H 	0.1038	0.2289	0.7179	0.067
Mof_C 	C 	0.0542	0.1418	0.8393	0.026
Mof_H 	H 	0.0904	0.141	0.9239	-0.005
Mof_C 	C 	0.0211	0.2539	0.4503	-0.1
Mof_H 	H 	0.0621	0.2881	0.458	0.047
Mof_C 	C 	0.9781	0.2582	0.3203	-0.103
Mof_H 	H 	0.9339	0.2282	0.3232	0.065
Mof_C 	C 	0.9887	0.3036	0.1686	0.26
Mof_C 	C 	0.9363	0.3039	0.0429	-0.317
Mof_H 	H 	0.8943	0.2708	0.0448	0.129
Mof_C 	C 	0.9469	0.3538	0.9143	0.231
Mof_H 	H 	0.9121	0.3501	0.8274	-0.057
Mof_C 	C 	0.0559	0.3987	0.015	0.139
Mof_H 	H 	0.0997	0.4292	0.0089	-0.045
Mof_C 	C 	0.0512	0.347	0.1453	-0.329
Mof_H 	H 	0.0924	0.3425	0.218	0.134
Mof_N 	N 	0.4988	0.5931	0.3438	-0.254
Mof_N 	N 	0.5027	0.9083	0.3987	-0.251
Mof_C 	C 	0.4472	0.5942	0.2247	0.092
Mof_H 	H 	0.4048	0.5618	0.2327	-0.026
Mof_C 	C 	0.4535	0.6411	0.0897	-0.164
Mof_H 	H 	0.4205	0.6347	0.0003	0.077
Mof_C 	C 	0.5105	0.6999	0.0854	0.079
Mof_C 	C 	0.5624	0.6952	0.2149	-0.175
Mof_H 	H 	0.6038	0.7289	0.2179	0.081
Mof_C 	C 	0.5542	0.6418	0.3393	0.107
Mof_H 	H 	0.5904	0.641	0.4239	-0.031
Mof_C 	C 	0.5211	0.7539	0.9503	-0.04
Mof_H 	H 	0.5621	0.7881	0.958	0.042
Mof_C 	C 	0.4781	0.7582	0.8203	-0.14
Mof_H 	H 	0.4339	0.7282	0.8232	0.075
Mof_C 	C 	0.4887	0.8036	0.6686	0.167
Mof_C 	C 	0.4363	0.8039	0.5429	-0.219
Mof_H 	H 	0.3943	0.7708	0.5448	0.099
Mof_C 	C 	0.4469	0.8538	0.4143	0.115
Mof_H 	H 	0.4121	0.8501	0.3274	-0.027
Mof_C 	C 	0.5559	0.8987	0.515	0.119
Mof_H 	H 	0.5997	0.9292	0.5089	-0.018
Mof_C 	C 	0.5512	0.847	0.6453	-0.216
Mof_H 	H 	0.5924	0.8425	0.718	0.106
Mof_N 	N 	0.0012	0.9069	0.8438	-0.29
Mof_N 	N 	0.9973	0.5917	0.8987	-0.206
Mof_C 	C 	0.0528	0.9058	0.7247	0.147
Mof_H 	H 	0.0952	0.9382	0.7327	-0.031
Mof_C 	C 	0.0465	0.8589	0.5897	-0.269
Mof_H 	H 	0.0795	0.8653	0.5003	0.117
Mof_C 	C 	0.9895	0.8001	0.5854	0.19
Mof_C 	C 	0.9376	0.8048	0.7149	-0.248
Mof_H 	H 	0.8962	0.7711	0.7179	0.113
Mof_C 	C 	0.9458	0.8582	0.8393	0.208
Mof_H 	H 	0.9096	0.859	0.9239	-0.051
Mof_C 	C 	0.9789	0.7461	0.4503	-0.055
Mof_H 	H 	0.9379	0.7119	0.458	0.05
Mof_C 	C 	0.0219	0.7418	0.3203	-0.14
Mof_H 	H 	0.0661	0.7718	0.3232	0.063
Mof_C 	C 	0.0113	0.6964	0.1686	0.068
Mof_C 	C 	0.0637	0.6961	0.0429	-0.177
Mof_H 	H 	0.1057	0.7292	0.0448	0.077
Mof_C 	C 	0.0531	0.6462	0.9143	0.056
Mof_H 	H 	0.0879	0.6499	0.8274	-0.011
Mof_C 	C 	0.9441	0.6013	0.015	0.055
Mof_H 	H 	0.9003	0.5708	0.0089	-0.008
Mof_C 	C 	0.9488	0.653	0.1453	-0.101
Mof_H 	H 	0.9076	0.6575	0.218	0.069
Mof_N 	N 	0.5012	0.4069	0.3438	-0.253
Mof_N 	N 	0.4973	0.0917	0.3987	-0.267
Mof_C 	C 	0.5528	0.4058	0.2247	0.09
Mof_H 	H 	0.5952	0.4382	0.2327	-0.026
Mof_C 	C 	0.5465	0.3589	0.0897	-0.16
Mof_H 	H 	0.5795	0.3653	0.0003	0.076
Mof_C 	C 	0.4895	0.3001	0.0854	0.073
Mof_C 	C 	0.4376	0.3048	0.2149	-0.171
Mof_H 	H 	0.3962	0.2711	0.2179	0.077
Mof_C 	C 	0.4458	0.3582	0.3393	0.105
Mof_H 	H 	0.4096	0.359	0.4239	-0.031
Mof_C 	C 	0.4789	0.2461	0.9503	-0.033
Mof_H 	H 	0.4379	0.2119	0.958	0.038
Mof_C 	C 	0.5219	0.2418	0.8203	-0.146
Mof_H 	H 	0.5661	0.2718	0.8232	0.076
Mof_C 	C 	0.5113	0.1964	0.6686	0.17
Mof_C 	C 	0.5637	0.1961	0.5429	-0.226
Mof_H 	H 	0.6057	0.2292	0.5448	0.1
Mof_C 	C 	0.5531	0.1462	0.4143	0.113
Mof_H 	H 	0.5879	0.1499	0.3274	-0.031
Mof_C 	C 	0.4441	0.1013	0.515	0.116
Mof_H 	H 	0.4003	0.0708	0.5089	-0.039
Mof_C 	C 	0.4488	0.153	0.6453	-0.226
Mof_H 	H 	0.4076	0.1575	0.718	0.106
Mof_Cu	Cu	-0	0	-0	0.805
Mof_Cu	Cu	0.5	0.5	0.5	0.851
Mof_Cu	Cu	0.5	1.29005e-33	0.25	0.839
Mof_Cu	Cu	6.46632e-33	0.5	0.75	0.843
_end
