# CIF file generated by openbabel 3.1.0, see https://openbabel.org
data_I
_chemical_name_common 'image0'
_cell_length_a 21.435
_cell_length_b 21.435
_cell_length_c 11.382
_cell_angle_alpha 90
_cell_angle_beta 90
_cell_angle_gamma 90
_space_group_name_H-M_alt 'P 1'
_space_group_name_Hall 'P 1'
loop_
    _symmetry_equiv_pos_as_xyz
    x,y,z
loop_
    _atom_site_label
    _atom_site_type_symbol
    _atom_site_fract_x
    _atom_site_fract_y
    _atom_site_fract_z
    _atom_site_occupancy
    O1       O        0.29870    0.87622    0.92070    1.000
    N1       N        0.20240    0.00320    0.09000    1.000
    C1       C        0.17600    0.05290    0.03790    1.000
    H1       H        0.18280    0.05890    0.95810    1.000
    C2       C        0.13950    0.09520    0.09690    1.000
    H2       H        0.12270    0.12940    0.05790    1.000
    C3       C        0.12780    0.08590    0.21620    1.000
    C4       C        0.15560    0.03460    0.27120    1.000
    H3       H        0.14970    0.02730    0.35090    1.000
    C5       C        0.19200    0.99520    0.20430    1.000
    H4       H        0.21020    0.96110    0.24110    1.000
    C6       C        0.29340    0.81620    0.93140    1.000
    C7       C        0.34130    0.78130    0.85820    1.000
    H5       H        0.35060    0.80480    0.78870    1.000
    H6       H        0.32490    0.74120    0.83640    1.000
    H7       H        0.37880    0.77560    0.90330    1.000
    O2       O        0.20130    0.62378    0.92070    1.000
    N2       N        0.29760    0.49680    0.09000    1.000
    C8       C        0.32400    0.44710    0.03790    1.000
    H8       H        0.31720    0.44110    0.95810    1.000
    C9       C        0.36050    0.40480    0.09690    1.000
    H9       H        0.37730    0.37060    0.05790    1.000
    C10      C        0.37220    0.41410    0.21620    1.000
    C11      C        0.34440    0.46540    0.27120    1.000
    H10      H        0.35030    0.47270    0.35090    1.000
    C12      C        0.30800    0.50480    0.20430    1.000
    H11      H        0.28980    0.53890    0.24110    1.000
    C13      C        0.20660    0.68380    0.93140    1.000
    C14      C        0.15870    0.71870    0.85820    1.000
    H12      H        0.14940    0.69520    0.78870    1.000
    H13      H        0.17510    0.75880    0.83640    1.000
    H14      H        0.12120    0.72440    0.90330    1.000
    O3       O        0.62378    0.29870    0.42070    1.000
    N3       N        0.49680    0.20240    0.59000    1.000
    C15      C        0.44710    0.17600    0.53790    1.000
    H15      H        0.44110    0.18280    0.45810    1.000
    C16      C        0.40480    0.13950    0.59690    1.000
    H16      H        0.37060    0.12270    0.55790    1.000
    C17      C        0.41410    0.12780    0.71620    1.000
    C18      C        0.46540    0.15560    0.77120    1.000
    H17      H        0.47270    0.14970    0.85090    1.000
    C19      C        0.50480    0.19200    0.70430    1.000
    H18      H        0.53890    0.21020    0.74110    1.000
    C20      C        0.68380    0.29340    0.43140    1.000
    C21      C        0.71870    0.34130    0.35820    1.000
    H19      H        0.69520    0.35060    0.28870    1.000
    H20      H        0.75880    0.32490    0.33640    1.000
    H21      H        0.72440    0.37880    0.40330    1.000
    O4       O        0.87622    0.20130    0.42070    1.000
    N4       N        0.00320    0.29760    0.59000    1.000
    C22      C        0.05290    0.32400    0.53790    1.000
    H22      H        0.05890    0.31720    0.45810    1.000
    C23      C        0.09520    0.36050    0.59690    1.000
    H23      H        0.12940    0.37730    0.55790    1.000
    C24      C        0.08590    0.37220    0.71620    1.000
    C25      C        0.03460    0.34440    0.77120    1.000
    H24      H        0.02730    0.35030    0.85090    1.000
    C26      C        0.99520    0.30800    0.70430    1.000
    H25      H        0.96110    0.28980    0.74110    1.000
    C27      C        0.81620    0.20660    0.43140    1.000
    C28      C        0.78130    0.15870    0.35820    1.000
    H26      H        0.80480    0.14940    0.28870    1.000
    H27      H        0.74120    0.17510    0.33640    1.000
    H28      H        0.77560    0.12120    0.40330    1.000
    O5       O        0.20130    0.87622    0.07930    1.000
    N5       N        0.29760    0.00320    0.91000    1.000
    C29      C        0.32400    0.05290    0.96210    1.000
    H29      H        0.31720    0.05890    0.04190    1.000
    C30      C        0.36050    0.09520    0.90310    1.000
    H30      H        0.37730    0.12940    0.94210    1.000
    C31      C        0.37220    0.08590    0.78380    1.000
    C32      C        0.34440    0.03460    0.72880    1.000
    H31      H        0.35030    0.02730    0.64910    1.000
    C33      C        0.30800    0.99520    0.79570    1.000
    H32      H        0.28980    0.96110    0.75890    1.000
    C34      C        0.20660    0.81620    0.06860    1.000
    C35      C        0.15870    0.78130    0.14180    1.000
    H33      H        0.14940    0.80480    0.21130    1.000
    H34      H        0.17510    0.74120    0.16360    1.000
    H35      H        0.12120    0.77560    0.09670    1.000
    O6       O        0.29870    0.62378    0.07930    1.000
    N6       N        0.20240    0.49680    0.91000    1.000
    C36      C        0.17600    0.44710    0.96210    1.000
    H36      H        0.18280    0.44110    0.04190    1.000
    C37      C        0.13950    0.40480    0.90310    1.000
    H37      H        0.12270    0.37060    0.94210    1.000
    C38      C        0.12780    0.41410    0.78380    1.000
    C39      C        0.15560    0.46540    0.72880    1.000
    H38      H        0.14970    0.47270    0.64910    1.000
    C40      C        0.19200    0.50480    0.79570    1.000
    H39      H        0.21020    0.53890    0.75890    1.000
    C41      C        0.29340    0.68380    0.06860    1.000
    C42      C        0.34130    0.71870    0.14180    1.000
    H40      H        0.35060    0.69520    0.21130    1.000
    H41      H        0.32490    0.75880    0.16360    1.000
    H42      H        0.37880    0.72440    0.09670    1.000
    O7       O        0.87622    0.29870    0.57930    1.000
    N7       N        0.00320    0.20240    0.41000    1.000
    C43      C        0.05290    0.17600    0.46210    1.000
    H43      H        0.05890    0.18280    0.54190    1.000
    C44      C        0.09520    0.13950    0.40310    1.000
    H44      H        0.12940    0.12270    0.44210    1.000
    C45      C        0.08590    0.12780    0.28380    1.000
    C46      C        0.03460    0.15560    0.22880    1.000
    H45      H        0.02730    0.14970    0.14910    1.000
    C47      C        0.99520    0.19200    0.29570    1.000
    H46      H        0.96110    0.21020    0.25890    1.000
    C48      C        0.81620    0.29340    0.56860    1.000
    C49      C        0.78130    0.34130    0.64180    1.000
    H47      H        0.80480    0.35060    0.71130    1.000
    H48      H        0.74120    0.32490    0.66360    1.000
    H49      H        0.77560    0.37880    0.59670    1.000
    O8       O        0.62378    0.20130    0.57930    1.000
    N8       N        0.49680    0.29760    0.41000    1.000
    C50      C        0.44710    0.32400    0.46210    1.000
    H50      H        0.44110    0.31720    0.54190    1.000
    C51      C        0.40480    0.36050    0.40310    1.000
    H51      H        0.37060    0.37730    0.44210    1.000
    C52      C        0.41410    0.37220    0.28380    1.000
    C53      C        0.46540    0.34440    0.22880    1.000
    H52      H        0.47270    0.35030    0.14910    1.000
    C54      C        0.50480    0.30800    0.29570    1.000
    H53      H        0.53890    0.28980    0.25890    1.000
    C55      C        0.68380    0.20660    0.56860    1.000
    C56      C        0.71870    0.15870    0.64180    1.000
    H54      H        0.69520    0.14940    0.71130    1.000
    H55      H        0.75880    0.17510    0.66360    1.000
    H56      H        0.72440    0.12120    0.59670    1.000
    Cu1      Cu       0.25000    0.93806    0.00000    1.000
    C57      C        0.25000    0.78540    0.00000    1.000
    Cu2      Cu       0.25000    0.56194    0.00000    1.000
    C58      C        0.25000    0.71460    0.00000    1.000
    Cu3      Cu       0.56194    0.25000    0.50000    1.000
    C59      C        0.71460    0.25000    0.50000    1.000
    Cu4      Cu       0.93806    0.25000    0.50000    1.000
    C60      C        0.78540    0.25000    0.50000    1.000
    O9       O        0.70130    0.12378    0.07930    1.000
    N9       N        0.79760    0.99680    0.91000    1.000
    C61      C        0.82400    0.94710    0.96210    1.000
    H57      H        0.81720    0.94110    0.04190    1.000
    C62      C        0.86050    0.90480    0.90310    1.000
    H58      H        0.87730    0.87060    0.94210    1.000
    C63      C        0.87220    0.91410    0.78380    1.000
    C64      C        0.84440    0.96540    0.72880    1.000
    H59      H        0.85030    0.97270    0.64910    1.000
    C65      C        0.80800    0.00480    0.79570    1.000
    H60      H        0.78980    0.03890    0.75890    1.000
    C66      C        0.70660    0.18380    0.06860    1.000
    C67      C        0.65870    0.21870    0.14180    1.000
    H61      H        0.64940    0.19520    0.21130    1.000
    H62      H        0.67510    0.25880    0.16360    1.000
    H63      H        0.62120    0.22440    0.09670    1.000
    O10      O        0.79870    0.37622    0.07930    1.000
    N10      N        0.70240    0.50320    0.91000    1.000
    C68      C        0.67600    0.55290    0.96210    1.000
    H64      H        0.68280    0.55890    0.04190    1.000
    C69      C        0.63950    0.59520    0.90310    1.000
    H65      H        0.62270    0.62940    0.94210    1.000
    C70      C        0.62780    0.58590    0.78380    1.000
    C71      C        0.65560    0.53460    0.72880    1.000
    H66      H        0.64970    0.52730    0.64910    1.000
    C72      C        0.69200    0.49520    0.79570    1.000
    H67      H        0.71020    0.46110    0.75890    1.000
    C73      C        0.79340    0.31620    0.06860    1.000
    C74      C        0.84130    0.28130    0.14180    1.000
    H68      H        0.85060    0.30480    0.21130    1.000
    H69      H        0.82490    0.24120    0.16360    1.000
    H70      H        0.87880    0.27560    0.09670    1.000
    O11      O        0.37622    0.70130    0.57930    1.000
    N11      N        0.50320    0.79760    0.41000    1.000
    C75      C        0.55290    0.82400    0.46210    1.000
    H71      H        0.55890    0.81720    0.54190    1.000
    C76      C        0.59520    0.86050    0.40310    1.000
    H72      H        0.62940    0.87730    0.44210    1.000
    C77      C        0.58590    0.87220    0.28380    1.000
    C78      C        0.53460    0.84440    0.22880    1.000
    H73      H        0.52730    0.85030    0.14910    1.000
    C79      C        0.49520    0.80800    0.29570    1.000
    H74      H        0.46110    0.78980    0.25890    1.000
    C80      C        0.31620    0.70660    0.56860    1.000
    C81      C        0.28130    0.65870    0.64180    1.000
    H75      H        0.30480    0.64940    0.71130    1.000
    H76      H        0.24120    0.67510    0.66360    1.000
    H77      H        0.27560    0.62120    0.59670    1.000
    O12      O        0.12378    0.79870    0.57930    1.000
    N12      N        0.99680    0.70240    0.41000    1.000
    C82      C        0.94710    0.67600    0.46210    1.000
    H78      H        0.94110    0.68280    0.54190    1.000
    C83      C        0.90480    0.63950    0.40310    1.000
    H79      H        0.87060    0.62270    0.44210    1.000
    C84      C        0.91410    0.62780    0.28380    1.000
    C85      C        0.96540    0.65560    0.22880    1.000
    H80      H        0.97270    0.64970    0.14910    1.000
    C86      C        0.00480    0.69200    0.29570    1.000
    H81      H        0.03890    0.71020    0.25890    1.000
    C87      C        0.18380    0.79340    0.56860    1.000
    C88      C        0.21870    0.84130    0.64180    1.000
    H82      H        0.19520    0.85060    0.71130    1.000
    H83      H        0.25880    0.82490    0.66360    1.000
    H84      H        0.22440    0.87880    0.59670    1.000
    O13      O        0.79870    0.12378    0.92070    1.000
    N13      N        0.70240    0.99680    0.09000    1.000
    C89      C        0.67600    0.94710    0.03790    1.000
    H85      H        0.68280    0.94110    0.95810    1.000
    C90      C        0.63950    0.90480    0.09690    1.000
    H86      H        0.62270    0.87060    0.05790    1.000
    C91      C        0.62780    0.91410    0.21620    1.000
    C92      C        0.65560    0.96540    0.27120    1.000
    H87      H        0.64970    0.97270    0.35090    1.000
    C93      C        0.69200    0.00480    0.20430    1.000
    H88      H        0.71020    0.03890    0.24110    1.000
    C94      C        0.79340    0.18380    0.93140    1.000
    C95      C        0.84130    0.21870    0.85820    1.000
    H89      H        0.85060    0.19520    0.78870    1.000
    H90      H        0.82490    0.25880    0.83640    1.000
    H91      H        0.87880    0.22440    0.90330    1.000
    O14      O        0.70130    0.37622    0.92070    1.000
    N14      N        0.79760    0.50320    0.09000    1.000
    C96      C        0.82400    0.55290    0.03790    1.000
    H92      H        0.81720    0.55890    0.95810    1.000
    C97      C        0.86050    0.59520    0.09690    1.000
    H93      H        0.87730    0.62940    0.05790    1.000
    C98      C        0.87220    0.58590    0.21620    1.000
    C99      C        0.84440    0.53460    0.27120    1.000
    H94      H        0.85030    0.52730    0.35090    1.000
    C100     C        0.80800    0.49520    0.20430    1.000
    H95      H        0.78980    0.46110    0.24110    1.000
    C101     C        0.70660    0.31620    0.93140    1.000
    C102     C        0.65870    0.28130    0.85820    1.000
    H96      H        0.64940    0.30480    0.78870    1.000
    H97      H        0.67510    0.24120    0.83640    1.000
    H98      H        0.62120    0.27560    0.90330    1.000
    O15      O        0.12378    0.70130    0.42070    1.000
    N15      N        0.99680    0.79760    0.59000    1.000
    C103     C        0.94710    0.82400    0.53790    1.000
    H99      H        0.94110    0.81720    0.45810    1.000
    C104     C        0.90480    0.86050    0.59690    1.000
    H100     H        0.87060    0.87730    0.55790    1.000
    C105     C        0.91410    0.87220    0.71620    1.000
    C106     C        0.96540    0.84440    0.77120    1.000
    H101     H        0.97270    0.85030    0.85090    1.000
    C107     C        0.00480    0.80800    0.70430    1.000
    H102     H        0.03890    0.78980    0.74110    1.000
    C108     C        0.18380    0.70660    0.43140    1.000
    C109     C        0.21870    0.65870    0.35820    1.000
    H103     H        0.19520    0.64940    0.28870    1.000
    H104     H        0.25880    0.67510    0.33640    1.000
    H105     H        0.22440    0.62120    0.40330    1.000
    O16      O        0.37622    0.79870    0.42070    1.000
    N16      N        0.50320    0.70240    0.59000    1.000
    C110     C        0.55290    0.67600    0.53790    1.000
    H106     H        0.55890    0.68280    0.45810    1.000
    C111     C        0.59520    0.63950    0.59690    1.000
    H107     H        0.62940    0.62270    0.55790    1.000
    C112     C        0.58590    0.62780    0.71620    1.000
    C113     C        0.53460    0.65560    0.77120    1.000
    H108     H        0.52730    0.64970    0.85090    1.000
    C114     C        0.49520    0.69200    0.70430    1.000
    H109     H        0.46110    0.71020    0.74110    1.000
    C115     C        0.31620    0.79340    0.43140    1.000
    C116     C        0.28130    0.84130    0.35820    1.000
    H110     H        0.30480    0.85060    0.28870    1.000
    H111     H        0.24120    0.82490    0.33640    1.000
    H112     H        0.27560    0.87880    0.40330    1.000
    Cu5      Cu       0.75000    0.06194    0.00000    1.000
    C117     C        0.75000    0.21460    0.00000    1.000
    Cu6      Cu       0.75000    0.43806    0.00000    1.000
    C118     C        0.75000    0.28540    0.00000    1.000
    Cu7      Cu       0.43806    0.75000    0.50000    1.000
    C119     C        0.28540    0.75000    0.50000    1.000
    Cu8      Cu       0.06194    0.75000    0.50000    1.000
    C120     C        0.21460    0.75000    0.50000    1.000
