# CIF file generated by openbabel 3.1.0, see https://openbabel.org
data_I
_chemical_name_common 'image0'
_cell_length_a 19.7427
_cell_length_b 18.433
_cell_length_c 27.8981
_cell_angle_alpha 90
_cell_angle_beta 107.333
_cell_angle_gamma 90
_space_group_name_H-M_alt 'P 1'
_space_group_name_Hall 'P 1'
loop_
    _symmetry_equiv_pos_as_xyz
    x,y,z
loop_
    _atom_site_label
    _atom_site_type_symbol
    _atom_site_fract_x
    _atom_site_fract_y
    _atom_site_fract_z
    _atom_site_occupancy
    Tb1      Tb       0.49663    0.01839    0.41330    1.000
    Tb2      Tb       0.45337    0.42854    0.44171    1.000
    O1       O        0.41180    0.92800    0.36643    1.000
    O2       O        0.49080    0.88960    0.43520    1.000
    O3       O        0.58170    0.11000    0.39580    1.000
    O4       O        0.08900    0.69900    0.11110    1.000
    O5       O        0.08690    0.58970    0.14010    1.000
    O6       O        0.42670    0.54990    0.42500    1.000
    O7       O        0.49450    0.62720    0.48070    1.000
    O8       O        0.43770    0.51620    0.53140    1.000
    O9       O        0.46720    0.54870    0.85770    1.000
    O10      O        0.36010    0.56830    0.86090    1.000
    O11      O        0.08260    0.48860    0.54090    1.000
    O12      O        0.10710    0.50180    0.46940    1.000
    O13      O        0.35710    0.45270    0.47390    1.000
    C1       C        0.43880    0.87760    0.39670    1.000
    C2       C        0.40910    0.80220    0.38610    1.000
    C3       C        0.43850    0.74500    0.41870    1.000
    H1       H        0.47530    0.75470    0.44880    1.000
    C4       C        0.41490    0.67470    0.40750    1.000
    C5       C        0.44870    0.61300    0.44040    1.000
    C6       C        0.35840    0.66140    0.36280    1.000
    H2       H        0.34210    0.61320    0.35450    1.000
    C7       C        0.32700    0.71810    0.33120    1.000
    C8       C        0.35320    0.78820    0.34350    1.000
    H3       H        0.33220    0.82740    0.32200    1.000
    C9       C        0.26910    0.70380    0.28350    1.000
    C10      C        0.25780    0.63460    0.26450    1.000
    H4       H        0.28570    0.59600    0.28270    1.000
    C11      C        0.20670    0.62000    0.21940    1.000
    H5       H        0.20140    0.57180    0.20680    1.000
    C12      C        0.16790    0.74250    0.21120    1.000
    H6       H        0.13580    0.77880    0.19390    1.000
    C13      C        0.22070    0.75850    0.25620    1.000
    H7       H        0.22460    0.80660    0.26900    1.000
    C14      C        0.16380    0.67300    0.19270    1.000
    C15      C        0.10790    0.65420    0.14500    1.000
    C16      C        0.37650    0.49030    0.51390    1.000
    C17      C        0.32420    0.50060    0.54230    1.000
    C18      C        0.25210    0.49310    0.51720    1.000
    H8       H        0.23700    0.48300    0.48220    1.000
    C19      C        0.20250    0.50030    0.54310    1.000
    C20      C        0.12560    0.49720    0.51610    1.000
    C21      C        0.22640    0.51170    0.59570    1.000
    H9       H        0.19290    0.51510    0.61400    1.000
    C22      C        0.29850    0.51800    0.62090    1.000
    C23      C        0.34670    0.51410    0.59360    1.000
    H10      H        0.39580    0.52080    0.61020    1.000
    C24      C        0.32480    0.52850    0.67650    1.000
    C25      C        0.37400    0.54420    0.78070    1.000
    C26      C        0.40120    0.55490    0.83670    1.000
    C27      C        0.27410    0.53390    0.70340    1.000
    H11      H        0.22470    0.53360    0.68620    1.000
    C28      C        0.29920    0.53990    0.75670    1.000
    H12      H        0.26680    0.54110    0.77600    1.000
    C29      C        0.41660    0.50490    0.75590    1.000
    H13      H        0.46010    0.48320    0.77470    1.000
    C30      C        0.39270    0.49880    0.70240    1.000
    H14      H        0.42100    0.47580    0.68470    1.000
    O14      O        0.54990    0.96420    0.35670    1.000
    N1       N        0.57350    0.96290    0.28250    1.000
    C31      C        0.56130    0.93180    0.32200    1.000
    C32      C        0.59890    0.92150    0.24550    1.000
    H15      H        0.60100    0.86970    0.25390    1.000
    H16      H        0.64640    0.93850    0.24650    1.000
    H17      H        0.56620    0.92880    0.21180    1.000
    C33      C        0.55030    0.04040    0.27560    1.000
    H18      H        0.53170    0.05490    0.30300    1.000
    H19      H        0.59090    0.07110    0.27580    1.000
    C34      C        0.58410    0.84710    0.32140    1.000
    H20      H        0.57320    0.82130    0.34890    1.000
    H21      H        0.63510    0.84390    0.32570    1.000
    H22      H        0.55770    0.82510    0.28930    1.000
    O15      O        0.55660    0.10960    0.37870    1.000
    C35      C        0.23020    0.64040    0.27970    1.000
    H23      H        0.23920    0.60720    0.30690    1.000
    C36      C        0.17710    0.62670    0.23450    1.000
    H24      H        0.14880    0.58430    0.23210    1.000
    C37      C        0.20500    0.73530    0.19970    1.000
    H25      H        0.19640    0.76910    0.17280    1.000
    C38      C        0.25810    0.75100    0.24390    1.000
    H26      H        0.28630    0.79350    0.24650    1.000
    C39      C        0.28390    0.55630    0.70630    1.000
    H27      H        0.23630    0.57070    0.69020    1.000
    C40      C        0.30850    0.56300    0.75410    1.000
    H28      H        0.27800    0.58240    0.77160    1.000
    C41      C        0.41410    0.56490    0.75280    1.000
    H29      H        0.45930    0.58540    0.76870    1.000
    C42      C        0.39220    0.55750    0.70080    1.000
    H30      H        0.42250    0.57200    0.68180    1.000
    O16      O        0.54550    0.82390    0.33260    1.000
    C43      C        0.56170    0.79210    0.29910    1.000
    N2       N        0.53930    0.72800    0.27760    1.000
    C44      C        0.48100    0.68930    0.29060    1.000
    H31      H        0.46980    0.71690    0.31640    1.000
    H32      H        0.43810    0.67950    0.26430    1.000
    H33      H        0.50220    0.64500    0.30450    1.000
    C45      C        0.56700    0.69900    0.23720    1.000
    H34      H        0.59870    0.72880    0.22610    1.000
    H35      H        0.59020    0.65450    0.24980    1.000
    H36      H        0.52600    0.68900    0.20950    1.000
    C46      C        0.61860    0.83530    0.27780    1.000
    H37      H        0.63020    0.87940    0.29610    1.000
    H38      H        0.66060    0.80780    0.28180    1.000
    H39      H        0.59730    0.84560    0.24280    1.000
    H40      H        0.51320    0.04590    0.24350    1.000
    Tb3      Tb       0.99663    0.51839    0.41330    1.000
    Tb4      Tb       0.95337    0.92854    0.44171    1.000
    O17      O        0.91180    0.42800    0.36643    1.000
    O18      O        0.99080    0.38960    0.43520    1.000
    O19      O        0.08170    0.61000    0.39580    1.000
    O20      O        0.58900    0.19900    0.11110    1.000
    O21      O        0.58690    0.08970    0.14010    1.000
    O22      O        0.92670    0.04990    0.42500    1.000
    O23      O        0.99450    0.12720    0.48070    1.000
    O24      O        0.93770    0.01620    0.53140    1.000
    O25      O        0.96720    0.04870    0.85770    1.000
    O26      O        0.86010    0.06830    0.86090    1.000
    O27      O        0.58260    0.98860    0.54090    1.000
    O28      O        0.60710    0.00180    0.46940    1.000
    O29      O        0.85710    0.95270    0.47390    1.000
    C47      C        0.93880    0.37760    0.39670    1.000
    C48      C        0.90910    0.30220    0.38610    1.000
    C49      C        0.93850    0.24500    0.41870    1.000
    H41      H        0.97530    0.25470    0.44880    1.000
    C50      C        0.91490    0.17470    0.40750    1.000
    C51      C        0.94870    0.11300    0.44040    1.000
    C52      C        0.85840    0.16140    0.36280    1.000
    H42      H        0.84210    0.11320    0.35450    1.000
    C53      C        0.82700    0.21810    0.33120    1.000
    C54      C        0.85320    0.28820    0.34350    1.000
    H43      H        0.83220    0.32740    0.32200    1.000
    C55      C        0.76910    0.20380    0.28350    1.000
    C56      C        0.75780    0.13460    0.26450    1.000
    H44      H        0.78570    0.09600    0.28270    1.000
    C57      C        0.70670    0.12000    0.21940    1.000
    H45      H        0.70140    0.07180    0.20680    1.000
    C58      C        0.66790    0.24250    0.21120    1.000
    H46      H        0.63580    0.27880    0.19390    1.000
    C59      C        0.72070    0.25850    0.25620    1.000
    H47      H        0.72460    0.30660    0.26900    1.000
    C60      C        0.66380    0.17300    0.19270    1.000
    C61      C        0.60790    0.15420    0.14500    1.000
    C62      C        0.87650    0.99030    0.51390    1.000
    C63      C        0.82420    0.00060    0.54230    1.000
    C64      C        0.75210    0.99310    0.51720    1.000
    H48      H        0.73700    0.98300    0.48220    1.000
    C65      C        0.70250    0.00030    0.54310    1.000
    C66      C        0.62560    0.99720    0.51610    1.000
    C67      C        0.72640    0.01170    0.59570    1.000
    H49      H        0.69290    0.01510    0.61400    1.000
    C68      C        0.79850    0.01800    0.62090    1.000
    C69      C        0.84670    0.01410    0.59360    1.000
    H50      H        0.89580    0.02080    0.61020    1.000
    C70      C        0.82480    0.02850    0.67650    1.000
    C71      C        0.87400    0.04420    0.78070    1.000
    C72      C        0.90120    0.05490    0.83670    1.000
    C73      C        0.77410    0.03390    0.70340    1.000
    H51      H        0.72470    0.03360    0.68620    1.000
    C74      C        0.79920    0.03990    0.75670    1.000
    H52      H        0.76680    0.04110    0.77600    1.000
    C75      C        0.91660    0.00490    0.75590    1.000
    H53      H        0.96010    0.98320    0.77470    1.000
    C76      C        0.89270    0.99880    0.70240    1.000
    H54      H        0.92100    0.97580    0.68470    1.000
    O30      O        0.04990    0.46420    0.35670    1.000
    N3       N        0.07350    0.46290    0.28250    1.000
    C77      C        0.06130    0.43180    0.32200    1.000
    C78      C        0.09890    0.42150    0.24550    1.000
    H55      H        0.10100    0.36970    0.25390    1.000
    H56      H        0.14640    0.43850    0.24650    1.000
    H57      H        0.06620    0.42880    0.21180    1.000
    C79      C        0.05030    0.54040    0.27560    1.000
    H58      H        0.03170    0.55490    0.30300    1.000
    H59      H        0.09090    0.57110    0.27580    1.000
    C80      C        0.08410    0.34710    0.32140    1.000
    H60      H        0.07320    0.32130    0.34890    1.000
    H61      H        0.13510    0.34390    0.32570    1.000
    H62      H        0.05770    0.32510    0.28930    1.000
    O31      O        0.05660    0.60960    0.37870    1.000
    C81      C        0.73020    0.14040    0.27970    1.000
    H63      H        0.73920    0.10720    0.30690    1.000
    C82      C        0.67710    0.12670    0.23450    1.000
    H64      H        0.64880    0.08430    0.23210    1.000
    C83      C        0.70500    0.23530    0.19970    1.000
    H65      H        0.69640    0.26910    0.17280    1.000
    C84      C        0.75810    0.25100    0.24390    1.000
    H66      H        0.78630    0.29350    0.24650    1.000
    C85      C        0.78390    0.05630    0.70630    1.000
    H67      H        0.73630    0.07070    0.69020    1.000
    C86      C        0.80850    0.06300    0.75410    1.000
    H68      H        0.77800    0.08240    0.77160    1.000
    C87      C        0.91410    0.06490    0.75280    1.000
    H69      H        0.95930    0.08540    0.76870    1.000
    C88      C        0.89220    0.05750    0.70080    1.000
    H70      H        0.92250    0.07200    0.68180    1.000
    O32      O        0.04550    0.32390    0.33260    1.000
    C89      C        0.06170    0.29210    0.29910    1.000
    N4       N        0.03930    0.22800    0.27760    1.000
    C90      C        0.98100    0.18930    0.29060    1.000
    H71      H        0.96980    0.21690    0.31640    1.000
    H72      H        0.93810    0.17950    0.26430    1.000
    H73      H        0.00220    0.14500    0.30450    1.000
    C91      C        0.06700    0.19900    0.23720    1.000
    H74      H        0.09870    0.22880    0.22610    1.000
    H75      H        0.09020    0.15450    0.24980    1.000
    H76      H        0.02600    0.18900    0.20950    1.000
    C92      C        0.11860    0.33530    0.27780    1.000
    H77      H        0.13020    0.37940    0.29610    1.000
    H78      H        0.16060    0.30780    0.28180    1.000
    H79      H        0.09730    0.34560    0.24280    1.000
    H80      H        0.01320    0.54590    0.24350    1.000
    Tb5      Tb       0.50337    0.01839    0.08670    1.000
    Tb6      Tb       0.54663    0.42854    0.05829    1.000
    O33      O        0.58820    0.92800    0.13357    1.000
    O34      O        0.50920    0.88960    0.06480    1.000
    O35      O        0.41830    0.11000    0.10420    1.000
    O36      O        0.91100    0.69900    0.38890    1.000
    O37      O        0.91310    0.58970    0.35990    1.000
    O38      O        0.57330    0.54990    0.07500    1.000
    O39      O        0.50550    0.62720    0.01930    1.000
    O40      O        0.56230    0.51620    0.96860    1.000
    O41      O        0.53280    0.54870    0.64230    1.000
    O42      O        0.63990    0.56830    0.63910    1.000
    O43      O        0.91740    0.48860    0.95910    1.000
    O44      O        0.89290    0.50180    0.03060    1.000
    O45      O        0.64290    0.45270    0.02610    1.000
    C93      C        0.56120    0.87760    0.10330    1.000
    C94      C        0.59090    0.80220    0.11390    1.000
    C95      C        0.56150    0.74500    0.08130    1.000
    H81      H        0.52470    0.75470    0.05120    1.000
    C96      C        0.58510    0.67470    0.09250    1.000
    C97      C        0.55130    0.61300    0.05960    1.000
    C98      C        0.64160    0.66140    0.13720    1.000
    H82      H        0.65790    0.61320    0.14550    1.000
    C99      C        0.67300    0.71810    0.16880    1.000
    C100     C        0.64680    0.78820    0.15650    1.000
    H83      H        0.66780    0.82740    0.17800    1.000
    C101     C        0.73090    0.70380    0.21650    1.000
    C102     C        0.74220    0.63460    0.23550    1.000
    H84      H        0.71430    0.59600    0.21730    1.000
    C103     C        0.79330    0.62000    0.28060    1.000
    H85      H        0.79860    0.57180    0.29320    1.000
    C104     C        0.83210    0.74250    0.28880    1.000
    H86      H        0.86420    0.77880    0.30610    1.000
    C105     C        0.77930    0.75850    0.24380    1.000
    H87      H        0.77540    0.80660    0.23100    1.000
    C106     C        0.83620    0.67300    0.30730    1.000
    C107     C        0.89210    0.65420    0.35500    1.000
    C108     C        0.62350    0.49030    0.98610    1.000
    C109     C        0.67580    0.50060    0.95770    1.000
    C110     C        0.74790    0.49310    0.98280    1.000
    H88      H        0.76300    0.48300    0.01780    1.000
    C111     C        0.79750    0.50030    0.95690    1.000
    C112     C        0.87440    0.49720    0.98390    1.000
    C113     C        0.77360    0.51170    0.90430    1.000
    H89      H        0.80710    0.51510    0.88600    1.000
    C114     C        0.70150    0.51800    0.87910    1.000
    C115     C        0.65330    0.51410    0.90640    1.000
    H90      H        0.60420    0.52080    0.88980    1.000
    C116     C        0.67520    0.52850    0.82350    1.000
    C117     C        0.62600    0.54420    0.71930    1.000
    C118     C        0.59880    0.55490    0.66330    1.000
    C119     C        0.72590    0.53390    0.79660    1.000
    H91      H        0.77530    0.53360    0.81380    1.000
    C120     C        0.70080    0.53990    0.74330    1.000
    H92      H        0.73320    0.54110    0.72400    1.000
    C121     C        0.58340    0.50490    0.74410    1.000
    H93      H        0.53990    0.48320    0.72530    1.000
    C122     C        0.60730    0.49880    0.79760    1.000
    H94      H        0.57900    0.47580    0.81530    1.000
    O46      O        0.45010    0.96420    0.14330    1.000
    N5       N        0.42650    0.96290    0.21750    1.000
    C123     C        0.43870    0.93180    0.17800    1.000
    C124     C        0.40110    0.92150    0.25450    1.000
    H95      H        0.39900    0.86970    0.24610    1.000
    H96      H        0.35360    0.93850    0.25350    1.000
    H97      H        0.43380    0.92880    0.28820    1.000
    C125     C        0.44970    0.04040    0.22440    1.000
    H98      H        0.46830    0.05490    0.19700    1.000
    H99      H        0.40910    0.07110    0.22420    1.000
    C126     C        0.41590    0.84710    0.17860    1.000
    H100     H        0.42680    0.82130    0.15110    1.000
    H101     H        0.36490    0.84390    0.17430    1.000
    H102     H        0.44230    0.82510    0.21070    1.000
    O47      O        0.44340    0.10960    0.12130    1.000
    C127     C        0.76980    0.64040    0.22030    1.000
    H103     H        0.76080    0.60720    0.19310    1.000
    C128     C        0.82290    0.62670    0.26550    1.000
    H104     H        0.85120    0.58430    0.26790    1.000
    C129     C        0.79500    0.73530    0.30030    1.000
    H105     H        0.80360    0.76910    0.32720    1.000
    C130     C        0.74190    0.75100    0.25610    1.000
    H106     H        0.71370    0.79350    0.25350    1.000
    C131     C        0.71610    0.55630    0.79370    1.000
    H107     H        0.76370    0.57070    0.80980    1.000
    C132     C        0.69150    0.56300    0.74590    1.000
    H108     H        0.72200    0.58240    0.72840    1.000
    C133     C        0.58590    0.56490    0.74720    1.000
    H109     H        0.54070    0.58540    0.73130    1.000
    C134     C        0.60780    0.55750    0.79920    1.000
    H110     H        0.57750    0.57200    0.81820    1.000
    O48      O        0.45450    0.82390    0.16740    1.000
    C135     C        0.43830    0.79210    0.20090    1.000
    N6       N        0.46070    0.72800    0.22240    1.000
    C136     C        0.51900    0.68930    0.20940    1.000
    H111     H        0.53020    0.71690    0.18360    1.000
    H112     H        0.56190    0.67950    0.23570    1.000
    H113     H        0.49780    0.64500    0.19550    1.000
    C137     C        0.43300    0.69900    0.26280    1.000
    H114     H        0.40130    0.72880    0.27390    1.000
    H115     H        0.40980    0.65450    0.25020    1.000
    H116     H        0.47400    0.68900    0.29050    1.000
    C138     C        0.38140    0.83530    0.22220    1.000
    H117     H        0.36980    0.87940    0.20390    1.000
    H118     H        0.33940    0.80780    0.21820    1.000
    H119     H        0.40270    0.84560    0.25720    1.000
    H120     H        0.48680    0.04590    0.25650    1.000
    Tb7      Tb       0.00337    0.51839    0.08670    1.000
    Tb8      Tb       0.04663    0.92854    0.05829    1.000
    O49      O        0.08820    0.42800    0.13357    1.000
    O50      O        0.00920    0.38960    0.06480    1.000
    O51      O        0.91830    0.61000    0.10420    1.000
    O52      O        0.41100    0.19900    0.38890    1.000
    O53      O        0.41310    0.08970    0.35990    1.000
    O54      O        0.07330    0.04990    0.07500    1.000
    O55      O        0.00550    0.12720    0.01930    1.000
    O56      O        0.06230    0.01620    0.96860    1.000
    O57      O        0.03280    0.04870    0.64230    1.000
    O58      O        0.13990    0.06830    0.63910    1.000
    O59      O        0.41740    0.98860    0.95910    1.000
    O60      O        0.39290    0.00180    0.03060    1.000
    O61      O        0.14290    0.95270    0.02610    1.000
    C139     C        0.06120    0.37760    0.10330    1.000
    C140     C        0.09090    0.30220    0.11390    1.000
    C141     C        0.06150    0.24500    0.08130    1.000
    H121     H        0.02470    0.25470    0.05120    1.000
    C142     C        0.08510    0.17470    0.09250    1.000
    C143     C        0.05130    0.11300    0.05960    1.000
    C144     C        0.14160    0.16140    0.13720    1.000
    H122     H        0.15790    0.11320    0.14550    1.000
    C145     C        0.17300    0.21810    0.16880    1.000
    C146     C        0.14680    0.28820    0.15650    1.000
    H123     H        0.16780    0.32740    0.17800    1.000
    C147     C        0.23090    0.20380    0.21650    1.000
    C148     C        0.24220    0.13460    0.23550    1.000
    H124     H        0.21430    0.09600    0.21730    1.000
    C149     C        0.29330    0.12000    0.28060    1.000
    H125     H        0.29860    0.07180    0.29320    1.000
    C150     C        0.33210    0.24250    0.28880    1.000
    H126     H        0.36420    0.27880    0.30610    1.000
    C151     C        0.27930    0.25850    0.24380    1.000
    H127     H        0.27540    0.30660    0.23100    1.000
    C152     C        0.33620    0.17300    0.30730    1.000
    C153     C        0.39210    0.15420    0.35500    1.000
    C154     C        0.12350    0.99030    0.98610    1.000
    C155     C        0.17580    0.00060    0.95770    1.000
    C156     C        0.24790    0.99310    0.98280    1.000
    H128     H        0.26300    0.98300    0.01780    1.000
    C157     C        0.29750    0.00030    0.95690    1.000
    C158     C        0.37440    0.99720    0.98390    1.000
    C159     C        0.27360    0.01170    0.90430    1.000
    H129     H        0.30710    0.01510    0.88600    1.000
    C160     C        0.20150    0.01800    0.87910    1.000
    C161     C        0.15330    0.01410    0.90640    1.000
    H130     H        0.10420    0.02080    0.88980    1.000
    C162     C        0.17520    0.02850    0.82350    1.000
    C163     C        0.12600    0.04420    0.71930    1.000
    C164     C        0.09880    0.05490    0.66330    1.000
    C165     C        0.22590    0.03390    0.79660    1.000
    H131     H        0.27530    0.03360    0.81380    1.000
    C166     C        0.20080    0.03990    0.74330    1.000
    H132     H        0.23320    0.04110    0.72400    1.000
    C167     C        0.08340    0.00490    0.74410    1.000
    H133     H        0.03990    0.98320    0.72530    1.000
    C168     C        0.10730    0.99880    0.79760    1.000
    H134     H        0.07900    0.97580    0.81530    1.000
    O62      O        0.95010    0.46420    0.14330    1.000
    N7       N        0.92650    0.46290    0.21750    1.000
    C169     C        0.93870    0.43180    0.17800    1.000
    C170     C        0.90110    0.42150    0.25450    1.000
    H135     H        0.89900    0.36970    0.24610    1.000
    H136     H        0.85360    0.43850    0.25350    1.000
    H137     H        0.93380    0.42880    0.28820    1.000
    C171     C        0.94970    0.54040    0.22440    1.000
    H138     H        0.96830    0.55490    0.19700    1.000
    H139     H        0.90910    0.57110    0.22420    1.000
    C172     C        0.91590    0.34710    0.17860    1.000
    H140     H        0.92680    0.32130    0.15110    1.000
    H141     H        0.86490    0.34390    0.17430    1.000
    H142     H        0.94230    0.32510    0.21070    1.000
    O63      O        0.94340    0.60960    0.12130    1.000
    C173     C        0.26980    0.14040    0.22030    1.000
    H143     H        0.26080    0.10720    0.19310    1.000
    C174     C        0.32290    0.12670    0.26550    1.000
    H144     H        0.35120    0.08430    0.26790    1.000
    C175     C        0.29500    0.23530    0.30030    1.000
    H145     H        0.30360    0.26910    0.32720    1.000
    C176     C        0.24190    0.25100    0.25610    1.000
    H146     H        0.21370    0.29350    0.25350    1.000
    C177     C        0.21610    0.05630    0.79370    1.000
    H147     H        0.26370    0.07070    0.80980    1.000
    C178     C        0.19150    0.06300    0.74590    1.000
    H148     H        0.22200    0.08240    0.72840    1.000
    C179     C        0.08590    0.06490    0.74720    1.000
    H149     H        0.04070    0.08540    0.73130    1.000
    C180     C        0.10780    0.05750    0.79920    1.000
    H150     H        0.07750    0.07200    0.81820    1.000
    O64      O        0.95450    0.32390    0.16740    1.000
    C181     C        0.93830    0.29210    0.20090    1.000
    N8       N        0.96070    0.22800    0.22240    1.000
    C182     C        0.01900    0.18930    0.20940    1.000
    H151     H        0.03020    0.21690    0.18360    1.000
    H152     H        0.06190    0.17950    0.23570    1.000
    H153     H        0.99780    0.14500    0.19550    1.000
    C183     C        0.93300    0.19900    0.26280    1.000
    H154     H        0.90130    0.22880    0.27390    1.000
    H155     H        0.90980    0.15450    0.25020    1.000
    H156     H        0.97400    0.18900    0.29050    1.000
    C184     C        0.88140    0.33530    0.22220    1.000
    H157     H        0.86980    0.37940    0.20390    1.000
    H158     H        0.83940    0.30780    0.21820    1.000
    H159     H        0.90270    0.34560    0.25720    1.000
    H160     H        0.98680    0.54590    0.25650    1.000
    Tb9      Tb       0.50337    0.98161    0.58670    1.000
    Tb10     Tb       0.54663    0.57146    0.55829    1.000
    O65      O        0.58820    0.07200    0.63357    1.000
    O66      O        0.50920    0.11040    0.56480    1.000
    O67      O        0.41830    0.89000    0.60420    1.000
    O68      O        0.91100    0.30100    0.88890    1.000
    O69      O        0.91310    0.41030    0.85990    1.000
    O70      O        0.57330    0.45010    0.57500    1.000
    O71      O        0.50550    0.37280    0.51930    1.000
    O72      O        0.56230    0.48380    0.46860    1.000
    O73      O        0.53280    0.45130    0.14230    1.000
    O74      O        0.63990    0.43170    0.13910    1.000
    O75      O        0.91740    0.51140    0.45910    1.000
    O76      O        0.89290    0.49820    0.53060    1.000
    O77      O        0.64290    0.54730    0.52610    1.000
    C185     C        0.56120    0.12240    0.60330    1.000
    C186     C        0.59090    0.19780    0.61390    1.000
    C187     C        0.56150    0.25500    0.58130    1.000
    H161     H        0.52470    0.24530    0.55120    1.000
    C188     C        0.58510    0.32530    0.59250    1.000
    C189     C        0.55130    0.38700    0.55960    1.000
    C190     C        0.64160    0.33860    0.63720    1.000
    H162     H        0.65790    0.38680    0.64550    1.000
    C191     C        0.67300    0.28190    0.66880    1.000
    C192     C        0.64680    0.21180    0.65650    1.000
    H163     H        0.66780    0.17260    0.67800    1.000
    C193     C        0.73090    0.29620    0.71650    1.000
    C194     C        0.74220    0.36540    0.73550    1.000
    H164     H        0.71430    0.40400    0.71730    1.000
    C195     C        0.79330    0.38000    0.78060    1.000
    H165     H        0.79860    0.42820    0.79320    1.000
    C196     C        0.83210    0.25750    0.78880    1.000
    H166     H        0.86420    0.22120    0.80610    1.000
    C197     C        0.77930    0.24150    0.74380    1.000
    H167     H        0.77540    0.19340    0.73100    1.000
    C198     C        0.83620    0.32700    0.80730    1.000
    C199     C        0.89210    0.34580    0.85500    1.000
    C200     C        0.62350    0.50970    0.48610    1.000
    C201     C        0.67580    0.49940    0.45770    1.000
    C202     C        0.74790    0.50690    0.48280    1.000
    H168     H        0.76300    0.51700    0.51780    1.000
    C203     C        0.79750    0.49970    0.45690    1.000
    C204     C        0.87440    0.50280    0.48390    1.000
    C205     C        0.77360    0.48830    0.40430    1.000
    H169     H        0.80710    0.48490    0.38600    1.000
    C206     C        0.70150    0.48200    0.37910    1.000
    C207     C        0.65330    0.48590    0.40640    1.000
    H170     H        0.60420    0.47920    0.38980    1.000
    C208     C        0.67520    0.47150    0.32350    1.000
    C209     C        0.62600    0.45580    0.21930    1.000
    C210     C        0.59880    0.44510    0.16330    1.000
    C211     C        0.72590    0.46610    0.29660    1.000
    H171     H        0.77530    0.46640    0.31380    1.000
    C212     C        0.70080    0.46010    0.24330    1.000
    H172     H        0.73320    0.45890    0.22400    1.000
    C213     C        0.58340    0.49510    0.24410    1.000
    H173     H        0.53990    0.51680    0.22530    1.000
    C214     C        0.60730    0.50120    0.29760    1.000
    H174     H        0.57900    0.52420    0.31530    1.000
    O78      O        0.45010    0.03580    0.64330    1.000
    N9       N        0.42650    0.03710    0.71750    1.000
    C215     C        0.43870    0.06820    0.67800    1.000
    C216     C        0.40110    0.07850    0.75450    1.000
    H175     H        0.39900    0.13030    0.74610    1.000
    H176     H        0.35360    0.06150    0.75350    1.000
    H177     H        0.43380    0.07120    0.78820    1.000
    C217     C        0.44970    0.95960    0.72440    1.000
    H178     H        0.46830    0.94510    0.69700    1.000
    H179     H        0.40910    0.92890    0.72420    1.000
    C218     C        0.41590    0.15290    0.67860    1.000
    H180     H        0.42680    0.17870    0.65110    1.000
    H181     H        0.36490    0.15610    0.67430    1.000
    H182     H        0.44230    0.17490    0.71070    1.000
    O79      O        0.44340    0.89040    0.62130    1.000
    C219     C        0.76980    0.35960    0.72030    1.000
    H183     H        0.76080    0.39280    0.69310    1.000
    C220     C        0.82290    0.37330    0.76550    1.000
    H184     H        0.85120    0.41570    0.76790    1.000
    C221     C        0.79500    0.26470    0.80030    1.000
    H185     H        0.80360    0.23090    0.82720    1.000
    C222     C        0.74190    0.24900    0.75610    1.000
    H186     H        0.71370    0.20650    0.75350    1.000
    C223     C        0.71610    0.44370    0.29370    1.000
    H187     H        0.76370    0.42930    0.30980    1.000
    C224     C        0.69150    0.43700    0.24590    1.000
    H188     H        0.72200    0.41760    0.22840    1.000
    C225     C        0.58590    0.43510    0.24720    1.000
    H189     H        0.54070    0.41460    0.23130    1.000
    C226     C        0.60780    0.44250    0.29920    1.000
    H190     H        0.57750    0.42800    0.31820    1.000
    O80      O        0.45450    0.17610    0.66740    1.000
    C227     C        0.43830    0.20790    0.70090    1.000
    N10      N        0.46070    0.27200    0.72240    1.000
    C228     C        0.51900    0.31070    0.70940    1.000
    H191     H        0.53020    0.28310    0.68360    1.000
    H192     H        0.56190    0.32050    0.73570    1.000
    H193     H        0.49780    0.35500    0.69550    1.000
    C229     C        0.43300    0.30100    0.76280    1.000
    H194     H        0.40130    0.27120    0.77390    1.000
    H195     H        0.40980    0.34550    0.75020    1.000
    H196     H        0.47400    0.31100    0.79050    1.000
    C230     C        0.38140    0.16470    0.72220    1.000
    H197     H        0.36980    0.12060    0.70390    1.000
    H198     H        0.33940    0.19220    0.71820    1.000
    H199     H        0.40270    0.15440    0.75720    1.000
    H200     H        0.48680    0.95410    0.75650    1.000
    Tb11     Tb       0.00337    0.48161    0.58670    1.000
    Tb12     Tb       0.04663    0.07146    0.55829    1.000
    O81      O        0.08820    0.57200    0.63357    1.000
    O82      O        0.00920    0.61040    0.56480    1.000
    O83      O        0.91830    0.39000    0.60420    1.000
    O84      O        0.41100    0.80100    0.88890    1.000
    O85      O        0.41310    0.91030    0.85990    1.000
    O86      O        0.07330    0.95010    0.57500    1.000
    O87      O        0.00550    0.87280    0.51930    1.000
    O88      O        0.06230    0.98380    0.46860    1.000
    O89      O        0.03280    0.95130    0.14230    1.000
    O90      O        0.13990    0.93170    0.13910    1.000
    O91      O        0.41740    0.01140    0.45910    1.000
    O92      O        0.39290    0.99820    0.53060    1.000
    O93      O        0.14290    0.04730    0.52610    1.000
    C231     C        0.06120    0.62240    0.60330    1.000
    C232     C        0.09090    0.69780    0.61390    1.000
    C233     C        0.06150    0.75500    0.58130    1.000
    H201     H        0.02470    0.74530    0.55120    1.000
    C234     C        0.08510    0.82530    0.59250    1.000
    C235     C        0.05130    0.88700    0.55960    1.000
    C236     C        0.14160    0.83860    0.63720    1.000
    H202     H        0.15790    0.88680    0.64550    1.000
    C237     C        0.17300    0.78190    0.66880    1.000
    C238     C        0.14680    0.71180    0.65650    1.000
    H203     H        0.16780    0.67260    0.67800    1.000
    C239     C        0.23090    0.79620    0.71650    1.000
    C240     C        0.24220    0.86540    0.73550    1.000
    H204     H        0.21430    0.90400    0.71730    1.000
    C241     C        0.29330    0.88000    0.78060    1.000
    H205     H        0.29860    0.92820    0.79320    1.000
    C242     C        0.33210    0.75750    0.78880    1.000
    H206     H        0.36420    0.72120    0.80610    1.000
    C243     C        0.27930    0.74150    0.74380    1.000
    H207     H        0.27540    0.69340    0.73100    1.000
    C244     C        0.33620    0.82700    0.80730    1.000
    C245     C        0.39210    0.84580    0.85500    1.000
    C246     C        0.12350    0.00970    0.48610    1.000
    C247     C        0.17580    0.99940    0.45770    1.000
    C248     C        0.24790    0.00690    0.48280    1.000
    H208     H        0.26300    0.01700    0.51780    1.000
    C249     C        0.29750    0.99970    0.45690    1.000
    C250     C        0.37440    0.00280    0.48390    1.000
    C251     C        0.27360    0.98830    0.40430    1.000
    H209     H        0.30710    0.98490    0.38600    1.000
    C252     C        0.20150    0.98200    0.37910    1.000
    C253     C        0.15330    0.98590    0.40640    1.000
    H210     H        0.10420    0.97920    0.38980    1.000
    C254     C        0.17520    0.97150    0.32350    1.000
    C255     C        0.12600    0.95580    0.21930    1.000
    C256     C        0.09880    0.94510    0.16330    1.000
    C257     C        0.22590    0.96610    0.29660    1.000
    H211     H        0.27530    0.96640    0.31380    1.000
    C258     C        0.20080    0.96010    0.24330    1.000
    H212     H        0.23320    0.95890    0.22400    1.000
    C259     C        0.08340    0.99510    0.24410    1.000
    H213     H        0.03990    0.01680    0.22530    1.000
    C260     C        0.10730    0.00120    0.29760    1.000
    H214     H        0.07900    0.02420    0.31530    1.000
    O94      O        0.95010    0.53580    0.64330    1.000
    N11      N        0.92650    0.53710    0.71750    1.000
    C261     C        0.93870    0.56820    0.67800    1.000
    C262     C        0.90110    0.57850    0.75450    1.000
    H215     H        0.89900    0.63030    0.74610    1.000
    H216     H        0.85360    0.56150    0.75350    1.000
    H217     H        0.93380    0.57120    0.78820    1.000
    C263     C        0.94970    0.45960    0.72440    1.000
    H218     H        0.96830    0.44510    0.69700    1.000
    H219     H        0.90910    0.42890    0.72420    1.000
    C264     C        0.91590    0.65290    0.67860    1.000
    H220     H        0.92680    0.67870    0.65110    1.000
    H221     H        0.86490    0.65610    0.67430    1.000
    H222     H        0.94230    0.67490    0.71070    1.000
    O95      O        0.94340    0.39040    0.62130    1.000
    C265     C        0.26980    0.85960    0.72030    1.000
    H223     H        0.26080    0.89280    0.69310    1.000
    C266     C        0.32290    0.87330    0.76550    1.000
    H224     H        0.35120    0.91570    0.76790    1.000
    C267     C        0.29500    0.76470    0.80030    1.000
    H225     H        0.30360    0.73090    0.82720    1.000
    C268     C        0.24190    0.74900    0.75610    1.000
    H226     H        0.21370    0.70650    0.75350    1.000
    C269     C        0.21610    0.94370    0.29370    1.000
    H227     H        0.26370    0.92930    0.30980    1.000
    C270     C        0.19150    0.93700    0.24590    1.000
    H228     H        0.22200    0.91760    0.22840    1.000
    C271     C        0.08590    0.93510    0.24720    1.000
    H229     H        0.04070    0.91460    0.23130    1.000
    C272     C        0.10780    0.94250    0.29920    1.000
    H230     H        0.07750    0.92800    0.31820    1.000
    O96      O        0.95450    0.67610    0.66740    1.000
    C273     C        0.93830    0.70790    0.70090    1.000
    N12      N        0.96070    0.77200    0.72240    1.000
    C274     C        0.01900    0.81070    0.70940    1.000
    H231     H        0.03020    0.78310    0.68360    1.000
    H232     H        0.06190    0.82050    0.73570    1.000
    H233     H        0.99780    0.85500    0.69550    1.000
    C275     C        0.93300    0.80100    0.76280    1.000
    H234     H        0.90130    0.77120    0.77390    1.000
    H235     H        0.90980    0.84550    0.75020    1.000
    H236     H        0.97400    0.81100    0.79050    1.000
    C276     C        0.88140    0.66470    0.72220    1.000
    H237     H        0.86980    0.62060    0.70390    1.000
    H238     H        0.83940    0.69220    0.71820    1.000
    H239     H        0.90270    0.65440    0.75720    1.000
    H240     H        0.98680    0.45410    0.75650    1.000
    Tb13     Tb       0.49663    0.98161    0.91330    1.000
    Tb14     Tb       0.45337    0.57146    0.94171    1.000
    O97      O        0.41180    0.07200    0.86643    1.000
    O98      O        0.49080    0.11040    0.93520    1.000
    O99      O        0.58170    0.89000    0.89580    1.000
    O100     O        0.08900    0.30100    0.61110    1.000
    O101     O        0.08690    0.41030    0.64010    1.000
    O102     O        0.42670    0.45010    0.92500    1.000
    O103     O        0.49450    0.37280    0.98070    1.000
    O104     O        0.43770    0.48380    0.03140    1.000
    O105     O        0.46720    0.45130    0.35770    1.000
    O106     O        0.36010    0.43170    0.36090    1.000
    O107     O        0.08260    0.51140    0.04090    1.000
    O108     O        0.10710    0.49820    0.96940    1.000
    O109     O        0.35710    0.54730    0.97390    1.000
    C277     C        0.43880    0.12240    0.89670    1.000
    C278     C        0.40910    0.19780    0.88610    1.000
    C279     C        0.43850    0.25500    0.91870    1.000
    H241     H        0.47530    0.24530    0.94880    1.000
    C280     C        0.41490    0.32530    0.90750    1.000
    C281     C        0.44870    0.38700    0.94040    1.000
    C282     C        0.35840    0.33860    0.86280    1.000
    H242     H        0.34210    0.38680    0.85450    1.000
    C283     C        0.32700    0.28190    0.83120    1.000
    C284     C        0.35320    0.21180    0.84350    1.000
    H243     H        0.33220    0.17260    0.82200    1.000
    C285     C        0.26910    0.29620    0.78350    1.000
    C286     C        0.25780    0.36540    0.76450    1.000
    H244     H        0.28570    0.40400    0.78270    1.000
    C287     C        0.20670    0.38000    0.71940    1.000
    H245     H        0.20140    0.42820    0.70680    1.000
    C288     C        0.16790    0.25750    0.71120    1.000
    H246     H        0.13580    0.22120    0.69390    1.000
    C289     C        0.22070    0.24150    0.75620    1.000
    H247     H        0.22460    0.19340    0.76900    1.000
    C290     C        0.16380    0.32700    0.69270    1.000
    C291     C        0.10790    0.34580    0.64500    1.000
    C292     C        0.37650    0.50970    0.01390    1.000
    C293     C        0.32420    0.49940    0.04230    1.000
    C294     C        0.25210    0.50690    0.01720    1.000
    H248     H        0.23700    0.51700    0.98220    1.000
    C295     C        0.20250    0.49970    0.04310    1.000
    C296     C        0.12560    0.50280    0.01610    1.000
    C297     C        0.22640    0.48830    0.09570    1.000
    H249     H        0.19290    0.48490    0.11400    1.000
    C298     C        0.29850    0.48200    0.12090    1.000
    C299     C        0.34670    0.48590    0.09360    1.000
    H250     H        0.39580    0.47920    0.11020    1.000
    C300     C        0.32480    0.47150    0.17650    1.000
    C301     C        0.37400    0.45580    0.28070    1.000
    C302     C        0.40120    0.44510    0.33670    1.000
    C303     C        0.27410    0.46610    0.20340    1.000
    H251     H        0.22470    0.46640    0.18620    1.000
    C304     C        0.29920    0.46010    0.25670    1.000
    H252     H        0.26680    0.45890    0.27600    1.000
    C305     C        0.41660    0.49510    0.25590    1.000
    H253     H        0.46010    0.51680    0.27470    1.000
    C306     C        0.39270    0.50120    0.20240    1.000
    H254     H        0.42100    0.52420    0.18470    1.000
    O110     O        0.54990    0.03580    0.85670    1.000
    N13      N        0.57350    0.03710    0.78250    1.000
    C307     C        0.56130    0.06820    0.82200    1.000
    C308     C        0.59890    0.07850    0.74550    1.000
    H255     H        0.60100    0.13030    0.75390    1.000
    H256     H        0.64640    0.06150    0.74650    1.000
    H257     H        0.56620    0.07120    0.71180    1.000
    C309     C        0.55030    0.95960    0.77560    1.000
    H258     H        0.53170    0.94510    0.80300    1.000
    H259     H        0.59090    0.92890    0.77580    1.000
    C310     C        0.58410    0.15290    0.82140    1.000
    H260     H        0.57320    0.17870    0.84890    1.000
    H261     H        0.63510    0.15610    0.82570    1.000
    H262     H        0.55770    0.17490    0.78930    1.000
    O111     O        0.55660    0.89040    0.87870    1.000
    C311     C        0.23020    0.35960    0.77970    1.000
    H263     H        0.23920    0.39280    0.80690    1.000
    C312     C        0.17710    0.37330    0.73450    1.000
    H264     H        0.14880    0.41570    0.73210    1.000
    C313     C        0.20500    0.26470    0.69970    1.000
    H265     H        0.19640    0.23090    0.67280    1.000
    C314     C        0.25810    0.24900    0.74390    1.000
    H266     H        0.28630    0.20650    0.74650    1.000
    C315     C        0.28390    0.44370    0.20630    1.000
    H267     H        0.23630    0.42930    0.19020    1.000
    C316     C        0.30850    0.43700    0.25410    1.000
    H268     H        0.27800    0.41760    0.27160    1.000
    C317     C        0.41410    0.43510    0.25280    1.000
    H269     H        0.45930    0.41460    0.26870    1.000
    C318     C        0.39220    0.44250    0.20080    1.000
    H270     H        0.42250    0.42800    0.18180    1.000
    O112     O        0.54550    0.17610    0.83260    1.000
    C319     C        0.56170    0.20790    0.79910    1.000
    N14      N        0.53930    0.27200    0.77760    1.000
    C320     C        0.48100    0.31070    0.79060    1.000
    H271     H        0.46980    0.28310    0.81640    1.000
    H272     H        0.43810    0.32050    0.76430    1.000
    H273     H        0.50220    0.35500    0.80450    1.000
    C321     C        0.56700    0.30100    0.73720    1.000
    H274     H        0.59870    0.27120    0.72610    1.000
    H275     H        0.59020    0.34550    0.74980    1.000
    H276     H        0.52600    0.31100    0.70950    1.000
    C322     C        0.61860    0.16470    0.77780    1.000
    H277     H        0.63020    0.12060    0.79610    1.000
    H278     H        0.66060    0.19220    0.78180    1.000
    H279     H        0.59730    0.15440    0.74280    1.000
    H280     H        0.51320    0.95410    0.74350    1.000
    Tb15     Tb       0.99663    0.48161    0.91330    1.000
    Tb16     Tb       0.95337    0.07146    0.94171    1.000
    O113     O        0.91180    0.57200    0.86643    1.000
    O114     O        0.99080    0.61040    0.93520    1.000
    O115     O        0.08170    0.39000    0.89580    1.000
    O116     O        0.58900    0.80100    0.61110    1.000
    O117     O        0.58690    0.91030    0.64010    1.000
    O118     O        0.92670    0.95010    0.92500    1.000
    O119     O        0.99450    0.87280    0.98070    1.000
    O120     O        0.93770    0.98380    0.03140    1.000
    O121     O        0.96720    0.95130    0.35770    1.000
    O122     O        0.86010    0.93170    0.36090    1.000
    O123     O        0.58260    0.01140    0.04090    1.000
    O124     O        0.60710    0.99820    0.96940    1.000
    O125     O        0.85710    0.04730    0.97390    1.000
    C323     C        0.93880    0.62240    0.89670    1.000
    C324     C        0.90910    0.69780    0.88610    1.000
    C325     C        0.93850    0.75500    0.91870    1.000
    H281     H        0.97530    0.74530    0.94880    1.000
    C326     C        0.91490    0.82530    0.90750    1.000
    C327     C        0.94870    0.88700    0.94040    1.000
    C328     C        0.85840    0.83860    0.86280    1.000
    H282     H        0.84210    0.88680    0.85450    1.000
    C329     C        0.82700    0.78190    0.83120    1.000
    C330     C        0.85320    0.71180    0.84350    1.000
    H283     H        0.83220    0.67260    0.82200    1.000
    C331     C        0.76910    0.79620    0.78350    1.000
    C332     C        0.75780    0.86540    0.76450    1.000
    H284     H        0.78570    0.90400    0.78270    1.000
    C333     C        0.70670    0.88000    0.71940    1.000
    H285     H        0.70140    0.92820    0.70680    1.000
    C334     C        0.66790    0.75750    0.71120    1.000
    H286     H        0.63580    0.72120    0.69390    1.000
    C335     C        0.72070    0.74150    0.75620    1.000
    H287     H        0.72460    0.69340    0.76900    1.000
    C336     C        0.66380    0.82700    0.69270    1.000
    C337     C        0.60790    0.84580    0.64500    1.000
    C338     C        0.87650    0.00970    0.01390    1.000
    C339     C        0.82420    0.99940    0.04230    1.000
    C340     C        0.75210    0.00690    0.01720    1.000
    H288     H        0.73700    0.01700    0.98220    1.000
    C341     C        0.70250    0.99970    0.04310    1.000
    C342     C        0.62560    0.00280    0.01610    1.000
    C343     C        0.72640    0.98830    0.09570    1.000
    H289     H        0.69290    0.98490    0.11400    1.000
    C344     C        0.79850    0.98200    0.12090    1.000
    C345     C        0.84670    0.98590    0.09360    1.000
    H290     H        0.89580    0.97920    0.11020    1.000
    C346     C        0.82480    0.97150    0.17650    1.000
    C347     C        0.87400    0.95580    0.28070    1.000
    C348     C        0.90120    0.94510    0.33670    1.000
    C349     C        0.77410    0.96610    0.20340    1.000
    H291     H        0.72470    0.96640    0.18620    1.000
    C350     C        0.79920    0.96010    0.25670    1.000
    H292     H        0.76680    0.95890    0.27600    1.000
    C351     C        0.91660    0.99510    0.25590    1.000
    H293     H        0.96010    0.01680    0.27470    1.000
    C352     C        0.89270    0.00120    0.20240    1.000
    H294     H        0.92100    0.02420    0.18470    1.000
    O126     O        0.04990    0.53580    0.85670    1.000
    N15      N        0.07350    0.53710    0.78250    1.000
    C353     C        0.06130    0.56820    0.82200    1.000
    C354     C        0.09890    0.57850    0.74550    1.000
    H295     H        0.10100    0.63030    0.75390    1.000
    H296     H        0.14640    0.56150    0.74650    1.000
    H297     H        0.06620    0.57120    0.71180    1.000
    C355     C        0.05030    0.45960    0.77560    1.000
    H298     H        0.03170    0.44510    0.80300    1.000
    H299     H        0.09090    0.42890    0.77580    1.000
    C356     C        0.08410    0.65290    0.82140    1.000
    H300     H        0.07320    0.67870    0.84890    1.000
    H301     H        0.13510    0.65610    0.82570    1.000
    H302     H        0.05770    0.67490    0.78930    1.000
    O127     O        0.05660    0.39040    0.87870    1.000
    C357     C        0.73020    0.85960    0.77970    1.000
    H303     H        0.73920    0.89280    0.80690    1.000
    C358     C        0.67710    0.87330    0.73450    1.000
    H304     H        0.64880    0.91570    0.73210    1.000
    C359     C        0.70500    0.76470    0.69970    1.000
    H305     H        0.69640    0.73090    0.67280    1.000
    C360     C        0.75810    0.74900    0.74390    1.000
    H306     H        0.78630    0.70650    0.74650    1.000
    C361     C        0.78390    0.94370    0.20630    1.000
    H307     H        0.73630    0.92930    0.19020    1.000
    C362     C        0.80850    0.93700    0.25410    1.000
    H308     H        0.77800    0.91760    0.27160    1.000
    C363     C        0.91410    0.93510    0.25280    1.000
    H309     H        0.95930    0.91460    0.26870    1.000
    C364     C        0.89220    0.94250    0.20080    1.000
    H310     H        0.92250    0.92800    0.18180    1.000
    O128     O        0.04550    0.67610    0.83260    1.000
    C365     C        0.06170    0.70790    0.79910    1.000
    N16      N        0.03930    0.77200    0.77760    1.000
    C366     C        0.98100    0.81070    0.79060    1.000
    H311     H        0.96980    0.78310    0.81640    1.000
    H312     H        0.93810    0.82050    0.76430    1.000
    H313     H        0.00220    0.85500    0.80450    1.000
    C367     C        0.06700    0.80100    0.73720    1.000
    H314     H        0.09870    0.77120    0.72610    1.000
    H315     H        0.09020    0.84550    0.74980    1.000
    H316     H        0.02600    0.81100    0.70950    1.000
    C368     C        0.11860    0.66470    0.77780    1.000
    H317     H        0.13020    0.62060    0.79610    1.000
    H318     H        0.16060    0.69220    0.78180    1.000
    H319     H        0.09730    0.65440    0.74280    1.000
    H320     H        0.01320    0.45410    0.74350    1.000
