data_functionalizedCrystal
_audit_creation_method	'EQeq! by Chris Wilmer'
_symmetry_space_group_name_H-M	'P1'
_symmetry_Int_Tables_number	1
_symmetry_cell_setting	triclinic
loop_
_symmetry_equiv_pos_as_xyz
  x,y,z
_cell_length_a	22.6799
_cell_length_b	22.6799
_cell_length_c	7.4972
_cell_angle_alpha	90
_cell_angle_beta	90
_cell_angle_gamma	120
loop_
_atom_site_label
_atom_site_type_symbol
_atom_site_fract_x
_atom_site_fract_y
_atom_site_fract_z
_atom_site_charge
Mof_C 	C 	0.7901	0.1522	0.5223	-0.033
Mof_H 	H 	0.759	0.1401	0.4235	0.03
Mof_C 	C 	0.7846	0.1597	0.7849	-0.032
Mof_H 	H 	0.749	0.1532	0.8664	0.034
Mof_C 	C 	0.45677	0.48553	0.85563	-0.04
Mof_H 	H 	0.42567	0.47343	0.75683	0.037
Mof_C 	C 	0.45127	0.49303	0.11823	-0.044
Mof_H 	H 	0.41567	0.48653	0.19973	0.037
Mof_C 	C 	0.12343	0.81887	0.18897	-0.033
Mof_H 	H 	0.09233	0.80677	0.09017	0.027
Mof_C 	C 	0.11793	0.82637	0.45157	-0.031
Mof_H 	H 	0.08233	0.81987	0.53307	0.03
Mof_C 	C 	0.8478	0.6379	0.5223	-0.029
Mof_H 	H 	0.8599	0.6189	0.4235	0.035
Mof_C 	C 	0.8403	0.6249	0.7849	-0.027
Mof_H 	H 	0.8468	0.5958	0.8664	0.037
Mof_C 	C 	0.51447	0.97123	0.85563	0.016
Mof_H 	H 	0.52657	0.95223	0.75683	0.026
Mof_C 	C 	0.50697	0.95823	0.11823	0.013
Mof_H 	H 	0.51347	0.92913	0.19973	0.025
Mof_C 	C 	0.18113	0.30457	0.18897	-0.03
Mof_H 	H 	0.19323	0.28557	0.09017	0.031
Mof_C 	C 	0.17363	0.29157	0.45157	-0.029
Mof_H 	H 	0.18013	0.26247	0.53307	0.034
Mof_C 	C 	0.3621	0.2099	0.5223	-0.03
Mof_H 	H 	0.3811	0.241	0.4235	0.032
Mof_C 	C 	0.3751	0.2154	0.7849	-0.029
Mof_H 	H 	0.4042	0.251	0.8664	0.035
Mof_C 	C 	0.02877	0.54323	0.85563	-0.091
Mof_H 	H 	0.04777	0.57433	0.75683	0.047
Mof_C 	C 	0.04177	0.54873	0.11823	-0.094
Mof_H 	H 	0.07087	0.58433	0.19973	0.048
Mof_C 	C 	0.69543	0.87657	0.18897	-0.03
Mof_H 	H 	0.71443	0.90767	0.09017	0.036
Mof_C 	C 	0.70843	0.88207	0.45157	-0.029
Mof_H 	H 	0.73753	0.91767	0.53307	0.04
Mof_C 	C 	0.1522	0.7901	0.4777	-0.033
Mof_H 	H 	0.1401	0.759	0.5765	0.032
Mof_C 	C 	0.1597	0.7846	0.2151	-0.032
Mof_H 	H 	0.1532	0.749	0.1336	0.031
Mof_C 	C 	0.81887	0.12343	0.81103	-0.032
Mof_H 	H 	0.80677	0.09233	0.90983	0.031
Mof_C 	C 	0.82637	0.11793	0.54843	-0.031
Mof_H 	H 	0.81987	0.08233	0.46693	0.028
Mof_C 	C 	0.48553	0.45677	0.14437	-0.022
Mof_H 	H 	0.47343	0.42567	0.24317	0.03
Mof_C 	C 	0.49303	0.45127	0.88177	-0.015
Mof_H 	H 	0.48653	0.41567	0.80027	0.031
Mof_C 	C 	0.6379	0.8478	0.4777	-0.029
Mof_H 	H 	0.6189	0.8599	0.5765	0.037
Mof_C 	C 	0.6249	0.8403	0.2151	-0.028
Mof_H 	H 	0.5958	0.8468	0.1336	0.034
Mof_C 	C 	0.30457	0.18113	0.81103	-0.03
Mof_H 	H 	0.28557	0.19323	0.90983	0.035
Mof_C 	C 	0.29157	0.17363	0.54843	-0.029
Mof_H 	H 	0.26247	0.18013	0.46693	0.033
Mof_C 	C 	0.97123	0.51447	0.14437	0.029
Mof_H 	H 	0.95223	0.52657	0.24317	0.02
Mof_C 	C 	0.95823	0.50697	0.88177	0.036
Mof_H 	H 	0.92913	0.51347	0.80027	0.02
Mof_C 	C 	0.2099	0.3621	0.4777	-0.031
Mof_H 	H 	0.241	0.3811	0.5765	0.034
Mof_C 	C 	0.2154	0.3751	0.2151	-0.029
Mof_H 	H 	0.251	0.4042	0.1336	0.032
Mof_C 	C 	0.87657	0.69543	0.81103	-0.03
Mof_H 	H 	0.90767	0.71443	0.90983	0.04
Mof_C 	C 	0.88207	0.70843	0.54843	-0.029
Mof_H 	H 	0.91767	0.73753	0.46693	0.038
Mof_C 	C 	0.54323	0.02877	0.14437	-0.079
Mof_H 	H 	0.57433	0.04777	0.24317	0.041
Mof_C 	C 	0.54873	0.04177	0.88177	-0.07
Mof_H 	H 	0.58433	0.07087	0.80027	0.043
Mof_C 	C 	0.2099	0.8478	0.4777	-0.028
Mof_H 	H 	0.241	0.8599	0.5765	0.036
Mof_C 	C 	0.2154	0.8403	0.2151	-0.027
Mof_H 	H 	0.251	0.8468	0.1336	0.034
Mof_C 	C 	0.87657	0.18113	0.81103	-0.029
Mof_H 	H 	0.90767	0.19323	0.90983	0.04
Mof_C 	C 	0.88207	0.17363	0.54843	-0.028
Mof_H 	H 	0.91767	0.18013	0.46693	0.039
Mof_C 	C 	0.54323	0.51447	0.14437	-0.022
Mof_H 	H 	0.57433	0.52657	0.24317	0.03
Mof_C 	C 	0.54873	0.50697	0.88177	-0.015
Mof_H 	H 	0.58433	0.51347	0.80027	0.031
Mof_C 	C 	0.1522	0.3621	0.4777	-0.033
Mof_H 	H 	0.1401	0.3811	0.5765	0.032
Mof_C 	C 	0.1597	0.3751	0.2151	-0.032
Mof_H 	H 	0.1532	0.4042	0.1336	0.031
Mof_C 	C 	0.81887	0.69543	0.81103	-0.031
Mof_H 	H 	0.80677	0.71443	0.90983	0.036
Mof_C 	C 	0.82637	0.70843	0.54843	-0.03
Mof_H 	H 	0.81987	0.73753	0.46693	0.034
Mof_C 	C 	0.48553	0.02877	0.14437	-0.08
Mof_H 	H 	0.47343	0.04777	0.24317	0.041
Mof_C 	C 	0.49303	0.04177	0.88177	-0.071
Mof_H 	H 	0.48653	0.07087	0.80027	0.043
Mof_C 	C 	0.6379	0.7901	0.4777	-0.031
Mof_H 	H 	0.6189	0.759	0.5765	0.034
Mof_C 	C 	0.6249	0.7846	0.2151	-0.03
Mof_H 	H 	0.5958	0.749	0.1336	0.033
Mof_C 	C 	0.30457	0.12343	0.81103	-0.032
Mof_H 	H 	0.28557	0.09233	0.90983	0.031
Mof_C 	C 	0.29157	0.11793	0.54843	-0.03
Mof_H 	H 	0.26247	0.08233	0.46693	0.027
Mof_C 	C 	0.97123	0.45677	0.14437	0.03
Mof_H 	H 	0.95223	0.42567	0.24317	0.02
Mof_C 	C 	0.95823	0.45127	0.88177	0.036
Mof_H 	H 	0.92913	0.41567	0.80027	0.019
Mof_C 	C 	0.8478	0.2099	0.5223	-0.028
Mof_H 	H 	0.8599	0.241	0.4235	0.034
Mof_C 	C 	0.8403	0.2154	0.7849	-0.027
Mof_H 	H 	0.8468	0.251	0.8664	0.037
Mof_C 	C 	0.51447	0.54323	0.85563	-0.04
Mof_H 	H 	0.52657	0.57433	0.75683	0.037
Mof_C 	C 	0.50697	0.54873	0.11823	-0.044
Mof_H 	H 	0.51347	0.58433	0.19973	0.037
Mof_C 	C 	0.18113	0.87657	0.18897	-0.029
Mof_H 	H 	0.19323	0.90767	0.09017	0.036
Mof_C 	C 	0.17363	0.88207	0.45157	-0.028
Mof_H 	H 	0.18013	0.91767	0.53307	0.04
Mof_C 	C 	0.3621	0.1522	0.5223	-0.033
Mof_H 	H 	0.3811	0.1401	0.4235	0.03
Mof_C 	C 	0.3751	0.1597	0.7849	-0.031
Mof_H 	H 	0.4042	0.1532	0.8664	0.034
Mof_C 	C 	0.02877	0.48553	0.85563	-0.092
Mof_H 	H 	0.04777	0.47343	0.75683	0.047
Mof_C 	C 	0.04177	0.49303	0.11823	-0.095
Mof_H 	H 	0.07087	0.48653	0.19973	0.049
Mof_C 	C 	0.69543	0.81887	0.18897	-0.032
Mof_H 	H 	0.71443	0.80677	0.09017	0.032
Mof_C 	C 	0.70843	0.82637	0.45157	-0.03
Mof_H 	H 	0.73753	0.81987	0.53307	0.035
Mof_C 	C 	0.7901	0.6379	0.5223	-0.031
Mof_H 	H 	0.759	0.6189	0.4235	0.033
Mof_C 	C 	0.7846	0.6249	0.7849	-0.03
Mof_H 	H 	0.749	0.5958	0.8664	0.036
Mof_C 	C 	0.45677	0.97123	0.85563	0.017
Mof_H 	H 	0.42567	0.95223	0.75683	0.025
Mof_C 	C 	0.45127	0.95823	0.11823	0.014
Mof_H 	H 	0.41567	0.92913	0.19973	0.025
Mof_C 	C 	0.12343	0.30457	0.18897	-0.032
Mof_H 	H 	0.09233	0.28557	0.09017	0.027
Mof_C 	C 	0.11793	0.29157	0.45157	-0.03
Mof_H 	H 	0.08233	0.26247	0.53307	0.029
Mof_Fe	Fe	0.66667	0.33333	0.33333	0.617
Mof_Fe	Fe	0.33333	0.66667	0.66667	0.621
Mof_Fe	Fe	-0	0	-0	0.535
Mof_Fe	Fe	0.66667	0.33333	0.83333	0.732
Mof_Fe	Fe	0.33333	0.66667	0.16667	0.729
Mof_Fe	Fe	-1.88964e-33	0	0.5	0.649
Mof_N 	N 	0.74359	0.25641	0.4635	-0.16
Mof_N 	N 	0.71094	0.28906	0.5105	-0.1
Mof_N 	N 	0.70828	0.29172	0.6872	-0.122
Mof_N 	N 	0.73931	0.26069	0.76	-0.158
Mof_C 	C 	0.79812	0.20188	0.6417	-0.018
Mof_C 	C 	0.76087	0.23913	0.6206	0.12
Mof_N 	N 	0.41026	0.58974	0.79683	-0.159
Mof_N 	N 	0.37761	0.62239	0.84383	-0.097
Mof_N 	N 	0.37494	0.62506	0.02053	-0.126
Mof_N 	N 	0.40597	0.59403	0.09333	-0.161
Mof_C 	C 	0.46479	0.53521	0.97503	0.006
Mof_C 	C 	0.42754	0.57246	0.95393	0.12
Mof_N 	N 	0.07692	0.92308	0.13017	-0.16
Mof_N 	N 	0.04427	0.95573	0.17717	-0.091
Mof_N 	N 	0.04161	0.95839	0.35387	-0.11
Mof_N 	N 	0.07264	0.92736	0.42667	-0.158
Mof_C 	C 	0.13145	0.86855	0.30837	-0.018
Mof_C 	C 	0.0942	0.9058	0.28727	0.12
Mof_N 	N 	0.74359	0.48718	0.4635	-0.16
Mof_N 	N 	0.71094	0.42188	0.5105	-0.1
Mof_N 	N 	0.70828	0.41655	0.6872	-0.122
Mof_N 	N 	0.73931	0.47861	0.76	-0.158
Mof_C 	C 	0.79812	0.59624	0.6417	-0.018
Mof_C 	C 	0.76087	0.52174	0.6206	0.121
Mof_N 	N 	0.41026	0.82051	0.79683	-0.165
Mof_N 	N 	0.37761	0.75521	0.84383	-0.097
Mof_N 	N 	0.37494	0.74988	0.02053	-0.126
Mof_N 	N 	0.40597	0.81194	0.09333	-0.166
Mof_C 	C 	0.46479	0.92957	0.97503	-0.071
Mof_C 	C 	0.42754	0.85507	0.95393	0.147
Mof_N 	N 	0.07692	0.15385	0.13017	-0.161
Mof_N 	N 	0.04427	0.08855	0.17717	-0.104
Mof_N 	N 	0.04161	0.08322	0.35387	-0.124
Mof_N 	N 	0.07264	0.14528	0.42667	-0.159
Mof_C 	C 	0.13145	0.26291	0.30837	-0.019
Mof_C 	C 	0.0942	0.18841	0.28727	0.114
Mof_N 	N 	0.51282	0.25641	0.4635	-0.16
Mof_N 	N 	0.57812	0.28906	0.5105	-0.1
Mof_N 	N 	0.58345	0.29172	0.6872	-0.123
Mof_N 	N 	0.52139	0.26069	0.76	-0.158
Mof_C 	C 	0.40376	0.20188	0.6417	-0.017
Mof_C 	C 	0.47826	0.23913	0.6206	0.119
Mof_N 	N 	0.17949	0.58974	0.79683	-0.154
Mof_N 	N 	0.24479	0.62239	0.84383	-0.097
Mof_N 	N 	0.25012	0.62506	0.02053	-0.126
Mof_N 	N 	0.18806	0.59403	0.09333	-0.156
Mof_C 	C 	0.07043	0.53521	0.97503	0.074
Mof_C 	C 	0.14493	0.57246	0.95393	0.097
Mof_N 	N 	0.84615	0.92308	0.13017	-0.159
Mof_N 	N 	0.91145	0.95573	0.17717	-0.081
Mof_N 	N 	0.91678	0.95839	0.35387	-0.099
Mof_N 	N 	0.85472	0.92736	0.42667	-0.158
Mof_C 	C 	0.73709	0.86855	0.30837	-0.017
Mof_C 	C 	0.81159	0.9058	0.28727	0.123
Mof_N 	N 	0.25641	0.74359	0.5365	-0.16
Mof_N 	N 	0.28906	0.71094	0.4895	-0.1
Mof_N 	N 	0.29172	0.70828	0.3128	-0.123
Mof_N 	N 	0.26069	0.73931	0.24	-0.158
Mof_C 	C 	0.20188	0.79812	0.3583	-0.018
Mof_C 	C 	0.23913	0.76087	0.3794	0.119
Mof_N 	N 	0.92308	0.07692	0.86983	-0.16
Mof_N 	N 	0.95573	0.04427	0.82283	-0.088
Mof_N 	N 	0.95839	0.04161	0.64613	-0.111
Mof_N 	N 	0.92736	0.07264	0.57333	-0.158
Mof_C 	C 	0.86855	0.13145	0.69163	-0.017
Mof_C 	C 	0.9058	0.0942	0.71273	0.121
Mof_N 	N 	0.58974	0.41026	0.20317	-0.161
Mof_N 	N 	0.62239	0.37761	0.15617	-0.104
Mof_N 	N 	0.62506	0.37494	0.97947	-0.118
Mof_N 	N 	0.59403	0.40597	0.90667	-0.154
Mof_C 	C 	0.53521	0.46479	0.02497	-0.041
Mof_C 	C 	0.57246	0.42754	0.04607	0.117
Mof_N 	N 	0.48718	0.74359	0.5365	-0.16
Mof_N 	N 	0.42188	0.71094	0.4895	-0.1
Mof_N 	N 	0.41655	0.70828	0.3128	-0.122
Mof_N 	N 	0.47861	0.73931	0.24	-0.158
Mof_C 	C 	0.59624	0.79812	0.3583	-0.018
Mof_C 	C 	0.52174	0.76087	0.3794	0.12
Mof_N 	N 	0.15385	0.07692	0.86983	-0.16
Mof_N 	N 	0.08855	0.04427	0.82283	-0.1
Mof_N 	N 	0.08322	0.04161	0.64613	-0.123
Mof_N 	N 	0.14528	0.07264	0.57333	-0.159
Mof_C 	C 	0.26291	0.13145	0.69163	-0.018
Mof_C 	C 	0.18841	0.0942	0.71273	0.116
Mof_N 	N 	0.82051	0.41026	0.20317	-0.166
Mof_N 	N 	0.75521	0.37761	0.15617	-0.104
Mof_N 	N 	0.74988	0.37494	0.97947	-0.118
Mof_N 	N 	0.81194	0.40597	0.90667	-0.159
Mof_C 	C 	0.92957	0.46479	0.02497	-0.11
Mof_C 	C 	0.85507	0.42754	0.04607	0.141
Mof_N 	N 	0.25641	0.51282	0.5365	-0.16
Mof_N 	N 	0.28906	0.57812	0.4895	-0.1
Mof_N 	N 	0.29172	0.58345	0.3128	-0.123
Mof_N 	N 	0.26069	0.52139	0.24	-0.158
Mof_C 	C 	0.20188	0.40376	0.3583	-0.017
Mof_C 	C 	0.23913	0.47826	0.3794	0.118
Mof_N 	N 	0.92308	0.84615	0.86983	-0.159
Mof_N 	N 	0.95573	0.91145	0.82283	-0.077
Mof_N 	N 	0.95839	0.91678	0.64613	-0.099
Mof_N 	N 	0.92736	0.85472	0.57333	-0.157
Mof_C 	C 	0.86855	0.73709	0.69163	-0.017
Mof_C 	C 	0.9058	0.81159	0.71273	0.125
Mof_N 	N 	0.58974	0.17949	0.20317	-0.155
Mof_N 	N 	0.62239	0.24479	0.15617	-0.105
Mof_N 	N 	0.62506	0.25012	0.97947	-0.119
Mof_N 	N 	0.59403	0.18806	0.90667	-0.148
Mof_C 	C 	0.53521	0.07043	0.02497	0.034
Mof_C 	C 	0.57246	0.14493	0.04607	0.091
Mof_H 	H 	0.08565	0.1713	0.0184	0.092
Mof_H 	H 	0.07815	0.1563	0.544	0.1
Mof_H 	H 	0.75232	0.50463	0.35173	0.097
Mof_H 	H 	0.74482	0.48963	0.87733	0.104
Mof_H 	H 	0.41898	0.83797	0.68507	0.101
Mof_H 	H 	0.41148	0.82297	0.21067	0.105
Mof_H 	H 	0.8287	0.91435	0.0184	0.101
Mof_H 	H 	0.8437	0.92185	0.544	0.11
Mof_H 	H 	0.49537	0.24768	0.35173	0.096
Mof_H 	H 	0.51037	0.25518	0.87733	0.104
Mof_H 	H 	0.16203	0.58102	0.68507	0.095
Mof_H 	H 	0.17703	0.58852	0.21067	0.099
Mof_H 	H 	0.08565	0.91435	0.0184	0.098
Mof_H 	H 	0.07815	0.92185	0.544	0.106
Mof_H 	H 	0.75232	0.24768	0.35173	0.097
Mof_H 	H 	0.74482	0.25518	0.87733	0.104
Mof_H 	H 	0.41898	0.58102	0.68507	0.098
Mof_H 	H 	0.41148	0.58852	0.21067	0.102
Mof_H 	H 	0.1713	0.08565	0.9816	0.099
Mof_H 	H 	0.1563	0.07815	0.456	0.098
Mof_H 	H 	0.83797	0.41898	0.31493	0.101
Mof_H 	H 	0.82297	0.41148	0.78933	0.105
Mof_H 	H 	0.50463	0.75232	0.64827	0.1
Mof_H 	H 	0.48963	0.74482	0.12267	0.101
Mof_H 	H 	0.91435	0.8287	0.9816	0.108
Mof_H 	H 	0.92185	0.8437	0.456	0.109
Mof_H 	H 	0.58102	0.16203	0.31493	0.095
Mof_H 	H 	0.58852	0.17703	0.78933	0.099
Mof_H 	H 	0.24768	0.49537	0.64827	0.099
Mof_H 	H 	0.25518	0.51037	0.12267	0.1
Mof_H 	H 	0.91435	0.08565	0.9816	0.104
Mof_H 	H 	0.92185	0.07815	0.456	0.104
Mof_H 	H 	0.58102	0.41898	0.31493	0.098
Mof_H 	H 	0.58852	0.41148	0.78933	0.103
Mof_H 	H 	0.24768	0.75232	0.64827	0.099
Mof_H 	H 	0.25518	0.74482	0.12267	0.101
_end
