data_functionalizedCrystal
_audit_creation_method	'EQeq! by Chris Wilmer'
_symmetry_space_group_name_H-M	'P1'
_symmetry_Int_Tables_number	1
_symmetry_cell_setting	triclinic
loop_
_symmetry_equiv_pos_as_xyz
  x,y,z
_cell_length_a	9.3195
_cell_length_b	14.2603
_cell_length_c	18.4982
_cell_angle_alpha	105.307
_cell_angle_beta	99.077
_cell_angle_gamma	95.406
loop_
_atom_site_label
_atom_site_type_symbol
_atom_site_fract_x
_atom_site_fract_y
_atom_site_fract_z
_atom_site_charge
Mof_Cd	Cd	0.95105	0.70657	0.31653	0.382
Mof_Cd	Cd	0.82297	0.82311	0.73906	0.444
Mof_B 	B 	0.3085	0.9382	0.6055	0.942
Mof_O 	O 	0.9217	0.8996	0.8778	-0.128
Mof_O 	O 	0.7029	0.8045	0.8411	0.063
Mof_O 	O 	0.0073	0.8116	0.23809	-0.267
Mof_O 	O 	0.8077	0.7016	0.19646	-0.269
Mof_O 	O 	0.6918	0.6808	0.67495	-0.282
Mof_O 	O 	0.775	0.7221	0.5824	-0.276
Mof_N 	N 	0.2269	0.9103	0.66503	-0.314
Mof_N 	N 	0.044	0.8695	0.71924	-0.143
Mof_N 	N 	0.6844	0.9268	0.69889	-0.151
Mof_N 	N 	0.4746	0.9546	0.63906	-0.316
Mof_N 	N 	0.2744	0.8573	0.52853	-0.319
Mof_N 	N 	0.1476	0.7633	0.4164	-0.156
Mof_N 	N 	0.9988	0.4306	0.1581	-0.192
Mof_N 	N 	0.0331	0.5694	0.2483	-0.144
Mof_N 	N 	0.1739	0.1766	0.61875	-0.143
Mof_N 	N 	0.26	0.0338	0.59344	-0.318
Mof_C 	C 	0.0884	0.8652	0.6543	0.143
Mof_C 	C 	0.2705	0.9467	0.7436	0.069
Mof_C 	C 	0.1591	0.9212	0.7758	-0.052
Mof_C 	C 	0.5447	0.8949	0.6729	0.148
Mof_C 	C 	0.7079	0.0136	0.6817	-0.044
Mof_C 	C 	0.5802	0.032	0.6453	0.067
Mof_C 	C 	0.1535	0.8407	0.4741	0.154
Mof_C 	C 	0.2766	0.7286	0.4344	-0.022
Mof_H 	H 	0.3062	0.6734	0.4042	0.04
Mof_C 	C 	0.3545	0.7851	0.5018	0.054
Mof_C 	C 	0.95	0.5153	0.1839	0.107
Mof_C 	C 	0.1181	0.4284	0.207	0.031
Mof_C 	C 	0.1393	0.5137	0.2623	-0.008
Mof_C 	C 	0.1916	0.0965	0.6403	0.137
Mof_C 	C 	0.2324	0.1657	0.5543	-0.062
Mof_C 	C 	0.2839	0.0795	0.5377	0.077
Mof_C 	C 	0.8318	0.8324	0.889	0.388
Mof_C 	C 	0.8438	0.8202	0.9676	-0.116
Mof_C 	C 	0.9529	0.875	0.0263	0.025
Mof_C 	C 	0.9694	0.8597	0.0975	-0.063
Mof_C 	C 	0.8776	0.7882	0.1111	-0.018
Mof_C 	C 	0.7676	0.7339	0.0524	-0.083
Mof_C 	C 	0.7494	0.7499	0.9811	0.038
Mof_C 	C 	0.8987	0.7663	0.1867	0.27
Mof_C 	C 	0.6961	0.6677	0.6059	0.305
Mof_C 	C 	0.5957	0.5799	0.551	-0.057
Mof_C 	C 	0.5158	0.5137	0.577	-0.038
Mof_C 	C 	0.5786	0.5659	0.473	-0.021
Mof_H 	H 	0.363	0.981	0.768	0.002
Mof_H 	H 	0.163	0.087	0.683	-0.015
Mof_H 	H 	0.505	0.836	0.675	-0.027
Mof_H 	H 	0.528	0.517	0.626	0.059
Mof_H 	H 	0.555	0.085	0.626	0.002
Mof_H 	H 	0.029	0.834	0.608	-0.017
Mof_H 	H 	0.224	0.209	0.53	0.072
Mof_H 	H 	0.709	0.687	0.062	0.078
Mof_H 	H 	0.086	0.88	0.477	-0.034
Mof_H 	H 	0.153	0.931	0.822	0.075
Mof_H 	H 	0.951	0.387	0.114	0.12
Mof_H 	H 	0.324	0.048	0.498	-0.007
Mof_H 	H 	0.175	0.383	0.203	0.052
Mof_H 	H 	0.795	0.048	0.694	0.067
Mof_H 	H 	0.04	0.9	0.139	0.069
Mof_H 	H 	0.667	0.709	0.942	0.035
Mof_H 	H 	0.014	0.925	0.017	0.04
Mof_H 	H 	0.448	0.785	0.535	0.008
Mof_H 	H 	0.841	0.535	0.158	0.019
Mof_H 	H 	0.185	0.533	0.31	0.043
Mof_H 	H 	0.634	0.611	0.455	0.044
Mof_O 	O 	0.9385	0.8521	0.8642	-0.196
Mof_O 	O 	0.748	0.7754	0.8395	-0.368
Mof_Cd	Cd	0.04895	0.29343	0.68348	0.381
Mof_Cd	Cd	0.17703	0.17689	0.26094	0.443
Mof_B 	B 	0.6915	0.0618	0.3945	0.941
Mof_O 	O 	0.0783	0.1004	0.1222	-0.129
Mof_O 	O 	0.2971	0.1955	0.1589	0.062
Mof_O 	O 	0.9927	0.1884	0.76191	-0.268
Mof_O 	O 	0.1923	0.2984	0.80354	-0.269
Mof_O 	O 	0.3082	0.3192	0.32505	-0.282
Mof_O 	O 	0.225	0.2779	0.4176	-0.276
Mof_N 	N 	0.7731	0.0897	0.33497	-0.314
Mof_N 	N 	0.956	0.1305	0.28076	-0.143
Mof_N 	N 	0.3156	0.0732	0.30111	-0.151
Mof_N 	N 	0.5254	0.0454	0.36094	-0.316
Mof_N 	N 	0.7256	0.1427	0.47147	-0.319
Mof_N 	N 	0.8524	0.2367	0.5836	-0.156
Mof_N 	N 	0.0012	0.5694	0.8419	-0.192
Mof_N 	N 	0.9669	0.4306	0.7517	-0.144
Mof_N 	N 	0.8261	0.8234	0.38125	-0.143
Mof_N 	N 	0.74	0.9662	0.40656	-0.318
Mof_C 	C 	0.9116	0.1348	0.3457	0.143
Mof_C 	C 	0.7295	0.0533	0.2564	0.069
Mof_C 	C 	0.8409	0.0788	0.2242	-0.052
Mof_C 	C 	0.4553	0.1051	0.3271	0.148
Mof_C 	C 	0.2921	0.9864	0.3183	-0.044
Mof_C 	C 	0.4198	0.968	0.3547	0.067
Mof_C 	C 	0.8465	0.1593	0.5259	0.154
Mof_C 	C 	0.7234	0.2714	0.5656	-0.022
Mof_H 	H 	0.6938	0.3266	0.5958	0.04
Mof_C 	C 	0.6455	0.2149	0.4982	0.054
Mof_C 	C 	0.05	0.4847	0.8161	0.107
Mof_C 	C 	0.8819	0.5716	0.793	0.031
Mof_C 	C 	0.8607	0.4863	0.7377	-0.008
Mof_C 	C 	0.8084	0.9035	0.3597	0.137
Mof_C 	C 	0.7676	0.8343	0.4457	-0.062
Mof_C 	C 	0.7161	0.9205	0.4623	0.077
Mof_C 	C 	0.1682	0.1676	0.111	0.388
Mof_C 	C 	0.1562	0.1798	0.0324	-0.116
Mof_C 	C 	0.0471	0.125	0.9737	0.025
Mof_C 	C 	0.0306	0.1403	0.9025	-0.063
Mof_C 	C 	0.1224	0.2118	0.8889	-0.018
Mof_C 	C 	0.2324	0.2661	0.9476	-0.083
Mof_C 	C 	0.2506	0.2501	0.0189	0.038
Mof_C 	C 	0.1013	0.2337	0.8133	0.27
Mof_C 	C 	0.3039	0.3323	0.3941	0.305
Mof_C 	C 	0.4043	0.4201	0.449	-0.057
Mof_C 	C 	0.4842	0.4863	0.423	-0.038
Mof_C 	C 	0.4214	0.4341	0.527	-0.021
Mof_H 	H 	0.637	0.019	0.232	0.002
Mof_H 	H 	0.837	0.913	0.317	-0.015
Mof_H 	H 	0.495	0.164	0.325	-0.027
Mof_H 	H 	0.472	0.483	0.374	0.059
Mof_H 	H 	0.445	0.915	0.374	0.002
Mof_H 	H 	0.971	0.166	0.392	-0.017
Mof_H 	H 	0.776	0.791	0.47	0.072
Mof_H 	H 	0.291	0.313	0.938	0.078
Mof_H 	H 	0.914	0.12	0.523	-0.034
Mof_H 	H 	0.847	0.069	0.178	0.075
Mof_H 	H 	0.049	0.613	0.886	0.12
Mof_H 	H 	0.676	0.952	0.502	-0.007
Mof_H 	H 	0.825	0.617	0.797	0.052
Mof_H 	H 	0.205	0.952	0.306	0.067
Mof_H 	H 	0.96	0.1	0.861	0.069
Mof_H 	H 	0.333	0.291	0.058	0.035
Mof_H 	H 	0.986	0.075	0.983	0.04
Mof_H 	H 	0.552	0.215	0.465	0.008
Mof_H 	H 	0.159	0.465	0.842	0.019
Mof_H 	H 	0.815	0.467	0.69	0.043
Mof_H 	H 	0.366	0.389	0.545	0.044
Mof_O 	O 	0.0615	0.1479	0.1358	-0.196
Mof_O 	O 	0.252	0.2246	0.1605	-0.368
_end
