data_functionalizedCrystal
_audit_creation_method	'EQeq! by Chris Wilmer'
_symmetry_space_group_name_H-M	'P1'
_symmetry_Int_Tables_number	1
_symmetry_cell_setting	triclinic
loop_
_symmetry_equiv_pos_as_xyz
  x,y,z
_cell_length_a	14.914
_cell_length_b	23.507
_cell_length_c	9.261
_cell_angle_alpha	90
_cell_angle_beta	90
_cell_angle_gamma	90
loop_
_atom_site_label
_atom_site_type_symbol
_atom_site_fract_x
_atom_site_fract_y
_atom_site_fract_z
_atom_site_charge
Mof_Fe	Fe	0.07694	0.44385	0.55071	1.004
Mof_Cl	Cl	0.18137	0.5042	0.6446	-0.306
Mof_O 	O 	0.9831	0.37976	0.4956	-0.266
Mof_O 	O 	0.017	0.43018	0.7459	-0.235
Mof_O 	O 	0.9126	0.37596	0.8529	-0.227
Mof_O 	O 	0.8832	0.3228	0.6033	-0.261
Mof_C 	C 	0.9399	0.36218	0.6028	0.264
Mof_C 	C 	0.9573	0.39225	0.7471	0.233
Mof_Fe	Fe	0.07694	0.94385	0.05071	0.856
Mof_Cl	Cl	0.18137	0.0042	0.1446	-0.323
Mof_O 	O 	0.9831	0.87976	0.9956	-0.15
Mof_O 	O 	0.017	0.93018	0.2459	-0.254
Mof_O 	O 	0.9126	0.87596	0.3529	-0.252
Mof_O 	O 	0.8832	0.8228	0.1033	-0.255
Mof_C 	C 	0.9399	0.86218	0.1028	0.154
Mof_C 	C 	0.9573	0.89225	0.2471	0.26
Mof_Fe	Fe	0.57694	0.44385	0.05071	0.867
Mof_Cl	Cl	0.68137	0.5042	0.1446	-0.343
Mof_O 	O 	0.4831	0.37976	0.9956	-0.134
Mof_O 	O 	0.517	0.43018	0.2459	-0.269
Mof_O 	O 	0.4126	0.37596	0.3529	-0.252
Mof_O 	O 	0.3832	0.3228	0.1033	-0.25
Mof_C 	C 	0.4399	0.36218	0.1028	0.147
Mof_C 	C 	0.4573	0.39225	0.2471	0.283
Mof_Fe	Fe	0.57694	0.94385	0.55071	0.973
Mof_Cl	Cl	0.68137	0.0042	0.6446	-0.293
Mof_O 	O 	0.4831	0.87976	0.4956	-0.253
Mof_O 	O 	0.517	0.93018	0.7459	-0.26
Mof_O 	O 	0.4126	0.87596	0.8529	-0.233
Mof_O 	O 	0.3832	0.8228	0.6033	-0.257
Mof_C 	C 	0.4399	0.86218	0.6028	0.258
Mof_C 	C 	0.4573	0.89225	0.7471	0.259
Mof_Fe	Fe	0.92306	0.55615	0.55071	0.975
Mof_Cl	Cl	0.81863	0.4958	0.6446	-0.31
Mof_O 	O 	0.0169	0.62024	0.4956	-0.239
Mof_O 	O 	0.983	0.56982	0.7459	-0.277
Mof_O 	O 	0.0874	0.62404	0.8529	-0.233
Mof_O 	O 	0.1168	0.6772	0.6033	-0.253
Mof_C 	C 	0.0601	0.63782	0.6028	0.253
Mof_C 	C 	0.0427	0.60775	0.7471	0.282
Mof_Fe	Fe	0.92306	0.05615	0.05071	0.86
Mof_Cl	Cl	0.81863	0.9958	0.1446	-0.359
Mof_O 	O 	0.0169	0.12024	0.9956	-0.122
Mof_O 	O 	0.983	0.06982	0.2459	-0.285
Mof_O 	O 	0.0874	0.12404	0.3529	-0.253
Mof_O 	O 	0.1168	0.1772	0.1033	-0.246
Mof_C 	C 	0.0601	0.13782	0.1028	0.143
Mof_C 	C 	0.0427	0.10775	0.2471	0.306
Mof_Fe	Fe	0.42306	0.55615	0.05071	0.868
Mof_Cl	Cl	0.31863	0.4958	0.1446	-0.34
Mof_O 	O 	0.5169	0.62024	0.9956	-0.134
Mof_O 	O 	0.483	0.56982	0.2459	-0.269
Mof_O 	O 	0.5874	0.62404	0.3529	-0.252
Mof_O 	O 	0.6168	0.6772	0.1033	-0.251
Mof_C 	C 	0.5601	0.63782	0.1028	0.147
Mof_C 	C 	0.5427	0.60775	0.2471	0.283
Mof_Fe	Fe	0.42306	0.05615	0.55071	1.005
Mof_Cl	Cl	0.31863	0.9958	0.6446	-0.326
Mof_O 	O 	0.5169	0.12024	0.4956	-0.253
Mof_O 	O 	0.483	0.06982	0.7459	-0.252
Mof_O 	O 	0.5874	0.12404	0.8529	-0.228
Mof_O 	O 	0.6168	0.1772	0.6033	-0.257
Mof_C 	C 	0.5601	0.13782	0.6028	0.259
Mof_C 	C 	0.5427	0.10775	0.7471	0.257
Mof_Fe	Fe	0.32694	0.80615	0.80071	0.998
Mof_Cl	Cl	0.43137	0.7458	0.8946	-0.286
Mof_O 	O 	0.2331	0.87024	0.7456	-0.238
Mof_O 	O 	0.267	0.81982	0.9959	-0.273
Mof_O 	O 	0.1626	0.87404	0.1029	-0.325
Mof_O 	O 	0.1332	0.9272	0.8533	-0.208
Mof_C 	C 	0.1899	0.88782	0.8528	0.229
Mof_C 	C 	0.2073	0.85775	0.9971	0.368
Mof_Fe	Fe	0.32694	0.30615	0.30071	0.989
Mof_Cl	Cl	0.43137	0.2458	0.3946	-0.327
Mof_O 	O 	0.2331	0.37024	0.2456	-0.257
Mof_O 	O 	0.267	0.31982	0.4959	-0.262
Mof_O 	O 	0.1626	0.37404	0.6029	-0.236
Mof_O 	O 	0.1332	0.4272	0.3533	-0.26
Mof_C 	C 	0.1899	0.38782	0.3528	0.258
Mof_C 	C 	0.2073	0.35775	0.4971	0.258
Mof_Fe	Fe	0.82694	0.80615	0.30071	0.988
Mof_Cl	Cl	0.93137	0.7458	0.3946	-0.338
Mof_O 	O 	0.7331	0.87024	0.2456	-0.259
Mof_O 	O 	0.767	0.81982	0.4959	-0.264
Mof_O 	O 	0.6626	0.87404	0.6029	-0.24
Mof_O 	O 	0.6332	0.9272	0.3533	-0.266
Mof_C 	C 	0.6899	0.88782	0.3528	0.258
Mof_C 	C 	0.7073	0.85775	0.4971	0.256
Mof_Fe	Fe	0.82694	0.30615	0.80071	0.997
Mof_Cl	Cl	0.93137	0.2458	0.8946	-0.297
Mof_O 	O 	0.7331	0.37024	0.7456	-0.238
Mof_O 	O 	0.767	0.31982	0.9959	-0.274
Mof_O 	O 	0.6626	0.37404	0.1029	-0.328
Mof_O 	O 	0.6332	0.4272	0.8533	-0.206
Mof_C 	C 	0.6899	0.38782	0.8528	0.228
Mof_C 	C 	0.7073	0.35775	0.9971	0.369
Mof_Fe	Fe	0.17306	0.69385	0.80071	0.999
Mof_Cl	Cl	0.06863	0.7542	0.8946	-0.276
Mof_O 	O 	0.2669	0.62976	0.7456	-0.238
Mof_O 	O 	0.233	0.68018	0.9959	-0.272
Mof_O 	O 	0.3374	0.62596	0.1029	-0.327
Mof_O 	O 	0.3668	0.5728	0.8533	-0.206
Mof_C 	C 	0.3101	0.61218	0.8528	0.229
Mof_C 	C 	0.2927	0.64225	0.9971	0.37
Mof_Fe	Fe	0.17306	0.19385	0.30071	0.99
Mof_Cl	Cl	0.06863	0.2542	0.3946	-0.316
Mof_O 	O 	0.2669	0.12976	0.2456	-0.257
Mof_O 	O 	0.233	0.18018	0.4959	-0.26
Mof_O 	O 	0.3374	0.12596	0.6029	-0.237
Mof_O 	O 	0.3668	0.0728	0.3533	-0.26
Mof_C 	C 	0.3101	0.11218	0.3528	0.259
Mof_C 	C 	0.2927	0.14225	0.4971	0.259
Mof_Fe	Fe	0.67306	0.69385	0.30071	0.989
Mof_Cl	Cl	0.56863	0.7542	0.3946	-0.327
Mof_O 	O 	0.7669	0.62976	0.2456	-0.259
Mof_O 	O 	0.733	0.68018	0.4959	-0.263
Mof_O 	O 	0.8374	0.62596	0.6029	-0.24
Mof_O 	O 	0.8668	0.5728	0.3533	-0.266
Mof_C 	C 	0.8101	0.61218	0.3528	0.258
Mof_C 	C 	0.7927	0.64225	0.4971	0.257
Mof_Fe	Fe	0.67306	0.19385	0.80071	0.998
Mof_Cl	Cl	0.56863	0.2542	0.8946	-0.285
Mof_O 	O 	0.7669	0.12976	0.7456	-0.238
Mof_O 	O 	0.733	0.18018	0.9959	-0.273
Mof_O 	O 	0.8374	0.12596	0.1029	-0.327
Mof_O 	O 	0.8668	0.0728	0.8533	-0.208
Mof_C 	C 	0.8101	0.11218	0.8528	0.229
Mof_C 	C 	0.7927	0.14225	0.9971	0.368
Mof_O 	O 	-1.44551e-32	0.5	0.4703	-0.35
Mof_O 	O 	2.25908e-33	0	0.9703	-0.242
Mof_O 	O 	0.5	0.5	0.9703	-0.266
Mof_O 	O 	0.5	0	0.4703	-0.351
Mof_O 	O 	0.25	0.75	0.7203	-0.359
Mof_O 	O 	0.25	0.25	0.2203	-0.369
Mof_O 	O 	0.75	0.75	0.2203	-0.371
Mof_O 	O 	0.75	0.25	0.7203	-0.36
_end
