# CIF file generated by openbabel 3.1.0, see https://openbabel.org
data_I
_chemical_name_common 'FARHIR_ion_b'
_cell_length_a 13.5107
_cell_length_b 23.38
_cell_length_c 5.8727
_cell_angle_alpha 90
_cell_angle_beta 90
_cell_angle_gamma 90
_space_group_name_H-M_alt 'P 1'
_space_group_name_Hall 'P 1'
loop_
    _symmetry_equiv_pos_as_xyz
    x,y,z
loop_
    _atom_site_label
    _atom_site_type_symbol
    _atom_site_fract_x
    _atom_site_fract_y
    _atom_site_fract_z
    _atom_site_occupancy
    O1       O        0.62800    0.67910    0.40900    1.000
    O2       O        0.61890    0.65920    0.77480    1.000
    C4       C        0.59350    0.65260    0.57660    1.000
    C5       C        0.51060    0.61110    0.52780    1.000
    C6       C        0.47810    0.57340    0.69160    1.000
    H7       H        0.50960    0.57210    0.83230    1.000
    C8       C        0.39860    0.53720    0.64880    1.000
    H9       H        0.37650    0.51230    0.76100    1.000
    C10      C        0.35350    0.53850    0.44200    1.000
    C11      C        0.38490    0.57560    0.26910    1.000
    H12      H        0.35300    0.57650    0.12880    1.000
    C13      C        0.46500    0.61080    0.31380    1.000
    H14      H        0.48890    0.63470    0.19980    1.000
    O15      O        0.87200    0.82090    0.40900    1.000
    O16      O        0.88110    0.84080    0.77480    1.000
    C18      C        0.90650    0.84740    0.57660    1.000
    C19      C        0.98940    0.88890    0.52780    1.000
    C20      C        0.02190    0.92660    0.69160    1.000
    H21      H        0.99040    0.92790    0.83230    1.000
    C22      C        0.10140    0.96280    0.64880    1.000
    H23      H        0.12350    0.98770    0.76100    1.000
    C24      C        0.14650    0.96150    0.44200    1.000
    C25      C        0.11510    0.92440    0.26910    1.000
    H26      H        0.14700    0.92350    0.12880    1.000
    C27      C        0.03500    0.88920    0.31380    1.000
    H28      H        0.01110    0.86530    0.19980    1.000
    O29      O        0.37200    0.17910    0.59100    1.000
    O30      O        0.38110    0.15920    0.22520    1.000
    C32      C        0.40650    0.15260    0.42340    1.000
    C33      C        0.48940    0.11110    0.47220    1.000
    C34      C        0.52190    0.07340    0.30840    1.000
    H35      H        0.49040    0.07210    0.16770    1.000
    C36      C        0.60140    0.03720    0.35120    1.000
    H37      H        0.62350    0.01230    0.23900    1.000
    C38      C        0.64650    0.03850    0.55800    1.000
    C39      C        0.61510    0.07560    0.73090    1.000
    H40      H        0.64700    0.07650    0.87120    1.000
    C41      C        0.53500    0.11080    0.68620    1.000
    H42      H        0.51110    0.13470    0.80020    1.000
    O43      O        0.12800    0.32090    0.59100    1.000
    O44      O        0.11890    0.34080    0.22520    1.000
    C46      C        0.09350    0.34740    0.42340    1.000
    C47      C        0.01060    0.38890    0.47220    1.000
    C48      C        0.97810    0.42660    0.30840    1.000
    H49      H        0.00960    0.42790    0.16770    1.000
    C50      C        0.89860    0.46280    0.35120    1.000
    H51      H        0.87650    0.48770    0.23900    1.000
    C52      C        0.85350    0.46150    0.55800    1.000
    C53      C        0.88490    0.42440    0.73090    1.000
    H54      H        0.85300    0.42350    0.87120    1.000
    C55      C        0.96500    0.38920    0.68620    1.000
    H56      H        0.98890    0.36530    0.80020    1.000
    O57      O        0.37200    0.32090    0.59100    1.000
    O58      O        0.38110    0.34080    0.22520    1.000
    C60      C        0.40650    0.34740    0.42340    1.000
    C61      C        0.48940    0.38890    0.47220    1.000
    C62      C        0.52190    0.42660    0.30840    1.000
    H63      H        0.49040    0.42790    0.16770    1.000
    C64      C        0.60140    0.46280    0.35120    1.000
    H65      H        0.62350    0.48770    0.23900    1.000
    C66      C        0.64650    0.46150    0.55800    1.000
    C67      C        0.61510    0.42440    0.73090    1.000
    H68      H        0.64700    0.42350    0.87120    1.000
    C69      C        0.53500    0.38920    0.68620    1.000
    H70      H        0.51110    0.36530    0.80020    1.000
    O71      O        0.12800    0.17910    0.59100    1.000
    O72      O        0.11890    0.15920    0.22520    1.000
    C74      C        0.09350    0.15260    0.42340    1.000
    C75      C        0.01060    0.11110    0.47220    1.000
    C76      C        0.97810    0.07340    0.30840    1.000
    H77      H        0.00960    0.07210    0.16770    1.000
    C78      C        0.89860    0.03720    0.35120    1.000
    H79      H        0.87650    0.01230    0.23900    1.000
    C80      C        0.85350    0.03850    0.55800    1.000
    C81      C        0.88490    0.07560    0.73090    1.000
    H82      H        0.85300    0.07650    0.87120    1.000
    C83      C        0.96500    0.11080    0.68620    1.000
    H84      H        0.98890    0.13470    0.80020    1.000
    O85      O        0.62800    0.82090    0.40900    1.000
    O86      O        0.61890    0.84080    0.77480    1.000
    C88      C        0.59350    0.84740    0.57660    1.000
    C89      C        0.51060    0.88890    0.52780    1.000
    C90      C        0.47810    0.92660    0.69160    1.000
    H91      H        0.50960    0.92790    0.83230    1.000
    C92      C        0.39860    0.96280    0.64880    1.000
    H93      H        0.37650    0.98770    0.76100    1.000
    C94      C        0.35350    0.96150    0.44200    1.000
    C95      C        0.38490    0.92440    0.26910    1.000
    H96      H        0.35300    0.92350    0.12880    1.000
    C97      C        0.46500    0.88920    0.31380    1.000
    H98      H        0.48890    0.86530    0.19980    1.000
    O99      O        0.87200    0.67910    0.40900    1.000
    O100     O        0.88110    0.65920    0.77480    1.000
    C102     C        0.90650    0.65260    0.57660    1.000
    C103     C        0.98940    0.61110    0.52780    1.000
    C104     C        0.02190    0.57340    0.69160    1.000
    H105     H        0.99040    0.57210    0.83230    1.000
    C106     C        0.10140    0.53720    0.64880    1.000
    H107     H        0.12350    0.51230    0.76100    1.000
    C108     C        0.14650    0.53850    0.44200    1.000
    C109     C        0.11510    0.57560    0.26910    1.000
    H110     H        0.14700    0.57650    0.12880    1.000
    C111     C        0.03500    0.61080    0.31380    1.000
    H112     H        0.01110    0.63470    0.19980    1.000
    Pb113    Pb       0.75000    0.75000    0.66987    1.000
    O114     O        0.75000    0.75000    0.09070    1.000
    Pb115    Pb       0.25000    0.25000    0.33013    1.000
    O116     O        0.25000    0.25000    0.90930    1.000
    K117     K        0.25000    0.37312    0.90820    1.000
    S118     S        0.25000    0.49411    0.38730    1.000
    O119     O        0.25000    0.48070    0.14640    1.000
    O120     O        0.25000    0.44910    0.55370    1.000
    K122     K        0.25000    0.12688    0.90820    1.000
    S123     S        0.25000    0.00589    0.38730    1.000
    O124     O        0.25000    0.01930    0.14640    1.000
    O125     O        0.25000    0.05090    0.55370    1.000
    K127     K        0.75000    0.87312    0.09180    1.000
    S128     S        0.75000    0.99411    0.61270    1.000
    O129     O        0.75000    0.98070    0.85360    1.000
    O130     O        0.75000    0.94910    0.44630    1.000
    K132     K        0.75000    0.62688    0.09180    1.000
    S133     S        0.75000    0.50589    0.61270    1.000
    O134     O        0.75000    0.51930    0.85360    1.000
    O135     O        0.75000    0.55090    0.44630    1.000
