data_functionalizedCrystal
_audit_creation_method	'EQeq! by Chris Wilmer'
_symmetry_space_group_name_H-M	'P1'
_symmetry_Int_Tables_number	1
_symmetry_cell_setting	triclinic
loop_
_symmetry_equiv_pos_as_xyz
  x,y,z
_cell_length_a	7.4653
_cell_length_b	7.4653
_cell_length_c	12.4142
_cell_angle_alpha	81.7257
_cell_angle_beta	81.7257
_cell_angle_gamma	64.273
loop_
_atom_site_label
_atom_site_type_symbol
_atom_site_fract_x
_atom_site_fract_y
_atom_site_fract_z
_atom_site_charge
Mof_Zn	Zn	0.12315	0.87685	0.25	1.142
Mof_Zn	Zn	0.87685	0.12315	0.75	1.146
Mof_Ni	Ni	-0	0.5	-0	0.954
Mof_Ni	Ni	0.5	0	0.5	0.989
Mof_C 	C 	0.0404	0.2704	0.09398	-0.387
Mof_C 	C 	0.0765	0.6077	0.1021	-0.362
Mof_C 	C 	0.7296	0.9596	0.40602	-0.196
Mof_C 	C 	0.3923	0.9235	0.3979	-0.219
Mof_C 	C 	0.9596	0.7296	0.90602	-0.136
Mof_C 	C 	0.9235	0.3923	0.8979	-0.166
Mof_C 	C 	0.2704	0.0404	0.59398	-0.349
Mof_C 	C 	0.6077	0.0765	0.6021	-0.328
Mof_N 	N 	0.06726	0.12646	0.15003	-0.301
Mof_N 	N 	0.12315	0.67895	0.16178	-0.27
Mof_N 	N 	0.87354	0.93274	0.34997	-0.213
Mof_N 	N 	0.32105	0.87685	0.33822	-0.274
Mof_N 	N 	0.93274	0.87354	0.84997	-0.203
Mof_N 	N 	0.87685	0.32105	0.83822	-0.274
Mof_N 	N 	0.12646	0.06726	0.65003	-0.288
Mof_N 	N 	0.67895	0.12315	0.66178	-0.265
_end
