# CIF file generated by openbabel 3.1.0, see https://openbabel.org
data_I
_chemical_name_common 'image0'
_cell_length_a 17.398
_cell_length_b 17.398
_cell_length_c 8.0808
_cell_angle_alpha 90
_cell_angle_beta 90
_cell_angle_gamma 90
_space_group_name_H-M_alt 'P 1'
_space_group_name_Hall 'P 1'
loop_
    _symmetry_equiv_pos_as_xyz
    x,y,z
loop_
    _atom_site_label
    _atom_site_type_symbol
    _atom_site_fract_x
    _atom_site_fract_y
    _atom_site_fract_z
    _atom_site_occupancy
    N1       N        0.90690    0.99880    0.15620    1.000
    N2       N        0.59170    0.00270    0.10130    1.000
    C1       C        0.90580    0.94720    0.27530    1.000
    H1       H        0.93820    0.90480    0.26730    1.000
    C2       C        0.85890    0.95350    0.41030    1.000
    H2       H        0.86530    0.92050    0.49970    1.000
    C3       C        0.80010    0.01050    0.41460    1.000
    C4       C        0.80480    0.06240    0.28510    1.000
    H3       H        0.77110    0.10380    0.28210    1.000
    C5       C        0.85820    0.05420    0.16070    1.000
    H4       H        0.85900    0.09040    0.07610    1.000
    C6       C        0.74610    0.02110    0.54970    1.000
    H5       H        0.71190    0.06210    0.54200    1.000
    C7       C        0.74180    0.97810    0.67970    1.000
    H6       H        0.77180    0.93390    0.67680    1.000
    C8       C        0.69640    0.98870    0.83140    1.000
    C9       C        0.69610    0.93630    0.95710    1.000
    H7       H        0.72920    0.89430    0.95520    1.000
    C10      C        0.64620    0.94690    0.08570    1.000
    H8       H        0.64990    0.91210    0.17260    1.000
    C11      C        0.60130    0.05590    0.98500    1.000
    H9       H        0.57080    0.09970    0.99110    1.000
    C12      C        0.65300    0.05120    0.85470    1.000
    H10      H        0.65750    0.09240    0.78200    1.000
    N3       N        0.40690    0.49880    0.65620    1.000
    N4       N        0.09170    0.50270    0.60130    1.000
    C13      C        0.40580    0.44720    0.77530    1.000
    H11      H        0.43820    0.40480    0.76730    1.000
    C14      C        0.35890    0.45350    0.91030    1.000
    H12      H        0.36530    0.42050    0.99970    1.000
    C15      C        0.30010    0.51050    0.91460    1.000
    C16      C        0.30480    0.56240    0.78510    1.000
    H13      H        0.27110    0.60380    0.78210    1.000
    C17      C        0.35820    0.55420    0.66070    1.000
    H14      H        0.35900    0.59040    0.57610    1.000
    C18      C        0.24610    0.52110    0.04970    1.000
    H15      H        0.21190    0.56210    0.04200    1.000
    C19      C        0.24180    0.47810    0.17970    1.000
    H16      H        0.27180    0.43390    0.17680    1.000
    C20      C        0.19640    0.48870    0.33140    1.000
    C21      C        0.19610    0.43630    0.45710    1.000
    H17      H        0.22920    0.39430    0.45520    1.000
    C22      C        0.14620    0.44690    0.58570    1.000
    H18      H        0.14990    0.41210    0.67260    1.000
    C23      C        0.10130    0.55590    0.48500    1.000
    H19      H        0.07080    0.59970    0.49110    1.000
    C24      C        0.15300    0.55120    0.35470    1.000
    H20      H        0.15750    0.59240    0.28200    1.000
    N5       N        0.09310    0.00120    0.15620    1.000
    N6       N        0.40830    0.99730    0.10130    1.000
    C25      C        0.09420    0.05280    0.27530    1.000
    H21      H        0.06180    0.09520    0.26730    1.000
    C26      C        0.14110    0.04650    0.41030    1.000
    H22      H        0.13470    0.07950    0.49970    1.000
    C27      C        0.19990    0.98950    0.41460    1.000
    C28      C        0.19520    0.93760    0.28510    1.000
    H23      H        0.22890    0.89620    0.28210    1.000
    C29      C        0.14180    0.94580    0.16070    1.000
    H24      H        0.14100    0.90960    0.07610    1.000
    C30      C        0.25390    0.97890    0.54970    1.000
    H25      H        0.28810    0.93790    0.54200    1.000
    C31      C        0.25820    0.02190    0.67970    1.000
    H26      H        0.22820    0.06610    0.67680    1.000
    C32      C        0.30360    0.01130    0.83140    1.000
    C33      C        0.30390    0.06370    0.95710    1.000
    H27      H        0.27080    0.10570    0.95520    1.000
    C34      C        0.35380    0.05310    0.08570    1.000
    H28      H        0.35010    0.08790    0.17260    1.000
    C35      C        0.39870    0.94410    0.98500    1.000
    H29      H        0.42920    0.90030    0.99110    1.000
    C36      C        0.34700    0.94880    0.85470    1.000
    H30      H        0.34250    0.90760    0.78200    1.000
    N7       N        0.59310    0.50120    0.65620    1.000
    N8       N        0.90830    0.49730    0.60130    1.000
    C37      C        0.59420    0.55280    0.77530    1.000
    H31      H        0.56180    0.59520    0.76730    1.000
    C38      C        0.64110    0.54650    0.91030    1.000
    H32      H        0.63470    0.57950    0.99970    1.000
    C39      C        0.69990    0.48950    0.91460    1.000
    C40      C        0.69520    0.43760    0.78510    1.000
    H33      H        0.72890    0.39620    0.78210    1.000
    C41      C        0.64180    0.44580    0.66070    1.000
    H34      H        0.64100    0.40960    0.57610    1.000
    C42      C        0.75390    0.47890    0.04970    1.000
    H35      H        0.78810    0.43790    0.04200    1.000
    C43      C        0.75820    0.52190    0.17970    1.000
    H36      H        0.72820    0.56610    0.17680    1.000
    C44      C        0.80360    0.51130    0.33140    1.000
    C45      C        0.80390    0.56370    0.45710    1.000
    H37      H        0.77080    0.60570    0.45520    1.000
    C46      C        0.85380    0.55310    0.58570    1.000
    H38      H        0.85010    0.58790    0.67260    1.000
    C47      C        0.89870    0.44410    0.48500    1.000
    H39      H        0.92920    0.40030    0.49110    1.000
    C48      C        0.84700    0.44880    0.35470    1.000
    H40      H        0.84250    0.40760    0.28200    1.000
    N9       N        0.99880    0.09310    0.84380    1.000
    N10      N        0.00270    0.40830    0.89870    1.000
    C49      C        0.94720    0.09420    0.72470    1.000
    H41      H        0.90480    0.06180    0.73270    1.000
    C50      C        0.95350    0.14110    0.58970    1.000
    H42      H        0.92050    0.13470    0.50030    1.000
    C51      C        0.01050    0.19990    0.58540    1.000
    C52      C        0.06240    0.19520    0.71490    1.000
    H43      H        0.10380    0.22890    0.71790    1.000
    C53      C        0.05420    0.14180    0.83930    1.000
    H44      H        0.09040    0.14100    0.92390    1.000
    C54      C        0.02110    0.25390    0.45030    1.000
    H45      H        0.06210    0.28810    0.45800    1.000
    C55      C        0.97810    0.25820    0.32030    1.000
    H46      H        0.93390    0.22820    0.32320    1.000
    C56      C        0.98870    0.30360    0.16860    1.000
    C57      C        0.93630    0.30390    0.04290    1.000
    H47      H        0.89430    0.27080    0.04480    1.000
    C58      C        0.94690    0.35380    0.91430    1.000
    H48      H        0.91210    0.35010    0.82740    1.000
    C59      C        0.05590    0.39870    0.01500    1.000
    H49      H        0.09970    0.42920    0.00890    1.000
    C60      C        0.05120    0.34700    0.14530    1.000
    H50      H        0.09240    0.34250    0.21800    1.000
    N11      N        0.49880    0.59310    0.34380    1.000
    N12      N        0.50270    0.90830    0.39870    1.000
    C61      C        0.44720    0.59420    0.22470    1.000
    H51      H        0.40480    0.56180    0.23270    1.000
    C62      C        0.45350    0.64110    0.08970    1.000
    H52      H        0.42050    0.63470    0.00030    1.000
    C63      C        0.51050    0.69990    0.08540    1.000
    C64      C        0.56240    0.69520    0.21490    1.000
    H53      H        0.60380    0.72890    0.21790    1.000
    C65      C        0.55420    0.64180    0.33930    1.000
    H54      H        0.59040    0.64100    0.42390    1.000
    C66      C        0.52110    0.75390    0.95030    1.000
    H55      H        0.56210    0.78810    0.95800    1.000
    C67      C        0.47810    0.75820    0.82030    1.000
    H56      H        0.43390    0.72820    0.82320    1.000
    C68      C        0.48870    0.80360    0.66860    1.000
    C69      C        0.43630    0.80390    0.54290    1.000
    H57      H        0.39430    0.77080    0.54480    1.000
    C70      C        0.44690    0.85380    0.41430    1.000
    H58      H        0.41210    0.85010    0.32740    1.000
    C71      C        0.55590    0.89870    0.51500    1.000
    H59      H        0.59970    0.92920    0.50890    1.000
    C72      C        0.55120    0.84700    0.64530    1.000
    H60      H        0.59240    0.84250    0.71800    1.000
    N13      N        0.00120    0.90690    0.84380    1.000
    N14      N        0.99730    0.59170    0.89870    1.000
    C73      C        0.05280    0.90580    0.72470    1.000
    H61      H        0.09520    0.93820    0.73270    1.000
    C74      C        0.04650    0.85890    0.58970    1.000
    H62      H        0.07950    0.86530    0.50030    1.000
    C75      C        0.98950    0.80010    0.58540    1.000
    C76      C        0.93760    0.80480    0.71490    1.000
    H63      H        0.89620    0.77110    0.71790    1.000
    C77      C        0.94580    0.85820    0.83930    1.000
    H64      H        0.90960    0.85900    0.92390    1.000
    C78      C        0.97890    0.74610    0.45030    1.000
    H65      H        0.93790    0.71190    0.45800    1.000
    C79      C        0.02190    0.74180    0.32030    1.000
    H66      H        0.06610    0.77180    0.32320    1.000
    C80      C        0.01130    0.69640    0.16860    1.000
    C81      C        0.06370    0.69610    0.04290    1.000
    H67      H        0.10570    0.72920    0.04480    1.000
    C82      C        0.05310    0.64620    0.91430    1.000
    H68      H        0.08790    0.64990    0.82740    1.000
    C83      C        0.94410    0.60130    0.01500    1.000
    H69      H        0.90030    0.57080    0.00890    1.000
    C84      C        0.94880    0.65300    0.14530    1.000
    H70      H        0.90760    0.65750    0.21800    1.000
    N15      N        0.50120    0.40690    0.34380    1.000
    N16      N        0.49730    0.09170    0.39870    1.000
    C85      C        0.55280    0.40580    0.22470    1.000
    H71      H        0.59520    0.43820    0.23270    1.000
    C86      C        0.54650    0.35890    0.08970    1.000
    H72      H        0.57950    0.36530    0.00030    1.000
    C87      C        0.48950    0.30010    0.08540    1.000
    C88      C        0.43760    0.30480    0.21490    1.000
    H73      H        0.39620    0.27110    0.21790    1.000
    C89      C        0.44580    0.35820    0.33930    1.000
    H74      H        0.40960    0.35900    0.42390    1.000
    C90      C        0.47890    0.24610    0.95030    1.000
    H75      H        0.43790    0.21190    0.95800    1.000
    C91      C        0.52190    0.24180    0.82030    1.000
    H76      H        0.56610    0.27180    0.82320    1.000
    C92      C        0.51130    0.19640    0.66860    1.000
    C93      C        0.56370    0.19610    0.54290    1.000
    H77      H        0.60570    0.22920    0.54480    1.000
    C94      C        0.55310    0.14620    0.41430    1.000
    H78      H        0.58790    0.14990    0.32740    1.000
    C95      C        0.44410    0.10130    0.51500    1.000
    H79      H        0.40030    0.07080    0.50890    1.000
    C96      C        0.44880    0.15300    0.64530    1.000
    H80      H        0.40760    0.15750    0.71800    1.000
    Cu1      Cu       0.00000    0.00000    0.00000    1.000
    Cu2      Cu       0.50000    0.50000    0.50000    1.000
    Cu3      Cu       0.50000    0.00000    0.25000    1.000
    Cu4      Cu       0.00000    0.50000    0.75000    1.000
