data_functionalizedCrystal
_audit_creation_method	'EQeq! by Chris Wilmer'
_symmetry_space_group_name_H-M	'P1'
_symmetry_Int_Tables_number	1
_symmetry_cell_setting	triclinic
loop_
_symmetry_equiv_pos_as_xyz
  x,y,z
_cell_length_a	9.124
_cell_length_b	9.124
_cell_length_c	11.335
_cell_angle_alpha	90
_cell_angle_beta	90
_cell_angle_gamma	90
loop_
_atom_site_label
_atom_site_type_symbol
_atom_site_fract_x
_atom_site_fract_y
_atom_site_fract_z
_atom_site_charge
Mof_C 	C 	0.274	0.139	0.116	-0.082
Mof_C 	C 	0.529	0.258	0.918	-0.047
Mof_C 	C 	0.726	0.861	0.616	-0.073
Mof_C 	C 	0.471	0.742	0.418	-0.071
Mof_C 	C 	0.361	0.774	0.366	-0.075
Mof_C 	C 	0.242	0.029	0.168	-0.075
Mof_C 	C 	0.639	0.226	0.866	-0.075
Mof_C 	C 	0.758	0.971	0.668	-0.067
Mof_C 	C 	0.226	0.639	0.134	-0.08
Mof_C 	C 	0.971	0.758	0.332	-0.072
Mof_C 	C 	0.774	0.361	0.634	-0.075
Mof_C 	C 	0.029	0.242	0.832	-0.069
Mof_C 	C 	0.139	0.274	0.884	-0.052
Mof_C 	C 	0.258	0.529	0.082	-0.077
Mof_C 	C 	0.861	0.726	0.384	-0.077
Mof_C 	C 	0.742	0.471	0.582	-0.069
Mof_Cd	Cd	0.3179	0.3179	-0	0.261
Mof_Cd	Cd	0.6821	0.6821	0.5	0.292
Mof_Cd	Cd	0.1821	0.8179	0.25	0.288
Mof_Cd	Cd	0.8179	0.1821	0.75	0.295
_end
