data_functionalizedCrystal
_audit_creation_method	'EQeq! by Chris Wilmer'
_symmetry_space_group_name_H-M	'P1'
_symmetry_Int_Tables_number	1
_symmetry_cell_setting	triclinic
loop_
_symmetry_equiv_pos_as_xyz
  x,y,z
_cell_length_a	6.9457
_cell_length_b	19.2307
_cell_length_c	19.6681
_cell_angle_alpha	71.6549
_cell_angle_beta	79.8298
_cell_angle_gamma	79.596
loop_
_atom_site_label
_atom_site_type_symbol
_atom_site_fract_x
_atom_site_fract_y
_atom_site_fract_z
_atom_site_charge
Mof_Er	Er	0.83728	0.61991	0.76589	1.444
Mof_Er	Er	0.76823	0.38235	0.61059	1.589
Mof_Er	Er	0.22308	0.88009	0.73411	1.446
Mof_Er	Er	0.76117	0.11765	0.88941	1.587
Mof_Er	Er	0.16272	0.38009	0.23411	1.443
Mof_Er	Er	0.23177	0.61765	0.38941	1.588
Mof_Er	Er	0.77692	0.11991	0.26589	1.445
Mof_Er	Er	0.23883	0.88235	0.11059	1.586
Mof_Cu	Cu	0.7501	0.48981	0.00235	0.872
Mof_Cu	Cu	0.24226	0.01019	0.49765	0.872
Mof_Cu	Cu	0.2499	0.51019	0.99765	0.872
Mof_Cu	Cu	0.75774	0.98981	0.50235	0.872
Mof_H 	H 	0.8901	0.7321	0.9805	0.027
Mof_H 	H 	0.6824	0.3405	0.8551	0.008
Mof_H 	H 	0.6027	0.7679	0.5195	0.027
Mof_H 	H 	0.878	0.1595	0.6449	0.011
Mof_H 	H 	0.1099	0.2679	0.0195	0.027
Mof_H 	H 	0.3176	0.6595	0.1449	0.008
Mof_H 	H 	0.3973	0.2321	0.4805	0.027
Mof_H 	H 	0.122	0.8405	0.3551	0.011
Mof_C 	C 	0.7817	0.5841	0.0793	0.29
Mof_C 	C 	0.8242	0.6242	0.0026	-0.069
Mof_C 	C 	0.8731	0.6938	0.9636	0.015
Mof_C 	C 	0.891	0.6914	0.893	-0.061
Mof_C 	C 	0.9485	0.7471	0.8215	0.386
Mof_C 	C 	0.6753	0.3534	0.0056	0.301
Mof_C 	C 	0.7091	0.3942	0.9294	-0.08
Mof_C 	C 	0.7074	0.3828	0.8634	0.059
Mof_C 	C 	0.7493	0.4485	0.8133	-0.092
Mof_C 	C 	0.761	0.4754	0.7342	0.426
Mof_C 	C 	0.0843	0.4867	0.5229	0.251
Mof_C 	C 	0.4451	0.9159	0.4207	0.291
Mof_C 	C 	0.451	0.8758	0.4974	-0.071
Mof_C 	C 	0.5305	0.8062	0.5364	0.017
Mof_C 	C 	0.4754	0.8086	0.607	-0.061
Mof_C 	C 	0.5171	0.7529	0.6785	0.389
Mof_C 	C 	0.0343	0.1466	0.4944	0.298
Mof_C 	C 	0.0327	0.1058	0.5706	-0.075
Mof_C 	C 	0.9536	0.1172	0.6366	0.051
Mof_C 	C 	0.0111	0.0515	0.6867	-0.084
Mof_C 	C 	0.9706	0.0246	0.7658	0.419
Mof_C 	C 	0.0939	0.0133	0.9771	0.251
Mof_C 	C 	0.2183	0.4159	0.9207	0.29
Mof_C 	C 	0.1758	0.3758	0.9974	-0.069
Mof_C 	C 	0.1269	0.3062	0.0364	0.015
Mof_C 	C 	0.109	0.3086	0.107	-0.061
Mof_C 	C 	0.0515	0.2529	0.1785	0.386
Mof_C 	C 	0.3247	0.6466	0.9944	0.301
Mof_C 	C 	0.2909	0.6058	0.0706	-0.08
Mof_C 	C 	0.2926	0.6172	0.1366	0.059
Mof_C 	C 	0.2507	0.5515	0.1867	-0.092
Mof_C 	C 	0.239	0.5246	0.2658	0.426
Mof_C 	C 	0.9157	0.5133	0.4771	0.251
Mof_C 	C 	0.5549	0.0841	0.5793	0.291
Mof_C 	C 	0.549	0.1242	0.5026	-0.071
Mof_C 	C 	0.4695	0.1938	0.4636	0.017
Mof_C 	C 	0.5246	0.1914	0.393	-0.061
Mof_C 	C 	0.4829	0.2471	0.3215	0.389
Mof_C 	C 	0.9657	0.8534	0.5056	0.298
Mof_C 	C 	0.9673	0.8942	0.4294	-0.075
Mof_C 	C 	0.0464	0.8828	0.3634	0.051
Mof_C 	C 	0.9889	0.9485	0.3133	-0.084
Mof_C 	C 	0.0294	0.9754	0.2342	0.419
Mof_C 	C 	0.9061	0.9867	0.0229	0.251
Mof_C 	C 	0.892	0.25	0.75	0.224
Mof_C 	C 	0.668	0.25	0.75	0.32
Mof_C 	C 	0.108	0.75	0.25	0.224
Mof_C 	C 	0.332	0.75	0.25	0.32
Mof_N 	N 	0.8205	0.5855	0.9569	-0.204
Mof_N 	N 	0.8595	0.627	0.8886	-0.177
Mof_N 	N 	0.7531	0.4628	0.9168	-0.189
Mof_N 	N 	0.7783	0.4967	0.8463	-0.173
Mof_N 	N 	0.3629	0.9145	0.5431	-0.203
Mof_N 	N 	0.3751	0.873	0.6114	-0.176
Mof_N 	N 	0.1327	0.0372	0.5832	-0.189
Mof_N 	N 	0.1213	0.0033	0.6537	-0.174
Mof_N 	N 	0.1795	0.4145	0.0431	-0.204
Mof_N 	N 	0.1405	0.373	0.1114	-0.177
Mof_N 	N 	0.2469	0.5372	0.0832	-0.189
Mof_N 	N 	0.2217	0.5033	0.1537	-0.173
Mof_N 	N 	0.6371	0.0855	0.4569	-0.203
Mof_N 	N 	0.6249	0.127	0.3886	-0.176
Mof_N 	N 	0.8673	0.9628	0.4168	-0.189
Mof_N 	N 	0.8787	0.9967	0.3463	-0.174
Mof_O 	O 	0.7496	0.5174	0.0904	-0.411
Mof_O 	O 	0.7794	0.6119	0.1273	-0.255
Mof_O 	O 	0.9137	0.7314	0.7676	-0.481
Mof_O 	O 	0.0244	0.8007	0.8215	-0.447
Mof_O 	O 	0.6704	0.3922	0.0494	-0.409
Mof_O 	O 	0.6517	0.2879	0.0271	-0.282
Mof_O 	O 	0.786	0.5423	0.7049	-0.478
Mof_O 	O 	0.7415	0.4316	0.7006	-0.482
Mof_O 	O 	0.9729	0.2979	0.6989	-0.353
Mof_O 	O 	0.5984	0.2922	0.6954	-0.437
Mof_O 	O 	0.0605	0.4355	0.5795	-0.415
Mof_O 	O 	0.2332	0.5203	0.4989	-0.445
Mof_O 	O 	0.3574	0.9826	0.4096	-0.412
Mof_O 	O 	0.5186	0.8881	0.3727	-0.255
Mof_O 	O 	0.4127	0.7686	0.7324	-0.481
Mof_O 	O 	0.6466	0.6993	0.6785	-0.45
Mof_O 	O 	0.112	0.1078	0.4506	-0.409
Mof_O 	O 	0.9667	0.2121	0.4729	-0.281
Mof_O 	O 	0.0332	0.9577	0.7951	-0.475
Mof_O 	O 	0.8737	0.0684	0.7994	-0.481
Mof_O 	O 	0.9697	0.2021	0.8011	-0.354
Mof_O 	O 	0.586	0.2078	0.8046	-0.437
Mof_O 	O 	0.0755	0.0645	0.9205	-0.415
Mof_O 	O 	0.2524	0.9797	0.0011	-0.446
Mof_O 	O 	0.2504	0.4826	0.9096	-0.411
Mof_O 	O 	0.2206	0.3881	0.8727	-0.255
Mof_O 	O 	0.0863	0.2686	0.2324	-0.481
Mof_O 	O 	0.9756	0.1993	0.1785	-0.447
Mof_O 	O 	0.3296	0.6078	0.9506	-0.409
Mof_O 	O 	0.3483	0.7121	0.9729	-0.282
Mof_O 	O 	0.214	0.4577	0.2951	-0.478
Mof_O 	O 	0.2585	0.5684	0.2994	-0.482
Mof_O 	O 	0.0271	0.7021	0.3011	-0.353
Mof_O 	O 	0.4016	0.7078	0.3046	-0.437
Mof_O 	O 	0.9395	0.5645	0.4205	-0.415
Mof_O 	O 	0.7668	0.4797	0.5011	-0.445
Mof_O 	O 	0.6426	0.0174	0.5904	-0.412
Mof_O 	O 	0.4814	0.1119	0.6273	-0.255
Mof_O 	O 	0.5873	0.2314	0.2676	-0.481
Mof_O 	O 	0.3534	0.3007	0.3215	-0.45
Mof_O 	O 	0.888	0.8922	0.5494	-0.409
Mof_O 	O 	0.0333	0.7879	0.5271	-0.281
Mof_O 	O 	0.9668	0.0423	0.2049	-0.475
Mof_O 	O 	0.1263	0.9316	0.2006	-0.481
Mof_O 	O 	0.0303	0.7979	0.1989	-0.354
Mof_O 	O 	0.414	0.7922	0.1954	-0.437
Mof_O 	O 	0.9245	0.9355	0.0795	-0.415
Mof_O 	O 	0.7476	0.0203	0.9989	-0.446
_end
