data_functionalizedCrystal
_audit_creation_method	'EQeq! by Chris Wilmer'
_symmetry_space_group_name_H-M	'P1'
_symmetry_Int_Tables_number	1
_symmetry_cell_setting	triclinic
loop_
_symmetry_equiv_pos_as_xyz
  x,y,z
_cell_length_a	9.605
_cell_length_b	16.769
_cell_length_c	21.155
_cell_angle_alpha	104.16
_cell_angle_beta	100.31
_cell_angle_gamma	97.16
loop_
_atom_site_label
_atom_site_type_symbol
_atom_site_fract_x
_atom_site_fract_y
_atom_site_fract_z
_atom_site_charge
Mof_Tb	Tb	0.27684	0.5123	0.9971	2.201
Mof_I 	I 	0.7616	0.9892	0.49996	-0.72
Mof_I 	I 	0.99071	0.77992	0.47107	-0.613
Mof_I 	I 	0.08918	0.97768	0.67472	-0.607
Mof_I 	I 	0.69498	0.78942	0.61293	-0.598
Mof_Cu	Cu	0.01403	0.94245	0.54044	0.698
Mof_Cu	Cu	0.75521	0.82692	0.50169	0.732
Mof_Cu	Cu	0.82035	0.94494	0.62243	0.731
Mof_Cu	Cu	0.96195	0.8177	0.59979	0.724
Mof_O 	O 	0.1696	0.5404	0.0888	-0.58
Mof_O 	O 	0.9393	0.483	0.0693	-0.602
Mof_O 	O 	0.5516	0.3779	0.9282	-0.552
Mof_O 	O 	0.3309	0.4099	0.913	-0.578
Mof_O 	O 	0.3592	0.5835	0.9234	-0.535
Mof_O 	O 	0.5781	0.5522	0.9406	-0.604
Mof_N 	N 	0.5774	0.7608	0.4326	-0.252
Mof_N 	N 	0.7106	0.0266	0.6697	-0.246
Mof_N 	N 	0.0992	0.7531	0.6427	-0.26
Mof_C 	C 	0.4501	0.7836	0.4346	0.116
Mof_H 	H 	0.446	0.8315	0.467	-0.016
Mof_C 	C 	0.3256	0.7402	0.3919	-0.192
Mof_H 	H 	0.2392	0.758	0.3966	0.116
Mof_C 	C 	0.3258	0.6702	0.3417	0.131
Mof_C 	C 	0.4593	0.6476	0.3385	-0.183
Mof_H 	H 	0.4672	0.6013	0.3055	0.098
Mof_C 	C 	0.5802	0.6944	0.3847	0.107
Mof_H 	H 	0.6683	0.678	0.3817	-0.019
Mof_C 	C 	0.1918	0.621	0.294	-0.074
Mof_C 	C 	0.1877	0.5942	0.2263	0.049
Mof_H 	H 	0.2696	0.6067	0.2104	0.019
Mof_C 	C 	0.0611	0.5484	0.1814	-0.191
Mof_C 	C 	0.9385	0.529	0.2058	0.074
Mof_H 	H 	0.8546	0.4978	0.1765	0.005
Mof_C 	C 	0.9417	0.5557	0.2725	-0.119
Mof_H 	H 	0.86	0.5426	0.2884	0.072
Mof_C 	C 	0.067	0.6026	0.317	0.008
Mof_H 	H 	0.0676	0.6217	0.3622	0.042
Mof_C 	C 	0.0567	0.5224	0.1079	0.515
Mof_C 	C 	0.7673	0.1017	0.7128	0.093
Mof_H 	H 	0.8669	0.1164	0.7259	-0.015
Mof_C 	C 	0.6849	0.1583	0.7384	-0.169
Mof_H 	H 	0.7294	0.2092	0.7687	0.088
Mof_C 	C 	0.5347	0.1394	0.7191	0.124
Mof_C 	C 	0.479	0.061	0.6738	-0.172
Mof_H 	H 	0.3801	0.0456	0.6579	0.107
Mof_C 	C 	0.5665	0.0063	0.6523	0.098
Mof_H 	H 	0.5247	0.9534	0.6246	-0.018
Mof_C 	C 	0.439	0.1966	0.7433	-0.078
Mof_C 	C 	0.4776	0.2553	0.8046	0.065
Mof_H 	H 	0.5692	0.2615	0.8307	0.013
Mof_C 	C 	0.3821	0.3059	0.8285	-0.191
Mof_C 	C 	0.2467	0.2975	0.7899	0.086
Mof_H 	H 	0.1825	0.3306	0.8055	0.003
Mof_C 	C 	0.2058	0.2385	0.7264	-0.133
Mof_H 	H 	0.115	0.2334	0.7	0.079
Mof_C 	C 	0.2994	0.1889	0.7038	0.037
Mof_H 	H 	0.2713	0.1499	0.6622	0.005
Mof_C 	C 	0.4249	0.3689	0.895	0.519
Mof_C 	C 	0.2344	0.7699	0.6424	0.132
Mof_H 	H 	0.2631	0.8074	0.6193	-0.033
Mof_C 	C 	0.3393	0.7342	0.6752	-0.213
Mof_H 	H 	0.435	0.7476	0.6731	0.125
Mof_C 	C 	0.302	0.6803	0.7098	0.154
Mof_C 	C 	0.1591	0.663	0.7097	-0.203
Mof_H 	H 	0.1275	0.6255	0.7322	0.101
Mof_C 	C 	0.0607	0.7008	0.6764	0.118
Mof_H 	H 	0.9644	0.6889	0.6779	-0.027
Mof_C 	C 	0.4122	0.6437	0.7473	-0.085
Mof_C 	C 	0.3958	0.6274	0.808	0.057
Mof_H 	H 	0.3145	0.6386	0.8243	0.019
Mof_C 	C 	0.4995	0.5949	0.8439	-0.186
Mof_C 	C 	0.6205	0.5783	0.8195	0.077
Mof_H 	H 	0.6911	0.5572	0.8434	-0
Mof_C 	C 	0.6362	0.5935	0.7584	-0.124
Mof_H 	H 	0.7172	0.5821	0.7419	0.074
Mof_C 	C 	0.5326	0.6251	0.723	0.022
Mof_H 	H 	0.5434	0.6342	0.6823	0.033
Mof_C 	C 	0.4772	0.5751	0.907	0.514
Mof_Tb	Tb	0.72316	0.4877	0.0029	2.202
Mof_I 	I 	0.2384	0.0108	0.50004	-0.719
Mof_I 	I 	0.00929	0.22008	0.52893	-0.612
Mof_I 	I 	0.91082	0.02232	0.32528	-0.606
Mof_I 	I 	0.30502	0.21058	0.38707	-0.597
Mof_Cu	Cu	0.98597	0.05755	0.45956	0.699
Mof_Cu	Cu	0.24479	0.17308	0.49831	0.733
Mof_Cu	Cu	0.17965	0.05506	0.37757	0.732
Mof_Cu	Cu	0.03805	0.1823	0.40021	0.725
Mof_O 	O 	0.8304	0.4596	0.9112	-0.579
Mof_O 	O 	0.0607	0.517	0.9307	-0.601
Mof_O 	O 	0.4484	0.6221	0.0718	-0.551
Mof_O 	O 	0.6691	0.5901	0.087	-0.577
Mof_O 	O 	0.6408	0.4165	0.0766	-0.534
Mof_O 	O 	0.4219	0.4478	0.0594	-0.604
Mof_N 	N 	0.4226	0.2392	0.5674	-0.252
Mof_N 	N 	0.2894	0.9734	0.3303	-0.246
Mof_N 	N 	0.9008	0.2469	0.3573	-0.26
Mof_C 	C 	0.5499	0.2164	0.5654	0.116
Mof_H 	H 	0.554	0.1685	0.533	-0.016
Mof_C 	C 	0.6744	0.2598	0.6081	-0.192
Mof_H 	H 	0.7608	0.242	0.6034	0.116
Mof_C 	C 	0.6742	0.3298	0.6583	0.131
Mof_C 	C 	0.5407	0.3524	0.6615	-0.183
Mof_H 	H 	0.5328	0.3987	0.6945	0.098
Mof_C 	C 	0.4198	0.3056	0.6153	0.107
Mof_H 	H 	0.3317	0.322	0.6183	-0.019
Mof_C 	C 	0.8082	0.379	0.706	-0.074
Mof_C 	C 	0.8123	0.4058	0.7737	0.049
Mof_H 	H 	0.7304	0.3933	0.7896	0.019
Mof_C 	C 	0.9389	0.4516	0.8186	-0.191
Mof_C 	C 	0.0615	0.471	0.7942	0.074
Mof_H 	H 	0.1454	0.5022	0.8235	0.005
Mof_C 	C 	0.0583	0.4443	0.7275	-0.119
Mof_H 	H 	0.14	0.4574	0.7116	0.072
Mof_C 	C 	0.933	0.3974	0.683	0.008
Mof_H 	H 	0.9324	0.3783	0.6378	0.042
Mof_C 	C 	0.9433	0.4776	0.8921	0.515
Mof_C 	C 	0.2327	0.8983	0.2872	0.093
Mof_H 	H 	0.1331	0.8836	0.2741	-0.015
Mof_C 	C 	0.3151	0.8417	0.2616	-0.169
Mof_H 	H 	0.2706	0.7908	0.2313	0.088
Mof_C 	C 	0.4653	0.8606	0.2809	0.124
Mof_C 	C 	0.521	0.939	0.3262	-0.172
Mof_H 	H 	0.6199	0.9544	0.3421	0.107
Mof_C 	C 	0.4335	0.9937	0.3477	0.098
Mof_H 	H 	0.4753	0.0466	0.3754	-0.018
Mof_C 	C 	0.561	0.8034	0.2567	-0.078
Mof_C 	C 	0.5224	0.7447	0.1954	0.065
Mof_H 	H 	0.4308	0.7385	0.1693	0.013
Mof_C 	C 	0.6179	0.6941	0.1715	-0.191
Mof_C 	C 	0.7533	0.7025	0.2101	0.086
Mof_H 	H 	0.8175	0.6694	0.1945	0.003
Mof_C 	C 	0.7942	0.7615	0.2736	-0.133
Mof_H 	H 	0.885	0.7666	0.3	0.079
Mof_C 	C 	0.7006	0.8111	0.2962	0.037
Mof_H 	H 	0.7287	0.8501	0.3378	0.005
Mof_C 	C 	0.5751	0.6311	0.105	0.519
Mof_C 	C 	0.7656	0.2301	0.3576	0.132
Mof_H 	H 	0.7369	0.1926	0.3807	-0.033
Mof_C 	C 	0.6607	0.2658	0.3248	-0.213
Mof_H 	H 	0.565	0.2524	0.3269	0.125
Mof_C 	C 	0.698	0.3197	0.2902	0.154
Mof_C 	C 	0.8409	0.337	0.2903	-0.203
Mof_H 	H 	0.8725	0.3745	0.2678	0.101
Mof_C 	C 	0.9393	0.2992	0.3236	0.118
Mof_H 	H 	0.0356	0.3111	0.3221	-0.027
Mof_C 	C 	0.5878	0.3563	0.2527	-0.085
Mof_C 	C 	0.6042	0.3726	0.192	0.057
Mof_H 	H 	0.6855	0.3614	0.1757	0.019
Mof_C 	C 	0.5005	0.4051	0.1561	-0.186
Mof_C 	C 	0.3795	0.4217	0.1805	0.077
Mof_H 	H 	0.3089	0.4428	0.1566	-0
Mof_C 	C 	0.3638	0.4065	0.2416	-0.124
Mof_H 	H 	0.2828	0.4179	0.2581	0.074
Mof_C 	C 	0.4674	0.3749	0.277	0.022
Mof_H 	H 	0.4566	0.3658	0.3177	0.033
Mof_C 	C 	0.5228	0.4249	0.093	0.514
_end
