# CIF file generated by openbabel 3.1.0, see https://openbabel.org
data_I
_chemical_name_common 'image0'
_cell_length_a 9.942
_cell_length_b 9.942
_cell_length_c 15.764
_cell_angle_alpha 90
_cell_angle_beta 90
_cell_angle_gamma 90
_space_group_name_H-M_alt 'P 1'
_space_group_name_Hall 'P 1'
loop_
    _symmetry_equiv_pos_as_xyz
    x,y,z
loop_
    _atom_site_label
    _atom_site_type_symbol
    _atom_site_fract_x
    _atom_site_fract_y
    _atom_site_fract_z
    _atom_site_occupancy
    C1       C        0.24210    0.16010    0.31200    1.000
    H1       H        0.23920    0.09850    0.35640    1.000
    C2       C        0.74210    0.66010    0.81200    1.000
    H2       H        0.73920    0.59850    0.85640    1.000
    C3       C        0.75790    0.83990    0.31200    1.000
    H3       H        0.76080    0.90150    0.35640    1.000
    C4       C        0.25790    0.33990    0.81200    1.000
    H4       H        0.26080    0.40150    0.85640    1.000
    C5       C        0.83990    0.24210    0.31200    1.000
    H5       H        0.90150    0.23920    0.35640    1.000
    C6       C        0.33990    0.74210    0.81200    1.000
    H6       H        0.40150    0.73920    0.85640    1.000
    C7       C        0.16010    0.75790    0.31200    1.000
    H7       H        0.09850    0.76080    0.35640    1.000
    C8       C        0.66010    0.25790    0.81200    1.000
    H8       H        0.59850    0.26080    0.85640    1.000
    C9       C        0.75790    0.16010    0.18800    1.000
    H9       H        0.76080    0.09850    0.14360    1.000
    C10      C        0.25790    0.66010    0.68800    1.000
    H10      H        0.26080    0.59850    0.64360    1.000
    C11      C        0.24210    0.83990    0.18800    1.000
    H11      H        0.23920    0.90150    0.14360    1.000
    C12      C        0.74210    0.33990    0.68800    1.000
    H12      H        0.73920    0.40150    0.64360    1.000
    C13      C        0.16010    0.24210    0.18800    1.000
    H13      H        0.09850    0.23920    0.14360    1.000
    C14      C        0.66010    0.74210    0.68800    1.000
    H14      H        0.59850    0.73920    0.64360    1.000
    C15      C        0.83990    0.75790    0.18800    1.000
    H15      H        0.90150    0.76080    0.14360    1.000
    C16      C        0.33990    0.25790    0.68800    1.000
    H16      H        0.40150    0.26080    0.64360    1.000
    C17      C        0.75790    0.83990    0.68800    1.000
    H17      H        0.76080    0.90150    0.64360    1.000
    C18      C        0.25790    0.33990    0.18800    1.000
    H18      H        0.26080    0.40150    0.14360    1.000
    C19      C        0.24210    0.16010    0.68800    1.000
    H19      H        0.23920    0.09850    0.64360    1.000
    C20      C        0.74210    0.66010    0.18800    1.000
    H20      H        0.73920    0.59850    0.14360    1.000
    C21      C        0.16010    0.75790    0.68800    1.000
    H21      H        0.09850    0.76080    0.64360    1.000
    C22      C        0.66010    0.25790    0.18800    1.000
    H22      H        0.59850    0.26080    0.14360    1.000
    C23      C        0.83990    0.24210    0.68800    1.000
    H23      H        0.90150    0.23920    0.64360    1.000
    C24      C        0.33990    0.74210    0.18800    1.000
    H24      H        0.40150    0.73920    0.14360    1.000
    C25      C        0.24210    0.83990    0.81200    1.000
    H25      H        0.23920    0.90150    0.85640    1.000
    C26      C        0.74210    0.33990    0.31200    1.000
    H26      H        0.73920    0.40150    0.35640    1.000
    C27      C        0.75790    0.16010    0.81200    1.000
    H27      H        0.76080    0.09850    0.85640    1.000
    C28      C        0.25790    0.66010    0.31200    1.000
    H28      H        0.26080    0.59850    0.35640    1.000
    C29      C        0.83990    0.75790    0.81200    1.000
    H29      H        0.90150    0.76080    0.85640    1.000
    C30      C        0.33990    0.25790    0.31200    1.000
    H30      H        0.40150    0.26080    0.35640    1.000
    C31      C        0.16010    0.24210    0.81200    1.000
    H31      H        0.09850    0.23920    0.85640    1.000
    C32      C        0.66010    0.74210    0.31200    1.000
    H32      H        0.59850    0.73920    0.35640    1.000
    Nb1      Nb       0.00000    0.00000    0.00000    1.000
    Nb2      Nb       0.50000    0.50000    0.50000    1.000
    Nb3      Nb       0.00000    0.00000    0.50000    1.000
    Nb4      Nb       0.50000    0.50000    0.00000    1.000
    Ni1      Ni       0.00000    0.00000    0.25000    1.000
    Ni2      Ni       0.50000    0.50000    0.75000    1.000
    Ni3      Ni       0.00000    0.00000    0.75000    1.000
    Ni4      Ni       0.50000    0.50000    0.25000    1.000
    O1       O        0.00000    0.00000    0.12310    1.000
    F1       F        0.00000    0.00000    0.37690    1.000
    O2       O        0.50000    0.50000    0.62310    1.000
    F2       F        0.50000    0.50000    0.87690    1.000
    O3       O        0.00000    0.00000    0.87690    1.000
    F3       F        0.00000    0.00000    0.62310    1.000
    O4       O        0.50000    0.50000    0.37690    1.000
    F4       F        0.50000    0.50000    0.12310    1.000
    F5       F        0.00800    0.19080    0.00000    1.000
    F6       F        0.50800    0.69080    0.50000    1.000
    F7       F        0.99200    0.80920    0.00000    1.000
    F8       F        0.49200    0.30920    0.50000    1.000
    F9       F        0.80920    0.00800    0.00000    1.000
    F10      F        0.30920    0.50800    0.50000    1.000
    F11      F        0.19080    0.99200    0.00000    1.000
    F12      F        0.69080    0.49200    0.50000    1.000
    F13      F        0.99200    0.19080    0.50000    1.000
    F14      F        0.49200    0.69080    0.00000    1.000
    F15      F        0.00800    0.80920    0.50000    1.000
    F16      F        0.50800    0.30920    0.00000    1.000
    F17      F        0.19080    0.00800    0.50000    1.000
    F18      F        0.69080    0.50800    0.00000    1.000
    F19      F        0.80920    0.99200    0.50000    1.000
    F20      F        0.30920    0.49200    0.00000    1.000
    N1       N        0.15140    0.15140    0.25000    1.000
    N2       N        0.65140    0.65140    0.75000    1.000
    N3       N        0.84860    0.84860    0.25000    1.000
    N4       N        0.34860    0.34860    0.75000    1.000
    N5       N        0.84860    0.15140    0.25000    1.000
    N6       N        0.34860    0.65140    0.75000    1.000
    N7       N        0.15140    0.84860    0.25000    1.000
    N8       N        0.65140    0.34860    0.75000    1.000
    N9       N        0.84860    0.84860    0.75000    1.000
    N10      N        0.34860    0.34860    0.25000    1.000
    N11      N        0.15140    0.15140    0.75000    1.000
    N12      N        0.65140    0.65140    0.25000    1.000
    N13      N        0.15140    0.84860    0.75000    1.000
    N14      N        0.65140    0.34860    0.25000    1.000
    N15      N        0.84860    0.15140    0.75000    1.000
    N16      N        0.34860    0.65140    0.25000    1.000
