data_functionalizedCrystal
_audit_creation_method	'EQeq! by Chris Wilmer'
_symmetry_space_group_name_H-M	'P1'
_symmetry_Int_Tables_number	1
_symmetry_cell_setting	triclinic
loop_
_symmetry_equiv_pos_as_xyz
  x,y,z
_cell_length_a	16.444
_cell_length_b	16.444
_cell_length_c	14.178
_cell_angle_alpha	90
_cell_angle_beta	90
_cell_angle_gamma	90
loop_
_atom_site_label
_atom_site_type_symbol
_atom_site_fract_x
_atom_site_fract_y
_atom_site_fract_z
_atom_site_charge
Mof_Co	Co	0.6695	0.3463	0.6073	1.134
Mof_O 	O 	0.6765	0.4684	0.4212	-0.541
Mof_N 	N 	0.6737	0.2227	0.3332	-0.239
Mof_C 	C 	0.629	0.1577	0.359	0.072
Mof_C 	C 	0.636	0.087	0.308	-0.158
Mof_C 	C 	0.694	0.081	0.242	0.086
Mof_N 	N 	0.7397	0.145	0.2173	-0.238
Mof_C 	C 	0.7734	0.2859	0.2353	0.046
Mof_H 	H 	0.897	0.458	0.175	0.08
Mof_H 	H 	0.798	0.47	0.291	-0.01
Mof_H 	H 	0.9103	0.3369	0.091	-0.001
Mof_Co	Co	0.1695	0.8463	0.1073	1.14
Mof_O 	O 	0.1765	0.9684	0.9212	-0.596
Mof_N 	N 	0.1737	0.7227	0.8332	-0.245
Mof_C 	C 	0.129	0.6577	0.859	0.066
Mof_C 	C 	0.136	0.587	0.808	-0.16
Mof_C 	C 	0.194	0.581	0.742	0.079
Mof_N 	N 	0.2397	0.645	0.7173	-0.24
Mof_C 	C 	0.2734	0.7859	0.7353	0.04
Mof_H 	H 	0.397	0.958	0.675	0.075
Mof_H 	H 	0.298	0.97	0.791	-0.013
Mof_H 	H 	0.4103	0.8369	0.591	-0.009
Mof_Co	Co	0.3305	0.6537	0.6073	1.135
Mof_O 	O 	0.3235	0.5316	0.4212	-0.54
Mof_N 	N 	0.3263	0.7773	0.3332	-0.238
Mof_C 	C 	0.371	0.8423	0.359	0.073
Mof_C 	C 	0.364	0.913	0.308	-0.158
Mof_C 	C 	0.306	0.919	0.242	0.086
Mof_N 	N 	0.2603	0.855	0.2173	-0.238
Mof_C 	C 	0.2266	0.7141	0.2353	0.046
Mof_H 	H 	0.103	0.542	0.175	0.08
Mof_H 	H 	0.202	0.53	0.291	-0.01
Mof_H 	H 	0.0897	0.6631	0.091	-0.001
Mof_Co	Co	0.8305	0.1537	0.1073	1.14
Mof_O 	O 	0.8235	0.0316	0.9212	-0.596
Mof_N 	N 	0.8263	0.2773	0.8332	-0.245
Mof_C 	C 	0.871	0.3423	0.859	0.066
Mof_C 	C 	0.864	0.413	0.808	-0.16
Mof_C 	C 	0.806	0.419	0.742	0.079
Mof_N 	N 	0.7603	0.355	0.7173	-0.24
Mof_C 	C 	0.7266	0.2141	0.7353	0.04
Mof_H 	H 	0.603	0.042	0.675	0.075
Mof_H 	H 	0.702	0.03	0.791	-0.013
Mof_H 	H 	0.5897	0.1631	0.591	-0.009
Mof_Co	Co	0.6537	0.6695	0.6073	1.135
Mof_O 	O 	0.5316	0.6765	0.4212	-0.54
Mof_N 	N 	0.7773	0.6737	0.3332	-0.238
Mof_C 	C 	0.8423	0.629	0.359	0.073
Mof_C 	C 	0.913	0.636	0.308	-0.158
Mof_C 	C 	0.919	0.694	0.242	0.086
Mof_N 	N 	0.855	0.7397	0.2173	-0.238
Mof_C 	C 	0.7141	0.7734	0.2353	0.046
Mof_H 	H 	0.542	0.897	0.175	0.08
Mof_H 	H 	0.53	0.798	0.291	-0.01
Mof_H 	H 	0.6631	0.9103	0.091	-0.001
Mof_Co	Co	0.1537	0.1695	0.1073	1.14
Mof_O 	O 	0.0316	0.1765	0.9212	-0.596
Mof_N 	N 	0.2773	0.1737	0.8332	-0.245
Mof_C 	C 	0.3423	0.129	0.859	0.066
Mof_C 	C 	0.413	0.136	0.808	-0.16
Mof_C 	C 	0.419	0.194	0.742	0.079
Mof_N 	N 	0.355	0.2397	0.7173	-0.24
Mof_C 	C 	0.2141	0.2734	0.7353	0.04
Mof_H 	H 	0.042	0.397	0.675	0.075
Mof_H 	H 	0.03	0.298	0.791	-0.013
Mof_H 	H 	0.1631	0.4103	0.591	-0.009
Mof_Co	Co	0.3463	0.3305	0.6073	1.135
Mof_O 	O 	0.4684	0.3235	0.4212	-0.54
Mof_N 	N 	0.2227	0.3263	0.3332	-0.238
Mof_C 	C 	0.1577	0.371	0.359	0.073
Mof_C 	C 	0.087	0.364	0.308	-0.158
Mof_C 	C 	0.081	0.306	0.242	0.086
Mof_N 	N 	0.145	0.2603	0.2173	-0.238
Mof_C 	C 	0.2859	0.2266	0.2353	0.046
Mof_H 	H 	0.458	0.103	0.175	0.08
Mof_H 	H 	0.47	0.202	0.291	-0.01
Mof_H 	H 	0.3369	0.0897	0.091	-0.001
Mof_Co	Co	0.8463	0.8305	0.1073	1.14
Mof_O 	O 	0.9684	0.8235	0.9212	-0.596
Mof_N 	N 	0.7227	0.8263	0.8332	-0.245
Mof_C 	C 	0.6577	0.871	0.859	0.066
Mof_C 	C 	0.587	0.864	0.808	-0.16
Mof_C 	C 	0.581	0.806	0.742	0.079
Mof_N 	N 	0.645	0.7603	0.7173	-0.24
Mof_C 	C 	0.7859	0.7266	0.7353	0.04
Mof_H 	H 	0.958	0.603	0.675	0.075
Mof_H 	H 	0.97	0.702	0.791	-0.013
Mof_H 	H 	0.8369	0.5897	0.591	-0.009
Mof_Co	Co	0.3305	0.6537	0.3927	1.137
Mof_O 	O 	0.3235	0.5316	0.5788	-0.543
Mof_N 	N 	0.3263	0.7773	0.6668	-0.239
Mof_C 	C 	0.371	0.8423	0.641	0.071
Mof_C 	C 	0.364	0.913	0.692	-0.159
Mof_C 	C 	0.306	0.919	0.758	0.081
Mof_N 	N 	0.2603	0.855	0.7827	-0.242
Mof_C 	C 	0.2266	0.7141	0.7647	0.039
Mof_H 	H 	0.103	0.542	0.825	0.068
Mof_H 	H 	0.202	0.53	0.709	-0.012
Mof_H 	H 	0.0897	0.6631	0.909	-0.025
Mof_Co	Co	0.8305	0.1537	0.8927	1.121
Mof_O 	O 	0.8235	0.0316	0.0788	-0.551
Mof_N 	N 	0.8263	0.2773	0.1668	-0.237
Mof_C 	C 	0.871	0.3423	0.141	0.076
Mof_C 	C 	0.864	0.413	0.192	-0.157
Mof_C 	C 	0.806	0.419	0.258	0.087
Mof_N 	N 	0.7603	0.355	0.2827	-0.238
Mof_C 	C 	0.7266	0.2141	0.2647	0.045
Mof_H 	H 	0.603	0.042	0.325	0.076
Mof_H 	H 	0.702	0.03	0.209	-0.009
Mof_H 	H 	0.5897	0.1631	0.409	-0.009
Mof_Co	Co	0.6695	0.3463	0.3927	1.137
Mof_O 	O 	0.6765	0.4684	0.5788	-0.543
Mof_N 	N 	0.6737	0.2227	0.6668	-0.239
Mof_C 	C 	0.629	0.1577	0.641	0.071
Mof_C 	C 	0.636	0.087	0.692	-0.159
Mof_C 	C 	0.694	0.081	0.758	0.081
Mof_N 	N 	0.7397	0.145	0.7827	-0.242
Mof_C 	C 	0.7734	0.2859	0.7647	0.039
Mof_H 	H 	0.897	0.458	0.825	0.068
Mof_H 	H 	0.798	0.47	0.709	-0.012
Mof_H 	H 	0.9103	0.3369	0.909	-0.025
Mof_Co	Co	0.1695	0.8463	0.8927	1.121
Mof_O 	O 	0.1765	0.9684	0.0788	-0.551
Mof_N 	N 	0.1737	0.7227	0.1668	-0.237
Mof_C 	C 	0.129	0.6577	0.141	0.076
Mof_C 	C 	0.136	0.587	0.192	-0.157
Mof_C 	C 	0.194	0.581	0.258	0.087
Mof_N 	N 	0.2397	0.645	0.2827	-0.238
Mof_C 	C 	0.2734	0.7859	0.2647	0.045
Mof_H 	H 	0.397	0.958	0.325	0.076
Mof_H 	H 	0.298	0.97	0.209	-0.009
Mof_H 	H 	0.4103	0.8369	0.409	-0.009
Mof_Co	Co	0.3463	0.3305	0.3927	1.137
Mof_O 	O 	0.4684	0.3235	0.5788	-0.543
Mof_N 	N 	0.2227	0.3263	0.6668	-0.239
Mof_C 	C 	0.1577	0.371	0.641	0.071
Mof_C 	C 	0.087	0.364	0.692	-0.159
Mof_C 	C 	0.081	0.306	0.758	0.081
Mof_N 	N 	0.145	0.2603	0.7827	-0.242
Mof_C 	C 	0.2859	0.2266	0.7647	0.039
Mof_H 	H 	0.458	0.103	0.825	0.068
Mof_H 	H 	0.47	0.202	0.709	-0.012
Mof_H 	H 	0.3369	0.0897	0.909	-0.025
Mof_Co	Co	0.8463	0.8305	0.8927	1.121
Mof_O 	O 	0.9684	0.8235	0.0788	-0.551
Mof_N 	N 	0.7227	0.8263	0.1668	-0.237
Mof_C 	C 	0.6577	0.871	0.141	0.076
Mof_C 	C 	0.587	0.864	0.192	-0.157
Mof_C 	C 	0.581	0.806	0.258	0.087
Mof_N 	N 	0.645	0.7603	0.2827	-0.238
Mof_C 	C 	0.7859	0.7266	0.2647	0.045
Mof_H 	H 	0.958	0.603	0.325	0.076
Mof_H 	H 	0.97	0.702	0.209	-0.009
Mof_H 	H 	0.8369	0.5897	0.409	-0.009
Mof_Co	Co	0.6537	0.6695	0.3927	1.137
Mof_O 	O 	0.5316	0.6765	0.5788	-0.543
Mof_N 	N 	0.7773	0.6737	0.6668	-0.239
Mof_C 	C 	0.8423	0.629	0.641	0.071
Mof_C 	C 	0.913	0.636	0.692	-0.159
Mof_C 	C 	0.919	0.694	0.758	0.081
Mof_N 	N 	0.855	0.7397	0.7827	-0.242
Mof_C 	C 	0.7141	0.7734	0.7647	0.039
Mof_H 	H 	0.542	0.897	0.825	0.068
Mof_H 	H 	0.53	0.798	0.709	-0.012
Mof_H 	H 	0.6631	0.9103	0.909	-0.025
Mof_Co	Co	0.1537	0.1695	0.8927	1.121
Mof_O 	O 	0.0316	0.1765	0.0788	-0.551
Mof_N 	N 	0.2773	0.1737	0.1668	-0.237
Mof_C 	C 	0.3423	0.129	0.141	0.076
Mof_C 	C 	0.413	0.136	0.192	-0.157
Mof_C 	C 	0.419	0.194	0.258	0.087
Mof_N 	N 	0.355	0.2397	0.2827	-0.238
Mof_C 	C 	0.2141	0.2734	0.2647	0.045
Mof_H 	H 	0.042	0.397	0.325	0.076
Mof_H 	H 	0.03	0.298	0.209	-0.009
Mof_H 	H 	0.1631	0.4103	0.409	-0.009
Mof_O 	O 	0.7466	0.3166	0.5	-0.658
Mof_O 	O 	0.6773	0.5843	0.5	-0.609
Mof_C 	C 	0.677	0.505	0.5	0.592
Mof_H 	H 	0.7619	0.2675	0.5	0.247
Mof_O 	O 	0.2466	0.8166	-0	-0.635
Mof_O 	O 	0.1773	0.0843	-0	-0.6
Mof_C 	C 	0.177	0.005	-0	0.657
Mof_H 	H 	0.2619	0.7675	-0	0.255
Mof_O 	O 	0.2534	0.6834	0.5	-0.658
Mof_O 	O 	0.3227	0.4157	0.5	-0.609
Mof_C 	C 	0.323	0.495	0.5	0.592
Mof_H 	H 	0.2381	0.7325	0.5	0.247
Mof_O 	O 	0.7534	0.1834	-0	-0.635
Mof_O 	O 	0.8227	0.9157	-0	-0.6
Mof_C 	C 	0.823	0.995	-0	0.657
Mof_H 	H 	0.7381	0.2325	-0	0.255
Mof_O 	O 	0.6834	0.7466	0.5	-0.658
Mof_O 	O 	0.4157	0.6773	0.5	-0.609
Mof_C 	C 	0.495	0.677	0.5	0.592
Mof_H 	H 	0.7325	0.7619	0.5	0.247
Mof_O 	O 	0.1834	0.2466	-0	-0.635
Mof_O 	O 	0.9157	0.1773	-0	-0.6
Mof_C 	C 	0.995	0.177	-0	0.657
Mof_H 	H 	0.2325	0.2619	-0	0.255
Mof_O 	O 	0.3166	0.2534	0.5	-0.658
Mof_O 	O 	0.5843	0.3227	0.5	-0.609
Mof_C 	C 	0.505	0.323	0.5	0.592
Mof_H 	H 	0.2675	0.2381	0.5	0.247
Mof_O 	O 	0.8166	0.7534	-0	-0.635
Mof_O 	O 	0.0843	0.8227	-0	-0.6
Mof_C 	C 	0.005	0.823	-0	0.657
Mof_H 	H 	0.7675	0.7381	-0	0.255
_end
