# CIF file generated by openbabel 3.1.0, see https://openbabel.org
data_I
_chemical_name_common 'image0'
_cell_length_a 17.03
_cell_length_b 17.03
_cell_length_c 13.908
_cell_angle_alpha 90
_cell_angle_beta 90
_cell_angle_gamma 120
_space_group_name_H-M_alt 'P 1'
_space_group_name_Hall 'P 1'
loop_
    _symmetry_equiv_pos_as_xyz
    x,y,z
loop_
    _atom_site_label
    _atom_site_type_symbol
    _atom_site_fract_x
    _atom_site_fract_y
    _atom_site_fract_z
    _atom_site_occupancy
    O1       O        0.77800    0.35360    0.68089    1.000
    N1       N        0.10850    0.60310    0.91320    1.000
    N2       N        0.22740    0.66720    0.01480    1.000
    C1       C        0.96450    0.50660    0.83150    1.000
    H1       H        0.93300    0.50690    0.88600    1.000
    C2       C        0.05790    0.55330    0.83030    1.000
    C3       C        0.18810    0.60960    0.94180    1.000
    H2       H        0.21250    0.57720    0.91340    1.000
    C4       C        0.16850    0.69990    0.03460    1.000
    C5       C        0.17570    0.76190    0.10430    1.000
    H3       H        0.22430    0.78780    0.14690    1.000
    C6       C        0.10770    0.78290    0.10730    1.000
    H4       H        0.11020    0.82370    0.15340    1.000
    C7       C        0.03500    0.74480    0.04310    1.000
    H5       H        0.99060    0.76130    0.04720    1.000
    C8       C        0.02700    0.68340    0.97360    1.000
    H6       H        0.97890    0.65860    0.93040    1.000
    C9       C        0.09420    0.66080    0.97160    1.000
    O2       O        0.64640    0.42440    0.68089    1.000
    N3       N        0.39690    0.50540    0.91320    1.000
    N4       N        0.33280    0.56020    0.01480    1.000
    C10      C        0.49340    0.45790    0.83150    1.000
    H7       H        0.49310    0.42610    0.88600    1.000
    C11      C        0.44670    0.50460    0.83030    1.000
    C12      C        0.39040    0.57850    0.94180    1.000
    H8       H        0.42280    0.63530    0.91340    1.000
    C13      C        0.30010    0.46860    0.03460    1.000
    C14      C        0.23810    0.41380    0.10430    1.000
    H9       H        0.21220    0.43650    0.14690    1.000
    C15      C        0.21710    0.32480    0.10730    1.000
    H10      H        0.17630    0.28650    0.15340    1.000
    C16      C        0.25520    0.29020    0.04310    1.000
    H11      H        0.23870    0.22930    0.04720    1.000
    C17      C        0.31660    0.34360    0.97360    1.000
    H12      H        0.34140    0.32030    0.93040    1.000
    C18      C        0.33920    0.43340    0.97160    1.000
    O3       O        0.57560    0.22200    0.68089    1.000
    N5       N        0.49460    0.89150    0.91320    1.000
    N6       N        0.43980    0.77260    0.01480    1.000
    C19      C        0.54210    0.03550    0.83150    1.000
    H13      H        0.57390    0.06700    0.88600    1.000
    C20      C        0.49540    0.94210    0.83030    1.000
    C21      C        0.42150    0.81190    0.94180    1.000
    H14      H        0.36470    0.78750    0.91340    1.000
    C22      C        0.53140    0.83150    0.03460    1.000
    C23      C        0.58620    0.82430    0.10430    1.000
    H15      H        0.56350    0.77570    0.14690    1.000
    C24      C        0.67520    0.89230    0.10730    1.000
    H16      H        0.71350    0.88980    0.15340    1.000
    C25      C        0.70980    0.96500    0.04310    1.000
    H17      H        0.77070    0.00940    0.04720    1.000
    C26      C        0.65640    0.97300    0.97360    1.000
    H18      H        0.67970    0.02110    0.93040    1.000
    C27      C        0.56660    0.90580    0.97160    1.000
    O4       O        0.64640    0.22200    0.81911    1.000
    N7       N        0.39690    0.89150    0.58680    1.000
    N8       N        0.33280    0.77260    0.48520    1.000
    C28      C        0.49340    0.03550    0.66850    1.000
    H19      H        0.49310    0.06700    0.61400    1.000
    C29      C        0.44670    0.94210    0.66970    1.000
    C30      C        0.39040    0.81190    0.55820    1.000
    H20      H        0.42280    0.78750    0.58660    1.000
    C31      C        0.30010    0.83150    0.46540    1.000
    C32      C        0.23810    0.82430    0.39570    1.000
    H21      H        0.21220    0.77570    0.35310    1.000
    C33      C        0.21710    0.89230    0.39270    1.000
    H22      H        0.17630    0.88980    0.34660    1.000
    C34      C        0.25520    0.96500    0.45690    1.000
    H23      H        0.23870    0.00940    0.45280    1.000
    C35      C        0.31660    0.97300    0.52640    1.000
    H24      H        0.34140    0.02110    0.56960    1.000
    C36      C        0.33920    0.90580    0.52840    1.000
    O5       O        0.57560    0.35360    0.81911    1.000
    N9       N        0.49460    0.60310    0.58680    1.000
    N10      N        0.43980    0.66720    0.48520    1.000
    C37      C        0.54210    0.50660    0.66850    1.000
    H25      H        0.57390    0.50690    0.61400    1.000
    C38      C        0.49540    0.55330    0.66970    1.000
    C39      C        0.42150    0.60960    0.55820    1.000
    H26      H        0.36470    0.57720    0.58660    1.000
    C40      C        0.53140    0.69990    0.46540    1.000
    C41      C        0.58620    0.76190    0.39570    1.000
    H27      H        0.56350    0.78780    0.35310    1.000
    C42      C        0.67520    0.78290    0.39270    1.000
    H28      H        0.71350    0.82370    0.34660    1.000
    C43      C        0.70980    0.74480    0.45690    1.000
    H29      H        0.77070    0.76130    0.45280    1.000
    C44      C        0.65640    0.68340    0.52640    1.000
    H30      H        0.67970    0.65860    0.56960    1.000
    C45      C        0.56660    0.66080    0.52840    1.000
    O6       O        0.77800    0.42440    0.81911    1.000
    N11      N        0.10850    0.50540    0.58680    1.000
    N12      N        0.22740    0.56020    0.48520    1.000
    C46      C        0.96450    0.45790    0.66850    1.000
    H31      H        0.93300    0.42610    0.61400    1.000
    C47      C        0.05790    0.50460    0.66970    1.000
    C48      C        0.18810    0.57850    0.55820    1.000
    H32      H        0.21250    0.63530    0.58660    1.000
    C49      C        0.16850    0.46860    0.46540    1.000
    C50      C        0.17570    0.41380    0.39570    1.000
    H33      H        0.22430    0.43650    0.35310    1.000
    C51      C        0.10770    0.32480    0.39270    1.000
    H34      H        0.11020    0.28650    0.34660    1.000
    C52      C        0.03500    0.29020    0.45690    1.000
    H35      H        0.99060    0.22930    0.45280    1.000
    C53      C        0.02700    0.34360    0.52640    1.000
    H36      H        0.97890    0.32030    0.56960    1.000
    C54      C        0.09420    0.43340    0.52840    1.000
    O7       O        0.22200    0.64640    0.31911    1.000
    N13      N        0.89150    0.39690    0.08680    1.000
    N14      N        0.77260    0.33280    0.98520    1.000
    C55      C        0.03550    0.49340    0.16850    1.000
    H37      H        0.06700    0.49310    0.11400    1.000
    C56      C        0.94210    0.44670    0.16970    1.000
    C57      C        0.81190    0.39040    0.05820    1.000
    H38      H        0.78750    0.42280    0.08660    1.000
    C58      C        0.83150    0.30010    0.96540    1.000
    C59      C        0.82430    0.23810    0.89570    1.000
    H39      H        0.77570    0.21220    0.85310    1.000
    C60      C        0.89230    0.21710    0.89270    1.000
    H40      H        0.88980    0.17630    0.84660    1.000
    C61      C        0.96500    0.25520    0.95690    1.000
    H41      H        0.00940    0.23870    0.95280    1.000
    C62      C        0.97300    0.31660    0.02640    1.000
    H42      H        0.02110    0.34140    0.06960    1.000
    C63      C        0.90580    0.33920    0.02840    1.000
    O8       O        0.35360    0.57560    0.31911    1.000
    N15      N        0.60310    0.49460    0.08680    1.000
    N16      N        0.66720    0.43980    0.98520    1.000
    C64      C        0.50660    0.54210    0.16850    1.000
    H43      H        0.50690    0.57390    0.11400    1.000
    C65      C        0.55330    0.49540    0.16970    1.000
    C66      C        0.60960    0.42150    0.05820    1.000
    H44      H        0.57720    0.36470    0.08660    1.000
    C67      C        0.69990    0.53140    0.96540    1.000
    C68      C        0.76190    0.58620    0.89570    1.000
    H45      H        0.78780    0.56350    0.85310    1.000
    C69      C        0.78290    0.67520    0.89270    1.000
    H46      H        0.82370    0.71350    0.84660    1.000
    C70      C        0.74480    0.70980    0.95690    1.000
    H47      H        0.76130    0.77070    0.95280    1.000
    C71      C        0.68340    0.65640    0.02640    1.000
    H48      H        0.65860    0.67970    0.06960    1.000
    C72      C        0.66080    0.56660    0.02840    1.000
    O9       O        0.42440    0.77800    0.31911    1.000
    N17      N        0.50540    0.10850    0.08680    1.000
    N18      N        0.56020    0.22740    0.98520    1.000
    C73      C        0.45790    0.96450    0.16850    1.000
    H49      H        0.42610    0.93300    0.11400    1.000
    C74      C        0.50460    0.05790    0.16970    1.000
    C75      C        0.57850    0.18810    0.05820    1.000
    H50      H        0.63530    0.21250    0.08660    1.000
    C76      C        0.46860    0.16850    0.96540    1.000
    C77      C        0.41380    0.17570    0.89570    1.000
    H51      H        0.43650    0.22430    0.85310    1.000
    C78      C        0.32480    0.10770    0.89270    1.000
    H52      H        0.28650    0.11020    0.84660    1.000
    C79      C        0.29020    0.03500    0.95690    1.000
    H53      H        0.22930    0.99060    0.95280    1.000
    C80      C        0.34360    0.02700    0.02640    1.000
    H54      H        0.32030    0.97890    0.06960    1.000
    C81      C        0.43340    0.09420    0.02840    1.000
    O10      O        0.35360    0.77800    0.18089    1.000
    N19      N        0.60310    0.10850    0.41320    1.000
    N20      N        0.66720    0.22740    0.51480    1.000
    C82      C        0.50660    0.96450    0.33150    1.000
    H55      H        0.50690    0.93300    0.38600    1.000
    C83      C        0.55330    0.05790    0.33030    1.000
    C84      C        0.60960    0.18810    0.44180    1.000
    H56      H        0.57720    0.21250    0.41340    1.000
    C85      C        0.69990    0.16850    0.53460    1.000
    C86      C        0.76190    0.17570    0.60430    1.000
    H57      H        0.78780    0.22430    0.64690    1.000
    C87      C        0.78290    0.10770    0.60730    1.000
    H58      H        0.82370    0.11020    0.65340    1.000
    C88      C        0.74480    0.03500    0.54310    1.000
    H59      H        0.76130    0.99060    0.54720    1.000
    C89      C        0.68340    0.02700    0.47360    1.000
    H60      H        0.65860    0.97890    0.43040    1.000
    C90      C        0.66080    0.09420    0.47160    1.000
    O11      O        0.42440    0.64640    0.18089    1.000
    N21      N        0.50540    0.39690    0.41320    1.000
    N22      N        0.56020    0.33280    0.51480    1.000
    C91      C        0.45790    0.49340    0.33150    1.000
    H61      H        0.42610    0.49310    0.38600    1.000
    C92      C        0.50460    0.44670    0.33030    1.000
    C93      C        0.57850    0.39040    0.44180    1.000
    H62      H        0.63530    0.42280    0.41340    1.000
    C94      C        0.46860    0.30010    0.53460    1.000
    C95      C        0.41380    0.23810    0.60430    1.000
    H63      H        0.43650    0.21220    0.64690    1.000
    C96      C        0.32480    0.21710    0.60730    1.000
    H64      H        0.28650    0.17630    0.65340    1.000
    C97      C        0.29020    0.25520    0.54310    1.000
    H65      H        0.22930    0.23870    0.54720    1.000
    C98      C        0.34360    0.31660    0.47360    1.000
    H66      H        0.32030    0.34140    0.43040    1.000
    C99      C        0.43340    0.33920    0.47160    1.000
    O12      O        0.22200    0.57560    0.18089    1.000
    N23      N        0.89150    0.49460    0.41320    1.000
    N24      N        0.77260    0.43980    0.51480    1.000
    C100     C        0.03550    0.54210    0.33150    1.000
    H67      H        0.06700    0.57390    0.38600    1.000
    C101     C        0.94210    0.49540    0.33030    1.000
    C102     C        0.81190    0.42150    0.44180    1.000
    H68      H        0.78750    0.36470    0.41340    1.000
    C103     C        0.83150    0.53140    0.53460    1.000
    C104     C        0.82430    0.58620    0.60430    1.000
    H69      H        0.77570    0.56350    0.64690    1.000
    C105     C        0.89230    0.67520    0.60730    1.000
    H70      H        0.88980    0.71350    0.65340    1.000
    C106     C        0.96500    0.70980    0.54310    1.000
    H71      H        0.00940    0.77070    0.54720    1.000
    C107     C        0.97300    0.65640    0.47360    1.000
    H72      H        0.02110    0.67970    0.43040    1.000
    C108     C        0.90580    0.56660    0.47160    1.000
    Co1      Co       0.66667    0.33333    0.60202    1.000
    Co2      Co       0.66667    0.33333    0.89798    1.000
    Co3      Co       0.33333    0.66667    0.39798    1.000
    Co4      Co       0.33333    0.66667    0.10202    1.000
    C109     C        0.81560    0.40780    0.75000    1.000
    C110     C        0.91820    0.45910    0.75000    1.000
    C111     C        0.10500    0.55250    0.75000    1.000
    H73      H        0.16800    0.58400    0.75000    1.000
    C112     C        0.59220    0.40780    0.75000    1.000
    C113     C        0.54090    0.45910    0.75000    1.000
    C114     C        0.44750    0.55250    0.75000    1.000
    H74      H        0.41600    0.58400    0.75000    1.000
    C115     C        0.59220    0.18440    0.75000    1.000
    C116     C        0.54090    0.08180    0.75000    1.000
    C117     C        0.44750    0.89500    0.75000    1.000
    H75      H        0.41600    0.83200    0.75000    1.000
    C118     C        0.18440    0.59220    0.25000    1.000
    C119     C        0.08180    0.54090    0.25000    1.000
    C120     C        0.89500    0.44750    0.25000    1.000
    H76      H        0.83200    0.41600    0.25000    1.000
    C121     C        0.40780    0.59220    0.25000    1.000
    C122     C        0.45910    0.54090    0.25000    1.000
    C123     C        0.55250    0.44750    0.25000    1.000
    H77      H        0.58400    0.41600    0.25000    1.000
    C124     C        0.40780    0.81560    0.25000    1.000
    C125     C        0.45910    0.91820    0.25000    1.000
    C126     C        0.55250    0.10500    0.25000    1.000
    H78      H        0.58400    0.16800    0.25000    1.000
