data_functionalizedCrystal
_audit_creation_method	'EQeq! by Chris Wilmer'
_symmetry_space_group_name_H-M	'P1'
_symmetry_Int_Tables_number	1
_symmetry_cell_setting	triclinic
loop_
_symmetry_equiv_pos_as_xyz
  x,y,z
_cell_length_a	14.9443
_cell_length_b	17.1237
_cell_length_c	17.3069
_cell_angle_alpha	118.444
_cell_angle_beta	103.191
_cell_angle_gamma	96.751
loop_
_atom_site_label
_atom_site_type_symbol
_atom_site_fract_x
_atom_site_fract_y
_atom_site_fract_z
_atom_site_charge
Mof_Eu	Eu	0.88033	0.95809	0.89172	2.566
Mof_Eu	Eu	0.11967	0.04191	0.10828	2.566
Mof_H 	H 	0.5057	0.7806	0.1667	0.376
Mof_H 	H 	0.5762	0.7959	0.1176	0.347
Mof_H 	H 	0.5804	0.7226	0.1472	0.42
Mof_H 	H 	0.5714	0.0062	0.4819	0.348
Mof_H 	H 	0.67	0.0203	0.5495	0.37
Mof_H 	H 	0.6556	0.0924	0.5195	0.358
Mof_H 	H 	0.9409	0.9583	0.4275	0.312
Mof_H 	H 	0.9211	0.9135	0.3204	0.321
Mof_H 	H 	0.9338	0.0195	0.383	0.306
Mof_H 	H 	0.4957	0.8942	0.3784	0.043
Mof_H 	H 	0.4771	0.8126	0.2773	0.07
Mof_H 	H 	0.3364	0.8146	0.1934	-0.001
Mof_H 	H 	0.2392	0.8837	0.1407	0.143
Mof_H 	H 	0.4396	0.1248	0.3168	0.189
Mof_H 	H 	0.5334	0.0477	0.3607	-0.023
Mof_H 	H 	0.8072	0.1311	0.5311	0.019
Mof_H 	H 	0.8949	0.0948	0.5086	0.02
Mof_H 	H 	0.8387	0.9341	0.5336	0.02
Mof_H 	H 	0.8668	0.9196	0.6606	0.176
Mof_H 	H 	0.9175	0.1947	0.8212	0.178
Mof_H 	H 	0.8799	0.2013	0.6903	-0.012
Mof_H 	H 	0.7237	0.752	0.1513	0.086
Mof_H 	H 	0.8246	0.7855	0.2249	0.08
Mof_H 	H 	0.8555	0.7335	0.0741	0.023
Mof_H 	H 	0.9237	0.7851	0.9985	0.113
Mof_H 	H 	0.8602	0.0255	0.137	0.135
Mof_H 	H 	0.7849	0.9641	0.2036	-0.028
Mof_H 	H 	0.3456	0.4249	0.4559	0.357
Mof_H 	H 	0.3263	0.5116	0.4528	0.344
Mof_H 	H 	0.4262	0.5175	0.512	0.33
Mof_H 	H 	0.4757	0.5708	0.8207	0.414
Mof_H 	H 	0.4204	0.639	0.8745	0.378
Mof_H 	H 	0.3871	0.5341	0.8397	0.461
Mof_H 	H 	0.0515	0.5055	0.5792	0.308
Mof_H 	H 	0.0822	0.5749	0.6867	0.314
Mof_H 	H 	0.0878	0.6114	0.6198	0.298
Mof_H 	H 	0.4821	0.4785	0.6025	0.053
Mof_H 	H 	0.4857	0.4778	0.6932	0.099
Mof_H 	H 	0.6444	0.5461	0.7779	0.025
Mof_H 	H 	0.7722	0.6704	0.8612	0.186
Mof_H 	H 	0.6328	0.7954	0.747	0.182
Mof_H 	H 	0.5038	0.6708	0.6708	-0.025
Mof_H 	H 	0.2575	0.5712	0.8445	0.07
Mof_H 	H 	0.154	0.5362	0.7742	0.057
Mof_H 	H 	0.2994	0.7391	0.8251	-0.051
Mof_H 	H 	0.2765	0.8802	0.8993	0.176
Mof_H 	H 	0.0845	0.7828	0.9824	0.157
Mof_H 	H 	0.1024	0.6407	0.8953	-0.024
Mof_H 	H 	0.205	0.549	0.4549	0.012
Mof_H 	H 	0.1155	0.5432	0.4868	-0.001
Mof_H 	H 	0.113	0.3737	0.4878	0.009
Mof_H 	H 	0.0593	0.2213	0.3797	0.181
Mof_H 	H 	0.0835	0.2806	0.1848	0.139
Mof_H 	H 	0.1275	0.433	0.2977	-0.02
Mof_H 	H 	0.4943	0.2194	0.8333	0.377
Mof_H 	H 	0.4238	0.2041	0.8824	0.348
Mof_H 	H 	0.4196	0.2774	0.8528	0.421
Mof_H 	H 	0.4286	0.9938	0.5181	0.349
Mof_H 	H 	0.33	0.9797	0.4505	0.37
Mof_H 	H 	0.3444	0.9076	0.4805	0.358
Mof_H 	H 	0.0591	0.0417	0.5725	0.312
Mof_H 	H 	0.0789	0.0865	0.6796	0.321
Mof_H 	H 	0.0662	0.9805	0.617	0.306
Mof_H 	H 	0.5043	0.1058	0.6216	0.043
Mof_H 	H 	0.5229	0.1874	0.7227	0.07
Mof_H 	H 	0.6636	0.1854	0.8066	-0.001
Mof_H 	H 	0.7608	0.1163	0.8593	0.143
Mof_H 	H 	0.5604	0.8752	0.6832	0.189
Mof_H 	H 	0.4666	0.9523	0.6393	-0.023
Mof_H 	H 	0.1928	0.8689	0.4689	0.019
Mof_H 	H 	0.1051	0.9052	0.4914	0.02
Mof_H 	H 	0.1613	0.0659	0.4664	0.02
Mof_H 	H 	0.1332	0.0804	0.3394	0.176
Mof_H 	H 	0.0825	0.8053	0.1788	0.178
Mof_H 	H 	0.1201	0.7987	0.3097	-0.012
Mof_H 	H 	0.2763	0.248	0.8487	0.086
Mof_H 	H 	0.1754	0.2145	0.7751	0.08
Mof_H 	H 	0.1445	0.2665	0.9259	0.023
Mof_H 	H 	0.0763	0.2149	0.0015	0.113
Mof_H 	H 	0.1398	0.9745	0.863	0.135
Mof_H 	H 	0.2151	0.0359	0.7964	-0.028
Mof_H 	H 	0.6544	0.5751	0.5441	0.357
Mof_H 	H 	0.6737	0.4884	0.5472	0.344
Mof_H 	H 	0.5738	0.4825	0.488	0.33
Mof_H 	H 	0.5243	0.4292	0.1793	0.414
Mof_H 	H 	0.5796	0.361	0.1255	0.378
Mof_H 	H 	0.6129	0.4659	0.1603	0.461
Mof_H 	H 	0.9485	0.4945	0.4208	0.308
Mof_H 	H 	0.9178	0.4251	0.3133	0.314
Mof_H 	H 	0.9122	0.3886	0.3802	0.298
Mof_H 	H 	0.5179	0.5215	0.3975	0.053
Mof_H 	H 	0.5143	0.5222	0.3068	0.099
Mof_H 	H 	0.3556	0.4539	0.2221	0.025
Mof_H 	H 	0.2278	0.3296	0.1388	0.186
Mof_H 	H 	0.3672	0.2046	0.253	0.182
Mof_H 	H 	0.4962	0.3292	0.3292	-0.025
Mof_H 	H 	0.7425	0.4288	0.1555	0.07
Mof_H 	H 	0.846	0.4638	0.2258	0.057
Mof_H 	H 	0.7006	0.2609	0.1749	-0.051
Mof_H 	H 	0.7235	0.1198	0.1007	0.176
Mof_H 	H 	0.9155	0.2172	0.0176	0.157
Mof_H 	H 	0.8976	0.3593	0.1047	-0.024
Mof_H 	H 	0.795	0.451	0.5451	0.012
Mof_H 	H 	0.8845	0.4568	0.5132	-0.001
Mof_H 	H 	0.887	0.6263	0.5122	0.009
Mof_H 	H 	0.9407	0.7787	0.6203	0.181
Mof_H 	H 	0.9165	0.7194	0.8152	0.139
Mof_H 	H 	0.8725	0.567	0.7023	-0.02
Mof_C 	C 	0.5691	0.7818	0.1637	-1.025
Mof_C 	C 	0.6392	0.0282	0.4995	-1.011
Mof_C 	C 	0.9095	0.9601	0.3736	-0.897
Mof_C 	C 	0.6076	0.9039	0.3312	-0.267
Mof_C 	C 	0.6714	0.9749	0.418	0.441
Mof_C 	C 	0.7695	0.9965	0.4289	-0.29
Mof_C 	C 	0.8024	0.9425	0.3576	0.392
Mof_C 	C 	0.7399	0.8706	0.2721	-0.244
Mof_C 	C 	0.6411	0.8553	0.2584	0.429
Mof_C 	C 	0.5026	0.8787	0.3188	0.046
Mof_C 	C 	0.357	0.8774	0.2173	0.163
Mof_C 	C 	0.2977	0.9188	0.1869	-0.326
Mof_C 	C 	0.3255	0.0168	0.2263	0.442
Mof_C 	C 	0.4165	0.0618	0.2907	-0.358
Mof_C 	C 	0.4733	0.0149	0.3167	0.199
Mof_C 	C 	0.835	0.0796	0.5176	0.072
Mof_C 	C 	0.8527	0.9863	0.5921	0.19
Mof_C 	C 	0.8706	0.9776	0.6684	-0.387
Mof_C 	C 	0.8945	0.0538	0.7571	0.476
Mof_C 	C 	0.8996	0.1408	0.7633	-0.375
Mof_C 	C 	0.8784	0.1445	0.6852	0.198
Mof_C 	C 	0.7759	0.8058	0.1971	0.012
Mof_C 	C 	0.8571	0.793	0.0866	0.156
Mof_C 	C 	0.8994	0.824	0.0431	-0.291
Mof_C 	C 	0.9078	0.9153	0.0642	0.407
Mof_C 	C 	0.8609	0.9664	0.1243	-0.335
Mof_C 	C 	0.8164	0.9295	0.1642	0.173
Mof_C 	C 	0.3588	0.4908	0.4912	-0.98
Mof_C 	C 	0.4141	0.5776	0.8257	-1.104
Mof_C 	C 	0.0952	0.5621	0.6306	-0.902
Mof_C 	C 	0.3249	0.5198	0.5739	0.431
Mof_C 	C 	0.3821	0.5343	0.658	-0.268
Mof_C 	C 	0.3491	0.5599	0.734	0.459
Mof_C 	C 	0.2552	0.5661	0.7244	-0.264
Mof_C 	C 	0.1962	0.5535	0.6401	0.389
Mof_C 	C 	0.232	0.5323	0.567	-0.287
Mof_C 	C 	0.4791	0.5147	0.6648	0.029
Mof_C 	C 	0.6415	0.598	0.7738	0.188
Mof_C 	C 	0.7183	0.6719	0.8229	-0.373
Mof_C 	C 	0.7179	0.7506	0.8169	0.475
Mof_C 	C 	0.6355	0.7463	0.7561	-0.395
Mof_C 	C 	0.5585	0.671	0.7096	0.203
Mof_C 	C 	0.215	0.5811	0.8004	0.04
Mof_C 	C 	0.2538	0.748	0.855	0.233
Mof_C 	C 	0.242	0.8329	0.9015	-0.421
Mof_C 	C 	0.1789	0.8523	0.9537	0.503
Mof_C 	C 	0.1272	0.7752	0.9494	-0.412
Mof_C 	C 	0.1387	0.6905	0.8981	0.218
Mof_C 	C 	0.169	0.5173	0.4765	0.075
Mof_C 	C 	0.1085	0.3539	0.4264	0.192
Mof_C 	C 	0.0778	0.2626	0.3622	-0.357
Mof_C 	C 	0.0733	0.2292	0.2694	0.433
Mof_C 	C 	0.0908	0.2978	0.246	-0.348
Mof_C 	C 	0.1184	0.389	0.3142	0.168
Mof_C 	C 	0.4309	0.2182	0.8363	-1.025
Mof_C 	C 	0.3608	0.9718	0.5005	-1.011
Mof_C 	C 	0.0905	0.0399	0.6264	-0.897
Mof_C 	C 	0.3924	0.0961	0.6688	-0.267
Mof_C 	C 	0.3286	0.0251	0.582	0.441
Mof_C 	C 	0.2305	0.0035	0.5711	-0.29
Mof_C 	C 	0.1976	0.0575	0.6424	0.392
Mof_C 	C 	0.2601	0.1294	0.7279	-0.244
Mof_C 	C 	0.3589	0.1447	0.7416	0.429
Mof_C 	C 	0.4974	0.1213	0.6812	0.046
Mof_C 	C 	0.643	0.1226	0.7827	0.163
Mof_C 	C 	0.7023	0.0812	0.8131	-0.326
Mof_C 	C 	0.6745	0.9832	0.7737	0.442
Mof_C 	C 	0.5835	0.9382	0.7093	-0.358
Mof_C 	C 	0.5267	0.9851	0.6833	0.199
Mof_C 	C 	0.165	0.9204	0.4824	0.072
Mof_C 	C 	0.1473	0.0137	0.4079	0.19
Mof_C 	C 	0.1294	0.0224	0.3316	-0.387
Mof_C 	C 	0.1055	0.9462	0.2429	0.476
Mof_C 	C 	0.1004	0.8592	0.2367	-0.375
Mof_C 	C 	0.1216	0.8555	0.3148	0.198
Mof_C 	C 	0.2241	0.1942	0.8029	0.012
Mof_C 	C 	0.1429	0.207	0.9134	0.156
Mof_C 	C 	0.1006	0.176	0.9569	-0.291
Mof_C 	C 	0.0922	0.0847	0.9358	0.407
Mof_C 	C 	0.1391	0.0336	0.8757	-0.335
Mof_C 	C 	0.1836	0.0705	0.8358	0.173
Mof_C 	C 	0.6412	0.5092	0.5088	-0.98
Mof_C 	C 	0.5859	0.4224	0.1743	-1.104
Mof_C 	C 	0.9048	0.4379	0.3694	-0.902
Mof_C 	C 	0.6751	0.4802	0.4261	0.431
Mof_C 	C 	0.6179	0.4657	0.342	-0.268
Mof_C 	C 	0.6509	0.4401	0.266	0.459
Mof_C 	C 	0.7448	0.4339	0.2756	-0.264
Mof_C 	C 	0.8038	0.4465	0.3599	0.389
Mof_C 	C 	0.768	0.4677	0.433	-0.287
Mof_C 	C 	0.5209	0.4853	0.3352	0.029
Mof_C 	C 	0.3585	0.402	0.2262	0.188
Mof_C 	C 	0.2817	0.3281	0.1771	-0.373
Mof_C 	C 	0.2821	0.2494	0.1831	0.475
Mof_C 	C 	0.3645	0.2537	0.2439	-0.395
Mof_C 	C 	0.4415	0.329	0.2904	0.203
Mof_C 	C 	0.785	0.4189	0.1996	0.04
Mof_C 	C 	0.7462	0.252	0.145	0.233
Mof_C 	C 	0.758	0.1671	0.0985	-0.421
Mof_C 	C 	0.8211	0.1477	0.0463	0.503
Mof_C 	C 	0.8728	0.2248	0.0506	-0.412
Mof_C 	C 	0.8613	0.3095	0.1019	0.218
Mof_C 	C 	0.831	0.4827	0.5235	0.075
Mof_C 	C 	0.8915	0.6461	0.5736	0.192
Mof_C 	C 	0.9222	0.7374	0.6378	-0.357
Mof_C 	C 	0.9267	0.7708	0.7306	0.433
Mof_C 	C 	0.9092	0.7022	0.754	-0.348
Mof_C 	C 	0.8816	0.611	0.6858	0.168
Mof_N 	N 	0.5598	0.5977	0.7185	-0.187
Mof_N 	N 	0.1328	0.4171	0.4039	-0.186
Mof_N 	N 	0.2016	0.6757	0.8505	-0.196
Mof_N 	N 	0.8161	0.8454	0.149	-0.172
Mof_N 	N 	0.8549	0.068	0.5994	-0.188
Mof_N 	N 	0.4458	0.9247	0.2814	-0.183
Mof_N 	N 	0.4402	0.4023	0.2815	-0.187
Mof_N 	N 	0.8672	0.5829	0.5961	-0.186
Mof_N 	N 	0.7984	0.3243	0.1495	-0.196
Mof_N 	N 	0.1839	0.1546	0.851	-0.172
Mof_N 	N 	0.1451	0.932	0.4006	-0.188
Mof_N 	N 	0.5542	0.0753	0.7186	-0.183
Mof_O 	O 	0.7901	0.8222	0.8645	-0.589
Mof_O 	O 	0.0545	0.143	0.2113	-0.595
Mof_O 	O 	0.1699	0.9328	0.9996	-0.633
Mof_O 	O 	0.9552	0.9487	0.0255	-0.716
Mof_O 	O 	0.9082	0.0481	0.8292	-0.59
Mof_O 	O 	0.271	0.0588	0.2022	-0.558
Mof_O 	O 	0.2099	0.1778	0.1355	-0.589
Mof_O 	O 	0.9455	0.857	0.7887	-0.595
Mof_O 	O 	0.8301	0.0672	0.0004	-0.633
Mof_O 	O 	0.0448	0.0513	0.9745	-0.716
Mof_O 	O 	0.0918	0.9519	0.1708	-0.59
Mof_O 	O 	0.729	0.9412	0.7978	-0.558
Mof_C 	C 	0.7927	0.6917	0.3555	0.822
Mof_S 	S 	0.9217	0.728	0.3959	0.331
Mof_O 	O 	0.9436	0.7459	0.3282	-0.19
Mof_O 	O 	0.9455	0.6488	0.3932	-0.2
Mof_O 	O 	0.9434	0.807	0.485	-0.223
Mof_F 	F 	0.7577	0.7611	0.3637	-0.458
Mof_F 	F 	0.7591	0.6248	0.2671	-0.461
Mof_F 	F 	0.7626	0.66	0.4034	-0.457
Mof_C 	C 	0.538	0.7335	0.4312	0.891
Mof_S 	S 	0.4408	0.7079	0.4631	0.285
Mof_O 	O 	0.3871	0.6168	0.3837	-0.181
Mof_O 	O 	0.477	0.7066	0.5426	-0.212
Mof_O 	O 	0.3987	0.7778	0.4679	-0.209
Mof_F 	F 	0.5864	0.8196	0.4866	-0.5
Mof_F 	F 	0.6043	0.6895	0.4487	-0.429
Mof_F 	F 	0.5282	0.7105	0.3528	-0.516
Mof_C 	C 	0.661	0.492	0.963	0.792
Mof_S 	S 	0.7107	0.3989	0.9519	0.297
Mof_O 	O 	0.6568	0.3485	0.9777	-0.207
Mof_O 	O 	0.8077	0.45	0.0156	-0.151
Mof_O 	O 	0.6984	0.3457	0.8536	-0.158
Mof_F 	F 	0.5691	0.4575	0.9035	-0.437
Mof_F 	F 	0.704	0.5489	0.9465	-0.493
Mof_F 	F 	0.6612	0.5451	0.0501	-0.444
Mof_C 	C 	0.2073	0.3083	0.6445	0.822
Mof_S 	S 	0.0783	0.272	0.6041	0.331
Mof_O 	O 	0.0564	0.2541	0.6718	-0.19
Mof_O 	O 	0.0545	0.3512	0.6068	-0.2
Mof_O 	O 	0.0566	0.193	0.515	-0.223
Mof_F 	F 	0.2423	0.2389	0.6363	-0.458
Mof_F 	F 	0.2409	0.3752	0.7329	-0.461
Mof_F 	F 	0.2374	0.34	0.5966	-0.457
Mof_C 	C 	0.462	0.2665	0.5688	0.891
Mof_S 	S 	0.5592	0.2921	0.5369	0.285
Mof_O 	O 	0.6129	0.3832	0.6163	-0.181
Mof_O 	O 	0.523	0.2934	0.4574	-0.212
Mof_O 	O 	0.6013	0.2222	0.5321	-0.209
Mof_F 	F 	0.4136	0.1804	0.5134	-0.5
Mof_F 	F 	0.3957	0.3105	0.5513	-0.429
Mof_F 	F 	0.4718	0.2895	0.6472	-0.516
Mof_C 	C 	0.339	0.508	0.037	0.792
Mof_S 	S 	0.2893	0.6011	0.0481	0.297
Mof_O 	O 	0.3432	0.6515	0.0223	-0.207
Mof_O 	O 	0.1923	0.55	0.9844	-0.151
Mof_O 	O 	0.3016	0.6543	0.1464	-0.158
Mof_F 	F 	0.4309	0.5425	0.0965	-0.437
Mof_F 	F 	0.296	0.4511	0.0535	-0.493
Mof_F 	F 	0.3388	0.4549	0.9499	-0.444
_end
