data_functionalizedCrystal
_audit_creation_method	'EQeq! by Chris Wilmer'
_symmetry_space_group_name_H-M	'P1'
_symmetry_Int_Tables_number	1
_symmetry_cell_setting	triclinic
loop_
_symmetry_equiv_pos_as_xyz
  x,y,z
_cell_length_a	13.56
_cell_length_b	25.683
_cell_length_c	26.59
_cell_angle_alpha	99.185
_cell_angle_beta	104.314
_cell_angle_gamma	104.895
loop_
_atom_site_label
_atom_site_type_symbol
_atom_site_fract_x
_atom_site_fract_y
_atom_site_fract_z
_atom_site_charge
Mof_Ti	Ti	0.47669	0.3763	0.44799	1.476
Mof_Ti	Ti	0.33455	0.4233	0.50717	1.522
Mof_Ti	Ti	0.63278	0.46473	0.54864	1.484
Mof_Ti	Ti	0.31037	0.04119	0.94473	1.461
Mof_Ti	Ti	0.51281	0.0271	0.91846	1.52
Mof_Ti	Ti	0.50046	0.0981	0.05012	1.535
Mof_Ti	Ti	0.62849	0.07706	0.56965	1.558
Mof_Ti	Ti	0.7068	0.05662	0.47041	1.453
Mof_Ti	Ti	0.63162	0.94058	0.49578	1.589
Mof_Ti	Ti	0.93299	0.53095	0.88917	1.474
Mof_Ti	Ti	0.14787	0.53265	0.96628	1.52
Mof_Ti	Ti	0.89258	0.41444	0.91636	1.581
Mof_Cu	Cu	0.35319	0.27126	0.71662	0.763
Mof_Cu	Cu	0.30996	0.26069	0.80747	0.766
Mof_Cu	Cu	0.17487	0.19505	0.70784	0.751
Mof_Cu	Cu	0.16511	0.2924	0.7415	0.764
Mof_Br	Br	0.34927	0.18118	0.74602	-0.727
Mof_Br	Br	0.14613	0.25434	0.64711	-0.72
Mof_Br	Br	0.38379	0.35092	0.78571	-0.723
Mof_Br	Br	0.11777	0.23166	0.79887	-0.696
Mof_P 	P 	0.49618	0.51856	0.61188	0.561
Mof_P 	P 	0.71419	0.08187	0.02528	0.561
Mof_P 	P 	0.11313	0.41524	0.99919	0.564
Mof_P 	P 	0.54329	0.95893	0.59826	0.572
Mof_N 	N 	0.4298	0.27233	0.66118	-0.253
Mof_N 	N 	0.4141	0.26156	0.8768	-0.247
Mof_N 	N 	0.0687	0.11829	0.68241	-0.258
Mof_N 	N 	0.1236	0.36187	0.74702	-0.254
Mof_C 	C 	0.4152	0.30283	0.62563	0.097
Mof_H 	H 	0.3758	0.328	0.6301	-0.018
Mof_C 	C 	0.4551	0.29955	0.58204	-0.218
Mof_C 	C 	0.5099	0.26167	0.57482	0.08
Mof_H 	H 	0.5375	0.2583	0.5453	-0.03
Mof_C 	C 	0.5244	0.22871	0.61094	-0.162
Mof_H 	H 	0.5613	0.2023	0.6066	0.057
Mof_C 	C 	0.4836	0.23562	0.65329	0.056
Mof_H 	H 	0.4938	0.2134	0.6783	-0.014
Mof_C 	C 	0.4315	0.33337	0.54264	0.453
Mof_C 	C 	0.487	0.52825	0.6787	-0.173
Mof_C 	C 	0.5032	0.57999	0.70812	0.065
Mof_H 	H 	0.522	0.6114	0.6937	-0.033
Mof_C 	C 	0.4921	0.5869	0.75944	-0.175
Mof_H 	H 	0.5019	0.6229	0.7795	0.049
Mof_C 	C 	0.4675	0.5426	0.78061	0.077
Mof_H 	H 	0.4628	0.5478	0.816	-0.027
Mof_C 	C 	0.4497	0.49187	0.75209	-0.188
Mof_H 	H 	0.4292	0.4607	0.7666	0.09
Mof_C 	C 	0.4609	0.48434	0.70133	0.078
Mof_H 	H 	0.4502	0.448	0.6818	-0.009
Mof_C 	C 	0.2285	0.33824	0.39896	1.239
Mof_C 	C 	0.1867	0.2817	0.4038	-1.587
Mof_H 	H 	0.1208	0.2621	0.3744	0.416
Mof_H 	H 	0.1712	0.2825	0.438	0.421
Mof_H 	H 	0.2399	0.2624	0.4023	0.429
Mof_C 	C 	0.2104	0.3575	0.3569	-2.063
Mof_H 	H 	0.2491	0.3972	0.3661	0.586
Mof_H 	H 	0.1334	0.3516	0.3426	0.54
Mof_H 	H 	0.2348	0.3382	0.3298	0.56
Mof_C 	C 	0.7196	0.39864	0.46826	1.033
Mof_C 	C 	0.7414	0.3492	0.4848	-1.307
Mof_H 	H 	0.8026	0.3432	0.4741	0.334
Mof_H 	H 	0.6782	0.3166	0.4675	0.332
Mof_H 	H 	0.7578	0.3552	0.5237	0.341
Mof_C 	C 	0.7818	0.4378	0.4553	-1.762
Mof_H 	H 	0.7447	0.4646	0.4459	0.498
Mof_H 	H 	0.8014	0.422	0.4245	0.463
Mof_H 	H 	0.8466	0.4565	0.4855	0.458
Mof_C 	C 	0.5026	0.304	0.9029	0.078
Mof_H 	H 	0.5133	0.3368	0.8901	-0.015
Mof_C 	C 	0.5781	0.30293	0.94656	-0.179
Mof_H 	H 	0.6406	0.3339	0.9632	0.046
Mof_C 	C 	0.5625	0.25617	0.96645	0.105
Mof_H 	H 	0.6138	0.2545	0.9973	-0.038
Mof_C 	C 	0.473	0.21253	0.94146	-0.22
Mof_C 	C 	0.4002	0.21586	0.89635	0.107
Mof_H 	H 	0.3383	0.1849	0.8785	-0.028
Mof_C 	C 	0.4496	0.16104	0.96205	0.452
Mof_C 	C 	0.84	0.13508	0.03765	-0.176
Mof_C 	C 	0.8675	0.1586	0.0018	0.082
Mof_H 	H 	0.819	0.1474	0.9666	-0.016
Mof_C 	C 	0.9658	0.2	0.0119	-0.176
Mof_H 	H 	0.9813	0.2141	0.9829	0.069
Mof_C 	C 	0.0325	0.219	0.0562	0.054
Mof_C 	C 	0.0076	0.2005	0.0943	-0.165
Mof_H 	H 	0.0555	0.2158	0.1295	0.037
Mof_C 	C 	0.9064	0.1556	0.0862	0.056
Mof_H 	H 	0.8904	0.1423	0.1155	-0.03
Mof_C 	C 	0.2889	0.9873	0.82938	1.203
Mof_C 	C 	0.284	0.9354	0.8139	-1.945
Mof_H 	H 	0.2932	0.9189	0.8449	0.551
Mof_H 	H 	0.3408	0.9336	0.7977	0.528
Mof_H 	H 	0.2142	0.9149	0.7877	0.519
Mof_C 	C 	0.2784	0.026	0.79659	-1.637
Mof_H 	H 	0.2339	0.0059	0.7602	0.449
Mof_H 	H 	0.3494	0.0469	0.7959	0.453
Mof_H 	H 	0.2447	0.0518	0.8113	0.456
Mof_C 	C 	0.2648	0.0902	0.0491	0.782
Mof_C 	C 	0.253	0.1439	0.0497	-1.21
Mof_H 	H 	0.2016	0.1491	0.0688	0.34
Mof_H 	H 	0.2269	0.1473	0.013	0.344
Mof_H 	H 	0.3224	0.1723	0.0679	0.329
Mof_C 	C 	0.2173	0.0447	0.0667	-1.275
Mof_H 	H 	0.2423	0.0136	0.0551	0.376
Mof_H 	H 	0.1394	0.034	0.0516	0.346
Mof_H 	H 	0.2369	0.0544	0.1058	0.351
Mof_C 	C 	0.074	0.08311	0.71296	0.074
Mof_H 	H 	0.1235	0.0964	0.7479	-0.038
Mof_C 	C 	0.0126	0.02834	0.69782	-0.187
Mof_H 	H 	0.0184	0.0044	0.7215	0.046
Mof_C 	C 	0.9424	0.00969	0.64695	0.095
Mof_H 	H 	0.9005	0.9717	0.6345	-0.02
Mof_C 	C 	0.932	0.04523	0.61385	-0.233
Mof_C 	C 	0.9986	0.09958	0.63309	0.082
Mof_H 	H 	0.9944	0.1246	0.6105	-0.031
Mof_C 	C 	0.8492	0.02656	0.5608	0.468
Mof_C 	C 	0.5825	0.93849	0.65956	-0.201
Mof_C 	C 	0.6844	0.9396	0.6814	0.109
Mof_H 	H 	0.7372	0.9508	0.6642	-0.02
Mof_C 	C 	0.7112	0.9237	0.7306	-0.242
Mof_H 	H 	0.7831	0.9247	0.7455	0.073
Mof_C 	C 	0.6459	0.9086	0.7557	0.165
Mof_H 	H 	0.6671	0.8975	0.7881	-0.078
Mof_C 	C 	0.5488	0.9087	0.7357	-0.248
Mof_H 	H 	0.4993	0.8995	0.7551	0.051
Mof_C 	C 	0.5139	0.9218	0.6869	0.114
Mof_H 	H 	0.4406	0.919	0.6727	-0.056
Mof_C 	C 	0.6949	0.94572	0.39363	1.108
Mof_H 	H 	0.6638	0.9059	0.3936	-0.323
Mof_C 	C 	0.6284	0.9535	0.3466	-1.483
Mof_H 	H 	0.555	0.9462	0.3486	0.444
Mof_H 	H 	0.6288	0.9278	0.3152	0.441
Mof_H 	H 	0.6555	0.9917	0.3437	0.407
Mof_C 	C 	0.8107	0.9535	0.3993	-1.324
Mof_H 	H 	0.8173	0.9323	0.3669	0.392
Mof_H 	H 	0.8422	0.9404	0.4302	0.384
Mof_H 	H 	0.8484	0.9929	0.4045	0.362
Mof_C 	C 	0.7257	0.17755	0.52719	1.111
Mof_H 	H 	0.7006	0.1899	0.5581	-0.322
Mof_C 	C 	0.6594	0.19138	0.4853	-1.517
Mof_H 	H 	0.5848	0.1693	0.4786	0.453
Mof_H 	H 	0.6807	0.1837	0.453	0.409
Mof_H 	H 	0.6665	0.2309	0.4952	0.423
Mof_C 	C 	0.8454	0.20404	0.5498	-1.303
Mof_H 	H 	0.8631	0.2443	0.5539	0.367
Mof_H 	H 	0.8804	0.189	0.5254	0.355
Mof_H 	H 	0.8706	0.1961	0.5847	0.384
Mof_C 	C 	0.0689	0.37592	0.77989	0.102
Mof_H 	H 	0.0405	0.3496	0.7981	-0.018
Mof_C 	C 	0.052	0.4269	0.78846	-0.223
Mof_C 	C 	0.092	0.46496	0.76163	0.098
Mof_H 	H 	0.0822	0.5005	0.7667	-0.034
Mof_C 	C 	0.1466	0.44997	0.72723	-0.183
Mof_H 	H 	0.1739	0.475	0.7076	0.061
Mof_C 	C 	0.1611	0.39932	0.72171	0.089
Mof_H 	H 	0.2003	0.3901	0.6984	-0.025
Mof_C 	C 	0.9944	0.44117	0.82703	0.457
Mof_C 	C 	0.1839	0.3651	0.9979	-0.147
Mof_C 	C 	0.1755	0.33071	0.95202	0.055
Mof_H 	H 	0.1316	0.333	0.919	0.012
Mof_C 	C 	0.2309	0.29168	0.95264	-0.137
Mof_H 	H 	0.2223	0.2671	0.92	0.07
Mof_C 	C 	0.2951	0.28811	0.99751	0.046
Mof_H 	H 	0.3341	0.2622	0.997	-0.006
Mof_C 	C 	0.3042	0.32174	0.04396	-0.14
Mof_H 	H 	0.3494	0.3193	0.0765	0.045
Mof_C 	C 	0.2484	0.35984	0.04481	0.052
Mof_H 	H 	0.2545	0.3827	0.078	-0.02
Mof_C 	C 	0.1395	0.63299	0.9154	0.867
Mof_C 	C 	0.1685	0.6299	0.8661	-1.228
Mof_H 	H 	0.206	0.6672	0.8641	0.332
Mof_H 	H 	0.1036	0.6137	0.8355	0.331
Mof_H 	H 	0.2154	0.6066	0.8655	0.332
Mof_C 	C 	0.1273	0.6755	0.9479	-1.472
Mof_H 	H 	0.1085	0.6631	0.9782	0.435
Mof_H 	H 	0.0701	0.6879	0.928	0.419
Mof_H 	H 	0.1944	0.7063	0.961	0.418
Mof_C 	C 	0.7019	0.44195	0.84976	1.037
Mof_H 	H 	0.6754	0.4058	0.8591	-0.299
Mof_C 	C 	0.6488	0.4773	0.87322	-1.375
Mof_H 	H 	0.6695	0.4815	0.912	0.415
Mof_H 	H 	0.5711	0.4604	0.8582	0.425
Mof_H 	H 	0.67	0.5138	0.8653	0.391
Mof_C 	C 	0.6825	0.42671	0.79083	-1.286
Mof_H 	H 	0.723	0.4017	0.7826	0.372
Mof_H 	H 	0.7056	0.4603	0.7783	0.356
Mof_H 	H 	0.6059	0.4081	0.7729	0.39
Mof_O 	O 	0.47159	0.32829	0.50429	-0.536
Mof_O 	O 	0.37466	0.36345	0.54984	-0.505
Mof_O 	O 	0.58791	0.4955	0.60917	-0.541
Mof_O 	O 	0.38908	0.47874	0.57563	-0.536
Mof_O 	O 	0.63058	0.4083	0.48397	-0.825
Mof_O 	O 	0.51862	0.57636	0.60121	-0.547
Mof_O 	O 	0.32471	0.36803	0.44117	-0.863
Mof_O 	O 	0.30494	0.47344	0.46668	-0.795
Mof_O 	O 	0.48594	0.43622	0.50745	-0.758
Mof_O 	O 	0.36725	0.12047	0.93247	-0.52
Mof_O 	O 	0.50931	0.16165	0.00602	-0.512
Mof_O 	O 	0.65888	0.0667	0.96527	-0.542
Mof_O 	O 	0.65051	0.10642	0.05687	-0.543
Mof_O 	O 	0.35418	0.01315	0.88372	-0.863
Mof_O 	O 	0.33899	0.07913	0.02017	-0.742
Mof_O 	O 	0.48589	0.0419	0.08629	-0.787
Mof_O 	O 	0.46268	0.05069	0.97656	-0.767
Mof_O 	O 	0.74109	0.03303	0.04444	-0.541
Mof_O 	O 	0.50503	0.09033	0.55252	-0.773
Mof_O 	O 	0.78736	0.97814	0.55053	-0.524
Mof_O 	O 	0.8445	0.06001	0.53141	-0.531
Mof_O 	O 	0.42182	0.94397	0.58178	-0.541
Mof_O 	O 	0.59653	0.02129	0.61056	-0.547
Mof_O 	O 	0.5814	0.92728	0.55775	-0.533
Mof_O 	O 	0.69879	0.11804	0.52223	-0.805
Mof_O 	O 	0.68751	0.97737	0.44232	-0.794
Mof_O 	O 	0.63071	0.01903	0.51535	-0.772
Mof_O 	O 	0.9635	0.40613	0.85188	-0.502
Mof_O 	O 	0.98175	0.48893	0.83148	-0.535
Mof_O 	O 	0.10677	0.42852	0.05585	-0.542
Mof_O 	O 	0.17675	0.46691	0.98647	-0.542
Mof_O 	O 	0.00332	0.38842	0.95788	-0.528
Mof_O 	O 	0.81659	0.46085	0.8767	-0.777
Mof_O 	O 	0.08332	0.57786	0.91913	-0.778
Mof_O 	O 	0.1697	0.57546	0.02944	-0.777
Mof_O 	O 	0.00114	0.48931	0.93626	-0.773
Mof_Ti	Ti	0.52331	0.6237	0.55201	1.477
Mof_Ti	Ti	0.66545	0.5767	0.49283	1.523
Mof_Ti	Ti	0.36722	0.53527	0.45136	1.485
Mof_Ti	Ti	0.68963	0.95881	0.05527	1.462
Mof_Ti	Ti	0.48719	0.9729	0.08154	1.521
Mof_Ti	Ti	0.49954	0.9019	0.94988	1.536
Mof_Ti	Ti	0.37151	0.92294	0.43035	1.559
Mof_Ti	Ti	0.2932	0.94338	0.52959	1.454
Mof_Ti	Ti	0.36838	0.05942	0.50422	1.59
Mof_Ti	Ti	0.06701	0.46905	0.11083	1.475
Mof_Ti	Ti	0.85213	0.46735	0.03372	1.521
Mof_Ti	Ti	0.10742	0.58556	0.08364	1.582
Mof_Cu	Cu	0.64681	0.72874	0.28338	0.763
Mof_Cu	Cu	0.69004	0.73931	0.19253	0.766
Mof_Cu	Cu	0.82513	0.80495	0.29216	0.751
Mof_Cu	Cu	0.83489	0.7076	0.2585	0.764
Mof_Br	Br	0.65073	0.81882	0.25398	-0.727
Mof_Br	Br	0.85387	0.74566	0.35289	-0.72
Mof_Br	Br	0.61621	0.64908	0.21429	-0.723
Mof_Br	Br	0.88223	0.76834	0.20113	-0.696
Mof_P 	P 	0.50382	0.48144	0.38812	0.561
Mof_P 	P 	0.28581	0.91813	0.97472	0.561
Mof_P 	P 	0.88687	0.58476	0.00081	0.564
Mof_P 	P 	0.45671	0.04107	0.40174	0.572
Mof_N 	N 	0.5702	0.72767	0.33882	-0.253
Mof_N 	N 	0.5859	0.73844	0.1232	-0.247
Mof_N 	N 	0.9313	0.88171	0.31759	-0.258
Mof_N 	N 	0.8764	0.63813	0.25298	-0.254
Mof_C 	C 	0.5848	0.69717	0.37437	0.097
Mof_H 	H 	0.6242	0.672	0.3699	-0.018
Mof_C 	C 	0.5449	0.70045	0.41796	-0.218
Mof_C 	C 	0.4901	0.73833	0.42518	0.08
Mof_H 	H 	0.4625	0.7417	0.4547	-0.03
Mof_C 	C 	0.4756	0.77129	0.38906	-0.162
Mof_H 	H 	0.4387	0.7977	0.3934	0.057
Mof_C 	C 	0.5164	0.76438	0.34671	0.056
Mof_H 	H 	0.5062	0.7866	0.3217	-0.014
Mof_C 	C 	0.5685	0.66663	0.45736	0.453
Mof_C 	C 	0.513	0.47175	0.3213	-0.173
Mof_C 	C 	0.4968	0.42001	0.29188	0.065
Mof_H 	H 	0.478	0.3886	0.3063	-0.033
Mof_C 	C 	0.5079	0.4131	0.24056	-0.175
Mof_H 	H 	0.4981	0.3771	0.2205	0.049
Mof_C 	C 	0.5325	0.4574	0.21939	0.077
Mof_H 	H 	0.5372	0.4522	0.184	-0.027
Mof_C 	C 	0.5503	0.50813	0.24791	-0.188
Mof_H 	H 	0.5708	0.5393	0.2334	0.09
Mof_C 	C 	0.5391	0.51566	0.29867	0.078
Mof_H 	H 	0.5498	0.552	0.3182	-0.009
Mof_C 	C 	0.7715	0.66176	0.60104	1.239
Mof_C 	C 	0.8133	0.7183	0.5962	-1.587
Mof_H 	H 	0.8792	0.7379	0.6256	0.416
Mof_H 	H 	0.8288	0.7175	0.562	0.421
Mof_H 	H 	0.7601	0.7376	0.5977	0.429
Mof_C 	C 	0.7896	0.6425	0.6431	-2.063
Mof_H 	H 	0.7509	0.6028	0.6339	0.586
Mof_H 	H 	0.8666	0.6484	0.6574	0.54
Mof_H 	H 	0.7652	0.6618	0.6702	0.56
Mof_C 	C 	0.2804	0.60136	0.53174	1.033
Mof_C 	C 	0.2586	0.6508	0.5152	-1.307
Mof_H 	H 	0.1974	0.6568	0.5259	0.334
Mof_H 	H 	0.3218	0.6834	0.5325	0.332
Mof_H 	H 	0.2422	0.6448	0.4763	0.341
Mof_C 	C 	0.2182	0.5622	0.5447	-1.762
Mof_H 	H 	0.2553	0.5354	0.5541	0.498
Mof_H 	H 	0.1986	0.578	0.5755	0.463
Mof_H 	H 	0.1534	0.5435	0.5145	0.458
Mof_C 	C 	0.4974	0.696	0.0971	0.078
Mof_H 	H 	0.4867	0.6632	0.1099	-0.015
Mof_C 	C 	0.4219	0.69707	0.05344	-0.179
Mof_H 	H 	0.3594	0.6661	0.0368	0.046
Mof_C 	C 	0.4375	0.74383	0.03355	0.105
Mof_H 	H 	0.3862	0.7455	0.0027	-0.038
Mof_C 	C 	0.527	0.78747	0.05854	-0.22
Mof_C 	C 	0.5998	0.78414	0.10365	0.107
Mof_H 	H 	0.6617	0.8151	0.1215	-0.028
Mof_C 	C 	0.5504	0.83896	0.03795	0.452
Mof_C 	C 	0.16	0.86492	0.96235	-0.176
Mof_C 	C 	0.1325	0.8414	0.9982	0.082
Mof_H 	H 	0.181	0.8526	0.0334	-0.016
Mof_C 	C 	0.0342	0.8	0.9881	-0.176
Mof_H 	H 	0.0187	0.7859	0.0171	0.069
Mof_C 	C 	0.9675	0.781	0.9438	0.054
Mof_C 	C 	0.9924	0.7995	0.9057	-0.165
Mof_H 	H 	0.9445	0.7842	0.8705	0.037
Mof_C 	C 	0.0936	0.8444	0.9138	0.056
Mof_H 	H 	0.1096	0.8577	0.8845	-0.03
Mof_C 	C 	0.7111	0.0127	0.17062	1.203
Mof_C 	C 	0.716	0.0646	0.1861	-1.945
Mof_H 	H 	0.7068	0.0811	0.1551	0.551
Mof_H 	H 	0.6592	0.0664	0.2023	0.528
Mof_H 	H 	0.7858	0.0851	0.2123	0.519
Mof_C 	C 	0.7216	0.974	0.20341	-1.637
Mof_H 	H 	0.7661	0.9941	0.2398	0.449
Mof_H 	H 	0.6506	0.9531	0.2041	0.453
Mof_H 	H 	0.7553	0.9482	0.1887	0.456
Mof_C 	C 	0.7352	0.9098	0.9509	0.782
Mof_C 	C 	0.747	0.8561	0.9503	-1.21
Mof_H 	H 	0.7984	0.8509	0.9312	0.34
Mof_H 	H 	0.7731	0.8527	0.987	0.344
Mof_H 	H 	0.6776	0.8277	0.9321	0.329
Mof_C 	C 	0.7827	0.9553	0.9333	-1.275
Mof_H 	H 	0.7577	0.9864	0.9449	0.376
Mof_H 	H 	0.8606	0.966	0.9484	0.346
Mof_H 	H 	0.7631	0.9456	0.8942	0.351
Mof_C 	C 	0.926	0.91689	0.28704	0.074
Mof_H 	H 	0.8765	0.9036	0.2521	-0.038
Mof_C 	C 	0.9874	0.97166	0.30218	-0.187
Mof_H 	H 	0.9816	0.9956	0.2785	0.046
Mof_C 	C 	0.0576	0.99031	0.35305	0.095
Mof_H 	H 	0.0995	0.0283	0.3655	-0.02
Mof_C 	C 	0.068	0.95477	0.38615	-0.233
Mof_C 	C 	0.0014	0.90042	0.36691	0.082
Mof_H 	H 	0.0056	0.8754	0.3895	-0.031
Mof_C 	C 	0.1508	0.97344	0.4392	0.468
Mof_C 	C 	0.4175	0.06151	0.34044	-0.201
Mof_C 	C 	0.3156	0.0604	0.3186	0.109
Mof_H 	H 	0.2628	0.0492	0.3358	-0.02
Mof_C 	C 	0.2888	0.0763	0.2694	-0.242
Mof_H 	H 	0.2169	0.0753	0.2545	0.073
Mof_C 	C 	0.3541	0.0914	0.2443	0.165
Mof_H 	H 	0.3329	0.1025	0.2119	-0.078
Mof_C 	C 	0.4512	0.0913	0.2643	-0.248
Mof_H 	H 	0.5007	0.1005	0.2449	0.051
Mof_C 	C 	0.4861	0.0782	0.3131	0.114
Mof_H 	H 	0.5594	0.081	0.3273	-0.056
Mof_C 	C 	0.3051	0.05428	0.60637	1.108
Mof_H 	H 	0.3362	0.0941	0.6064	-0.323
Mof_C 	C 	0.3716	0.0465	0.6534	-1.483
Mof_H 	H 	0.445	0.0538	0.6514	0.444
Mof_H 	H 	0.3712	0.0722	0.6848	0.441
Mof_H 	H 	0.3445	0.0083	0.6563	0.407
Mof_C 	C 	0.1893	0.0465	0.6007	-1.324
Mof_H 	H 	0.1827	0.0677	0.6331	0.392
Mof_H 	H 	0.1578	0.0596	0.5698	0.384
Mof_H 	H 	0.1516	0.0071	0.5955	0.362
Mof_C 	C 	0.2743	0.82245	0.47281	1.111
Mof_H 	H 	0.2994	0.8101	0.4419	-0.322
Mof_C 	C 	0.3406	0.80862	0.5147	-1.517
Mof_H 	H 	0.4152	0.8307	0.5214	0.453
Mof_H 	H 	0.3193	0.8163	0.547	0.409
Mof_H 	H 	0.3335	0.7691	0.5048	0.423
Mof_C 	C 	0.1546	0.79596	0.4502	-1.303
Mof_H 	H 	0.1369	0.7557	0.4461	0.367
Mof_H 	H 	0.1196	0.811	0.4746	0.355
Mof_H 	H 	0.1294	0.8039	0.4153	0.384
Mof_C 	C 	0.9311	0.62408	0.22011	0.102
Mof_H 	H 	0.9595	0.6504	0.2019	-0.018
Mof_C 	C 	0.948	0.5731	0.21154	-0.223
Mof_C 	C 	0.908	0.53504	0.23837	0.098
Mof_H 	H 	0.9178	0.4995	0.2333	-0.034
Mof_C 	C 	0.8534	0.55003	0.27277	-0.183
Mof_H 	H 	0.8261	0.525	0.2924	0.061
Mof_C 	C 	0.8389	0.60068	0.27829	0.089
Mof_H 	H 	0.7997	0.6099	0.3016	-0.025
Mof_C 	C 	0.0056	0.55883	0.17297	0.457
Mof_C 	C 	0.8161	0.6349	0.0021	-0.147
Mof_C 	C 	0.8245	0.66929	0.04798	0.055
Mof_H 	H 	0.8684	0.667	0.081	0.012
Mof_C 	C 	0.7691	0.70832	0.04736	-0.137
Mof_H 	H 	0.7777	0.7329	0.08	0.07
Mof_C 	C 	0.7049	0.71189	0.00249	0.046
Mof_H 	H 	0.6659	0.7378	0.003	-0.006
Mof_C 	C 	0.6958	0.67826	0.95604	-0.14
Mof_H 	H 	0.6506	0.6807	0.9235	0.045
Mof_C 	C 	0.7516	0.64016	0.95519	0.052
Mof_H 	H 	0.7455	0.6173	0.922	-0.02
Mof_C 	C 	0.8605	0.36701	0.0846	0.867
Mof_C 	C 	0.8315	0.3701	0.1339	-1.228
Mof_H 	H 	0.794	0.3328	0.1359	0.332
Mof_H 	H 	0.8964	0.3863	0.1645	0.331
Mof_H 	H 	0.7846	0.3934	0.1345	0.332
Mof_C 	C 	0.8727	0.3245	0.0521	-1.472
Mof_H 	H 	0.8915	0.3369	0.0218	0.435
Mof_H 	H 	0.9299	0.3121	0.072	0.419
Mof_H 	H 	0.8056	0.2937	0.039	0.418
Mof_C 	C 	0.2981	0.55805	0.15024	1.037
Mof_H 	H 	0.3246	0.5942	0.1409	-0.299
Mof_C 	C 	0.3512	0.5227	0.12678	-1.375
Mof_H 	H 	0.3305	0.5185	0.088	0.415
Mof_H 	H 	0.4289	0.5396	0.1418	0.425
Mof_H 	H 	0.33	0.4862	0.1347	0.391
Mof_C 	C 	0.3175	0.57329	0.20917	-1.286
Mof_H 	H 	0.277	0.5983	0.2174	0.372
Mof_H 	H 	0.2944	0.5397	0.2217	0.356
Mof_H 	H 	0.3941	0.5919	0.2271	0.39
Mof_O 	O 	0.52841	0.67171	0.49571	-0.536
Mof_O 	O 	0.62534	0.63655	0.45016	-0.505
Mof_O 	O 	0.41209	0.5045	0.39083	-0.541
Mof_O 	O 	0.61092	0.52126	0.42437	-0.536
Mof_O 	O 	0.36942	0.5917	0.51603	-0.825
Mof_O 	O 	0.48138	0.42364	0.39879	-0.547
Mof_O 	O 	0.67529	0.63197	0.55883	-0.863
Mof_O 	O 	0.69506	0.52656	0.53332	-0.795
Mof_O 	O 	0.51406	0.56378	0.49255	-0.758
Mof_O 	O 	0.63275	0.87953	0.06753	-0.52
Mof_O 	O 	0.49069	0.83835	0.99398	-0.512
Mof_O 	O 	0.34112	0.9333	0.03473	-0.542
Mof_O 	O 	0.34949	0.89358	0.94313	-0.543
Mof_O 	O 	0.64582	0.98685	0.11628	-0.863
Mof_O 	O 	0.66101	0.92087	0.97983	-0.742
Mof_O 	O 	0.51411	0.9581	0.91371	-0.787
Mof_O 	O 	0.53732	0.94931	0.02344	-0.767
Mof_O 	O 	0.25891	0.96697	0.95556	-0.541
Mof_O 	O 	0.49497	0.90967	0.44748	-0.773
Mof_O 	O 	0.21264	0.02186	0.44947	-0.524
Mof_O 	O 	0.1555	0.93999	0.46859	-0.531
Mof_O 	O 	0.57818	0.05603	0.41822	-0.541
Mof_O 	O 	0.40347	0.97871	0.38944	-0.547
Mof_O 	O 	0.4186	0.07272	0.44225	-0.533
Mof_O 	O 	0.30121	0.88196	0.47777	-0.805
Mof_O 	O 	0.31249	0.02263	0.55768	-0.794
Mof_O 	O 	0.36929	0.98097	0.48465	-0.772
Mof_O 	O 	0.0365	0.59387	0.14812	-0.502
Mof_O 	O 	0.01825	0.51107	0.16852	-0.535
Mof_O 	O 	0.89323	0.57148	0.94415	-0.542
Mof_O 	O 	0.82325	0.53309	0.01353	-0.542
Mof_O 	O 	0.99668	0.61158	0.04212	-0.528
Mof_O 	O 	0.18341	0.53915	0.1233	-0.777
Mof_O 	O 	0.91668	0.42214	0.08087	-0.778
Mof_O 	O 	0.8303	0.42454	0.97056	-0.777
Mof_O 	O 	0.99886	0.51069	0.06374	-0.773
_end
