data_functionalizedCrystal
_audit_creation_method	'EQeq! by Chris Wilmer'
_symmetry_space_group_name_H-M	'P1'
_symmetry_Int_Tables_number	1
_symmetry_cell_setting	triclinic
loop_
_symmetry_equiv_pos_as_xyz
  x,y,z
_cell_length_a	53.0274
_cell_length_b	53.0274
_cell_length_c	53.0274
_cell_angle_alpha	60
_cell_angle_beta	60
_cell_angle_gamma	60
loop_
_atom_site_label
_atom_site_type_symbol
_atom_site_fract_x
_atom_site_fract_y
_atom_site_fract_z
_atom_site_charge
Mof_S 	S 	0.05055	0.50397	0.64325	-0.053
Mof_C 	C 	0.03193	0.49549	0.68069	0.092
Mof_N 	N 	0.01911	0.48957	0.70679	-0.259
Mof_N 	N 	0.02447	0.43657	0.76421	-0.239
Mof_C 	C 	0.01646	0.42476	0.75338	0.072
Mof_H 	H 	0.0101	0.4379	0.7357	-0.006
Mof_C 	C 	0.01677	0.39481	0.76625	-0.125
Mof_H 	H 	0.011	0.3874	0.7576	0.079
Mof_C 	C 	0.0258	0.37556	0.79218	0.054
Mof_C 	C 	0.03606	0.38672	0.80242	-0.122
Mof_H 	H 	0.0433	0.3739	0.8195	0.079
Mof_C 	C 	0.03577	0.41695	0.78753	0.067
Mof_H 	H 	0.0439	0.4241	0.7941	-0.005
Mof_C 	C 	0.0215	0.3451	0.81028	0.1
Mof_N 	N 	0.01759	0.33233	0.79677	-0.14
Mof_C 	C 	0.01258	0.30524	0.8149	0.096
Mof_N 	N 	0.01094	0.29106	0.84478	-0.138
Mof_C 	C 	0.01566	0.30604	0.8554	0.1
Mof_N 	N 	0.0215	0.33254	0.83914	-0.141
Mof_N 	N 	0.9965	0.26564	0.77348	-0.237
Mof_C 	C 	0.00571	0.29029	0.75737	0.071
Mof_H 	H 	0.0085	0.2993	0.7359	-0.007
Mof_C 	C 	0.01145	0.30355	0.76967	-0.124
Mof_H 	H 	0.0179	0.3211	0.7571	0.08
Mof_C 	C 	0.00767	0.29061	0.80099	0.056
Mof_C 	C 	0.99914	0.26446	0.81782	-0.123
Mof_H 	H 	0.9971	0.2545	0.8391	0.08
Mof_C 	C 	0.99371	0.25297	0.80335	0.073
Mof_H 	H 	0.9877	0.2351	0.8153	-0.004
Mof_N 	N 	0.00713	0.26839	0.95067	-0.237
Mof_C 	C 	0.01674	0.2504	0.9345	0.072
Mof_H 	H 	0.0217	0.2287	0.9449	-0.005
Mof_C 	C 	0.01995	0.26121	0.90407	-0.121
Mof_H 	H 	0.0266	0.2474	0.8938	0.078
Mof_C 	C 	0.01342	0.2928	0.88826	0.052
Mof_C 	C 	0.00373	0.31211	0.90395	-0.115
Mof_H 	H 	0.9993	0.3337	0.8937	0.079
Mof_C 	C 	0.00056	0.29908	0.93528	0.063
Mof_H 	H 	0.9935	0.3123	0.9463	-0.002
Mof_N 	N 	0.99661	0.21099	0.00255	-0.264
Mof_C 	C 	0.99396	0.18838	0.01008	0.106
Mof_S 	S 	0.98547	0.15577	0.02707	-0.053
Mof_N 	N 	0.99199	0.23153	0.04881	-0.241
Mof_C 	C 	0.98275	0.24709	0.06635	0.094
Mof_H 	H 	0.9782	0.2688	0.0572	-0.013
Mof_C 	C 	0.97908	0.2341	0.09706	-0.138
Mof_H 	H 	0.9726	0.2468	0.1084	0.084
Mof_C 	C 	0.98468	0.2029	0.11162	0.062
Mof_C 	C 	0.99464	0.18586	0.09374	-0.124
Mof_H 	H 	0.9983	0.1643	0.1027	0.081
Mof_C 	C 	0.99926	0.20058	0.0623	0.067
Mof_H 	H 	0.0078	0.1884	0.0498	-0.006
Mof_C 	C 	0.98307	0.18701	0.14389	0.097
Mof_N 	N 	0.98246	0.20232	0.1583	-0.138
Mof_S 	S 	0.50397	0.05055	0.30223	-0.052
Mof_C 	C 	0.49549	0.03193	0.29189	0.093
Mof_N 	N 	0.48957	0.01911	0.28453	-0.258
Mof_N 	N 	0.43657	0.02447	0.27475	-0.238
Mof_C 	C 	0.42476	0.01646	0.3054	0.073
Mof_H 	H 	0.4379	0.0101	0.3163	-0.005
Mof_C 	C 	0.39481	0.01677	0.32217	-0.124
Mof_H 	H 	0.3874	0.011	0.344	0.08
Mof_C 	C 	0.37556	0.0258	0.30646	0.055
Mof_C 	C 	0.38672	0.03606	0.2748	-0.121
Mof_H 	H 	0.3739	0.0433	0.2633	0.08
Mof_C 	C 	0.41695	0.03577	0.25975	0.068
Mof_H 	H 	0.4241	0.0439	0.2379	-0.004
Mof_C 	C 	0.3451	0.0215	0.32312	0.101
Mof_N 	N 	0.33233	0.01759	0.35331	-0.139
Mof_C 	C 	0.30524	0.01258	0.36728	0.097
Mof_N 	N 	0.29106	0.01094	0.35322	-0.137
Mof_C 	C 	0.30604	0.01566	0.3229	0.101
Mof_N 	N 	0.33254	0.0215	0.30682	-0.14
Mof_N 	N 	0.26564	0.9965	0.46438	-0.236
Mof_C 	C 	0.29029	0.00571	0.44663	0.072
Mof_H 	H 	0.2993	0.0085	0.4563	-0.006
Mof_C 	C 	0.30355	0.01145	0.41533	-0.123
Mof_H 	H 	0.3211	0.0179	0.4039	0.081
Mof_C 	C 	0.29061	0.00767	0.40073	0.056
Mof_C 	C 	0.26446	0.99914	0.41858	-0.123
Mof_H 	H 	0.2545	0.9971	0.4093	0.08
Mof_C 	C 	0.25297	0.99371	0.44997	0.073
Mof_H 	H 	0.2351	0.9877	0.4619	-0.004
Mof_N 	N 	0.26839	0.00713	0.27381	-0.237
Mof_C 	C 	0.2504	0.01674	0.29836	0.072
Mof_H 	H 	0.2287	0.0217	0.3047	-0.005
Mof_C 	C 	0.26121	0.01995	0.31477	-0.121
Mof_H 	H 	0.2474	0.0266	0.3322	0.078
Mof_C 	C 	0.2928	0.01342	0.30552	0.052
Mof_C 	C 	0.31211	0.00373	0.28021	-0.115
Mof_H 	H 	0.3337	0.9993	0.2733	0.079
Mof_C 	C 	0.29908	0.00056	0.26508	0.063
Mof_H 	H 	0.3123	0.9935	0.2479	-0.002
Mof_N 	N 	0.21099	0.99661	0.28985	-0.264
Mof_C 	C 	0.18838	0.99396	0.30758	0.106
Mof_S 	S 	0.15577	0.98547	0.33169	-0.053
Mof_N 	N 	0.23153	0.99199	0.22767	-0.241
Mof_C 	C 	0.24709	0.98275	0.20381	0.094
Mof_H 	H 	0.2688	0.9782	0.1958	-0.013
Mof_C 	C 	0.2341	0.97908	0.18976	-0.138
Mof_H 	H 	0.2468	0.9726	0.1722	0.084
Mof_C 	C 	0.2029	0.98468	0.2008	0.062
Mof_C 	C 	0.18586	0.99464	0.22576	-0.124
Mof_H 	H 	0.1643	0.9983	0.2347	0.081
Mof_C 	C 	0.20058	0.99926	0.23786	0.067
Mof_H 	H 	0.1884	0.0078	0.254	-0.006
Mof_C 	C 	0.18701	0.98307	0.18603	0.097
Mof_N 	N 	0.20232	0.98246	0.15692	-0.138
Mof_S 	S 	0.64325	0.30223	0.05055	-0.052
Mof_C 	C 	0.68069	0.29189	0.03193	0.093
Mof_N 	N 	0.70679	0.28453	0.01911	-0.258
Mof_N 	N 	0.76421	0.27475	0.02447	-0.238
Mof_C 	C 	0.75338	0.3054	0.01646	0.073
Mof_H 	H 	0.7357	0.3163	0.0101	-0.005
Mof_C 	C 	0.76625	0.32217	0.01677	-0.124
Mof_H 	H 	0.7576	0.344	0.011	0.08
Mof_C 	C 	0.79218	0.30646	0.0258	0.055
Mof_C 	C 	0.80242	0.2748	0.03606	-0.121
Mof_H 	H 	0.8195	0.2633	0.0433	0.08
Mof_C 	C 	0.78753	0.25975	0.03577	0.068
Mof_H 	H 	0.7941	0.2379	0.0439	-0.004
Mof_C 	C 	0.81028	0.32312	0.0215	0.101
Mof_N 	N 	0.79677	0.35331	0.01759	-0.139
Mof_C 	C 	0.8149	0.36728	0.01258	0.097
Mof_N 	N 	0.84478	0.35322	0.01094	-0.137
Mof_C 	C 	0.8554	0.3229	0.01566	0.101
Mof_N 	N 	0.83914	0.30682	0.0215	-0.14
Mof_N 	N 	0.77348	0.46438	0.9965	-0.236
Mof_C 	C 	0.75737	0.44663	0.00571	0.072
Mof_H 	H 	0.7359	0.4563	0.0085	-0.006
Mof_C 	C 	0.76967	0.41533	0.01145	-0.123
Mof_H 	H 	0.7571	0.4039	0.0179	0.081
Mof_C 	C 	0.80099	0.40073	0.00767	0.056
Mof_C 	C 	0.81782	0.41858	0.99914	-0.123
Mof_H 	H 	0.8391	0.4093	0.9971	0.08
Mof_C 	C 	0.80335	0.44997	0.99371	0.073
Mof_H 	H 	0.8153	0.4619	0.9877	-0.004
Mof_N 	N 	0.95067	0.27381	0.00713	-0.237
Mof_C 	C 	0.9345	0.29836	0.01674	0.072
Mof_H 	H 	0.9449	0.3047	0.0217	-0.005
Mof_C 	C 	0.90407	0.31477	0.01995	-0.121
Mof_H 	H 	0.8938	0.3322	0.0266	0.078
Mof_C 	C 	0.88826	0.30552	0.01342	0.052
Mof_C 	C 	0.90395	0.28021	0.00373	-0.115
Mof_H 	H 	0.8937	0.2733	0.9993	0.079
Mof_C 	C 	0.93528	0.26508	0.00056	0.063
Mof_H 	H 	0.9463	0.2479	0.9935	-0.002
Mof_N 	N 	0.00255	0.28985	0.99661	-0.264
Mof_C 	C 	0.01008	0.30758	0.99396	0.106
Mof_S 	S 	0.02707	0.33169	0.98547	-0.053
Mof_N 	N 	0.04881	0.22767	0.99199	-0.241
Mof_C 	C 	0.06635	0.20381	0.98275	0.094
Mof_H 	H 	0.0572	0.1958	0.9782	-0.013
Mof_C 	C 	0.09706	0.18976	0.97908	-0.138
Mof_H 	H 	0.1084	0.1722	0.9726	0.084
Mof_C 	C 	0.11162	0.2008	0.98468	0.062
Mof_C 	C 	0.09374	0.22576	0.99464	-0.124
Mof_H 	H 	0.1027	0.2347	0.9983	0.081
Mof_C 	C 	0.0623	0.23786	0.99926	0.067
Mof_H 	H 	0.0498	0.254	0.0078	-0.006
Mof_C 	C 	0.14389	0.18603	0.98307	0.097
Mof_N 	N 	0.1583	0.15692	0.98246	-0.138
Mof_S 	S 	0.30223	0.64325	0.50397	-0.052
Mof_C 	C 	0.29189	0.68069	0.49549	0.093
Mof_N 	N 	0.28453	0.70679	0.48957	-0.258
Mof_N 	N 	0.27475	0.76421	0.43657	-0.238
Mof_C 	C 	0.3054	0.75338	0.42476	0.073
Mof_H 	H 	0.3163	0.7357	0.4379	-0.005
Mof_C 	C 	0.32217	0.76625	0.39481	-0.124
Mof_H 	H 	0.344	0.7576	0.3874	0.08
Mof_C 	C 	0.30646	0.79218	0.37556	0.055
Mof_C 	C 	0.2748	0.80242	0.38672	-0.121
Mof_H 	H 	0.2633	0.8195	0.3739	0.08
Mof_C 	C 	0.25975	0.78753	0.41695	0.068
Mof_H 	H 	0.2379	0.7941	0.4241	-0.004
Mof_C 	C 	0.32312	0.81028	0.3451	0.101
Mof_N 	N 	0.35331	0.79677	0.33233	-0.139
Mof_C 	C 	0.36728	0.8149	0.30524	0.097
Mof_N 	N 	0.35322	0.84478	0.29106	-0.137
Mof_C 	C 	0.3229	0.8554	0.30604	0.101
Mof_N 	N 	0.30682	0.83914	0.33254	-0.14
Mof_N 	N 	0.46438	0.77348	0.26564	-0.236
Mof_C 	C 	0.44663	0.75737	0.29029	0.072
Mof_H 	H 	0.4563	0.7359	0.2993	-0.006
Mof_C 	C 	0.41533	0.76967	0.30355	-0.123
Mof_H 	H 	0.4039	0.7571	0.3211	0.081
Mof_C 	C 	0.40073	0.80099	0.29061	0.056
Mof_C 	C 	0.41858	0.81782	0.26446	-0.123
Mof_H 	H 	0.4093	0.8391	0.2545	0.08
Mof_C 	C 	0.44997	0.80335	0.25297	0.073
Mof_H 	H 	0.4619	0.8153	0.2351	-0.004
Mof_N 	N 	0.27381	0.95067	0.26839	-0.237
Mof_C 	C 	0.29836	0.9345	0.2504	0.072
Mof_H 	H 	0.3047	0.9449	0.2287	-0.005
Mof_C 	C 	0.31477	0.90407	0.26121	-0.121
Mof_H 	H 	0.3322	0.8938	0.2474	0.078
Mof_C 	C 	0.30552	0.88826	0.2928	0.052
Mof_C 	C 	0.28021	0.90395	0.31211	-0.115
Mof_H 	H 	0.2733	0.8937	0.3337	0.079
Mof_C 	C 	0.26508	0.93528	0.29908	0.063
Mof_H 	H 	0.2479	0.9463	0.3123	-0.002
Mof_N 	N 	0.28985	0.00255	0.21099	-0.264
Mof_C 	C 	0.30758	0.01008	0.18838	0.106
Mof_S 	S 	0.33169	0.02707	0.15577	-0.053
Mof_N 	N 	0.22767	0.04881	0.23153	-0.241
Mof_C 	C 	0.20381	0.06635	0.24709	0.094
Mof_H 	H 	0.1958	0.0572	0.2688	-0.013
Mof_C 	C 	0.18976	0.09706	0.2341	-0.138
Mof_H 	H 	0.1722	0.1084	0.2468	0.084
Mof_C 	C 	0.2008	0.11162	0.2029	0.062
Mof_C 	C 	0.22576	0.09374	0.18586	-0.124
Mof_H 	H 	0.2347	0.1027	0.1643	0.081
Mof_C 	C 	0.23786	0.0623	0.20058	0.067
Mof_H 	H 	0.254	0.0498	0.1884	-0.006
Mof_C 	C 	0.18603	0.14389	0.18701	0.097
Mof_N 	N 	0.15692	0.1583	0.20232	-0.138
Mof_S 	S 	0.64325	0.05055	0.50397	-0.052
Mof_C 	C 	0.68069	0.03193	0.49549	0.093
Mof_N 	N 	0.70679	0.01911	0.48957	-0.258
Mof_N 	N 	0.76421	0.02447	0.43657	-0.238
Mof_C 	C 	0.75338	0.01646	0.42476	0.073
Mof_H 	H 	0.7357	0.0101	0.4379	-0.005
Mof_C 	C 	0.76625	0.01677	0.39481	-0.124
Mof_H 	H 	0.7576	0.011	0.3874	0.08
Mof_C 	C 	0.79218	0.0258	0.37556	0.055
Mof_C 	C 	0.80242	0.03606	0.38672	-0.121
Mof_H 	H 	0.8195	0.0433	0.3739	0.08
Mof_C 	C 	0.78753	0.03577	0.41695	0.068
Mof_H 	H 	0.7941	0.0439	0.4241	-0.004
Mof_C 	C 	0.81028	0.0215	0.3451	0.101
Mof_N 	N 	0.79677	0.01759	0.33233	-0.139
Mof_C 	C 	0.8149	0.01258	0.30524	0.097
Mof_N 	N 	0.84478	0.01094	0.29106	-0.137
Mof_C 	C 	0.8554	0.01566	0.30604	0.101
Mof_N 	N 	0.83914	0.0215	0.33254	-0.14
Mof_N 	N 	0.77348	0.9965	0.26564	-0.236
Mof_C 	C 	0.75737	0.00571	0.29029	0.072
Mof_H 	H 	0.7359	0.0085	0.2993	-0.006
Mof_C 	C 	0.76967	0.01145	0.30355	-0.123
Mof_H 	H 	0.7571	0.0179	0.3211	0.081
Mof_C 	C 	0.80099	0.00767	0.29061	0.056
Mof_C 	C 	0.81782	0.99914	0.26446	-0.123
Mof_H 	H 	0.8391	0.9971	0.2545	0.08
Mof_C 	C 	0.80335	0.99371	0.25297	0.073
Mof_H 	H 	0.8153	0.9877	0.2351	-0.004
Mof_N 	N 	0.95067	0.00713	0.26839	-0.237
Mof_C 	C 	0.9345	0.01674	0.2504	0.072
Mof_H 	H 	0.9449	0.0217	0.2287	-0.005
Mof_C 	C 	0.90407	0.01995	0.26121	-0.121
Mof_H 	H 	0.8938	0.0266	0.2474	0.078
Mof_C 	C 	0.88826	0.01342	0.2928	0.052
Mof_C 	C 	0.90395	0.00373	0.31211	-0.115
Mof_H 	H 	0.8937	0.9993	0.3337	0.079
Mof_C 	C 	0.93528	0.00056	0.29908	0.063
Mof_H 	H 	0.9463	0.9935	0.3123	-0.002
Mof_N 	N 	0.00255	0.99661	0.21099	-0.264
Mof_C 	C 	0.01008	0.99396	0.18838	0.106
Mof_S 	S 	0.02707	0.98547	0.15577	-0.053
Mof_N 	N 	0.04881	0.99199	0.23153	-0.241
Mof_C 	C 	0.06635	0.98275	0.24709	0.094
Mof_H 	H 	0.0572	0.9782	0.2688	-0.013
Mof_C 	C 	0.09706	0.97908	0.2341	-0.138
Mof_H 	H 	0.1084	0.9726	0.2468	0.084
Mof_C 	C 	0.11162	0.98468	0.2029	0.062
Mof_C 	C 	0.09374	0.99464	0.18586	-0.124
Mof_H 	H 	0.1027	0.9983	0.1643	0.081
Mof_C 	C 	0.0623	0.99926	0.20058	0.067
Mof_H 	H 	0.0498	0.0078	0.1884	-0.006
Mof_C 	C 	0.14389	0.98307	0.18701	0.097
Mof_N 	N 	0.1583	0.98246	0.20232	-0.138
Mof_S 	S 	0.30223	0.50397	0.05055	-0.052
Mof_C 	C 	0.29189	0.49549	0.03193	0.093
Mof_N 	N 	0.28453	0.48957	0.01911	-0.258
Mof_N 	N 	0.27475	0.43657	0.02447	-0.238
Mof_C 	C 	0.3054	0.42476	0.01646	0.073
Mof_H 	H 	0.3163	0.4379	0.0101	-0.005
Mof_C 	C 	0.32217	0.39481	0.01677	-0.124
Mof_H 	H 	0.344	0.3874	0.011	0.08
Mof_C 	C 	0.30646	0.37556	0.0258	0.055
Mof_C 	C 	0.2748	0.38672	0.03606	-0.121
Mof_H 	H 	0.2633	0.3739	0.0433	0.08
Mof_C 	C 	0.25975	0.41695	0.03577	0.068
Mof_H 	H 	0.2379	0.4241	0.0439	-0.004
Mof_C 	C 	0.32312	0.3451	0.0215	0.101
Mof_N 	N 	0.35331	0.33233	0.01759	-0.139
Mof_C 	C 	0.36728	0.30524	0.01258	0.097
Mof_N 	N 	0.35322	0.29106	0.01094	-0.137
Mof_C 	C 	0.3229	0.30604	0.01566	0.101
Mof_N 	N 	0.30682	0.33254	0.0215	-0.14
Mof_N 	N 	0.46438	0.26564	0.9965	-0.236
Mof_C 	C 	0.44663	0.29029	0.00571	0.072
Mof_H 	H 	0.4563	0.2993	0.0085	-0.006
Mof_C 	C 	0.41533	0.30355	0.01145	-0.123
Mof_H 	H 	0.4039	0.3211	0.0179	0.081
Mof_C 	C 	0.40073	0.29061	0.00767	0.056
Mof_C 	C 	0.41858	0.26446	0.99914	-0.123
Mof_H 	H 	0.4093	0.2545	0.9971	0.08
Mof_C 	C 	0.44997	0.25297	0.99371	0.073
Mof_H 	H 	0.4619	0.2351	0.9877	-0.004
Mof_N 	N 	0.27381	0.26839	0.00713	-0.237
Mof_C 	C 	0.29836	0.2504	0.01674	0.072
Mof_H 	H 	0.3047	0.2287	0.0217	-0.005
Mof_C 	C 	0.31477	0.26121	0.01995	-0.121
Mof_H 	H 	0.3322	0.2474	0.0266	0.078
Mof_C 	C 	0.30552	0.2928	0.01342	0.052
Mof_C 	C 	0.28021	0.31211	0.00373	-0.115
Mof_H 	H 	0.2733	0.3337	0.9993	0.079
Mof_C 	C 	0.26508	0.29908	0.00056	0.063
Mof_H 	H 	0.2479	0.3123	0.9935	-0.002
Mof_N 	N 	0.28985	0.21099	0.99661	-0.264
Mof_C 	C 	0.30758	0.18838	0.99396	0.106
Mof_S 	S 	0.33169	0.15577	0.98547	-0.053
Mof_N 	N 	0.22767	0.23153	0.99199	-0.241
Mof_C 	C 	0.20381	0.24709	0.98275	0.094
Mof_H 	H 	0.1958	0.2688	0.9782	-0.013
Mof_C 	C 	0.18976	0.2341	0.97908	-0.138
Mof_H 	H 	0.1722	0.2468	0.9726	0.084
Mof_C 	C 	0.2008	0.2029	0.98468	0.062
Mof_C 	C 	0.22576	0.18586	0.99464	-0.124
Mof_H 	H 	0.2347	0.1643	0.9983	0.081
Mof_C 	C 	0.23786	0.20058	0.99926	0.067
Mof_H 	H 	0.254	0.1884	0.0078	-0.006
Mof_C 	C 	0.18603	0.18701	0.98307	0.097
Mof_N 	N 	0.15692	0.20232	0.98246	-0.138
Mof_S 	S 	0.05055	0.64325	0.30223	-0.052
Mof_C 	C 	0.03193	0.68069	0.29189	0.093
Mof_N 	N 	0.01911	0.70679	0.28453	-0.258
Mof_N 	N 	0.02447	0.76421	0.27475	-0.238
Mof_C 	C 	0.01646	0.75338	0.3054	0.073
Mof_H 	H 	0.0101	0.7357	0.3163	-0.005
Mof_C 	C 	0.01677	0.76625	0.32217	-0.124
Mof_H 	H 	0.011	0.7576	0.344	0.08
Mof_C 	C 	0.0258	0.79218	0.30646	0.055
Mof_C 	C 	0.03606	0.80242	0.2748	-0.121
Mof_H 	H 	0.0433	0.8195	0.2633	0.08
Mof_C 	C 	0.03577	0.78753	0.25975	0.068
Mof_H 	H 	0.0439	0.7941	0.2379	-0.004
Mof_C 	C 	0.0215	0.81028	0.32312	0.101
Mof_N 	N 	0.01759	0.79677	0.35331	-0.139
Mof_C 	C 	0.01258	0.8149	0.36728	0.097
Mof_N 	N 	0.01094	0.84478	0.35322	-0.137
Mof_C 	C 	0.01566	0.8554	0.3229	0.101
Mof_N 	N 	0.0215	0.83914	0.30682	-0.14
Mof_N 	N 	0.9965	0.77348	0.46438	-0.236
Mof_C 	C 	0.00571	0.75737	0.44663	0.072
Mof_H 	H 	0.0085	0.7359	0.4563	-0.006
Mof_C 	C 	0.01145	0.76967	0.41533	-0.123
Mof_H 	H 	0.0179	0.7571	0.4039	0.081
Mof_C 	C 	0.00767	0.80099	0.40073	0.056
Mof_C 	C 	0.99914	0.81782	0.41858	-0.123
Mof_H 	H 	0.9971	0.8391	0.4093	0.08
Mof_C 	C 	0.99371	0.80335	0.44997	0.073
Mof_H 	H 	0.9877	0.8153	0.4619	-0.004
Mof_N 	N 	0.00713	0.95067	0.27381	-0.237
Mof_C 	C 	0.01674	0.9345	0.29836	0.072
Mof_H 	H 	0.0217	0.9449	0.3047	-0.005
Mof_C 	C 	0.01995	0.90407	0.31477	-0.121
Mof_H 	H 	0.0266	0.8938	0.3322	0.078
Mof_C 	C 	0.01342	0.88826	0.30552	0.052
Mof_C 	C 	0.00373	0.90395	0.28021	-0.115
Mof_H 	H 	0.9993	0.8937	0.2733	0.079
Mof_C 	C 	0.00056	0.93528	0.26508	0.063
Mof_H 	H 	0.9935	0.9463	0.2479	-0.002
Mof_N 	N 	0.99661	0.00255	0.28985	-0.264
Mof_C 	C 	0.99396	0.01008	0.30758	0.106
Mof_S 	S 	0.98547	0.02707	0.33169	-0.053
Mof_N 	N 	0.99199	0.04881	0.22767	-0.241
Mof_C 	C 	0.98275	0.06635	0.20381	0.094
Mof_H 	H 	0.9782	0.0572	0.1958	-0.013
Mof_C 	C 	0.97908	0.09706	0.18976	-0.138
Mof_H 	H 	0.9726	0.1084	0.1722	0.084
Mof_C 	C 	0.98468	0.11162	0.2008	0.062
Mof_C 	C 	0.99464	0.09374	0.22576	-0.124
Mof_H 	H 	0.9983	0.1027	0.2347	0.081
Mof_C 	C 	0.99926	0.0623	0.23786	0.067
Mof_H 	H 	0.0078	0.0498	0.254	-0.006
Mof_C 	C 	0.98307	0.14389	0.18603	0.097
Mof_N 	N 	0.98246	0.1583	0.15692	-0.138
Mof_S 	S 	0.50397	0.30223	0.64325	-0.052
Mof_C 	C 	0.49549	0.29189	0.68069	0.093
Mof_N 	N 	0.48957	0.28453	0.70679	-0.258
Mof_N 	N 	0.43657	0.27475	0.76421	-0.238
Mof_C 	C 	0.42476	0.3054	0.75338	0.073
Mof_H 	H 	0.4379	0.3163	0.7357	-0.005
Mof_C 	C 	0.39481	0.32217	0.76625	-0.124
Mof_H 	H 	0.3874	0.344	0.7576	0.08
Mof_C 	C 	0.37556	0.30646	0.79218	0.055
Mof_C 	C 	0.38672	0.2748	0.80242	-0.121
Mof_H 	H 	0.3739	0.2633	0.8195	0.08
Mof_C 	C 	0.41695	0.25975	0.78753	0.068
Mof_H 	H 	0.4241	0.2379	0.7941	-0.004
Mof_C 	C 	0.3451	0.32312	0.81028	0.101
Mof_N 	N 	0.33233	0.35331	0.79677	-0.139
Mof_C 	C 	0.30524	0.36728	0.8149	0.097
Mof_N 	N 	0.29106	0.35322	0.84478	-0.137
Mof_C 	C 	0.30604	0.3229	0.8554	0.101
Mof_N 	N 	0.33254	0.30682	0.83914	-0.14
Mof_N 	N 	0.26564	0.46438	0.77348	-0.236
Mof_C 	C 	0.29029	0.44663	0.75737	0.072
Mof_H 	H 	0.2993	0.4563	0.7359	-0.006
Mof_C 	C 	0.30355	0.41533	0.76967	-0.123
Mof_H 	H 	0.3211	0.4039	0.7571	0.081
Mof_C 	C 	0.29061	0.40073	0.80099	0.056
Mof_C 	C 	0.26446	0.41858	0.81782	-0.123
Mof_H 	H 	0.2545	0.4093	0.8391	0.08
Mof_C 	C 	0.25297	0.44997	0.80335	0.073
Mof_H 	H 	0.2351	0.4619	0.8153	-0.004
Mof_N 	N 	0.26839	0.27381	0.95067	-0.237
Mof_C 	C 	0.2504	0.29836	0.9345	0.072
Mof_H 	H 	0.2287	0.3047	0.9449	-0.005
Mof_C 	C 	0.26121	0.31477	0.90407	-0.121
Mof_H 	H 	0.2474	0.3322	0.8938	0.078
Mof_C 	C 	0.2928	0.30552	0.88826	0.052
Mof_C 	C 	0.31211	0.28021	0.90395	-0.115
Mof_H 	H 	0.3337	0.2733	0.8937	0.079
Mof_C 	C 	0.29908	0.26508	0.93528	0.063
Mof_H 	H 	0.3123	0.2479	0.9463	-0.002
Mof_N 	N 	0.21099	0.28985	0.00255	-0.264
Mof_C 	C 	0.18838	0.30758	0.01008	0.106
Mof_S 	S 	0.15577	0.33169	0.02707	-0.053
Mof_N 	N 	0.23153	0.22767	0.04881	-0.241
Mof_C 	C 	0.24709	0.20381	0.06635	0.094
Mof_H 	H 	0.2688	0.1958	0.0572	-0.013
Mof_C 	C 	0.2341	0.18976	0.09706	-0.138
Mof_H 	H 	0.2468	0.1722	0.1084	0.084
Mof_C 	C 	0.2029	0.2008	0.11162	0.062
Mof_C 	C 	0.18586	0.22576	0.09374	-0.124
Mof_H 	H 	0.1643	0.2347	0.1027	0.081
Mof_C 	C 	0.20058	0.23786	0.0623	0.067
Mof_H 	H 	0.1884	0.254	0.0498	-0.006
Mof_C 	C 	0.18701	0.18603	0.14389	0.097
Mof_N 	N 	0.20232	0.15692	0.1583	-0.138
Mof_S 	S 	0.50397	0.64325	0.05055	-0.052
Mof_C 	C 	0.49549	0.68069	0.03193	0.093
Mof_N 	N 	0.48957	0.70679	0.01911	-0.258
Mof_N 	N 	0.43657	0.76421	0.02447	-0.238
Mof_C 	C 	0.42476	0.75338	0.01646	0.073
Mof_H 	H 	0.4379	0.7357	0.0101	-0.005
Mof_C 	C 	0.39481	0.76625	0.01677	-0.124
Mof_H 	H 	0.3874	0.7576	0.011	0.08
Mof_C 	C 	0.37556	0.79218	0.0258	0.055
Mof_C 	C 	0.38672	0.80242	0.03606	-0.121
Mof_H 	H 	0.3739	0.8195	0.0433	0.08
Mof_C 	C 	0.41695	0.78753	0.03577	0.068
Mof_H 	H 	0.4241	0.7941	0.0439	-0.004
Mof_C 	C 	0.3451	0.81028	0.0215	0.101
Mof_N 	N 	0.33233	0.79677	0.01759	-0.139
Mof_C 	C 	0.30524	0.8149	0.01258	0.097
Mof_N 	N 	0.29106	0.84478	0.01094	-0.137
Mof_C 	C 	0.30604	0.8554	0.01566	0.101
Mof_N 	N 	0.33254	0.83914	0.0215	-0.14
Mof_N 	N 	0.26564	0.77348	0.9965	-0.236
Mof_C 	C 	0.29029	0.75737	0.00571	0.072
Mof_H 	H 	0.2993	0.7359	0.0085	-0.006
Mof_C 	C 	0.30355	0.76967	0.01145	-0.123
Mof_H 	H 	0.3211	0.7571	0.0179	0.081
Mof_C 	C 	0.29061	0.80099	0.00767	0.056
Mof_C 	C 	0.26446	0.81782	0.99914	-0.123
Mof_H 	H 	0.2545	0.8391	0.9971	0.08
Mof_C 	C 	0.25297	0.80335	0.99371	0.073
Mof_H 	H 	0.2351	0.8153	0.9877	-0.004
Mof_N 	N 	0.26839	0.95067	0.00713	-0.237
Mof_C 	C 	0.2504	0.9345	0.01674	0.072
Mof_H 	H 	0.2287	0.9449	0.0217	-0.005
Mof_C 	C 	0.26121	0.90407	0.01995	-0.121
Mof_H 	H 	0.2474	0.8938	0.0266	0.078
Mof_C 	C 	0.2928	0.88826	0.01342	0.052
Mof_C 	C 	0.31211	0.90395	0.00373	-0.115
Mof_H 	H 	0.3337	0.8937	0.9993	0.079
Mof_C 	C 	0.29908	0.93528	0.00056	0.063
Mof_H 	H 	0.3123	0.9463	0.9935	-0.002
Mof_N 	N 	0.21099	0.00255	0.99661	-0.264
Mof_C 	C 	0.18838	0.01008	0.99396	0.106
Mof_S 	S 	0.15577	0.02707	0.98547	-0.053
Mof_N 	N 	0.23153	0.04881	0.99199	-0.241
Mof_C 	C 	0.24709	0.06635	0.98275	0.094
Mof_H 	H 	0.2688	0.0572	0.9782	-0.013
Mof_C 	C 	0.2341	0.09706	0.97908	-0.138
Mof_H 	H 	0.2468	0.1084	0.9726	0.084
Mof_C 	C 	0.2029	0.11162	0.98468	0.062
Mof_C 	C 	0.18586	0.09374	0.99464	-0.124
Mof_H 	H 	0.1643	0.1027	0.9983	0.081
Mof_C 	C 	0.20058	0.0623	0.99926	0.067
Mof_H 	H 	0.1884	0.0498	0.0078	-0.006
Mof_C 	C 	0.18701	0.14389	0.98307	0.097
Mof_N 	N 	0.20232	0.1583	0.98246	-0.138
Mof_S 	S 	0.05055	0.30223	0.50397	-0.052
Mof_C 	C 	0.03193	0.29189	0.49549	0.093
Mof_N 	N 	0.01911	0.28453	0.48957	-0.258
Mof_N 	N 	0.02447	0.27475	0.43657	-0.238
Mof_C 	C 	0.01646	0.3054	0.42476	0.073
Mof_H 	H 	0.0101	0.3163	0.4379	-0.005
Mof_C 	C 	0.01677	0.32217	0.39481	-0.124
Mof_H 	H 	0.011	0.344	0.3874	0.08
Mof_C 	C 	0.0258	0.30646	0.37556	0.055
Mof_C 	C 	0.03606	0.2748	0.38672	-0.121
Mof_H 	H 	0.0433	0.2633	0.3739	0.08
Mof_C 	C 	0.03577	0.25975	0.41695	0.068
Mof_H 	H 	0.0439	0.2379	0.4241	-0.004
Mof_C 	C 	0.0215	0.32312	0.3451	0.101
Mof_N 	N 	0.01759	0.35331	0.33233	-0.139
Mof_C 	C 	0.01258	0.36728	0.30524	0.097
Mof_N 	N 	0.01094	0.35322	0.29106	-0.137
Mof_C 	C 	0.01566	0.3229	0.30604	0.101
Mof_N 	N 	0.0215	0.30682	0.33254	-0.14
Mof_N 	N 	0.9965	0.46438	0.26564	-0.236
Mof_C 	C 	0.00571	0.44663	0.29029	0.072
Mof_H 	H 	0.0085	0.4563	0.2993	-0.006
Mof_C 	C 	0.01145	0.41533	0.30355	-0.123
Mof_H 	H 	0.0179	0.4039	0.3211	0.081
Mof_C 	C 	0.00767	0.40073	0.29061	0.056
Mof_C 	C 	0.99914	0.41858	0.26446	-0.123
Mof_H 	H 	0.9971	0.4093	0.2545	0.08
Mof_C 	C 	0.99371	0.44997	0.25297	0.073
Mof_H 	H 	0.9877	0.4619	0.2351	-0.004
Mof_N 	N 	0.00713	0.27381	0.26839	-0.237
Mof_C 	C 	0.01674	0.29836	0.2504	0.072
Mof_H 	H 	0.0217	0.3047	0.2287	-0.005
Mof_C 	C 	0.01995	0.31477	0.26121	-0.121
Mof_H 	H 	0.0266	0.3322	0.2474	0.078
Mof_C 	C 	0.01342	0.30552	0.2928	0.052
Mof_C 	C 	0.00373	0.28021	0.31211	-0.115
Mof_H 	H 	0.9993	0.2733	0.3337	0.079
Mof_C 	C 	0.00056	0.26508	0.29908	0.063
Mof_H 	H 	0.9935	0.2479	0.3123	-0.002
Mof_N 	N 	0.99661	0.28985	0.21099	-0.264
Mof_C 	C 	0.99396	0.30758	0.18838	0.106
Mof_S 	S 	0.98547	0.33169	0.15577	-0.053
Mof_N 	N 	0.99199	0.22767	0.23153	-0.241
Mof_C 	C 	0.98275	0.20381	0.24709	0.094
Mof_H 	H 	0.9782	0.1958	0.2688	-0.013
Mof_C 	C 	0.97908	0.18976	0.2341	-0.138
Mof_H 	H 	0.9726	0.1722	0.2468	0.084
Mof_C 	C 	0.98468	0.2008	0.2029	0.062
Mof_C 	C 	0.99464	0.22576	0.18586	-0.124
Mof_H 	H 	0.9983	0.2347	0.1643	0.081
Mof_C 	C 	0.99926	0.23786	0.20058	0.067
Mof_H 	H 	0.0078	0.254	0.1884	-0.006
Mof_C 	C 	0.98307	0.18603	0.18701	0.097
Mof_N 	N 	0.98246	0.15692	0.20232	-0.138
Mof_S 	S 	0.30223	0.05055	0.64325	-0.052
Mof_C 	C 	0.29189	0.03193	0.68069	0.093
Mof_N 	N 	0.28453	0.01911	0.70679	-0.258
Mof_N 	N 	0.27475	0.02447	0.76421	-0.238
Mof_C 	C 	0.3054	0.01646	0.75338	0.073
Mof_H 	H 	0.3163	0.0101	0.7357	-0.005
Mof_C 	C 	0.32217	0.01677	0.76625	-0.124
Mof_H 	H 	0.344	0.011	0.7576	0.08
Mof_C 	C 	0.30646	0.0258	0.79218	0.055
Mof_C 	C 	0.2748	0.03606	0.80242	-0.121
Mof_H 	H 	0.2633	0.0433	0.8195	0.08
Mof_C 	C 	0.25975	0.03577	0.78753	0.068
Mof_H 	H 	0.2379	0.0439	0.7941	-0.004
Mof_C 	C 	0.32312	0.0215	0.81028	0.101
Mof_N 	N 	0.35331	0.01759	0.79677	-0.139
Mof_C 	C 	0.36728	0.01258	0.8149	0.097
Mof_N 	N 	0.35322	0.01094	0.84478	-0.137
Mof_C 	C 	0.3229	0.01566	0.8554	0.101
Mof_N 	N 	0.30682	0.0215	0.83914	-0.14
Mof_N 	N 	0.46438	0.9965	0.77348	-0.236
Mof_C 	C 	0.44663	0.00571	0.75737	0.072
Mof_H 	H 	0.4563	0.0085	0.7359	-0.006
Mof_C 	C 	0.41533	0.01145	0.76967	-0.123
Mof_H 	H 	0.4039	0.0179	0.7571	0.081
Mof_C 	C 	0.40073	0.00767	0.80099	0.056
Mof_C 	C 	0.41858	0.99914	0.81782	-0.123
Mof_H 	H 	0.4093	0.9971	0.8391	0.08
Mof_C 	C 	0.44997	0.99371	0.80335	0.073
Mof_H 	H 	0.4619	0.9877	0.8153	-0.004
Mof_N 	N 	0.27381	0.00713	0.95067	-0.237
Mof_C 	C 	0.29836	0.01674	0.9345	0.072
Mof_H 	H 	0.3047	0.0217	0.9449	-0.005
Mof_C 	C 	0.31477	0.01995	0.90407	-0.121
Mof_H 	H 	0.3322	0.0266	0.8938	0.078
Mof_C 	C 	0.30552	0.01342	0.88826	0.052
Mof_C 	C 	0.28021	0.00373	0.90395	-0.115
Mof_H 	H 	0.2733	0.9993	0.8937	0.079
Mof_C 	C 	0.26508	0.00056	0.93528	0.063
Mof_H 	H 	0.2479	0.9935	0.9463	-0.002
Mof_N 	N 	0.28985	0.99661	0.00255	-0.264
Mof_C 	C 	0.30758	0.99396	0.01008	0.106
Mof_S 	S 	0.33169	0.98547	0.02707	-0.053
Mof_N 	N 	0.22767	0.99199	0.04881	-0.241
Mof_C 	C 	0.20381	0.98275	0.06635	0.094
Mof_H 	H 	0.1958	0.9782	0.0572	-0.013
Mof_C 	C 	0.18976	0.97908	0.09706	-0.138
Mof_H 	H 	0.1722	0.9726	0.1084	0.084
Mof_C 	C 	0.2008	0.98468	0.11162	0.062
Mof_C 	C 	0.22576	0.99464	0.09374	-0.124
Mof_H 	H 	0.2347	0.9983	0.1027	0.081
Mof_C 	C 	0.23786	0.99926	0.0623	0.067
Mof_H 	H 	0.254	0.0078	0.0498	-0.006
Mof_C 	C 	0.18603	0.98307	0.14389	0.097
Mof_N 	N 	0.15692	0.98246	0.1583	-0.138
Mof_S 	S 	0.64325	0.50397	0.30223	-0.052
Mof_C 	C 	0.68069	0.49549	0.29189	0.093
Mof_N 	N 	0.70679	0.48957	0.28453	-0.258
Mof_N 	N 	0.76421	0.43657	0.27475	-0.238
Mof_C 	C 	0.75338	0.42476	0.3054	0.073
Mof_H 	H 	0.7357	0.4379	0.3163	-0.005
Mof_C 	C 	0.76625	0.39481	0.32217	-0.124
Mof_H 	H 	0.7576	0.3874	0.344	0.08
Mof_C 	C 	0.79218	0.37556	0.30646	0.055
Mof_C 	C 	0.80242	0.38672	0.2748	-0.121
Mof_H 	H 	0.8195	0.3739	0.2633	0.08
Mof_C 	C 	0.78753	0.41695	0.25975	0.068
Mof_H 	H 	0.7941	0.4241	0.2379	-0.004
Mof_C 	C 	0.81028	0.3451	0.32312	0.101
Mof_N 	N 	0.79677	0.33233	0.35331	-0.139
Mof_C 	C 	0.8149	0.30524	0.36728	0.097
Mof_N 	N 	0.84478	0.29106	0.35322	-0.137
Mof_C 	C 	0.8554	0.30604	0.3229	0.101
Mof_N 	N 	0.83914	0.33254	0.30682	-0.14
Mof_N 	N 	0.77348	0.26564	0.46438	-0.236
Mof_C 	C 	0.75737	0.29029	0.44663	0.072
Mof_H 	H 	0.7359	0.2993	0.4563	-0.006
Mof_C 	C 	0.76967	0.30355	0.41533	-0.123
Mof_H 	H 	0.7571	0.3211	0.4039	0.081
Mof_C 	C 	0.80099	0.29061	0.40073	0.056
Mof_C 	C 	0.81782	0.26446	0.41858	-0.123
Mof_H 	H 	0.8391	0.2545	0.4093	0.08
Mof_C 	C 	0.80335	0.25297	0.44997	0.073
Mof_H 	H 	0.8153	0.2351	0.4619	-0.004
Mof_N 	N 	0.95067	0.26839	0.27381	-0.237
Mof_C 	C 	0.9345	0.2504	0.29836	0.072
Mof_H 	H 	0.9449	0.2287	0.3047	-0.005
Mof_C 	C 	0.90407	0.26121	0.31477	-0.121
Mof_H 	H 	0.8938	0.2474	0.3322	0.078
Mof_C 	C 	0.88826	0.2928	0.30552	0.052
Mof_C 	C 	0.90395	0.31211	0.28021	-0.115
Mof_H 	H 	0.8937	0.3337	0.2733	0.079
Mof_C 	C 	0.93528	0.29908	0.26508	0.063
Mof_H 	H 	0.9463	0.3123	0.2479	-0.002
Mof_N 	N 	0.00255	0.21099	0.28985	-0.264
Mof_C 	C 	0.01008	0.18838	0.30758	0.106
Mof_S 	S 	0.02707	0.15577	0.33169	-0.053
Mof_N 	N 	0.04881	0.23153	0.22767	-0.241
Mof_C 	C 	0.06635	0.24709	0.20381	0.094
Mof_H 	H 	0.0572	0.2688	0.1958	-0.013
Mof_C 	C 	0.09706	0.2341	0.18976	-0.138
Mof_H 	H 	0.1084	0.2468	0.1722	0.084
Mof_C 	C 	0.11162	0.2029	0.2008	0.062
Mof_C 	C 	0.09374	0.18586	0.22576	-0.124
Mof_H 	H 	0.1027	0.1643	0.2347	0.081
Mof_C 	C 	0.0623	0.20058	0.23786	0.067
Mof_H 	H 	0.0498	0.1884	0.254	-0.006
Mof_C 	C 	0.14389	0.18701	0.18603	0.097
Mof_N 	N 	0.1583	0.20232	0.15692	-0.138
Mof_S 	S 	0.44945	0.99603	0.19777	-0.052
Mof_C 	C 	0.46807	0.00451	0.20811	0.093
Mof_N 	N 	0.48089	0.01043	0.21547	-0.258
Mof_N 	N 	0.47553	0.06343	0.22525	-0.238
Mof_C 	C 	0.48354	0.07524	0.1946	0.073
Mof_H 	H 	0.4899	0.0621	0.1837	-0.005
Mof_C 	C 	0.48323	0.10519	0.17783	-0.124
Mof_H 	H 	0.489	0.1126	0.156	0.08
Mof_C 	C 	0.4742	0.12444	0.19354	0.055
Mof_C 	C 	0.46394	0.11328	0.2252	-0.121
Mof_H 	H 	0.4567	0.1261	0.2367	0.08
Mof_C 	C 	0.46423	0.08305	0.24025	0.068
Mof_H 	H 	0.4561	0.0759	0.2621	-0.004
Mof_C 	C 	0.4785	0.1549	0.17688	0.101
Mof_N 	N 	0.48241	0.16767	0.14669	-0.139
Mof_C 	C 	0.48742	0.19476	0.13272	0.097
Mof_N 	N 	0.48906	0.20894	0.14678	-0.137
Mof_C 	C 	0.48434	0.19396	0.1771	0.101
Mof_N 	N 	0.4785	0.16746	0.19318	-0.14
Mof_N 	N 	0.5035	0.23436	0.03562	-0.236
Mof_C 	C 	0.49429	0.20971	0.05337	0.072
Mof_H 	H 	0.4915	0.2007	0.0437	-0.006
Mof_C 	C 	0.48855	0.19645	0.08467	-0.123
Mof_H 	H 	0.4821	0.1789	0.0961	0.081
Mof_C 	C 	0.49233	0.20939	0.09927	0.056
Mof_C 	C 	0.50086	0.23554	0.08142	-0.123
Mof_H 	H 	0.5029	0.2455	0.0907	0.08
Mof_C 	C 	0.50629	0.24703	0.05003	0.073
Mof_H 	H 	0.5123	0.2649	0.0381	-0.004
Mof_N 	N 	0.49287	0.23161	0.22619	-0.237
Mof_C 	C 	0.48326	0.2496	0.20164	0.072
Mof_H 	H 	0.4783	0.2713	0.1953	-0.005
Mof_C 	C 	0.48005	0.23879	0.18523	-0.121
Mof_H 	H 	0.4734	0.2526	0.1678	0.078
Mof_C 	C 	0.48658	0.2072	0.19448	0.052
Mof_C 	C 	0.49627	0.18789	0.21979	-0.115
Mof_H 	H 	0.5007	0.1663	0.2267	0.079
Mof_C 	C 	0.49944	0.20092	0.23492	0.063
Mof_H 	H 	0.5065	0.1877	0.2521	-0.002
Mof_N 	N 	0.50339	0.28901	0.21015	-0.264
Mof_C 	C 	0.50604	0.31162	0.19242	0.106
Mof_S 	S 	0.51453	0.34423	0.16831	-0.053
Mof_N 	N 	0.50801	0.26847	0.27233	-0.241
Mof_C 	C 	0.51725	0.25291	0.29619	0.094
Mof_H 	H 	0.5218	0.2312	0.3042	-0.013
Mof_C 	C 	0.52092	0.2659	0.31024	-0.138
Mof_H 	H 	0.5274	0.2532	0.3278	0.084
Mof_C 	C 	0.51532	0.2971	0.2992	0.062
Mof_C 	C 	0.50536	0.31414	0.27424	-0.124
Mof_H 	H 	0.5017	0.3357	0.2653	0.081
Mof_C 	C 	0.50074	0.29942	0.26214	0.067
Mof_H 	H 	0.4922	0.3116	0.246	-0.006
Mof_C 	C 	0.51693	0.31299	0.31397	0.097
Mof_N 	N 	0.51754	0.29768	0.34308	-0.138
Mof_S 	S 	0.99603	0.44945	0.85675	-0.052
Mof_C 	C 	0.00451	0.46807	0.81931	0.093
Mof_N 	N 	0.01043	0.48089	0.79321	-0.258
Mof_N 	N 	0.06343	0.47553	0.73579	-0.238
Mof_C 	C 	0.07524	0.48354	0.74662	0.073
Mof_H 	H 	0.0621	0.4899	0.7643	-0.005
Mof_C 	C 	0.10519	0.48323	0.73375	-0.124
Mof_H 	H 	0.1126	0.489	0.7424	0.08
Mof_C 	C 	0.12444	0.4742	0.70782	0.055
Mof_C 	C 	0.11328	0.46394	0.69758	-0.121
Mof_H 	H 	0.1261	0.4567	0.6805	0.08
Mof_C 	C 	0.08305	0.46423	0.71247	0.068
Mof_H 	H 	0.0759	0.4561	0.7059	-0.004
Mof_C 	C 	0.1549	0.4785	0.68972	0.101
Mof_N 	N 	0.16767	0.48241	0.70323	-0.139
Mof_C 	C 	0.19476	0.48742	0.6851	0.097
Mof_N 	N 	0.20894	0.48906	0.65522	-0.137
Mof_C 	C 	0.19396	0.48434	0.6446	0.101
Mof_N 	N 	0.16746	0.4785	0.66086	-0.14
Mof_N 	N 	0.23436	0.5035	0.72652	-0.236
Mof_C 	C 	0.20971	0.49429	0.74263	0.072
Mof_H 	H 	0.2007	0.4915	0.7641	-0.006
Mof_C 	C 	0.19645	0.48855	0.73033	-0.123
Mof_H 	H 	0.1789	0.4821	0.7429	0.081
Mof_C 	C 	0.20939	0.49233	0.69901	0.056
Mof_C 	C 	0.23554	0.50086	0.68218	-0.123
Mof_H 	H 	0.2455	0.5029	0.6609	0.08
Mof_C 	C 	0.24703	0.50629	0.69665	0.073
Mof_H 	H 	0.2649	0.5123	0.6847	-0.004
Mof_N 	N 	0.23161	0.49287	0.54933	-0.237
Mof_C 	C 	0.2496	0.48326	0.5655	0.072
Mof_H 	H 	0.2713	0.4783	0.5551	-0.005
Mof_C 	C 	0.23879	0.48005	0.59593	-0.121
Mof_H 	H 	0.2526	0.4734	0.6062	0.078
Mof_C 	C 	0.2072	0.48658	0.61174	0.052
Mof_C 	C 	0.18789	0.49627	0.59605	-0.115
Mof_H 	H 	0.1663	0.5007	0.6063	0.079
Mof_C 	C 	0.20092	0.49944	0.56472	0.063
Mof_H 	H 	0.1877	0.5065	0.5537	-0.002
Mof_N 	N 	0.28901	0.50339	0.49745	-0.264
Mof_C 	C 	0.31162	0.50604	0.48992	0.106
Mof_S 	S 	0.34423	0.51453	0.47293	-0.053
Mof_N 	N 	0.26847	0.50801	0.45119	-0.241
Mof_C 	C 	0.25291	0.51725	0.43365	0.094
Mof_H 	H 	0.2312	0.5218	0.4428	-0.013
Mof_C 	C 	0.2659	0.52092	0.40294	-0.138
Mof_H 	H 	0.2532	0.5274	0.3916	0.084
Mof_C 	C 	0.2971	0.51532	0.38838	0.062
Mof_C 	C 	0.31414	0.50536	0.40626	-0.124
Mof_H 	H 	0.3357	0.5017	0.3973	0.081
Mof_C 	C 	0.29942	0.50074	0.4377	0.067
Mof_H 	H 	0.3116	0.4922	0.4502	-0.006
Mof_C 	C 	0.31299	0.51693	0.35611	0.097
Mof_N 	N 	0.29768	0.51754	0.3417	-0.138
Mof_S 	S 	0.85675	0.19777	0.99603	-0.052
Mof_C 	C 	0.81931	0.20811	0.00451	0.093
Mof_N 	N 	0.79321	0.21547	0.01043	-0.258
Mof_N 	N 	0.73579	0.22525	0.06343	-0.238
Mof_C 	C 	0.74662	0.1946	0.07524	0.073
Mof_H 	H 	0.7643	0.1837	0.0621	-0.005
Mof_C 	C 	0.73375	0.17783	0.10519	-0.124
Mof_H 	H 	0.7424	0.156	0.1126	0.08
Mof_C 	C 	0.70782	0.19354	0.12444	0.055
Mof_C 	C 	0.69758	0.2252	0.11328	-0.121
Mof_H 	H 	0.6805	0.2367	0.1261	0.08
Mof_C 	C 	0.71247	0.24025	0.08305	0.068
Mof_H 	H 	0.7059	0.2621	0.0759	-0.004
Mof_C 	C 	0.68972	0.17688	0.1549	0.101
Mof_N 	N 	0.70323	0.14669	0.16767	-0.139
Mof_C 	C 	0.6851	0.13272	0.19476	0.097
Mof_N 	N 	0.65522	0.14678	0.20894	-0.137
Mof_C 	C 	0.6446	0.1771	0.19396	0.101
Mof_N 	N 	0.66086	0.19318	0.16746	-0.14
Mof_N 	N 	0.72652	0.03562	0.23436	-0.236
Mof_C 	C 	0.74263	0.05337	0.20971	0.072
Mof_H 	H 	0.7641	0.0437	0.2007	-0.006
Mof_C 	C 	0.73033	0.08467	0.19645	-0.123
Mof_H 	H 	0.7429	0.0961	0.1789	0.081
Mof_C 	C 	0.69901	0.09927	0.20939	0.056
Mof_C 	C 	0.68218	0.08142	0.23554	-0.123
Mof_H 	H 	0.6609	0.0907	0.2455	0.08
Mof_C 	C 	0.69665	0.05003	0.24703	0.073
Mof_H 	H 	0.6847	0.0381	0.2649	-0.004
Mof_N 	N 	0.54933	0.22619	0.23161	-0.237
Mof_C 	C 	0.5655	0.20164	0.2496	0.072
Mof_H 	H 	0.5551	0.1953	0.2713	-0.005
Mof_C 	C 	0.59593	0.18523	0.23879	-0.121
Mof_H 	H 	0.6062	0.1678	0.2526	0.078
Mof_C 	C 	0.61174	0.19448	0.2072	0.052
Mof_C 	C 	0.59605	0.21979	0.18789	-0.115
Mof_H 	H 	0.6063	0.2267	0.1663	0.079
Mof_C 	C 	0.56472	0.23492	0.20092	0.063
Mof_H 	H 	0.5537	0.2521	0.1877	-0.002
Mof_N 	N 	0.49745	0.21015	0.28901	-0.264
Mof_C 	C 	0.48992	0.19242	0.31162	0.106
Mof_S 	S 	0.47293	0.16831	0.34423	-0.053
Mof_N 	N 	0.45119	0.27233	0.26847	-0.241
Mof_C 	C 	0.43365	0.29619	0.25291	0.094
Mof_H 	H 	0.4428	0.3042	0.2312	-0.013
Mof_C 	C 	0.40294	0.31024	0.2659	-0.138
Mof_H 	H 	0.3916	0.3278	0.2532	0.084
Mof_C 	C 	0.38838	0.2992	0.2971	0.062
Mof_C 	C 	0.40626	0.27424	0.31414	-0.124
Mof_H 	H 	0.3973	0.2653	0.3357	0.081
Mof_C 	C 	0.4377	0.26214	0.29942	0.067
Mof_H 	H 	0.4502	0.246	0.3116	-0.006
Mof_C 	C 	0.35611	0.31397	0.31299	0.097
Mof_N 	N 	0.3417	0.34308	0.29768	-0.138
Mof_S 	S 	0.19777	0.85675	0.44945	-0.052
Mof_C 	C 	0.20811	0.81931	0.46807	0.093
Mof_N 	N 	0.21547	0.79321	0.48089	-0.258
Mof_N 	N 	0.22525	0.73579	0.47553	-0.238
Mof_C 	C 	0.1946	0.74662	0.48354	0.073
Mof_H 	H 	0.1837	0.7643	0.4899	-0.005
Mof_C 	C 	0.17783	0.73375	0.48323	-0.124
Mof_H 	H 	0.156	0.7424	0.489	0.08
Mof_C 	C 	0.19354	0.70782	0.4742	0.055
Mof_C 	C 	0.2252	0.69758	0.46394	-0.121
Mof_H 	H 	0.2367	0.6805	0.4567	0.08
Mof_C 	C 	0.24025	0.71247	0.46423	0.068
Mof_H 	H 	0.2621	0.7059	0.4561	-0.004
Mof_C 	C 	0.17688	0.68972	0.4785	0.101
Mof_N 	N 	0.14669	0.70323	0.48241	-0.139
Mof_C 	C 	0.13272	0.6851	0.48742	0.097
Mof_N 	N 	0.14678	0.65522	0.48906	-0.137
Mof_C 	C 	0.1771	0.6446	0.48434	0.101
Mof_N 	N 	0.19318	0.66086	0.4785	-0.14
Mof_N 	N 	0.03562	0.72652	0.5035	-0.236
Mof_C 	C 	0.05337	0.74263	0.49429	0.072
Mof_H 	H 	0.0437	0.7641	0.4915	-0.006
Mof_C 	C 	0.08467	0.73033	0.48855	-0.123
Mof_H 	H 	0.0961	0.7429	0.4821	0.081
Mof_C 	C 	0.09927	0.69901	0.49233	0.056
Mof_C 	C 	0.08142	0.68218	0.50086	-0.123
Mof_H 	H 	0.0907	0.6609	0.5029	0.08
Mof_C 	C 	0.05003	0.69665	0.50629	0.073
Mof_H 	H 	0.0381	0.6847	0.5123	-0.004
Mof_N 	N 	0.22619	0.54933	0.49287	-0.237
Mof_C 	C 	0.20164	0.5655	0.48326	0.072
Mof_H 	H 	0.1953	0.5551	0.4783	-0.005
Mof_C 	C 	0.18523	0.59593	0.48005	-0.121
Mof_H 	H 	0.1678	0.6062	0.4734	0.078
Mof_C 	C 	0.19448	0.61174	0.48658	0.052
Mof_C 	C 	0.21979	0.59605	0.49627	-0.115
Mof_H 	H 	0.2267	0.6063	0.5007	0.079
Mof_C 	C 	0.23492	0.56472	0.49944	0.063
Mof_H 	H 	0.2521	0.5537	0.5065	-0.002
Mof_N 	N 	0.21015	0.49745	0.50339	-0.264
Mof_C 	C 	0.19242	0.48992	0.50604	0.106
Mof_S 	S 	0.16831	0.47293	0.51453	-0.053
Mof_N 	N 	0.27233	0.45119	0.50801	-0.241
Mof_C 	C 	0.29619	0.43365	0.51725	0.094
Mof_H 	H 	0.3042	0.4428	0.5218	-0.013
Mof_C 	C 	0.31024	0.40294	0.52092	-0.138
Mof_H 	H 	0.3278	0.3916	0.5274	0.084
Mof_C 	C 	0.2992	0.38838	0.51532	0.062
Mof_C 	C 	0.27424	0.40626	0.50536	-0.124
Mof_H 	H 	0.2653	0.3973	0.5017	0.081
Mof_C 	C 	0.26214	0.4377	0.50074	0.067
Mof_H 	H 	0.246	0.4502	0.4922	-0.006
Mof_C 	C 	0.31397	0.35611	0.51693	0.097
Mof_N 	N 	0.34308	0.3417	0.51754	-0.138
Mof_S 	S 	0.85675	0.44945	0.19777	-0.052
Mof_C 	C 	0.81931	0.46807	0.20811	0.093
Mof_N 	N 	0.79321	0.48089	0.21547	-0.258
Mof_N 	N 	0.73579	0.47553	0.22525	-0.238
Mof_C 	C 	0.74662	0.48354	0.1946	0.073
Mof_H 	H 	0.7643	0.4899	0.1837	-0.005
Mof_C 	C 	0.73375	0.48323	0.17783	-0.124
Mof_H 	H 	0.7424	0.489	0.156	0.08
Mof_C 	C 	0.70782	0.4742	0.19354	0.055
Mof_C 	C 	0.69758	0.46394	0.2252	-0.121
Mof_H 	H 	0.6805	0.4567	0.2367	0.08
Mof_C 	C 	0.71247	0.46423	0.24025	0.068
Mof_H 	H 	0.7059	0.4561	0.2621	-0.004
Mof_C 	C 	0.68972	0.4785	0.17688	0.101
Mof_N 	N 	0.70323	0.48241	0.14669	-0.139
Mof_C 	C 	0.6851	0.48742	0.13272	0.097
Mof_N 	N 	0.65522	0.48906	0.14678	-0.137
Mof_C 	C 	0.6446	0.48434	0.1771	0.101
Mof_N 	N 	0.66086	0.4785	0.19318	-0.14
Mof_N 	N 	0.72652	0.5035	0.03562	-0.236
Mof_C 	C 	0.74263	0.49429	0.05337	0.072
Mof_H 	H 	0.7641	0.4915	0.0437	-0.006
Mof_C 	C 	0.73033	0.48855	0.08467	-0.123
Mof_H 	H 	0.7429	0.4821	0.0961	0.081
Mof_C 	C 	0.69901	0.49233	0.09927	0.056
Mof_C 	C 	0.68218	0.50086	0.08142	-0.123
Mof_H 	H 	0.6609	0.5029	0.0907	0.08
Mof_C 	C 	0.69665	0.50629	0.05003	0.073
Mof_H 	H 	0.6847	0.5123	0.0381	-0.004
Mof_N 	N 	0.54933	0.49287	0.22619	-0.237
Mof_C 	C 	0.5655	0.48326	0.20164	0.072
Mof_H 	H 	0.5551	0.4783	0.1953	-0.005
Mof_C 	C 	0.59593	0.48005	0.18523	-0.121
Mof_H 	H 	0.6062	0.4734	0.1678	0.078
Mof_C 	C 	0.61174	0.48658	0.19448	0.052
Mof_C 	C 	0.59605	0.49627	0.21979	-0.115
Mof_H 	H 	0.6063	0.5007	0.2267	0.079
Mof_C 	C 	0.56472	0.49944	0.23492	0.063
Mof_H 	H 	0.5537	0.5065	0.2521	-0.002
Mof_N 	N 	0.49745	0.50339	0.21015	-0.264
Mof_C 	C 	0.48992	0.50604	0.19242	0.106
Mof_S 	S 	0.47293	0.51453	0.16831	-0.053
Mof_N 	N 	0.45119	0.50801	0.27233	-0.241
Mof_C 	C 	0.43365	0.51725	0.29619	0.094
Mof_H 	H 	0.4428	0.5218	0.3042	-0.013
Mof_C 	C 	0.40294	0.52092	0.31024	-0.138
Mof_H 	H 	0.3916	0.5274	0.3278	0.084
Mof_C 	C 	0.38838	0.51532	0.2992	0.062
Mof_C 	C 	0.40626	0.50536	0.27424	-0.124
Mof_H 	H 	0.3973	0.5017	0.2653	0.081
Mof_C 	C 	0.4377	0.50074	0.26214	0.067
Mof_H 	H 	0.4502	0.4922	0.246	-0.006
Mof_C 	C 	0.35611	0.51693	0.31397	0.097
Mof_N 	N 	0.3417	0.51754	0.34308	-0.138
Mof_S 	S 	0.19777	0.99603	0.85675	-0.052
Mof_C 	C 	0.20811	0.00451	0.81931	0.093
Mof_N 	N 	0.21547	0.01043	0.79321	-0.258
Mof_N 	N 	0.22525	0.06343	0.73579	-0.238
Mof_C 	C 	0.1946	0.07524	0.74662	0.073
Mof_H 	H 	0.1837	0.0621	0.7643	-0.005
Mof_C 	C 	0.17783	0.10519	0.73375	-0.124
Mof_H 	H 	0.156	0.1126	0.7424	0.08
Mof_C 	C 	0.19354	0.12444	0.70782	0.055
Mof_C 	C 	0.2252	0.11328	0.69758	-0.121
Mof_H 	H 	0.2367	0.1261	0.6805	0.08
Mof_C 	C 	0.24025	0.08305	0.71247	0.068
Mof_H 	H 	0.2621	0.0759	0.7059	-0.004
Mof_C 	C 	0.17688	0.1549	0.68972	0.101
Mof_N 	N 	0.14669	0.16767	0.70323	-0.139
Mof_C 	C 	0.13272	0.19476	0.6851	0.097
Mof_N 	N 	0.14678	0.20894	0.65522	-0.137
Mof_C 	C 	0.1771	0.19396	0.6446	0.101
Mof_N 	N 	0.19318	0.16746	0.66086	-0.14
Mof_N 	N 	0.03562	0.23436	0.72652	-0.236
Mof_C 	C 	0.05337	0.20971	0.74263	0.072
Mof_H 	H 	0.0437	0.2007	0.7641	-0.006
Mof_C 	C 	0.08467	0.19645	0.73033	-0.123
Mof_H 	H 	0.0961	0.1789	0.7429	0.081
Mof_C 	C 	0.09927	0.20939	0.69901	0.056
Mof_C 	C 	0.08142	0.23554	0.68218	-0.123
Mof_H 	H 	0.0907	0.2455	0.6609	0.08
Mof_C 	C 	0.05003	0.24703	0.69665	0.073
Mof_H 	H 	0.0381	0.2649	0.6847	-0.004
Mof_N 	N 	0.22619	0.23161	0.54933	-0.237
Mof_C 	C 	0.20164	0.2496	0.5655	0.072
Mof_H 	H 	0.1953	0.2713	0.5551	-0.005
Mof_C 	C 	0.18523	0.23879	0.59593	-0.121
Mof_H 	H 	0.1678	0.2526	0.6062	0.078
Mof_C 	C 	0.19448	0.2072	0.61174	0.052
Mof_C 	C 	0.21979	0.18789	0.59605	-0.115
Mof_H 	H 	0.2267	0.1663	0.6063	0.079
Mof_C 	C 	0.23492	0.20092	0.56472	0.063
Mof_H 	H 	0.2521	0.1877	0.5537	-0.002
Mof_N 	N 	0.21015	0.28901	0.49745	-0.264
Mof_C 	C 	0.19242	0.31162	0.48992	0.106
Mof_S 	S 	0.16831	0.34423	0.47293	-0.053
Mof_N 	N 	0.27233	0.26847	0.45119	-0.241
Mof_C 	C 	0.29619	0.25291	0.43365	0.094
Mof_H 	H 	0.3042	0.2312	0.4428	-0.013
Mof_C 	C 	0.31024	0.2659	0.40294	-0.138
Mof_H 	H 	0.3278	0.2532	0.3916	0.084
Mof_C 	C 	0.2992	0.2971	0.38838	0.062
Mof_C 	C 	0.27424	0.31414	0.40626	-0.124
Mof_H 	H 	0.2653	0.3357	0.3973	0.081
Mof_C 	C 	0.26214	0.29942	0.4377	0.067
Mof_H 	H 	0.246	0.3116	0.4502	-0.006
Mof_C 	C 	0.31397	0.31299	0.35611	0.097
Mof_N 	N 	0.34308	0.29768	0.3417	-0.138
Mof_S 	S 	0.44945	0.85675	0.99603	-0.052
Mof_C 	C 	0.46807	0.81931	0.00451	0.093
Mof_N 	N 	0.48089	0.79321	0.01043	-0.258
Mof_N 	N 	0.47553	0.73579	0.06343	-0.238
Mof_C 	C 	0.48354	0.74662	0.07524	0.073
Mof_H 	H 	0.4899	0.7643	0.0621	-0.005
Mof_C 	C 	0.48323	0.73375	0.10519	-0.124
Mof_H 	H 	0.489	0.7424	0.1126	0.08
Mof_C 	C 	0.4742	0.70782	0.12444	0.055
Mof_C 	C 	0.46394	0.69758	0.11328	-0.121
Mof_H 	H 	0.4567	0.6805	0.1261	0.08
Mof_C 	C 	0.46423	0.71247	0.08305	0.068
Mof_H 	H 	0.4561	0.7059	0.0759	-0.004
Mof_C 	C 	0.4785	0.68972	0.1549	0.101
Mof_N 	N 	0.48241	0.70323	0.16767	-0.139
Mof_C 	C 	0.48742	0.6851	0.19476	0.097
Mof_N 	N 	0.48906	0.65522	0.20894	-0.137
Mof_C 	C 	0.48434	0.6446	0.19396	0.101
Mof_N 	N 	0.4785	0.66086	0.16746	-0.14
Mof_N 	N 	0.5035	0.72652	0.23436	-0.236
Mof_C 	C 	0.49429	0.74263	0.20971	0.072
Mof_H 	H 	0.4915	0.7641	0.2007	-0.006
Mof_C 	C 	0.48855	0.73033	0.19645	-0.123
Mof_H 	H 	0.4821	0.7429	0.1789	0.081
Mof_C 	C 	0.49233	0.69901	0.20939	0.056
Mof_C 	C 	0.50086	0.68218	0.23554	-0.123
Mof_H 	H 	0.5029	0.6609	0.2455	0.08
Mof_C 	C 	0.50629	0.69665	0.24703	0.073
Mof_H 	H 	0.5123	0.6847	0.2649	-0.004
Mof_N 	N 	0.49287	0.54933	0.23161	-0.237
Mof_C 	C 	0.48326	0.5655	0.2496	0.072
Mof_H 	H 	0.4783	0.5551	0.2713	-0.005
Mof_C 	C 	0.48005	0.59593	0.23879	-0.121
Mof_H 	H 	0.4734	0.6062	0.2526	0.078
Mof_C 	C 	0.48658	0.61174	0.2072	0.052
Mof_C 	C 	0.49627	0.59605	0.18789	-0.115
Mof_H 	H 	0.5007	0.6063	0.1663	0.079
Mof_C 	C 	0.49944	0.56472	0.20092	0.063
Mof_H 	H 	0.5065	0.5537	0.1877	-0.002
Mof_N 	N 	0.50339	0.49745	0.28901	-0.264
Mof_C 	C 	0.50604	0.48992	0.31162	0.106
Mof_S 	S 	0.51453	0.47293	0.34423	-0.053
Mof_N 	N 	0.50801	0.45119	0.26847	-0.241
Mof_C 	C 	0.51725	0.43365	0.25291	0.094
Mof_H 	H 	0.5218	0.4428	0.2312	-0.013
Mof_C 	C 	0.52092	0.40294	0.2659	-0.138
Mof_H 	H 	0.5274	0.3916	0.2532	0.084
Mof_C 	C 	0.51532	0.38838	0.2971	0.062
Mof_C 	C 	0.50536	0.40626	0.31414	-0.124
Mof_H 	H 	0.5017	0.3973	0.3357	0.081
Mof_C 	C 	0.50074	0.4377	0.29942	0.067
Mof_H 	H 	0.4922	0.4502	0.3116	-0.006
Mof_C 	C 	0.51693	0.35611	0.31299	0.097
Mof_N 	N 	0.51754	0.3417	0.29768	-0.138
Mof_S 	S 	0.99603	0.19777	0.44945	-0.052
Mof_C 	C 	0.00451	0.20811	0.46807	0.093
Mof_N 	N 	0.01043	0.21547	0.48089	-0.258
Mof_N 	N 	0.06343	0.22525	0.47553	-0.238
Mof_C 	C 	0.07524	0.1946	0.48354	0.073
Mof_H 	H 	0.0621	0.1837	0.4899	-0.005
Mof_C 	C 	0.10519	0.17783	0.48323	-0.124
Mof_H 	H 	0.1126	0.156	0.489	0.08
Mof_C 	C 	0.12444	0.19354	0.4742	0.055
Mof_C 	C 	0.11328	0.2252	0.46394	-0.121
Mof_H 	H 	0.1261	0.2367	0.4567	0.08
Mof_C 	C 	0.08305	0.24025	0.46423	0.068
Mof_H 	H 	0.0759	0.2621	0.4561	-0.004
Mof_C 	C 	0.1549	0.17688	0.4785	0.101
Mof_N 	N 	0.16767	0.14669	0.48241	-0.139
Mof_C 	C 	0.19476	0.13272	0.48742	0.097
Mof_N 	N 	0.20894	0.14678	0.48906	-0.137
Mof_C 	C 	0.19396	0.1771	0.48434	0.101
Mof_N 	N 	0.16746	0.19318	0.4785	-0.14
Mof_N 	N 	0.23436	0.03562	0.5035	-0.236
Mof_C 	C 	0.20971	0.05337	0.49429	0.072
Mof_H 	H 	0.2007	0.0437	0.4915	-0.006
Mof_C 	C 	0.19645	0.08467	0.48855	-0.123
Mof_H 	H 	0.1789	0.0961	0.4821	0.081
Mof_C 	C 	0.20939	0.09927	0.49233	0.056
Mof_C 	C 	0.23554	0.08142	0.50086	-0.123
Mof_H 	H 	0.2455	0.0907	0.5029	0.08
Mof_C 	C 	0.24703	0.05003	0.50629	0.073
Mof_H 	H 	0.2649	0.0381	0.5123	-0.004
Mof_N 	N 	0.23161	0.22619	0.49287	-0.237
Mof_C 	C 	0.2496	0.20164	0.48326	0.072
Mof_H 	H 	0.2713	0.1953	0.4783	-0.005
Mof_C 	C 	0.23879	0.18523	0.48005	-0.121
Mof_H 	H 	0.2526	0.1678	0.4734	0.078
Mof_C 	C 	0.2072	0.19448	0.48658	0.052
Mof_C 	C 	0.18789	0.21979	0.49627	-0.115
Mof_H 	H 	0.1663	0.2267	0.5007	0.079
Mof_C 	C 	0.20092	0.23492	0.49944	0.063
Mof_H 	H 	0.1877	0.2521	0.5065	-0.002
Mof_N 	N 	0.28901	0.21015	0.50339	-0.264
Mof_C 	C 	0.31162	0.19242	0.50604	0.106
Mof_S 	S 	0.34423	0.16831	0.51453	-0.053
Mof_N 	N 	0.26847	0.27233	0.50801	-0.241
Mof_C 	C 	0.25291	0.29619	0.51725	0.094
Mof_H 	H 	0.2312	0.3042	0.5218	-0.013
Mof_C 	C 	0.2659	0.31024	0.52092	-0.138
Mof_H 	H 	0.2532	0.3278	0.5274	0.084
Mof_C 	C 	0.2971	0.2992	0.51532	0.062
Mof_C 	C 	0.31414	0.27424	0.50536	-0.124
Mof_H 	H 	0.3357	0.2653	0.5017	0.081
Mof_C 	C 	0.29942	0.26214	0.50074	0.067
Mof_H 	H 	0.3116	0.246	0.4922	-0.006
Mof_C 	C 	0.31299	0.31397	0.51693	0.097
Mof_N 	N 	0.29768	0.34308	0.51754	-0.138
Mof_S 	S 	0.99603	0.85675	0.19777	-0.052
Mof_C 	C 	0.00451	0.81931	0.20811	0.093
Mof_N 	N 	0.01043	0.79321	0.21547	-0.258
Mof_N 	N 	0.06343	0.73579	0.22525	-0.238
Mof_C 	C 	0.07524	0.74662	0.1946	0.073
Mof_H 	H 	0.0621	0.7643	0.1837	-0.005
Mof_C 	C 	0.10519	0.73375	0.17783	-0.124
Mof_H 	H 	0.1126	0.7424	0.156	0.08
Mof_C 	C 	0.12444	0.70782	0.19354	0.055
Mof_C 	C 	0.11328	0.69758	0.2252	-0.121
Mof_H 	H 	0.1261	0.6805	0.2367	0.08
Mof_C 	C 	0.08305	0.71247	0.24025	0.068
Mof_H 	H 	0.0759	0.7059	0.2621	-0.004
Mof_C 	C 	0.1549	0.68972	0.17688	0.101
Mof_N 	N 	0.16767	0.70323	0.14669	-0.139
Mof_C 	C 	0.19476	0.6851	0.13272	0.097
Mof_N 	N 	0.20894	0.65522	0.14678	-0.137
Mof_C 	C 	0.19396	0.6446	0.1771	0.101
Mof_N 	N 	0.16746	0.66086	0.19318	-0.14
Mof_N 	N 	0.23436	0.72652	0.03562	-0.236
Mof_C 	C 	0.20971	0.74263	0.05337	0.072
Mof_H 	H 	0.2007	0.7641	0.0437	-0.006
Mof_C 	C 	0.19645	0.73033	0.08467	-0.123
Mof_H 	H 	0.1789	0.7429	0.0961	0.081
Mof_C 	C 	0.20939	0.69901	0.09927	0.056
Mof_C 	C 	0.23554	0.68218	0.08142	-0.123
Mof_H 	H 	0.2455	0.6609	0.0907	0.08
Mof_C 	C 	0.24703	0.69665	0.05003	0.073
Mof_H 	H 	0.2649	0.6847	0.0381	-0.004
Mof_N 	N 	0.23161	0.54933	0.22619	-0.237
Mof_C 	C 	0.2496	0.5655	0.20164	0.072
Mof_H 	H 	0.2713	0.5551	0.1953	-0.005
Mof_C 	C 	0.23879	0.59593	0.18523	-0.121
Mof_H 	H 	0.2526	0.6062	0.1678	0.078
Mof_C 	C 	0.2072	0.61174	0.19448	0.052
Mof_C 	C 	0.18789	0.59605	0.21979	-0.115
Mof_H 	H 	0.1663	0.6063	0.2267	0.079
Mof_C 	C 	0.20092	0.56472	0.23492	0.063
Mof_H 	H 	0.1877	0.5537	0.2521	-0.002
Mof_N 	N 	0.28901	0.49745	0.21015	-0.264
Mof_C 	C 	0.31162	0.48992	0.19242	0.106
Mof_S 	S 	0.34423	0.47293	0.16831	-0.053
Mof_N 	N 	0.26847	0.45119	0.27233	-0.241
Mof_C 	C 	0.25291	0.43365	0.29619	0.094
Mof_H 	H 	0.2312	0.4428	0.3042	-0.013
Mof_C 	C 	0.2659	0.40294	0.31024	-0.138
Mof_H 	H 	0.2532	0.3916	0.3278	0.084
Mof_C 	C 	0.2971	0.38838	0.2992	0.062
Mof_C 	C 	0.31414	0.40626	0.27424	-0.124
Mof_H 	H 	0.3357	0.3973	0.2653	0.081
Mof_C 	C 	0.29942	0.4377	0.26214	0.067
Mof_H 	H 	0.3116	0.4502	0.246	-0.006
Mof_C 	C 	0.31299	0.35611	0.31397	0.097
Mof_N 	N 	0.29768	0.3417	0.34308	-0.138
Mof_S 	S 	0.44945	0.19777	0.85675	-0.052
Mof_C 	C 	0.46807	0.20811	0.81931	0.093
Mof_N 	N 	0.48089	0.21547	0.79321	-0.258
Mof_N 	N 	0.47553	0.22525	0.73579	-0.238
Mof_C 	C 	0.48354	0.1946	0.74662	0.073
Mof_H 	H 	0.4899	0.1837	0.7643	-0.005
Mof_C 	C 	0.48323	0.17783	0.73375	-0.124
Mof_H 	H 	0.489	0.156	0.7424	0.08
Mof_C 	C 	0.4742	0.19354	0.70782	0.055
Mof_C 	C 	0.46394	0.2252	0.69758	-0.121
Mof_H 	H 	0.4567	0.2367	0.6805	0.08
Mof_C 	C 	0.46423	0.24025	0.71247	0.068
Mof_H 	H 	0.4561	0.2621	0.7059	-0.004
Mof_C 	C 	0.4785	0.17688	0.68972	0.101
Mof_N 	N 	0.48241	0.14669	0.70323	-0.139
Mof_C 	C 	0.48742	0.13272	0.6851	0.097
Mof_N 	N 	0.48906	0.14678	0.65522	-0.137
Mof_C 	C 	0.48434	0.1771	0.6446	0.101
Mof_N 	N 	0.4785	0.19318	0.66086	-0.14
Mof_N 	N 	0.5035	0.03562	0.72652	-0.236
Mof_C 	C 	0.49429	0.05337	0.74263	0.072
Mof_H 	H 	0.4915	0.0437	0.7641	-0.006
Mof_C 	C 	0.48855	0.08467	0.73033	-0.123
Mof_H 	H 	0.4821	0.0961	0.7429	0.081
Mof_C 	C 	0.49233	0.09927	0.69901	0.056
Mof_C 	C 	0.50086	0.08142	0.68218	-0.123
Mof_H 	H 	0.5029	0.0907	0.6609	0.08
Mof_C 	C 	0.50629	0.05003	0.69665	0.073
Mof_H 	H 	0.5123	0.0381	0.6847	-0.004
Mof_N 	N 	0.49287	0.22619	0.54933	-0.237
Mof_C 	C 	0.48326	0.20164	0.5655	0.072
Mof_H 	H 	0.4783	0.1953	0.5551	-0.005
Mof_C 	C 	0.48005	0.18523	0.59593	-0.121
Mof_H 	H 	0.4734	0.1678	0.6062	0.078
Mof_C 	C 	0.48658	0.19448	0.61174	0.052
Mof_C 	C 	0.49627	0.21979	0.59605	-0.115
Mof_H 	H 	0.5007	0.2267	0.6063	0.079
Mof_C 	C 	0.49944	0.23492	0.56472	0.063
Mof_H 	H 	0.5065	0.2521	0.5537	-0.002
Mof_N 	N 	0.50339	0.21015	0.49745	-0.264
Mof_C 	C 	0.50604	0.19242	0.48992	0.106
Mof_S 	S 	0.51453	0.16831	0.47293	-0.053
Mof_N 	N 	0.50801	0.27233	0.45119	-0.241
Mof_C 	C 	0.51725	0.29619	0.43365	0.094
Mof_H 	H 	0.5218	0.3042	0.4428	-0.013
Mof_C 	C 	0.52092	0.31024	0.40294	-0.138
Mof_H 	H 	0.5274	0.3278	0.3916	0.084
Mof_C 	C 	0.51532	0.2992	0.38838	0.062
Mof_C 	C 	0.50536	0.27424	0.40626	-0.124
Mof_H 	H 	0.5017	0.2653	0.3973	0.081
Mof_C 	C 	0.50074	0.26214	0.4377	0.067
Mof_H 	H 	0.4922	0.246	0.4502	-0.006
Mof_C 	C 	0.51693	0.31397	0.35611	0.097
Mof_N 	N 	0.51754	0.34308	0.3417	-0.138
Mof_S 	S 	0.19777	0.44945	0.99603	-0.052
Mof_C 	C 	0.20811	0.46807	0.00451	0.093
Mof_N 	N 	0.21547	0.48089	0.01043	-0.258
Mof_N 	N 	0.22525	0.47553	0.06343	-0.238
Mof_C 	C 	0.1946	0.48354	0.07524	0.073
Mof_H 	H 	0.1837	0.4899	0.0621	-0.005
Mof_C 	C 	0.17783	0.48323	0.10519	-0.124
Mof_H 	H 	0.156	0.489	0.1126	0.08
Mof_C 	C 	0.19354	0.4742	0.12444	0.055
Mof_C 	C 	0.2252	0.46394	0.11328	-0.121
Mof_H 	H 	0.2367	0.4567	0.1261	0.08
Mof_C 	C 	0.24025	0.46423	0.08305	0.068
Mof_H 	H 	0.2621	0.4561	0.0759	-0.004
Mof_C 	C 	0.17688	0.4785	0.1549	0.101
Mof_N 	N 	0.14669	0.48241	0.16767	-0.139
Mof_C 	C 	0.13272	0.48742	0.19476	0.097
Mof_N 	N 	0.14678	0.48906	0.20894	-0.137
Mof_C 	C 	0.1771	0.48434	0.19396	0.101
Mof_N 	N 	0.19318	0.4785	0.16746	-0.14
Mof_N 	N 	0.03562	0.5035	0.23436	-0.236
Mof_C 	C 	0.05337	0.49429	0.20971	0.072
Mof_H 	H 	0.0437	0.4915	0.2007	-0.006
Mof_C 	C 	0.08467	0.48855	0.19645	-0.123
Mof_H 	H 	0.0961	0.4821	0.1789	0.081
Mof_C 	C 	0.09927	0.49233	0.20939	0.056
Mof_C 	C 	0.08142	0.50086	0.23554	-0.123
Mof_H 	H 	0.0907	0.5029	0.2455	0.08
Mof_C 	C 	0.05003	0.50629	0.24703	0.073
Mof_H 	H 	0.0381	0.5123	0.2649	-0.004
Mof_N 	N 	0.22619	0.49287	0.23161	-0.237
Mof_C 	C 	0.20164	0.48326	0.2496	0.072
Mof_H 	H 	0.1953	0.4783	0.2713	-0.005
Mof_C 	C 	0.18523	0.48005	0.23879	-0.121
Mof_H 	H 	0.1678	0.4734	0.2526	0.078
Mof_C 	C 	0.19448	0.48658	0.2072	0.052
Mof_C 	C 	0.21979	0.49627	0.18789	-0.115
Mof_H 	H 	0.2267	0.5007	0.1663	0.079
Mof_C 	C 	0.23492	0.49944	0.20092	0.063
Mof_H 	H 	0.2521	0.5065	0.1877	-0.002
Mof_N 	N 	0.21015	0.50339	0.28901	-0.264
Mof_C 	C 	0.19242	0.50604	0.31162	0.106
Mof_S 	S 	0.16831	0.51453	0.34423	-0.053
Mof_N 	N 	0.27233	0.50801	0.26847	-0.241
Mof_C 	C 	0.29619	0.51725	0.25291	0.094
Mof_H 	H 	0.3042	0.5218	0.2312	-0.013
Mof_C 	C 	0.31024	0.52092	0.2659	-0.138
Mof_H 	H 	0.3278	0.5274	0.2532	0.084
Mof_C 	C 	0.2992	0.51532	0.2971	0.062
Mof_C 	C 	0.27424	0.50536	0.31414	-0.124
Mof_H 	H 	0.2653	0.5017	0.3357	0.081
Mof_C 	C 	0.26214	0.50074	0.29942	0.067
Mof_H 	H 	0.246	0.4922	0.3116	-0.006
Mof_C 	C 	0.31397	0.51693	0.31299	0.097
Mof_N 	N 	0.34308	0.51754	0.29768	-0.138
Mof_S 	S 	0.85675	0.99603	0.44945	-0.052
Mof_C 	C 	0.81931	0.00451	0.46807	0.093
Mof_N 	N 	0.79321	0.01043	0.48089	-0.258
Mof_N 	N 	0.73579	0.06343	0.47553	-0.238
Mof_C 	C 	0.74662	0.07524	0.48354	0.073
Mof_H 	H 	0.7643	0.0621	0.4899	-0.005
Mof_C 	C 	0.73375	0.10519	0.48323	-0.124
Mof_H 	H 	0.7424	0.1126	0.489	0.08
Mof_C 	C 	0.70782	0.12444	0.4742	0.055
Mof_C 	C 	0.69758	0.11328	0.46394	-0.121
Mof_H 	H 	0.6805	0.1261	0.4567	0.08
Mof_C 	C 	0.71247	0.08305	0.46423	0.068
Mof_H 	H 	0.7059	0.0759	0.4561	-0.004
Mof_C 	C 	0.68972	0.1549	0.4785	0.101
Mof_N 	N 	0.70323	0.16767	0.48241	-0.139
Mof_C 	C 	0.6851	0.19476	0.48742	0.097
Mof_N 	N 	0.65522	0.20894	0.48906	-0.137
Mof_C 	C 	0.6446	0.19396	0.48434	0.101
Mof_N 	N 	0.66086	0.16746	0.4785	-0.14
Mof_N 	N 	0.72652	0.23436	0.5035	-0.236
Mof_C 	C 	0.74263	0.20971	0.49429	0.072
Mof_H 	H 	0.7641	0.2007	0.4915	-0.006
Mof_C 	C 	0.73033	0.19645	0.48855	-0.123
Mof_H 	H 	0.7429	0.1789	0.4821	0.081
Mof_C 	C 	0.69901	0.20939	0.49233	0.056
Mof_C 	C 	0.68218	0.23554	0.50086	-0.123
Mof_H 	H 	0.6609	0.2455	0.5029	0.08
Mof_C 	C 	0.69665	0.24703	0.50629	0.073
Mof_H 	H 	0.6847	0.2649	0.5123	-0.004
Mof_N 	N 	0.54933	0.23161	0.49287	-0.237
Mof_C 	C 	0.5655	0.2496	0.48326	0.072
Mof_H 	H 	0.5551	0.2713	0.4783	-0.005
Mof_C 	C 	0.59593	0.23879	0.48005	-0.121
Mof_H 	H 	0.6062	0.2526	0.4734	0.078
Mof_C 	C 	0.61174	0.2072	0.48658	0.052
Mof_C 	C 	0.59605	0.18789	0.49627	-0.115
Mof_H 	H 	0.6063	0.1663	0.5007	0.079
Mof_C 	C 	0.56472	0.20092	0.49944	0.063
Mof_H 	H 	0.5537	0.1877	0.5065	-0.002
Mof_N 	N 	0.49745	0.28901	0.50339	-0.264
Mof_C 	C 	0.48992	0.31162	0.50604	0.106
Mof_S 	S 	0.47293	0.34423	0.51453	-0.053
Mof_N 	N 	0.45119	0.26847	0.50801	-0.241
Mof_C 	C 	0.43365	0.25291	0.51725	0.094
Mof_H 	H 	0.4428	0.2312	0.5218	-0.013
Mof_C 	C 	0.40294	0.2659	0.52092	-0.138
Mof_H 	H 	0.3916	0.2532	0.5274	0.084
Mof_C 	C 	0.38838	0.2971	0.51532	0.062
Mof_C 	C 	0.40626	0.31414	0.50536	-0.124
Mof_H 	H 	0.3973	0.3357	0.5017	0.081
Mof_C 	C 	0.4377	0.29942	0.50074	0.067
Mof_H 	H 	0.4502	0.3116	0.4922	-0.006
Mof_C 	C 	0.35611	0.31299	0.51693	0.097
Mof_N 	N 	0.3417	0.29768	0.51754	-0.138
Mof_S 	S 	0.94945	0.49603	0.35675	-0.052
Mof_C 	C 	0.96807	0.50451	0.31931	0.093
Mof_N 	N 	0.98089	0.51043	0.29321	-0.258
Mof_N 	N 	0.97553	0.56343	0.23579	-0.238
Mof_C 	C 	0.98354	0.57524	0.24662	0.073
Mof_H 	H 	0.9899	0.5621	0.2643	-0.005
Mof_C 	C 	0.98323	0.60519	0.23375	-0.124
Mof_H 	H 	0.989	0.6126	0.2424	0.08
Mof_C 	C 	0.9742	0.62444	0.20782	0.055
Mof_C 	C 	0.96394	0.61328	0.19758	-0.121
Mof_H 	H 	0.9567	0.6261	0.1805	0.08
Mof_C 	C 	0.96423	0.58305	0.21247	0.068
Mof_H 	H 	0.9561	0.5759	0.2059	-0.004
Mof_C 	C 	0.9785	0.6549	0.18972	0.101
Mof_N 	N 	0.98241	0.66767	0.20323	-0.139
Mof_C 	C 	0.98742	0.69476	0.1851	0.097
Mof_N 	N 	0.98906	0.70894	0.15522	-0.137
Mof_C 	C 	0.98434	0.69396	0.1446	0.101
Mof_N 	N 	0.9785	0.66746	0.16086	-0.14
Mof_N 	N 	0.0035	0.73436	0.22652	-0.236
Mof_C 	C 	0.99429	0.70971	0.24263	0.072
Mof_H 	H 	0.9915	0.7007	0.2641	-0.006
Mof_C 	C 	0.98855	0.69645	0.23033	-0.123
Mof_H 	H 	0.9821	0.6789	0.2429	0.081
Mof_C 	C 	0.99233	0.70939	0.19901	0.056
Mof_C 	C 	0.00086	0.73554	0.18218	-0.123
Mof_H 	H 	0.0029	0.7455	0.1609	0.08
Mof_C 	C 	0.00629	0.74703	0.19665	0.073
Mof_H 	H 	0.0123	0.7649	0.1847	-0.004
Mof_N 	N 	0.99287	0.73161	0.04933	-0.237
Mof_C 	C 	0.98326	0.7496	0.0655	0.072
Mof_H 	H 	0.9783	0.7713	0.0551	-0.005
Mof_C 	C 	0.98005	0.73879	0.09593	-0.121
Mof_H 	H 	0.9734	0.7526	0.1062	0.078
Mof_C 	C 	0.98658	0.7072	0.11174	0.052
Mof_C 	C 	0.99627	0.68789	0.09605	-0.115
Mof_H 	H 	0.0007	0.6663	0.1063	0.079
Mof_C 	C 	0.99944	0.70092	0.06472	0.063
Mof_H 	H 	0.0065	0.6877	0.0537	-0.002
Mof_N 	N 	0.00339	0.78901	0.99745	-0.264
Mof_C 	C 	0.00604	0.81162	0.98992	0.106
Mof_S 	S 	0.01453	0.84423	0.97293	-0.053
Mof_N 	N 	0.00801	0.76847	0.95119	-0.241
Mof_C 	C 	0.01725	0.75291	0.93365	0.094
Mof_H 	H 	0.0218	0.7312	0.9428	-0.013
Mof_C 	C 	0.02092	0.7659	0.90294	-0.138
Mof_H 	H 	0.0274	0.7532	0.8916	0.084
Mof_C 	C 	0.01532	0.7971	0.88838	0.062
Mof_C 	C 	0.00536	0.81414	0.90626	-0.124
Mof_H 	H 	0.0017	0.8357	0.8973	0.081
Mof_C 	C 	0.00074	0.79942	0.9377	0.067
Mof_H 	H 	0.9922	0.8116	0.9502	-0.006
Mof_C 	C 	0.01693	0.81299	0.85611	0.097
Mof_N 	N 	0.01754	0.79768	0.8417	-0.138
Mof_S 	S 	0.49603	0.94945	0.69777	-0.052
Mof_C 	C 	0.50451	0.96807	0.70811	0.093
Mof_N 	N 	0.51043	0.98089	0.71547	-0.258
Mof_N 	N 	0.56343	0.97553	0.72525	-0.238
Mof_C 	C 	0.57524	0.98354	0.6946	0.073
Mof_H 	H 	0.5621	0.9899	0.6837	-0.005
Mof_C 	C 	0.60519	0.98323	0.67783	-0.124
Mof_H 	H 	0.6126	0.989	0.656	0.08
Mof_C 	C 	0.62444	0.9742	0.69354	0.055
Mof_C 	C 	0.61328	0.96394	0.7252	-0.121
Mof_H 	H 	0.6261	0.9567	0.7367	0.08
Mof_C 	C 	0.58305	0.96423	0.74025	0.068
Mof_H 	H 	0.5759	0.9561	0.7621	-0.004
Mof_C 	C 	0.6549	0.9785	0.67688	0.101
Mof_N 	N 	0.66767	0.98241	0.64669	-0.139
Mof_C 	C 	0.69476	0.98742	0.63272	0.097
Mof_N 	N 	0.70894	0.98906	0.64678	-0.137
Mof_C 	C 	0.69396	0.98434	0.6771	0.101
Mof_N 	N 	0.66746	0.9785	0.69318	-0.14
Mof_N 	N 	0.73436	0.0035	0.53562	-0.236
Mof_C 	C 	0.70971	0.99429	0.55337	0.072
Mof_H 	H 	0.7007	0.9915	0.5437	-0.006
Mof_C 	C 	0.69645	0.98855	0.58467	-0.123
Mof_H 	H 	0.6789	0.9821	0.5961	0.081
Mof_C 	C 	0.70939	0.99233	0.59927	0.056
Mof_C 	C 	0.73554	0.00086	0.58142	-0.123
Mof_H 	H 	0.7455	0.0029	0.5907	0.08
Mof_C 	C 	0.74703	0.00629	0.55003	0.073
Mof_H 	H 	0.7649	0.0123	0.5381	-0.004
Mof_N 	N 	0.73161	0.99287	0.72619	-0.237
Mof_C 	C 	0.7496	0.98326	0.70164	0.072
Mof_H 	H 	0.7713	0.9783	0.6953	-0.005
Mof_C 	C 	0.73879	0.98005	0.68523	-0.121
Mof_H 	H 	0.7526	0.9734	0.6678	0.078
Mof_C 	C 	0.7072	0.98658	0.69448	0.052
Mof_C 	C 	0.68789	0.99627	0.71979	-0.115
Mof_H 	H 	0.6663	0.0007	0.7267	0.079
Mof_C 	C 	0.70092	0.99944	0.73492	0.063
Mof_H 	H 	0.6877	0.0065	0.7521	-0.002
Mof_N 	N 	0.78901	0.00339	0.71015	-0.264
Mof_C 	C 	0.81162	0.00604	0.69242	0.106
Mof_S 	S 	0.84423	0.01453	0.66831	-0.053
Mof_N 	N 	0.76847	0.00801	0.77233	-0.241
Mof_C 	C 	0.75291	0.01725	0.79619	0.094
Mof_H 	H 	0.7312	0.0218	0.8042	-0.013
Mof_C 	C 	0.7659	0.02092	0.81024	-0.138
Mof_H 	H 	0.7532	0.0274	0.8278	0.084
Mof_C 	C 	0.7971	0.01532	0.7992	0.062
Mof_C 	C 	0.81414	0.00536	0.77424	-0.124
Mof_H 	H 	0.8357	0.0017	0.7653	0.081
Mof_C 	C 	0.79942	0.00074	0.76214	0.067
Mof_H 	H 	0.8116	0.9922	0.746	-0.006
Mof_C 	C 	0.81299	0.01693	0.81397	0.097
Mof_N 	N 	0.79768	0.01754	0.84308	-0.138
Mof_S 	S 	0.35675	0.69777	0.94945	-0.052
Mof_C 	C 	0.31931	0.70811	0.96807	0.093
Mof_N 	N 	0.29321	0.71547	0.98089	-0.258
Mof_N 	N 	0.23579	0.72525	0.97553	-0.238
Mof_C 	C 	0.24662	0.6946	0.98354	0.073
Mof_H 	H 	0.2643	0.6837	0.9899	-0.005
Mof_C 	C 	0.23375	0.67783	0.98323	-0.124
Mof_H 	H 	0.2424	0.656	0.989	0.08
Mof_C 	C 	0.20782	0.69354	0.9742	0.055
Mof_C 	C 	0.19758	0.7252	0.96394	-0.121
Mof_H 	H 	0.1805	0.7367	0.9567	0.08
Mof_C 	C 	0.21247	0.74025	0.96423	0.068
Mof_H 	H 	0.2059	0.7621	0.9561	-0.004
Mof_C 	C 	0.18972	0.67688	0.9785	0.101
Mof_N 	N 	0.20323	0.64669	0.98241	-0.139
Mof_C 	C 	0.1851	0.63272	0.98742	0.097
Mof_N 	N 	0.15522	0.64678	0.98906	-0.137
Mof_C 	C 	0.1446	0.6771	0.98434	0.101
Mof_N 	N 	0.16086	0.69318	0.9785	-0.14
Mof_N 	N 	0.22652	0.53562	0.0035	-0.236
Mof_C 	C 	0.24263	0.55337	0.99429	0.072
Mof_H 	H 	0.2641	0.5437	0.9915	-0.006
Mof_C 	C 	0.23033	0.58467	0.98855	-0.123
Mof_H 	H 	0.2429	0.5961	0.9821	0.081
Mof_C 	C 	0.19901	0.59927	0.99233	0.056
Mof_C 	C 	0.18218	0.58142	0.00086	-0.123
Mof_H 	H 	0.1609	0.5907	0.0029	0.08
Mof_C 	C 	0.19665	0.55003	0.00629	0.073
Mof_H 	H 	0.1847	0.5381	0.0123	-0.004
Mof_N 	N 	0.04933	0.72619	0.99287	-0.237
Mof_C 	C 	0.0655	0.70164	0.98326	0.072
Mof_H 	H 	0.0551	0.6953	0.9783	-0.005
Mof_C 	C 	0.09593	0.68523	0.98005	-0.121
Mof_H 	H 	0.1062	0.6678	0.9734	0.078
Mof_C 	C 	0.11174	0.69448	0.98658	0.052
Mof_C 	C 	0.09605	0.71979	0.99627	-0.115
Mof_H 	H 	0.1063	0.7267	0.0007	0.079
Mof_C 	C 	0.06472	0.73492	0.99944	0.063
Mof_H 	H 	0.0537	0.7521	0.0065	-0.002
Mof_N 	N 	0.99745	0.71015	0.00339	-0.264
Mof_C 	C 	0.98992	0.69242	0.00604	0.106
Mof_S 	S 	0.97293	0.66831	0.01453	-0.053
Mof_N 	N 	0.95119	0.77233	0.00801	-0.241
Mof_C 	C 	0.93365	0.79619	0.01725	0.094
Mof_H 	H 	0.9428	0.8042	0.0218	-0.013
Mof_C 	C 	0.90294	0.81024	0.02092	-0.138
Mof_H 	H 	0.8916	0.8278	0.0274	0.084
Mof_C 	C 	0.88838	0.7992	0.01532	0.062
Mof_C 	C 	0.90626	0.77424	0.00536	-0.124
Mof_H 	H 	0.8973	0.7653	0.0017	0.081
Mof_C 	C 	0.9377	0.76214	0.00074	0.067
Mof_H 	H 	0.9502	0.746	0.9922	-0.006
Mof_C 	C 	0.85611	0.81397	0.01693	0.097
Mof_N 	N 	0.8417	0.84308	0.01754	-0.138
Mof_S 	S 	0.69777	0.35675	0.49603	-0.052
Mof_C 	C 	0.70811	0.31931	0.50451	0.093
Mof_N 	N 	0.71547	0.29321	0.51043	-0.258
Mof_N 	N 	0.72525	0.23579	0.56343	-0.238
Mof_C 	C 	0.6946	0.24662	0.57524	0.073
Mof_H 	H 	0.6837	0.2643	0.5621	-0.005
Mof_C 	C 	0.67783	0.23375	0.60519	-0.124
Mof_H 	H 	0.656	0.2424	0.6126	0.08
Mof_C 	C 	0.69354	0.20782	0.62444	0.055
Mof_C 	C 	0.7252	0.19758	0.61328	-0.121
Mof_H 	H 	0.7367	0.1805	0.6261	0.08
Mof_C 	C 	0.74025	0.21247	0.58305	0.068
Mof_H 	H 	0.7621	0.2059	0.5759	-0.004
Mof_C 	C 	0.67688	0.18972	0.6549	0.101
Mof_N 	N 	0.64669	0.20323	0.66767	-0.139
Mof_C 	C 	0.63272	0.1851	0.69476	0.097
Mof_N 	N 	0.64678	0.15522	0.70894	-0.137
Mof_C 	C 	0.6771	0.1446	0.69396	0.101
Mof_N 	N 	0.69318	0.16086	0.66746	-0.14
Mof_N 	N 	0.53562	0.22652	0.73436	-0.236
Mof_C 	C 	0.55337	0.24263	0.70971	0.072
Mof_H 	H 	0.5437	0.2641	0.7007	-0.006
Mof_C 	C 	0.58467	0.23033	0.69645	-0.123
Mof_H 	H 	0.5961	0.2429	0.6789	0.081
Mof_C 	C 	0.59927	0.19901	0.70939	0.056
Mof_C 	C 	0.58142	0.18218	0.73554	-0.123
Mof_H 	H 	0.5907	0.1609	0.7455	0.08
Mof_C 	C 	0.55003	0.19665	0.74703	0.073
Mof_H 	H 	0.5381	0.1847	0.7649	-0.004
Mof_N 	N 	0.72619	0.04933	0.73161	-0.237
Mof_C 	C 	0.70164	0.0655	0.7496	0.072
Mof_H 	H 	0.6953	0.0551	0.7713	-0.005
Mof_C 	C 	0.68523	0.09593	0.73879	-0.121
Mof_H 	H 	0.6678	0.1062	0.7526	0.078
Mof_C 	C 	0.69448	0.11174	0.7072	0.052
Mof_C 	C 	0.71979	0.09605	0.68789	-0.115
Mof_H 	H 	0.7267	0.1063	0.6663	0.079
Mof_C 	C 	0.73492	0.06472	0.70092	0.063
Mof_H 	H 	0.7521	0.0537	0.6877	-0.002
Mof_N 	N 	0.71015	0.99745	0.78901	-0.264
Mof_C 	C 	0.69242	0.98992	0.81162	0.106
Mof_S 	S 	0.66831	0.97293	0.84423	-0.053
Mof_N 	N 	0.77233	0.95119	0.76847	-0.241
Mof_C 	C 	0.79619	0.93365	0.75291	0.094
Mof_H 	H 	0.8042	0.9428	0.7312	-0.013
Mof_C 	C 	0.81024	0.90294	0.7659	-0.138
Mof_H 	H 	0.8278	0.8916	0.7532	0.084
Mof_C 	C 	0.7992	0.88838	0.7971	0.062
Mof_C 	C 	0.77424	0.90626	0.81414	-0.124
Mof_H 	H 	0.7653	0.8973	0.8357	0.081
Mof_C 	C 	0.76214	0.9377	0.79942	0.067
Mof_H 	H 	0.746	0.9502	0.8116	-0.006
Mof_C 	C 	0.81397	0.85611	0.81299	0.097
Mof_N 	N 	0.84308	0.8417	0.79768	-0.138
Mof_S 	S 	0.35675	0.94945	0.49603	-0.052
Mof_C 	C 	0.31931	0.96807	0.50451	0.093
Mof_N 	N 	0.29321	0.98089	0.51043	-0.258
Mof_N 	N 	0.23579	0.97553	0.56343	-0.238
Mof_C 	C 	0.24662	0.98354	0.57524	0.073
Mof_H 	H 	0.2643	0.9899	0.5621	-0.005
Mof_C 	C 	0.23375	0.98323	0.60519	-0.124
Mof_H 	H 	0.2424	0.989	0.6126	0.08
Mof_C 	C 	0.20782	0.9742	0.62444	0.055
Mof_C 	C 	0.19758	0.96394	0.61328	-0.121
Mof_H 	H 	0.1805	0.9567	0.6261	0.08
Mof_C 	C 	0.21247	0.96423	0.58305	0.068
Mof_H 	H 	0.2059	0.9561	0.5759	-0.004
Mof_C 	C 	0.18972	0.9785	0.6549	0.101
Mof_N 	N 	0.20323	0.98241	0.66767	-0.139
Mof_C 	C 	0.1851	0.98742	0.69476	0.097
Mof_N 	N 	0.15522	0.98906	0.70894	-0.137
Mof_C 	C 	0.1446	0.98434	0.69396	0.101
Mof_N 	N 	0.16086	0.9785	0.66746	-0.14
Mof_N 	N 	0.22652	0.0035	0.73436	-0.236
Mof_C 	C 	0.24263	0.99429	0.70971	0.072
Mof_H 	H 	0.2641	0.9915	0.7007	-0.006
Mof_C 	C 	0.23033	0.98855	0.69645	-0.123
Mof_H 	H 	0.2429	0.9821	0.6789	0.081
Mof_C 	C 	0.19901	0.99233	0.70939	0.056
Mof_C 	C 	0.18218	0.00086	0.73554	-0.123
Mof_H 	H 	0.1609	0.0029	0.7455	0.08
Mof_C 	C 	0.19665	0.00629	0.74703	0.073
Mof_H 	H 	0.1847	0.0123	0.7649	-0.004
Mof_N 	N 	0.04933	0.99287	0.73161	-0.237
Mof_C 	C 	0.0655	0.98326	0.7496	0.072
Mof_H 	H 	0.0551	0.9783	0.7713	-0.005
Mof_C 	C 	0.09593	0.98005	0.73879	-0.121
Mof_H 	H 	0.1062	0.9734	0.7526	0.078
Mof_C 	C 	0.11174	0.98658	0.7072	0.052
Mof_C 	C 	0.09605	0.99627	0.68789	-0.115
Mof_H 	H 	0.1063	0.0007	0.6663	0.079
Mof_C 	C 	0.06472	0.99944	0.70092	0.063
Mof_H 	H 	0.0537	0.0065	0.6877	-0.002
Mof_N 	N 	0.99745	0.00339	0.78901	-0.264
Mof_C 	C 	0.98992	0.00604	0.81162	0.106
Mof_S 	S 	0.97293	0.01453	0.84423	-0.053
Mof_N 	N 	0.95119	0.00801	0.76847	-0.241
Mof_C 	C 	0.93365	0.01725	0.75291	0.094
Mof_H 	H 	0.9428	0.0218	0.7312	-0.013
Mof_C 	C 	0.90294	0.02092	0.7659	-0.138
Mof_H 	H 	0.8916	0.0274	0.7532	0.084
Mof_C 	C 	0.88838	0.01532	0.7971	0.062
Mof_C 	C 	0.90626	0.00536	0.81414	-0.124
Mof_H 	H 	0.8973	0.0017	0.8357	0.081
Mof_C 	C 	0.9377	0.00074	0.79942	0.067
Mof_H 	H 	0.9502	0.9922	0.8116	-0.006
Mof_C 	C 	0.85611	0.01693	0.81299	0.097
Mof_N 	N 	0.8417	0.01754	0.79768	-0.138
Mof_S 	S 	0.69777	0.49603	0.94945	-0.052
Mof_C 	C 	0.70811	0.50451	0.96807	0.093
Mof_N 	N 	0.71547	0.51043	0.98089	-0.258
Mof_N 	N 	0.72525	0.56343	0.97553	-0.238
Mof_C 	C 	0.6946	0.57524	0.98354	0.073
Mof_H 	H 	0.6837	0.5621	0.9899	-0.005
Mof_C 	C 	0.67783	0.60519	0.98323	-0.124
Mof_H 	H 	0.656	0.6126	0.989	0.08
Mof_C 	C 	0.69354	0.62444	0.9742	0.055
Mof_C 	C 	0.7252	0.61328	0.96394	-0.121
Mof_H 	H 	0.7367	0.6261	0.9567	0.08
Mof_C 	C 	0.74025	0.58305	0.96423	0.068
Mof_H 	H 	0.7621	0.5759	0.9561	-0.004
Mof_C 	C 	0.67688	0.6549	0.9785	0.101
Mof_N 	N 	0.64669	0.66767	0.98241	-0.139
Mof_C 	C 	0.63272	0.69476	0.98742	0.097
Mof_N 	N 	0.64678	0.70894	0.98906	-0.137
Mof_C 	C 	0.6771	0.69396	0.98434	0.101
Mof_N 	N 	0.69318	0.66746	0.9785	-0.14
Mof_N 	N 	0.53562	0.73436	0.0035	-0.236
Mof_C 	C 	0.55337	0.70971	0.99429	0.072
Mof_H 	H 	0.5437	0.7007	0.9915	-0.006
Mof_C 	C 	0.58467	0.69645	0.98855	-0.123
Mof_H 	H 	0.5961	0.6789	0.9821	0.081
Mof_C 	C 	0.59927	0.70939	0.99233	0.056
Mof_C 	C 	0.58142	0.73554	0.00086	-0.123
Mof_H 	H 	0.5907	0.7455	0.0029	0.08
Mof_C 	C 	0.55003	0.74703	0.00629	0.073
Mof_H 	H 	0.5381	0.7649	0.0123	-0.004
Mof_N 	N 	0.72619	0.73161	0.99287	-0.237
Mof_C 	C 	0.70164	0.7496	0.98326	0.072
Mof_H 	H 	0.6953	0.7713	0.9783	-0.005
Mof_C 	C 	0.68523	0.73879	0.98005	-0.121
Mof_H 	H 	0.6678	0.7526	0.9734	0.078
Mof_C 	C 	0.69448	0.7072	0.98658	0.052
Mof_C 	C 	0.71979	0.68789	0.99627	-0.115
Mof_H 	H 	0.7267	0.6663	0.0007	0.079
Mof_C 	C 	0.73492	0.70092	0.99944	0.063
Mof_H 	H 	0.7521	0.6877	0.0065	-0.002
Mof_N 	N 	0.71015	0.78901	0.00339	-0.264
Mof_C 	C 	0.69242	0.81162	0.00604	0.106
Mof_S 	S 	0.66831	0.84423	0.01453	-0.053
Mof_N 	N 	0.77233	0.76847	0.00801	-0.241
Mof_C 	C 	0.79619	0.75291	0.01725	0.094
Mof_H 	H 	0.8042	0.7312	0.0218	-0.013
Mof_C 	C 	0.81024	0.7659	0.02092	-0.138
Mof_H 	H 	0.8278	0.7532	0.0274	0.084
Mof_C 	C 	0.7992	0.7971	0.01532	0.062
Mof_C 	C 	0.77424	0.81414	0.00536	-0.124
Mof_H 	H 	0.7653	0.8357	0.0017	0.081
Mof_C 	C 	0.76214	0.79942	0.00074	0.067
Mof_H 	H 	0.746	0.8116	0.9922	-0.006
Mof_C 	C 	0.81397	0.81299	0.01693	0.097
Mof_N 	N 	0.84308	0.79768	0.01754	-0.138
Mof_S 	S 	0.94945	0.35675	0.69777	-0.052
Mof_C 	C 	0.96807	0.31931	0.70811	0.093
Mof_N 	N 	0.98089	0.29321	0.71547	-0.258
Mof_N 	N 	0.97553	0.23579	0.72525	-0.238
Mof_C 	C 	0.98354	0.24662	0.6946	0.073
Mof_H 	H 	0.9899	0.2643	0.6837	-0.005
Mof_C 	C 	0.98323	0.23375	0.67783	-0.124
Mof_H 	H 	0.989	0.2424	0.656	0.08
Mof_C 	C 	0.9742	0.20782	0.69354	0.055
Mof_C 	C 	0.96394	0.19758	0.7252	-0.121
Mof_H 	H 	0.9567	0.1805	0.7367	0.08
Mof_C 	C 	0.96423	0.21247	0.74025	0.068
Mof_H 	H 	0.9561	0.2059	0.7621	-0.004
Mof_C 	C 	0.9785	0.18972	0.67688	0.101
Mof_N 	N 	0.98241	0.20323	0.64669	-0.139
Mof_C 	C 	0.98742	0.1851	0.63272	0.097
Mof_N 	N 	0.98906	0.15522	0.64678	-0.137
Mof_C 	C 	0.98434	0.1446	0.6771	0.101
Mof_N 	N 	0.9785	0.16086	0.69318	-0.14
Mof_N 	N 	0.0035	0.22652	0.53562	-0.236
Mof_C 	C 	0.99429	0.24263	0.55337	0.072
Mof_H 	H 	0.9915	0.2641	0.5437	-0.006
Mof_C 	C 	0.98855	0.23033	0.58467	-0.123
Mof_H 	H 	0.9821	0.2429	0.5961	0.081
Mof_C 	C 	0.99233	0.19901	0.59927	0.056
Mof_C 	C 	0.00086	0.18218	0.58142	-0.123
Mof_H 	H 	0.0029	0.1609	0.5907	0.08
Mof_C 	C 	0.00629	0.19665	0.55003	0.073
Mof_H 	H 	0.0123	0.1847	0.5381	-0.004
Mof_N 	N 	0.99287	0.04933	0.72619	-0.237
Mof_C 	C 	0.98326	0.0655	0.70164	0.072
Mof_H 	H 	0.9783	0.0551	0.6953	-0.005
Mof_C 	C 	0.98005	0.09593	0.68523	-0.121
Mof_H 	H 	0.9734	0.1062	0.6678	0.078
Mof_C 	C 	0.98658	0.11174	0.69448	0.052
Mof_C 	C 	0.99627	0.09605	0.71979	-0.115
Mof_H 	H 	0.0007	0.1063	0.7267	0.079
Mof_C 	C 	0.99944	0.06472	0.73492	0.063
Mof_H 	H 	0.0065	0.0537	0.7521	-0.002
Mof_N 	N 	0.00339	0.99745	0.71015	-0.264
Mof_C 	C 	0.00604	0.98992	0.69242	0.106
Mof_S 	S 	0.01453	0.97293	0.66831	-0.053
Mof_N 	N 	0.00801	0.95119	0.77233	-0.241
Mof_C 	C 	0.01725	0.93365	0.79619	0.094
Mof_H 	H 	0.0218	0.9428	0.8042	-0.013
Mof_C 	C 	0.02092	0.90294	0.81024	-0.138
Mof_H 	H 	0.0274	0.8916	0.8278	0.084
Mof_C 	C 	0.01532	0.88838	0.7992	0.062
Mof_C 	C 	0.00536	0.90626	0.77424	-0.124
Mof_H 	H 	0.0017	0.8973	0.7653	0.081
Mof_C 	C 	0.00074	0.9377	0.76214	0.067
Mof_H 	H 	0.9922	0.9502	0.746	-0.006
Mof_C 	C 	0.01693	0.85611	0.81397	0.097
Mof_N 	N 	0.01754	0.8417	0.84308	-0.138
Mof_S 	S 	0.49603	0.69777	0.35675	-0.052
Mof_C 	C 	0.50451	0.70811	0.31931	0.093
Mof_N 	N 	0.51043	0.71547	0.29321	-0.258
Mof_N 	N 	0.56343	0.72525	0.23579	-0.238
Mof_C 	C 	0.57524	0.6946	0.24662	0.073
Mof_H 	H 	0.5621	0.6837	0.2643	-0.005
Mof_C 	C 	0.60519	0.67783	0.23375	-0.124
Mof_H 	H 	0.6126	0.656	0.2424	0.08
Mof_C 	C 	0.62444	0.69354	0.20782	0.055
Mof_C 	C 	0.61328	0.7252	0.19758	-0.121
Mof_H 	H 	0.6261	0.7367	0.1805	0.08
Mof_C 	C 	0.58305	0.74025	0.21247	0.068
Mof_H 	H 	0.5759	0.7621	0.2059	-0.004
Mof_C 	C 	0.6549	0.67688	0.18972	0.101
Mof_N 	N 	0.66767	0.64669	0.20323	-0.139
Mof_C 	C 	0.69476	0.63272	0.1851	0.097
Mof_N 	N 	0.70894	0.64678	0.15522	-0.137
Mof_C 	C 	0.69396	0.6771	0.1446	0.101
Mof_N 	N 	0.66746	0.69318	0.16086	-0.14
Mof_N 	N 	0.73436	0.53562	0.22652	-0.236
Mof_C 	C 	0.70971	0.55337	0.24263	0.072
Mof_H 	H 	0.7007	0.5437	0.2641	-0.006
Mof_C 	C 	0.69645	0.58467	0.23033	-0.123
Mof_H 	H 	0.6789	0.5961	0.2429	0.081
Mof_C 	C 	0.70939	0.59927	0.19901	0.056
Mof_C 	C 	0.73554	0.58142	0.18218	-0.123
Mof_H 	H 	0.7455	0.5907	0.1609	0.08
Mof_C 	C 	0.74703	0.55003	0.19665	0.073
Mof_H 	H 	0.7649	0.5381	0.1847	-0.004
Mof_N 	N 	0.73161	0.72619	0.04933	-0.237
Mof_C 	C 	0.7496	0.70164	0.0655	0.072
Mof_H 	H 	0.7713	0.6953	0.0551	-0.005
Mof_C 	C 	0.73879	0.68523	0.09593	-0.121
Mof_H 	H 	0.7526	0.6678	0.1062	0.078
Mof_C 	C 	0.7072	0.69448	0.11174	0.052
Mof_C 	C 	0.68789	0.71979	0.09605	-0.115
Mof_H 	H 	0.6663	0.7267	0.1063	0.079
Mof_C 	C 	0.70092	0.73492	0.06472	0.063
Mof_H 	H 	0.6877	0.7521	0.0537	-0.002
Mof_N 	N 	0.78901	0.71015	0.99745	-0.264
Mof_C 	C 	0.81162	0.69242	0.98992	0.106
Mof_S 	S 	0.84423	0.66831	0.97293	-0.053
Mof_N 	N 	0.76847	0.77233	0.95119	-0.241
Mof_C 	C 	0.75291	0.79619	0.93365	0.094
Mof_H 	H 	0.7312	0.8042	0.9428	-0.013
Mof_C 	C 	0.7659	0.81024	0.90294	-0.138
Mof_H 	H 	0.7532	0.8278	0.8916	0.084
Mof_C 	C 	0.7971	0.7992	0.88838	0.062
Mof_C 	C 	0.81414	0.77424	0.90626	-0.124
Mof_H 	H 	0.8357	0.7653	0.8973	0.081
Mof_C 	C 	0.79942	0.76214	0.9377	0.067
Mof_H 	H 	0.8116	0.746	0.9502	-0.006
Mof_C 	C 	0.81299	0.81397	0.85611	0.097
Mof_N 	N 	0.79768	0.84308	0.8417	-0.138
Mof_S 	S 	0.49603	0.35675	0.94945	-0.052
Mof_C 	C 	0.50451	0.31931	0.96807	0.093
Mof_N 	N 	0.51043	0.29321	0.98089	-0.258
Mof_N 	N 	0.56343	0.23579	0.97553	-0.238
Mof_C 	C 	0.57524	0.24662	0.98354	0.073
Mof_H 	H 	0.5621	0.2643	0.9899	-0.005
Mof_C 	C 	0.60519	0.23375	0.98323	-0.124
Mof_H 	H 	0.6126	0.2424	0.989	0.08
Mof_C 	C 	0.62444	0.20782	0.9742	0.055
Mof_C 	C 	0.61328	0.19758	0.96394	-0.121
Mof_H 	H 	0.6261	0.1805	0.9567	0.08
Mof_C 	C 	0.58305	0.21247	0.96423	0.068
Mof_H 	H 	0.5759	0.2059	0.9561	-0.004
Mof_C 	C 	0.6549	0.18972	0.9785	0.101
Mof_N 	N 	0.66767	0.20323	0.98241	-0.139
Mof_C 	C 	0.69476	0.1851	0.98742	0.097
Mof_N 	N 	0.70894	0.15522	0.98906	-0.137
Mof_C 	C 	0.69396	0.1446	0.98434	0.101
Mof_N 	N 	0.66746	0.16086	0.9785	-0.14
Mof_N 	N 	0.73436	0.22652	0.0035	-0.236
Mof_C 	C 	0.70971	0.24263	0.99429	0.072
Mof_H 	H 	0.7007	0.2641	0.9915	-0.006
Mof_C 	C 	0.69645	0.23033	0.98855	-0.123
Mof_H 	H 	0.6789	0.2429	0.9821	0.081
Mof_C 	C 	0.70939	0.19901	0.99233	0.056
Mof_C 	C 	0.73554	0.18218	0.00086	-0.123
Mof_H 	H 	0.7455	0.1609	0.0029	0.08
Mof_C 	C 	0.74703	0.19665	0.00629	0.073
Mof_H 	H 	0.7649	0.1847	0.0123	-0.004
Mof_N 	N 	0.73161	0.04933	0.99287	-0.237
Mof_C 	C 	0.7496	0.0655	0.98326	0.072
Mof_H 	H 	0.7713	0.0551	0.9783	-0.005
Mof_C 	C 	0.73879	0.09593	0.98005	-0.121
Mof_H 	H 	0.7526	0.1062	0.9734	0.078
Mof_C 	C 	0.7072	0.11174	0.98658	0.052
Mof_C 	C 	0.68789	0.09605	0.99627	-0.115
Mof_H 	H 	0.6663	0.1063	0.0007	0.079
Mof_C 	C 	0.70092	0.06472	0.99944	0.063
Mof_H 	H 	0.6877	0.0537	0.0065	-0.002
Mof_N 	N 	0.78901	0.99745	0.00339	-0.264
Mof_C 	C 	0.81162	0.98992	0.00604	0.106
Mof_S 	S 	0.84423	0.97293	0.01453	-0.053
Mof_N 	N 	0.76847	0.95119	0.00801	-0.241
Mof_C 	C 	0.75291	0.93365	0.01725	0.094
Mof_H 	H 	0.7312	0.9428	0.0218	-0.013
Mof_C 	C 	0.7659	0.90294	0.02092	-0.138
Mof_H 	H 	0.7532	0.8916	0.0274	0.084
Mof_C 	C 	0.7971	0.88838	0.01532	0.062
Mof_C 	C 	0.81414	0.90626	0.00536	-0.124
Mof_H 	H 	0.8357	0.8973	0.0017	0.081
Mof_C 	C 	0.79942	0.9377	0.00074	0.067
Mof_H 	H 	0.8116	0.9502	0.9922	-0.006
Mof_C 	C 	0.81299	0.85611	0.01693	0.097
Mof_N 	N 	0.79768	0.8417	0.01754	-0.138
Mof_S 	S 	0.94945	0.69777	0.49603	-0.052
Mof_C 	C 	0.96807	0.70811	0.50451	0.093
Mof_N 	N 	0.98089	0.71547	0.51043	-0.258
Mof_N 	N 	0.97553	0.72525	0.56343	-0.238
Mof_C 	C 	0.98354	0.6946	0.57524	0.073
Mof_H 	H 	0.9899	0.6837	0.5621	-0.005
Mof_C 	C 	0.98323	0.67783	0.60519	-0.124
Mof_H 	H 	0.989	0.656	0.6126	0.08
Mof_C 	C 	0.9742	0.69354	0.62444	0.055
Mof_C 	C 	0.96394	0.7252	0.61328	-0.121
Mof_H 	H 	0.9567	0.7367	0.6261	0.08
Mof_C 	C 	0.96423	0.74025	0.58305	0.068
Mof_H 	H 	0.9561	0.7621	0.5759	-0.004
Mof_C 	C 	0.9785	0.67688	0.6549	0.101
Mof_N 	N 	0.98241	0.64669	0.66767	-0.139
Mof_C 	C 	0.98742	0.63272	0.69476	0.097
Mof_N 	N 	0.98906	0.64678	0.70894	-0.137
Mof_C 	C 	0.98434	0.6771	0.69396	0.101
Mof_N 	N 	0.9785	0.69318	0.66746	-0.14
Mof_N 	N 	0.0035	0.53562	0.73436	-0.236
Mof_C 	C 	0.99429	0.55337	0.70971	0.072
Mof_H 	H 	0.9915	0.5437	0.7007	-0.006
Mof_C 	C 	0.98855	0.58467	0.69645	-0.123
Mof_H 	H 	0.9821	0.5961	0.6789	0.081
Mof_C 	C 	0.99233	0.59927	0.70939	0.056
Mof_C 	C 	0.00086	0.58142	0.73554	-0.123
Mof_H 	H 	0.0029	0.5907	0.7455	0.08
Mof_C 	C 	0.00629	0.55003	0.74703	0.073
Mof_H 	H 	0.0123	0.5381	0.7649	-0.004
Mof_N 	N 	0.99287	0.72619	0.73161	-0.237
Mof_C 	C 	0.98326	0.70164	0.7496	0.072
Mof_H 	H 	0.9783	0.6953	0.7713	-0.005
Mof_C 	C 	0.98005	0.68523	0.73879	-0.121
Mof_H 	H 	0.9734	0.6678	0.7526	0.078
Mof_C 	C 	0.98658	0.69448	0.7072	0.052
Mof_C 	C 	0.99627	0.71979	0.68789	-0.115
Mof_H 	H 	0.0007	0.7267	0.6663	0.079
Mof_C 	C 	0.99944	0.73492	0.70092	0.063
Mof_H 	H 	0.0065	0.7521	0.6877	-0.002
Mof_N 	N 	0.00339	0.71015	0.78901	-0.264
Mof_C 	C 	0.00604	0.69242	0.81162	0.106
Mof_S 	S 	0.01453	0.66831	0.84423	-0.053
Mof_N 	N 	0.00801	0.77233	0.76847	-0.241
Mof_C 	C 	0.01725	0.79619	0.75291	0.094
Mof_H 	H 	0.0218	0.8042	0.7312	-0.013
Mof_C 	C 	0.02092	0.81024	0.7659	-0.138
Mof_H 	H 	0.0274	0.8278	0.7532	0.084
Mof_C 	C 	0.01532	0.7992	0.7971	0.062
Mof_C 	C 	0.00536	0.77424	0.81414	-0.124
Mof_H 	H 	0.0017	0.7653	0.8357	0.081
Mof_C 	C 	0.00074	0.76214	0.79942	0.067
Mof_H 	H 	0.9922	0.746	0.8116	-0.006
Mof_C 	C 	0.01693	0.81397	0.81299	0.097
Mof_N 	N 	0.01754	0.84308	0.79768	-0.138
Mof_S 	S 	0.69777	0.94945	0.35675	-0.052
Mof_C 	C 	0.70811	0.96807	0.31931	0.093
Mof_N 	N 	0.71547	0.98089	0.29321	-0.258
Mof_N 	N 	0.72525	0.97553	0.23579	-0.238
Mof_C 	C 	0.6946	0.98354	0.24662	0.073
Mof_H 	H 	0.6837	0.9899	0.2643	-0.005
Mof_C 	C 	0.67783	0.98323	0.23375	-0.124
Mof_H 	H 	0.656	0.989	0.2424	0.08
Mof_C 	C 	0.69354	0.9742	0.20782	0.055
Mof_C 	C 	0.7252	0.96394	0.19758	-0.121
Mof_H 	H 	0.7367	0.9567	0.1805	0.08
Mof_C 	C 	0.74025	0.96423	0.21247	0.068
Mof_H 	H 	0.7621	0.9561	0.2059	-0.004
Mof_C 	C 	0.67688	0.9785	0.18972	0.101
Mof_N 	N 	0.64669	0.98241	0.20323	-0.139
Mof_C 	C 	0.63272	0.98742	0.1851	0.097
Mof_N 	N 	0.64678	0.98906	0.15522	-0.137
Mof_C 	C 	0.6771	0.98434	0.1446	0.101
Mof_N 	N 	0.69318	0.9785	0.16086	-0.14
Mof_N 	N 	0.53562	0.0035	0.22652	-0.236
Mof_C 	C 	0.55337	0.99429	0.24263	0.072
Mof_H 	H 	0.5437	0.9915	0.2641	-0.006
Mof_C 	C 	0.58467	0.98855	0.23033	-0.123
Mof_H 	H 	0.5961	0.9821	0.2429	0.081
Mof_C 	C 	0.59927	0.99233	0.19901	0.056
Mof_C 	C 	0.58142	0.00086	0.18218	-0.123
Mof_H 	H 	0.5907	0.0029	0.1609	0.08
Mof_C 	C 	0.55003	0.00629	0.19665	0.073
Mof_H 	H 	0.5381	0.0123	0.1847	-0.004
Mof_N 	N 	0.72619	0.99287	0.04933	-0.237
Mof_C 	C 	0.70164	0.98326	0.0655	0.072
Mof_H 	H 	0.6953	0.9783	0.0551	-0.005
Mof_C 	C 	0.68523	0.98005	0.09593	-0.121
Mof_H 	H 	0.6678	0.9734	0.1062	0.078
Mof_C 	C 	0.69448	0.98658	0.11174	0.052
Mof_C 	C 	0.71979	0.99627	0.09605	-0.115
Mof_H 	H 	0.7267	0.0007	0.1063	0.079
Mof_C 	C 	0.73492	0.99944	0.06472	0.063
Mof_H 	H 	0.7521	0.0065	0.0537	-0.002
Mof_N 	N 	0.71015	0.00339	0.99745	-0.264
Mof_C 	C 	0.69242	0.00604	0.98992	0.106
Mof_S 	S 	0.66831	0.01453	0.97293	-0.053
Mof_N 	N 	0.77233	0.00801	0.95119	-0.241
Mof_C 	C 	0.79619	0.01725	0.93365	0.094
Mof_H 	H 	0.8042	0.0218	0.9428	-0.013
Mof_C 	C 	0.81024	0.02092	0.90294	-0.138
Mof_H 	H 	0.8278	0.0274	0.8916	0.084
Mof_C 	C 	0.7992	0.01532	0.88838	0.062
Mof_C 	C 	0.77424	0.00536	0.90626	-0.124
Mof_H 	H 	0.7653	0.0017	0.8973	0.081
Mof_C 	C 	0.76214	0.00074	0.9377	0.067
Mof_H 	H 	0.746	0.9922	0.9502	-0.006
Mof_C 	C 	0.81397	0.01693	0.85611	0.097
Mof_N 	N 	0.84308	0.01754	0.8417	-0.138
Mof_S 	S 	0.35675	0.49603	0.69777	-0.052
Mof_C 	C 	0.31931	0.50451	0.70811	0.093
Mof_N 	N 	0.29321	0.51043	0.71547	-0.258
Mof_N 	N 	0.23579	0.56343	0.72525	-0.238
Mof_C 	C 	0.24662	0.57524	0.6946	0.073
Mof_H 	H 	0.2643	0.5621	0.6837	-0.005
Mof_C 	C 	0.23375	0.60519	0.67783	-0.124
Mof_H 	H 	0.2424	0.6126	0.656	0.08
Mof_C 	C 	0.20782	0.62444	0.69354	0.055
Mof_C 	C 	0.19758	0.61328	0.7252	-0.121
Mof_H 	H 	0.1805	0.6261	0.7367	0.08
Mof_C 	C 	0.21247	0.58305	0.74025	0.068
Mof_H 	H 	0.2059	0.5759	0.7621	-0.004
Mof_C 	C 	0.18972	0.6549	0.67688	0.101
Mof_N 	N 	0.20323	0.66767	0.64669	-0.139
Mof_C 	C 	0.1851	0.69476	0.63272	0.097
Mof_N 	N 	0.15522	0.70894	0.64678	-0.137
Mof_C 	C 	0.1446	0.69396	0.6771	0.101
Mof_N 	N 	0.16086	0.66746	0.69318	-0.14
Mof_N 	N 	0.22652	0.73436	0.53562	-0.236
Mof_C 	C 	0.24263	0.70971	0.55337	0.072
Mof_H 	H 	0.2641	0.7007	0.5437	-0.006
Mof_C 	C 	0.23033	0.69645	0.58467	-0.123
Mof_H 	H 	0.2429	0.6789	0.5961	0.081
Mof_C 	C 	0.19901	0.70939	0.59927	0.056
Mof_C 	C 	0.18218	0.73554	0.58142	-0.123
Mof_H 	H 	0.1609	0.7455	0.5907	0.08
Mof_C 	C 	0.19665	0.74703	0.55003	0.073
Mof_H 	H 	0.1847	0.7649	0.5381	-0.004
Mof_N 	N 	0.04933	0.73161	0.72619	-0.237
Mof_C 	C 	0.0655	0.7496	0.70164	0.072
Mof_H 	H 	0.0551	0.7713	0.6953	-0.005
Mof_C 	C 	0.09593	0.73879	0.68523	-0.121
Mof_H 	H 	0.1062	0.7526	0.6678	0.078
Mof_C 	C 	0.11174	0.7072	0.69448	0.052
Mof_C 	C 	0.09605	0.68789	0.71979	-0.115
Mof_H 	H 	0.1063	0.6663	0.7267	0.079
Mof_C 	C 	0.06472	0.70092	0.73492	0.063
Mof_H 	H 	0.0537	0.6877	0.7521	-0.002
Mof_N 	N 	0.99745	0.78901	0.71015	-0.264
Mof_C 	C 	0.98992	0.81162	0.69242	0.106
Mof_S 	S 	0.97293	0.84423	0.66831	-0.053
Mof_N 	N 	0.95119	0.76847	0.77233	-0.241
Mof_C 	C 	0.93365	0.75291	0.79619	0.094
Mof_H 	H 	0.9428	0.7312	0.8042	-0.013
Mof_C 	C 	0.90294	0.7659	0.81024	-0.138
Mof_H 	H 	0.8916	0.7532	0.8278	0.084
Mof_C 	C 	0.88838	0.7971	0.7992	0.062
Mof_C 	C 	0.90626	0.81414	0.77424	-0.124
Mof_H 	H 	0.8973	0.8357	0.7653	0.081
Mof_C 	C 	0.9377	0.79942	0.76214	0.067
Mof_H 	H 	0.9502	0.8116	0.746	-0.006
Mof_C 	C 	0.85611	0.81299	0.81397	0.097
Mof_N 	N 	0.8417	0.79768	0.84308	-0.138
Mof_S 	S 	0.55055	0.00397	0.80223	-0.052
Mof_C 	C 	0.53193	0.99549	0.79189	0.093
Mof_N 	N 	0.51911	0.98957	0.78453	-0.258
Mof_N 	N 	0.52447	0.93657	0.77475	-0.238
Mof_C 	C 	0.51646	0.92476	0.8054	0.073
Mof_H 	H 	0.5101	0.9379	0.8163	-0.005
Mof_C 	C 	0.51677	0.89481	0.82217	-0.124
Mof_H 	H 	0.511	0.8874	0.844	0.08
Mof_C 	C 	0.5258	0.87556	0.80646	0.055
Mof_C 	C 	0.53606	0.88672	0.7748	-0.121
Mof_H 	H 	0.5433	0.8739	0.7633	0.08
Mof_C 	C 	0.53577	0.91695	0.75975	0.068
Mof_H 	H 	0.5439	0.9241	0.7379	-0.004
Mof_C 	C 	0.5215	0.8451	0.82312	0.101
Mof_N 	N 	0.51759	0.83233	0.85331	-0.139
Mof_C 	C 	0.51258	0.80524	0.86728	0.097
Mof_N 	N 	0.51094	0.79106	0.85322	-0.137
Mof_C 	C 	0.51566	0.80604	0.8229	0.101
Mof_N 	N 	0.5215	0.83254	0.80682	-0.14
Mof_N 	N 	0.4965	0.76564	0.96438	-0.236
Mof_C 	C 	0.50571	0.79029	0.94663	0.072
Mof_H 	H 	0.5085	0.7993	0.9563	-0.006
Mof_C 	C 	0.51145	0.80355	0.91533	-0.123
Mof_H 	H 	0.5179	0.8211	0.9039	0.081
Mof_C 	C 	0.50767	0.79061	0.90073	0.056
Mof_C 	C 	0.49914	0.76446	0.91858	-0.123
Mof_H 	H 	0.4971	0.7545	0.9093	0.08
Mof_C 	C 	0.49371	0.75297	0.94997	0.073
Mof_H 	H 	0.4877	0.7351	0.9619	-0.004
Mof_N 	N 	0.50713	0.76839	0.77381	-0.237
Mof_C 	C 	0.51674	0.7504	0.79836	0.072
Mof_H 	H 	0.5217	0.7287	0.8047	-0.005
Mof_C 	C 	0.51995	0.76121	0.81477	-0.121
Mof_H 	H 	0.5266	0.7474	0.8322	0.078
Mof_C 	C 	0.51342	0.7928	0.80552	0.052
Mof_C 	C 	0.50373	0.81211	0.78021	-0.115
Mof_H 	H 	0.4993	0.8337	0.7733	0.079
Mof_C 	C 	0.50056	0.79908	0.76508	0.063
Mof_H 	H 	0.4935	0.8123	0.7479	-0.002
Mof_N 	N 	0.49661	0.71099	0.78985	-0.264
Mof_C 	C 	0.49396	0.68838	0.80758	0.106
Mof_S 	S 	0.48547	0.65577	0.83169	-0.053
Mof_N 	N 	0.49199	0.73153	0.72767	-0.241
Mof_C 	C 	0.48275	0.74709	0.70381	0.094
Mof_H 	H 	0.4782	0.7688	0.6958	-0.013
Mof_C 	C 	0.47908	0.7341	0.68976	-0.138
Mof_H 	H 	0.4726	0.7468	0.6722	0.084
Mof_C 	C 	0.48468	0.7029	0.7008	0.062
Mof_C 	C 	0.49464	0.68586	0.72576	-0.124
Mof_H 	H 	0.4983	0.6643	0.7347	0.081
Mof_C 	C 	0.49926	0.70058	0.73786	0.067
Mof_H 	H 	0.5078	0.6884	0.754	-0.006
Mof_C 	C 	0.48307	0.68701	0.68603	0.097
Mof_N 	N 	0.48246	0.70232	0.65692	-0.138
Mof_S 	S 	0.00397	0.55055	0.14325	-0.052
Mof_C 	C 	0.99549	0.53193	0.18069	0.093
Mof_N 	N 	0.98957	0.51911	0.20679	-0.258
Mof_N 	N 	0.93657	0.52447	0.26421	-0.238
Mof_C 	C 	0.92476	0.51646	0.25338	0.073
Mof_H 	H 	0.9379	0.5101	0.2357	-0.005
Mof_C 	C 	0.89481	0.51677	0.26625	-0.124
Mof_H 	H 	0.8874	0.511	0.2576	0.08
Mof_C 	C 	0.87556	0.5258	0.29218	0.055
Mof_C 	C 	0.88672	0.53606	0.30242	-0.121
Mof_H 	H 	0.8739	0.5433	0.3195	0.08
Mof_C 	C 	0.91695	0.53577	0.28753	0.068
Mof_H 	H 	0.9241	0.5439	0.2941	-0.004
Mof_C 	C 	0.8451	0.5215	0.31028	0.101
Mof_N 	N 	0.83233	0.51759	0.29677	-0.139
Mof_C 	C 	0.80524	0.51258	0.3149	0.097
Mof_N 	N 	0.79106	0.51094	0.34478	-0.137
Mof_C 	C 	0.80604	0.51566	0.3554	0.101
Mof_N 	N 	0.83254	0.5215	0.33914	-0.14
Mof_N 	N 	0.76564	0.4965	0.27348	-0.236
Mof_C 	C 	0.79029	0.50571	0.25737	0.072
Mof_H 	H 	0.7993	0.5085	0.2359	-0.006
Mof_C 	C 	0.80355	0.51145	0.26967	-0.123
Mof_H 	H 	0.8211	0.5179	0.2571	0.081
Mof_C 	C 	0.79061	0.50767	0.30099	0.056
Mof_C 	C 	0.76446	0.49914	0.31782	-0.123
Mof_H 	H 	0.7545	0.4971	0.3391	0.08
Mof_C 	C 	0.75297	0.49371	0.30335	0.073
Mof_H 	H 	0.7351	0.4877	0.3153	-0.004
Mof_N 	N 	0.76839	0.50713	0.45067	-0.237
Mof_C 	C 	0.7504	0.51674	0.4345	0.072
Mof_H 	H 	0.7287	0.5217	0.4449	-0.005
Mof_C 	C 	0.76121	0.51995	0.40407	-0.121
Mof_H 	H 	0.7474	0.5266	0.3938	0.078
Mof_C 	C 	0.7928	0.51342	0.38826	0.052
Mof_C 	C 	0.81211	0.50373	0.40395	-0.115
Mof_H 	H 	0.8337	0.4993	0.3937	0.079
Mof_C 	C 	0.79908	0.50056	0.43528	0.063
Mof_H 	H 	0.8123	0.4935	0.4463	-0.002
Mof_N 	N 	0.71099	0.49661	0.50255	-0.264
Mof_C 	C 	0.68838	0.49396	0.51008	0.106
Mof_S 	S 	0.65577	0.48547	0.52707	-0.053
Mof_N 	N 	0.73153	0.49199	0.54881	-0.241
Mof_C 	C 	0.74709	0.48275	0.56635	0.094
Mof_H 	H 	0.7688	0.4782	0.5572	-0.013
Mof_C 	C 	0.7341	0.47908	0.59706	-0.138
Mof_H 	H 	0.7468	0.4726	0.6084	0.084
Mof_C 	C 	0.7029	0.48468	0.61162	0.062
Mof_C 	C 	0.68586	0.49464	0.59374	-0.124
Mof_H 	H 	0.6643	0.4983	0.6027	0.081
Mof_C 	C 	0.70058	0.49926	0.5623	0.067
Mof_H 	H 	0.6884	0.5078	0.5498	-0.006
Mof_C 	C 	0.68701	0.48307	0.64389	0.097
Mof_N 	N 	0.70232	0.48246	0.6583	-0.138
Mof_S 	S 	0.14325	0.80223	0.00397	-0.052
Mof_C 	C 	0.18069	0.79189	0.99549	0.093
Mof_N 	N 	0.20679	0.78453	0.98957	-0.258
Mof_N 	N 	0.26421	0.77475	0.93657	-0.238
Mof_C 	C 	0.25338	0.8054	0.92476	0.073
Mof_H 	H 	0.2357	0.8163	0.9379	-0.005
Mof_C 	C 	0.26625	0.82217	0.89481	-0.124
Mof_H 	H 	0.2576	0.844	0.8874	0.08
Mof_C 	C 	0.29218	0.80646	0.87556	0.055
Mof_C 	C 	0.30242	0.7748	0.88672	-0.121
Mof_H 	H 	0.3195	0.7633	0.8739	0.08
Mof_C 	C 	0.28753	0.75975	0.91695	0.068
Mof_H 	H 	0.2941	0.7379	0.9241	-0.004
Mof_C 	C 	0.31028	0.82312	0.8451	0.101
Mof_N 	N 	0.29677	0.85331	0.83233	-0.139
Mof_C 	C 	0.3149	0.86728	0.80524	0.097
Mof_N 	N 	0.34478	0.85322	0.79106	-0.137
Mof_C 	C 	0.3554	0.8229	0.80604	0.101
Mof_N 	N 	0.33914	0.80682	0.83254	-0.14
Mof_N 	N 	0.27348	0.96438	0.76564	-0.236
Mof_C 	C 	0.25737	0.94663	0.79029	0.072
Mof_H 	H 	0.2359	0.9563	0.7993	-0.006
Mof_C 	C 	0.26967	0.91533	0.80355	-0.123
Mof_H 	H 	0.2571	0.9039	0.8211	0.081
Mof_C 	C 	0.30099	0.90073	0.79061	0.056
Mof_C 	C 	0.31782	0.91858	0.76446	-0.123
Mof_H 	H 	0.3391	0.9093	0.7545	0.08
Mof_C 	C 	0.30335	0.94997	0.75297	0.073
Mof_H 	H 	0.3153	0.9619	0.7351	-0.004
Mof_N 	N 	0.45067	0.77381	0.76839	-0.237
Mof_C 	C 	0.4345	0.79836	0.7504	0.072
Mof_H 	H 	0.4449	0.8047	0.7287	-0.005
Mof_C 	C 	0.40407	0.81477	0.76121	-0.121
Mof_H 	H 	0.3938	0.8322	0.7474	0.078
Mof_C 	C 	0.38826	0.80552	0.7928	0.052
Mof_C 	C 	0.40395	0.78021	0.81211	-0.115
Mof_H 	H 	0.3937	0.7733	0.8337	0.079
Mof_C 	C 	0.43528	0.76508	0.79908	0.063
Mof_H 	H 	0.4463	0.7479	0.8123	-0.002
Mof_N 	N 	0.50255	0.78985	0.71099	-0.264
Mof_C 	C 	0.51008	0.80758	0.68838	0.106
Mof_S 	S 	0.52707	0.83169	0.65577	-0.053
Mof_N 	N 	0.54881	0.72767	0.73153	-0.241
Mof_C 	C 	0.56635	0.70381	0.74709	0.094
Mof_H 	H 	0.5572	0.6958	0.7688	-0.013
Mof_C 	C 	0.59706	0.68976	0.7341	-0.138
Mof_H 	H 	0.6084	0.6722	0.7468	0.084
Mof_C 	C 	0.61162	0.7008	0.7029	0.062
Mof_C 	C 	0.59374	0.72576	0.68586	-0.124
Mof_H 	H 	0.6027	0.7347	0.6643	0.081
Mof_C 	C 	0.5623	0.73786	0.70058	0.067
Mof_H 	H 	0.5498	0.754	0.6884	-0.006
Mof_C 	C 	0.64389	0.68603	0.68701	0.097
Mof_N 	N 	0.6583	0.65692	0.70232	-0.138
Mof_S 	S 	0.80223	0.14325	0.55055	-0.052
Mof_C 	C 	0.79189	0.18069	0.53193	0.093
Mof_N 	N 	0.78453	0.20679	0.51911	-0.258
Mof_N 	N 	0.77475	0.26421	0.52447	-0.238
Mof_C 	C 	0.8054	0.25338	0.51646	0.073
Mof_H 	H 	0.8163	0.2357	0.5101	-0.005
Mof_C 	C 	0.82217	0.26625	0.51677	-0.124
Mof_H 	H 	0.844	0.2576	0.511	0.08
Mof_C 	C 	0.80646	0.29218	0.5258	0.055
Mof_C 	C 	0.7748	0.30242	0.53606	-0.121
Mof_H 	H 	0.7633	0.3195	0.5433	0.08
Mof_C 	C 	0.75975	0.28753	0.53577	0.068
Mof_H 	H 	0.7379	0.2941	0.5439	-0.004
Mof_C 	C 	0.82312	0.31028	0.5215	0.101
Mof_N 	N 	0.85331	0.29677	0.51759	-0.139
Mof_C 	C 	0.86728	0.3149	0.51258	0.097
Mof_N 	N 	0.85322	0.34478	0.51094	-0.137
Mof_C 	C 	0.8229	0.3554	0.51566	0.101
Mof_N 	N 	0.80682	0.33914	0.5215	-0.14
Mof_N 	N 	0.96438	0.27348	0.4965	-0.236
Mof_C 	C 	0.94663	0.25737	0.50571	0.072
Mof_H 	H 	0.9563	0.2359	0.5085	-0.006
Mof_C 	C 	0.91533	0.26967	0.51145	-0.123
Mof_H 	H 	0.9039	0.2571	0.5179	0.081
Mof_C 	C 	0.90073	0.30099	0.50767	0.056
Mof_C 	C 	0.91858	0.31782	0.49914	-0.123
Mof_H 	H 	0.9093	0.3391	0.4971	0.08
Mof_C 	C 	0.94997	0.30335	0.49371	0.073
Mof_H 	H 	0.9619	0.3153	0.4877	-0.004
Mof_N 	N 	0.77381	0.45067	0.50713	-0.237
Mof_C 	C 	0.79836	0.4345	0.51674	0.072
Mof_H 	H 	0.8047	0.4449	0.5217	-0.005
Mof_C 	C 	0.81477	0.40407	0.51995	-0.121
Mof_H 	H 	0.8322	0.3938	0.5266	0.078
Mof_C 	C 	0.80552	0.38826	0.51342	0.052
Mof_C 	C 	0.78021	0.40395	0.50373	-0.115
Mof_H 	H 	0.7733	0.3937	0.4993	0.079
Mof_C 	C 	0.76508	0.43528	0.50056	0.063
Mof_H 	H 	0.7479	0.4463	0.4935	-0.002
Mof_N 	N 	0.78985	0.50255	0.49661	-0.264
Mof_C 	C 	0.80758	0.51008	0.49396	0.106
Mof_S 	S 	0.83169	0.52707	0.48547	-0.053
Mof_N 	N 	0.72767	0.54881	0.49199	-0.241
Mof_C 	C 	0.70381	0.56635	0.48275	0.094
Mof_H 	H 	0.6958	0.5572	0.4782	-0.013
Mof_C 	C 	0.68976	0.59706	0.47908	-0.138
Mof_H 	H 	0.6722	0.6084	0.4726	0.084
Mof_C 	C 	0.7008	0.61162	0.48468	0.062
Mof_C 	C 	0.72576	0.59374	0.49464	-0.124
Mof_H 	H 	0.7347	0.6027	0.4983	0.081
Mof_C 	C 	0.73786	0.5623	0.49926	0.067
Mof_H 	H 	0.754	0.5498	0.5078	-0.006
Mof_C 	C 	0.68603	0.64389	0.48307	0.097
Mof_N 	N 	0.65692	0.6583	0.48246	-0.138
Mof_S 	S 	0.14325	0.55055	0.80223	-0.052
Mof_C 	C 	0.18069	0.53193	0.79189	0.093
Mof_N 	N 	0.20679	0.51911	0.78453	-0.258
Mof_N 	N 	0.26421	0.52447	0.77475	-0.238
Mof_C 	C 	0.25338	0.51646	0.8054	0.073
Mof_H 	H 	0.2357	0.5101	0.8163	-0.005
Mof_C 	C 	0.26625	0.51677	0.82217	-0.124
Mof_H 	H 	0.2576	0.511	0.844	0.08
Mof_C 	C 	0.29218	0.5258	0.80646	0.055
Mof_C 	C 	0.30242	0.53606	0.7748	-0.121
Mof_H 	H 	0.3195	0.5433	0.7633	0.08
Mof_C 	C 	0.28753	0.53577	0.75975	0.068
Mof_H 	H 	0.2941	0.5439	0.7379	-0.004
Mof_C 	C 	0.31028	0.5215	0.82312	0.101
Mof_N 	N 	0.29677	0.51759	0.85331	-0.139
Mof_C 	C 	0.3149	0.51258	0.86728	0.097
Mof_N 	N 	0.34478	0.51094	0.85322	-0.137
Mof_C 	C 	0.3554	0.51566	0.8229	0.101
Mof_N 	N 	0.33914	0.5215	0.80682	-0.14
Mof_N 	N 	0.27348	0.4965	0.96438	-0.236
Mof_C 	C 	0.25737	0.50571	0.94663	0.072
Mof_H 	H 	0.2359	0.5085	0.9563	-0.006
Mof_C 	C 	0.26967	0.51145	0.91533	-0.123
Mof_H 	H 	0.2571	0.5179	0.9039	0.081
Mof_C 	C 	0.30099	0.50767	0.90073	0.056
Mof_C 	C 	0.31782	0.49914	0.91858	-0.123
Mof_H 	H 	0.3391	0.4971	0.9093	0.08
Mof_C 	C 	0.30335	0.49371	0.94997	0.073
Mof_H 	H 	0.3153	0.4877	0.9619	-0.004
Mof_N 	N 	0.45067	0.50713	0.77381	-0.237
Mof_C 	C 	0.4345	0.51674	0.79836	0.072
Mof_H 	H 	0.4449	0.5217	0.8047	-0.005
Mof_C 	C 	0.40407	0.51995	0.81477	-0.121
Mof_H 	H 	0.3938	0.5266	0.8322	0.078
Mof_C 	C 	0.38826	0.51342	0.80552	0.052
Mof_C 	C 	0.40395	0.50373	0.78021	-0.115
Mof_H 	H 	0.3937	0.4993	0.7733	0.079
Mof_C 	C 	0.43528	0.50056	0.76508	0.063
Mof_H 	H 	0.4463	0.4935	0.7479	-0.002
Mof_N 	N 	0.50255	0.49661	0.78985	-0.264
Mof_C 	C 	0.51008	0.49396	0.80758	0.106
Mof_S 	S 	0.52707	0.48547	0.83169	-0.053
Mof_N 	N 	0.54881	0.49199	0.72767	-0.241
Mof_C 	C 	0.56635	0.48275	0.70381	0.094
Mof_H 	H 	0.5572	0.4782	0.6958	-0.013
Mof_C 	C 	0.59706	0.47908	0.68976	-0.138
Mof_H 	H 	0.6084	0.4726	0.6722	0.084
Mof_C 	C 	0.61162	0.48468	0.7008	0.062
Mof_C 	C 	0.59374	0.49464	0.72576	-0.124
Mof_H 	H 	0.6027	0.4983	0.7347	0.081
Mof_C 	C 	0.5623	0.49926	0.73786	0.067
Mof_H 	H 	0.5498	0.5078	0.754	-0.006
Mof_C 	C 	0.64389	0.48307	0.68603	0.097
Mof_N 	N 	0.6583	0.48246	0.65692	-0.138
Mof_S 	S 	0.80223	0.00397	0.14325	-0.052
Mof_C 	C 	0.79189	0.99549	0.18069	0.093
Mof_N 	N 	0.78453	0.98957	0.20679	-0.258
Mof_N 	N 	0.77475	0.93657	0.26421	-0.238
Mof_C 	C 	0.8054	0.92476	0.25338	0.073
Mof_H 	H 	0.8163	0.9379	0.2357	-0.005
Mof_C 	C 	0.82217	0.89481	0.26625	-0.124
Mof_H 	H 	0.844	0.8874	0.2576	0.08
Mof_C 	C 	0.80646	0.87556	0.29218	0.055
Mof_C 	C 	0.7748	0.88672	0.30242	-0.121
Mof_H 	H 	0.7633	0.8739	0.3195	0.08
Mof_C 	C 	0.75975	0.91695	0.28753	0.068
Mof_H 	H 	0.7379	0.9241	0.2941	-0.004
Mof_C 	C 	0.82312	0.8451	0.31028	0.101
Mof_N 	N 	0.85331	0.83233	0.29677	-0.139
Mof_C 	C 	0.86728	0.80524	0.3149	0.097
Mof_N 	N 	0.85322	0.79106	0.34478	-0.137
Mof_C 	C 	0.8229	0.80604	0.3554	0.101
Mof_N 	N 	0.80682	0.83254	0.33914	-0.14
Mof_N 	N 	0.96438	0.76564	0.27348	-0.236
Mof_C 	C 	0.94663	0.79029	0.25737	0.072
Mof_H 	H 	0.9563	0.7993	0.2359	-0.006
Mof_C 	C 	0.91533	0.80355	0.26967	-0.123
Mof_H 	H 	0.9039	0.8211	0.2571	0.081
Mof_C 	C 	0.90073	0.79061	0.30099	0.056
Mof_C 	C 	0.91858	0.76446	0.31782	-0.123
Mof_H 	H 	0.9093	0.7545	0.3391	0.08
Mof_C 	C 	0.94997	0.75297	0.30335	0.073
Mof_H 	H 	0.9619	0.7351	0.3153	-0.004
Mof_N 	N 	0.77381	0.76839	0.45067	-0.237
Mof_C 	C 	0.79836	0.7504	0.4345	0.072
Mof_H 	H 	0.8047	0.7287	0.4449	-0.005
Mof_C 	C 	0.81477	0.76121	0.40407	-0.121
Mof_H 	H 	0.8322	0.7474	0.3938	0.078
Mof_C 	C 	0.80552	0.7928	0.38826	0.052
Mof_C 	C 	0.78021	0.81211	0.40395	-0.115
Mof_H 	H 	0.7733	0.8337	0.3937	0.079
Mof_C 	C 	0.76508	0.79908	0.43528	0.063
Mof_H 	H 	0.7479	0.8123	0.4463	-0.002
Mof_N 	N 	0.78985	0.71099	0.50255	-0.264
Mof_C 	C 	0.80758	0.68838	0.51008	0.106
Mof_S 	S 	0.83169	0.65577	0.52707	-0.053
Mof_N 	N 	0.72767	0.73153	0.54881	-0.241
Mof_C 	C 	0.70381	0.74709	0.56635	0.094
Mof_H 	H 	0.6958	0.7688	0.5572	-0.013
Mof_C 	C 	0.68976	0.7341	0.59706	-0.138
Mof_H 	H 	0.6722	0.7468	0.6084	0.084
Mof_C 	C 	0.7008	0.7029	0.61162	0.062
Mof_C 	C 	0.72576	0.68586	0.59374	-0.124
Mof_H 	H 	0.7347	0.6643	0.6027	0.081
Mof_C 	C 	0.73786	0.70058	0.5623	0.067
Mof_H 	H 	0.754	0.6884	0.5498	-0.006
Mof_C 	C 	0.68603	0.68701	0.64389	0.097
Mof_N 	N 	0.65692	0.70232	0.6583	-0.138
Mof_S 	S 	0.55055	0.14325	0.00397	-0.052
Mof_C 	C 	0.53193	0.18069	0.99549	0.093
Mof_N 	N 	0.51911	0.20679	0.98957	-0.258
Mof_N 	N 	0.52447	0.26421	0.93657	-0.238
Mof_C 	C 	0.51646	0.25338	0.92476	0.073
Mof_H 	H 	0.5101	0.2357	0.9379	-0.005
Mof_C 	C 	0.51677	0.26625	0.89481	-0.124
Mof_H 	H 	0.511	0.2576	0.8874	0.08
Mof_C 	C 	0.5258	0.29218	0.87556	0.055
Mof_C 	C 	0.53606	0.30242	0.88672	-0.121
Mof_H 	H 	0.5433	0.3195	0.8739	0.08
Mof_C 	C 	0.53577	0.28753	0.91695	0.068
Mof_H 	H 	0.5439	0.2941	0.9241	-0.004
Mof_C 	C 	0.5215	0.31028	0.8451	0.101
Mof_N 	N 	0.51759	0.29677	0.83233	-0.139
Mof_C 	C 	0.51258	0.3149	0.80524	0.097
Mof_N 	N 	0.51094	0.34478	0.79106	-0.137
Mof_C 	C 	0.51566	0.3554	0.80604	0.101
Mof_N 	N 	0.5215	0.33914	0.83254	-0.14
Mof_N 	N 	0.4965	0.27348	0.76564	-0.236
Mof_C 	C 	0.50571	0.25737	0.79029	0.072
Mof_H 	H 	0.5085	0.2359	0.7993	-0.006
Mof_C 	C 	0.51145	0.26967	0.80355	-0.123
Mof_H 	H 	0.5179	0.2571	0.8211	0.081
Mof_C 	C 	0.50767	0.30099	0.79061	0.056
Mof_C 	C 	0.49914	0.31782	0.76446	-0.123
Mof_H 	H 	0.4971	0.3391	0.7545	0.08
Mof_C 	C 	0.49371	0.30335	0.75297	0.073
Mof_H 	H 	0.4877	0.3153	0.7351	-0.004
Mof_N 	N 	0.50713	0.45067	0.76839	-0.237
Mof_C 	C 	0.51674	0.4345	0.7504	0.072
Mof_H 	H 	0.5217	0.4449	0.7287	-0.005
Mof_C 	C 	0.51995	0.40407	0.76121	-0.121
Mof_H 	H 	0.5266	0.3938	0.7474	0.078
Mof_C 	C 	0.51342	0.38826	0.7928	0.052
Mof_C 	C 	0.50373	0.40395	0.81211	-0.115
Mof_H 	H 	0.4993	0.3937	0.8337	0.079
Mof_C 	C 	0.50056	0.43528	0.79908	0.063
Mof_H 	H 	0.4935	0.4463	0.8123	-0.002
Mof_N 	N 	0.49661	0.50255	0.71099	-0.264
Mof_C 	C 	0.49396	0.51008	0.68838	0.106
Mof_S 	S 	0.48547	0.52707	0.65577	-0.053
Mof_N 	N 	0.49199	0.54881	0.73153	-0.241
Mof_C 	C 	0.48275	0.56635	0.74709	0.094
Mof_H 	H 	0.4782	0.5572	0.7688	-0.013
Mof_C 	C 	0.47908	0.59706	0.7341	-0.138
Mof_H 	H 	0.4726	0.6084	0.7468	0.084
Mof_C 	C 	0.48468	0.61162	0.7029	0.062
Mof_C 	C 	0.49464	0.59374	0.68586	-0.124
Mof_H 	H 	0.4983	0.6027	0.6643	0.081
Mof_C 	C 	0.49926	0.5623	0.70058	0.067
Mof_H 	H 	0.5078	0.5498	0.6884	-0.006
Mof_C 	C 	0.48307	0.64389	0.68701	0.097
Mof_N 	N 	0.48246	0.6583	0.70232	-0.138
Mof_S 	S 	0.00397	0.80223	0.55055	-0.052
Mof_C 	C 	0.99549	0.79189	0.53193	0.093
Mof_N 	N 	0.98957	0.78453	0.51911	-0.258
Mof_N 	N 	0.93657	0.77475	0.52447	-0.238
Mof_C 	C 	0.92476	0.8054	0.51646	0.073
Mof_H 	H 	0.9379	0.8163	0.5101	-0.005
Mof_C 	C 	0.89481	0.82217	0.51677	-0.124
Mof_H 	H 	0.8874	0.844	0.511	0.08
Mof_C 	C 	0.87556	0.80646	0.5258	0.055
Mof_C 	C 	0.88672	0.7748	0.53606	-0.121
Mof_H 	H 	0.8739	0.7633	0.5433	0.08
Mof_C 	C 	0.91695	0.75975	0.53577	0.068
Mof_H 	H 	0.9241	0.7379	0.5439	-0.004
Mof_C 	C 	0.8451	0.82312	0.5215	0.101
Mof_N 	N 	0.83233	0.85331	0.51759	-0.139
Mof_C 	C 	0.80524	0.86728	0.51258	0.097
Mof_N 	N 	0.79106	0.85322	0.51094	-0.137
Mof_C 	C 	0.80604	0.8229	0.51566	0.101
Mof_N 	N 	0.83254	0.80682	0.5215	-0.14
Mof_N 	N 	0.76564	0.96438	0.4965	-0.236
Mof_C 	C 	0.79029	0.94663	0.50571	0.072
Mof_H 	H 	0.7993	0.9563	0.5085	-0.006
Mof_C 	C 	0.80355	0.91533	0.51145	-0.123
Mof_H 	H 	0.8211	0.9039	0.5179	0.081
Mof_C 	C 	0.79061	0.90073	0.50767	0.056
Mof_C 	C 	0.76446	0.91858	0.49914	-0.123
Mof_H 	H 	0.7545	0.9093	0.4971	0.08
Mof_C 	C 	0.75297	0.94997	0.49371	0.073
Mof_H 	H 	0.7351	0.9619	0.4877	-0.004
Mof_N 	N 	0.76839	0.77381	0.50713	-0.237
Mof_C 	C 	0.7504	0.79836	0.51674	0.072
Mof_H 	H 	0.7287	0.8047	0.5217	-0.005
Mof_C 	C 	0.76121	0.81477	0.51995	-0.121
Mof_H 	H 	0.7474	0.8322	0.5266	0.078
Mof_C 	C 	0.7928	0.80552	0.51342	0.052
Mof_C 	C 	0.81211	0.78021	0.50373	-0.115
Mof_H 	H 	0.8337	0.7733	0.4993	0.079
Mof_C 	C 	0.79908	0.76508	0.50056	0.063
Mof_H 	H 	0.8123	0.7479	0.4935	-0.002
Mof_N 	N 	0.71099	0.78985	0.49661	-0.264
Mof_C 	C 	0.68838	0.80758	0.49396	0.106
Mof_S 	S 	0.65577	0.83169	0.48547	-0.053
Mof_N 	N 	0.73153	0.72767	0.49199	-0.241
Mof_C 	C 	0.74709	0.70381	0.48275	0.094
Mof_H 	H 	0.7688	0.6958	0.4782	-0.013
Mof_C 	C 	0.7341	0.68976	0.47908	-0.138
Mof_H 	H 	0.7468	0.6722	0.4726	0.084
Mof_C 	C 	0.7029	0.7008	0.48468	0.062
Mof_C 	C 	0.68586	0.72576	0.49464	-0.124
Mof_H 	H 	0.6643	0.7347	0.4983	0.081
Mof_C 	C 	0.70058	0.73786	0.49926	0.067
Mof_H 	H 	0.6884	0.754	0.5078	-0.006
Mof_C 	C 	0.68701	0.68603	0.48307	0.097
Mof_N 	N 	0.70232	0.65692	0.48246	-0.138
Mof_S 	S 	0.00397	0.14325	0.80223	-0.052
Mof_C 	C 	0.99549	0.18069	0.79189	0.093
Mof_N 	N 	0.98957	0.20679	0.78453	-0.258
Mof_N 	N 	0.93657	0.26421	0.77475	-0.238
Mof_C 	C 	0.92476	0.25338	0.8054	0.073
Mof_H 	H 	0.9379	0.2357	0.8163	-0.005
Mof_C 	C 	0.89481	0.26625	0.82217	-0.124
Mof_H 	H 	0.8874	0.2576	0.844	0.08
Mof_C 	C 	0.87556	0.29218	0.80646	0.055
Mof_C 	C 	0.88672	0.30242	0.7748	-0.121
Mof_H 	H 	0.8739	0.3195	0.7633	0.08
Mof_C 	C 	0.91695	0.28753	0.75975	0.068
Mof_H 	H 	0.9241	0.2941	0.7379	-0.004
Mof_C 	C 	0.8451	0.31028	0.82312	0.101
Mof_N 	N 	0.83233	0.29677	0.85331	-0.139
Mof_C 	C 	0.80524	0.3149	0.86728	0.097
Mof_N 	N 	0.79106	0.34478	0.85322	-0.137
Mof_C 	C 	0.80604	0.3554	0.8229	0.101
Mof_N 	N 	0.83254	0.33914	0.80682	-0.14
Mof_N 	N 	0.76564	0.27348	0.96438	-0.236
Mof_C 	C 	0.79029	0.25737	0.94663	0.072
Mof_H 	H 	0.7993	0.2359	0.9563	-0.006
Mof_C 	C 	0.80355	0.26967	0.91533	-0.123
Mof_H 	H 	0.8211	0.2571	0.9039	0.081
Mof_C 	C 	0.79061	0.30099	0.90073	0.056
Mof_C 	C 	0.76446	0.31782	0.91858	-0.123
Mof_H 	H 	0.7545	0.3391	0.9093	0.08
Mof_C 	C 	0.75297	0.30335	0.94997	0.073
Mof_H 	H 	0.7351	0.3153	0.9619	-0.004
Mof_N 	N 	0.76839	0.45067	0.77381	-0.237
Mof_C 	C 	0.7504	0.4345	0.79836	0.072
Mof_H 	H 	0.7287	0.4449	0.8047	-0.005
Mof_C 	C 	0.76121	0.40407	0.81477	-0.121
Mof_H 	H 	0.7474	0.3938	0.8322	0.078
Mof_C 	C 	0.7928	0.38826	0.80552	0.052
Mof_C 	C 	0.81211	0.40395	0.78021	-0.115
Mof_H 	H 	0.8337	0.3937	0.7733	0.079
Mof_C 	C 	0.79908	0.43528	0.76508	0.063
Mof_H 	H 	0.8123	0.4463	0.7479	-0.002
Mof_N 	N 	0.71099	0.50255	0.78985	-0.264
Mof_C 	C 	0.68838	0.51008	0.80758	0.106
Mof_S 	S 	0.65577	0.52707	0.83169	-0.053
Mof_N 	N 	0.73153	0.54881	0.72767	-0.241
Mof_C 	C 	0.74709	0.56635	0.70381	0.094
Mof_H 	H 	0.7688	0.5572	0.6958	-0.013
Mof_C 	C 	0.7341	0.59706	0.68976	-0.138
Mof_H 	H 	0.7468	0.6084	0.6722	0.084
Mof_C 	C 	0.7029	0.61162	0.7008	0.062
Mof_C 	C 	0.68586	0.59374	0.72576	-0.124
Mof_H 	H 	0.6643	0.6027	0.7347	0.081
Mof_C 	C 	0.70058	0.5623	0.73786	0.067
Mof_H 	H 	0.6884	0.5498	0.754	-0.006
Mof_C 	C 	0.68701	0.64389	0.68603	0.097
Mof_N 	N 	0.70232	0.6583	0.65692	-0.138
Mof_S 	S 	0.55055	0.80223	0.14325	-0.052
Mof_C 	C 	0.53193	0.79189	0.18069	0.093
Mof_N 	N 	0.51911	0.78453	0.20679	-0.258
Mof_N 	N 	0.52447	0.77475	0.26421	-0.238
Mof_C 	C 	0.51646	0.8054	0.25338	0.073
Mof_H 	H 	0.5101	0.8163	0.2357	-0.005
Mof_C 	C 	0.51677	0.82217	0.26625	-0.124
Mof_H 	H 	0.511	0.844	0.2576	0.08
Mof_C 	C 	0.5258	0.80646	0.29218	0.055
Mof_C 	C 	0.53606	0.7748	0.30242	-0.121
Mof_H 	H 	0.5433	0.7633	0.3195	0.08
Mof_C 	C 	0.53577	0.75975	0.28753	0.068
Mof_H 	H 	0.5439	0.7379	0.2941	-0.004
Mof_C 	C 	0.5215	0.82312	0.31028	0.101
Mof_N 	N 	0.51759	0.85331	0.29677	-0.139
Mof_C 	C 	0.51258	0.86728	0.3149	0.097
Mof_N 	N 	0.51094	0.85322	0.34478	-0.137
Mof_C 	C 	0.51566	0.8229	0.3554	0.101
Mof_N 	N 	0.5215	0.80682	0.33914	-0.14
Mof_N 	N 	0.4965	0.96438	0.27348	-0.236
Mof_C 	C 	0.50571	0.94663	0.25737	0.072
Mof_H 	H 	0.5085	0.9563	0.2359	-0.006
Mof_C 	C 	0.51145	0.91533	0.26967	-0.123
Mof_H 	H 	0.5179	0.9039	0.2571	0.081
Mof_C 	C 	0.50767	0.90073	0.30099	0.056
Mof_C 	C 	0.49914	0.91858	0.31782	-0.123
Mof_H 	H 	0.4971	0.9093	0.3391	0.08
Mof_C 	C 	0.49371	0.94997	0.30335	0.073
Mof_H 	H 	0.4877	0.9619	0.3153	-0.004
Mof_N 	N 	0.50713	0.77381	0.45067	-0.237
Mof_C 	C 	0.51674	0.79836	0.4345	0.072
Mof_H 	H 	0.5217	0.8047	0.4449	-0.005
Mof_C 	C 	0.51995	0.81477	0.40407	-0.121
Mof_H 	H 	0.5266	0.8322	0.3938	0.078
Mof_C 	C 	0.51342	0.80552	0.38826	0.052
Mof_C 	C 	0.50373	0.78021	0.40395	-0.115
Mof_H 	H 	0.4993	0.7733	0.3937	0.079
Mof_C 	C 	0.50056	0.76508	0.43528	0.063
Mof_H 	H 	0.4935	0.7479	0.4463	-0.002
Mof_N 	N 	0.49661	0.78985	0.50255	-0.264
Mof_C 	C 	0.49396	0.80758	0.51008	0.106
Mof_S 	S 	0.48547	0.83169	0.52707	-0.053
Mof_N 	N 	0.49199	0.72767	0.54881	-0.241
Mof_C 	C 	0.48275	0.70381	0.56635	0.094
Mof_H 	H 	0.4782	0.6958	0.5572	-0.013
Mof_C 	C 	0.47908	0.68976	0.59706	-0.138
Mof_H 	H 	0.4726	0.6722	0.6084	0.084
Mof_C 	C 	0.48468	0.7008	0.61162	0.062
Mof_C 	C 	0.49464	0.72576	0.59374	-0.124
Mof_H 	H 	0.4983	0.7347	0.6027	0.081
Mof_C 	C 	0.49926	0.73786	0.5623	0.067
Mof_H 	H 	0.5078	0.754	0.5498	-0.006
Mof_C 	C 	0.48307	0.68603	0.64389	0.097
Mof_N 	N 	0.48246	0.65692	0.6583	-0.138
Mof_S 	S 	0.80223	0.55055	0.00397	-0.052
Mof_C 	C 	0.79189	0.53193	0.99549	0.093
Mof_N 	N 	0.78453	0.51911	0.98957	-0.258
Mof_N 	N 	0.77475	0.52447	0.93657	-0.238
Mof_C 	C 	0.8054	0.51646	0.92476	0.073
Mof_H 	H 	0.8163	0.5101	0.9379	-0.005
Mof_C 	C 	0.82217	0.51677	0.89481	-0.124
Mof_H 	H 	0.844	0.511	0.8874	0.08
Mof_C 	C 	0.80646	0.5258	0.87556	0.055
Mof_C 	C 	0.7748	0.53606	0.88672	-0.121
Mof_H 	H 	0.7633	0.5433	0.8739	0.08
Mof_C 	C 	0.75975	0.53577	0.91695	0.068
Mof_H 	H 	0.7379	0.5439	0.9241	-0.004
Mof_C 	C 	0.82312	0.5215	0.8451	0.101
Mof_N 	N 	0.85331	0.51759	0.83233	-0.139
Mof_C 	C 	0.86728	0.51258	0.80524	0.097
Mof_N 	N 	0.85322	0.51094	0.79106	-0.137
Mof_C 	C 	0.8229	0.51566	0.80604	0.101
Mof_N 	N 	0.80682	0.5215	0.83254	-0.14
Mof_N 	N 	0.96438	0.4965	0.76564	-0.236
Mof_C 	C 	0.94663	0.50571	0.79029	0.072
Mof_H 	H 	0.9563	0.5085	0.7993	-0.006
Mof_C 	C 	0.91533	0.51145	0.80355	-0.123
Mof_H 	H 	0.9039	0.5179	0.8211	0.081
Mof_C 	C 	0.90073	0.50767	0.79061	0.056
Mof_C 	C 	0.91858	0.49914	0.76446	-0.123
Mof_H 	H 	0.9093	0.4971	0.7545	0.08
Mof_C 	C 	0.94997	0.49371	0.75297	0.073
Mof_H 	H 	0.9619	0.4877	0.7351	-0.004
Mof_N 	N 	0.77381	0.50713	0.76839	-0.237
Mof_C 	C 	0.79836	0.51674	0.7504	0.072
Mof_H 	H 	0.8047	0.5217	0.7287	-0.005
Mof_C 	C 	0.81477	0.51995	0.76121	-0.121
Mof_H 	H 	0.8322	0.5266	0.7474	0.078
Mof_C 	C 	0.80552	0.51342	0.7928	0.052
Mof_C 	C 	0.78021	0.50373	0.81211	-0.115
Mof_H 	H 	0.7733	0.4993	0.8337	0.079
Mof_C 	C 	0.76508	0.50056	0.79908	0.063
Mof_H 	H 	0.7479	0.4935	0.8123	-0.002
Mof_N 	N 	0.78985	0.49661	0.71099	-0.264
Mof_C 	C 	0.80758	0.49396	0.68838	0.106
Mof_S 	S 	0.83169	0.48547	0.65577	-0.053
Mof_N 	N 	0.72767	0.49199	0.73153	-0.241
Mof_C 	C 	0.70381	0.48275	0.74709	0.094
Mof_H 	H 	0.6958	0.4782	0.7688	-0.013
Mof_C 	C 	0.68976	0.47908	0.7341	-0.138
Mof_H 	H 	0.6722	0.4726	0.7468	0.084
Mof_C 	C 	0.7008	0.48468	0.7029	0.062
Mof_C 	C 	0.72576	0.49464	0.68586	-0.124
Mof_H 	H 	0.7347	0.4983	0.6643	0.081
Mof_C 	C 	0.73786	0.49926	0.70058	0.067
Mof_H 	H 	0.754	0.5078	0.6884	-0.006
Mof_C 	C 	0.68603	0.48307	0.68701	0.097
Mof_N 	N 	0.65692	0.48246	0.70232	-0.138
Mof_S 	S 	0.14325	0.00397	0.55055	-0.052
Mof_C 	C 	0.18069	0.99549	0.53193	0.093
Mof_N 	N 	0.20679	0.98957	0.51911	-0.258
Mof_N 	N 	0.26421	0.93657	0.52447	-0.238
Mof_C 	C 	0.25338	0.92476	0.51646	0.073
Mof_H 	H 	0.2357	0.9379	0.5101	-0.005
Mof_C 	C 	0.26625	0.89481	0.51677	-0.124
Mof_H 	H 	0.2576	0.8874	0.511	0.08
Mof_C 	C 	0.29218	0.87556	0.5258	0.055
Mof_C 	C 	0.30242	0.88672	0.53606	-0.121
Mof_H 	H 	0.3195	0.8739	0.5433	0.08
Mof_C 	C 	0.28753	0.91695	0.53577	0.068
Mof_H 	H 	0.2941	0.9241	0.5439	-0.004
Mof_C 	C 	0.31028	0.8451	0.5215	0.101
Mof_N 	N 	0.29677	0.83233	0.51759	-0.139
Mof_C 	C 	0.3149	0.80524	0.51258	0.097
Mof_N 	N 	0.34478	0.79106	0.51094	-0.137
Mof_C 	C 	0.3554	0.80604	0.51566	0.101
Mof_N 	N 	0.33914	0.83254	0.5215	-0.14
Mof_N 	N 	0.27348	0.76564	0.4965	-0.236
Mof_C 	C 	0.25737	0.79029	0.50571	0.072
Mof_H 	H 	0.2359	0.7993	0.5085	-0.006
Mof_C 	C 	0.26967	0.80355	0.51145	-0.123
Mof_H 	H 	0.2571	0.8211	0.5179	0.081
Mof_C 	C 	0.30099	0.79061	0.50767	0.056
Mof_C 	C 	0.31782	0.76446	0.49914	-0.123
Mof_H 	H 	0.3391	0.7545	0.4971	0.08
Mof_C 	C 	0.30335	0.75297	0.49371	0.073
Mof_H 	H 	0.3153	0.7351	0.4877	-0.004
Mof_N 	N 	0.45067	0.76839	0.50713	-0.237
Mof_C 	C 	0.4345	0.7504	0.51674	0.072
Mof_H 	H 	0.4449	0.7287	0.5217	-0.005
Mof_C 	C 	0.40407	0.76121	0.51995	-0.121
Mof_H 	H 	0.3938	0.7474	0.5266	0.078
Mof_C 	C 	0.38826	0.7928	0.51342	0.052
Mof_C 	C 	0.40395	0.81211	0.50373	-0.115
Mof_H 	H 	0.3937	0.8337	0.4993	0.079
Mof_C 	C 	0.43528	0.79908	0.50056	0.063
Mof_H 	H 	0.4463	0.8123	0.4935	-0.002
Mof_N 	N 	0.50255	0.71099	0.49661	-0.264
Mof_C 	C 	0.51008	0.68838	0.49396	0.106
Mof_S 	S 	0.52707	0.65577	0.48547	-0.053
Mof_N 	N 	0.54881	0.73153	0.49199	-0.241
Mof_C 	C 	0.56635	0.74709	0.48275	0.094
Mof_H 	H 	0.5572	0.7688	0.4782	-0.013
Mof_C 	C 	0.59706	0.7341	0.47908	-0.138
Mof_H 	H 	0.6084	0.7468	0.4726	0.084
Mof_C 	C 	0.61162	0.7029	0.48468	0.062
Mof_C 	C 	0.59374	0.68586	0.49464	-0.124
Mof_H 	H 	0.6027	0.6643	0.4983	0.081
Mof_C 	C 	0.5623	0.70058	0.49926	0.067
Mof_H 	H 	0.5498	0.6884	0.5078	-0.006
Mof_C 	C 	0.64389	0.68701	0.48307	0.097
Mof_N 	N 	0.6583	0.70232	0.48246	-0.138
Mof_Co	Co	0.01436	0.48564	0.75	1.122
Mof_Co	Co	0.48564	0.01436	0.25	1.122
Mof_Co	Co	0.75	0.25	0.01436	1.122
Mof_Co	Co	0.25	0.75	0.48564	1.122
Mof_Co	Co	0.75	0.01436	0.48564	1.122
Mof_Co	Co	0.25	0.48564	0.01436	1.122
Mof_Co	Co	0.01436	0.75	0.25	1.122
Mof_Co	Co	0.48564	0.25	0.75	1.122
Mof_Co	Co	0.48564	0.75	0.01436	1.122
Mof_Co	Co	0.01436	0.25	0.48564	1.122
Mof_Co	Co	0.25	0.01436	0.75	1.122
Mof_Co	Co	0.75	0.48564	0.25	1.122
Mof_Co	Co	0.98564	0.51436	0.25	1.122
Mof_Co	Co	0.51436	0.98564	0.75	1.122
Mof_Co	Co	0.25	0.75	0.98564	1.122
Mof_Co	Co	0.75	0.25	0.51436	1.122
Mof_Co	Co	0.25	0.98564	0.51436	1.122
Mof_Co	Co	0.75	0.51436	0.98564	1.122
Mof_Co	Co	0.98564	0.25	0.75	1.122
Mof_Co	Co	0.51436	0.75	0.25	1.122
Mof_Co	Co	0.51436	0.25	0.98564	1.122
Mof_Co	Co	0.98564	0.75	0.51436	1.122
Mof_Co	Co	0.75	0.98564	0.25	1.122
Mof_Co	Co	0.25	0.51436	0.75	1.122
Mof_Co	Co	0.99948	0.25052	0.99948	1.123
Mof_Co	Co	0.25052	0.99948	0.25052	1.123
Mof_Co	Co	0.99948	0.99948	0.25052	1.123
Mof_Co	Co	0.25052	0.25052	0.99948	1.123
Mof_Co	Co	0.25052	0.99948	0.99948	1.123
Mof_Co	Co	0.99948	0.25052	0.25052	1.123
Mof_Co	Co	0.50052	0.24948	0.24948	1.123
Mof_Co	Co	0.24948	0.50052	0.50052	1.123
Mof_Co	Co	0.50052	0.50052	0.24948	1.123
Mof_Co	Co	0.24948	0.24948	0.50052	1.123
Mof_Co	Co	0.24948	0.50052	0.24948	1.123
Mof_Co	Co	0.50052	0.24948	0.50052	1.123
Mof_Co	Co	0.00052	0.74948	0.00052	1.123
Mof_Co	Co	0.74948	0.00052	0.74948	1.123
Mof_Co	Co	0.00052	0.00052	0.74948	1.123
Mof_Co	Co	0.74948	0.74948	0.00052	1.123
Mof_Co	Co	0.74948	0.00052	0.00052	1.123
Mof_Co	Co	0.00052	0.74948	0.74948	1.123
Mof_Co	Co	0.49948	0.75052	0.75052	1.123
Mof_Co	Co	0.75052	0.49948	0.49948	1.123
Mof_Co	Co	0.49948	0.49948	0.75052	1.123
Mof_Co	Co	0.75052	0.75052	0.49948	1.123
Mof_Co	Co	0.75052	0.49948	0.75052	1.123
Mof_Co	Co	0.49948	0.75052	0.49948	1.123
_end
