data_functionalizedCrystal
_audit_creation_method	'EQeq! by Chris Wilmer'
_symmetry_space_group_name_H-M	'P1'
_symmetry_Int_Tables_number	1
_symmetry_cell_setting	triclinic
loop_
_symmetry_equiv_pos_as_xyz
  x,y,z
_cell_length_a	12.746
_cell_length_b	12.746
_cell_length_c	12.746
_cell_angle_alpha	90
_cell_angle_beta	90
_cell_angle_gamma	90
loop_
_atom_site_label
_atom_site_type_symbol
_atom_site_fract_x
_atom_site_fract_y
_atom_site_fract_z
_atom_site_charge
Mof_N 	N 	0.06187	0.04418	0.35893	-0.21
Mof_N 	N 	0.02008	0.03511	0.27575	-0.166
Mof_N 	N 	0.98316	0.02954	0.19269	-0.074
Mof_N 	N 	0.43813	0.95582	0.85893	-0.036
Mof_N 	N 	0.47992	0.96489	0.77575	0.006
Mof_N 	N 	0.51684	0.97046	0.69269	-0.169
Mof_N 	N 	0.93813	0.54418	0.14107	-0.143
Mof_N 	N 	0.97992	0.53511	0.22425	0.084
Mof_N 	N 	0.01684	0.52954	0.30731	-0.357
Mof_N 	N 	0.56187	0.45582	0.64107	-0.227
Mof_N 	N 	0.52008	0.46489	0.72425	-0.024
Mof_N 	N 	0.48316	0.47046	0.80731	-0.206
Mof_N 	N 	0.35893	0.06187	0.04418	-0.209
Mof_N 	N 	0.27575	0.02008	0.03511	-0.166
Mof_N 	N 	0.19269	0.98316	0.02954	-0.074
Mof_N 	N 	0.85893	0.43813	0.95582	-0.036
Mof_N 	N 	0.77575	0.47992	0.96489	0.006
Mof_N 	N 	0.69269	0.51684	0.97046	-0.169
Mof_N 	N 	0.14107	0.93813	0.54418	-0.143
Mof_N 	N 	0.22425	0.97992	0.53511	0.084
Mof_N 	N 	0.30731	0.01684	0.52954	-0.357
Mof_N 	N 	0.64107	0.56187	0.45582	-0.227
Mof_N 	N 	0.72425	0.52008	0.46489	-0.024
Mof_N 	N 	0.80731	0.48316	0.47046	-0.206
Mof_N 	N 	0.04418	0.35893	0.06187	-0.209
Mof_N 	N 	0.03511	0.27575	0.02008	-0.166
Mof_N 	N 	0.02954	0.19269	0.98316	-0.074
Mof_N 	N 	0.95582	0.85893	0.43813	-0.036
Mof_N 	N 	0.96489	0.77575	0.47992	0.006
Mof_N 	N 	0.97046	0.69269	0.51684	-0.169
Mof_N 	N 	0.54418	0.14107	0.93813	-0.143
Mof_N 	N 	0.53511	0.22425	0.97992	0.084
Mof_N 	N 	0.52954	0.30731	0.01684	-0.357
Mof_N 	N 	0.45582	0.64107	0.56187	-0.227
Mof_N 	N 	0.46489	0.72425	0.52008	-0.024
Mof_N 	N 	0.47046	0.80731	0.48316	-0.206
Mof_N 	N 	0.93813	0.95582	0.64107	-0.04
Mof_N 	N 	0.97992	0.96489	0.72425	0.112
Mof_N 	N 	0.01684	0.97046	0.80731	-0.158
Mof_N 	N 	0.56187	0.04418	0.14107	-0.221
Mof_N 	N 	0.52008	0.03511	0.22425	-0.055
Mof_N 	N 	0.48316	0.02954	0.30731	-0.286
Mof_N 	N 	0.06187	0.45582	0.85893	-0.114
Mof_N 	N 	0.02008	0.46489	0.77575	-0.129
Mof_N 	N 	0.98316	0.47046	0.69269	-0.099
Mof_N 	N 	0.43813	0.54418	0.35893	-0.239
Mof_N 	N 	0.47992	0.53511	0.27575	-0.032
Mof_N 	N 	0.51684	0.52954	0.19269	-0.264
Mof_N 	N 	0.64107	0.93813	0.95582	-0.04
Mof_N 	N 	0.72425	0.97992	0.96489	0.112
Mof_N 	N 	0.80731	0.01684	0.97046	-0.158
Mof_N 	N 	0.14107	0.56187	0.04418	-0.221
Mof_N 	N 	0.22425	0.52008	0.03511	-0.055
Mof_N 	N 	0.30731	0.48316	0.02954	-0.286
Mof_N 	N 	0.85893	0.06187	0.45582	-0.114
Mof_N 	N 	0.77575	0.02008	0.46489	-0.129
Mof_N 	N 	0.69269	0.98316	0.47046	-0.099
Mof_N 	N 	0.35893	0.43813	0.54418	-0.239
Mof_N 	N 	0.27575	0.47992	0.53511	-0.032
Mof_N 	N 	0.19269	0.51684	0.52954	-0.264
Mof_N 	N 	0.95582	0.64107	0.93813	-0.04
Mof_N 	N 	0.96489	0.72425	0.97992	0.112
Mof_N 	N 	0.97046	0.80731	0.01684	-0.158
Mof_N 	N 	0.04418	0.14107	0.56187	-0.221
Mof_N 	N 	0.03511	0.22425	0.52008	-0.055
Mof_N 	N 	0.02954	0.30731	0.48316	-0.286
Mof_N 	N 	0.45582	0.85893	0.06187	-0.114
Mof_N 	N 	0.46489	0.77575	0.02008	-0.129
Mof_N 	N 	0.47046	0.69269	0.98316	-0.099
Mof_N 	N 	0.54418	0.35893	0.43813	-0.239
Mof_N 	N 	0.53511	0.27575	0.47992	-0.032
Mof_N 	N 	0.52954	0.19269	0.51684	-0.264
Mof_Cr	Cr	1.8747e-33	0	0.5	0.62
Mof_Cr	Cr	0.5	0	-0	0.62
Mof_Cr	Cr	-0	0.5	-0	0.62
Mof_Cr	Cr	0.5	0.5	0.5	1.381
Mof_Na	Na	-0	0	-0	0.723
Mof_Na	Na	0.5	0	0.5	1.725
Mof_Na	Na	1.8747e-33	0.5	0.5	1.725
Mof_Na	Na	0.5	0.5	-0	1.725
_end
