data_functionalizedCrystal
_audit_creation_method	'EQeq! by Chris Wilmer'
_symmetry_space_group_name_H-M	'P1'
_symmetry_Int_Tables_number	1
_symmetry_cell_setting	triclinic
loop_
_symmetry_equiv_pos_as_xyz
  x,y,z
_cell_length_a	7.2904
_cell_length_b	9.2414
_cell_length_c	14.014
_cell_angle_alpha	83.886
_cell_angle_beta	85.398
_cell_angle_gamma	72.647
loop_
_atom_site_label
_atom_site_type_symbol
_atom_site_fract_x
_atom_site_fract_y
_atom_site_fract_z
_atom_site_charge
Mof_Nd	Nd	0.49527	0.7131	0.90451	2.25
Mof_Nd	Nd	0.50473	0.2869	0.09549	2.25
Mof_Ni	Ni	0.5	0.5	0.5	1.084
Mof_H 	H 	0.2717	0.3252	0.4865	0.126
Mof_H 	H 	0.1636	0.4726	0.5022	0.107
Mof_H 	H 	0.7828	0.1163	0.7624	0.134
Mof_H 	H 	0.0079	0.5584	0.6432	0.073
Mof_H 	H 	0.3779	0.1427	0.6287	0.077
Mof_H 	H 	0.0807	0.2609	0.8769	0.03
Mof_H 	H 	0.8093	0.1693	0.5985	-0.017
Mof_H 	H 	0.7283	0.6748	0.5135	0.126
Mof_H 	H 	0.8364	0.5274	0.4978	0.107
Mof_H 	H 	0.2172	0.8837	0.2376	0.134
Mof_H 	H 	0.9921	0.4416	0.3568	0.073
Mof_H 	H 	0.6221	0.8573	0.3713	0.077
Mof_H 	H 	0.9193	0.7391	0.1231	0.03
Mof_H 	H 	0.1907	0.8307	0.4015	-0.017
Mof_C 	C 	0.8683	0.5408	0.8222	0.303
Mof_C 	C 	0.0223	0.4278	0.7688	-0.045
Mof_C 	C 	0.0685	0.463	0.6729	-0.098
Mof_C 	C 	0.2039	0.3576	0.6209	0.093
Mof_C 	C 	0.2901	0.2148	0.6641	-0.096
Mof_C 	C 	0.2463	0.178	0.7603	-0.044
Mof_C 	C 	0.1111	0.2852	0.8127	-0.014
Mof_C 	C 	0.3437	0.0235	0.8078	0.316
Mof_C 	C 	0.5556	0.3196	0.8815	0.363
Mof_C 	C 	0.6068	0.3307	0.7768	-0.008
Mof_C 	C 	0.549	0.4381	0.7009	-0.08
Mof_C 	C 	0.7366	0.2366	0.6417	0.137
Mof_C 	C 	0.4162	0.5963	0.6904	0.393
Mof_C 	C 	0.1317	0.4592	0.1778	0.303
Mof_C 	C 	0.9777	0.5722	0.2312	-0.045
Mof_C 	C 	0.9315	0.537	0.3271	-0.098
Mof_C 	C 	0.7961	0.6424	0.3791	0.093
Mof_C 	C 	0.7099	0.7852	0.3359	-0.096
Mof_C 	C 	0.7537	0.822	0.2397	-0.044
Mof_C 	C 	0.8889	0.7148	0.1873	-0.014
Mof_C 	C 	0.6563	0.9765	0.1922	0.316
Mof_C 	C 	0.4444	0.6804	0.1185	0.363
Mof_C 	C 	0.3932	0.6693	0.2232	-0.008
Mof_C 	C 	0.451	0.5619	0.2991	-0.08
Mof_C 	C 	0.2634	0.7634	0.3583	0.137
Mof_C 	C 	0.5838	0.4037	0.3096	0.393
Mof_N 	N 	0.2643	0.3987	0.5241	-0.345
Mof_N 	N 	0.7254	0.2041	0.7368	-0.203
Mof_N 	N 	0.6316	0.3757	0.6173	-0.228
Mof_N 	N 	0.7357	0.6013	0.4759	-0.345
Mof_N 	N 	0.2746	0.7959	0.2632	-0.203
Mof_N 	N 	0.3684	0.6243	0.3827	-0.228
Mof_O 	O 	0.7682	0.6583	0.7756	-0.434
Mof_O 	O 	0.8338	0.516	0.91	-0.46
Mof_O 	O 	0.4848	0.9369	0.7663	-0.396
Mof_O 	O 	0.2809	0.9833	0.8899	-0.478
Mof_O 	O 	0.4754	0.4387	0.9224	-0.611
Mof_O 	O 	0.5951	0.1905	0.9249	-0.476
Mof_O 	O 	0.3525	0.6687	0.7622	-0.495
Mof_O 	O 	0.3741	0.6459	0.605	-0.416
Mof_O 	O 	0.2318	0.3417	0.2244	-0.434
Mof_O 	O 	0.1662	0.484	0.09	-0.46
Mof_O 	O 	0.5152	0.0631	0.2337	-0.396
Mof_O 	O 	0.7191	0.0167	0.1101	-0.478
Mof_O 	O 	0.5246	0.5613	0.0776	-0.611
Mof_O 	O 	0.4049	0.8095	0.0751	-0.476
Mof_O 	O 	0.6475	0.3313	0.2378	-0.495
Mof_O 	O 	0.6259	0.3541	0.395	-0.416
_end
