# CIF file generated by openbabel 3.1.0, see https://openbabel.org
data_I
_chemical_name_common 'image0'
_cell_length_a 14.4939
_cell_length_b 10.2595
_cell_length_c 18.6782
_cell_angle_alpha 90
_cell_angle_beta 98.991
_cell_angle_gamma 90
_space_group_name_H-M_alt 'P 1'
_space_group_name_Hall 'P 1'
loop_
    _symmetry_equiv_pos_as_xyz
    x,y,z
loop_
    _atom_site_label
    _atom_site_type_symbol
    _atom_site_fract_x
    _atom_site_fract_y
    _atom_site_fract_z
    _atom_site_occupancy
    V1       V        0.15490    0.88400    0.08720    1.000
    V2       V        0.73700    0.55430    0.78060    1.000
    P1       P        0.21740    0.87640    0.92400    1.000
    P2       P        0.83520    0.83340    0.83160    1.000
    K1       K        0.34380    0.30590    0.04250    1.000
    O1       O        0.20860    0.92390    0.00010    1.000
    O2       O        0.75790    0.73100    0.82530    1.000
    O3       O        0.82050    0.92900    0.89200    1.000
    O4       O        0.21480    0.99770    0.87660    1.000
    O5       O        0.83830    0.90360    0.75990    1.000
    O6       O        0.30780    0.80010    0.92350    1.000
    O7       O        0.04450    0.87230    0.06740    1.000
    O8       O        0.18990    0.85100    0.19080    1.000
    C1       C        0.12040    0.77170    0.89140    1.000
    C2       C        0.94530    0.75270    0.85640    1.000
    C3       C        0.02840    0.84550    0.87530    1.000
    V3       V        0.65490    0.38400    0.08720    1.000
    V4       V        0.23700    0.05430    0.78060    1.000
    P3       P        0.71740    0.37640    0.92400    1.000
    P4       P        0.33520    0.33340    0.83160    1.000
    K2       K        0.84380    0.80590    0.04250    1.000
    O9       O        0.70860    0.42390    0.00010    1.000
    O10      O        0.25790    0.23100    0.82530    1.000
    O11      O        0.32050    0.42900    0.89200    1.000
    O12      O        0.71480    0.49770    0.87660    1.000
    O13      O        0.33830    0.40360    0.75990    1.000
    O14      O        0.80780    0.30010    0.92350    1.000
    O15      O        0.54450    0.37230    0.06740    1.000
    O16      O        0.68990    0.35100    0.19080    1.000
    C4       C        0.62040    0.27170    0.89140    1.000
    C5       C        0.44530    0.25270    0.85640    1.000
    C6       C        0.52840    0.34550    0.87530    1.000
    V5       V        0.84510    0.88400    0.41280    1.000
    V6       V        0.26300    0.55430    0.71940    1.000
    P5       P        0.78260    0.87640    0.57600    1.000
    P6       P        0.16480    0.83340    0.66840    1.000
    K3       K        0.65620    0.30590    0.45750    1.000
    O17      O        0.79140    0.92390    0.49990    1.000
    O18      O        0.24210    0.73100    0.67470    1.000
    O19      O        0.17950    0.92900    0.60800    1.000
    O20      O        0.78520    0.99770    0.62340    1.000
    O21      O        0.16170    0.90360    0.74010    1.000
    O22      O        0.69220    0.80010    0.57650    1.000
    O23      O        0.95550    0.87230    0.43260    1.000
    O24      O        0.81010    0.85100    0.30920    1.000
    C7       C        0.87960    0.77170    0.60860    1.000
    C8       C        0.05470    0.75270    0.64360    1.000
    C9       C        0.97160    0.84550    0.62470    1.000
    V7       V        0.34510    0.38400    0.41280    1.000
    V8       V        0.76300    0.05430    0.71940    1.000
    P7       P        0.28260    0.37640    0.57600    1.000
    P8       P        0.66480    0.33340    0.66840    1.000
    K4       K        0.15620    0.80590    0.45750    1.000
    O25      O        0.29140    0.42390    0.49990    1.000
    O26      O        0.74210    0.23100    0.67470    1.000
    O27      O        0.67950    0.42900    0.60800    1.000
    O28      O        0.28520    0.49770    0.62340    1.000
    O29      O        0.66170    0.40360    0.74010    1.000
    O30      O        0.19220    0.30010    0.57650    1.000
    O31      O        0.45550    0.37230    0.43260    1.000
    O32      O        0.31010    0.35100    0.30920    1.000
    C10      C        0.37960    0.27170    0.60860    1.000
    C11      C        0.55470    0.25270    0.64360    1.000
    C12      C        0.47160    0.34550    0.62470    1.000
    V9       V        0.84510    0.11600    0.91280    1.000
    V10      V        0.26300    0.44570    0.21940    1.000
    P9       P        0.78260    0.12360    0.07600    1.000
    P10      P        0.16480    0.16660    0.16840    1.000
    K5       K        0.65620    0.69410    0.95750    1.000
    O33      O        0.79140    0.07610    0.99990    1.000
    O34      O        0.24210    0.26900    0.17470    1.000
    O35      O        0.17950    0.07100    0.10800    1.000
    O36      O        0.78520    0.00230    0.12340    1.000
    O37      O        0.16170    0.09640    0.24010    1.000
    O38      O        0.69220    0.19990    0.07650    1.000
    O39      O        0.95550    0.12770    0.93260    1.000
    O40      O        0.81010    0.14900    0.80920    1.000
    C13      C        0.87960    0.22830    0.10860    1.000
    C14      C        0.05470    0.24730    0.14360    1.000
    C15      C        0.97160    0.15450    0.12470    1.000
    V11      V        0.34510    0.61600    0.91280    1.000
    V12      V        0.76300    0.94570    0.21940    1.000
    P11      P        0.28260    0.62360    0.07600    1.000
    P12      P        0.66480    0.66660    0.16840    1.000
    K6       K        0.15620    0.19410    0.95750    1.000
    O41      O        0.29140    0.57610    0.99990    1.000
    O42      O        0.74210    0.76900    0.17470    1.000
    O43      O        0.67950    0.57100    0.10800    1.000
    O44      O        0.28520    0.50230    0.12340    1.000
    O45      O        0.66170    0.59640    0.24010    1.000
    O46      O        0.19220    0.69990    0.07650    1.000
    O47      O        0.45550    0.62770    0.93260    1.000
    O48      O        0.31010    0.64900    0.80920    1.000
    C16      C        0.37960    0.72830    0.10860    1.000
    C17      C        0.55470    0.74730    0.14360    1.000
    C18      C        0.47160    0.65450    0.12470    1.000
    V13      V        0.15490    0.11600    0.58720    1.000
    V14      V        0.73700    0.44570    0.28060    1.000
    P13      P        0.21740    0.12360    0.42400    1.000
    P14      P        0.83520    0.16660    0.33160    1.000
    K7       K        0.34380    0.69410    0.54250    1.000
    O49      O        0.20860    0.07610    0.50010    1.000
    O50      O        0.75790    0.26900    0.32530    1.000
    O51      O        0.82050    0.07100    0.39200    1.000
    O52      O        0.21480    0.00230    0.37660    1.000
    O53      O        0.83830    0.09640    0.25990    1.000
    O54      O        0.30780    0.19990    0.42350    1.000
    O55      O        0.04450    0.12770    0.56740    1.000
    O56      O        0.18990    0.14900    0.69080    1.000
    C19      C        0.12040    0.22830    0.39140    1.000
    C20      C        0.94530    0.24730    0.35640    1.000
    C21      C        0.02840    0.15450    0.37530    1.000
    V15      V        0.65490    0.61600    0.58720    1.000
    V16      V        0.23700    0.94570    0.28060    1.000
    P15      P        0.71740    0.62360    0.42400    1.000
    P16      P        0.33520    0.66660    0.33160    1.000
    K8       K        0.84380    0.19410    0.54250    1.000
    O57      O        0.70860    0.57610    0.50010    1.000
    O58      O        0.25790    0.76900    0.32530    1.000
    O59      O        0.32050    0.57100    0.39200    1.000
    O60      O        0.71480    0.50230    0.37660    1.000
    O61      O        0.33830    0.59640    0.25990    1.000
    O62      O        0.80780    0.69990    0.42350    1.000
    O63      O        0.54450    0.62770    0.56740    1.000
    O64      O        0.68990    0.64900    0.69080    1.000
    C22      C        0.62040    0.72830    0.39140    1.000
    C23      C        0.44530    0.74730    0.35640    1.000
    C24      C        0.52840    0.65450    0.37530    1.000
