data_functionalizedCrystal
_audit_creation_method	'EQeq! by Chris Wilmer'
_symmetry_space_group_name_H-M	'P1'
_symmetry_Int_Tables_number	1
_symmetry_cell_setting	triclinic
loop_
_symmetry_equiv_pos_as_xyz
  x,y,z
_cell_length_a	103.768
_cell_length_b	97.9187
_cell_length_c	133.967
_cell_angle_alpha	108.155
_cell_angle_beta	109.251
_cell_angle_gamma	62.074
loop_
_atom_site_label
_atom_site_type_symbol
_atom_site_fract_x
_atom_site_fract_y
_atom_site_fract_z
_atom_site_charge
Mof_C 	C 	0.98052	0.97252	0.46177	0.314
Mof_C 	C 	0.37862	0.47035	0.59739	-0.046
Mof_C 	C 	0.25285	0.1631	0.02448	-0.048
Mof_C 	C 	0.55943	0.09918	0.05939	-0.043
Mof_C 	C 	0.92656	0.96386	0.12735	-0.033
Mof_C 	C 	0.13738	0.80313	0.47876	-0.018
Mof_C 	C 	0.55133	0.10934	0.05205	-0.041
Mof_C 	C 	0.55035	0.10371	0.04107	0.015
Mof_C 	C 	0.55769	0.08764	0.03765	-0.041
Mof_C 	C 	0.56579	0.07749	0.04499	-0.043
Mof_C 	C 	0.56677	0.08312	0.05596	0.018
Mof_C 	C 	0.59884	0.03676	0.07447	-0.043
Mof_C 	C 	0.60695	0.02659	0.08181	-0.042
Mof_C 	C 	0.23794	0.16895	0.025	0.021
Mof_C 	C 	0.60748	0.03212	0.09274	0.016
Mof_C 	C 	0.59968	0.0481	0.09615	-0.042
Mof_C 	C 	0.59157	0.05827	0.08881	-0.043
Mof_C 	C 	0.21111	0.64823	0.475	-0.02
Mof_C 	C 	0.59103	0.05274	0.07788	0.018
Mof_C 	C 	0.54185	0.1144	0.03332	-0.013
Mof_C 	C 	0.53482	0.12325	0.02681	-0.029
Mof_C 	C 	0.61601	0.0214	0.10048	-0.015
Mof_C 	C 	0.62309	0.01251	0.10697	-0.025
Mof_C 	C 	0.53189	0.13114	0.01002	-0.075
Mof_C 	C 	0.78679	0.8585	0.27692	-0.019
Mof_C 	C 	0.52401	0.14091	0.00243	0.022
Mof_C 	C 	0.51044	0.15363	0.00351	-0.094
Mof_C 	C 	0.50507	0.15626	0.01247	0.021
Mof_C 	C 	0.51299	0.14644	0.02006	-0.075
Mof_C 	C 	0.2094	0.63642	0.47475	-0.017
Mof_C 	C 	0.52649	0.13373	0.01892	0.045
Mof_C 	C 	0.64503	0.98934	0.11365	-0.068
Mof_C 	C 	0.6533	0.97905	0.12173	0.013
Mof_C 	C 	0.64779	0.98171	0.13065	-0.089
Mof_C 	C 	0.63413	0.99438	0.13172	0.016
Mof_C 	C 	0.22737	0.17288	0.01562	-0.047
Mof_C 	C 	0.62603	0.00431	0.12422	-0.067
Mof_C 	C 	0.63152	0.00193	0.1148	0.036
Mof_C 	C 	0.08385	0.56306	0.56337	-0.018
Mof_C 	C 	0.07541	0.56931	0.56979	-0.018
Mof_C 	C 	0.09626	0.56438	0.55048	-0.042
Mof_C 	C 	0.32593	0.72058	0.47849	-0.041
Mof_C 	C 	0.10581	0.5573	0.5432	-0.04
Mof_C 	C 	0.1136	0.54103	0.54072	0.016
Mof_C 	C 	0.11137	0.53218	0.54586	-0.04
Mof_C 	C 	0.10182	0.53925	0.55313	-0.042
Mof_C 	C 	0.23147	0.17088	0.00611	-0.032
Mof_C 	C 	0.09403	0.55552	0.55562	0.018
Mof_C 	C 	0.06352	0.56805	0.58305	-0.042
Mof_C 	C 	0.05397	0.57512	0.59032	-0.04
Mof_C 	C 	0.04565	0.59134	0.59244	0.016
Mof_C 	C 	0.04736	0.60014	0.58693	-0.04
Mof_C 	C 	0.05691	0.59307	0.57966	-0.042
Mof_C 	C 	0.34039	0.71838	0.47844	-0.04
Mof_C 	C 	0.06523	0.57685	0.57754	0.018
Mof_C 	C 	0.12378	0.53348	0.53296	-0.014
Mof_C 	C 	0.13221	0.52722	0.52654	-0.025
Mof_C 	C 	0.24639	0.16479	0.00544	-0.004
Mof_C 	C 	0.03547	0.59888	0.60019	-0.014
Mof_C 	C 	0.02703	0.60515	0.60662	-0.024
Mof_C 	C 	0.15497	0.50554	0.51981	-0.07
Mof_C 	C 	0.16443	0.49832	0.51247	0.014
Mof_C 	C 	0.1618	0.50484	0.50371	-0.084
Mof_C 	C 	0.14921	0.51901	0.50272	0.014
Mof_C 	C 	0.13976	0.52621	0.51007	-0.069
Mof_C 	C 	0.35176	0.70346	0.47636	0.015
Mof_C 	C 	0.14238	0.51964	0.51877	0.039
Mof_C 	C 	0.00421	0.62678	0.61325	-0.064
Mof_C 	C 	0.28639	0.17293	0.99163	-0.032
Mof_C 	C 	0.9941	0.63452	0.62095	0.007
Mof_C 	C 	0.9968	0.62796	0.62968	-0.079
Mof_C 	C 	0.01024	0.61305	0.63053	0.007
Mof_C 	C 	0.01958	0.60611	0.6231	-0.065
Mof_C 	C 	0.01685	0.61273	0.61437	0.035
Mof_C 	C 	0.15274	0.61702	0.74289	-0.017
Mof_C 	C 	0.13965	0.61988	0.73742	-0.017
Mof_C 	C 	0.18089	0.60729	0.7448	-0.041
Mof_C 	C 	0.34782	0.69086	0.47433	-0.04
Mof_C 	C 	0.19566	0.60406	0.75096	-0.04
Mof_C 	C 	0.29886	0.17471	0.99107	-0.047
Mof_C 	C 	0.19908	0.60689	0.76222	0.015
Mof_C 	C 	0.18679	0.61316	0.76693	-0.04
Mof_C 	C 	0.17201	0.6164	0.76077	-0.041
Mof_C 	C 	0.16859	0.61356	0.7495	0.017
Mof_C 	C 	0.11147	0.62975	0.7355	-0.041
Mof_C 	C 	0.0967	0.63297	0.72933	-0.041
Mof_C 	C 	0.09332	0.62996	0.71806	0.015
Mof_C 	C 	0.10564	0.62354	0.71336	-0.041
Mof_C 	C 	0.12041	0.62033	0.71953	-0.041
Mof_C 	C 	0.33336	0.69305	0.47438	-0.041
Mof_C 	C 	0.30624	0.16644	0.98263	0.021
Mof_C 	C 	0.12379	0.62333	0.7308	0.017
Mof_C 	C 	0.21494	0.60339	0.76883	-0.014
Mof_C 	C 	0.22806	0.60044	0.77427	-0.023
Mof_C 	C 	0.07747	0.63339	0.71143	-0.015
Mof_C 	C 	0.0644	0.63619	0.70595	-0.022
Mof_C 	C 	0.24805	0.60751	0.78941	-0.066
Mof_C 	C 	0.26294	0.60394	0.79547	0.009
Mof_C 	C 	0.27472	0.58933	0.79328	-0.077
Mof_C 	C 	0.2706	0.57859	0.78464	0.01
Mof_C 	C 	0.25574	0.58218	0.77861	-0.066
Mof_C 	C 	0.3005	0.15629	0.97476	-0.047
Mof_C 	C 	0.32199	0.70798	0.47646	0.017
Mof_C 	C 	0.24399	0.59673	0.78079	0.035
Mof_C 	C 	0.04482	0.62787	0.69141	-0.06
Mof_C 	C 	0.03014	0.63088	0.68512	-0.002
Mof_C 	C 	0.01825	0.64571	0.68628	-0.053
Mof_C 	C 	0.02203	0.65735	0.69417	-0.002
Mof_C 	C 	0.03674	0.65431	0.70046	-0.06
Mof_C 	C 	0.04859	0.63948	0.69926	0.031
Mof_C 	C 	0.53068	0.9961	0.88683	-0.019
Mof_C 	C 	0.52592	0.01186	0.89345	-0.019
Mof_C 	C 	0.39004	0.47167	0.6067	-0.033
Mof_C 	C 	0.28803	0.15451	0.97528	-0.032
Mof_C 	C 	0.54255	0.96664	0.88461	-0.042
Mof_C 	C 	0.19316	0.62282	0.47319	-0.042
Mof_C 	C 	0.54712	0.95152	0.87826	-0.04
Mof_C 	C 	0.54485	0.94925	0.86714	0.016
Mof_C 	C 	0.53783	0.96267	0.86262	-0.04
Mof_C 	C 	0.53326	0.97779	0.86897	-0.042
Mof_C 	C 	0.53553	0.98007	0.88009	0.019
Mof_C 	C 	0.51267	0.04129	0.89564	-0.042
Mof_C 	C 	0.50816	0.0564	0.90201	-0.04
Mof_C 	C 	0.51189	0.05868	0.9132	0.016
Mof_C 	C 	0.28053	0.16278	0.98374	-0.004
Mof_C 	C 	0.52031	0.04527	0.91776	-0.04
Mof_C 	C 	0.52483	0.03016	0.91138	-0.042
Mof_C 	C 	0.00931	0.92576	0.48185	0.265
Mof_C 	C 	0.93069	0.96183	0.11785	-0.047
Mof_C 	C 	0.19114	0.60947	0.47287	-0.041
Mof_C 	C 	0.5211	0.02788	0.9002	0.019
Mof_C 	C 	0.5497	0.93321	0.86041	-0.013
Mof_C 	C 	0.55371	0.91989	0.85481	-0.026
Mof_C 	C 	0.50722	0.07468	0.91998	-0.013
Mof_C 	C 	0.5035	0.08794	0.92569	-0.026
Mof_C 	C 	0.23335	0.17093	0.035	-0.019
Mof_C 	C 	0.57296	0.89248	0.85044	-0.072
Mof_C 	C 	0.57746	0.87732	0.84414	0.017
Mof_C 	C 	0.56766	0.8729	0.83519	-0.087
Mof_C 	C 	0.55319	0.88435	0.83283	0.017
Mof_C 	C 	0.54873	0.89951	0.83914	-0.072
Mof_C 	C 	0.20314	0.59494	0.47378	0.016
Mof_C 	C 	0.55851	0.90386	0.84808	0.041
Mof_C 	C 	0.51005	0.10773	0.94092	-0.072
Mof_C 	C 	0.50637	0.12252	0.94766	0.018
Mof_C 	C 	0.4918	0.13409	0.9465	-0.089
Mof_C 	C 	0.91353	0.97984	0.15839	0.031
Mof_C 	C 	0.48105	0.13016	0.93823	0.017
Mof_C 	C 	0.48478	0.11528	0.93146	-0.072
Mof_C 	C 	0.49936	0.10378	0.9327	0.041
Mof_C 	C 	0.13643	0.12176	0.74301	-0.018
Mof_C 	C 	0.14117	0.12481	0.73719	-0.018
Mof_C 	C 	0.11772	0.11571	0.74609	-0.043
Mof_C 	C 	0.21724	0.59434	0.47502	-0.04
Mof_C 	C 	0.1123	0.11219	0.75271	-0.04
Mof_C 	C 	0.11984	0.11107	0.76326	0.016
Mof_C 	C 	0.13285	0.11351	0.76711	-0.04
Mof_C 	C 	0.77914	0.86415	0.26861	-0.017
Mof_C 	C 	0.13826	0.11703	0.7605	-0.043
Mof_C 	C 	0.13073	0.11813	0.74994	0.02
Mof_C 	C 	0.15988	0.13061	0.73383	-0.043
Mof_C 	C 	0.16507	0.13422	0.72711	-0.04
Mof_C 	C 	0.15716	0.1357	0.71666	0.016
Mof_C 	C 	0.14403	0.13352	0.71302	-0.04
Mof_C 	C 	0.13884	0.12992	0.71973	-0.043
Mof_C 	C 	0.21926	0.6077	0.47534	-0.042
Mof_C 	C 	0.14671	0.12846	0.73018	0.02
Mof_C 	C 	0.11433	0.10723	0.7702	-0.011
Mof_C 	C 	0.22928	0.17263	0.0432	-0.017
Mof_C 	C 	0.10998	0.10391	0.77612	-0.029
Mof_C 	C 	0.16231	0.13973	0.7096	-0.011
Mof_C 	C 	0.16608	0.14327	0.70343	-0.03
Mof_C 	C 	0.11517	0.09472	0.79261	-0.079
Mof_C 	C 	0.11097	0.0904	0.79953	0.026
Mof_C 	C 	0.09669	0.09104	0.79733	-0.099
Mof_C 	C 	0.08666	0.09624	0.78808	0.025
Mof_C 	C 	0.09094	0.10056	0.78116	-0.078
Mof_C 	C 	0.20726	0.62223	0.47443	0.018
Mof_C 	C 	0.10524	0.09976	0.78337	0.049
Mof_C 	C 	0.20303	0.13726	0.93665	-0.019
Mof_C 	C 	0.18419	0.14511	0.69616	-0.079
Mof_C 	C 	0.18729	0.14935	0.68851	0.026
Mof_C 	C 	0.17589	0.15627	0.68029	-0.101
Mof_C 	C 	0.16141	0.15894	0.67997	0.027
Mof_C 	C 	0.15838	0.15473	0.68759	-0.08
Mof_C 	C 	0.1697	0.14776	0.6957	0.049
Mof_C 	C 	0.52024	0.51206	0.89605	-0.017
Mof_C 	C 	0.5071	0.51629	0.89045	-0.017
Mof_C 	C 	0.54868	0.50119	0.89846	-0.041
Mof_C 	C 	0.12111	0.83255	0.48119	-0.041
Mof_C 	C 	0.19408	0.13349	0.92883	-0.017
Mof_C 	C 	0.56349	0.49642	0.90478	-0.04
Mof_C 	C 	0.56675	0.49707	0.91588	0.015
Mof_C 	C 	0.55422	0.50281	0.92025	-0.04
Mof_C 	C 	0.53941	0.50759	0.91394	-0.041
Mof_C 	C 	0.53615	0.50693	0.90283	0.017
Mof_C 	C 	0.47868	0.52701	0.88803	-0.041
Mof_C 	C 	0.46386	0.53177	0.88172	-0.04
Mof_C 	C 	0.46058	0.53126	0.87064	0.015
Mof_C 	C 	0.47309	0.52567	0.86628	-0.04
Mof_C 	C 	0.4879	0.5209	0.87259	-0.041
Mof_C 	C 	0.31954	0.16836	0.98203	-0.019
Mof_C 	C 	0.10721	0.84557	0.48152	-0.04
Mof_C 	C 	0.49119	0.52141	0.88367	0.017
Mof_C 	C 	0.58266	0.49192	0.92268	-0.014
Mof_C 	C 	0.59576	0.48765	0.92832	-0.023
Mof_C 	C 	0.44466	0.53639	0.86386	-0.014
Mof_C 	C 	0.43152	0.54061	0.85827	-0.023
Mof_C 	C 	0.62288	0.48525	0.93387	-0.065
Mof_C 	C 	0.63756	0.48042	0.94043	0.008
Mof_C 	C 	0.6419	0.47237	0.9488	-0.076
Mof_C 	C 	0.63057	0.46951	0.95011	0.009
Mof_C 	C 	0.33054	0.16994	0.98152	-0.017
Mof_C 	C 	0.61595	0.47434	0.94356	-0.066
Mof_C 	C 	0.09399	0.84384	0.47982	0.015
Mof_C 	C 	0.61159	0.4824	0.93524	0.034
Mof_C 	C 	0.40435	0.54383	0.85377	-0.065
Mof_C 	C 	0.38952	0.54859	0.84751	0.008
Mof_C 	C 	0.38491	0.55558	0.83854	-0.076
Mof_C 	C 	0.39619	0.55747	0.83629	0.008
Mof_C 	C 	0.41103	0.55269	0.84256	-0.066
Mof_C 	C 	0.41559	0.54572	0.85151	0.034
Mof_C 	C 	0.58327	0.56161	0.56994	-0.018
Mof_C 	C 	0.38697	0.48149	0.6166	-0.002
Mof_C 	C 	0.21021	0.17548	0.05234	-0.042
Mof_C 	C 	0.57532	0.57085	0.56373	-0.018
Mof_C 	C 	0.59276	0.55504	0.58829	-0.042
Mof_C 	C 	0.09543	0.82837	0.47778	-0.04
Mof_C 	C 	0.60179	0.54453	0.59535	-0.04
Mof_C 	C 	0.61114	0.52918	0.59173	0.016
Mof_C 	C 	0.6112	0.52465	0.58084	-0.041
Mof_C 	C 	0.60217	0.53516	0.57378	-0.042
Mof_C 	C 	0.59281	0.55051	0.5774	0.019
Mof_C 	C 	0.56616	0.57757	0.54544	-0.042
Mof_C 	C 	0.55714	0.58808	0.53838	-0.04
Mof_C 	C 	0.20539	0.17748	0.06155	-0.041
Mof_C 	C 	0.54746	0.60329	0.54195	0.016
Mof_C 	C 	0.54707	0.60766	0.55278	-0.04
Mof_C 	C 	0.55609	0.59715	0.55984	-0.042
Mof_C 	C 	0.10933	0.81534	0.47745	-0.041
Mof_C 	C 	0.56578	0.58194	0.55627	0.019
Mof_C 	C 	0.62063	0.51807	0.59918	-0.013
Mof_C 	C 	0.6285	0.50881	0.60539	-0.027
Mof_C 	C 	0.53798	0.61441	0.5345	-0.013
Mof_C 	C 	0.53014	0.6237	0.52831	-0.027
Mof_C 	C 	0.63566	0.48432	0.61173	-0.074
Mof_C 	C 	0.21436	0.1788	0.07184	0.016
Mof_C 	C 	0.64428	0.47393	0.6189	0.02
Mof_C 	C 	0.65544	0.47653	0.62744	-0.092
Mof_C 	C 	0.65771	0.48988	0.62848	0.02
Mof_C 	C 	0.64906	0.50026	0.62129	-0.074
Mof_C 	C 	0.92015	0.9658	0.10847	0.022
Mof_C 	C 	0.12255	0.81708	0.47914	0.017
Mof_C 	C 	0.63786	0.49768	0.61284	0.044
Mof_C 	C 	0.50957	0.6324	0.51243	-0.074
Mof_C 	C 	0.50098	0.64285	0.50527	0.02
Mof_C 	C 	0.50336	0.65614	0.50636	-0.092
Mof_C 	C 	0.22836	0.17803	0.07251	-0.04
Mof_C 	C 	0.51457	0.65863	0.5149	0.02
Mof_C 	C 	0.52313	0.64818	0.52204	-0.074
Mof_C 	C 	0.52083	0.63487	0.52088	0.044
Mof_C 	C 	0.07632	0.06307	0.0639	-0.017
Mof_C 	C 	0.08364	0.07106	0.06961	-0.017
Mof_C 	C 	0.07089	0.04311	0.04739	-0.041
Mof_C 	C 	0.36722	0.70112	0.47629	-0.014
Mof_C 	C 	0.06262	0.03409	0.04095	-0.041
Mof_C 	C 	0.05042	0.0348	0.04371	0.016
Mof_C 	C 	0.04699	0.04509	0.05332	-0.041
Mof_C 	C 	0.23318	0.17604	0.0633	-0.042
Mof_C 	C 	0.05526	0.05411	0.05977	-0.041
Mof_C 	C 	0.06746	0.0534	0.057	0.017
Mof_C 	C 	0.08895	0.09119	0.08605	-0.041
Mof_C 	C 	0.09721	0.1002	0.09249	-0.04
Mof_C 	C 	0.10953	0.09934	0.0898	0.015
Mof_C 	C 	0.11308	0.0889	0.08026	-0.04
Mof_C 	C 	0.10482	0.07988	0.07382	-0.041
Mof_C 	C 	0.37998	0.69928	0.47623	-0.024
Mof_C 	C 	0.0925	0.08074	0.07651	0.017
Mof_C 	C 	0.04154	0.02516	0.03679	-0.016
Mof_C 	C 	0.83161	0.74631	0.32384	-0.019
Mof_C 	C 	0.03418	0.01722	0.03105	-0.02
Mof_C 	C 	0.11841	0.10899	0.09672	-0.014
Mof_C 	C 	0.12575	0.11695	0.10245	-0.024
Mof_C 	C 	0.02801	0.99226	0.02584	-0.055
Mof_C 	C 	0.01963	0.98341	0.01925	-0.004
Mof_C 	C 	0.00795	0.98861	0.0105	-0.052
Mof_C 	C 	0.00514	0.00409	0.00874	-0.006
Mof_C 	C 	0.01353	0.01291	0.01532	-0.057
Mof_C 	C 	0.07914	0.85777	0.48016	-0.014
Mof_C 	C 	0.0252	0.00771	0.02405	0.025
Mof_C 	C 	0.22421	0.17472	0.05301	0.017
Mof_C 	C 	0.14632	0.12138	0.11821	-0.067
Mof_C 	C 	0.1546	0.13029	0.12481	0.011
Mof_C 	C 	0.15183	0.1449	0.12307	-0.079
Mof_C 	C 	0.1402	0.15001	0.11427	0.01
Mof_C 	C 	0.13191	0.14108	0.10766	-0.067
Mof_C 	C 	0.13469	0.1265	0.10944	0.036
Mof_C 	C 	0.0286	0.00635	0.90202	-0.016
Mof_C 	C 	0.03279	0.01075	0.89661	-0.019
Mof_C 	C 	0.01776	0.01139	0.91728	-0.042
Mof_C 	C 	0.06689	0.86935	0.48044	-0.024
Mof_C 	C 	0.3476	0.16891	0.97111	-0.041
Mof_C 	C 	0.01297	0.00648	0.92352	-0.039
Mof_C 	C 	0.014	0.9904	0.92096	0.015
Mof_C 	C 	0.01983	0.98017	0.91221	-0.041
Mof_C 	C 	0.02461	0.98509	0.90597	-0.04
Mof_C 	C 	0.02358	0.00117	0.90853	0.017
Mof_C 	C 	0.04328	0.00608	0.88123	-0.043
Mof_C 	C 	0.04803	0.01117	0.87508	-0.04
Mof_C 	C 	0.04733	0.0263	0.87777	0.016
Mof_C 	C 	0.04182	0.03627	0.8867	-0.04
Mof_C 	C 	0.03707	0.03118	0.89286	-0.043
Mof_C 	C 	0.36004	0.1707	0.97052	-0.04
Mof_C 	C 	0.20103	0.58072	0.47343	-0.013
Mof_C 	C 	0.03777	0.01606	0.89016	0.021
Mof_C 	C 	0.00904	0.98528	0.92754	-0.012
Mof_C 	C 	0.00488	0.98112	0.93313	-0.026
Mof_C 	C 	0.05226	0.03164	0.87131	-0.012
Mof_C 	C 	0.05637	0.03611	0.86589	-0.029
Mof_C 	C 	0.0031	0.95997	0.93906	-0.068
Mof_C 	C 	0.99838	0.95585	0.94647	0.016
Mof_C 	C 	0.9909	0.96755	0.95411	-0.095
Mof_C 	C 	0.98785	0.98314	0.95451	0.021
Mof_C 	C 	0.36938	0.17552	0.97967	0.015
Mof_C 	C 	0.99224	0.98744	0.94763	-0.073
Mof_C 	C 	0.19939	0.56885	0.47315	-0.025
Mof_C 	C 	0.99991	0.9764	0.93994	0.04
Mof_C 	C 	0.06755	0.03118	0.85084	-0.078
Mof_C 	C 	0.07204	0.03627	0.84453	0.024
Mof_C 	C 	0.07029	0.05178	0.84664	-0.097
Mof_C 	C 	0.06401	0.06202	0.85526	0.024
Mof_C 	C 	0.05953	0.05687	0.86155	-0.078
Mof_C 	C 	0.06123	0.04144	0.85937	0.048
Mof_C 	C 	0.63562	0.61999	0.73541	-0.018
Mof_C 	C 	0.44972	0.48576	0.64656	-0.033
Mof_C 	C 	0.36561	0.17844	0.98945	-0.04
Mof_C 	C 	0.63199	0.63353	0.74086	-0.018
Mof_C 	C 	0.63984	0.59144	0.73193	-0.042
Mof_C 	C 	0.39792	0.70972	0.47557	-0.067
Mof_C 	C 	0.64396	0.57611	0.72574	-0.04
Mof_C 	C 	0.64845	0.57228	0.71614	0.015
Mof_C 	C 	0.64862	0.58451	0.71303	-0.04
Mof_C 	C 	0.6445	0.59984	0.71922	-0.042
Mof_C 	C 	0.64001	0.60367	0.72882	0.018
Mof_C 	C 	0.62752	0.66213	0.74419	-0.042
Mof_C 	C 	0.62341	0.67747	0.75037	-0.04
Mof_C 	C 	0.35317	0.17666	0.99004	-0.041
Mof_C 	C 	0.61921	0.68128	0.76008	0.016
Mof_C 	C 	0.6193	0.66901	0.76333	-0.04
Mof_C 	C 	0.62341	0.65367	0.75715	-0.042
Mof_C 	C 	0.41218	0.70803	0.47553	0.011
Mof_C 	C 	0.62762	0.64987	0.74744	0.018
Mof_C 	C 	0.65287	0.55597	0.70954	-0.014
Mof_C 	C 	0.65656	0.54248	0.70401	-0.025
Mof_C 	C 	0.61484	0.69761	0.76665	-0.014
Mof_C 	C 	0.61122	0.71117	0.77208	-0.025
Mof_C 	C 	0.66871	0.52211	0.68918	-0.069
Mof_C 	C 	0.34383	0.17185	0.98089	0.017
Mof_C 	C 	0.67292	0.50705	0.68267	0.014
Mof_C 	C 	0.66977	0.49532	0.68386	-0.083
Mof_C 	C 	0.6622	0.49948	0.69197	0.013
Mof_C 	C 	0.65798	0.51462	0.69849	-0.069
Mof_C 	C 	0.4248	0.69375	0.47607	-0.08
Mof_C 	C 	0.66111	0.52629	0.69722	0.039
Mof_C 	C 	0.60883	0.73913	0.77611	-0.069
Mof_C 	C 	0.60475	0.75452	0.78219	0.013
Mof_C 	C 	0.5985	0.7591	0.7911	-0.081
Mof_C 	C 	0.59656	0.74745	0.79359	0.013
Mof_C 	C 	0.1722	0.12585	0.92083	-0.042
Mof_C 	C 	0.60065	0.73205	0.78749	-0.069
Mof_C 	C 	0.60688	0.72753	0.7786	0.038
Mof_C 	C 	0.13091	0.12985	0.23263	-0.018
Mof_C 	C 	0.12677	0.12547	0.23809	-0.018
Mof_C 	C 	0.128	0.14996	0.22371	-0.043
Mof_C 	C 	0.90522	0.9717	0.10897	-0.047
Mof_C 	C 	0.42223	0.68124	0.47665	0.011
Mof_C 	C 	0.13273	0.15483	0.21741	-0.04
Mof_C 	C 	0.14544	0.14481	0.21341	0.016
Mof_C 	C 	0.15334	0.12987	0.21582	-0.04
Mof_C 	C 	0.16192	0.12169	0.91202	-0.04
Mof_C 	C 	0.14861	0.12501	0.22212	-0.043
Mof_C 	C 	0.1359	0.13501	0.2261	0.02
Mof_C 	C 	0.12922	0.10486	0.2463	-0.043
Mof_C 	C 	0.12453	0.09981	0.25251	-0.04
Mof_C 	C 	0.1124	0.11001	0.25711	0.016
Mof_C 	C 	0.10502	0.12534	0.25541	-0.04
Mof_C 	C 	0.10971	0.1304	0.2492	-0.043
Mof_C 	C 	0.40791	0.68296	0.47669	-0.067
Mof_C 	C 	0.12184	0.12019	0.2446	0.02
Mof_C 	C 	0.15031	0.14977	0.20668	-0.012
Mof_C 	C 	0.16219	0.12053	0.90147	0.016
Mof_C 	C 	0.15444	0.15368	0.20093	-0.029
Mof_C 	C 	0.1075	0.10471	0.26363	-0.012
Mof_C 	C 	0.10345	0.10026	0.26909	-0.029
Mof_C 	C 	0.16716	0.14646	0.18637	-0.078
Mof_C 	C 	0.17159	0.15036	0.17934	0.025
Mof_C 	C 	0.16838	0.16592	0.17969	-0.097
Mof_C 	C 	0.1608	0.17746	0.18734	0.024
Mof_C 	C 	0.15636	0.17349	0.19437	-0.078
Mof_C 	C 	0.39534	0.69727	0.47616	0.036
Mof_C 	C 	0.15943	0.15797	0.19387	0.048
Mof_C 	C 	0.83131	0.73343	0.32323	-0.017
Mof_C 	C 	0.09233	0.10513	0.28417	-0.078
Mof_C 	C 	0.0879	0.09999	0.2905	0.024
Mof_C 	C 	0.08971	0.08446	0.28839	-0.097
Mof_C 	C 	0.096	0.07425	0.27977	0.024
Mof_C 	C 	0.10041	0.07945	0.27346	-0.078
Mof_C 	C 	0.09865	0.0949	0.27563	0.048
Mof_C 	C 	0.57502	0.57074	0.06981	-0.018
Mof_C 	C 	0.58341	0.56238	0.06352	-0.018
Mof_C 	C 	0.56513	0.59512	0.08343	-0.042
Mof_C 	C 	0.03934	0.88267	0.48131	-0.065
Mof_C 	C 	0.1732	0.1237	0.9001	-0.04
Mof_C 	C 	0.5556	0.6046	0.09057	-0.04
Mof_C 	C 	0.5455	0.60011	0.09193	0.016
Mof_C 	C 	0.5453	0.58578	0.08589	-0.04
Mof_C 	C 	0.55482	0.5763	0.07875	-0.042
Mof_C 	C 	0.56492	0.58079	0.07738	0.018
Mof_C 	C 	0.5936	0.5378	0.05012	-0.042
Mof_C 	C 	0.60313	0.52832	0.04298	-0.04
Mof_C 	C 	0.61294	0.53302	0.04139	0.016
Mof_C 	C 	0.61284	0.54755	0.04722	-0.04
Mof_C 	C 	0.60332	0.55703	0.05435	-0.042
Mof_C 	C 	0.18348	0.12786	0.9089	-0.042
Mof_C 	C 	0.02562	0.89603	0.48164	0.006
Mof_C 	C 	0.59351	0.55233	0.05595	0.018
Mof_C 	C 	0.5354	0.61014	0.0995	-0.013
Mof_C 	C 	0.52697	0.61843	0.10578	-0.026
Mof_C 	C 	0.62305	0.52299	0.03383	-0.013
Mof_C 	C 	0.6315	0.51472	0.02756	-0.026
Mof_C 	C 	0.50402	0.62625	0.11233	-0.072
Mof_C 	C 	0.49449	0.63533	0.11949	0.018
Mof_C 	C 	0.49729	0.64689	0.12795	-0.088
Mof_C 	C 	0.51005	0.64901	0.12888	0.017
Mof_C 	C 	0.1832	0.12902	0.91946	0.018
Mof_C 	C 	0.51958	0.6399	0.12169	-0.072
Mof_C 	C 	0.02402	0.91094	0.48144	-0.07
Mof_C 	C 	0.51678	0.6283	0.1133	0.041
Mof_C 	C 	0.65439	0.50709	0.02102	-0.072
Mof_C 	C 	0.66396	0.49806	0.01388	0.017
Mof_C 	C 	0.66129	0.48639	0.00546	-0.088
Mof_C 	C 	0.64863	0.48411	0.00455	0.017
Mof_C 	C 	0.63905	0.49318	0.01171	-0.072
Mof_C 	C 	0.64172	0.50488	0.02006	0.041
Mof_C 	C 	0.65163	0.61733	0.2432	-0.017
Mof_C 	C 	0.81149	0.82864	0.29581	-0.032
Mof_C 	C 	0.20924	0.18091	0.08163	-0.014
Mof_C 	C 	0.6385	0.62153	0.23759	-0.017
Mof_C 	C 	0.67179	0.60631	0.25937	-0.041
Mof_C 	C 	0.03691	0.91168	0.4809	0.007
Mof_C 	C 	0.6866	0.60158	0.26569	-0.04
Mof_C 	C 	0.69813	0.60247	0.26305	0.015
Mof_C 	C 	0.69387	0.60841	0.25367	-0.04
Mof_C 	C 	0.67907	0.61314	0.24735	-0.041
Mof_C 	C 	0.66754	0.61225	0.24999	0.017
Mof_C 	C 	0.61841	0.63231	0.22132	-0.041
Mof_C 	C 	0.6036	0.63705	0.215	-0.04
Mof_C 	C 	0.20503	0.18263	0.08977	-0.025
Mof_C 	C 	0.592	0.63641	0.21772	0.015
Mof_C 	C 	0.59619	0.63072	0.2272	-0.04
Mof_C 	C 	0.61099	0.62598	0.23353	-0.041
Mof_C 	C 	0.05057	0.89836	0.48058	-0.065
Mof_C 	C 	0.62259	0.62662	0.2308	0.017
Mof_C 	C 	0.71404	0.59739	0.26984	-0.014
Mof_C 	C 	0.72718	0.59319	0.27543	-0.023
Mof_C 	C 	0.5761	0.64152	0.21092	-0.014
Mof_C 	C 	0.563	0.64576	0.20527	-0.023
Mof_C 	C 	0.75435	0.58995	0.27989	-0.065
Mof_C 	C 	0.15134	0.11604	0.89208	-0.013
Mof_C 	C 	0.76918	0.58523	0.28616	0.008
Mof_C 	C 	0.77378	0.57836	0.29518	-0.075
Mof_C 	C 	0.7625	0.57654	0.29749	0.008
Mof_C 	C 	0.74766	0.58127	0.2912	-0.065
Mof_C 	C 	0.05218	0.88349	0.48078	0.035
Mof_C 	C 	0.7431	0.58813	0.2822	0.034
Mof_C 	C 	0.53589	0.64812	0.19968	-0.065
Mof_C 	C 	0.52122	0.65294	0.1931	0.008
Mof_C 	C 	0.5169	0.66096	0.18472	-0.076
Mof_C 	C 	0.52825	0.66381	0.18342	0.009
Mof_C 	C 	0.14246	0.11223	0.88421	-0.025
Mof_C 	C 	0.54285	0.65901	0.18999	-0.066
Mof_C 	C 	0.54719	0.65098	0.19832	0.034
Mof_C 	C 	0.6282	0.13701	0.24636	-0.018
Mof_C 	C 	0.63222	0.12368	0.24076	-0.018
Mof_C 	C 	0.61337	0.15802	0.25962	-0.042
Mof_C 	C 	0.20955	0.53968	0.47193	-0.07
Mof_C 	C 	0.60881	0.17315	0.26598	-0.041
Mof_C 	C 	0.61406	0.18392	0.26607	0.016
Mof_C 	C 	0.62405	0.17896	0.25955	-0.04
Mof_C 	C 	0.62861	0.16384	0.25319	-0.042
Mof_C 	C 	0.38266	0.17742	0.97904	-0.014
Mof_C 	C 	0.62336	0.15306	0.2531	0.018
Mof_C 	C 	0.64504	0.10347	0.22622	-0.042
Mof_C 	C 	0.64956	0.08835	0.21985	-0.041
Mof_C 	C 	0.64626	0.07678	0.22103	0.016
Mof_C 	C 	0.63827	0.08094	0.22882	-0.04
Mof_C 	C 	0.63375	0.09606	0.23519	-0.042
Mof_C 	C 	0.90104	0.97372	0.1185	-0.032
Mof_C 	C 	0.20818	0.52601	0.47171	0.015
Mof_C 	C 	0.63705	0.10763	0.23402	0.018
Mof_C 	C 	0.60922	0.19996	0.27282	-0.013
Mof_C 	C 	0.39366	0.17899	0.9785	-0.024
Mof_C 	C 	0.60522	0.21329	0.27843	-0.026
Mof_C 	C 	0.65092	0.06078	0.2142	-0.013
Mof_C 	C 	0.65464	0.04752	0.20848	-0.026
Mof_C 	C 	0.61023	0.23368	0.29411	-0.071
Mof_C 	C 	0.60579	0.24883	0.30045	0.016
Mof_C 	C 	0.59132	0.2603	0.29812	-0.087
Mof_C 	C 	0.5815	0.25589	0.28918	0.016
Mof_C 	C 	0.58598	0.24073	0.28285	-0.071
Mof_C 	C 	0.19487	0.52634	0.47233	-0.083
Mof_C 	C 	0.60044	0.22934	0.28518	0.041
Mof_C 	C 	0.20966	0.18445	0.10972	-0.069
Mof_C 	C 	0.6481	0.02763	0.1933	-0.072
Mof_C 	C 	0.65181	0.01281	0.18656	0.017
Mof_C 	C 	0.66641	0.00131	0.18766	-0.088
Mof_C 	C 	0.67717	0.00533	0.19588	0.017
Mof_C 	C 	0.67342	0.02022	0.20263	-0.072
Mof_C 	C 	0.6588	0.03166	0.20145	0.041
Mof_C 	C 	0.5269	0.49952	0.39276	-0.018
Mof_C 	C 	0.52327	0.51306	0.39822	-0.018
Mof_C 	C 	0.54607	0.47213	0.38745	-0.042
Mof_C 	C 	0.18294	0.54109	0.47316	0.014
Mof_C 	C 	0.87265	0.86271	0.37281	-0.019
Mof_C 	C 	0.55017	0.4568	0.38127	-0.04
Mof_C 	C 	0.53968	0.45178	0.37351	0.015
Mof_C 	C 	0.52489	0.46284	0.37223	-0.04
Mof_C 	C 	0.52078	0.47817	0.37842	-0.042
Mof_C 	C 	0.53127	0.48319	0.38617	0.018
Mof_C 	C 	0.50411	0.54049	0.40346	-0.042
Mof_C 	C 	0.49999	0.55582	0.40965	-0.041
Mof_C 	C 	0.51045	0.56079	0.41748	0.016
Mof_C 	C 	0.52523	0.54971	0.41883	-0.041
Mof_C 	C 	0.52935	0.53438	0.41264	-0.042
Mof_C 	C 	0.2052	0.18589	0.11896	0.012
Mof_C 	C 	0.18435	0.55481	0.47339	-0.07
Mof_C 	C 	0.51889	0.5294	0.4048	0.018
Mof_C 	C 	0.54405	0.43544	0.36693	-0.014
Mof_C 	C 	0.54766	0.42189	0.36149	-0.025
Mof_C 	C 	0.50604	0.57709	0.42412	-0.014
Mof_C 	C 	0.50234	0.59057	0.42968	-0.025
Mof_C 	C 	0.55007	0.39389	0.3574	-0.069
Mof_C 	C 	0.55417	0.37852	0.35129	0.013
Mof_C 	C 	0.56042	0.37399	0.34239	-0.081
Mof_C 	C 	0.56234	0.38568	0.33993	0.013
Mof_C 	C 	0.1909	0.18764	0.11854	-0.08
Mof_C 	C 	0.55824	0.40106	0.34606	-0.069
Mof_C 	C 	0.1977	0.55438	0.47281	0.04
Mof_C 	C 	0.55201	0.40553	0.35494	0.038
Mof_C 	C 	0.50094	0.61844	0.43526	-0.069
Mof_C 	C 	0.49672	0.63356	0.44181	0.013
Mof_C 	C 	0.48912	0.63769	0.44989	-0.083
Mof_C 	C 	0.48595	0.62594	0.45103	0.014
Mof_C 	C 	0.49016	0.6109	0.4445	-0.07
Mof_C 	C 	0.49779	0.60675	0.43649	0.039
Mof_C 	C 	0.00638	0.51657	0.39068	-0.017
Mof_C 	C 	0.46479	0.48292	0.64755	-0.045
Mof_C 	C 	0.18124	0.18799	0.10841	0.012
Mof_C 	C 	0.0195	0.51366	0.39613	-0.017
Mof_C 	C 	0.98443	0.50884	0.38027	-0.041
Mof_C 	C 	0.99649	0.89842	0.64544	0.025
Mof_C 	C 	0.96963	0.51213	0.37413	-0.04
Mof_C 	C 	0.95995	0.52689	0.37141	0.015
Mof_C 	C 	0.96601	0.53815	0.37522	-0.04
Mof_C 	C 	0.98081	0.53486	0.38137	-0.041
Mof_C 	C 	0.9905	0.52009	0.38409	0.017
Mof_C 	C 	0.04178	0.52105	0.40589	-0.041
Mof_C 	C 	0.05658	0.51777	0.41203	-0.04
Mof_C 	C 	0.18573	0.18654	0.09917	-0.069
Mof_C 	C 	0.06592	0.50338	0.4154	0.015
Mof_C 	C 	0.05952	0.49247	0.41224	-0.04
Mof_C 	C 	0.04472	0.49574	0.40609	-0.041
Mof_C 	C 	0.99434	0.88563	0.64613	-0.069
Mof_C 	C 	0.03538	0.51014	0.40272	0.017
Mof_C 	C 	0.94405	0.53045	0.36483	-0.014
Mof_C 	C 	0.93091	0.53344	0.35942	-0.023
Mof_C 	C 	0.0818	0.49988	0.42201	-0.014
Mof_C 	C 	0.09489	0.49702	0.42748	-0.023
Mof_C 	C 	0.90324	0.55179	0.35507	-0.066
Mof_C 	C 	0.20007	0.18462	0.09961	0.039
Mof_C 	C 	0.88837	0.55541	0.34905	0.009
Mof_C 	C 	0.88419	0.54467	0.34045	-0.077
Mof_C 	C 	0.89594	0.53002	0.33829	0.009
Mof_C 	C 	0.91084	0.52641	0.34433	-0.066
Mof_C 	C 	0.99627	0.88205	0.65605	0.024
Mof_C 	C 	0.91496	0.53719	0.35291	0.035
Mof_C 	C 	0.12251	0.47876	0.43298	-0.066
Mof_C 	C 	0.13722	0.47562	0.4393	0.009
Mof_C 	C 	0.1411	0.48721	0.44717	-0.077
Mof_C 	C 	0.12928	0.50212	0.44828	0.009
Mof_C 	C 	0.13626	0.1005	0.86473	-0.07
Mof_C 	C 	0.1146	0.50522	0.44197	-0.066
Mof_C 	C 	0.11073	0.49365	0.43414	0.035
Mof_C 	C 	0.00096	0.89233	0.66606	-0.067
Mof_C 	C 	0.00326	0.90527	0.66577	0.027
Mof_C 	C 	0.91162	0.97001	0.128	-0.005
Mof_C 	C 	0.00096	0.90834	0.65563	-0.068
Mof_C 	C 	0.0017	0.85946	0.66551	-0.034
Mof_C 	C 	0.99927	0.84567	0.66541	-0.047
Mof_C 	C 	0.98952	0.84056	0.6569	0.022
Mof_C 	C 	0.98217	0.84901	0.64852	-0.047
Mof_C 	C 	0.12687	0.09565	0.85559	0.015
Mof_C 	C 	0.98424	0.86213	0.64828	-0.032
Mof_C 	C 	0.99392	0.86797	0.65647	-0.003
Mof_C 	C 	0.00299	0.90979	0.63343	-0.033
Mof_C 	C 	0.00097	0.91329	0.62355	-0.044
Mof_C 	C 	0.99032	0.9094	0.61407	0.018
Mof_C 	C 	0.93941	0.9784	0.16899	-0.031
Mof_C 	C 	0.98251	0.90207	0.61546	-0.045
Mof_C 	C 	0.98453	0.89849	0.6254	-0.033
Mof_C 	C 	0.99452	0.90204	0.63466	-0.003
Mof_C 	C 	0.01676	0.92327	0.67621	-0.032
Mof_C 	C 	0.11275	0.09752	0.85579	-0.084
Mof_C 	C 	0.02082	0.93334	0.68544	-0.047
Mof_C 	C 	0.01631	0.93651	0.69488	0.022
Mof_C 	C 	0.00765	0.92906	0.69476	-0.047
Mof_C 	C 	0.00359	0.91893	0.68553	-0.032
Mof_C 	C 	0.00796	0.91585	0.67597	-0.003
Mof_C 	C 	0.98802	0.91315	0.60354	-0.018
Mof_C 	C 	0.94924	0.98276	0.17804	-0.048
Mof_C 	C 	0.98618	0.91633	0.59482	-0.018
Mof_C 	C 	0.98701	0.82669	0.65674	-0.019
Mof_C 	C 	0.98495	0.81516	0.65662	-0.017
Mof_C 	C 	0.10848	0.10462	0.86563	0.014
Mof_C 	C 	0.02057	0.94736	0.7046	-0.019
Mof_C 	C 	0.02416	0.95642	0.71261	-0.017
Mof_C 	C 	0.97844	0.91221	0.57467	-0.042
Mof_C 	C 	0.97642	0.9159	0.56481	-0.04
Mof_C 	C 	0.9799	0.92772	0.5643	0.016
Mof_C 	C 	0.98548	0.93571	0.574	-0.04
Mof_C 	C 	0.9875	0.93203	0.58386	-0.042
Mof_C 	C 	0.94436	0.99306	0.18716	0.023
Mof_C 	C 	0.98402	0.92021	0.58437	0.019
Mof_C 	C 	0.03012	0.96594	0.73263	-0.041
Mof_C 	C 	0.11797	0.10948	0.87482	-0.07
Mof_C 	C 	0.03426	0.97623	0.74167	-0.041
Mof_C 	C 	0.03695	0.98835	0.74068	0.018
Mof_C 	C 	0.03534	0.98976	0.73027	-0.041
Mof_C 	C 	0.0312	0.97947	0.72123	-0.041
Mof_C 	C 	0.02851	0.96735	0.72222	0.017
Mof_C 	C 	0.97689	0.79293	0.64698	-0.042
Mof_C 	C 	0.97457	0.77985	0.64687	-0.04
Mof_C 	C 	0.97775	0.77457	0.65629	0.016
Mof_C 	C 	0.92921	0.99867	0.18688	-0.047
Mof_C 	C 	0.98335	0.78292	0.6658	-0.04
Mof_C 	C 	0.87959	0.86944	0.38073	-0.017
Mof_C 	C 	0.98566	0.79599	0.66591	-0.042
Mof_C 	C 	0.98248	0.80127	0.6565	0.018
Mof_C 	C 	0.97774	0.93168	0.55388	-0.013
Mof_C 	C 	0.97597	0.93508	0.54526	-0.026
Mof_C 	C 	0.97531	0.76069	0.6562	-0.013
Mof_C 	C 	0.97332	0.74917	0.65621	-0.025
Mof_C 	C 	0.0414	0.99921	0.7503	-0.017
Mof_C 	C 	0.04587	0.00975	0.7598	-0.026
Mof_C 	C 	0.96993	0.95485	0.53446	-0.072
Mof_C 	C 	0.91932	0.99429	0.17781	-0.031
Mof_C 	C 	0.1321	0.10745	0.87455	0.04
Mof_C 	C 	0.96832	0.95902	0.5249	0.017
Mof_C 	C 	0.97055	0.94791	0.51544	-0.086
Mof_C 	C 	0.97434	0.93245	0.51594	0.016
Mof_C 	C 	0.97595	0.9283	0.52554	-0.071
Mof_C 	C 	0.97387	0.93941	0.53499	0.041
Mof_C 	C 	0.97308	0.7313	0.66606	-0.071
Mof_C 	C 	0.97116	0.7182	0.66635	0.016
Mof_C 	C 	0.96703	0.70848	0.65698	-0.086
Mof_C 	C 	0.96487	0.71257	0.64729	0.015
Mof_C 	C 	0.96682	0.72572	0.64702	-0.07
Mof_C 	C 	0.47317	0.47245	0.63989	0.019
Mof_C 	C 	0.41654	0.18529	0.98694	-0.068
Mof_C 	C 	0.99675	0.98411	0.50301	0.268
Mof_C 	C 	0.92415	0.98414	0.16856	-0.005
Mof_C 	C 	0.97102	0.73533	0.6564	0.04
Mof_C 	C 	0.04702	0.03585	0.76979	-0.071
Mof_C 	C 	0.05176	0.04549	0.77906	0.016
Mof_C 	C 	0.06031	0.03981	0.78854	-0.086
Mof_C 	C 	0.0638	0.02413	0.7883	0.016
Mof_C 	C 	0.05905	0.01456	0.77906	-0.071
Mof_C 	C 	0.05062	0.02018	0.7696	0.041
Mof_C 	C 	0.98703	0.63605	0.63801	0.301
Mof_C 	C 	0.42903	0.18694	0.98629	0.012
Mof_C 	C 	0.96456	0.62136	0.66089	0.3
Mof_C 	C 	0.00232	0.64892	0.67915	0.225
Mof_C 	C 	0.92479	0.9638	0.09849	-0.019
Mof_C 	C 	0.94496	0.67963	0.68123	0.286
Mof_C 	C 	0.96572	0.69389	0.65751	0.3
Mof_C 	C 	0.93063	0.6638	0.63835	0.287
Mof_C 	C 	0.44641	0.18561	0.9757	0.295
Mof_C 	C 	0.48816	0.14985	0.95416	0.304
Mof_C 	C 	0.45851	0.20899	0.95188	0.287
Mof_C 	C 	0.51452	0.18808	0.97215	0.299
Mof_C 	C 	0.43259	0.18426	0.97645	-0.08
Mof_C 	C 	0.47476	0.22289	0.99441	0.29
Mof_C 	C 	0.50183	0.16379	0.99512	0.31
Mof_C 	C 	0.76178	0.21368	0.49312	0.027
Mof_C 	C 	0.92891	0.96208	0.09031	-0.017
Mof_C 	C 	0.75157	0.21835	0.48347	-0.07
Mof_C 	C 	0.7389	0.23289	0.48331	0.028
Mof_C 	C 	0.73661	0.24301	0.49326	-0.071
Mof_C 	C 	0.74617	0.23925	0.50321	0.028
Mof_C 	C 	0.75879	0.22452	0.5029	-0.069
Mof_C 	C 	0.7127	0.24758	0.47236	-0.032
Mof_C 	C 	0.42292	0.17987	0.96733	0.012
Mof_C 	C 	0.70256	0.25234	0.46282	-0.047
Mof_C 	C 	0.70692	0.24758	0.45308	0.021
Mof_C 	C 	0.72198	0.23771	0.45337	-0.046
Mof_C 	C 	0.73216	0.2329	0.46291	-0.032
Mof_C 	C 	0.83847	0.96669	0.15158	-0.019
Mof_C 	C 	0.72786	0.23776	0.47275	-0.004
Mof_C 	C 	0.78875	0.19441	0.50079	-0.033
Mof_C 	C 	0.8012	0.17963	0.50034	-0.046
Mof_C 	C 	0.80121	0.16681	0.49196	0.02
Mof_C 	C 	0.78796	0.16969	0.48408	-0.046
Mof_C 	C 	0.41045	0.17823	0.96799	-0.068
Mof_C 	C 	0.77553	0.18442	0.48449	-0.033
Mof_C 	C 	0.77545	0.1974	0.49284	-0.003
Mof_C 	C 	0.75354	0.25252	0.52305	-0.032
Mof_C 	C 	0.75	0.26384	0.53246	-0.046
Mof_C 	C 	0.73532	0.2743	0.53323	0.02
Mof_C 	C 	0.82748	0.96514	0.15213	-0.017
Mof_C 	C 	0.72439	0.27268	0.5241	-0.046
Mof_C 	C 	0.72788	0.26145	0.51471	-0.032
Mof_C 	C 	0.74258	0.25105	0.51379	-0.003
Mof_C 	C 	0.81452	0.15095	0.49141	-0.019
Mof_C 	C 	0.40693	0.18086	0.97781	0.037
Mof_C 	C 	0.82546	0.13782	0.49088	-0.017
Mof_C 	C 	0.69601	0.25281	0.44294	-0.019
Mof_C 	C 	0.68689	0.25722	0.43459	-0.017
Mof_C 	C 	0.73136	0.28655	0.54319	-0.019
Mof_C 	C 	0.72786	0.29677	0.55134	-0.017
Mof_C 	C 	0.84052	0.11108	0.48051	-0.041
Mof_C 	C 	0.95496	0.99776	0.19666	-0.021
Mof_C 	C 	0.85282	0.09623	0.47986	-0.04
Mof_C 	C 	0.86405	0.09123	0.48886	0.015
Mof_C 	C 	0.8622	0.10203	0.49855	-0.04
Mof_C 	C 	0.54728	0.81664	0.81356	0.299
Mof_C 	C 	0.8499	0.11689	0.49919	-0.041
Mof_C 	C 	0.83867	0.12188	0.49019	0.016
Mof_C 	C 	0.70919	0.3213	0.56083	-0.041
Mof_C 	C 	0.70508	0.3329	0.56997	-0.04
Mof_C 	C 	0.71504	0.33309	0.57997	0.015
Mof_C 	C 	0.72935	0.32099	0.58029	-0.04
Mof_C 	C 	0.73347	0.30937	0.57114	-0.041
Mof_C 	C 	0.96568	0.00216	0.20582	-0.019
Mof_C 	C 	0.7235	0.30919	0.56114	0.017
Mof_C 	C 	0.67839	0.25457	0.41428	-0.041
Mof_C 	C 	0.56424	0.83107	0.78787	0.294
Mof_C 	C 	0.66803	0.25958	0.40486	-0.04
Mof_C 	C 	0.65457	0.27286	0.40519	0.015
Mof_C 	C 	0.65201	0.28087	0.41545	-0.04
Mof_C 	C 	0.66238	0.27585	0.42487	-0.041
Mof_C 	C 	0.67584	0.26257	0.42453	0.017
Mof_C 	C 	0.87724	0.07528	0.48817	-0.014
Mof_C 	C 	0.88814	0.06212	0.4876	-0.023
Mof_C 	C 	0.64355	0.27819	0.39512	-0.014
Mof_C 	C 	0.92507	0.95877	0.07024	-0.042
Mof_C 	C 	0.63455	0.28248	0.3867	-0.024
Mof_C 	C 	0.57235	0.85637	0.82854	0.301
Mof_C 	C 	0.71062	0.34552	0.58976	-0.014
Mof_C 	C 	0.70695	0.35582	0.59784	-0.024
Mof_C 	C 	0.91171	0.04053	0.49605	-0.066
Mof_C 	C 	0.92407	0.02572	0.49543	0.01
Mof_C 	C 	0.92688	0.01558	0.48563	-0.078
Mof_C 	C 	0.91647	0.02125	0.47649	0.01
Mof_C 	C 	0.90411	0.03606	0.47713	-0.066
Mof_C 	C 	0.90135	0.04618	0.48692	0.035
Mof_C 	C 	0.60958	0.29933	0.37594	-0.068
Mof_C 	C 	0.92996	0.95675	0.06105	-0.041
Mof_C 	C 	0.76298	0.86281	0.24959	-0.041
Mof_C 	C 	0.59995	0.30393	0.36616	0.011
Mof_C 	C 	0.6043	0.29676	0.35632	-0.08
Mof_C 	C 	0.6187	0.28475	0.35684	0.012
Mof_C 	C 	0.62823	0.28019	0.36657	-0.068
Mof_C 	C 	0.624	0.28738	0.37638	0.037
Mof_C 	C 	0.71246	0.36883	0.61755	-0.067
Mof_C 	C 	0.70835	0.38068	0.6266	0.01
Mof_C 	C 	0.69397	0.39272	0.62624	-0.078
Mof_C 	C 	0.68397	0.39212	0.61626	0.01
Mof_C 	C 	0.6881	0.38027	0.60723	-0.067
Mof_C 	C 	0.46518	0.46517	0.63105	-0.045
Mof_C 	C 	0.61876	0.81585	0.8128	0.281
Mof_C 	C 	0.94403	0.95583	0.06176	0.016
Mof_C 	C 	0.70248	0.36832	0.60759	0.036
Mof_C 	C 	0.43484	0.93114	0.15692	0.03
Mof_C 	C 	0.44744	0.93326	0.15726	-0.073
Mof_C 	C 	0.44685	0.94786	0.15724	0.03
Mof_C 	C 	0.43283	0.96094	0.15709	-0.071
Mof_C 	C 	0.41965	0.95957	0.15675	0.028
Mof_C 	C 	0.42109	0.94445	0.15672	-0.071
Mof_C 	C 	0.46432	0.96219	0.16258	-0.032
Mof_C 	C 	0.47797	0.96252	0.16307	-0.047
Mof_C 	C 	0.59969	0.80129	0.83833	0.296
Mof_C 	C 	0.48914	0.94969	0.15833	0.021
Mof_C 	C 	0.97009	0.95243	0.50546	0.297
Mof_C 	C 	0.953	0.95703	0.07206	-0.041
Mof_C 	C 	0.48594	0.93663	0.15298	-0.047
Mof_C 	C 	0.47239	0.93625	0.1525	-0.032
Mof_C 	C 	0.46121	0.94894	0.15738	-0.004
Mof_C 	C 	0.42785	0.91234	0.1617	-0.032
Mof_C 	C 	0.42984	0.89715	0.16182	-0.047
Mof_C 	C 	0.44039	0.88365	0.15701	0.022
Mof_C 	C 	0.44877	0.886	0.152	-0.047
Mof_C 	C 	0.59398	0.77588	0.79763	0.293
Mof_C 	C 	0.44684	0.90112	0.15188	-0.032
Mof_C 	C 	0.4364	0.91475	0.15679	-0.004
Mof_C 	C 	0.39076	0.9721	0.1514	-0.034
Mof_C 	C 	0.94812	0.95905	0.08125	-0.042
Mof_C 	C 	0.37658	0.98484	0.151	-0.043
Mof_C 	C 	0.37465	0.00126	0.15577	0.017
Mof_C 	C 	0.388	0.00309	0.1606	-0.045
Mof_C 	C 	0.40284	0.98933	0.16085	-0.035
Mof_C 	C 	0.40428	0.97383	0.15632	-0.002
Mof_C 	C 	0.4427	0.86747	0.15718	-0.019
Mof_C 	C 	0.07473	0.05734	0.83971	0.308
Mof_C 	C 	0.44478	0.85397	0.15726	-0.017
Mof_C 	C 	0.5038	0.94974	0.15891	-0.019
Mof_C 	C 	0.51604	0.94949	0.1593	-0.017
Mof_C 	C 	0.35951	0.0149	0.15542	-0.017
Mof_C 	C 	0.93405	0.95996	0.08054	0.018
Mof_C 	C 	0.34697	0.02617	0.15512	-0.018
Mof_C 	C 	0.46113	0.82502	0.15662	-0.042
Mof_C 	C 	0.46357	0.80966	0.15667	-0.04
Mof_C 	C 	0.45235	0.80625	0.15742	0.016
Mof_C 	C 	0.43859	0.81888	0.15813	-0.04
Mof_C 	C 	0.11981	0.03608	0.82188	0.302
Mof_C 	C 	0.43615	0.83424	0.15809	-0.042
Mof_C 	C 	0.44737	0.83765	0.15733	0.017
Mof_C 	C 	0.33	0.0554	0.15684	-0.041
Mof_C 	C 	0.31582	0.06813	0.15649	-0.04
Mof_C 	C 	0.30266	0.06596	0.15405	0.015
Mof_C 	C 	0.97306	0.01579	0.22478	-0.043
Mof_C 	C 	0.30447	0.05035	0.15197	-0.04
Mof_C 	C 	0.31865	0.03761	0.15232	-0.042
Mof_C 	C 	0.33181	0.03978	0.15476	0.017
Mof_C 	C 	0.54305	0.93485	0.15768	-0.041
Mof_C 	C 	0.06628	0.04963	0.79854	0.3
Mof_C 	C 	0.55697	0.93436	0.15806	-0.041
Mof_C 	C 	0.5594	0.948	0.16051	0.016
Mof_C 	C 	0.54723	0.96216	0.16256	-0.041
Mof_C 	C 	0.5333	0.96265	0.16218	-0.041
Mof_C 	C 	0.53087	0.94901	0.15973	0.017
Mof_C 	C 	0.4549	0.78994	0.15746	-0.013
Mof_C 	C 	0.98329	0.02009	0.23364	-0.039
Mof_C 	C 	0.45687	0.77645	0.15749	-0.025
Mof_C 	C 	0.57422	0.9475	0.16089	-0.014
Mof_C 	C 	0.58647	0.94717	0.1612	-0.025
Mof_C 	C 	0.09261	0.08572	0.80461	0.31
Mof_C 	C 	0.28751	0.07958	0.15368	-0.014
Mof_C 	C 	0.27499	0.09089	0.15337	-0.024
Mof_C 	C 	0.44711	0.75755	0.15784	-0.07
Mof_C 	C 	0.44879	0.74249	0.15785	0.015
Mof_C 	C 	0.4624	0.7294	0.15756	-0.084
Mof_C 	C 	0.47429	0.73216	0.15727	0.014
Mof_C 	C 	0.47256	0.7473	0.15726	-0.07
Mof_C 	C 	0.99814	0.01537	0.23342	0.013
Mof_C 	C 	0.45892	0.76031	0.15753	0.04
Mof_C 	C 	0.61442	0.93343	0.16215	-0.069
Mof_C 	C 	0.0483	0.10648	0.82248	0.286
Mof_C 	C 	0.62813	0.93338	0.16239	0.014
Mof_C 	C 	0.62921	0.94691	0.16206	-0.084
Mof_C 	C 	0.61588	0.96044	0.16149	0.014
Mof_C 	C 	0.60223	0.96047	0.16124	-0.07
Mof_C 	C 	0.60114	0.94699	0.16155	0.039
Mof_C 	C 	0.24708	0.10329	0.15295	-0.068
Mof_C 	C 	0.23299	0.11622	0.15258	0.012
Mof_C 	C 	0.23097	0.13124	0.15224	-0.082
Mof_C 	C 	0.00253	0.00557	0.22332	-0.039
Mof_C 	C 	0.24386	0.13253	0.15229	0.013
Mof_C 	C 	0.10338	0.0911	0.8458	0.298
Mof_C 	C 	0.2579	0.11962	0.15266	-0.068
Mof_C 	C 	0.25992	0.10464	0.15299	0.037
Mof_C 	C 	0.18866	0.18107	0.62817	0.293
Mof_C 	C 	0.20641	0.19163	0.67044	0.286
Mof_C 	C 	0.14985	0.20728	0.65173	0.299
Mof_C 	C 	0.1787	0.16056	0.67178	0.314
Mof_C 	C 	0.1622	0.14936	0.63083	0.304
Mof_C 	C 	0.21838	0.13401	0.64863	0.291
Mof_C 	C 	0.66493	0.72201	0.99348	0.023
Mof_C 	C 	0.99147	0.0013	0.21419	-0.044
Mof_C 	C 	0.34641	0.83087	0.8166	0.028
Mof_C 	C 	0.66072	0.72756	0.98387	-0.068
Mof_C 	C 	0.65838	0.74281	0.98353	0.026
Mof_C 	C 	0.66003	0.75331	0.99337	-0.066
Mof_C 	C 	0.66413	0.74897	0.00411	0.021
Mof_C 	C 	0.66649	0.73339	0.00387	-0.064
Mof_C 	C 	0.64503	0.76307	0.97105	-0.032
Mof_C 	C 	0.641	0.7673	0.96098	-0.047
Mof_C 	C 	0.64595	0.75639	0.95202	0.021
Mof_C 	C 	0.65518	0.74106	0.9536	-0.047
Mof_C 	C 	0.65919	0.73679	0.96364	-0.032
Mof_C 	C 	0.45001	0.46803	0.63002	-0.033
Mof_C 	C 	0.75435	0.86911	0.24017	-0.04
Mof_C 	C 	0.97682	0.00646	0.21502	0.02
Mof_C 	C 	0.65419	0.74765	0.97266	-0.003
Mof_C 	C 	0.66507	0.70019	0.00141	-0.034
Mof_C 	C 	0.6669	0.68469	0.00045	-0.043
Mof_C 	C 	0.6715	0.67238	0.99106	0.017
Mof_C 	C 	0.67399	0.67723	0.98338	-0.044
Mof_C 	C 	0.6721	0.69279	0.98429	-0.033
Mof_C 	C 	0.6675	0.70498	0.99298	-0.002
Mof_C 	C 	0.67456	0.75643	0.02458	-0.033
Mof_C 	C 	0.67611	0.76748	0.03414	-0.046
Mof_C 	C 	0.33303	0.84482	0.81703	-0.07
Mof_C 	C 	0.66891	0.78371	0.03448	0.02
Mof_C 	C 	0.8048	0.95851	0.14368	-0.042
Mof_C 	C 	0.66003	0.78825	0.0247	-0.046
Mof_C 	C 	0.65849	0.77725	0.01514	-0.033
Mof_C 	C 	0.66572	0.76093	0.01472	-0.001
Mof_C 	C 	0.67346	0.65572	0.98975	-0.017
Mof_C 	C 	0.67511	0.6419	0.98857	-0.018
Mof_C 	C 	0.64165	0.76079	0.94128	-0.019
Mof_C 	C 	0.63812	0.76432	0.93233	-0.017
Mof_C 	C 	0.67057	0.79557	0.04467	-0.019
Mof_C 	C 	0.31937	0.84479	0.81714	0.028
Mof_C 	C 	0.67189	0.80546	0.05306	-0.017
Mof_C 	C 	0.67615	0.61553	0.97694	-0.042
Mof_C 	C 	0.94066	0.99958	0.48496	0.295
Mof_C 	C 	0.79238	0.95675	0.14433	-0.04
Mof_C 	C 	0.67805	0.59986	0.97554	-0.04
Mof_C 	C 	0.681	0.59303	0.9842	0.015
Mof_C 	C 	0.68196	0.60268	0.99434	-0.04
Mof_C 	C 	0.68006	0.61835	0.99574	-0.042
Mof_C 	C 	0.67711	0.62518	0.98708	0.017
Mof_C 	C 	0.67051	0.83281	0.0629	-0.041
Mof_C 	C 	0.31965	0.83022	0.81707	-0.071
Mof_C 	C 	0.67197	0.84404	0.07236	-0.04
Mof_C 	C 	0.67648	0.84056	0.08264	0.015
Mof_C 	C 	0.67944	0.8252	0.08293	-0.04
Mof_C 	C 	0.67798	0.81397	0.07347	-0.041
Mof_C 	C 	0.7887	0.95965	0.15413	0.015
Mof_C 	C 	0.67347	0.81746	0.06319	0.017
Mof_C 	C 	0.63358	0.7574	0.91204	-0.042
Mof_C 	C 	0.62963	0.7613	0.90187	-0.04
Mof_C 	C 	0.62583	0.77648	0.90072	0.016
Mof_C 	C 	0.62615	0.78757	0.9102	-0.04
Mof_C 	C 	0.33261	0.8161	0.81678	0.029
Mof_C 	C 	0.63009	0.78367	0.92037	-0.042
Mof_C 	C 	0.6339	0.7685	0.92152	0.017
Mof_C 	C 	0.68303	0.5763	0.98272	-0.014
Mof_C 	C 	0.68473	0.56246	0.98157	-0.024
Mof_C 	C 	0.62161	0.78062	0.8899	-0.014
Mof_C 	C 	0.79811	0.9644	0.16325	-0.04
Mof_C 	C 	0.61809	0.78404	0.88092	-0.025
Mof_C 	C 	0.67805	0.85259	0.09275	-0.014
Mof_C 	C 	0.67935	0.86259	0.10107	-0.024
Mof_C 	C 	0.6916	0.53879	0.98925	-0.068
Mof_C 	C 	0.34576	0.81678	0.81655	-0.071
Mof_C 	C 	0.69346	0.52326	0.98825	0.012
Mof_C 	C 	0.69069	0.51378	0.97827	-0.079
Mof_C 	C 	0.68596	0.52076	0.96932	0.011
Mof_C 	C 	0.6841	0.53635	0.97034	-0.068
Mof_C 	C 	0.68683	0.54578	0.98035	0.037
Mof_C 	C 	0.60597	0.78115	0.86111	-0.07
Mof_C 	C 	0.81053	0.96616	0.16261	-0.041
Mof_C 	C 	0.60171	0.78515	0.85095	0.014
Mof_C 	C 	0.6051	0.79634	0.84924	-0.083
Mof_C 	C 	0.61303	0.80328	0.85822	0.014
Mof_C 	C 	0.29059	0.85911	0.81267	-0.032
Mof_C 	C 	0.61727	0.79927	0.86839	-0.07
Mof_C 	C 	0.61379	0.78815	0.87008	0.039
Mof_C 	C 	0.68459	0.8868	0.11105	-0.067
Mof_C 	C 	0.68581	0.89843	0.12025	0.01
Mof_C 	C 	0.6835	0.89878	0.13006	-0.078
Mof_C 	C 	0.67992	0.88668	0.1301	0.01
Mof_C 	C 	0.67869	0.87502	0.12086	-0.067
Mof_C 	C 	0.81421	0.96326	0.15281	0.017
Mof_C 	C 	0.68092	0.8748	0.11106	0.036
Mof_C 	C 	0.69218	0.49713	0.97749	0.292
Mof_C 	C 	0.277	0.87252	0.81308	-0.046
Mof_C 	C 	0.72783	0.45033	0.99796	0.291
Mof_C 	C 	0.6713	0.47731	0.99744	0.303
Mof_C 	C 	0.69497	0.42016	0.97606	0.296
Mof_C 	C 	0.65765	0.46747	0.95644	0.291
Mof_C 	C 	0.71455	0.44048	0.95528	0.283
Mof_C 	C 	0.92417	0.38466	0.14189	0.025
Mof_C 	C 	0.91291	0.38743	0.13218	-0.067
Mof_C 	C 	0.89795	0.39908	0.132	0.026
Mof_C 	C 	0.94922	0.95369	0.052	-0.014
Mof_C 	C 	0.89459	0.40815	0.14208	-0.069
Mof_C 	C 	0.27647	0.88749	0.8181	0.02
Mof_C 	C 	0.90506	0.40603	0.15202	0.026
Mof_C 	C 	0.9197	0.39422	0.15163	-0.068
Mof_C 	C 	0.87023	0.40857	0.1213	-0.033
Mof_C 	C 	0.85883	0.41186	0.11187	-0.046
Mof_C 	C 	0.86183	0.40899	0.10181	0.019
Mof_C 	C 	0.87708	0.40243	0.10181	-0.045
Mof_C 	C 	0.88855	0.39909	0.11125	-0.033
Mof_C 	C 	0.88556	0.40216	0.12141	-0.003
Mof_C 	C 	0.95283	0.37249	0.15048	-0.032
Mof_C 	C 	0.95349	0.95193	0.04389	-0.024
Mof_C 	C 	0.29036	0.88832	0.82259	-0.046
Mof_C 	C 	0.96767	0.36082	0.15078	-0.046
Mof_C 	C 	0.97152	0.34748	0.14268	0.02
Mof_C 	C 	0.95943	0.34671	0.13419	-0.046
Mof_C 	C 	0.94454	0.35841	0.13386	-0.033
Mof_C 	C 	0.94059	0.37178	0.14203	-0.003
Mof_C 	C 	0.91074	0.41978	0.17201	-0.032
Mof_C 	C 	0.90647	0.42932	0.18175	-0.046
Mof_C 	C 	0.89174	0.436	0.18299	0.02
Mof_C 	C 	0.88156	0.43251	0.1739	-0.046
Mof_C 	C 	0.88578	0.42301	0.16415	-0.032
Mof_C 	C 	0.44166	0.47835	0.63782	-0.002
Mof_C 	C 	0.30402	0.87488	0.82217	-0.032
Mof_C 	C 	0.77543	0.95778	0.15482	-0.014
Mof_C 	C 	0.90053	0.41631	0.16282	-0.003
Mof_C 	C 	0.98756	0.33492	0.1431	-0.02
Mof_C 	C 	0.00336	0.32265	0.14361	-0.019
Mof_C 	C 	0.84941	0.41273	0.09174	-0.018
Mof_C 	C 	0.83904	0.41589	0.08351	-0.017
Mof_C 	C 	0.88711	0.44626	0.1934	-0.019
Mof_C 	C 	0.88321	0.45476	0.20198	-0.017
Mof_C 	C 	0.02477	0.29999	0.13502	-0.041
Mof_C 	C 	0.03972	0.28843	0.13554	-0.04
Mof_C 	C 	0.75215	0.88387	0.23915	0.015
Mof_C 	C 	0.05042	0.28623	0.14524	0.015
Mof_C 	C 	0.76445	0.95623	0.15541	-0.024
Mof_C 	C 	0.04511	0.29641	0.15438	-0.04
Mof_C 	C 	0.03017	0.30797	0.15386	-0.041
Mof_C 	C 	0.01946	0.31018	0.14416	0.017
Mof_C 	C 	0.86399	0.47671	0.21253	-0.041
Mof_C 	C 	0.85954	0.4863	0.2222	-0.04
Mof_C 	C 	0.86928	0.48482	0.2323	0.015
Mof_C 	C 	0.88374	0.47317	0.23213	-0.04
Mof_C 	C 	0.88819	0.46358	0.22246	-0.041
Mof_C 	C 	0.30459	0.85977	0.81728	-0.003
Mof_C 	C 	0.87845	0.46505	0.21236	0.016
Mof_C 	C 	0.82822	0.41204	0.06308	-0.041
Mof_C 	C 	0.00886	0.01996	0.24285	-0.012
Mof_C 	C 	0.81645	0.41567	0.05386	-0.04
Mof_C 	C 	0.80206	0.42728	0.05449	0.015
Mof_C 	C 	0.80024	0.43501	0.06498	-0.04
Mof_C 	C 	0.81201	0.43139	0.07421	-0.041
Mof_C 	C 	0.8264	0.41978	0.07358	0.016
Mof_C 	C 	0.06653	0.27377	0.1458	-0.014
Mof_C 	C 	0.0798	0.26351	0.14627	-0.023
Mof_C 	C 	0.37197	0.8172	0.81126	-0.032
Mof_C 	C 	0.78939	0.43119	0.04457	-0.014
Mof_C 	C 	0.77892	0.43445	0.0364	-0.023
Mof_C 	C 	0.86452	0.49507	0.24268	-0.014
Mof_C 	C 	0.95229	0.94201	0.46312	0.29
Mof_C 	C 	0.01769	0.02382	0.25073	-0.026
Mof_C 	C 	0.86065	0.50346	0.25129	-0.023
Mof_C 	C 	0.10637	0.24836	0.1566	-0.064
Mof_C 	C 	0.12128	0.2367	0.15716	0.006
Mof_C 	C 	0.12683	0.22688	0.14801	-0.073
Mof_C 	C 	0.11633	0.22962	0.13825	0.006
Mof_C 	C 	0.3858	0.81651	0.81115	-0.046
Mof_C 	C 	0.10143	0.24128	0.13771	-0.064
Mof_C 	C 	0.0959	0.25105	0.14686	0.033
Mof_C 	C 	0.75428	0.45333	0.02645	-0.065
Mof_C 	C 	0.74233	0.4571	0.01735	0.008
Mof_C 	C 	0.74143	0.44628	0.00768	-0.075
Mof_C 	C 	0.97295	0.94774	0.03455	-0.066
Mof_C 	C 	0.75338	0.4314	0.00776	0.008
Mof_C 	C 	0.76534	0.42765	0.01688	-0.065
Mof_C 	C 	0.76617	0.43848	0.02654	0.034
Mof_C 	C 	0.86266	0.50772	0.2714	-0.066
Mof_C 	C 	0.3899	0.82913	0.81595	0.021
Mof_C 	C 	0.85843	0.51678	0.28121	0.009
Mof_C 	C 	0.84736	0.53219	0.28208	-0.076
Mof_C 	C 	0.8408	0.53795	0.27245	0.009
Mof_C 	C 	0.84506	0.52883	0.26261	-0.066
Mof_C 	C 	0.85609	0.51342	0.26179	0.035
Mof_C 	C 	0.7595	0.65043	0.5064	0.025
Mof_C 	C 	0.97756	0.94612	0.02533	0.007
Mof_C 	C 	0.74437	0.65362	0.50617	-0.066
Mof_C 	C 	0.73346	0.65241	0.49634	0.025
Mof_C 	C 	0.73846	0.64764	0.48665	-0.068
Mof_C 	C 	0.37927	0.84261	0.82079	-0.046
Mof_C 	C 	0.75308	0.64451	0.48629	0.027
Mof_C 	C 	0.76319	0.6461	0.49624	-0.068
Mof_C 	C 	0.70519	0.66046	0.4867	-0.033
Mof_C 	C 	0.6902	0.66299	0.4857	-0.045
Mof_C 	C 	0.68545	0.66114	0.49364	0.019
Mof_C 	C 	0.69686	0.65675	0.50276	-0.045
Mof_C 	C 	0.71194	0.65423	0.5038	-0.033
Mof_C 	C 	0.96793	0.94654	0.01519	-0.069
Mof_C 	C 	0.71678	0.65582	0.49573	-0.002
Mof_C 	C 	0.78722	0.64299	0.5173	-0.033
Mof_C 	C 	0.36536	0.84335	0.8209	-0.032
Mof_C 	C 	0.79858	0.64426	0.52656	-0.045
Mof_C 	C 	0.79555	0.6542	0.53635	0.019
Mof_C 	C 	0.78019	0.66268	0.53619	-0.045
Mof_C 	C 	0.76875	0.6614	0.5269	-0.033
Mof_C 	C 	0.77179	0.6516	0.51699	-0.002
Mof_C 	C 	0.77262	0.6301	0.47431	-0.032
Mof_C 	C 	0.77692	0.62556	0.46439	-0.046
Mof_C 	C 	0.76675	0.63014	0.45494	0.02
Mof_C 	C 	0.95353	0.94857	0.01474	0.006
Mof_C 	C 	0.75201	0.63954	0.45598	-0.046
Mof_C 	C 	0.36129	0.83059	0.81622	-0.004
Mof_C 	C 	0.74768	0.64408	0.46588	-0.032
Mof_C 	C 	0.75783	0.63953	0.47541	-0.003
Mof_C 	C 	0.80804	0.65551	0.54625	-0.018
Mof_C 	C 	0.81849	0.65643	0.55431	-0.017
Mof_C 	C 	0.66918	0.66378	0.49233	-0.018
Mof_C 	C 	0.65574	0.66598	0.49109	-0.017
Mof_C 	C 	0.77137	0.62528	0.44433	-0.019
Mof_C 	C 	0.77519	0.62127	0.43555	-0.017
Mof_C 	C 	0.82969	0.66203	0.57475	-0.041
Mof_C 	C 	0.94896	0.95017	0.02396	-0.066
Mof_C 	C 	0.34155	0.78606	0.81147	-0.032
Mof_C 	C 	0.84154	0.66297	0.58375	-0.04
Mof_C 	C 	0.85587	0.65944	0.58273	0.015
Mof_C 	C 	0.85744	0.65489	0.57202	-0.04
Mof_C 	C 	0.84559	0.65395	0.56302	-0.041
Mof_C 	C 	0.83126	0.65748	0.56404	0.016
Mof_C 	C 	0.77027	0.6139	0.41506	-0.041
Mof_C 	C 	0.77457	0.60936	0.40514	-0.04
Mof_C 	C 	0.78865	0.60706	0.40453	0.015
Mof_C 	C 	0.79818	0.60958	0.41441	-0.04
Mof_C 	C 	0.79388	0.61412	0.42433	-0.041
Mof_C 	C 	0.9008	0.97828	0.15866	-0.072
Mof_C 	C 	0.411	0.48912	0.66772	-0.033
Mof_C 	C 	0.34131	0.77177	0.81135	-0.047
Mof_C 	C 	0.95853	0.94988	0.03408	0.036
Mof_C 	C 	0.7798	0.61641	0.42494	0.017
Mof_C 	C 	0.63224	0.67381	0.49806	-0.041
Mof_C 	C 	0.61709	0.67632	0.49657	-0.04
Mof_C 	C 	0.60793	0.6739	0.4864	0.015
Mof_C 	C 	0.61508	0.66876	0.47784	-0.04
Mof_C 	C 	0.63022	0.66625	0.47933	-0.041
Mof_C 	C 	0.63939	0.66868	0.48949	0.015
Mof_C 	C 	0.86868	0.66045	0.59245	-0.014
Mof_C 	C 	0.87922	0.66127	0.60044	-0.022
Mof_C 	C 	0.33198	0.77113	0.81648	0.022
Mof_C 	C 	0.59157	0.67662	0.4848	-0.015
Mof_C 	C 	0.74772	0.95707	0.16598	-0.068
Mof_C 	C 	0.57811	0.67887	0.48352	-0.022
Mof_C 	C 	0.79326	0.60219	0.39391	-0.014
Mof_C 	C 	0.79704	0.59813	0.38512	-0.024
Mof_C 	C 	0.90355	0.66562	0.60963	-0.063
Mof_C 	C 	0.91554	0.66637	0.61856	0.005
Mof_C 	C 	0.91696	0.66385	0.62872	-0.072
Mof_C 	C 	0.90542	0.66052	0.62922	0.006
Mof_C 	C 	0.89344	0.65977	0.62028	-0.063
Mof_C 	C 	0.75907	0.89196	0.24809	-0.04
Mof_C 	C 	0.89207	0.66225	0.61014	0.032
Mof_C 	C 	0.55233	0.67924	0.47204	-0.063
Mof_C 	C 	0.73526	0.95546	0.1667	0.012
Mof_C 	C 	0.53723	0.68173	0.47081	0.005
Mof_C 	C 	0.53042	0.68683	0.47957	-0.071
Mof_C 	C 	0.53991	0.68924	0.4896	0.005
Mof_C 	C 	0.55495	0.68676	0.49081	-0.063
Mof_C 	C 	0.56177	0.68164	0.48209	0.032
Mof_C 	C 	0.81259	0.59634	0.37305	-0.067
Mof_C 	C 	0.81686	0.59156	0.36309	0.01
Mof_C 	C 	0.32289	0.78544	0.82174	-0.047
Mof_C 	C 	0.81034	0.58332	0.35395	-0.079
Mof_C 	C 	0.79928	0.5802	0.35539	0.011
Mof_C 	C 	0.79502	0.58499	0.36534	-0.067
Mof_C 	C 	0.72556	0.95106	0.1576	-0.081
Mof_C 	C 	0.80157	0.59316	0.37446	0.036
Mof_C 	C 	0.4403	0.69236	0.47617	0.297
Mof_C 	C 	0.45968	0.71275	0.45528	0.283
Mof_C 	C 	0.46913	0.72655	0.49793	0.292
Mof_C 	C 	0.51409	0.68902	0.4786	0.284
Mof_C 	C 	0.49483	0.66693	0.49831	0.307
Mof_C 	C 	0.32308	0.79975	0.82185	-0.032
Mof_C 	C 	0.48491	0.65373	0.45745	0.297
Mof_C 	C 	0.33758	0.81409	0.32252	0.026
Mof_C 	C 	0.34333	0.80725	0.31309	-0.069
Mof_C 	C 	0.33611	0.813	0.30336	0.026
Mof_C 	C 	0.90741	0.97291	0.13864	0.03
Mof_C 	C 	0.72908	0.94834	0.14775	0.012
Mof_C 	C 	0.32204	0.8263	0.30324	-0.067
Mof_C 	C 	0.31531	0.83387	0.3124	0.025
Mof_C 	C 	0.32354	0.82733	0.32191	-0.068
Mof_C 	C 	0.33576	0.80419	0.28269	-0.033
Mof_C 	C 	0.33242	0.8005	0.81671	-0.004
Mof_C 	C 	0.34292	0.79595	0.27387	-0.045
Mof_C 	C 	0.35846	0.78772	0.27518	0.019
Mof_C 	C 	0.36636	0.78839	0.28588	-0.046
Mof_C 	C 	0.35926	0.79655	0.29468	-0.033
Mof_C 	C 	0.34367	0.80466	0.29347	-0.003
Mof_C 	C 	0.33982	0.80796	0.34079	-0.033
Mof_C 	C 	0.74155	0.94996	0.14705	-0.068
Mof_C 	C 	0.34816	0.80109	0.35007	-0.046
Mof_C 	C 	0.36373	0.79299	0.35216	0.02
Mof_C 	C 	0.37046	0.79228	0.34445	-0.046
Mof_C 	C 	0.40484	0.82812	0.81585	-0.019
Mof_C 	C 	0.36218	0.79908	0.33518	-0.032
Mof_C 	C 	0.34654	0.8071	0.33295	-0.003
Mof_C 	C 	0.29074	0.85307	0.31946	-0.033
Mof_C 	C 	0.27682	0.86645	0.31937	-0.045
Mof_C 	C 	0.27079	0.87656	0.31202	0.019
Mof_C 	C 	0.27973	0.87221	0.30471	-0.045
Mof_C 	C 	0.29365	0.8588	0.30477	-0.033
Mof_C 	C 	0.75119	0.95439	0.15614	0.037
Mof_C 	C 	0.29982	0.84864	0.31218	-0.002
Mof_C 	C 	0.37277	0.7855	0.36203	-0.019
Mof_C 	C 	0.41726	0.82707	0.81571	-0.017
Mof_C 	C 	0.38037	0.77924	0.37014	-0.017
Mof_C 	C 	0.36632	0.77872	0.26581	-0.018
Mof_C 	C 	0.373	0.77121	0.25819	-0.017
Mof_C 	C 	0.25577	0.89103	0.31199	-0.018
Mof_C 	C 	0.2434	0.90292	0.312	-0.017
Mof_C 	C 	0.40401	0.75956	0.38018	-0.041
Mof_C 	C 	0.41269	0.75246	0.3893	-0.04
Mof_C 	C 	0.40756	0.75697	0.39875	0.015
Mof_C 	C 	0.04211	0.02669	0.26009	-0.07
Mof_C 	C 	0.39321	0.76903	0.39851	-0.04
Mof_C 	C 	0.2618	0.9017	0.81857	-0.019
Mof_C 	C 	0.38453	0.77613	0.38938	-0.041
Mof_C 	C 	0.38966	0.77162	0.37993	0.016
Mof_C 	C 	0.2188	0.92315	0.30269	-0.041
Mof_C 	C 	0.20488	0.93653	0.30273	-0.04
Mof_C 	C 	0.19947	0.94516	0.31212	0.015
Mof_C 	C 	0.20905	0.93938	0.32148	-0.04
Mof_C 	C 	0.22297	0.926	0.32144	-0.041
Mof_C 	C 	0.22837	0.91738	0.31204	0.016
Mof_C 	C 	0.39593	0.75068	0.25054	-0.041
Mof_C 	C 	0.05159	0.03158	0.26927	0.015
Mof_C 	C 	0.24956	0.91332	0.81891	-0.017
Mof_C 	C 	0.40359	0.74217	0.24202	-0.04
Mof_C 	C 	0.39702	0.74447	0.23138	0.015
Mof_C 	C 	0.38229	0.75586	0.22985	-0.04
Mof_C 	C 	0.37463	0.76437	0.23837	-0.041
Mof_C 	C 	0.3812	0.76207	0.24901	0.016
Mof_C 	C 	0.41687	0.74936	0.40855	-0.014
Mof_C 	C 	0.42452	0.74309	0.41664	-0.023
Mof_C 	C 	0.40526	0.73534	0.22222	-0.014
Mof_C 	C 	0.41203	0.72783	0.21464	-0.023
Mof_C 	C 	0.18444	0.9596	0.31217	-0.015
Mof_C 	C 	0.40666	0.4937	0.67762	-0.046
Mof_C 	C 	0.33173	0.75592	0.81634	-0.019
Mof_C 	C 	0.04733	0.03862	0.27912	-0.086
Mof_C 	C 	0.17207	0.9715	0.31221	-0.021
Mof_C 	C 	0.42862	0.74067	0.436	-0.065
Mof_C 	C 	0.43701	0.73359	0.44515	0.008
Mof_C 	C 	0.45106	0.72094	0.44541	-0.074
Mof_C 	C 	0.45618	0.71587	0.43588	0.008
Mof_C 	C 	0.44775	0.72297	0.42672	-0.065
Mof_C 	C 	0.43369	0.73556	0.42648	0.035
Mof_C 	C 	0.41584	0.72443	0.19591	-0.065
Mof_C 	C 	0.42342	0.71617	0.18734	0.007
Mof_C 	C 	0.33152	0.7433	0.81623	-0.017
Mof_C 	C 	0.43587	0.70169	0.18767	-0.073
Mof_C 	C 	0.03326	0.04041	0.27934	0.016
Mof_C 	C 	0.44021	0.69605	0.19721	0.007
Mof_C 	C 	0.43261	0.70434	0.20578	-0.064
Mof_C 	C 	0.42018	0.71882	0.20543	0.034
Mof_C 	C 	0.15195	0.99498	0.32171	-0.06
Mof_C 	C 	0.13719	0.0092	0.32178	-0
Mof_C 	C 	0.12726	0.01462	0.31239	-0.067
Mof_C 	C 	0.13237	0.00556	0.30293	-0
Mof_C 	C 	0.14714	0.99134	0.30288	-0.06
Mof_C 	C 	0.43539	0.83882	0.8174	-0.041
Mof_C 	C 	0.15705	0.98595	0.31226	0.03
Mof_C 	C 	0.19767	0.20421	0.17124	0.284
Mof_C 	C 	0.02388	0.03554	0.27022	-0.071
Mof_C 	C 	0.17231	0.16998	0.17161	0.308
Mof_C 	C 	0.14298	0.21356	0.14868	0.287
Mof_C 	C 	0.16062	0.15477	0.13064	0.296
Mof_C 	C 	0.1867	0.18758	0.12841	0.287
Mof_C 	C 	0.21572	0.14546	0.15179	0.3
Mof_C 	C 	0.25969	0.73562	0.00193	0.019
Mof_C 	C 	0.24477	0.74724	0.00175	-0.061
Mof_C 	C 	0.7677	0.88566	0.25751	-0.041
Mof_C 	C 	0.23294	0.75015	0.9914	0.019
Mof_C 	C 	0.23765	0.74053	0.9817	-0.064
Mof_C 	C 	0.25232	0.72862	0.98128	0.023
Mof_C 	C 	0.02802	0.02865	0.26038	0.04
Mof_C 	C 	0.26291	0.7262	0.99116	-0.064
Mof_C 	C 	0.20434	0.76267	0.98251	-0.034
Mof_C 	C 	0.18949	0.77435	0.98221	-0.045
Mof_C 	C 	0.1855	0.78735	0.99052	0.019
Mof_C 	C 	0.19749	0.78778	0.99921	-0.045
Mof_C 	C 	0.21238	0.77608	0.99954	-0.034
Mof_C 	C 	0.44946	0.83749	0.81719	-0.04
Mof_C 	C 	0.21648	0.76304	0.99117	-0
Mof_C 	C 	0.28751	0.72504	0.01236	-0.034
Mof_C 	C 	0.299	0.72167	0.02174	-0.045
Mof_C 	C 	0.29613	0.72536	0.03195	0.019
Mof_C 	C 	0.67007	0.98551	0.18001	0.303
Mof_C 	C 	0.2809	0.7328	0.03215	-0.045
Mof_C 	C 	0.26935	0.73623	0.02276	-0.034
Mof_C 	C 	0.2722	0.73238	0.01246	-0
Mof_C 	C 	0.27155	0.71175	0.96912	-0.033
Mof_C 	C 	0.27581	0.70223	0.95938	-0.046
Mof_C 	C 	0.46125	0.82294	0.81507	0.015
Mof_C 	C 	0.26566	0.69865	0.9503	0.02
Mof_C 	C 	0.25093	0.70529	0.95154	-0.046
Mof_C 	C 	0.24662	0.71486	0.96127	-0.033
Mof_C 	C 	0.25681	0.71839	0.97046	-0.002
Mof_C 	C 	0.30864	0.72154	0.04197	-0.018
Mof_C 	C 	0.89477	0.97148	0.13924	-0.072
Mof_C 	C 	0.64384	0.94712	0.162	0.299
Mof_C 	C 	0.31907	0.71831	0.05017	-0.017
Mof_C 	C 	0.16944	0.79993	0.9901	-0.018
Mof_C 	C 	0.15618	0.81023	0.98969	-0.017
Mof_C 	C 	0.45817	0.80979	0.81318	-0.04
Mof_C 	C 	0.27036	0.68834	0.93991	-0.019
Mof_C 	C 	0.27434	0.67979	0.93136	-0.017
Mof_C 	C 	0.33023	0.7225	0.07055	-0.041
Mof_C 	C 	0.34205	0.71881	0.07975	-0.04
Mof_C 	C 	0.35623	0.7067	0.07909	0.015
Mof_C 	C 	0.35777	0.69855	0.06861	-0.04
Mof_C 	C 	0.34595	0.70224	0.05942	-0.041
Mof_C 	C 	0.65639	0.97156	0.13905	0.309
Mof_C 	C 	0.33177	0.71435	0.06007	0.016
Mof_C 	C 	0.26939	0.67033	0.91093	-0.041
Mof_C 	C 	0.4441	0.81112	0.81339	-0.041
Mof_C 	C 	0.27394	0.66069	0.9013	-0.04
Mof_C 	C 	0.2886	0.64955	0.90116	0.015
Mof_C 	C 	0.29843	0.64865	0.91125	-0.04
Mof_C 	C 	0.29388	0.6583	0.92088	-0.041
Mof_C 	C 	0.27921	0.66944	0.92102	0.016
Mof_C 	C 	0.13476	0.83291	0.99829	-0.041
Mof_C 	C 	0.11981	0.84448	0.99779	-0.04
Mof_C 	C 	0.10907	0.84672	0.9881	0.015
Mof_C 	C 	0.68372	0.91237	0.13972	0.29
Mof_C 	C 	0.11439	0.83654	0.97896	-0.04
Mof_C 	C 	0.43231	0.82567	0.81551	0.017
Mof_C 	C 	0.12933	0.82497	0.97946	-0.041
Mof_C 	C 	0.14007	0.82273	0.98915	0.016
Mof_C 	C 	0.36896	0.70271	0.08898	-0.014
Mof_C 	C 	0.37948	0.6994	0.09712	-0.023
Mof_C 	C 	0.09296	0.8592	0.98756	-0.014
Mof_C 	C 	0.07968	0.86948	0.9871	-0.023
Mof_C 	C 	0.29348	0.63925	0.89082	-0.014
Mof_C 	C 	0.29746	0.63081	0.88224	-0.023
Mof_C 	C 	0.40415	0.68043	0.107	-0.065
Mof_C 	C 	0.71176	0.94975	0.1584	0.296
Mof_C 	C 	0.3188	0.72749	0.81744	-0.042
Mof_C 	C 	0.41614	0.67661	0.11607	0.008
Mof_C 	C 	0.41711	0.68739	0.12577	-0.075
Mof_C 	C 	0.40518	0.70228	0.12572	0.008
Mof_C 	C 	0.39318	0.70609	0.11663	-0.065
Mof_C 	C 	0.39228	0.6953	0.10695	0.034
Mof_C 	C 	0.05312	0.88489	0.97682	-0.064
Mof_C 	C 	0.03821	0.89656	0.97629	0.007
Mof_C 	C 	0.03262	0.90618	0.98547	-0.074
Mof_C 	C 	0.04309	0.90321	0.99521	0.007
Mof_C 	C 	0.05799	0.89153	0.99573	-0.064
Mof_C 	C 	0.39194	0.50321	0.67868	0.02
Mof_C 	C 	0.31856	0.7132	0.81732	-0.041
Mof_C 	C 	0.69994	0.9262	0.18217	0.288
Mof_C 	C 	0.06357	0.88197	0.98655	0.033
Mof_C 	C 	0.31315	0.60538	0.87101	-0.066
Mof_C 	C 	0.31752	0.59621	0.8612	0.009
Mof_C 	C 	0.31108	0.60193	0.85155	-0.076
Mof_C 	C 	0.30001	0.61734	0.85238	0.009
Mof_C 	C 	0.29568	0.62645	0.86215	-0.066
Mof_C 	C 	0.30212	0.6208	0.87178	0.035
Mof_C 	C 	0.99891	0.97892	0.0031	0.229
Mof_C 	C 	0.01646	0.91952	0.98488	0.29
Mof_C 	C 	0.33076	0.69886	0.81582	0.016
Mof_C 	C 	0.97239	0.94603	0.00527	0.256
Mof_C 	C 	0.82291	0.83026	0.31625	0.027
Mof_C 	C 	0.96139	0.92956	0.96206	0.288
Mof_C 	C 	0.94298	0.98808	0.98169	0.301
Mof_C 	C 	0.98685	0.96356	0.96216	0.313
Mof_C 	C 	0.31304	0.33137	0.32173	0.024
Mof_C 	C 	0.30603	0.32346	0.3123	-0.066
Mof_C 	C 	0.31226	0.31493	0.30301	0.024
Mof_C 	C 	0.32651	0.3145	0.3036	-0.065
Mof_C 	C 	0.33439	0.32206	0.31277	0.024
Mof_C 	C 	0.34322	0.69947	0.81447	-0.04
Mof_C 	C 	0.32715	0.33039	0.32161	-0.066
Mof_C 	C 	0.31082	0.29391	0.28502	-0.033
Mof_C 	C 	0.82362	0.8157	0.31668	-0.07
Mof_C 	C 	0.30307	0.28627	0.27591	-0.045
Mof_C 	C 	0.2876	0.29052	0.27374	0.018
Mof_C 	C 	0.28051	0.30306	0.2814	-0.045
Mof_C 	C 	0.28822	0.31069	0.2905	-0.033
Mof_C 	C 	0.30376	0.30647	0.29278	-0.002
Mof_C 	C 	0.31372	0.34381	0.34228	-0.033
Mof_C 	C 	0.30698	0.35222	0.35131	-0.045
Mof_C 	C 	0.34346	0.71376	0.8146	-0.041
Mof_C 	C 	0.29156	0.35823	0.35058	0.019
Mof_C 	C 	0.28339	0.35518	0.34012	-0.045
Mof_C 	C 	0.2901	0.34675	0.33107	-0.033
Mof_C 	C 	0.83187	0.80808	0.32557	0.027
Mof_C 	C 	0.30558	0.34069	0.33175	-0.002
Mof_C 	C 	0.36015	0.32416	0.32294	-0.033
Mof_C 	C 	0.37425	0.32379	0.32343	-0.045
Mof_C 	C 	0.37965	0.32068	0.31429	0.018
Mof_C 	C 	0.36978	0.31791	0.30458	-0.045
Mof_C 	C 	0.35565	0.31824	0.30406	-0.033
Mof_C 	C 	0.91639	0.97726	0.1483	-0.073
Mof_C 	C 	0.35013	0.32145	0.31323	-0.002
Mof_C 	C 	0.2843	0.36731	0.36034	-0.018
Mof_C 	C 	0.27831	0.37479	0.36836	-0.017
Mof_C 	C 	0.27915	0.28229	0.26391	-0.018
Mof_C 	C 	0.83954	0.81588	0.33452	-0.069
Mof_C 	C 	0.27214	0.27558	0.25584	-0.017
Mof_C 	C 	0.39493	0.32035	0.3149	-0.018
Mof_C 	C 	0.4075	0.32011	0.31545	-0.017
Mof_C 	C 	0.25686	0.38565	0.37825	-0.041
Mof_C 	C 	0.25011	0.39407	0.38728	-0.04
Mof_C 	C 	0.7699	0.8709	0.25854	0.017
Mof_C 	C 	0.25703	0.40135	0.39686	0.015
Mof_C 	C 	0.27121	0.39956	0.39672	-0.04
Mof_C 	C 	0.27796	0.39115	0.38769	-0.041
Mof_C 	C 	0.27104	0.38387	0.37811	0.016
Mof_C 	C 	0.43017	0.31283	0.30757	-0.041
Mof_C 	C 	0.83928	0.83066	0.33474	0.026
Mof_C 	C 	0.44431	0.31257	0.30822	-0.04
Mof_C 	C 	0.45222	0.31927	0.31751	0.014
Mof_C 	C 	0.44485	0.32626	0.3261	-0.04
Mof_C 	C 	0.43072	0.32652	0.32545	-0.041
Mof_C 	C 	0.33126	0.7281	0.81609	0.017
Mof_C 	C 	0.4228	0.31982	0.31615	0.015
Mof_C 	C 	0.24864	0.27014	0.24487	-0.041
Mof_C 	C 	0.24072	0.26263	0.23582	-0.04
Mof_C 	C 	0.24708	0.2518	0.22721	0.014
Mof_C 	C 	0.26201	0.2491	0.22838	-0.04
Mof_C 	C 	0.26994	0.25661	0.23743	-0.041
Mof_C 	C 	0.89116	0.97407	0.14919	0.029
Mof_C 	C 	0.83081	0.83749	0.32542	-0.069
Mof_C 	C 	0.26357	0.26744	0.24605	0.015
Mof_C 	C 	0.24974	0.41043	0.4066	-0.014
Mof_C 	C 	0.2332	0.94275	0.82116	-0.041
Mof_C 	C 	0.2437	0.41788	0.4146	-0.022
Mof_C 	C 	0.23849	0.24368	0.21741	-0.015
Mof_C 	C 	0.23142	0.237	0.20937	-0.022
Mof_C 	C 	0.46752	0.31898	0.31822	-0.015
Mof_C 	C 	0.48009	0.31873	0.31876	-0.022
Mof_C 	C 	0.24133	0.43688	0.43304	-0.063
Mof_C 	C 	0.23431	0.44521	0.44197	0.005
Mof_C 	C 	0.22167	0.44414	0.44279	-0.071
Mof_C 	C 	0.83393	0.78685	0.33455	-0.032
Mof_C 	C 	0.21664	0.43412	0.434	0.006
Mof_C 	C 	0.21929	0.95579	0.82149	-0.041
Mof_C 	C 	0.22365	0.42581	0.42511	-0.063
Mof_C 	C 	0.23624	0.42688	0.42428	0.032
Mof_C 	C 	0.20858	0.23009	0.1991	-0.062
Mof_C 	C 	0.20063	0.22251	0.19013	0.004
Mof_C 	C 	0.20622	0.21312	0.18089	-0.07
Mof_C 	C 	0.22046	0.21195	0.18138	0.004
Mof_C 	C 	0.2284	0.21954	0.19036	-0.062
Mof_C 	C 	0.2228	0.22889	0.1996	0.031
Mof_C 	C 	0.50426	0.32342	0.32888	-0.062
Mof_C 	C 	0.83375	0.77229	0.3341	-0.046
Mof_C 	C 	0.20609	0.95409	0.81994	0.016
Mof_C 	C 	0.51838	0.32309	0.32936	0.003
Mof_C 	C 	0.52475	0.31768	0.32033	-0.068
Mof_C 	C 	0.51582	0.31266	0.31082	0.004
Mof_C 	C 	0.50174	0.31299	0.31035	-0.062
Mof_C 	C 	0.49537	0.31839	0.31935	0.031
Mof_C 	C 	0.16226	0.23469	0.48822	0.032
Mof_C 	C 	0.15802	0.22535	0.47858	-0.074
Mof_C 	C 	0.15582	0.22842	0.46845	0.031
Mof_C 	C 	0.15819	0.24134	0.46817	-0.073
Mof_C 	C 	0.16254	0.25105	0.47764	0.031
Mof_C 	C 	0.3818	0.50785	0.66923	-0.046
Mof_C 	C 	0.20759	0.93861	0.81806	-0.041
Mof_C 	C 	0.83191	0.76186	0.32442	0.02
Mof_C 	C 	0.16445	0.24747	0.48755	-0.074
Mof_C 	C 	0.15565	0.21471	0.44869	-0.032
Mof_C 	C 	0.15158	0.20463	0.43942	-0.047
Mof_C 	C 	0.14278	0.19729	0.43919	0.022
Mof_C 	C 	0.13814	0.20051	0.44859	-0.047
Mof_C 	C 	0.1422	0.21053	0.45786	-0.031
Mof_C 	C 	0.15114	0.21786	0.4582	-0.005
Mof_C 	C 	0.17497	0.23402	0.50805	-0.031
Mof_C 	C 	0.17702	0.23049	0.51798	-0.048
Mof_C 	C 	0.2215	0.92558	0.81773	-0.041
Mof_C 	C 	0.1686	0.22387	0.51937	0.022
Mof_C 	C 	0.83036	0.7668	0.31523	-0.046
Mof_C 	C 	0.15804	0.22094	0.51046	-0.048
Mof_C 	C 	0.15599	0.22442	0.50052	-0.031
Mof_C 	C 	0.16442	0.23104	0.49905	-0.005
Mof_C 	C 	0.17541	0.2701	0.48533	-0.032
Mof_C 	C 	0.17758	0.28313	0.48518	-0.047
Mof_C 	C 	0.16952	0.29188	0.47705	0.022
Mof_C 	C 	0.15921	0.28695	0.46901	-0.047
Mof_C 	C 	0.15703	0.27388	0.46911	-0.032
Mof_C 	C 	0.2347	0.92728	0.81927	0.017
Mof_C 	C 	0.16503	0.26511	0.47731	-0.005
Mof_C 	C 	0.17078	0.22009	0.52987	-0.019
Mof_C 	C 	0.8305	0.78132	0.31565	-0.032
Mof_C 	C 	0.17256	0.21692	0.53859	-0.017
Mof_C 	C 	0.13852	0.18648	0.42942	-0.019
Mof_C 	C 	0.13492	0.17748	0.42136	-0.017
Mof_C 	C 	0.17183	0.30579	0.477	-0.019
Mof_C 	C 	0.17381	0.31734	0.47702	-0.017
Mof_C 	C 	0.17066	0.20168	0.54962	-0.042
Mof_C 	C 	0.17267	0.19802	0.55949	-0.04
Mof_C 	C 	0.47628	0.82153	0.81483	-0.014
Mof_C 	C 	0.17878	0.20561	0.56917	0.016
Mof_C 	C 	0.1828	0.217	0.5686	-0.04
Mof_C 	C 	0.18079	0.22066	0.55873	-0.042
Mof_C 	C 	0.83219	0.79195	0.32531	-0.003
Mof_C 	C 	0.17469	0.21306	0.54906	0.018
Mof_C 	C 	0.17306	0.33646	0.46765	-0.042
Mof_C 	C 	0.17535	0.34953	0.4677	-0.041
Mof_C 	C 	0.18092	0.35795	0.4772	0.016
Mof_C 	C 	0.1841	0.35272	0.48663	-0.04
Mof_C 	C 	0.1818	0.33965	0.48658	-0.042
Mof_C 	C 	0.48869	0.82043	0.81463	-0.024
Mof_C 	C 	0.17623	0.33124	0.47708	0.018
Mof_C 	C 	0.12819	0.15422	0.41257	-0.042
Mof_C 	C 	0.12405	0.144	0.40346	-0.041
Mof_C 	C 	0.12212	0.14575	0.39308	0.016
Mof_C 	C 	0.807	0.85403	0.30641	-0.032
Mof_C 	C 	0.12451	0.15814	0.39219	-0.04
Mof_C 	C 	0.12864	0.16835	0.4013	-0.042
Mof_C 	C 	0.13057	0.16661	0.41168	0.018
Mof_C 	C 	0.18093	0.20167	0.57961	-0.013
Mof_C 	C 	0.18271	0.19829	0.58825	-0.026
Mof_C 	C 	0.19122	0.96803	0.82029	-0.014
Mof_C 	C 	0.11765	0.13496	0.38339	-0.013
Mof_C 	C 	0.11387	0.12612	0.3753	-0.026
Mof_C 	C 	0.18335	0.37183	0.47724	-0.013
Mof_C 	C 	0.18533	0.38335	0.47721	-0.025
Mof_C 	C 	0.1888	0.17857	0.59912	-0.071
Mof_C 	C 	0.79838	0.86068	0.2971	-0.046
Mof_C 	C 	0.19042	0.17443	0.6087	0.016
Mof_C 	C 	0.18817	0.18556	0.61816	-0.084
Mof_C 	C 	0.18434	0.20102	0.61761	0.015
Mof_C 	C 	0.18271	0.20514	0.60799	-0.071
Mof_C 	C 	0.89714	0.87085	0.39938	-0.041
Mof_C 	C 	0.18481	0.194	0.59855	0.041
Mof_C 	C 	0.10058	0.12143	0.35604	-0.071
Mof_C 	C 	0.09586	0.11189	0.34675	0.016
Mof_C 	C 	0.09951	0.09613	0.34642	-0.086
Mof_C 	C 	0.10818	0.09036	0.35585	0.015
Mof_C 	C 	0.1129	0.09997	0.36517	-0.071
Mof_C 	C 	0.79606	0.8515	0.28691	0.02
Mof_C 	C 	0.10914	0.11572	0.36545	0.04
Mof_C 	C 	0.19203	0.40669	0.48641	-0.07
Mof_C 	C 	0.19398	0.41984	0.48615	0.014
Mof_C 	C 	0.17893	0.9796	0.82058	-0.023
Mof_C 	C 	0.19162	0.42409	0.47647	-0.083
Mof_C 	C 	0.1873	0.4145	0.4671	0.015
Mof_C 	C 	0.18537	0.40139	0.46738	-0.07
Mof_C 	C 	0.18763	0.39721	0.47702	0.039
Mof_C 	C 	0.42516	0.48119	0.63724	0.025
Mof_C 	C 	0.41436	0.47956	0.62742	-0.066
Mof_C 	C 	0.39925	0.48271	0.62719	0.025
Mof_C 	C 	0.33051	0.68366	0.81569	-0.014
Mof_C 	C 	0.33031	0.67103	0.81558	-0.025
Mof_C 	C 	0.3861	0.50327	0.65931	-0.033
Mof_C 	C 	0.51688	0.80585	0.81596	-0.068
Mof_C 	C 	0.53081	0.80488	0.81571	0.012
Mof_C 	C 	0.53225	0.81732	0.81382	-0.081
Mof_C 	C 	0.51894	0.83073	0.81221	0.012
Mof_C 	C 	0.50506	0.83167	0.81247	-0.068
Mof_C 	C 	0.50362	0.81928	0.81435	0.037
Mof_C 	C 	0.15098	0.99227	0.82013	-0.064
Mof_C 	C 	0.90495	0.87846	0.40831	-0.04
Mof_C 	C 	0.13631	0.00625	0.82046	0.006
Mof_C 	C 	0.13481	0.02159	0.8216	-0.079
Mof_C 	C 	0.81378	0.83775	0.3061	-0.003
Mof_C 	C 	0.14799	0.02289	0.8224	0.007
Mof_C 	C 	0.16263	0.00893	0.82207	-0.064
Mof_C 	C 	0.16412	0.99364	0.82093	0.034
Mof_C 	C 	0.3423	0.6415	0.81389	-0.07
Mof_C 	C 	0.34215	0.62717	0.81379	0.014
Mof_C 	C 	0.32978	0.62646	0.81524	-0.083
Mof_C 	C 	0.31756	0.64081	0.81678	0.014
Mof_C 	C 	0.31773	0.65513	0.81688	-0.07
Mof_C 	C 	0.90413	0.89333	0.40878	0.015
Mof_C 	C 	0.3301	0.6558	0.81544	0.039
Mof_C 	C 	0.40088	0.49374	0.65819	-0.003
Mof_C 	C 	0.32994	0.53607	0.81606	0.286
Mof_C 	C 	0.34355	0.55645	0.79062	0.292
Mof_C 	C 	0.29106	0.58505	0.79985	0.293
Mof_C 	C 	0.32971	0.6109	0.81524	0.296
Mof_C 	C 	0.31603	0.59263	0.8408	0.289
Mof_C 	C 	0.36861	0.56087	0.83174	0.289
Mof_C 	C 	0.41267	0.89413	0.63036	0.028
Mof_C 	C 	0.42223	0.89036	0.6403	-0.071
Mof_C 	C 	0.41998	0.9005	0.65026	0.028
Mof_C 	C 	0.89498	0.90008	0.39973	-0.04
Mof_C 	C 	0.48955	0.46943	0.6412	-0.018
Mof_C 	C 	0.40732	0.91505	0.6501	-0.07
Mof_C 	C 	0.3971	0.91973	0.64046	0.027
Mof_C 	C 	0.40007	0.90887	0.63067	-0.069
Mof_C 	C 	0.42676	0.90049	0.67066	-0.032
Mof_C 	C 	0.43696	0.89566	0.6802	-0.046
Mof_C 	C 	0.45201	0.88576	0.68047	0.021
Mof_C 	C 	0.45634	0.881	0.67071	-0.047
Mof_C 	C 	0.44619	0.88577	0.66118	-0.032
Mof_C 	C 	0.43104	0.89562	0.66081	-0.004
Mof_C 	C 	0.40527	0.88084	0.61053	-0.032
Mof_C 	C 	0.50302	0.46709	0.64244	-0.017
Mof_C 	C 	0.88717	0.89247	0.3908	-0.041
Mof_C 	C 	0.40879	0.8695	0.60112	-0.046
Mof_C 	C 	0.42347	0.85902	0.60035	0.02
Mof_C 	C 	0.4344	0.86064	0.60947	-0.046
Mof_C 	C 	0.43093	0.87189	0.61886	-0.032
Mof_C 	C 	0.41624	0.88232	0.61978	-0.003
Mof_C 	C 	0.37014	0.93903	0.6328	-0.033
Mof_C 	C 	0.35771	0.95382	0.63324	-0.046
Mof_C 	C 	0.35772	0.96664	0.64162	0.02
Mof_C 	C 	0.37097	0.96375	0.6495	-0.046
Mof_C 	C 	0.35078	0.47746	0.58729	-0.018
Mof_C 	C 	0.38338	0.949	0.64908	-0.033
Mof_C 	C 	0.88799	0.8776	0.39033	0.016
Mof_C 	C 	0.38345	0.93603	0.64074	-0.003
Mof_C 	C 	0.42741	0.84675	0.5904	-0.019
Mof_C 	C 	0.43089	0.8365	0.58225	-0.017
Mof_C 	C 	0.46293	0.88051	0.69059	-0.019
Mof_C 	C 	0.47207	0.87609	0.69893	-0.017
Mof_C 	C 	0.34442	0.98252	0.64218	-0.019
Mof_C 	C 	0.3335	0.99567	0.64271	-0.017
Mof_C 	C 	0.44962	0.81209	0.57273	-0.041
Mof_C 	C 	0.80292	0.8353	0.28654	-0.046
Mof_C 	C 	0.34036	0.4765	0.57923	-0.017
Mof_C 	C 	0.45372	0.80046	0.56359	-0.04
Mof_C 	C 	0.44368	0.80011	0.55364	0.015
Mof_C 	C 	0.82384	0.71051	0.31308	-0.041
Mof_C 	C 	0.42931	0.81208	0.55336	-0.04
Mof_C 	C 	0.4252	0.82371	0.5625	-0.041
Mof_C 	C 	0.43524	0.82406	0.57245	0.017
Mof_C 	C 	0.31857	0.02252	0.65305	-0.041
Mof_C 	C 	0.30629	0.03739	0.6537	-0.04
Mof_C 	C 	0.29495	0.04231	0.64473	0.015
Mof_C 	C 	0.29667	0.03141	0.63507	-0.04
Mof_C 	C 	0.38733	0.50813	0.6893	-0.019
Mof_C 	C 	0.30896	0.01654	0.63442	-0.041
Mof_C 	C 	0.3203	0.01162	0.64339	0.016
Mof_C 	C 	0.49654	0.85736	0.70862	-0.041
Mof_C 	C 	0.82349	0.69595	0.31232	-0.04
Mof_C 	C 	0.50693	0.85232	0.71803	-0.04
Mof_C 	C 	0.50445	0.86038	0.7283	0.016
Mof_C 	C 	0.49105	0.87372	0.72866	-0.041
Mof_C 	C 	0.48067	0.87876	0.71924	-0.041
Mof_C 	C 	0.48314	0.87071	0.70898	0.017
Mof_C 	C 	0.44809	0.78765	0.54386	-0.014
Mof_C 	C 	0.38352	0.5122	0.69808	-0.017
Mof_C 	C 	0.45176	0.77732	0.53579	-0.024
Mof_C 	C 	0.51549	0.85502	0.73836	-0.014
Mof_C 	C 	0.52451	0.85071	0.74677	-0.024
Mof_C 	C 	0.28177	0.05827	0.64542	-0.014
Mof_C 	C 	0.83022	0.68784	0.32088	0.015
Mof_C 	C 	0.27088	0.07145	0.64599	-0.023
Mof_C 	C 	0.44628	0.76418	0.5161	-0.067
Mof_C 	C 	0.45043	0.75228	0.50708	0.01
Mof_C 	C 	0.46484	0.74028	0.50747	-0.078
Mof_C 	C 	0.47482	0.74098	0.51744	0.01
Mof_C 	C 	0.52675	0.45853	0.63551	-0.041
Mof_C 	C 	0.47065	0.75287	0.52645	-0.067
Mof_C 	C 	0.45625	0.76478	0.52607	0.036
Mof_C 	C 	0.53085	0.85297	0.7669	-0.068
Mof_C 	C 	0.54039	0.84839	0.77662	0.013
Mof_C 	C 	0.55479	0.83637	0.77713	-0.08
Mof_C 	C 	0.86994	0.98055	0.1582	-0.032
Mof_C 	C 	0.83731	0.69516	0.33024	-0.04
Mof_C 	C 	0.55912	0.82922	0.76729	0.012
Mof_C 	C 	0.54949	0.83384	0.75751	-0.068
Mof_C 	C 	0.53507	0.84579	0.75708	0.037
Mof_C 	C 	0.54191	0.45599	0.637	-0.04
Mof_C 	C 	0.2473	0.09303	0.63754	-0.066
Mof_C 	C 	0.23494	0.10784	0.63816	0.009
Mof_C 	C 	0.23218	0.11802	0.64796	-0.076
Mof_C 	C 	0.24262	0.11238	0.6571	0.009
Mof_C 	C 	0.25497	0.09755	0.65646	-0.066
Mof_C 	C 	0.25769	0.0874	0.64667	0.035
Mof_C 	C 	0.33554	0.30386	0.81735	0.027
Mof_C 	C 	0.83766	0.70973	0.331	-0.041
Mof_C 	C 	0.32766	0.2966	0.80819	-0.069
Mof_C 	C 	0.31919	0.3034	0.79885	0.026
Mof_C 	C 	0.55088	0.45906	0.64713	0.015
Mof_C 	C 	0.31893	0.31818	0.79906	-0.069
Mof_C 	C 	0.32658	0.32601	0.808	0.027
Mof_C 	C 	0.33482	0.31841	0.81691	-0.07
Mof_C 	C 	0.29798	0.30324	0.78159	-0.033
Mof_C 	C 	0.29015	0.29565	0.77266	-0.046
Mof_C 	C 	0.29429	0.27939	0.77038	0.02
Mof_C 	C 	0.30681	0.2712	0.77765	-0.046
Mof_C 	C 	0.31465	0.27875	0.7866	-0.033
Mof_C 	C 	0.83094	0.71784	0.32244	0.017
Mof_C 	C 	0.31055	0.29509	0.78895	-0.003
Mof_C 	C 	0.84382	0.85528	0.34702	-0.033
Mof_C 	C 	0.3469	0.3056	0.83781	-0.032
Mof_C 	C 	0.35548	0.299	0.8471	-0.046
Mof_C 	C 	0.3624	0.28281	0.84678	0.02
Mof_C 	C 	0.36012	0.27357	0.8366	-0.046
Mof_C 	C 	0.35149	0.28016	0.82727	-0.032
Mof_C 	C 	0.34466	0.29643	0.82754	-0.003
Mof_C 	C 	0.32791	0.35278	0.81793	-0.033
Mof_C 	C 	0.32807	0.36729	0.81835	-0.046
Mof_C 	C 	0.32657	0.37222	0.80917	0.02
Mof_C 	C 	0.74295	0.89063	0.22907	-0.014
Mof_C 	C 	0.54353	0.46486	0.65565	-0.04
Mof_C 	C 	0.32475	0.36178	0.79949	-0.046
Mof_C 	C 	0.32456	0.34723	0.79903	-0.033
Mof_C 	C 	0.32625	0.34214	0.80826	-0.003
Mof_C 	C 	0.37168	0.27588	0.85679	-0.019
Mof_C 	C 	0.37934	0.27031	0.86513	-0.017
Mof_C 	C 	0.28588	0.27123	0.76077	-0.019
Mof_C 	C 	0.27895	0.26449	0.75285	-0.017
Mof_C 	C 	0.3269	0.38777	0.80978	-0.019
Mof_C 	C 	0.32722	0.40064	0.8104	-0.017
Mof_C 	C 	0.39059	0.24904	0.87641	-0.041
Mof_C 	C 	0.52838	0.46739	0.65416	-0.041
Mof_C 	C 	0.73538	0.89634	0.22077	-0.024
Mof_C 	C 	0.39923	0.24282	0.88587	-0.04
Mof_C 	C 	0.40636	0.25085	0.8947	0.015
Mof_C 	C 	0.40436	0.26545	0.89353	-0.04
Mof_C 	C 	0.39573	0.27166	0.88407	-0.041
Mof_C 	C 	0.38859	0.26364	0.87524	0.017
Mof_C 	C 	0.32063	0.42454	0.80275	-0.041
Mof_C 	C 	0.32101	0.4391	0.80353	-0.041
Mof_C 	C 	0.32839	0.44622	0.81282	0.015
Mof_C 	C 	0.33539	0.43792	0.82129	-0.041
Mof_C 	C 	0.5194	0.46433	0.64404	0.016
Mof_C 	C 	0.33501	0.42336	0.82051	-0.041
Mof_C 	C 	0.82985	0.67224	0.32008	-0.014
Mof_C 	C 	0.32762	0.41623	0.81122	0.016
Mof_C 	C 	0.27138	0.24142	0.74279	-0.041
Mof_C 	C 	0.26358	0.2338	0.73386	-0.04
Mof_C 	C 	0.25444	0.24052	0.7248	0.015
Mof_C 	C 	0.25361	0.2554	0.72526	-0.04
Mof_C 	C 	0.26141	0.26302	0.73419	-0.041
Mof_C 	C 	0.27056	0.25629	0.74325	0.016
Mof_C 	C 	0.41557	0.24418	0.90481	-0.014
Mof_C 	C 	0.39552	0.48719	0.63736	-0.068
Mof_C 	C 	0.36487	0.51938	0.70936	-0.041
Mof_C 	C 	0.42314	0.23854	0.91314	-0.024
Mof_C 	C 	0.24607	0.2323	0.7152	-0.014
Mof_C 	C 	0.82957	0.65936	0.31948	-0.024
Mof_C 	C 	0.2392	0.22545	0.70731	-0.023
Mof_C 	C 	0.32879	0.46182	0.81364	-0.014
Mof_C 	C 	0.32909	0.4747	0.81427	-0.023
Mof_C 	C 	0.44198	0.23707	0.93131	-0.066
Mof_C 	C 	0.45038	0.23018	0.94057	0.009
Mof_C 	C 	0.44939	0.21725	0.94213	-0.076
Mof_C 	C 	0.4395	0.21174	0.9339	0.01
Mof_C 	C 	0.36058	0.52397	0.71929	-0.041
Mof_C 	C 	0.43116	0.21861	0.92471	-0.067
Mof_C 	C 	0.43214	0.23145	0.92311	0.036
Mof_C 	C 	0.22058	0.22394	0.68909	-0.065
Mof_C 	C 	0.91251	0.90152	0.41837	-0.014
Mof_C 	C 	0.21287	0.21598	0.68032	0.007
Mof_C 	C 	0.21506	0.2005	0.67969	-0.073
Mof_C 	C 	0.22547	0.1936	0.68843	0.008
Mof_C 	C 	0.23314	0.20155	0.69716	-0.065
Mof_C 	C 	0.23095	0.21699	0.69781	0.034
Mof_C 	C 	0.32462	0.49689	0.80577	-0.066
Mof_C 	C 	0.3701	0.52657	0.72915	0.015
Mof_C 	C 	0.32483	0.51138	0.80623	0.009
Mof_C 	C 	0.32983	0.52024	0.81583	-0.075
Mof_C 	C 	0.33462	0.51362	0.82498	0.009
Mof_C 	C 	0.33439	0.49906	0.8245	-0.066
Mof_C 	C 	0.9194	0.90835	0.42626	-0.023
Mof_C 	C 	0.32938	0.49027	0.81488	0.035
Mof_C 	C 	0.73956	0.17354	0.97697	0.028
Mof_C 	C 	0.73813	0.18866	0.97699	-0.071
Mof_C 	C 	0.7244	0.202	0.97682	0.03
Mof_C 	C 	0.71179	0.19992	0.9765	-0.073
Mof_C 	C 	0.38416	0.52431	0.72851	-0.04
Mof_C 	C 	0.71234	0.18535	0.97654	0.029
Mof_C 	C 	0.72635	0.17223	0.97666	-0.071
Mof_C 	C 	0.71243	0.23202	0.98188	-0.032
Mof_C 	C 	0.71047	0.24715	0.98175	-0.047
Mof_C 	C 	0.71878	0.24952	0.97669	0.022
Mof_C 	C 	0.72723	0.9165	0.20935	-0.067
Mof_C 	C 	0.72932	0.23602	0.97186	-0.047
Mof_C 	C 	0.73134	0.22082	0.972	-0.032
Mof_C 	C 	0.72284	0.2184	0.97694	-0.004
Mof_C 	C 	0.75642	0.1437	0.97303	-0.032
Mof_C 	C 	0.38845	0.51971	0.71858	-0.041
Mof_C 	C 	0.7705	0.13076	0.9733	-0.046
Mof_C 	C 	0.78394	0.13252	0.97796	0.021
Mof_C 	C 	0.78252	0.14794	0.98236	-0.046
Mof_C 	C 	0.76849	0.16088	0.98209	-0.032
Mof_C 	C 	0.75492	0.15924	0.97738	-0.003
Mof_C 	C 	0.69469	0.17121	0.97123	-0.032
Mof_C 	C 	0.85748	0.97879	0.15876	-0.047
Mof_C 	C 	0.71888	0.92345	0.20019	0.01
Mof_C 	C 	0.68098	0.17102	0.97076	-0.047
Mof_C 	C 	0.66989	0.1839	0.97554	0.021
Mof_C 	C 	0.37893	0.51711	0.70871	0.017
Mof_C 	C 	0.67323	0.19687	0.98091	-0.047
Mof_C 	C 	0.68684	0.19711	0.98137	-0.032
Mof_C 	C 	0.69794	0.18438	0.97645	-0.004
Mof_C 	C 	0.79902	0.11874	0.97825	-0.019
Mof_C 	C 	0.81154	0.10741	0.97852	-0.017
Mof_C 	C 	0.71642	0.26571	0.9765	-0.019
Mof_C 	C 	0.71429	0.27924	0.9764	-0.017
Mof_C 	C 	0.65516	0.18402	0.97498	-0.019
Mof_C 	C 	0.7091	0.91786	0.19189	-0.076
Mof_C 	C 	0.64285	0.18441	0.97461	-0.017
Mof_C 	C 	0.32922	0.4708	0.55877	-0.041
Mof_C 	C 	0.8398	0.09581	0.98078	-0.041
Mof_C 	C 	0.85397	0.08305	0.9811	-0.04
Mof_C 	C 	0.85584	0.0675	0.97952	0.015
Mof_C 	C 	0.84273	0.06544	0.9776	-0.04
Mof_C 	C 	0.82856	0.0782	0.97728	-0.041
Mof_C 	C 	0.82669	0.09375	0.97885	0.017
Mof_C 	C 	0.61578	0.19933	0.97607	-0.041
Mof_C 	C 	0.60178	0.2	0.97572	-0.041
Mof_C 	C 	0.59928	0.18644	0.97348	0.016
Mof_C 	C 	0.70824	0.90479	0.19334	0.009
Mof_C 	C 	0.85167	0.86281	0.35597	-0.046
Mof_C 	C 	0.61144	0.17219	0.97161	-0.041
Mof_C 	C 	0.62544	0.17153	0.97197	-0.041
Mof_C 	C 	0.62794	0.18508	0.9742	0.017
Mof_C 	C 	0.72278	0.29904	0.9755	-0.042
Mof_C 	C 	0.72028	0.31442	0.97544	-0.041
Mof_C 	C 	0.70651	0.32702	0.9762	0.016
Mof_C 	C 	0.69536	0.32357	0.97701	-0.041
Mof_C 	C 	0.69786	0.30819	0.97707	-0.042
Mof_C 	C 	0.71163	0.29558	0.97631	0.017
Mof_C 	C 	0.871	0.05384	0.97988	-0.014
Mof_C 	C 	0.31739	0.46983	0.54976	-0.04
Mof_C 	C 	0.71665	0.89782	0.20256	-0.066
Mof_C 	C 	0.88352	0.04252	0.98017	-0.024
Mof_C 	C 	0.7039	0.34336	0.97614	-0.013
Mof_C 	C 	0.70188	0.35687	0.9761	-0.025
Mof_C 	C 	0.58438	0.18713	0.97313	-0.014
Mof_C 	C 	0.57208	0.1876	0.97285	-0.025
Mof_C 	C 	0.90073	0.01376	0.98087	-0.068
Mof_C 	C 	0.91481	0.00088	0.98122	0.013
Mof_C 	C 	0.92766	0.00223	0.98125	-0.083
Mof_C 	C 	0.92554	0.01729	0.9809	0.013
Mof_C 	C 	0.30303	0.47339	0.55075	0.014
Mof_C 	C 	0.91143	0.03018	0.98055	-0.068
Mof_C 	C 	0.72637	0.90352	0.21083	0.036
Mof_C 	C 	0.89863	0.02877	0.98053	0.037
Mof_C 	C 	0.68617	0.38604	0.97637	-0.07
Mof_C 	C 	0.68443	0.40119	0.97634	0.014
Mof_C 	C 	0.69629	0.40394	0.97598	-0.083
Mof_C 	C 	0.70988	0.39083	0.97564	0.015
Mof_C 	C 	0.71158	0.37578	0.97567	-0.07
Mof_C 	C 	0.6998	0.37301	0.97604	0.039
Mof_C 	C 	0.55616	0.1745	0.97285	-0.069
Mof_C 	C 	0.40563	0.4888	0.64731	0.026
Mof_C 	C 	0.30143	0.47801	0.56146	-0.04
Mof_C 	C 	0.54247	0.17464	0.97263	0.014
Mof_C 	C 	0.52918	0.18823	0.97207	-0.083
Mof_C 	C 	0.83424	0.63709	0.32797	-0.066
Mof_C 	C 	0.53035	0.2017	0.97171	0.013
Mof_C 	C 	0.54411	0.20153	0.97194	-0.069
Mof_C 	C 	0.55735	0.18792	0.97253	0.038
Mof_C 	C 	0.0674	0.05033	0.33029	0.311
Mof_C 	C 	0.05671	0.04503	0.2891	0.301
Mof_C 	C 	0.04011	0.09999	0.31307	0.301
Mof_C 	C 	0.08532	0.07883	0.29531	0.307
Mof_C 	C 	0.31325	0.47898	0.57047	-0.041
Mof_C 	C 	0.09358	0.08632	0.33637	0.3
Mof_C 	C 	0.11198	0.02942	0.31247	0.284
Mof_C 	C 	0.84581	0.80213	0.81192	0.024
Mof_C 	C 	0.83405	0.62258	0.32752	0.009
Mof_C 	C 	0.8317	0.80312	0.81206	-0.066
Mof_C 	C 	0.82446	0.8115	0.82089	0.024
Mof_C 	C 	0.83234	0.81907	0.83004	-0.065
Mof_C 	C 	0.8466	0.81863	0.83062	0.023
Mof_C 	C 	0.85282	0.81006	0.82133	-0.066
Mof_C 	C 	0.80319	0.8153	0.82958	-0.033
Mof_C 	C 	0.3276	0.47542	0.56948	0.016
Mof_C 	C 	0.78907	0.81561	0.82905	-0.045
Mof_C 	C 	0.77922	0.81283	0.81934	0.018
Mof_C 	C 	0.78462	0.80974	0.8102	-0.045
Mof_C 	C 	0.79872	0.80939	0.81071	-0.033
Mof_C 	C 	0.82891	0.6138	0.31794	-0.076
Mof_C 	C 	0.80872	0.8121	0.82042	-0.002
Mof_C 	C 	0.86873	0.78666	0.80257	-0.033
Mof_C 	C 	0.87542	0.77819	0.79353	-0.045
Mof_C 	C 	0.86723	0.77514	0.78308	0.019
Mof_C 	C 	0.85181	0.78121	0.78235	-0.045
Mof_C 	C 	0.56725	0.45632	0.64873	-0.014
Mof_C 	C 	0.84509	0.78966	0.79138	-0.033
Mof_C 	C 	0.85325	0.79277	0.80191	-0.002
Mof_C 	C 	0.87064	0.82288	0.84308	-0.033
Mof_C 	C 	0.87837	0.83054	0.85216	-0.045
Mof_C 	C 	0.87129	0.84311	0.85981	0.018
Mof_C 	C 	0.82396	0.6205	0.30881	0.009
Mof_C 	C 	0.85583	0.84737	0.85765	-0.045
Mof_C 	C 	0.84806	0.83971	0.84857	-0.033
Mof_C 	C 	0.8551	0.82712	0.84082	-0.002
Mof_C 	C 	0.87447	0.76601	0.77332	-0.018
Mof_C 	C 	0.58072	0.45406	0.65001	-0.022
Mof_C 	C 	0.88043	0.75849	0.76529	-0.017
Mof_C 	C 	0.76395	0.81313	0.81871	-0.018
Mof_C 	C 	0.75138	0.81335	0.81813	-0.017
Mof_C 	C 	0.87976	0.85136	0.86961	-0.018
Mof_C 	C 	0.88679	0.85809	0.87764	-0.017
Mof_C 	C 	0.88071	0.74211	0.74598	-0.041
Mof_C 	C 	0.82416	0.63506	0.30928	-0.066
Mof_C 	C 	0.88743	0.73364	0.73694	-0.04
Mof_C 	C 	0.90162	0.73179	0.73679	0.015
Mof_C 	C 	0.90858	0.73905	0.74634	-0.04
Mof_C 	C 	0.29025	0.47235	0.54102	-0.014
Mof_C 	C 	0.90187	0.74751	0.75538	-0.041
Mof_C 	C 	0.88768	0.74936	0.75554	0.016
Mof_C 	C 	0.88954	0.87598	0.89648	-0.041
Mof_C 	C 	0.89748	0.88351	0.9055	-0.04
Mof_C 	C 	0.91192	0.88192	0.90618	0.014
Mof_C 	C 	0.91775	0.8722	0.8971	-0.04
Mof_C 	C 	0.90981	0.86467	0.88808	-0.041
Mof_C 	C 	0.85175	0.96859	0.15093	0.021
Mof_C 	C 	0.82931	0.64378	0.31888	0.035
Mof_C 	C 	0.89538	0.86625	0.88741	0.015
Mof_C 	C 	0.27971	0.47149	0.53302	-0.022
Mof_C 	C 	0.72811	0.80708	0.80804	-0.041
Mof_C 	C 	0.71398	0.80731	0.80736	-0.04
Mof_C 	C 	0.70668	0.81409	0.81598	0.014
Mof_C 	C 	0.71466	0.82061	0.82533	-0.04
Mof_C 	C 	0.72879	0.82038	0.82602	-0.041
Mof_C 	C 	0.73609	0.8136	0.8174	0.015
Mof_C 	C 	0.90888	0.72266	0.72704	-0.014
Mof_C 	C 	0.9149	0.71517	0.71903	-0.022
Mof_C 	C 	0.69139	0.81434	0.81524	-0.014
Mof_C 	C 	0.92566	0.93213	0.43634	-0.065
Mof_C 	C 	0.36551	0.53151	0.73979	-0.014
Mof_C 	C 	0.67883	0.81456	0.81467	-0.022
Mof_C 	C 	0.92053	0.89006	0.91594	-0.014
Mof_C 	C 	0.92761	0.89675	0.92396	-0.022
Mof_C 	C 	0.93476	0.70739	0.7084	-0.064
Mof_C 	C 	0.94174	0.69906	0.69951	0.006
Mof_C 	C 	0.93686	0.6888	0.69084	-0.072
Mof_C 	C 	0.92438	0.68754	0.69178	0.006
Mof_C 	C 	0.91738	0.69591	0.70071	-0.063
Mof_C 	C 	0.92233	0.70614	0.70936	0.032
Mof_C 	C 	0.65727	0.82008	0.82309	-0.062
Mof_C 	C 	0.86422	0.85459	0.3632	0.02
Mof_C 	C 	0.93335	0.94005	0.44507	0.008
Mof_C 	C 	0.6432	0.82038	0.82261	0.004
Mof_C 	C 	0.6342	0.81552	0.81307	-0.068
Mof_C 	C 	0.64049	0.81032	0.80402	0.004
Mof_C 	C 	0.6546	0.81002	0.80451	-0.062
Mof_C 	C 	0.66355	0.81488	0.81407	0.031
Mof_C 	C 	0.95058	0.90345	0.93427	-0.063
Mof_C 	C 	0.95853	0.91105	0.94323	0.005
Mof_C 	C 	0.95282	0.92069	0.95239	-0.071
Mof_C 	C 	0.93847	0.9221	0.95182	0.005
Mof_C 	C 	0.36174	0.53561	0.74859	-0.024
Mof_C 	C 	0.93053	0.9145	0.94286	-0.063
Mof_C 	C 	0.9436	0.9332	0.45387	-0.076
Mof_C 	C 	0.93624	0.90489	0.93371	0.031
Mof_C 	C 	0.84477	0.29994	0.8218	0.025
Mof_C 	C 	0.83651	0.3064	0.81227	-0.067
Mof_C 	C 	0.8224	0.31954	0.8116	0.026
Mof_C 	C 	0.8166	0.32637	0.82101	-0.069
Mof_C 	C 	0.82383	0.3207	0.83077	0.026
Mof_C 	C 	0.83799	0.30749	0.83094	-0.067
Mof_C 	C 	0.79774	0.33433	0.79888	-0.032
Mof_C 	C 	0.42023	0.48573	0.64694	-0.068
Mof_C 	C 	0.60651	0.45354	0.66154	-0.063
Mof_C 	C 	0.78942	0.34107	0.7896	-0.046
Mof_C 	C 	0.79611	0.34044	0.78188	0.02
Mof_C 	C 	0.9456	0.91781	0.45331	0.008
Mof_C 	C 	0.8117	0.33247	0.784	-0.046
Mof_C 	C 	0.82008	0.32566	0.7933	-0.033
Mof_C 	C 	0.8134	0.32646	0.80115	-0.003
Mof_C 	C 	0.8666	0.27518	0.82955	-0.033
Mof_C 	C 	0.8806	0.26186	0.82967	-0.045
Mof_C 	C 	0.88954	0.25755	0.82237	0.019
Mof_C 	C 	0.88342	0.26758	0.81496	-0.045
Mof_C 	C 	0.62162	0.45106	0.6628	0.005
Mof_C 	C 	0.86943	0.28087	0.81481	-0.033
Mof_C 	C 	0.86035	0.28527	0.82209	-0.002
Mof_C 	C 	0.82407	0.32962	0.85142	-0.033
Mof_C 	C 	0.93787	0.90988	0.44454	-0.065
Mof_C 	C 	0.81684	0.33784	0.86021	-0.045
Mof_C 	C 	0.80127	0.34593	0.85885	0.019
Mof_C 	C 	0.79343	0.34513	0.84813	-0.046
Mof_C 	C 	0.8006	0.33699	0.83937	-0.033
Mof_C 	C 	0.81621	0.32902	0.84063	-0.003
Mof_C 	C 	0.90465	0.24318	0.82247	-0.018
Mof_C 	C 	0.62844	0.44608	0.65406	-0.071
Mof_C 	C 	0.91709	0.23136	0.82251	-0.017
Mof_C 	C 	0.78702	0.34787	0.77199	-0.019
Mof_C 	C 	0.77937	0.35407	0.76386	-0.017
Mof_C 	C 	0.79334	0.35492	0.86818	-0.018
Mof_C 	C 	0.92766	0.91678	0.43575	0.034
Mof_C 	C 	0.7866	0.36242	0.87577	-0.017
Mof_C 	C 	0.93767	0.20835	0.81317	-0.041
Mof_C 	C 	0.95167	0.19506	0.81319	-0.04
Mof_C 	C 	0.96127	0.18942	0.82258	0.015
Mof_C 	C 	0.9558	0.19808	0.83195	-0.04
Mof_C 	C 	0.61895	0.44381	0.64401	0.005
Mof_C 	C 	0.9418	0.21136	0.83192	-0.041
Mof_C 	C 	0.9322	0.21701	0.82253	0.016
Mof_C 	C 	0.76355	0.38288	0.88332	-0.041
Mof_C 	C 	0.75582	0.39137	0.89181	-0.04
Mof_C 	C 	0.76233	0.38912	0.90246	0.015
Mof_C 	C 	0.19294	0.43872	0.47599	0.295
Mof_C 	C 	0.77709	0.37779	0.90405	-0.04
Mof_C 	C 	0.78483	0.3693	0.89556	-0.041
Mof_C 	C 	0.77831	0.37155	0.88491	0.016
Mof_C 	C 	0.77502	0.35693	0.74452	-0.041
Mof_C 	C 	0.60389	0.44629	0.64276	-0.063
Mof_C 	C 	0.76628	0.36398	0.73538	-0.04
Mof_C 	C 	0.752	0.37617	0.73519	0.015
Mof_C 	C 	0.74701	0.38087	0.74472	-0.04
Mof_C 	C 	0.75575	0.37382	0.75386	-0.041
Mof_C 	C 	0.77002	0.36163	0.75405	0.016
Mof_C 	C 	0.97638	0.17507	0.8226	-0.014
Mof_C 	C 	0.17172	0.49663	0.49547	0.3
Mof_C 	C 	0.98882	0.16326	0.82261	-0.022
Mof_C 	C 	0.74264	0.38372	0.72538	-0.014
Mof_C 	C 	0.73493	0.38994	0.71726	-0.023
Mof_C 	C 	0.59706	0.45128	0.65147	0.032
Mof_C 	C 	0.75402	0.39824	0.91159	-0.014
Mof_C 	C 	0.74718	0.40574	0.91912	-0.023
Mof_C 	C 	0.01391	0.14369	0.83203	-0.063
Mof_C 	C 	0.02789	0.13038	0.83201	0.005
Mof_C 	C 	0.03298	0.12124	0.82256	-0.071
Mof_C 	C 	0.02297	0.12647	0.81313	0.005
Mof_C 	C 	0.009	0.13978	0.81316	-0.063
Mof_C 	C 	0.22827	0.46882	0.49516	0.283
Mof_C 	C 	0.00393	0.1489	0.8226	0.032
Mof_C 	C 	0.71154	0.40987	0.70715	-0.065
Mof_C 	C 	0.25543	0.46704	0.52384	-0.063
Mof_C 	C 	0.70304	0.41694	0.69798	0.008
Mof_C 	C 	0.70816	0.41196	0.68846	-0.074
Mof_C 	C 	0.7223	0.39946	0.68874	0.008
Mof_C 	C 	0.73077	0.39242	0.6979	-0.065
Mof_C 	C 	0.72569	0.39742	0.70741	0.034
Mof_C 	C 	0.7433	0.40921	0.93785	-0.064
Mof_C 	C 	0.73564	0.41745	0.94638	0.007
Mof_C 	C 	0.72309	0.43185	0.94597	-0.072
Mof_C 	C 	0.85914	0.96026	0.14249	-0.047
Mof_C 	C 	0.19388	0.51135	0.47244	0.295
Mof_C 	C 	0.24345	0.46626	0.51492	0.005
Mof_C 	C 	0.71874	0.43742	0.93641	0.007
Mof_C 	C 	0.72642	0.42914	0.92787	-0.064
Mof_C 	C 	0.73894	0.41474	0.9283	0.034
Mof_C 	C 	0.95255	0.39877	0.65677	0.029
Mof_C 	C 	0.95317	0.4129	0.65702	-0.072
Mof_C 	C 	0.94075	0.42741	0.65733	0.03
Mof_C 	C 	0.92707	0.42763	0.6573	-0.071
Mof_C 	C 	0.92546	0.41396	0.65703	0.028
Mof_C 	C 	0.93845	0.39953	0.65663	-0.07
Mof_C 	C 	0.93067	0.45477	0.65286	-0.032
Mof_C 	C 	0.24198	0.46879	0.50475	-0.07
Mof_C 	C 	0.21355	0.4533	0.4524	0.283
Mof_C 	C 	0.93233	0.46832	0.6531	-0.047
Mof_C 	C 	0.94562	0.47017	0.65821	0.022
Mof_C 	C 	0.95715	0.45793	0.66312	-0.047
Mof_C 	C 	0.95554	0.44438	0.66287	-0.031
Mof_C 	C 	0.94227	0.44237	0.65771	-0.005
Mof_C 	C 	0.96732	0.36864	0.6513	-0.032
Mof_C 	C 	0.98086	0.35506	0.65082	-0.046
Mof_C 	C 	0.99484	0.35554	0.65575	0.021
Mof_C 	C 	0.99453	0.37025	0.66131	-0.046
Mof_C 	C 	0.86839	0.83832	0.3609	-0.046
Mof_C 	C 	0.98109	0.38378	0.66177	-0.032
Mof_C 	C 	0.15695	0.4838	0.45451	0.293
Mof_C 	C 	0.96702	0.3835	0.65669	-0.004
Mof_C 	C 	0.90524	0.40301	0.65241	-0.032
Mof_C 	C 	0.89091	0.40463	0.65236	-0.046
Mof_C 	C 	0.88059	0.41848	0.65719	0.02
Mof_C 	C 	0.88546	0.43054	0.66216	-0.046
Mof_C 	C 	0.8997	0.42897	0.6622	-0.032
Mof_C 	C 	0.91008	0.41521	0.65725	-0.003
Mof_C 	C 	0.00942	0.34128	0.6552	-0.019
Mof_C 	C 	0.37153	0.49006	0.61627	-0.033
Mof_C 	C 	0.25348	0.47217	0.50423	0.005
Mof_C 	C 	0.02164	0.32967	0.65484	-0.017
Mof_C 	C 	0.94748	0.48448	0.65845	-0.019
Mof_C 	C 	0.23344	0.71863	0.47655	0.028
Mof_C 	C 	0.94914	0.49631	0.65868	-0.017
Mof_C 	C 	0.8652	0.42045	0.65713	-0.019
Mof_C 	C 	0.85242	0.42229	0.65714	-0.017
Mof_C 	C 	0.04976	0.31757	0.65653	-0.041
Mof_C 	C 	0.06368	0.30458	0.65621	-0.04
Mof_C 	C 	0.0651	0.28908	0.65379	0.015
Mof_C 	C 	0.05183	0.28727	0.65172	-0.04
Mof_C 	C 	0.26547	0.47295	0.51317	-0.063
Mof_C 	C 	0.0379	0.30026	0.65205	-0.042
Mof_C 	C 	0.03649	0.31577	0.65446	0.017
Mof_C 	C 	0.82551	0.43959	0.65907	-0.041
Mof_C 	C 	0.22047	0.73308	0.47696	-0.07
Mof_C 	C 	0.81105	0.44181	0.65914	-0.04
Mof_C 	C 	0.80719	0.42921	0.65732	0.015
Mof_C 	C 	0.81862	0.41427	0.65544	-0.04
Mof_C 	C 	0.83308	0.41205	0.65537	-0.041
Mof_C 	C 	0.83695	0.42464	0.65719	0.017
Mof_C 	C 	0.96526	0.50994	0.66005	-0.042
Mof_C 	C 	0.26688	0.47047	0.52332	0.032
Mof_C 	C 	0.96722	0.52332	0.66035	-0.04
Mof_C 	C 	0.9552	0.53787	0.65958	0.016
Mof_C 	C 	0.94115	0.53846	0.65851	-0.04
Mof_C 	C 	0.93919	0.52508	0.65821	-0.042
Mof_C 	C 	0.20634	0.73388	0.4768	0.029
Mof_C 	C 	0.95121	0.51053	0.65897	0.018
Mof_C 	C 	0.07997	0.27519	0.65346	-0.014
Mof_C 	C 	0.09224	0.26363	0.65318	-0.024
Mof_C 	C 	0.95725	0.55211	0.65991	-0.013
Mof_C 	C 	0.95886	0.56399	0.66018	-0.025
Mof_C 	C 	0.36378	0.54883	0.76837	-0.067
Mof_C 	C 	0.79172	0.43157	0.6574	-0.014
Mof_C 	C 	0.77896	0.43343	0.65747	-0.024
Mof_C 	C 	0.10857	0.23461	0.65295	-0.068
Mof_C 	C 	0.12223	0.22131	0.65262	0.013
Mof_C 	C 	0.13514	0.2221	0.65217	-0.082
Mof_C 	C 	0.20569	0.71975	0.47653	-0.072
Mof_C 	C 	0.13356	0.23705	0.65208	0.012
Mof_C 	C 	0.11982	0.25039	0.65241	-0.068
Mof_C 	C 	0.10696	0.24952	0.65285	0.037
Mof_C 	C 	0.94877	0.59318	0.66147	-0.071
Mof_C 	C 	0.35953	0.55366	0.77832	0.011
Mof_C 	C 	0.95018	0.60683	0.66169	0.016
Mof_C 	C 	0.96347	0.60642	0.66096	-0.085
Mof_C 	C 	0.97532	0.59163	0.66002	0.015
Mof_C 	C 	0.97388	0.57794	0.6598	-0.07
Mof_C 	C 	0.96056	0.57844	0.6605	0.04
Mof_C 	C 	0.76099	0.423	0.65807	-0.067
Mof_C 	C 	0.21809	0.70522	0.4762	0.03
Mof_C 	C 	0.74672	0.42472	0.65812	0.011
Mof_C 	C 	0.73414	0.43904	0.65766	-0.08
Mof_C 	C 	0.73675	0.45157	0.65716	0.011
Mof_C 	C 	0.34847	0.55058	0.7798	-0.078
Mof_C 	C 	0.75108	0.44982	0.65711	-0.067
Mof_C 	C 	0.7636	0.43547	0.65755	0.036
Mof_C 	C 	0.50117	0.66587	0.17705	0.291
Mof_C 	C 	0.46654	0.63642	0.15601	0.292
Mof_C 	C 	0.44432	0.69304	0.17832	0.283
Mof_C 	C 	0.43073	0.68328	0.13547	0.289
Mof_C 	C 	0.46374	0.71317	0.15746	0.299
Mof_C 	C 	0.23179	0.70497	0.47626	-0.071
Mof_C 	C 	0.48734	0.65604	0.13601	0.304
Mof_C 	C 	0.49484	0.38565	0.13028	0.028
Mof_C 	C 	0.34194	0.54231	0.77068	0.01
Mof_C 	C 	0.49874	0.38119	0.14031	-0.071
Mof_C 	C 	0.50033	0.3915	0.15024	0.03
Mof_C 	C 	0.49791	0.40676	0.14997	-0.072
Mof_C 	C 	0.49379	0.41214	0.14034	0.029
Mof_C 	C 	0.4924	0.4013	0.13055	-0.07
Mof_C 	C 	0.49959	0.39725	0.17012	-0.032
Mof_C 	C 	0.50363	0.39286	0.18011	-0.047
Mof_C 	C 	0.51283	0.37749	0.18161	0.021
Mof_C 	C 	0.17781	0.74894	0.47181	-0.032
Mof_C 	C 	0.51772	0.36666	0.1726	-0.047
Mof_C 	C 	0.34621	0.53748	0.76071	-0.067
Mof_C 	C 	0.51366	0.37102	0.16257	-0.032
Mof_C 	C 	0.50453	0.38649	0.16105	-0.004
Mof_C 	C 	0.48369	0.37845	0.10993	-0.032
Mof_C 	C 	0.48207	0.36749	0.10032	-0.046
Mof_C 	C 	0.48991	0.35125	0.09975	0.02
Mof_C 	C 	0.4995	0.34658	0.10933	-0.046
Mof_C 	C 	0.50112	0.35748	0.11894	-0.032
Mof_C 	C 	0.49322	0.37381	0.11961	-0.003
Mof_C 	C 	0.49416	0.43368	0.13319	-0.032
Mof_C 	C 	0.87159	0.96202	0.14189	-0.032
Mof_C 	C 	0.35723	0.54063	0.75926	0.036
Mof_C 	C 	0.16439	0.7625	0.47228	-0.047
Mof_C 	C 	0.49227	0.44925	0.13412	-0.046
Mof_C 	C 	0.48717	0.46123	0.14268	0.021
Mof_C 	C 	0.48391	0.45687	0.15019	-0.047
Mof_C 	C 	0.48581	0.44137	0.1493	-0.032
Mof_C 	C 	0.49113	0.4292	0.14083	-0.004
Mof_C 	C 	0.48818	0.33946	0.08953	-0.019
Mof_C 	C 	0.48683	0.32961	0.08112	-0.017
Mof_C 	C 	0.51716	0.37297	0.19232	-0.019
Mof_C 	C 	0.52071	0.36935	0.20124	-0.017
Mof_C 	C 	0.6448	0.44389	0.65513	0.284
Mof_C 	C 	0.48526	0.47784	0.14386	-0.019
Mof_C 	C 	0.16413	0.77719	0.47784	0.021
Mof_C 	C 	0.48364	0.49165	0.145	-0.017
Mof_C 	C 	0.48788	0.30238	0.07125	-0.041
Mof_C 	C 	0.4864	0.29118	0.06178	-0.04
Mof_C 	C 	0.48218	0.29459	0.0515	0.015
Mof_C 	C 	0.47953	0.30986	0.05123	-0.041
Mof_C 	C 	0.48101	0.32106	0.0607	-0.041
Mof_C 	C 	0.48523	0.31765	0.07098	0.017
Mof_C 	C 	0.48264	0.51801	0.1566	-0.041
Mof_C 	C 	0.3602	0.48875	0.60699	-0.045
Mof_C 	C 	0.86054	0.83076	0.35196	-0.033
Mof_C 	C 	0.48075	0.53367	0.158	-0.04
Mof_C 	C 	0.47777	0.54051	0.14932	0.015
Mof_C 	C 	0.17812	0.77763	0.48278	-0.046
Mof_C 	C 	0.47678	0.53085	0.13919	-0.04
Mof_C 	C 	0.47867	0.51518	0.13779	-0.042
Mof_C 	C 	0.48165	0.50835	0.14647	0.017
Mof_C 	C 	0.52817	0.35005	0.2131	-0.042
Mof_C 	C 	0.53214	0.34607	0.22324	-0.04
Mof_C 	C 	0.53305	0.35695	0.23277	0.016
Mof_C 	C 	0.52983	0.37199	0.23169	-0.041
Mof_C 	C 	0.68975	0.40639	0.63582	0.291
Mof_C 	C 	0.52587	0.37597	0.22155	-0.042
Mof_C 	C 	0.52495	0.36509	0.21202	0.017
Mof_C 	C 	0.48059	0.28259	0.04139	-0.014
Mof_C 	C 	0.19165	0.76402	0.48229	-0.032
Mof_C 	C 	0.47927	0.27261	0.03306	-0.024
Mof_C 	C 	0.53729	0.35272	0.24356	-0.014
Mof_C 	C 	0.54083	0.34923	0.25253	-0.025
Mof_C 	C 	0.47573	0.55723	0.15079	-0.014
Mof_C 	C 	0.47403	0.57107	0.15194	-0.024
Mof_C 	C 	0.48011	0.26007	0.01331	-0.067
Mof_C 	C 	0.66407	0.46582	0.63554	0.307
Mof_C 	C 	0.47885	0.24842	0.00406	0.01
Mof_C 	C 	0.47504	0.23647	0.00405	-0.078
Mof_C 	C 	0.47253	0.23695	0.01383	0.01
Mof_C 	C 	0.47378	0.24857	0.02303	-0.067
Mof_C 	C 	0.1919	0.74917	0.4769	-0.004
Mof_C 	C 	0.47768	0.26042	0.02307	0.036
Mof_C 	C 	0.55297	0.35207	0.27233	-0.07
Mof_C 	C 	0.55725	0.34803	0.28248	0.014
Mof_C 	C 	0.5539	0.33679	0.28417	-0.083
Mof_C 	C 	0.54599	0.32985	0.27518	0.014
Mof_C 	C 	0.71863	0.44046	0.65758	0.297
Mof_C 	C 	0.54172	0.3339	0.26502	-0.07
Mof_C 	C 	0.54516	0.34506	0.26335	0.039
Mof_C 	C 	0.46718	0.59473	0.14425	-0.068
Mof_C 	C 	0.46531	0.61026	0.14525	0.012
Mof_C 	C 	0.46806	0.61975	0.15523	-0.079
Mof_C 	C 	0.25923	0.7036	0.47142	-0.032
Mof_C 	C 	0.47276	0.61279	0.16419	0.011
Mof_C 	C 	0.47463	0.59719	0.16316	-0.068
Mof_C 	C 	0.47193	0.58775	0.15316	0.037
Mof_C 	C 	0.54021	0.31732	0.3206	0.28
Mof_C 	C 	0.67397	0.47926	0.67634	0.297
Mof_C 	C 	0.56497	0.35722	0.33582	0.293
Mof_C 	C 	0.59484	0.30204	0.34558	0.293
Mof_C 	C 	0.61173	0.31651	0.31985	0.298
Mof_C 	C 	0.58664	0.27682	0.30481	0.3
Mof_C 	C 	0.55933	0.33184	0.29508	0.296
Mof_C 	C 	0.83956	0.28957	0.31698	0.028
Mof_C 	C 	0.27348	0.70203	0.47147	-0.046
Mof_C 	C 	0.8392	0.30416	0.31702	-0.071
Mof_C 	C 	0.82618	0.31821	0.31724	0.03
Mof_C 	C 	0.81306	0.31745	0.31743	-0.071
Mof_C 	C 	0.69943	0.42014	0.67858	0.284
Mof_C 	C 	0.81248	0.30333	0.3174	0.028
Mof_C 	C 	0.82594	0.28943	0.31704	-0.07
Mof_C 	C 	0.81713	0.34826	0.32247	-0.032
Mof_C 	C 	0.81734	0.36256	0.32257	-0.047
Mof_C 	C 	0.82669	0.3632	0.31746	0.022
Mof_C 	C 	0.83582	0.34888	0.31223	-0.047
Mof_C 	C 	0.83566	0.33457	0.31213	-0.032
Mof_C 	C 	0.27834	0.7141	0.47643	0.02
Mof_C 	C 	0.82631	0.33383	0.31726	-0.004
Mof_C 	C 	0.85516	0.25952	0.31202	-0.032
Mof_C 	C 	0.25057	0.16195	0.9948	0.03
Mof_C 	C 	0.8689	0.24618	0.31165	-0.046
Mof_C 	C 	0.88272	0.24718	0.31622	0.021
Mof_C 	C 	0.88202	0.2622	0.32126	-0.046
Mof_C 	C 	0.86835	0.27551	0.32161	-0.032
Mof_C 	C 	0.85443	0.27468	0.31692	-0.003
Mof_C 	C 	0.79366	0.29068	0.31309	-0.032
Mof_C 	C 	0.77977	0.29133	0.31315	-0.046
Mof_C 	C 	0.76904	0.30479	0.31792	0.021
Mof_C 	C 	0.268	0.72796	0.48125	-0.046
Mof_C 	C 	0.77304	0.31748	0.3227	-0.046
Mof_C 	C 	0.24158	0.15764	0.98511	-0.073
Mof_C 	C 	0.78685	0.31688	0.32263	-0.032
Mof_C 	C 	0.79762	0.30351	0.31775	-0.004
Mof_C 	C 	0.89748	0.2331	0.3158	-0.019
Mof_C 	C 	0.9098	0.22159	0.31552	-0.017
Mof_C 	C 	0.82692	0.3784	0.31758	-0.019
Mof_C 	C 	0.82714	0.39101	0.31767	-0.017
Mof_C 	C 	0.75412	0.30571	0.31797	-0.019
Mof_C 	C 	0.74171	0.30668	0.31808	-0.017
Mof_C 	C 	0.93786	0.20966	0.31679	-0.041
Mof_C 	C 	0.25367	0.72958	0.48119	-0.032
Mof_C 	C 	0.24444	0.15511	0.97503	0.031
Mof_C 	C 	0.95186	0.19675	0.31653	-0.041
Mof_C 	C 	0.95354	0.18122	0.31467	0.016
Mof_C 	C 	0.94043	0.17932	0.3131	-0.041
Mof_C 	C 	0.92643	0.19223	0.31337	-0.041
Mof_C 	C 	0.92476	0.20777	0.31522	0.017
Mof_C 	C 	0.71467	0.3225	0.31999	-0.041
Mof_C 	C 	0.70062	0.32375	0.32015	-0.04
Mof_C 	C 	0.69775	0.31055	0.31858	0.015
Mof_C 	C 	0.70975	0.29604	0.31683	-0.04
Mof_C 	C 	0.72381	0.29479	0.31666	-0.041
Mof_C 	C 	0.25716	0.15669	0.97478	-0.072
Mof_C 	C 	0.87744	0.97221	0.14974	-0.004
Mof_C 	C 	0.24884	0.71737	0.47635	-0.003
Mof_C 	C 	0.72667	0.30799	0.31824	0.017
Mof_C 	C 	0.83972	0.40674	0.31615	-0.042
Mof_C 	C 	0.83997	0.42101	0.31626	-0.04
Mof_C 	C 	0.82792	0.43539	0.318	0.016
Mof_C 	C 	0.8156	0.43485	0.31964	-0.04
Mof_C 	C 	0.81535	0.42057	0.31954	-0.042
Mof_C 	C 	0.8274	0.40619	0.31779	0.017
Mof_C 	C 	0.9685	0.1674	0.31439	-0.015
Mof_C 	C 	0.36326	0.4788	0.59721	0.019
Mof_C 	C 	0.26681	0.16088	0.98427	0.029
Mof_C 	C 	0.98085	0.15591	0.31416	-0.021
Mof_C 	C 	0.82818	0.45058	0.31812	-0.013
Mof_C 	C 	0.22808	0.67784	0.48063	-0.032
Mof_C 	C 	0.82839	0.46318	0.31821	-0.025
Mof_C 	C 	0.68273	0.31187	0.31877	-0.014
Mof_C 	C 	0.67032	0.31291	0.31894	-0.024
Mof_C 	C 	0.9972	0.12662	0.31264	-0.062
Mof_C 	C 	0.01194	0.11286	0.31237	0.006
Mof_C 	C 	0.02506	0.11442	0.31331	-0.079
Mof_C 	C 	0.02354	0.12982	0.31453	0.009
Mof_C 	C 	0.84794	0.83894	0.34464	-0.003
Mof_C 	C 	0.00974	0.14311	0.31482	-0.062
Mof_C 	C 	0.99568	0.1419	0.31385	0.03
Mof_C 	C 	0.81647	0.49272	0.31995	-0.07
Mof_C 	C 	0.22636	0.66431	0.48037	-0.047
Mof_C 	C 	0.81663	0.50702	0.32003	0.014
Mof_C 	C 	0.82897	0.50769	0.31848	-0.084
Mof_C 	C 	0.84113	0.49332	0.31686	0.014
Mof_C 	C 	0.84094	0.47902	0.31678	-0.07
Mof_C 	C 	0.82861	0.47839	0.31832	0.039
Mof_C 	C 	0.65399	0.30164	0.32113	-0.068
Mof_C 	C 	0.26321	0.16342	0.99421	-0.072
Mof_C 	C 	0.64012	0.30253	0.32135	0.012
Mof_C 	C 	0.62677	0.31585	0.31962	-0.081
Mof_C 	C 	0.62817	0.32826	0.31765	0.012
Mof_C 	C 	0.6421	0.32734	0.31743	-0.068
Mof_C 	C 	0.21304	0.66252	0.47526	0.022
Mof_C 	C 	0.6554	0.314	0.31917	0.037
Mof_C 	C 	0.79008	0.57313	0.30199	0.289
Mof_C 	C 	0.84252	0.54145	0.29287	0.29
Mof_C 	C 	0.82881	0.59796	0.31771	0.288
Mof_C 	C 	0.86784	0.54897	0.33389	0.291
Mof_C 	C 	0.23864	0.14077	0.95557	-0.032
Mof_C 	C 	0.81526	0.57751	0.34314	0.292
Mof_C 	C 	0.82907	0.52323	0.31848	0.298
Mof_C 	C 	0.08323	0.0708	0.56995	-0.018
Mof_C 	C 	0.07554	0.0634	0.56429	-0.018
Mof_C 	C 	0.09289	0.08533	0.58774	-0.042
Mof_C 	C 	0.20154	0.6748	0.47037	-0.047
Mof_C 	C 	0.10159	0.09373	0.59416	-0.04
Mof_C 	C 	0.11026	0.09689	0.58991	0.016
Mof_C 	C 	0.10986	0.09128	0.57894	-0.041
Mof_C 	C 	0.10116	0.08288	0.57252	-0.042
Mof_C 	C 	0.22876	0.1364	0.94647	-0.047
Mof_C 	C 	0.09248	0.07972	0.57678	0.018
Mof_C 	C 	0.06603	0.04868	0.54653	-0.041
Mof_C 	C 	0.05733	0.04029	0.54011	-0.041
Mof_C 	C 	0.0485	0.03732	0.54434	0.017
Mof_C 	C 	0.04875	0.04311	0.55527	-0.041
Mof_C 	C 	0.05745	0.05151	0.56169	-0.041
Mof_C 	C 	0.20321	0.68833	0.47063	-0.032
Mof_C 	C 	0.06628	0.05448	0.55747	0.018
Mof_C 	C 	0.11947	0.10586	0.59675	-0.013
Mof_C 	C 	0.12704	0.11335	0.60248	-0.025
Mof_C 	C 	0.21361	0.14194	0.94618	0.022
Mof_C 	C 	0.03929	0.02835	0.5375	-0.015
Mof_C 	C 	0.03171	0.02086	0.53178	-0.022
Mof_C 	C 	0.13154	0.13359	0.61851	-0.071
Mof_C 	C 	0.1399	0.14219	0.62522	0.016
Mof_C 	C 	0.15316	0.14011	0.62325	-0.087
Mof_C 	C 	0.15764	0.12899	0.6142	0.016
Mof_C 	C 	0.14923	0.12038	0.60748	-0.071
Mof_C 	C 	0.21651	0.69028	0.4758	-0.004
Mof_C 	C 	0.13601	0.12249	0.60951	0.04
Mof_C 	C 	0.00941	0.01399	0.52677	-0.062
Mof_C 	C 	0.20874	0.15215	0.95533	-0.047
Mof_C 	C 	0.001	0.00536	0.52009	0.003
Mof_C 	C 	0.00574	0.99341	0.51058	-0.069
Mof_C 	C 	0.01907	0.9912	0.50866	0.005
Mof_C 	C 	0.02745	0.99979	0.51533	-0.061
Mof_C 	C 	0.02271	0.01174	0.52479	0.03
Mof_C 	C 	0.01779	0.0103	0.39639	-0.015
Mof_C 	C 	0.02266	0.0135	0.39075	-0.02
Mof_C 	C 	0.99631	0.00955	0.40091	-0.04
Mof_C 	C 	0.29374	0.71214	0.4765	-0.019
Mof_C 	C 	0.99123	0.00567	0.40754	-0.04
Mof_C 	C 	0.21856	0.15648	0.96441	-0.032
Mof_C 	C 	0.0016	0.99846	0.41678	0.015
Mof_C 	C 	0.01657	0.9955	0.4189	-0.041
Mof_C 	C 	0.02205	0.99923	0.41245	-0.039
Mof_C 	C 	0.01209	0.00642	0.40317	0.014
Mof_C 	C 	0.04337	0.01488	0.38663	-0.043
Mof_C 	C 	0.04894	0.01853	0.38018	-0.04
Mof_C 	C 	0.0397	0.02463	0.37108	0.016
Mof_C 	C 	0.02484	0.02705	0.3685	-0.04
Mof_C 	C 	0.01927	0.0234	0.37493	-0.043
Mof_C 	C 	0.30651	0.71031	0.4765	-0.017
Mof_C 	C 	0.23381	0.15082	0.96484	-0.005
Mof_C 	C 	0.02851	0.0173	0.38403	0.021
Mof_C 	C 	0.99641	0.99432	0.42375	-0.012
Mof_C 	C 	0.99272	0.99059	0.42985	-0.026
Mof_C 	C 	0.04542	0.0285	0.36431	-0.011
Mof_C 	C 	0.04988	0.03187	0.3585	-0.03
Mof_C 	C 	0.00159	0.97749	0.44557	-0.069
Mof_C 	C 	0.99821	0.97312	0.45351	0.018
Mof_C 	C 	0.98353	0.97668	0.4533	-0.097
Mof_C 	C 	0.97211	0.98439	0.44535	0.022
Mof_C 	C 	0.97497	0.98886	0.43765	-0.074
Mof_C 	C 	0.257	0.16111	0.01494	-0.032
Mof_C 	C 	0.14958	0.79149	0.4784	-0.019
Mof_C 	C 	0.9894	0.98573	0.43754	0.04
Mof_C 	C 	0.04479	0.04121	0.34212	-0.079
Mof_C 	C 	0.04902	0.04561	0.33527	0.026
Mof_C 	C 	0.06331	0.04498	0.33753	-0.1
Mof_C 	C 	0.0733	0.03971	0.34677	0.026
Mof_C 	C 	0.069	0.03532	0.35363	-0.079
Mof_C 	C 	0.05469	0.03611	0.35134	0.049
Mof_C 	C 	0.57533	0.0724	0.0637	-0.018
Mof_C 	C 	0.58247	0.06346	0.07014	-0.018
Mof_H 	H 	0.92555	0.97934	0.14795	0.048
Mof_H 	H 	0.08769	0.63793	0.73348	0.041
Mof_H 	H 	0.10817	0.07202	0.06654	0.041
Mof_H 	H 	0.95506	0.18905	0.80562	0.041
Mof_H 	H 	0.96252	0.19449	0.83953	0.041
Mof_H 	H 	0.93841	0.21738	0.8395	0.041
Mof_H 	H 	0.93539	0.96028	0.13429	0.036
Mof_H 	H 	0.22122	0.74373	0.47701	0.047
Mof_H 	H 	0.75781	0.38524	0.8753	0.041
Mof_H 	H 	0.74444	0.39994	0.88998	0.041
Mof_H 	H 	0.78284	0.37543	0.91208	0.041
Mof_H 	H 	0.79621	0.36073	0.89739	0.041
Mof_H 	H 	0.78596	0.34756	0.74412	0.041
Mof_H 	H 	0.0369	0.98752	0.03246	0.045
Mof_H 	H 	0.77082	0.35977	0.72827	0.041
Mof_H 	H 	0.73607	0.39024	0.74512	0.041
Mof_H 	H 	0.75121	0.37802	0.76097	0.041
Mof_H 	H 	0.01085	0.15008	0.83966	0.047
Mof_H 	H 	0.03487	0.1272	0.83965	0.038
Mof_H 	H 	0.19537	0.72017	0.47708	0.048
Mof_H 	H 	0.02594	0.12013	0.80547	0.038
Mof_H 	H 	0.00196	0.143	0.80554	0.047
Mof_H 	H 	0.70695	0.41434	0.71426	0.047
Mof_H 	H 	0.69228	0.42663	0.69843	0.037
Mof_H 	H 	0.40664	0.67285	0.47717	0.048
Mof_H 	H 	0.72709	0.39502	0.68173	0.038
Mof_H 	H 	0.74163	0.38285	0.69755	0.047
Mof_H 	H 	0.75287	0.39815	0.93875	0.047
Mof_H 	H 	0.73969	0.4123	0.95346	0.038
Mof_H 	H 	0.70911	0.44841	0.93543	0.037
Mof_H 	H 	0.72241	0.43413	0.92071	0.047
Mof_H 	H 	0.17699	0.73806	0.46717	0.036
Mof_H 	H 	0.93772	0.38887	0.6566	0.047
Mof_H 	H 	0.96347	0.41251	0.65646	0.048
Mof_H 	H 	0.91746	0.43875	0.65745	0.047
Mof_H 	H 	0.02244	0.97221	0.02106	0.04
Mof_H 	H 	0.92017	0.45392	0.64857	0.036
Mof_H 	H 	0.92306	0.47753	0.64915	0.042
Mof_H 	H 	0.96765	0.45888	0.66725	0.042
Mof_H 	H 	0.96488	0.43545	0.66703	0.036
Mof_H 	H 	0.95692	0.36748	0.64711	0.036
Mof_H 	H 	0.9804	0.34393	0.6464	0.042
Mof_H 	H 	0.00499	0.37134	0.66539	0.042
Mof_H 	H 	0.15392	0.76145	0.4682	0.042
Mof_H 	H 	0.98188	0.39468	0.6664	0.036
Mof_H 	H 	0.91249	0.39204	0.64833	0.036
Mof_H 	H 	0.9963	0.00888	0.00212	0.041
Mof_H 	H 	0.88781	0.39482	0.64837	0.042
Mof_H 	H 	0.87805	0.44151	0.66614	0.042
Mof_H 	H 	0.90262	0.43883	0.66643	0.036
Mof_H 	H 	0.04935	0.32932	0.65846	0.041
Mof_H 	H 	0.07358	0.30671	0.65788	0.041
Mof_H 	H 	0.05224	0.27552	0.64981	0.041
Mof_H 	H 	0.02801	0.29813	0.65038	0.041
Mof_H 	H 	0.8278	0.44981	0.66054	0.041
Mof_H 	H 	0.17863	0.78874	0.4872	0.042
Mof_H 	H 	0.80269	0.45367	0.66065	0.041
Mof_H 	H 	0.01082	0.02409	0.01351	0.046
Mof_H 	H 	0.81633	0.40404	0.65398	0.041
Mof_H 	H 	0.84144	0.40019	0.65387	0.041
Mof_H 	H 	0.97492	0.49888	0.66068	0.041
Mof_H 	H 	0.97834	0.52231	0.6612	0.041
Mof_H 	H 	0.93149	0.54952	0.65788	0.041
Mof_H 	H 	0.92807	0.5261	0.65736	0.041
Mof_H 	H 	0.09899	0.23321	0.65328	0.048
Mof_H 	H 	0.1226	0.21014	0.6527	0.037
Mof_H 	H 	0.14308	0.23851	0.65172	0.035
Mof_H 	H 	0.20206	0.76514	0.48648	0.036
Mof_H 	H 	0.14904	0.11021	0.12004	0.048
Mof_H 	H 	0.11925	0.26166	0.65231	0.048
Mof_H 	H 	0.93822	0.59413	0.66203	0.049
Mof_H 	H 	0.94056	0.61793	0.6624	0.037
Mof_H 	H 	0.98587	0.59056	0.65938	0.036
Mof_H 	H 	0.98335	0.56672	0.65902	0.049
Mof_H 	H 	0.77022	0.41159	0.65842	0.048
Mof_H 	H 	0.74558	0.41448	0.6585	0.037
Mof_H 	H 	0.72755	0.46299	0.65677	0.036
Mof_H 	H 	0.75238	0.45994	0.6567	0.048
Mof_H 	H 	0.48939	0.40513	0.12306	0.047
Mof_H 	H 	0.16335	0.12558	0.13149	0.037
Mof_H 	H 	0.25633	0.69372	0.4672	0.036
Mof_H 	H 	0.50001	0.36966	0.14042	0.047
Mof_H 	H 	0.4999	0.41444	0.1575	0.048
Mof_H 	H 	0.49219	0.40935	0.16952	0.036
Mof_H 	H 	0.49945	0.40169	0.18684	0.042
Mof_H 	H 	0.52491	0.35456	0.17336	0.042
Mof_H 	H 	0.51809	0.36209	0.15597	0.036
Mof_H 	H 	0.47702	0.3908	0.10975	0.036
Mof_H 	H 	0.47443	0.37185	0.09316	0.042
Mof_H 	H 	0.50597	0.33416	0.1094	0.042
Mof_H 	H 	0.13733	0.16124	0.11245	0.036
Mof_H 	H 	0.50901	0.35283	0.12592	0.036
Mof_H 	H 	0.2809	0.69106	0.46751	0.042
Mof_H 	H 	0.49844	0.42493	0.12648	0.036
Mof_H 	H 	0.49497	0.45197	0.12804	0.042
Mof_H 	H 	0.47978	0.46569	0.15693	0.042
Mof_H 	H 	0.48277	0.43904	0.15537	0.036
Mof_H 	H 	0.49119	0.29903	0.07897	0.041
Mof_H 	H 	0.48861	0.27956	0.06252	0.041
Mof_H 	H 	0.47622	0.31321	0.04351	0.041
Mof_H 	H 	0.4788	0.33269	0.05996	0.041
Mof_H 	H 	0.12304	0.14574	0.10101	0.048
Mof_H 	H 	0.48492	0.51333	0.16362	0.041
Mof_H 	H 	0.48163	0.54061	0.16604	0.041
Mof_H 	H 	0.2711	0.73777	0.48523	0.042
Mof_H 	H 	0.47449	0.53553	0.13217	0.041
Mof_H 	H 	0.47778	0.50825	0.12975	0.041
Mof_H 	H 	0.52761	0.34119	0.20593	0.041
Mof_H 	H 	0.53454	0.33423	0.22365	0.041
Mof_H 	H 	0.5304	0.38084	0.23885	0.041
Mof_H 	H 	0.52346	0.3878	0.22114	0.041
Mof_H 	H 	0.4832	0.26893	0.01284	0.048
Mof_H 	H 	0.10381	0.62093	0.70468	0.041
Mof_H 	H 	0.01693	0.02332	0.91928	0.041
Mof_H 	H 	0.48113	0.24869	0.99683	0.036
Mof_H 	H 	0.46968	0.22801	0.01448	0.038
Mof_H 	H 	0.47179	0.24819	0.03035	0.048
Mof_H 	H 	0.24641	0.74055	0.48525	0.036
Mof_H 	H 	0.55591	0.36079	0.27144	0.049
Mof_H 	H 	0.56345	0.35377	0.2891	0.037
Mof_H 	H 	0.54316	0.32097	0.27594	0.036
Mof_H 	H 	0.53568	0.32811	0.25829	0.048
Mof_H 	H 	0.46493	0.58797	0.1363	0.048
Mof_H 	H 	0.46171	0.61484	0.13797	0.038
Mof_H 	H 	0.00845	0.01461	0.93034	0.04
Mof_H 	H 	0.47518	0.61943	0.17215	0.036
Mof_H 	H 	0.47836	0.59238	0.17036	0.048
Mof_H 	H 	0.82594	0.27848	0.31722	0.047
Mof_H 	H 	0.84929	0.30462	0.31684	0.047
Mof_H 	H 	0.94242	0.95706	0.11784	0.042
Mof_H 	H 	0.2386	0.67863	0.48492	0.036
Mof_H 	H 	0.8029	0.32804	0.31713	0.047
Mof_H 	H 	0.80981	0.3486	0.32679	0.036
Mof_H 	H 	0.81007	0.37336	0.32678	0.042
Mof_H 	H 	0.84323	0.34877	0.30809	0.042
Mof_H 	H 	0.02067	0.96824	0.91022	0.041
Mof_H 	H 	0.84284	0.32395	0.30773	0.036
Mof_H 	H 	0.84493	0.25788	0.30813	0.036
Mof_H 	H 	0.86872	0.23482	0.30763	0.042
Mof_H 	H 	0.89233	0.26371	0.32504	0.042
Mof_H 	H 	0.86887	0.28665	0.32587	0.036
Mof_H 	H 	0.80127	0.27996	0.30906	0.036
Mof_H 	H 	0.23561	0.65507	0.48431	0.042
Mof_H 	H 	0.77733	0.28107	0.30931	0.042
Mof_H 	H 	0.76527	0.32819	0.32661	0.042
Mof_H 	H 	0.78912	0.32718	0.3267	0.036
Mof_H 	H 	0.88928	0.97868	0.11845	0.036
Mof_H 	H 	0.93727	0.22142	0.31827	0.041
Mof_H 	H 	0.96161	0.19897	0.3178	0.041
Mof_H 	H 	0.94103	0.16756	0.31163	0.041
Mof_H 	H 	0.91669	0.19002	0.3121	0.041
Mof_H 	H 	0.71621	0.33315	0.32126	0.041
Mof_H 	H 	0.69177	0.33532	0.32155	0.041
Mof_H 	H 	0.70822	0.28539	0.31556	0.041
Mof_H 	H 	0.19102	0.67389	0.46624	0.042
Mof_H 	H 	0.73266	0.28322	0.31527	0.041
Mof_H 	H 	0.84935	0.39587	0.31476	0.041
Mof_H 	H 	0.03992	0.87144	0.48149	0.047
Mof_H 	H 	0.84979	0.42083	0.31494	0.041
Mof_H 	H 	0.80597	0.44571	0.32103	0.041
Mof_H 	H 	0.80553	0.42076	0.32085	0.041
Mof_H 	H 	0.98747	0.12464	0.31188	0.047
Mof_H 	H 	0.01237	0.1013	0.31142	0.039
Mof_H 	H 	0.03331	0.13171	0.3153	0.037
Mof_H 	H 	0.00945	0.15462	0.31578	0.046
Mof_H 	H 	0.80663	0.49284	0.32117	0.049
Mof_H 	H 	0.19389	0.69728	0.46649	0.036
Mof_H 	H 	0.80685	0.51776	0.32131	0.036
Mof_H 	H 	0.02914	0.97696	0.89915	0.041
Mof_H 	H 	0.85102	0.49305	0.31561	0.036
Mof_H 	H 	0.85065	0.4682	0.31549	0.048
Mof_H 	H 	0.66389	0.29099	0.32254	0.048
Mof_H 	H 	0.63991	0.29246	0.32292	0.037
Mof_H 	H 	0.61832	0.33892	0.31623	0.036
Mof_H 	H 	0.64247	0.33732	0.31587	0.048
Mof_H 	H 	0.08634	0.08317	0.5914	0.041
Mof_H 	H 	0.10154	0.09787	0.60264	0.041
Mof_H 	H 	0.1164	0.09345	0.57528	0.041
Mof_H 	H 	0.31762	0.73244	0.48015	0.041
Mof_H 	H 	0.04389	0.99423	0.87903	0.042
Mof_H 	H 	0.10119	0.07875	0.56404	0.041
Mof_H 	H 	0.07271	0.0507	0.54289	0.041
Mof_H 	H 	0.0575	0.036	0.53166	0.041
Mof_H 	H 	0.04208	0.04109	0.55892	0.041
Mof_H 	H 	0.05729	0.05579	0.57015	0.041
Mof_H 	H 	0.12136	0.13563	0.62041	0.049
Mof_H 	H 	0.13584	0.1506	0.63212	0.037
Mof_H 	H 	0.16784	0.12683	0.61229	0.035
Mof_H 	H 	0.15316	0.11186	0.60057	0.049
Mof_H 	H 	0.00544	0.02264	0.53362	0.047
Mof_H 	H 	0.0523	0.00325	0.86811	0.041
Mof_H 	H 	0.34273	0.72862	0.48006	0.041
Mof_H 	H 	0.99075	0.00761	0.52198	0.038
Mof_H 	H 	0.02319	0.98267	0.50182	0.04
Mof_H 	H 	0.03769	0.99762	0.51346	0.046
Mof_H 	H 	0.98862	0.01487	0.3941	0.041
Mof_H 	H 	0.97955	0.00797	0.40589	0.041
Mof_H 	H 	0.02415	0.99017	0.42574	0.041
Mof_H 	H 	0.03379	0.99679	0.41429	0.04
Mof_H 	H 	0.05069	0.01011	0.39373	0.042
Mof_H 	H 	0.06058	0.01659	0.38229	0.041
Mof_H 	H 	0.0412	0.04812	0.8889	0.041
Mof_H 	H 	0.01752	0.03182	0.3614	0.041
Mof_H 	H 	0.35613	0.679	0.47266	0.041
Mof_H 	H 	0.00763	0.02535	0.37283	0.042
Mof_H 	H 	0.01301	0.97483	0.44574	0.048
Mof_H 	H 	0.00742	0.9671	0.45951	0.038
Mof_H 	H 	0.96064	0.98724	0.44516	0.034
Mof_H 	H 	0.96574	0.995	0.43171	0.05
Mof_H 	H 	0.03357	0.04187	0.34026	0.051
Mof_H 	H 	0.04088	0.04964	0.32817	0.035
Mof_H 	H 	0.08451	0.03913	0.34879	0.034
Mof_H 	H 	0.03279	0.0391	0.89982	0.042
Mof_H 	H 	0.07685	0.03135	0.36084	0.051
Mof_H 	H 	0.56001	0.10391	0.0679	0.041
Mof_H 	H 	0.33102	0.68282	0.47275	0.041
Mof_H 	H 	0.54573	0.12181	0.05495	0.041
Mof_H 	H 	0.55712	0.08292	0.02914	0.041
Mof_H 	H 	0.5714	0.06502	0.04209	0.041
Mof_H 	H 	0.59862	0.03211	0.06599	0.041
Mof_H 	H 	0.61292	0.01418	0.07892	0.041
Mof_H 	H 	0.5999	0.05274	0.10463	0.041
Mof_H 	H 	0.5856	0.07067	0.0917	0.041
Mof_H 	H 	0.12942	0.61536	0.71538	0.041
Mof_H 	H 	0.0091	0.95092	0.93317	0.048
Mof_H 	H 	0.54237	0.12132	0.00891	0.05
Mof_H 	H 	0.52863	0.13834	0.99559	0.035
Mof_H 	H 	0.49455	0.16597	0.01364	0.035
Mof_H 	H 	0.18351	0.63386	0.47245	0.041
Mof_H 	H 	0.5085	0.14875	0.02692	0.05
Mof_H 	H 	0.6496	0.98707	0.10684	0.048
Mof_H 	H 	0.66389	0.9694	0.12066	0.037
Mof_H 	H 	0.62956	0.99679	0.13856	0.037
Mof_H 	H 	0.61552	0.01401	0.12543	0.048
Mof_H 	H 	0.09048	0.57705	0.55212	0.041
Mof_H 	H 	0.00104	0.94363	0.94601	0.037
Mof_H 	H 	0.10714	0.56471	0.53944	0.041
Mof_H 	H 	0.11715	0.5195	0.54421	0.041
Mof_H 	H 	0.10049	0.53184	0.5569	0.041
Mof_H 	H 	0.06971	0.55542	0.5817	0.041
Mof_H 	H 	0.17998	0.61049	0.47189	0.041
Mof_H 	H 	0.05305	0.56776	0.59439	0.041
Mof_H 	H 	0.04116	0.61277	0.58828	0.041
Mof_H 	H 	0.05783	0.60043	0.5756	0.041
Mof_H 	H 	0.15751	0.49993	0.52641	0.049
Mof_H 	H 	0.17394	0.48732	0.51366	0.036
Mof_H 	H 	0.98207	0.99239	0.96043	0.036
Mof_H 	H 	0.14648	0.52463	0.49608	0.036
Mof_H 	H 	0.13013	0.53714	0.50889	0.048
Mof_H 	H 	0.0017	0.63231	0.6066	0.047
Mof_H 	H 	0.9846	0.64553	0.61975	0.038
Mof_H 	H 	0.01312	0.60726	0.63712	0.037
Mof_H 	H 	0.98976	0.9997	0.94841	0.049
Mof_H 	H 	0.06894	0.01907	0.84904	0.05
Mof_H 	H 	0.0161	0.89462	0.48206	0.037
Mof_H 	H 	0.07686	0.02794	0.83788	0.035
Mof_H 	H 	0.06243	0.07419	0.85716	0.035
Mof_H 	H 	0.0546	0.06503	0.8682	0.051
Mof_H 	H 	0.63644	0.59381	0.73932	0.041
Mof_H 	H 	0.23949	0.61901	0.79153	0.048
Mof_H 	H 	0.64364	0.56704	0.72851	0.041
Mof_H 	H 	0.65202	0.58214	0.70564	0.041
Mof_H 	H 	0.64482	0.6089	0.71645	0.041
Mof_H 	H 	0.6307	0.65979	0.73672	0.041
Mof_H 	H 	0.62352	0.68657	0.7475	0.041
Mof_H 	H 	0.61612	0.67136	0.7708	0.041
Mof_H 	H 	0.03652	0.92283	0.48073	0.039
Mof_H 	H 	0.6233	0.64457	0.76002	0.041
Mof_H 	H 	0.6714	0.53074	0.68786	0.048
Mof_H 	H 	0.6787	0.50465	0.67652	0.037
Mof_H 	H 	0.23042	0.60668	0.47631	0.041
Mof_H 	H 	0.65935	0.49096	0.69326	0.035
Mof_H 	H 	0.65208	0.51729	0.70463	0.048
Mof_H 	H 	0.61362	0.73622	0.76929	0.048
Mof_H 	H 	0.60654	0.76298	0.77983	0.037
Mof_H 	H 	0.59176	0.75024	0.80039	0.037
Mof_H 	H 	0.5989	0.72348	0.78976	0.048
Mof_H 	H 	0.11803	0.1579	0.22675	0.042
Mof_H 	H 	0.06012	0.89972	0.48017	0.047
Mof_H 	H 	0.12642	0.16653	0.21557	0.041
Mof_H 	H 	0.16327	0.1219	0.21273	0.041
Mof_H 	H 	0.26523	0.61284	0.80203	0.036
Mof_H 	H 	0.15489	0.11328	0.22391	0.041
Mof_H 	H 	0.13872	0.09675	0.24275	0.041
Mof_H 	H 	0.1304	0.08779	0.25377	0.041
Mof_H 	H 	0.09552	0.13345	0.25896	0.041
Mof_H 	H 	0.10384	0.14241	0.24794	0.042
Mof_H 	H 	0.16963	0.13428	0.18588	0.051
Mof_H 	H 	0.17744	0.14101	0.1735	0.036
Mof_H 	H 	0.15802	0.18971	0.18781	0.034
Mof_H 	H 	0.22013	0.53878	0.47147	0.049
Mof_H 	H 	0.15028	0.18264	0.20019	0.05
Mof_H 	H 	0.27905	0.56704	0.78246	0.037
Mof_H 	H 	0.09089	0.11725	0.28597	0.051
Mof_H 	H 	0.08308	0.10829	0.29715	0.035
Mof_H 	H 	0.09762	0.06207	0.27787	0.035
Mof_H 	H 	0.10534	0.0713	0.2668	0.051
Mof_H 	H 	0.57282	0.59904	0.0826	0.041
Mof_H 	H 	0.55612	0.61566	0.09512	0.041
Mof_H 	H 	0.53761	0.58186	0.08672	0.041
Mof_H 	H 	0.55431	0.56524	0.0742	0.041
Mof_H 	H 	0.58615	0.53372	0.05113	0.041
Mof_H 	H 	0.21785	0.51495	0.47109	0.037
Mof_H 	H 	0.25339	0.5733	0.77205	0.048
Mof_H 	H 	0.60286	0.5171	0.03861	0.041
Mof_H 	H 	0.6203	0.55164	0.04621	0.041
Mof_H 	H 	0.60359	0.56825	0.05873	0.041
Mof_H 	H 	0.50145	0.61735	0.10592	0.049
Mof_H 	H 	0.48481	0.63309	0.11841	0.036
Mof_H 	H 	0.51283	0.65774	0.13533	0.035
Mof_H 	H 	0.52941	0.64185	0.12274	0.049
Mof_H 	H 	0.65686	0.51608	0.02739	0.049
Mof_H 	H 	0.67356	0.50043	0.01495	0.036
Mof_H 	H 	0.64595	0.47529	0.99812	0.035
Mof_H 	H 	0.05345	0.61614	0.69006	0.046
Mof_H 	H 	0.17236	0.54211	0.47372	0.036
Mof_H 	H 	0.6293	0.4911	0.01068	0.049
Mof_H 	H 	0.66345	0.60529	0.26189	0.041
Mof_H 	H 	0.68909	0.5971	0.27283	0.041
Mof_H 	H 	0.70222	0.60943	0.25114	0.041
Mof_H 	H 	0.67658	0.61762	0.2402	0.041
Mof_H 	H 	0.6268	0.63312	0.21873	0.041
Mof_H 	H 	0.60117	0.64133	0.20777	0.041
Mof_H 	H 	0.58779	0.62991	0.2298	0.041
Mof_H 	H 	0.61342	0.6217	0.24075	0.041
Mof_H 	H 	0.02812	0.6213	0.67917	0.041
Mof_H 	H 	0.75163	0.59516	0.27304	0.047
Mof_H 	H 	0.17483	0.566	0.47408	0.049
Mof_H 	H 	0.77723	0.58702	0.28383	0.037
Mof_H 	H 	0.76515	0.57132	0.30431	0.037
Mof_H 	H 	0.73954	0.57951	0.29346	0.047
Mof_H 	H 	0.53847	0.64194	0.20598	0.047
Mof_H 	H 	0.51314	0.6502	0.19458	0.036
Mof_H 	H 	0.52587	0.66987	0.1771	0.038
Mof_H 	H 	0.55101	0.6616	0.18847	0.047
Mof_H 	H 	0.60902	0.15001	0.25979	0.041
Mof_H 	H 	0.89661	0.97495	0.10187	0.042
Mof_H 	H 	0.01346	0.66912	0.6955	0.04
Mof_H 	H 	0.60103	0.17652	0.27093	0.041
Mof_H 	H 	0.6284	0.18697	0.25938	0.041
Mof_H 	H 	0.00167	0.91877	0.65518	0.047
Mof_H 	H 	0.63639	0.16046	0.24824	0.041
Mof_H 	H 	0.64783	0.11212	0.22504	0.041
Mof_H 	H 	0.65573	0.08562	0.21387	0.041
Mof_H 	H 	0.63544	0.0723	0.22999	0.041
Mof_H 	H 	0.62755	0.0988	0.24116	0.041
Mof_H 	H 	0.62159	0.22518	0.2962	0.049
Mof_H 	H 	0.6139	0.25158	0.30726	0.036
Mof_H 	H 	0.03889	0.66384	0.70639	0.046
Mof_H 	H 	0.57015	0.26431	0.28696	0.036
Mof_H 	H 	0.578	0.23784	0.27597	0.049
Mof_H 	H 	0.63662	0.03616	0.19211	0.049
Mof_H 	H 	0.99178	0.87792	0.63879	0.047
Mof_H 	H 	0.64297	0.01043	0.18033	0.037
Mof_H 	H 	0.68868	0.99689	0.19708	0.035
Mof_H 	H 	0.6821	0.02289	0.20889	0.049
Mof_H 	H 	0.55463	0.47544	0.39336	0.041
Mof_H 	H 	0.5618	0.44866	0.38257	0.041
Mof_H 	H 	0.51632	0.45953	0.36632	0.041
Mof_H 	H 	0.54452	0.9679	0.89323	0.041
Mof_H 	H 	0.50916	0.4863	0.37711	0.041
Mof_H 	H 	0.49557	0.53721	0.39748	0.041
Mof_H 	H 	0.48837	0.56397	0.4083	0.041
Mof_H 	H 	0.53377	0.55298	0.42482	0.041
Mof_H 	H 	0.94404	0.97014	0.16225	0.036
Mof_H 	H 	0.00265	0.88971	0.67377	0.046
Mof_H 	H 	0.54097	0.52622	0.414	0.041
Mof_H 	H 	0.54529	0.39676	0.36422	0.049
Mof_H 	H 	0.5524	0.37003	0.35363	0.037
Mof_H 	H 	0.56714	0.38293	0.33315	0.037
Mof_H 	H 	0.55254	0.94139	0.88209	0.041
Mof_H 	H 	0.55998	0.40966	0.34381	0.049
Mof_H 	H 	0.50687	0.6158	0.42915	0.049
Mof_H 	H 	0.49958	0.6421	0.44056	0.036
Mof_H 	H 	0.48014	0.62832	0.45716	0.037
Mof_H 	H 	0.48745	0.60226	0.44578	0.049
Mof_H 	H 	0.99132	0.49717	0.38209	0.041
Mof_H 	H 	0.00973	0.86275	0.67208	0.037
Mof_H 	H 	0.96566	0.50288	0.37144	0.041
Mof_H 	H 	0.95913	0.54982	0.37341	0.041
Mof_H 	H 	0.98478	0.54411	0.38406	0.041
Mof_H 	H 	0.53585	0.96141	0.85401	0.041
Mof_H 	H 	0.03517	0.53242	0.40355	0.041
Mof_H 	H 	0.06082	0.52675	0.4142	0.041
Mof_H 	H 	0.06613	0.4811	0.41458	0.041
Mof_H 	H 	0.04048	0.48677	0.40392	0.041
Mof_H 	H 	0.90564	0.56068	0.36159	0.048
Mof_H 	H 	0.87995	0.567	0.35122	0.037
Mof_H 	H 	0.89361	0.5211	0.33176	0.036
Mof_H 	H 	0.00522	0.83944	0.67206	0.043
Mof_H 	H 	0.91937	0.51488	0.34223	0.048
Mof_H 	H 	0.12029	0.46924	0.42708	0.048
Mof_H 	H 	0.13097	0.83462	0.48256	0.041
Mof_H 	H 	0.1457	0.46378	0.43802	0.036
Mof_H 	H 	0.13134	0.51167	0.45424	0.037
Mof_H 	H 	0.10602	0.517	0.44329	0.048
Mof_H 	H 	0.97445	0.8453	0.64187	0.042
Mof_H 	H 	0.97775	0.86795	0.6415	0.036
Mof_H 	H 	0.01123	0.91249	0.64014	0.036
Mof_H 	H 	0.00743	0.91885	0.62285	0.041
Mof_H 	H 	0.97451	0.89909	0.60865	0.042
Mof_H 	H 	0.97775	0.89313	0.62582	0.036
Mof_H 	H 	0.02088	0.92112	0.6692	0.036
Mof_H 	H 	0.52783	0.98793	0.86514	0.042
Mof_H 	H 	0.96093	0.97798	0.17793	0.043
Mof_H 	H 	0.02766	0.93878	0.68519	0.042
Mof_H 	H 	0.00387	0.93121	0.70193	0.042
Mof_H 	H 	0.99658	0.91377	0.68587	0.036
Mof_H 	H 	0.97561	0.90294	0.57474	0.041
Mof_H 	H 	0.97205	0.90941	0.55743	0.041
Mof_H 	H 	0.98831	0.94499	0.57394	0.041
Mof_H 	H 	0.99187	0.93852	0.59123	0.041
Mof_H 	H 	0.02815	0.95668	0.73377	0.041
Mof_H 	H 	0.0354	0.97469	0.74961	0.041
Mof_H 	H 	0.50955	0.04002	0.88697	0.042
Mof_H 	H 	0.03733	0.999	0.72913	0.041
Mof_H 	H 	0.9249	0.00673	0.1938	0.042
Mof_H 	H 	0.03008	0.98099	0.71329	0.041
Mof_H 	H 	0.97426	0.79661	0.63947	0.041
Mof_H 	H 	0.9702	0.77373	0.63929	0.041
Mof_H 	H 	0.98598	0.77923	0.67331	0.041
Mof_H 	H 	0.99003	0.80211	0.67349	0.041
Mof_H 	H 	0.96823	0.96382	0.54164	0.049
Mof_H 	H 	0.96548	0.97118	0.52503	0.037
Mof_H 	H 	0.97637	0.92333	0.50887	0.036
Mof_H 	H 	0.50164	0.06652	0.89815	0.041
Mof_H 	H 	0.97907	0.91614	0.52564	0.049
Mof_H 	H 	0.97636	0.73842	0.67354	0.049
Mof_H 	H 	0.90763	0.99929	0.17797	0.036
Mof_H 	H 	0.97307	0.71562	0.67412	0.037
Mof_H 	H 	0.96176	0.70542	0.63976	0.035
Mof_H 	H 	0.9651	0.7284	0.63931	0.049
Mof_H 	H 	0.04048	0.0407	0.76259	0.049
Mof_H 	H 	0.0488	0.05752	0.77875	0.035
Mof_H 	H 	0.07045	0.019	0.79538	0.037
Mof_H 	H 	0.06212	0.00246	0.77928	0.049
Mof_H 	H 	0.52347	0.04653	0.92642	0.041
Mof_H 	H 	0.76609	0.22123	0.51043	0.046
Mof_H 	H 	0.7535	0.21056	0.4759	0.047
Mof_H 	H 	0.72748	0.25447	0.49322	0.047
Mof_H 	H 	0.91406	0.95941	0.06928	0.041
Mof_H 	H 	0.70836	0.25155	0.47953	0.036
Mof_H 	H 	0.69099	0.25991	0.46306	0.042
Mof_H 	H 	0.726	0.23367	0.44604	0.042
Mof_H 	H 	0.74371	0.22549	0.46255	0.036
Mof_H 	H 	0.7898	0.20375	0.50746	0.036
Mof_H 	H 	0.81111	0.17824	0.50672	0.042
Mof_H 	H 	0.22689	0.5833	0.47576	0.041
Mof_H 	H 	0.53137	0.02004	0.91525	0.042
Mof_H 	H 	0.78715	0.16025	0.47741	0.042
Mof_H 	H 	0.76568	0.18541	0.47814	0.036
Mof_H 	H 	0.76516	0.24505	0.52299	0.036
Mof_H 	H 	0.75899	0.26449	0.53929	0.042
Mof_H 	H 	0.92259	0.95589	0.05322	0.041
Mof_H 	H 	0.7128	0.28032	0.52422	0.042
Mof_H 	H 	0.71866	0.26085	0.50809	0.036
Mof_H 	H 	0.83224	0.1142	0.47324	0.041
Mof_H 	H 	0.85356	0.08845	0.47211	0.041
Mof_H 	H 	0.87048	0.09891	0.50582	0.041
Mof_H 	H 	0.58092	0.89539	0.85733	0.049
Mof_H 	H 	0.84916	0.12466	0.50694	0.041
Mof_H 	H 	0.70097	0.32179	0.55331	0.041
Mof_H 	H 	0.69383	0.34196	0.56921	0.041
Mof_H 	H 	0.73757	0.32049	0.5878	0.041
Mof_H 	H 	0.74472	0.30031	0.57191	0.041
Mof_H 	H 	0.96402	0.95638	0.07302	0.041
Mof_H 	H 	0.68865	0.24419	0.41354	0.041
Mof_H 	H 	0.67059	0.25293	0.39712	0.041
Mof_H 	H 	0.64176	0.29125	0.41619	0.041
Mof_H 	H 	0.65982	0.28251	0.43261	0.041
Mof_H 	H 	0.58881	0.8689	0.84638	0.036
Mof_H 	H 	0.91025	0.04777	0.50389	0.048
Mof_H 	H 	0.93164	0.02221	0.50285	0.037
Mof_H 	H 	0.9179	0.01413	0.46862	0.037
Mof_H 	H 	0.89653	0.03971	0.46974	0.048
Mof_H 	H 	0.60571	0.30535	0.38334	0.048
Mof_H 	H 	0.58903	0.31343	0.36635	0.035
Mof_H 	H 	0.95548	0.95991	0.08908	0.041
Mof_H 	H 	0.62289	0.27871	0.34957	0.038
Mof_H 	H 	0.63927	0.27088	0.36643	0.048
Mof_H 	H 	0.72379	0.35992	0.61834	0.048
Mof_H 	H 	0.5451	0.88158	0.826	0.036
Mof_H 	H 	0.71673	0.38049	0.634	0.037
Mof_H 	H 	0.6727	0.40113	0.61533	0.037
Mof_H 	H 	0.67987	0.38053	0.59973	0.048
Mof_H 	H 	0.41137	0.94296	0.15657	0.047
Mof_H 	H 	0.45816	0.92338	0.15804	0.048
Mof_H 	H 	0.43211	0.97218	0.15683	0.047
Mof_H 	H 	0.45626	0.97238	0.16661	0.036
Mof_H 	H 	0.88766	0.96831	0.13184	0.047
Mof_H 	H 	0.96172	0.01992	0.22557	0.042
Mof_H 	H 	0.47989	0.97299	0.16732	0.042
Mof_H 	H 	0.53738	0.908	0.83703	0.049
Mof_H 	H 	0.49416	0.92643	0.14908	0.042
Mof_H 	H 	0.47066	0.92575	0.14804	0.036
Mof_H 	H 	0.4197	0.92233	0.16577	0.036
Mof_H 	H 	0.42305	0.89592	0.16583	0.042
Mof_H 	H 	0.45701	0.87589	0.14807	0.042
Mof_H 	H 	0.45358	0.90204	0.14767	0.036
Mof_H 	H 	0.391	0.96056	0.14748	0.037
Mof_H 	H 	0.36672	0.98249	0.147	0.041
Mof_H 	H 	0.38763	0.01474	0.16431	0.042
Mof_H 	H 	0.97946	0.02733	0.24091	0.04
Mof_H 	H 	0.52151	0.09914	0.94216	0.049
Mof_H 	H 	0.41272	0.99157	0.16497	0.037
Mof_H 	H 	0.47018	0.8271	0.15602	0.041
Mof_H 	H 	0.47445	0.80023	0.1561	0.041
Mof_H 	H 	0.42954	0.8168	0.15873	0.041
Mof_H 	H 	0.42527	0.84367	0.15865	0.041
Mof_H 	H 	0.33979	0.05782	0.15877	0.041
Mof_H 	H 	0.31512	0.07997	0.15818	0.041
Mof_H 	H 	0.29468	0.04793	0.15003	0.041
Mof_H 	H 	0.31935	0.02578	0.15063	0.041
Mof_H 	H 	0.54175	0.92393	0.15574	0.041
Mof_H 	H 	0.10678	0.85729	0.48314	0.041
Mof_H 	H 	0.01386	0.00144	0.22253	0.041
Mof_H 	H 	0.56605	0.92308	0.1564	0.041
Mof_H 	H 	0.54852	0.97308	0.16449	0.041
Mof_H 	H 	0.52421	0.97394	0.16383	0.041
Mof_H 	H 	0.43631	0.76728	0.15806	0.049
Mof_H 	H 	0.43913	0.74116	0.15807	0.037
Mof_H 	H 	0.4851	0.72247	0.15702	0.035
Mof_H 	H 	0.48208	0.74888	0.15702	0.049
Mof_H 	H 	0.61417	0.92263	0.16239	0.048
Mof_H 	H 	0.63804	0.9225	0.16279	0.035
Mof_H 	H 	0.5152	0.12485	0.95395	0.037
Mof_H 	H 	0.61591	0.97132	0.16117	0.037
Mof_H 	H 	0.99483	0.99407	0.20678	0.042
Mof_H 	H 	0.59226	0.97129	0.16077	0.048
Mof_H 	H 	0.24794	0.09196	0.1532	0.048
Mof_H 	H 	0.22351	0.11436	0.15256	0.036
Mof_H 	H 	0.24315	0.14379	0.15203	0.036
Mof_H 	H 	0.26744	0.1214	0.15267	0.048
Mof_H 	H 	0.6694	0.72953	0.01134	0.045
Mof_H 	H 	0.65861	0.71995	0.97634	0.047
Mof_H 	H 	0.65899	0.76469	0.99311	0.046
Mof_H 	H 	0.46956	0.13865	0.93698	0.035
Mof_H 	H 	0.64056	0.77206	0.97761	0.036
Mof_H 	H 	0.63378	0.77938	0.96015	0.042
Mof_H 	H 	0.80712	0.9561	0.13587	0.041
Mof_H 	H 	0.6594	0.73217	0.94692	0.042
Mof_H 	H 	0.66662	0.72472	0.96431	0.036
Mof_H 	H 	0.66146	0.70882	0.00837	0.037
Mof_H 	H 	0.66483	0.68173	0.00674	0.041
Mof_H 	H 	0.67755	0.66864	0.97638	0.042
Mof_H 	H 	0.67462	0.69513	0.97796	0.036
Mof_H 	H 	0.68073	0.74409	0.02498	0.037
Mof_H 	H 	0.47611	0.11266	0.92516	0.049
Mof_H 	H 	0.68319	0.76321	0.04146	0.042
Mof_H 	H 	0.65409	0.80066	0.02444	0.042
Mof_H 	H 	0.65119	0.78181	0.00798	0.036
Mof_H 	H 	0.78548	0.95304	0.13699	0.041
Mof_H 	H 	0.67389	0.62021	0.96993	0.041
Mof_H 	H 	0.67718	0.59292	0.96749	0.041
Mof_H 	H 	0.68423	0.598	0.00135	0.041
Mof_H 	H 	0.68093	0.62528	0.00379	0.041
Mof_H 	H 	0.66697	0.83623	0.05517	0.041
Mof_H 	H 	0.66952	0.85573	0.0716	0.041
Mof_H 	H 	0.02928	0.59521	0.62423	0.047
Mof_H 	H 	0.11173	0.11654	0.73784	0.041
Mof_H 	H 	0.68298	0.82179	0.09066	0.041
Mof_H 	H 	0.68043	0.80228	0.07422	0.041
Mof_H 	H 	0.63645	0.74546	0.91251	0.041
Mof_H 	H 	0.62955	0.75227	0.89475	0.041
Mof_H 	H 	0.79579	0.96681	0.17107	0.041
Mof_H 	H 	0.62328	0.79952	0.90973	0.041
Mof_H 	H 	0.63018	0.7927	0.92749	0.041
Mof_H 	H 	0.69387	0.54554	0.9972	0.048
Mof_H 	H 	0.69708	0.51867	0.99553	0.038
Mof_H 	H 	0.68352	0.51413	0.96135	0.036
Mof_H 	H 	0.10213	0.11028	0.74959	0.041
Mof_H 	H 	0.68035	0.54118	0.96315	0.048
Mof_H 	H 	0.60298	0.77247	0.86201	0.049
Mof_H 	H 	0.59549	0.77942	0.84433	0.037
Mof_H 	H 	0.61589	0.81213	0.85745	0.036
Mof_H 	H 	0.62332	0.80505	0.87511	0.049
Mof_H 	H 	0.81743	0.96987	0.16995	0.041
Mof_H 	H 	0.68642	0.88728	0.1037	0.048
Mof_H 	H 	0.68847	0.90749	0.11956	0.038
Mof_H 	H 	0.6778	0.88631	0.13736	0.036
Mof_H 	H 	0.67579	0.86604	0.12136	0.048
Mof_H 	H 	0.13886	0.11264	0.77535	0.041
Mof_H 	H 	0.92763	0.39206	0.15915	0.046
Mof_H 	H 	0.91583	0.38041	0.12462	0.046
Mof_H 	H 	0.88367	0.4176	0.14218	0.047
Mof_H 	H 	0.86674	0.41094	0.12864	0.036
Mof_H 	H 	0.84732	0.41679	0.11249	0.042
Mof_H 	H 	0.88027	0.39988	0.0943	0.042
Mof_H 	H 	0.98079	0.94746	0.04225	0.048
Mof_H 	H 	0.9	0.39428	0.11053	0.037
Mof_H 	H 	0.95112	0.38247	0.15705	0.036
Mof_H 	H 	0.9764	0.36233	0.15757	0.042
Mof_H 	H 	0.14845	0.11889	0.7636	0.042
Mof_H 	H 	0.96149	0.33674	0.12762	0.042
Mof_H 	H 	0.93594	0.35664	0.12707	0.036
Mof_H 	H 	0.92231	0.41532	0.17169	0.036
Mof_H 	H 	0.91492	0.43159	0.18848	0.042
Mof_H 	H 	0.86998	0.43722	0.17433	0.042
Mof_H 	H 	0.87719	0.4207	0.1576	0.036
Mof_H 	H 	0.01717	0.30097	0.12724	0.041
Mof_H 	H 	0.98882	0.94475	0.02621	0.038
Mof_H 	H 	0.04297	0.28102	0.12814	0.041
Mof_H 	H 	0.05271	0.29543	0.16217	0.041
Mof_H 	H 	0.16613	0.12951	0.74199	0.042
Mof_H 	H 	0.02692	0.31538	0.16127	0.041
Mof_H 	H 	0.85591	0.47845	0.20498	0.041
Mof_H 	H 	0.84819	0.49509	0.22177	0.041
Mof_H 	H 	0.89182	0.47141	0.23967	0.041
Mof_H 	H 	0.89953	0.45477	0.22289	0.041
Mof_H 	H 	0.83904	0.40293	0.06197	0.041
Mof_H 	H 	0.81869	0.4092	0.04601	0.041
Mof_H 	H 	0.78942	0.44413	0.0661	0.041
Mof_H 	H 	0.89875	0.97979	0.1664	0.048
Mof_H 	H 	0.9455	0.94914	0.00714	0.039
Mof_H 	H 	0.17534	0.13594	0.73007	0.041
Mof_H 	H 	0.80976	0.43786	0.08205	0.041
Mof_H 	H 	0.10295	0.25541	0.16403	0.047
Mof_H 	H 	0.12858	0.23531	0.16502	0.037
Mof_H 	H 	0.11963	0.22248	0.13081	0.037
Mof_H 	H 	0.094	0.24262	0.12988	0.047
Mof_H 	H 	0.75416	0.4623	0.03364	0.047
Mof_H 	H 	0.73351	0.46881	0.018	0.037
Mof_H 	H 	0.75347	0.42233	0.00065	0.037
Mof_H 	H 	0.77413	0.41591	0.01636	0.047
Mof_H 	H 	0.87126	0.49589	0.27132	0.048
Mof_H 	H 	0.13773	0.13469	0.70488	0.041
Mof_H 	H 	0.93764	0.95183	0.0232	0.047
Mof_H 	H 	0.86397	0.51145	0.28827	0.038
Mof_H 	H 	0.83208	0.54971	0.27247	0.036
Mof_H 	H 	0.83951	0.53394	0.25544	0.048
Mof_H 	H 	0.7741	0.64448	0.49601	0.047
Mof_H 	H 	0.74106	0.65709	0.51373	0.046
Mof_H 	H 	0.73094	0.64569	0.47914	0.047
Mof_H 	H 	0.70752	0.66254	0.48016	0.036
Mof_H 	H 	0.68208	0.66652	0.47846	0.042
Mof_H 	H 	0.69412	0.65511	0.5093	0.042
Mof_H 	H 	0.08557	0.8263	0.4764	0.041
Mof_H 	H 	0.72	0.65064	0.51104	0.037
Mof_H 	H 	0.7548	0.96055	0.1733	0.048
Mof_H 	H 	0.79087	0.63471	0.51024	0.036
Mof_H 	H 	0.81012	0.63719	0.52601	0.042
Mof_H 	H 	0.77688	0.67062	0.54346	0.042
Mof_H 	H 	0.75725	0.66856	0.5275	0.037
Mof_H 	H 	0.78115	0.62579	0.48119	0.036
Mof_H 	H 	0.78851	0.61821	0.46411	0.042
Mof_H 	H 	0.74361	0.64354	0.44895	0.042
Mof_H 	H 	0.73609	0.65161	0.46601	0.036
Mof_H 	H 	0.12853	0.12828	0.71679	0.041
Mof_H 	H 	0.81899	0.66495	0.57624	0.041
Mof_H 	H 	0.83939	0.66657	0.59174	0.041
Mof_H 	H 	0.73318	0.95781	0.17458	0.037
Mof_H 	H 	0.86814	0.65197	0.57053	0.041
Mof_H 	H 	0.84774	0.65034	0.55503	0.041
Mof_H 	H 	0.75921	0.61548	0.41499	0.041
Mof_H 	H 	0.76669	0.60759	0.39776	0.041
Mof_H 	H 	0.80924	0.60799	0.41447	0.041
Mof_H 	H 	0.80176	0.61588	0.4317	0.041
Mof_H 	H 	0.63853	0.67596	0.50617	0.041
Mof_H 	H 	0.12638	0.09404	0.79442	0.051
Mof_H 	H 	0.61244	0.68028	0.5036	0.041
Mof_H 	H 	0.60879	0.66662	0.46973	0.041
Mof_H 	H 	0.63488	0.66229	0.47229	0.041
Mof_H 	H 	0.72202	0.94496	0.14038	0.037
Mof_H 	H 	0.90335	0.66766	0.60209	0.047
Mof_H 	H 	0.92399	0.66887	0.6174	0.038
Mof_H 	H 	0.90567	0.65827	0.6367	0.037
Mof_H 	H 	0.88505	0.65708	0.62135	0.047
Mof_H 	H 	0.55674	0.67525	0.46489	0.047
Mof_H 	H 	0.53081	0.67945	0.46278	0.037
Mof_H 	H 	0.17903	0.60481	0.73612	0.041
Mof_H 	H 	0.11913	0.0864	0.80664	0.035
Mof_H 	H 	0.53567	0.69308	0.49682	0.038
Mof_H 	H 	0.56146	0.68887	0.49884	0.047
Mof_H 	H 	0.81809	0.60263	0.37983	0.048
Mof_H 	H 	0.82555	0.59432	0.3626	0.036
Mof_H 	H 	0.74369	0.94774	0.1392	0.048
Mof_H 	H 	0.79379	0.57381	0.3487	0.037
Mof_H 	H 	0.78643	0.58216	0.36592	0.048
Mof_H 	H 	0.31924	0.83294	0.32913	0.046
Mof_H 	H 	0.35348	0.79667	0.31321	0.047
Mof_H 	H 	0.31625	0.8308	0.29587	0.046
Mof_H 	H 	0.07546	0.09683	0.7861	0.034
Mof_H 	H 	0.3237	0.81	0.28097	0.037
Mof_H 	H 	0.33607	0.79597	0.26579	0.042
Mof_H 	H 	0.37842	0.78244	0.28752	0.042
Mof_H 	H 	0.3664	0.79661	0.30264	0.036
Mof_H 	H 	0.32781	0.81377	0.33968	0.036
Mof_H 	H 	0.04581	0.02139	0.25259	0.049
Mof_H 	H 	0.34223	0.80208	0.35573	0.042
Mof_H 	H 	0.38248	0.7863	0.34561	0.042
Mof_H 	H 	0.3684	0.79818	0.32977	0.036
Mof_H 	H 	0.2942	0.84593	0.32536	0.036
Mof_H 	H 	0.08305	0.10447	0.77393	0.051
Mof_H 	H 	0.27059	0.86891	0.32525	0.042
Mof_H 	H 	0.27589	0.87941	0.29877	0.042
Mof_H 	H 	0.29978	0.85663	0.29891	0.036
Mof_H 	H 	0.40865	0.75551	0.37313	0.041
Mof_H 	H 	0.4237	0.74319	0.38895	0.041
Mof_H 	H 	0.38857	0.77308	0.40556	0.041
Mof_H 	H 	0.06231	0.03	0.26858	0.035
Mof_H 	H 	0.37353	0.7854	0.38973	0.041
Mof_H 	H 	0.22214	0.91716	0.2951	0.041
Mof_H 	H 	0.19816	0.94022	0.29517	0.041
Mof_H 	H 	0.19317	0.13963	0.70248	0.051
Mof_H 	H 	0.2057	0.94537	0.32906	0.041
Mof_H 	H 	0.22968	0.92232	0.329	0.041
Mof_H 	H 	0.40172	0.74828	0.25856	0.041
Mof_H 	H 	0.41496	0.73355	0.24381	0.041
Mof_H 	H 	0.37651	0.75827	0.22183	0.041
Mof_H 	H 	0.36327	0.77299	0.23658	0.041
Mof_H 	H 	0.41782	0.75034	0.43636	0.047
Mof_H 	H 	0.02924	0.04584	0.28671	0.037
Mof_H 	H 	0.43222	0.73811	0.45217	0.038
Mof_H 	H 	0.46688	0.70606	0.43542	0.037
Mof_H 	H 	0.1987	0.14707	0.68897	0.033
Mof_H 	H 	0.45233	0.71842	0.4196	0.047
Mof_H 	H 	0.40634	0.73555	0.19507	0.047
Mof_H 	H 	0.41939	0.72138	0.18029	0.038
Mof_H 	H 	0.44976	0.68498	0.19812	0.037
Mof_H 	H 	0.4366	0.69928	0.21291	0.047
Mof_H 	H 	0.15891	0.99164	0.32932	0.046
Mof_H 	H 	0.13421	0.01545	0.32945	0.039
Mof_H 	H 	0.12548	0.00885	0.2953	0.039
Mof_H 	H 	0.01305	0.03729	0.27082	0.049
Mof_H 	H 	0.1502	0.98505	0.29523	0.046
Mof_H 	H 	0.15216	0.16431	0.67374	0.035
Mof_H 	H 	0.27367	0.71649	0.99096	0.045
Mof_H 	H 	0.24177	0.75432	0.00928	0.044
Mof_H 	H 	0.2298	0.74268	0.97415	0.045
Mof_H 	H 	0.20613	0.75297	0.97576	0.036
Mof_H 	H 	0.18086	0.7731	0.97525	0.042
Mof_H 	H 	0.19534	0.79747	0.00596	0.042
Mof_H 	H 	0.22089	0.77756	0.00652	0.037
Mof_H 	H 	0.29092	0.72197	0.00489	0.036
Mof_H 	H 	0.3105	0.71601	0.02095	0.042
Mof_H 	H 	0.87352	0.9889	0.16448	0.036
Mof_H 	H 	0.14703	0.15685	0.68715	0.051
Mof_H 	H 	0.83076	0.84838	0.3251	0.046
Mof_H 	H 	0.2778	0.73601	0.03978	0.042
Mof_H 	H 	0.25792	0.74177	0.02366	0.037
Mof_H 	H 	0.28012	0.71413	0.97566	0.036
Mof_H 	H 	0.28737	0.69757	0.95896	0.042
Mof_H 	H 	0.2425	0.70296	0.94481	0.042
Mof_H 	H 	0.23506	0.71927	0.9616	0.036
Mof_H 	H 	0.31959	0.73201	0.07169	0.041
Mof_H 	H 	0.34003	0.72562	0.08758	0.041
Mof_H 	H 	0.36841	0.68904	0.06748	0.041
Mof_H 	H 	0.54699	0.50037	0.88993	0.041
Mof_H 	H 	0.34798	0.69543	0.05159	0.041
Mof_H 	H 	0.81704	0.81046	0.31007	0.047
Mof_H 	H 	0.25788	0.67871	0.91047	0.041
Mof_H 	H 	0.26578	0.66199	0.89376	0.041
Mof_H 	H 	0.30994	0.64029	0.91171	0.041
Mof_H 	H 	0.30204	0.65701	0.92842	0.041
Mof_H 	H 	0.14236	0.83192	0.00608	0.041
Mof_H 	H 	0.11658	0.85188	0.00521	0.041
Mof_H 	H 	0.10678	0.83753	0.97117	0.041
Mof_H 	H 	0.13256	0.81757	0.97204	0.041
Mof_H 	H 	0.10976	0.80363	0.47582	0.041
Mof_H 	H 	0.40423	0.67149	0.09981	0.047
Mof_H 	H 	0.42495	0.66488	0.1154	0.037
Mof_H 	H 	0.84581	0.81032	0.34143	0.046
Mof_H 	H 	0.40513	0.71132	0.13285	0.037
Mof_H 	H 	0.38441	0.71784	0.11719	0.047
Mof_H 	H 	0.05657	0.87801	0.96937	0.047
Mof_H 	H 	0.03094	0.89813	0.96844	0.037
Mof_H 	H 	0.03977	0.91016	0.00269	0.037
Mof_H 	H 	0.06538	0.89001	0.00355	0.047
Mof_H 	H 	0.31862	0.60029	0.87819	0.048
Mof_H 	H 	0.57263	0.4921	0.90086	0.041
Mof_H 	H 	0.32623	0.58445	0.86123	0.036
Mof_H 	H 	0.29456	0.62265	0.8453	0.038
Mof_H 	H 	0.28709	0.63828	0.86218	0.048
Mof_H 	H 	0.83513	0.79438	0.34233	0.036
Mof_H 	H 	0.33239	0.33676	0.32845	0.046
Mof_H 	H 	0.29565	0.32351	0.31235	0.046
Mof_H 	H 	0.33159	0.30814	0.29676	0.045
Mof_H 	H 	0.32275	0.28955	0.28601	0.036
Mof_H 	H 	0.30944	0.27668	0.27043	0.042
Mof_H 	H 	0.26857	0.30718	0.28032	0.042
Mof_H 	H 	0.20465	0.5992	0.74681	0.041
Mof_H 	H 	0.55591	0.50363	0.92879	0.041
Mof_H 	H 	0.28156	0.3204	0.29575	0.036
Mof_H 	H 	0.32572	0.33945	0.34376	0.036
Mof_H 	H 	0.3141	0.35401	0.35912	0.042
Mof_H 	H 	0.2714	0.35947	0.33885	0.042
Mof_H 	H 	0.83501	0.76916	0.34153	0.042
Mof_H 	H 	0.28276	0.34528	0.32333	0.036
Mof_H 	H 	0.35729	0.32639	0.33051	0.036
Mof_H 	H 	0.38116	0.32597	0.33126	0.042
Mof_H 	H 	0.37303	0.31543	0.29711	0.042
Mof_H 	H 	0.34885	0.31617	0.29617	0.036
Mof_H 	H 	0.53027	0.5119	0.91785	0.041
Mof_H 	H 	0.25078	0.38039	0.37118	0.041
Mof_H 	H 	0.23915	0.3949	0.38674	0.041
Mof_H 	H 	0.27729	0.40483	0.4038	0.041
Mof_H 	H 	0.28892	0.39032	0.38823	0.041
Mof_H 	H 	0.42488	0.30739	0.30009	0.041
Mof_H 	H 	0.82902	0.75922	0.30749	0.042
Mof_H 	H 	0.44917	0.30693	0.30121	0.041
Mof_H 	H 	0.45015	0.3317	0.33358	0.041
Mof_H 	H 	0.42586	0.33216	0.33246	0.041
Mof_H 	H 	0.24287	0.27832	0.25114	0.041
Mof_H 	H 	0.48038	0.52772	0.89656	0.041
Mof_H 	H 	0.22925	0.26541	0.23559	0.041
Mof_H 	H 	0.26778	0.24092	0.22211	0.041
Mof_H 	H 	0.2814	0.25383	0.23767	0.041
Mof_H 	H 	0.25101	0.43834	0.43301	0.047
Mof_H 	H 	0.23893	0.4527	0.44836	0.037
Mof_H 	H 	0.20694	0.4326	0.43393	0.038
Mof_H 	H 	0.82951	0.78403	0.30814	0.036
Mof_H 	H 	0.21903	0.41835	0.41869	0.047
Mof_H 	H 	0.20342	0.23704	0.20588	0.047
Mof_H 	H 	0.1898	0.22401	0.19054	0.038
Mof_H 	H 	0.45473	0.53597	0.88563	0.041
Mof_H 	H 	0.22573	0.20487	0.17467	0.037
Mof_H 	H 	0.23931	0.21796	0.19006	0.047
Mof_H 	H 	0.50021	0.32777	0.33621	0.047
Mof_H 	H 	0.52441	0.32722	0.33704	0.037
Mof_H 	H 	0.51977	0.30832	0.30344	0.038
Mof_H 	H 	0.49566	0.3089	0.30267	0.047
Mof_H 	H 	0.16709	0.25513	0.4949	0.048
Mof_H 	H 	0.80804	0.86193	0.31403	0.036
Mof_H 	H 	0.157	0.21507	0.47897	0.048
Mof_H 	H 	0.15663	0.24386	0.46046	0.047
Mof_H 	H 	0.47138	0.52496	0.85775	0.041
Mof_H 	H 	0.16276	0.21979	0.44842	0.036
Mof_H 	H 	0.15548	0.20245	0.43229	0.042
Mof_H 	H 	0.13119	0.19515	0.44877	0.042
Mof_H 	H 	0.13797	0.21273	0.46483	0.036
Mof_H 	H 	0.18207	0.23885	0.50742	0.036
Mof_H 	H 	0.1854	0.2329	0.52471	0.042
Mof_H 	H 	0.1512	0.21588	0.51122	0.042
Mof_H 	H 	0.1474	0.22213	0.49396	0.036
Mof_H 	H 	0.79333	0.87334	0.29792	0.042
Mof_H 	H 	0.18227	0.26367	0.49179	0.036
Mof_H 	H 	0.49703	0.5167	0.86868	0.041
Mof_H 	H 	0.18579	0.28645	0.49157	0.042
Mof_H 	H 	0.15264	0.29342	0.46252	0.042
Mof_H 	H 	0.14863	0.27088	0.46274	0.036
Mof_H 	H 	0.16588	0.1955	0.54228	0.041
Mof_H 	H 	0.16941	0.18908	0.55959	0.041
Mof_H 	H 	0.1876	0.22316	0.57595	0.041
Mof_H 	H 	0.18407	0.22958	0.55863	0.041
Mof_H 	H 	0.16871	0.33029	0.46008	0.041
Mof_H 	H 	0.17273	0.35316	0.46018	0.041
Mof_H 	H 	0.80164	0.82755	0.27887	0.042
Mof_H 	H 	0.62028	0.49146	0.92757	0.047
Mof_H 	H 	0.18844	0.35889	0.4942	0.041
Mof_H 	H 	0.18443	0.33602	0.4941	0.041
Mof_H 	H 	0.12955	0.15243	0.42049	0.041
Mof_H 	H 	0.1223	0.13455	0.40454	0.041
Mof_H 	H 	0.12312	0.15994	0.38427	0.041
Mof_H 	H 	0.13037	0.17782	0.40022	0.041
Mof_H 	H 	0.19051	0.16957	0.59196	0.049
Mof_H 	H 	0.19329	0.16227	0.6086	0.037
Mof_H 	H 	0.18229	0.21017	0.62467	0.036
Mof_H 	H 	0.17956	0.2173	0.60787	0.049
Mof_H 	H 	0.64563	0.48317	0.93895	0.036
Mof_H 	H 	0.85216	0.98561	0.16547	0.042
Mof_H 	H 	0.81663	0.81596	0.29474	0.036
Mof_H 	H 	0.09739	0.13359	0.35589	0.049
Mof_H 	H 	0.0891	0.11709	0.33972	0.037
Mof_H 	H 	0.11127	0.07827	0.3561	0.035
Mof_H 	H 	0.11954	0.09504	0.37232	0.049
Mof_H 	H 	0.1939	0.4039	0.4941	0.048
Mof_H 	H 	0.19725	0.42688	0.49368	0.036
Mof_H 	H 	0.18523	0.41721	0.45934	0.037
Mof_H 	H 	0.18194	0.39439	0.45988	0.048
Mof_H 	H 	0.63297	0.46344	0.95643	0.038
Mof_H 	H 	0.42799	0.48687	0.65447	0.046
Mof_H 	H 	0.41763	0.47627	0.61986	0.046
Mof_H 	H 	0.83409	0.86266	0.342	0.036
Mof_H 	H 	0.38461	0.48881	0.6376	0.046
Mof_H 	H 	0.36785	0.49835	0.62331	0.036
Mof_H 	H 	0.34865	0.49581	0.60752	0.042
Mof_H 	H 	0.38197	0.4624	0.59014	0.042
Mof_H 	H 	0.40155	0.46453	0.60612	0.036
Mof_H 	H 	0.44427	0.49432	0.65286	0.037
Mof_H 	H 	0.47004	0.48915	0.65456	0.042
Mof_H 	H 	0.38865	0.7211	0.47514	0.048
Mof_H 	H 	0.47083	0.45692	0.62474	0.042
Mof_H 	H 	0.44486	0.4617	0.62302	0.036
Mof_H 	H 	0.42258	0.48151	0.66758	0.036
Mof_H 	H 	0.84775	0.87545	0.35728	0.042
Mof_H 	H 	0.41505	0.48965	0.68464	0.042
Mof_H 	H 	0.37022	0.51529	0.66952	0.042
Mof_H 	H 	0.3776	0.50764	0.65244	0.036
Mof_H 	H 	0.52062	0.45586	0.62744	0.041
Mof_H 	H 	0.54672	0.45149	0.63	0.041
Mof_H 	H 	0.54966	0.46753	0.66372	0.041
Mof_H 	H 	0.18864	0.61563	0.77561	0.041
Mof_H 	H 	0.6078	0.47174	0.94509	0.047
Mof_H 	H 	0.52356	0.4719	0.66116	0.041
Mof_H 	H 	0.35699	0.51755	0.702	0.041
Mof_H 	H 	0.34954	0.52553	0.71924	0.041
Mof_H 	H 	0.39204	0.52614	0.73587	0.041
Mof_H 	H 	0.87804	0.83119	0.36613	0.042
Mof_H 	H 	0.39949	0.51816	0.71862	0.041
Mof_H 	H 	0.33993	0.46785	0.55729	0.041
Mof_H 	H 	0.31957	0.46617	0.54177	0.041
Mof_H 	H 	0.2907	0.48096	0.56294	0.041
Mof_H 	H 	0.31106	0.48265	0.57845	0.041
Mof_H 	H 	0.40709	0.53852	0.86058	0.047
Mof_H 	H 	0.6021	0.45742	0.66868	0.047
Mof_H 	H 	0.62805	0.45321	0.67085	0.037
Mof_H 	H 	0.6232	0.44007	0.63681	0.038
Mof_H 	H 	0.59738	0.44429	0.63472	0.047
Mof_H 	H 	0.25567	0.46499	0.53138	0.047
Mof_H 	H 	0.86476	0.81811	0.35072	0.036
Mof_H 	H 	0.23504	0.46372	0.5161	0.038
Mof_H 	H 	0.25319	0.47444	0.49675	0.037
Mof_H 	H 	0.27382	0.47569	0.51209	0.047
Mof_H 	H 	0.37237	0.55164	0.76776	0.048
Mof_H 	H 	0.38147	0.54673	0.84979	0.037
Mof_H 	H 	0.36503	0.56007	0.78499	0.037
Mof_H 	H 	0.33325	0.53958	0.77119	0.036
Mof_H 	H 	0.3407	0.53118	0.75395	0.048
Mof_H 	H 	0.27032	0.16657	0.00161	0.047
Mof_H 	H 	0.23244	0.15554	0.98546	0.048
Mof_H 	H 	0.25921	0.15522	0.96705	0.047
Mof_H 	H 	0.76427	0.85133	0.24989	0.041
Mof_H 	H 	0.25032	0.13582	0.95539	0.036
Mof_H 	H 	0.23307	0.12843	0.93953	0.042
Mof_H 	H 	0.19705	0.15686	0.95545	0.042
Mof_H 	H 	0.39353	0.56278	0.8295	0.037
Mof_H 	H 	0.21392	0.16467	0.97116	0.036
Mof_H 	H 	0.26875	0.15619	0.01498	0.036
Mof_H 	H 	0.26149	0.15987	0.03158	0.042
Mof_H 	H 	0.21565	0.17761	0.01564	0.042
Mof_H 	H 	0.22261	0.17443	0.99918	0.036
Mof_H 	H 	0.28112	0.17999	0.99833	0.036
Mof_H 	H 	0.30277	0.18281	0.99739	0.042
Mof_H 	H 	0.74928	0.86227	0.23352	0.041
Mof_H 	H 	0.30582	0.14951	0.96804	0.042
Mof_H 	H 	0.28445	0.14618	0.96896	0.036
Mof_H 	H 	0.41914	0.55452	0.84035	0.048
Mof_H 	H 	0.20285	0.17452	0.04452	0.041
Mof_H 	H 	0.19443	0.178	0.06062	0.041
Mof_H 	H 	0.23572	0.179	0.08033	0.041
Mof_H 	H 	0.24414	0.17552	0.06423	0.041
Mof_H 	H 	0.34076	0.16515	0.96376	0.041
Mof_H 	H 	0.36242	0.16826	0.96273	0.041
Mof_H 	H 	0.37245	0.18221	0.99681	0.041
Mof_H 	H 	0.35079	0.1791	0.99784	0.041
Mof_H 	H 	0.75779	0.90344	0.24779	0.041
Mof_H 	H 	0.17155	0.12662	0.92889	0.041
Mof_H 	H 	0.58559	0.56691	0.59136	0.041
Mof_H 	H 	0.15358	0.11932	0.91348	0.041
Mof_H 	H 	0.17385	0.12292	0.89204	0.041
Mof_H 	H 	0.19182	0.13022	0.90744	0.041
Mof_H 	H 	0.22091	0.18296	0.11046	0.048
Mof_H 	H 	0.21328	0.18534	0.12654	0.037
Mof_H 	H 	0.17008	0.18911	0.10753	0.037
Mof_H 	H 	0.1779	0.18671	0.09148	0.048
Mof_H 	H 	0.14712	0.09868	0.86413	0.049
Mof_H 	H 	0.13091	0.09017	0.84824	0.038
Mof_H 	H 	0.77277	0.89249	0.26416	0.041
Mof_H 	H 	0.60148	0.54841	0.60379	0.041
Mof_H 	H 	0.09773	0.10626	0.86631	0.035
Mof_H 	H 	0.11425	0.11482	0.88231	0.049
Mof_H 	H 	0.41438	0.18748	0.99477	0.048
Mof_H 	H 	0.43607	0.19031	0.99367	0.037
Mof_H 	H 	0.42503	0.17755	0.95946	0.037
Mof_H 	H 	0.40339	0.17476	0.96065	0.048
Mof_H 	H 	0.35588	0.80615	0.81681	0.047
Mof_H 	H 	0.33309	0.85574	0.81686	0.047
Mof_H 	H 	0.30954	0.82983	0.81728	0.047
Mof_H 	H 	0.28994	0.84802	0.80844	0.036
Mof_H 	H 	0.61836	0.51277	0.57776	0.041
Mof_H 	H 	0.8983	0.85937	0.39956	0.041
Mof_H 	H 	0.26662	0.87113	0.80937	0.042
Mof_H 	H 	0.29068	0.89964	0.82659	0.042
Mof_H 	H 	0.31432	0.8764	0.826	0.036
Mof_H 	H 	0.36961	0.80696	0.80717	0.036
Mof_H 	H 	0.3935	0.8058	0.80718	0.042
Mof_H 	H 	0.3818	0.8528	0.82465	0.042
Mof_H 	H 	0.35782	0.85407	0.82498	0.036
Mof_H 	H 	0.34885	0.78571	0.80713	0.036
Mof_H 	H 	0.34854	0.76097	0.80711	0.042
Mof_H 	H 	0.60247	0.53127	0.56533	0.041
Mof_H 	H 	0.31549	0.78556	0.82589	0.042
Mof_H 	H 	0.85522	0.95213	0.1362	0.042
Mof_H 	H 	0.91182	0.87254	0.41502	0.041
Mof_H 	H 	0.31593	0.81037	0.82627	0.036
Mof_H 	H 	0.4267	0.85041	0.81909	0.041
Mof_H 	H 	0.45116	0.8481	0.81872	0.041
Mof_H 	H 	0.46686	0.7982	0.81149	0.041
Mof_H 	H 	0.4424	0.80051	0.81185	0.041
Mof_H 	H 	0.30905	0.73831	0.81863	0.041
Mof_H 	H 	0.30863	0.71333	0.8184	0.041
Mof_H 	H 	0.57359	0.56581	0.54241	0.041
Mof_H 	H 	0.35297	0.68865	0.81329	0.041
Mof_H 	H 	0.35339	0.71363	0.81351	0.041
Mof_H 	H 	0.24303	0.94482	0.82241	0.041
Mof_H 	H 	0.89382	0.91156	0.39954	0.041
Mof_H 	H 	0.21884	0.96749	0.82298	0.041
Mof_H 	H 	0.19776	0.93654	0.8168	0.041
Mof_H 	H 	0.22195	0.91387	0.81623	0.041
Mof_H 	H 	0.51647	0.79584	0.81746	0.048
Mof_H 	H 	0.54063	0.79415	0.81703	0.036
Mof_H 	H 	0.51918	0.84082	0.81072	0.037
Mof_H 	H 	0.16302	0.62124	0.76492	0.041
Mof_H 	H 	0.41328	0.71825	0.47508	0.037
Mof_H 	H 	0.4952	0.84237	0.81117	0.048
Mof_H 	H 	0.15141	0.98072	0.81923	0.047
Mof_H 	H 	0.1266	0.00432	0.81978	0.038
Mof_H 	H 	0.14771	0.03438	0.82328	0.038
Mof_H 	H 	0.8803	0.8984	0.38409	0.041
Mof_H 	H 	0.17239	0.01077	0.82272	0.047
Mof_H 	H 	0.35217	0.64141	0.81274	0.048
Mof_H 	H 	0.35197	0.61646	0.81256	0.036
Mof_H 	H 	0.30765	0.64105	0.81797	0.036
Mof_H 	H 	0.30799	0.66593	0.81812	0.048
Mof_H 	H 	0.55772	0.58432	0.52999	0.041
Mof_H 	H 	0.39276	0.91216	0.62315	0.047
Mof_H 	H 	0.43136	0.8789	0.64034	0.047
Mof_H 	H 	0.40541	0.92285	0.65768	0.047
Mof_H 	H 	0.41522	0.90792	0.67103	0.036
Mof_H 	H 	0.43296	0.89971	0.68754	0.042
Mof_H 	H 	0.81843	0.71619	0.30616	0.041
Mof_H 	H 	0.4679	0.87341	0.67046	0.042
Mof_H 	H 	0.45051	0.8818	0.654	0.036
Mof_H 	H 	0.39365	0.88833	0.61059	0.036
Mof_H 	H 	0.39979	0.86885	0.5943	0.042
Mof_H 	H 	0.53965	0.61943	0.55581	0.041
Mof_H 	H 	0.44599	0.85299	0.60935	0.042
Mof_H 	H 	0.44016	0.87249	0.62547	0.036
Mof_H 	H 	0.36907	0.9297	0.62613	0.036
Mof_H 	H 	0.34778	0.95523	0.62687	0.042
Mof_H 	H 	0.37179	0.97318	0.65617	0.042
Mof_H 	H 	0.39324	0.948	0.65544	0.036
Mof_H 	H 	0.81782	0.6909	0.30485	0.041
Mof_H 	H 	0.4579	0.81172	0.5802	0.041
Mof_H 	H 	0.46502	0.79151	0.56432	0.041
Mof_H 	H 	0.42103	0.81245	0.54588	0.041
Mof_H 	H 	0.55553	0.60092	0.56823	0.041
Mof_H 	H 	0.4139	0.83266	0.56177	0.041
Mof_H 	H 	0.32694	0.01947	0.6603	0.041
Mof_H 	H 	0.30565	0.04524	0.66142	0.041
Mof_H 	H 	0.28831	0.03446	0.62782	0.041
Mof_H 	H 	0.3096	0.00868	0.6267	0.041
Mof_H 	H 	0.49904	0.85067	0.70087	0.041
Mof_H 	H 	0.51714	0.84188	0.71727	0.041
Mof_H 	H 	0.84273	0.68949	0.33716	0.041
Mof_H 	H 	0.48855	0.88041	0.7364	0.041
Mof_H 	H 	0.47046	0.88919	0.72	0.041
Mof_H 	H 	0.627	0.48199	0.60524	0.05
Mof_H 	H 	0.43494	0.77305	0.51529	0.048
Mof_H 	H 	0.44206	0.7524	0.49967	0.036
Mof_H 	H 	0.48611	0.732	0.5184	0.037
Mof_H 	H 	0.47888	0.75267	0.53395	0.048
Mof_H 	H 	0.51982	0.86228	0.76705	0.048
Mof_H 	H 	0.53621	0.85441	0.78389	0.038
Mof_H 	H 	0.57005	0.81972	0.76708	0.035
Mof_H 	H 	0.55335	0.82783	0.7501	0.048
Mof_H 	H 	0.84334	0.71477	0.33847	0.041
Mof_H 	H 	0.24872	0.08577	0.62971	0.048
Mof_H 	H 	0.642	0.46379	0.61778	0.035
Mof_H 	H 	0.22734	0.11133	0.63075	0.037
Mof_H 	H 	0.24122	0.11952	0.66496	0.037
Mof_H 	H 	0.26258	0.09392	0.66384	0.047
Mof_H 	H 	0.34139	0.32367	0.82351	0.047
Mof_H 	H 	0.32773	0.28571	0.80853	0.046
Mof_H 	H 	0.31267	0.32372	0.79214	0.046
Mof_H 	H 	0.29377	0.31588	0.7828	0.036
Mof_H 	H 	0.28053	0.30276	0.7674	0.042
Mof_H 	H 	0.31072	0.25856	0.77637	0.042
Mof_H 	H 	0.73454	0.92146	0.21546	0.048
Mof_H 	H 	0.66617	0.49249	0.63502	0.035
Mof_H 	H 	0.32435	0.27138	0.79165	0.036
Mof_H 	H 	0.34172	0.31827	0.83885	0.036
Mof_H 	H 	0.35673	0.30679	0.85476	0.042
Mof_H 	H 	0.3652	0.26091	0.83581	0.042
Mof_H 	H 	0.35048	0.27221	0.81966	0.036
Mof_H 	H 	0.32887	0.35008	0.82543	0.036
Mof_H 	H 	0.32939	0.37488	0.8261	0.042
Mof_H 	H 	0.32353	0.36491	0.79207	0.042
Mof_H 	H 	0.32338	0.3397	0.79125	0.036
Mof_H 	H 	0.38535	0.24226	0.86986	0.041
Mof_H 	H 	0.65104	0.51059	0.62239	0.05
Mof_H 	H 	0.72015	0.93354	0.19969	0.038
Mof_H 	H 	0.40035	0.23146	0.88628	0.041
Mof_H 	H 	0.4096	0.27224	0.90009	0.041
Mof_H 	H 	0.39459	0.28303	0.88366	0.041
Mof_H 	H 	0.31472	0.41966	0.79533	0.041
Mof_H 	H 	0.31537	0.44493	0.79669	0.041
Mof_H 	H 	0.34129	0.4428	0.8287	0.041
Mof_H 	H 	0.34064	0.41752	0.82735	0.041
Mof_H 	H 	0.27824	0.23552	0.74951	0.041
Mof_H 	H 	0.26475	0.22231	0.73406	0.041
Mof_H 	H 	0.50751	0.62212	0.5113	0.05
Mof_H 	H 	0.24675	0.2613	0.71854	0.041
Mof_H 	H 	0.70087	0.89986	0.18727	0.036
Mof_H 	H 	0.26024	0.27451	0.73399	0.041
Mof_H 	H 	0.44324	0.24702	0.93053	0.048
Mof_H 	H 	0.45784	0.23505	0.94657	0.036
Mof_H 	H 	0.43811	0.20177	0.93449	0.039
Mof_H 	H 	0.42375	0.21371	0.91867	0.048
Mof_H 	H 	0.2183	0.23589	0.68906	0.047
Mof_H 	H 	0.20495	0.22218	0.67394	0.037
Mof_H 	H 	0.22776	0.18171	0.68861	0.038
Mof_H 	H 	0.49248	0.64033	0.49872	0.035
Mof_H 	H 	0.24098	0.19545	0.70361	0.047
Mof_H 	H 	0.32061	0.49067	0.79808	0.048
Mof_H 	H 	0.87687	0.95491	0.1352	0.036
Mof_H 	H 	0.71549	0.88776	0.20325	0.048
Mof_H 	H 	0.32095	0.51571	0.79882	0.038
Mof_H 	H 	0.33864	0.51977	0.83269	0.037
Mof_H 	H 	0.33824	0.49458	0.83185	0.048
Mof_H 	H 	0.72703	0.161	0.97692	0.047
Mof_H 	H 	0.74785	0.19014	0.97712	0.047
Mof_H 	H 	0.70109	0.20982	0.97573	0.048
Mof_H 	H 	0.1133	0.63236	0.74418	0.041
Mof_H 	H 	0.51694	0.66872	0.51607	0.035
Mof_H 	H 	0.70574	0.2311	0.98613	0.036
Mof_H 	H 	0.70224	0.25726	0.98569	0.042
Mof_H 	H 	0.73606	0.23726	0.96781	0.042
Mof_H 	H 	0.73947	0.21083	0.9679	0.036
Mof_H 	H 	0.83836	0.64324	0.33565	0.048
Mof_H 	H 	0.74655	0.14138	0.96911	0.036
Mof_H 	H 	0.77086	0.11909	0.96973	0.042
Mof_H 	H 	0.79253	0.15006	0.98615	0.042
Mof_H 	H 	0.76842	0.17238	0.98588	0.036
Mof_H 	H 	0.70269	0.16098	0.96717	0.036
Mof_H 	H 	0.43146	0.66985	0.47712	0.036
Mof_H 	H 	0.67896	0.16061	0.96649	0.042
Mof_H 	H 	0.66508	0.20711	0.98485	0.042
Mof_H 	H 	0.68867	0.20755	0.98585	0.036
Mof_H 	H 	0.83907	0.10759	0.98206	0.041
Mof_H 	H 	0.86371	0.0854	0.98262	0.041
Mof_H 	H 	0.83806	0.61818	0.33492	0.038
Mof_H 	H 	0.84346	0.05366	0.97632	0.041
Mof_H 	H 	0.81882	0.07585	0.97575	0.041
Mof_H 	H 	0.61713	0.2102	0.97785	0.041
Mof_H 	H 	0.59272	0.21135	0.97724	0.041
Mof_H 	H 	0.53182	0.65043	0.52853	0.05
Mof_H 	H 	0.61009	0.16133	0.96985	0.041
Mof_H 	H 	0.63451	0.16017	0.97046	0.041
Mof_H 	H 	0.73366	0.28964	0.9749	0.041
Mof_H 	H 	0.72928	0.31653	0.97479	0.041
Mof_H 	H 	0.68449	0.33297	0.97762	0.041
Mof_H 	H 	0.68886	0.30608	0.97772	0.041
Mof_H 	H 	0.81982	0.6144	0.30112	0.036
Mof_H 	H 	0.89123	0.01193	0.98087	0.048
Mof_H 	H 	0.91559	0.98959	0.98148	0.036
Mof_H 	H 	0.93499	0.01921	0.98091	0.036
Mof_H 	H 	0.0802	0.042	0.04478	0.041
Mof_H 	H 	0.91052	0.04153	0.9803	0.048
Mof_H 	H 	0.67667	0.38447	0.97666	0.049
Mof_H 	H 	0.67363	0.41088	0.97663	0.035
Mof_H 	H 	0.71953	0.39214	0.97536	0.037
Mof_H 	H 	0.72237	0.36604	0.97541	0.048
Mof_H 	H 	0.56609	0.16364	0.97332	0.048
Mof_H 	H 	0.54238	0.1638	0.97296	0.037
Mof_H 	H 	0.82018	0.63961	0.30194	0.048
Mof_H 	H 	0.52049	0.21262	0.97132	0.035
Mof_H 	H 	0.54443	0.21229	0.97167	0.048
Mof_H 	H 	0.06587	0.02637	0.03361	0.041
Mof_H 	H 	0.86319	0.81001	0.82126	0.046
Mof_H 	H 	0.82647	0.79672	0.80523	0.046
Mof_H 	H 	0.82725	0.82547	0.83688	0.045
Mof_H 	H 	0.80999	0.81738	0.83748	0.036
Mof_H 	H 	0.78581	0.81808	0.83652	0.042
Mof_H 	H 	0.77772	0.80756	0.80237	0.042
Mof_H 	H 	0.80159	0.80718	0.80314	0.036
Mof_H 	H 	0.87608	0.78812	0.81031	0.036
Mof_H 	H 	0.91796	0.93819	0.42983	0.047
Mof_H 	H 	0.88741	0.77385	0.79479	0.042
Mof_H 	H 	0.03768	0.04621	0.05593	0.041
Mof_H 	H 	0.84468	0.77942	0.77455	0.042
Mof_H 	H 	0.83308	0.79406	0.78992	0.036
Mof_H 	H 	0.87729	0.81315	0.83784	0.036
Mof_H 	H 	0.8903	0.8264	0.85322	0.042
Mof_H 	H 	0.84946	0.85699	0.86313	0.042
Mof_H 	H 	0.83613	0.84407	0.84759	0.036
Mof_H 	H 	0.86973	0.74299	0.74546	0.041
Mof_H 	H 	0.88132	0.72839	0.72988	0.041
Mof_H 	H 	0.91956	0.73816	0.74687	0.041
Mof_H 	H 	0.93122	0.95187	0.44485	0.038
Mof_H 	H 	0.05201	0.06184	0.0671	0.041
Mof_H 	H 	0.90798	0.75276	0.76245	0.041
Mof_H 	H 	0.87847	0.87785	0.89664	0.041
Mof_H 	H 	0.89213	0.89079	0.91215	0.041
Mof_H 	H 	0.92882	0.87032	0.89694	0.041
Mof_H 	H 	0.91516	0.85738	0.88144	0.041
Mof_H 	H 	0.73292	0.80161	0.80101	0.041
Mof_H 	H 	0.70863	0.80201	0.79983	0.041
Mof_H 	H 	0.70985	0.82608	0.83237	0.041
Mof_H 	H 	0.73414	0.82568	0.83354	0.041
Mof_H 	H 	0.93926	0.71504	0.71474	0.047
Mof_H 	H 	0.07954	0.09242	0.0886	0.041
Mof_H 	H 	0.95339	0.91166	0.45975	0.036
Mof_H 	H 	0.95131	0.70073	0.69948	0.038
Mof_H 	H 	0.91988	0.67986	0.68548	0.036
Mof_H 	H 	0.90783	0.69428	0.70084	0.047
Mof_H 	H 	0.6634	0.82403	0.83078	0.047
Mof_H 	H 	0.63931	0.82456	0.83	0.038
Mof_H 	H 	0.6344	0.80632	0.79631	0.037
Mof_H 	H 	0.6586	0.80582	0.79716	0.047
Mof_H 	H 	0.95583	0.89629	0.92757	0.047
Mof_H 	H 	0.96946	0.90934	0.9429	0.038
Mof_H 	H 	0.09387	0.10805	0.09977	0.041
Mof_H 	H 	0.93311	0.92937	0.95846	0.037
Mof_H 	H 	0.93999	0.898	0.44462	0.047
Mof_H 	H 	0.91953	0.91627	0.9431	0.047
Mof_H 	H 	0.84379	0.30306	0.83834	0.046
Mof_H 	H 	0.84086	0.3008	0.80506	0.046
Mof_H 	H 	0.80639	0.33688	0.82085	0.047
Mof_H 	H 	0.79155	0.33516	0.80429	0.036
Mof_H 	H 	0.77739	0.34694	0.78841	0.042
Mof_H 	H 	0.81761	0.33154	0.77835	0.042
Mof_H 	H 	0.8321	0.31996	0.79443	0.036
Mof_H 	H 	0.1225	0.08766	0.07771	0.041
Mof_H 	H 	0.86048	0.27733	0.83542	0.036
Mof_H 	H 	0.88449	0.25471	0.83566	0.042
Mof_H 	H 	0.24138	0.69384	0.4761	0.047
Mof_H 	H 	0.88965	0.26514	0.80908	0.042
Mof_H 	H 	0.86591	0.28796	0.80887	0.036
Mof_H 	H 	0.83613	0.32393	0.85318	0.037
Mof_H 	H 	0.82365	0.33793	0.8683	0.042
Mof_H 	H 	0.78137	0.35096	0.84646	0.042
Mof_H 	H 	0.79351	0.33681	0.83139	0.036
Mof_H 	H 	0.93095	0.21194	0.80558	0.041
Mof_O 	O 	0.97477	0.96255	0.48338	-0.975
Mof_O 	O 	0.20355	0.14392	0.15174	-0.467
Mof_O 	O 	0.10787	0.03761	0.32185	-0.458
Mof_O 	O 	0.70262	0.9459	0.14941	-0.466
Mof_O 	O 	0.08119	0.0496	0.33255	-0.472
Mof_O 	O 	0.04057	0.08582	0.31198	-0.468
Mof_O 	O 	0.05673	0.05609	0.32205	-0.475
Mof_O 	O 	0.05255	0.10165	0.31401	-0.465
Mof_O 	O 	0.07031	0.04341	0.28918	-0.464
Mof_O 	O 	0.05042	0.05298	0.2975	-0.471
Mof_O 	O 	0.46542	0.67474	0.15685	-0.975
Mof_O 	O 	0.43154	0.69417	0.14444	-0.461
Mof_O 	O 	0.19734	0.18542	0.1375	-0.46
Mof_O 	O 	0.47593	0.65258	0.13493	-0.47
Mof_O 	O 	0.47678	0.70053	0.15715	-0.464
Mof_O 	O 	0.96812	0.96718	0.50626	-0.468
Mof_O 	O 	0.70164	0.93896	0.18229	-0.464
Mof_O 	O 	0.44206	0.66904	0.13453	-0.463
Mof_O 	O 	0.45146	0.71211	0.15757	-0.47
Mof_O 	O 	0.49069	0.66662	0.14423	-0.468
Mof_O 	O 	0.49884	0.6726	0.16899	-0.465
Mof_O 	O 	0.45651	0.67932	0.17906	-0.458
Mof_O 	O 	0.49035	0.66283	0.17813	-0.46
Mof_O 	O 	0.17107	0.14925	0.13912	-0.465
Mof_O 	O 	0.43956	0.69983	0.16972	-0.46
Mof_O 	O 	0.46299	0.64127	0.1468	-0.466
Mof_O 	O 	0.46959	0.64532	0.16563	-0.462
Mof_O 	O 	0.57604	0.31701	0.32034	-0.975
Mof_O 	O 	0.68407	0.97446	0.18097	-0.466
Mof_O 	O 	0.6116	0.304	0.32175	-0.467
Mof_O 	O 	0.56764	0.33838	0.30311	-0.466
Mof_O 	O 	0.57275	0.28747	0.30202	-0.467
Mof_O 	O 	0.59905	0.32933	0.31816	-0.464
Mof_O 	O 	0.59674	0.28039	0.31307	-0.468
Mof_O 	O 	0.98396	0.9862	0.50475	-0.457
Mof_O 	O 	0.55638	0.32052	0.29619	-0.465
Mof_O 	O 	0.54504	0.3121	0.31139	-0.459
Mof_O 	O 	0.58089	0.31352	0.34473	-0.461
Mof_O 	O 	0.54854	0.32233	0.32983	-0.455
Mof_O 	O 	0.60153	0.29545	0.33729	-0.468
Mof_O 	O 	0.65066	0.97505	0.14749	-0.473
Mof_O 	O 	0.57106	0.3535	0.32742	-0.464
Mof_O 	O 	0.56292	0.34662	0.33877	-0.465
Mof_O 	O 	0.82892	0.56052	0.31801	-0.974
Mof_O 	O 	0.85751	0.56337	0.33658	-0.464
Mof_O 	O 	0.17309	0.18823	0.12741	-0.462
Mof_O 	O 	0.84117	0.52313	0.31687	-0.466
Mof_O 	O 	0.80882	0.56914	0.33496	-0.464
Mof_O 	O 	0.8641	0.5385	0.32564	-0.462
Mof_O 	O 	0.8262	0.58038	0.34216	-0.463
Mof_O 	O 	0.81696	0.53654	0.31995	-0.466
Mof_O 	O 	0.79392	0.56645	0.31049	-0.461
Mof_O 	O 	0.65894	0.98337	0.17223	-0.47
Mof_O 	O 	0.82384	0.58965	0.30841	-0.46
Mof_O 	O 	0.80028	0.57511	0.29918	-0.462
Mof_O 	O 	0.83381	0.59281	0.32701	-0.464
Mof_O 	O 	0.21489	0.15932	0.15145	-0.466
Mof_O 	O 	0.84897	0.53408	0.30125	-0.464
Mof_O 	O 	0.83165	0.55615	0.29366	-0.46
Mof_O 	O 	0.66949	0.95969	0.1379	-0.472
Mof_O 	O 	0.65652	0.93403	0.1624	-0.463
Mof_O 	O 	0.64342	0.96055	0.1612	-0.469
Mof_O 	O 	0.19313	0.47521	0.47428	-0.974
Mof_O 	O 	0.20628	0.49807	0.47215	-0.467
Mof_O 	O 	0.15937	0.49538	0.46226	-0.465
Mof_O 	O 	0.96239	0.93524	0.47142	-0.46
Mof_O 	O 	0.20139	0.45145	0.45211	-0.461
Mof_O 	O 	0.20385	0.19479	0.16279	-0.457
Mof_O 	O 	0.18107	0.51186	0.4732	-0.465
Mof_O 	O 	0.21845	0.463	0.46077	-0.459
Mof_O 	O 	0.16781	0.46922	0.45351	-0.462
Mof_O 	O 	0.18943	0.44228	0.46632	-0.466
Mof_O 	O 	0.21728	0.46648	0.49661	-0.457
Mof_O 	O 	0.19671	0.44799	0.48514	-0.462
Mof_O 	O 	0.22702	0.47214	0.48576	-0.459
Mof_O 	O 	0.16832	0.50311	0.48702	-0.468
Mof_O 	O 	0.18322	0.48278	0.49663	-0.467
Mof_O 	O 	0.94304	0.9906	0.47536	-0.464
Mof_O 	O 	0.15209	0.21106	0.15835	-0.462
Mof_O 	O 	0.96574	0.65739	0.65939	-0.972
Mof_O 	O 	0.95695	0.68164	0.68141	-0.462
Mof_O 	O 	0.93182	0.66041	0.64768	-0.46
Mof_O 	O 	0.96216	0.68445	0.64842	-0.466
Mof_O 	O 	0.94027	0.66969	0.67298	-0.458
Mof_O 	O 	0.96911	0.69045	0.66718	-0.47
Mof_O 	O 	0.9417	0.66608	0.63701	-0.461
Mof_O 	O 	0.97548	0.64987	0.63696	-0.468
Mof_O 	O 	0.99964	0.63663	0.6711	-0.436
Mof_O 	O 	0.99054	0.62941	0.64639	-0.468
Mof_O 	O 	0.18446	0.20532	0.17172	-0.46
Mof_O 	O 	0.97284	0.94138	0.49658	-0.465
Mof_O 	O 	0.99058	0.66415	0.68025	-0.435
Mof_O 	O 	0.95234	0.63475	0.66136	-0.469
Mof_O 	O 	0.97733	0.6207	0.65999	-0.466
Mof_O 	O 	0.48043	0.18687	0.97382	-0.976
Mof_O 	O 	0.50183	0.20118	0.97173	-0.465
Mof_O 	O 	0.50752	0.16023	0.98664	-0.473
Mof_O 	O 	0.47265	0.21122	0.99584	-0.464
Mof_O 	O 	0.51494	0.17467	0.97297	-0.468
Mof_O 	O 	0.47782	0.22223	0.9852	-0.461
Mof_O 	O 	0.14734	0.20399	0.13962	-0.462
Mof_O 	O 	0.48878	0.17573	0.9963	-0.471
Mof_O 	O 	0.95043	0.99513	0.494	-0.464
Mof_O 	O 	0.45554	0.18943	0.98473	-0.464
Mof_O 	O 	0.45667	0.19634	0.95183	-0.464
Mof_O 	O 	0.44938	0.18234	0.96603	-0.465
Mof_O 	O 	0.46818	0.21399	0.95996	-0.458
Mof_O 	O 	0.49928	0.15192	0.96199	-0.471
Mof_O 	O 	0.47419	0.16097	0.95315	-0.467
Mof_O 	O 	0.18423	0.17079	0.65025	-0.977
Mof_O 	O 	0.16699	0.16617	0.66406	-0.476
Mof_O 	O 	0.99214	0.96685	0.4695	-0.479
Mof_O 	O 	0.17827	0.15827	0.16399	-0.471
Mof_O 	O 	0.21605	0.14301	0.65827	-0.463
Mof_O 	O 	0.17496	0.14722	0.62898	-0.468
Mof_O 	O 	0.94999	0.95632	0.46239	-0.464
Mof_O 	O 	0.19248	0.15844	0.67209	-0.473
Mof_O 	O 	0.15714	0.1593	0.63939	-0.47
Mof_O 	O 	0.20855	0.13839	0.63957	-0.463
Mof_O 	O 	0.1907	0.16626	0.62738	-0.467
Mof_O 	O 	0.16225	0.20796	0.65129	-0.464
Mof_O 	O 	0.18591	0.19217	0.63705	-0.462
Mof_O 	O 	0.14989	0.1937	0.65177	-0.468
Mof_O 	O 	0.16906	0.18501	0.17207	-0.47
Mof_O 	O 	0.20896	0.17718	0.67114	-0.462
Mof_O 	O 	0.19615	0.19848	0.66218	-0.457
Mof_O 	O 	0.69328	0.45872	0.97665	-0.974
Mof_O 	O 	0.96671	0.97479	0.46146	-0.472
Mof_O 	O 	0.68196	0.43286	0.97642	-0.464
Mof_O 	O 	0.71935	0.43378	0.96393	-0.461
Mof_O 	O 	0.66842	0.47057	0.95535	-0.46
Mof_O 	O 	0.70727	0.42115	0.97591	-0.466
Mof_O 	O 	0.66005	0.46072	0.96452	-0.465
Mof_O 	O 	0.70229	0.45413	0.95447	-0.458
Mof_O 	O 	0.97976	0.95397	0.98333	-0.972
Mof_O 	O 	0.68913	0.48823	0.96786	-0.461
Mof_O 	O 	0.68257	0.481	0.99852	-0.469
Mof_O 	O 	0.69578	0.49224	0.98669	-0.465
Mof_O 	O 	0.66817	0.46655	0.98926	-0.469
Mof_O 	O 	0.0022	0.9735	0.49405	-0.451
Mof_O 	O 	0.72708	0.43943	0.98899	-0.462
Mof_O 	O 	0.71651	0.46456	0.99888	-0.464
Mof_O 	O 	0.47716	0.69056	0.47729	-0.975
Mof_O 	O 	0.50939	0.69286	0.48768	-0.459
Mof_O 	O 	0.48816	0.66495	0.45647	-0.466
Mof_O 	O 	0.95512	0.93919	0.97038	-0.461
Mof_O 	O 	0.48457	0.66379	0.49002	-0.471
Mof_O 	O 	0.50518	0.68616	0.46896	-0.458
Mof_O 	O 	0.49843	0.67879	0.49949	-0.469
Mof_O 	O 	0.47854	0.65583	0.46528	-0.467
Mof_O 	O 	0.45241	0.67871	0.4768	-0.464
Mof_O 	O 	0.99619	0.92518	0.4824	-0.445
Mof_O 	O 	0.99023	0.94857	0.9618	-0.474
Mof_O 	O 	0.95504	0.98976	0.9817	-0.466
Mof_O 	O 	0.97473	0.92825	0.96176	-0.461
Mof_O 	O 	0.94404	0.97413	0.98201	-0.468
Mof_O 	O 	0.98072	0.97523	0.9697	-0.476
Mof_O 	O 	0.4588	0.72589	0.48879	-0.464
Mof_O 	O 	0.98752	0.98478	0.9943	-0.437
Mof_O 	O 	0.98606	0.94503	0.0062	-0.454
Mof_O 	O 	0.00211	0.96405	0.00487	-0.437
Mof_O 	O 	0.96135	0.9481	0.99557	-0.445
Mof_O 	O 	0.00735	0.92235	0.97528	-0.461
Mof_O 	O 	0.00915	0.93932	0.48169	-0.459
Mof_O 	O 	0.01212	0.92893	0.99395	-0.461
Mof_O 	O 	0.6818	0.44232	0.6566	-0.975
Mof_O 	O 	0.70657	0.45417	0.65706	-0.463
Mof_O 	O 	0.70588	0.41518	0.67016	-0.461
Mof_O 	O 	0.44142	0.7052	0.47581	-0.467
Mof_O 	O 	0.67068	0.46811	0.67739	-0.464
Mof_O 	O 	0.71748	0.42762	0.65788	-0.467
Mof_O 	O 	0.68035	0.47708	0.6685	-0.468
Mof_O 	O 	0.68617	0.43265	0.67886	-0.459
Mof_O 	O 	0.65361	0.44671	0.66482	-0.457
Mof_O 	O 	0.66065	0.45385	0.63442	-0.472
Mof_O 	O 	0.67784	0.94844	0.16034	-0.977
Mof_O 	O 	0.64961	0.44016	0.6461	-0.461
Mof_O 	O 	0.6742	0.46918	0.64383	-0.47
Mof_O 	O 	0.70018	0.40693	0.64492	-0.462
Mof_O 	O 	0.48275	0.71479	0.49932	-0.462
Mof_O 	O 	0.67615	0.41821	0.63452	-0.464
Mof_O 	O 	0.58297	0.81613	0.81308	-0.975
Mof_O 	O 	0.61404	0.8209	0.82204	-0.459
Mof_O 	O 	0.59606	0.7864	0.79462	-0.463
Mof_O 	O 	0.59139	0.79476	0.83028	-0.467
Mof_O 	O 	0.61032	0.81104	0.80355	-0.455
Mof_O 	O 	0.60269	0.81258	0.83724	-0.465
Mof_O 	O 	0.68565	0.92416	0.13828	-0.464
Mof_O 	O 	0.58787	0.77971	0.80605	-0.465
Mof_O 	O 	0.55995	0.80376	0.81512	-0.465
Mof_O 	O 	0.47289	0.70013	0.45502	-0.46
Mof_O 	O 	0.56228	0.85278	0.82028	-0.469
Mof_O 	O 	0.54741	0.8292	0.81176	-0.467
Mof_O 	O 	0.58624	0.84577	0.83136	-0.467
Mof_O 	O 	0.57822	0.81963	0.78873	-0.462
Mof_O 	O 	0.55756	0.83766	0.79615	-0.468
Mof_O 	O 	0.08401	0.0712	0.82217	-0.978
Mof_O 	O 	0.07883	0.08644	0.80236	-0.471
Mof_O 	O 	0.10974	0.08307	0.83743	-0.469
Mof_O 	O 	0.6904	0.92108	0.17404	-0.458
Mof_O 	O 	0.05737	0.10198	0.83178	-0.46
Mof_O 	O 	0.45321	0.71785	0.4637	-0.46
Mof_O 	O 	0.10329	0.07999	0.81287	-0.474
Mof_O 	O 	0.05229	0.09826	0.81308	-0.46
Mof_O 	O 	0.08969	0.09288	0.8457	-0.463
Mof_O 	O 	0.07254	0.07242	0.84202	-0.472
Mof_O 	O 	0.07523	0.04252	0.8068	-0.467
Mof_O 	O 	0.08043	0.04699	0.83145	-0.472
Mof_O 	O 	0.06305	0.06464	0.79873	-0.465
Mof_O 	O 	0.11935	0.05023	0.82288	-0.469
Mof_O 	O 	0.10739	0.03448	0.82106	-0.466
Mof_O 	O 	0.70884	0.95304	0.1681	-0.465
Mof_O 	O 	0.17945	0.17956	0.15038	-0.975
Mof_O 	O 	0.32985	0.57355	0.81575	-0.975
Mof_O 	O 	0.31757	0.61095	0.81676	-0.465
Mof_O 	O 	0.36479	0.56764	0.82329	-0.462
Mof_O 	O 	0.32687	0.5779	0.84002	-0.459
Mof_O 	O 	0.34188	0.59762	0.81384	-0.465
Mof_O 	O 	0.30967	0.59997	0.83241	-0.465
Mof_O 	O 	0.3584	0.55878	0.83447	-0.462
Mof_O 	O 	0.33477	0.54449	0.82538	-0.46
Mof_O 	O 	0.30138	0.57068	0.79714	-0.465
Mof_O 	O 	0.32509	0.54111	0.80673	-0.462
Mof_O 	O 	0.15743	0.16892	0.12896	-0.465
Mof_O 	O 	0.68087	0.91288	0.14896	-0.46
Mof_O 	O 	0.29477	0.59549	0.80814	-0.463
Mof_O 	O 	0.35001	0.56483	0.79878	-0.463
Mof_O 	O 	0.33263	0.55359	0.79163	-0.464
Mof_O 	O 	0.07606	0.06479	0.31276	-0.978
Mof_O 	O 	0.07958	0.08914	0.30358	-0.471
Mof_O 	O 	0.10303	0.03405	0.30319	-0.459
Mof_O 	O 	0.09695	0.07124	0.3361	-0.465
Mof_O 	O 	0.08757	0.06374	0.29296	-0.472
Mof_O 	O 	0.08451	0.09349	0.32816	-0.469
Mof_Zn	Zn	0.96953	0.97718	0.49648	1.206
Mof_Zn	Zn	0.49967	0.16924	0.97384	1.208
Mof_Zn	Zn	0.47453	0.19068	0.98706	1.207
Mof_Zn	Zn	0.97644	0.94196	0.48339	1.205
Mof_Zn	Zn	0.46579	0.18185	0.96175	1.207
Mof_Zn	Zn	0.16537	0.17245	0.65125	1.208
Mof_Zn	Zn	0.19979	0.16271	0.66237	1.207
Mof_Zn	Zn	0.1894	0.15625	0.63715	1.207
Mof_Zn	Zn	0.18221	0.19152	0.65023	1.205
Mof_Zn	Zn	0.67663	0.45484	0.9767	1.207
Mof_Zn	Zn	0.71099	0.43912	0.97638	1.205
Mof_Zn	Zn	0.17623	0.49548	0.47416	1.207
Mof_Zn	Zn	0.6885	0.46755	0.96409	1.204
Mof_Zn	Zn	0.69691	0.47345	0.98962	1.206
Mof_Zn	Zn	0.49137	0.69414	0.49038	1.205
Mof_Zn	Zn	0.95925	0.9707	0.47122	1.206
Mof_Zn	Zn	0.48551	0.68572	0.46499	1.206
Mof_Zn	Zn	0.47326	0.67306	0.47732	1.207
Mof_Zn	Zn	0.45845	0.70906	0.47642	1.206
Mof_Zn	Zn	0.16498	0.18491	0.13717	1.207
Mof_Zn	Zn	0.18288	0.15868	0.15121	1.206
Mof_Zn	Zn	0.19811	0.17983	0.15056	1.204
Mof_Zn	Zn	0.18812	0.46023	0.46205	1.205
Mof_Zn	Zn	0.17165	0.19462	0.1626	1.206
Mof_Zn	Zn	0.9609	0.95382	0.98278	1.205
Mof_Zn	Zn	0.98762	0.93884	0.97111	1.205
Mof_Zn	Zn	0.9759	0.97501	0.98238	1.206
Mof_Zn	Zn	0.99372	0.96059	0.48226	1.208
Mof_Zn	Zn	0.9944	0.94818	0.99648	1.205
Mof_Zn	Zn	0.68565	0.45984	0.65651	1.206
Mof_Zn	Zn	0.7005	0.42378	0.65736	1.206
Mof_Zn	Zn	0.6734	0.44716	0.66888	1.205
Mof_Zn	Zn	0.66767	0.43868	0.64351	1.206
Mof_Zn	Zn	0.19747	0.46838	0.48761	1.204
Mof_Zn	Zn	0.59597	0.82351	0.82538	1.205
Mof_Zn	Zn	0.59158	0.80864	0.80054	1.205
Mof_Zn	Zn	0.58059	0.79936	0.81601	1.207
Mof_Zn	Zn	0.56343	0.83315	0.81046	1.207
Mof_Zn	Zn	0.07005	0.07975	0.80963	1.206
Mof_Zn	Zn	0.68368	0.94469	0.14708	1.207
Mof_Zn	Zn	0.10325	0.07109	0.82382	1.208
Mof_Zn	Zn	0.07627	0.08413	0.83486	1.207
Mof_Zn	Zn	0.0867	0.04972	0.82039	1.207
Mof_Zn	Zn	0.31368	0.59408	0.81815	1.206
Mof_Zn	Zn	0.97038	0.67271	0.67156	1.205
Mof_Zn	Zn	0.34593	0.57581	0.81304	1.205
Mof_Zn	Zn	0.33714	0.56409	0.82837	1.205
Mof_Zn	Zn	0.32256	0.5603	0.80334	1.206
Mof_Zn	Zn	0.07321	0.08635	0.31456	1.207
Mof_Zn	Zn	0.08394	0.05192	0.3001	1.206
Mof_Zn	Zn	0.08999	0.05613	0.32523	1.207
Mof_Zn	Zn	0.67648	0.92987	0.1614	1.205
Mof_Zn	Zn	0.05677	0.06499	0.31111	1.208
Mof_Zn	Zn	0.4477	0.69432	0.15711	1.206
Mof_Zn	Zn	0.46166	0.66013	0.14384	1.206
Mof_Zn	Zn	0.94822	0.65578	0.66032	1.205
Mof_Zn	Zn	0.48218	0.67848	0.15682	1.206
Mof_Zn	Zn	0.47023	0.66595	0.1694	1.205
Mof_Zn	Zn	0.59561	0.29998	0.32299	1.207
Mof_Zn	Zn	0.57839	0.3338	0.31739	1.206
Mof_Zn	Zn	0.56305	0.30963	0.30806	1.206
Mof_Zn	Zn	0.56742	0.32446	0.33286	1.205
Mof_Zn	Zn	0.83628	0.5737	0.33041	1.206
Mof_Zn	Zn	0.69246	0.95353	0.1724	1.206
Mof_Zn	Zn	0.84514	0.53997	0.31559	1.206
Mof_Zn	Zn	0.81283	0.55832	0.32073	1.206
Mof_Zn	Zn	0.96137	0.66418	0.64602	1.205
Mof_Zn	Zn	0.82151	0.56997	0.30535	1.204
Mof_Zn	Zn	0.6586	0.96605	0.16033	1.208
Mof_Zn	Zn	0.21049	0.477	0.47328	1.206
Mof_Zn	Zn	0.98258	0.63695	0.65924	1.206
Mof_Zn	Zn	0.48195	0.20534	0.97271	1.205
_end
