# CIF file generated by openbabel 3.1.0, see https://openbabel.org
data_I
_chemical_name_common 'image0'
_cell_length_a 9.681
_cell_length_b 9.657
_cell_length_c 9.762
_cell_angle_alpha 90
_cell_angle_beta 102.9
_cell_angle_gamma 90
_space_group_name_H-M_alt 'P 1'
_space_group_name_Hall 'P 1'
loop_
    _symmetry_equiv_pos_as_xyz
    x,y,z
loop_
    _atom_site_label
    _atom_site_type_symbol
    _atom_site_fract_x
    _atom_site_fract_y
    _atom_site_fract_z
    _atom_site_occupancy
    Ga1      Ga       0.10186    0.23220    0.31559    1.000
    Ga2      Ga       0.11327    0.45786    0.62937    1.000
    P1       P        0.29278    0.18547    0.63295    1.000
    P2       P        0.20267    0.53329    0.35042    1.000
    O1       O        0.99958    0.35847    0.44236    1.000
    O2       O        0.21271    0.38947    0.28371    1.000
    O3       O        0.23821    0.51687    0.51290    1.000
    O4       O        0.31244    0.62912    0.31395    1.000
    O5       O        0.23908    0.16968    0.47523    1.000
    O6       O        0.20487    0.28860    0.69637    1.000
    O7       O        0.44817    0.22894    0.65941    1.000
    O8       O        0.05107    0.59054    0.29929    1.000
    O9       O        0.27983    0.04241    0.70182    1.000
    Ga3      Ga       0.39814    0.73220    0.18441    1.000
    Ga4      Ga       0.38673    0.95786    0.87063    1.000
    P3       P        0.20722    0.68547    0.86705    1.000
    P4       P        0.29733    0.03329    0.14958    1.000
    O10      O        0.50042    0.85847    0.05764    1.000
    O11      O        0.28729    0.88947    0.21629    1.000
    O12      O        0.26179    0.01687    0.98710    1.000
    O13      O        0.18756    0.12912    0.18605    1.000
    O14      O        0.26092    0.66968    0.02477    1.000
    O15      O        0.29513    0.78860    0.80363    1.000
    O16      O        0.05183    0.72894    0.84059    1.000
    O17      O        0.44893    0.09054    0.20071    1.000
    O18      O        0.22017    0.54241    0.79818    1.000
    Ga5      Ga       0.89814    0.76780    0.68441    1.000
    Ga6      Ga       0.88673    0.54214    0.37063    1.000
    P5       P        0.70722    0.81453    0.36705    1.000
    P6       P        0.79733    0.46671    0.64958    1.000
    O19      O        0.00042    0.64153    0.55764    1.000
    O20      O        0.78729    0.61053    0.71629    1.000
    O21      O        0.76179    0.48313    0.48710    1.000
    O22      O        0.68756    0.37088    0.68605    1.000
    O23      O        0.76092    0.83032    0.52477    1.000
    O24      O        0.79513    0.71140    0.30363    1.000
    O25      O        0.55183    0.77106    0.34059    1.000
    O26      O        0.94893    0.40946    0.70071    1.000
    O27      O        0.72017    0.95759    0.29818    1.000
    Ga7      Ga       0.60186    0.26780    0.81559    1.000
    Ga8      Ga       0.61327    0.04214    0.12937    1.000
    P7       P        0.79278    0.31453    0.13295    1.000
    P8       P        0.70267    0.96671    0.85042    1.000
    O28      O        0.49958    0.14153    0.94236    1.000
    O29      O        0.71271    0.11053    0.78371    1.000
    O30      O        0.73821    0.98313    0.01290    1.000
    O31      O        0.81244    0.87088    0.81395    1.000
    O32      O        0.73908    0.33032    0.97523    1.000
    O33      O        0.70487    0.21140    0.19637    1.000
    O34      O        0.94817    0.27106    0.15941    1.000
    O35      O        0.55107    0.90946    0.79929    1.000
    O36      O        0.77983    0.45759    0.20182    1.000
