# CIF file generated by openbabel 3.1.0, see https://openbabel.org
data_I
_chemical_name_common 'ETEKEU_clean'
_cell_length_a 10.5507
_cell_length_b 10.9265
_cell_length_c 12.8978
_cell_angle_alpha 103.184
_cell_angle_beta 111.147
_cell_angle_gamma 96.566
_space_group_name_H-M_alt 'P 1'
_space_group_name_Hall 'P 1'
loop_
    _symmetry_equiv_pos_as_xyz
    x,y,z
loop_
    _atom_site_label
    _atom_site_type_symbol
    _atom_site_fract_x
    _atom_site_fract_y
    _atom_site_fract_z
    _atom_site_occupancy
    Er1      Er       0.89354    0.45347    0.31733    1.000
    Er2      Er       0.10646    0.54653    0.68267    1.000
    H1       H        0.05320    0.87000    0.70160    1.000
    H2       H        0.76340    0.59600    0.73720    1.000
    H3       H        0.81600    0.08840    0.04940    1.000
    H4       H        0.00090    0.85200    0.34130    1.000
    H5       H        0.57710    0.44480    0.35260    1.000
    H6       H        0.44020    0.16080    0.11270    1.000
    H7       H        0.94680    0.13000    0.29840    1.000
    H8       H        0.23660    0.40400    0.26280    1.000
    H9       H        0.18400    0.91160    0.95060    1.000
    H10      H        0.99910    0.14800    0.65870    1.000
    H11      H        0.42290    0.55520    0.64740    1.000
    H12      H        0.55980    0.83920    0.88730    1.000
    C1       C        0.02100    0.96780    0.60310    1.000
    C2       C        0.02090    0.87710    0.50640    1.000
    C3       C        0.00030    0.91170    0.40530    1.000
    C4       C        0.03680    0.74330    0.50760    1.000
    C5       C        0.59540    0.54700    0.61580    1.000
    C6       C        0.64220    0.51390    0.52730    1.000
    C7       C        0.54570    0.46700    0.41180    1.000
    C8       C        0.79320    0.52780    0.55160    1.000
    C9       C        0.63600    0.01320    0.00590    1.000
    C10      C        0.60070    0.11030    0.07530    1.000
    C11      C        0.46420    0.09590    0.06760    1.000
    C12      C        0.70460    0.23020    0.15430    1.000
    C13      C        0.97900    0.03220    0.39690    1.000
    C14      C        0.97910    0.12290    0.49360    1.000
    C15      C        0.99970    0.08830    0.59470    1.000
    C16      C        0.96320    0.25670    0.49240    1.000
    C17      C        0.40460    0.45300    0.38420    1.000
    C18      C        0.35780    0.48610    0.47270    1.000
    C19      C        0.45430    0.53300    0.58820    1.000
    C20      C        0.20680    0.47220    0.44840    1.000
    C21      C        0.36400    0.98680    0.99410    1.000
    C22      C        0.39930    0.88970    0.92470    1.000
    C23      C        0.53580    0.90410    0.93240    1.000
    C24      C        0.29540    0.76980    0.84570    1.000
    O1       O        0.01490    0.66280    0.41340    1.000
    O2       O        0.07170    0.71990    0.60510    1.000
    O3       O        0.04110    0.94350    0.70600    1.000
    O4       O        0.83180    0.50310    0.46990    1.000
    O5       O        0.87920    0.56480    0.65720    1.000
    O6       O        0.68280    0.59390    0.73030    1.000
    O7       O        0.82630    0.24970    0.15520    1.000
    O8       O        0.67180    0.31200    0.21990    1.000
    O9       O        0.76520    0.01910    0.00580    1.000
    O10      O        0.98510    0.33720    0.58660    1.000
    O11      O        0.92830    0.28010    0.39490    1.000
    O12      O        0.95890    0.05650    0.29400    1.000
    O13      O        0.16820    0.49690    0.53010    1.000
    O14      O        0.12080    0.43520    0.34280    1.000
    O15      O        0.31720    0.40610    0.26970    1.000
    O16      O        0.17370    0.75030    0.84480    1.000
    O17      O        0.32820    0.68800    0.78010    1.000
    O18      O        0.23480    0.98090    0.99420    1.000
