data_functionalizedCrystal
_audit_creation_method	'EQeq! by Chris Wilmer'
_symmetry_space_group_name_H-M	'P1'
_symmetry_Int_Tables_number	1
_symmetry_cell_setting	triclinic
loop_
_symmetry_equiv_pos_as_xyz
  x,y,z
_cell_length_a	23.118
_cell_length_b	20.9192
_cell_length_c	12.0021
_cell_angle_alpha	90
_cell_angle_beta	111.627
_cell_angle_gamma	90
loop_
_atom_site_label
_atom_site_type_symbol
_atom_site_fract_x
_atom_site_fract_y
_atom_site_fract_z
_atom_site_charge
Mof_O 	O 	0.0378	0.0004	0.1855	-0.897
Mof_O 	O 	0.934	0.1246	0.144	-0.396
Mof_O 	O 	0.9587	0.0898	0.987	-0.384
Mof_O 	O 	0.5582	0.3759	0.3661	-0.469
Mof_O 	O 	0.5807	0.4567	0.4972	-0.482
Mof_C 	C 	0.9281	0.1232	0.028	0.309
Mof_C 	C 	0.8794	0.1669	0.953	-0.093
Mof_C 	C 	0.85	0.2114	0.994	0.094
Mof_C 	C 	0.8036	0.2508	0.921	-0.119
Mof_C 	C 	0.7863	0.2453	0.794	0.051
Mof_C 	C 	0.8151	0.1991	0.752	-0.1
Mof_C 	C 	0.8624	0.1607	0.827	0.041
Mof_C 	C 	0.7355	0.2865	0.713	0.043
Mof_C 	C 	0.726	0.3491	0.742	-0.104
Mof_C 	C 	0.677	0.3856	0.662	0.049
Mof_C 	C 	0.6401	0.3611	0.553	-0.134
Mof_C 	C 	0.65	0.3	0.525	0.048
Mof_C 	C 	0.6968	0.2611	0.6	-0.108
Mof_C 	C 	0.5907	0.402	0.468	0.369
Mof_H 	H 	0.8619	0.2159	0.0786	0.016
Mof_H 	H 	0.7837	0.281	0.9541	0.086
Mof_H 	H 	0.8021	0.1931	0.6677	0.065
Mof_H 	H 	0.8831	0.1309	0.7946	0.019
Mof_H 	H 	0.7525	0.3673	0.8155	0.08
Mof_H 	H 	0.6696	0.4277	0.6833	0.02
Mof_H 	H 	0.6235	0.2834	0.4504	0.027
Mof_H 	H 	0.7027	0.219	0.5767	0.062
Mof_H 	H 	0.082	0.0003	0.2177	0.211
Mof_O 	O 	0.5378	0.5004	0.1855	-0.808
Mof_O 	O 	0.434	0.6246	0.144	-0.459
Mof_O 	O 	0.4587	0.5898	0.987	-0.452
Mof_O 	O 	0.0582	0.8759	0.3661	-0.511
Mof_O 	O 	0.0807	0.9567	0.4972	-0.482
Mof_C 	C 	0.4281	0.6232	0.028	0.315
Mof_C 	C 	0.3794	0.6669	0.953	-0.114
Mof_C 	C 	0.35	0.7114	0.994	0.105
Mof_C 	C 	0.3036	0.7508	0.921	-0.135
Mof_C 	C 	0.2863	0.7453	0.794	0.053
Mof_C 	C 	0.3151	0.6991	0.752	-0.112
Mof_C 	C 	0.3624	0.6607	0.827	0.045
Mof_C 	C 	0.2355	0.7865	0.713	0.037
Mof_C 	C 	0.226	0.8491	0.742	-0.105
Mof_C 	C 	0.177	0.8856	0.662	0.047
Mof_C 	C 	0.1401	0.8611	0.553	-0.144
Mof_C 	C 	0.15	0.8	0.525	0.047
Mof_C 	C 	0.1968	0.7611	0.6	-0.115
Mof_C 	C 	0.0907	0.902	0.468	0.364
Mof_H 	H 	0.3619	0.7159	0.0786	-0.003
Mof_H 	H 	0.2837	0.781	0.9541	0.087
Mof_H 	H 	0.3021	0.6931	0.6677	0.066
Mof_H 	H 	0.3831	0.6309	0.7946	0.012
Mof_H 	H 	0.2525	0.8673	0.8155	0.077
Mof_H 	H 	0.1696	0.9277	0.6833	0.024
Mof_H 	H 	0.1235	0.7834	0.4504	0.01
Mof_H 	H 	0.2027	0.719	0.5767	0.058
Mof_H 	H 	0.582	0.5003	0.2177	0.215
Mof_O 	O 	0.9622	0.0004	0.3145	-0.706
Mof_O 	O 	0.066	0.1246	0.356	-0.514
Mof_O 	O 	0.0413	0.0898	0.513	-0.564
Mof_O 	O 	0.4418	0.3759	0.1339	-0.468
Mof_O 	O 	0.4193	0.4567	0.0028	-0.494
Mof_C 	C 	0.0719	0.1232	0.472	0.377
Mof_C 	C 	0.1206	0.1669	0.547	-0.168
Mof_C 	C 	0.15	0.2114	0.506	0.066
Mof_C 	C 	0.1964	0.2508	0.579	-0.132
Mof_C 	C 	0.2137	0.2453	0.706	0.045
Mof_C 	C 	0.1849	0.1991	0.748	-0.128
Mof_C 	C 	0.1376	0.1607	0.673	0.056
Mof_C 	C 	0.2645	0.2865	0.787	0.042
Mof_C 	C 	0.274	0.3491	0.758	-0.11
Mof_C 	C 	0.323	0.3856	0.838	0.042
Mof_C 	C 	0.3599	0.3611	0.947	-0.127
Mof_C 	C 	0.35	0.3	0.975	0.102
Mof_C 	C 	0.3032	0.2611	0.9	-0.132
Mof_C 	C 	0.4093	0.402	0.032	0.347
Mof_H 	H 	0.1381	0.2159	0.4214	0.007
Mof_H 	H 	0.2163	0.281	0.5459	0.066
Mof_H 	H 	0.1979	0.1931	0.8323	0.073
Mof_H 	H 	0.1169	0.1309	0.7054	-0.009
Mof_H 	H 	0.2475	0.3673	0.6845	0.056
Mof_H 	H 	0.3304	0.4277	0.8167	0.017
Mof_H 	H 	0.3765	0.2834	0.0496	-0.008
Mof_H 	H 	0.2973	0.219	0.9233	0.078
Mof_H 	H 	0.918	0.0003	0.2823	0.186
Mof_O 	O 	0.4622	0.5004	0.3145	-0.805
Mof_O 	O 	0.566	0.6246	0.356	-0.466
Mof_O 	O 	0.5413	0.5898	0.513	-0.491
Mof_O 	O 	0.9418	0.8759	0.1339	-0.378
Mof_O 	O 	0.9193	0.9567	0.0028	-0.406
Mof_C 	C 	0.5719	0.6232	0.472	0.377
Mof_C 	C 	0.6206	0.6669	0.547	-0.137
Mof_C 	C 	0.65	0.7114	0.506	0.064
Mof_C 	C 	0.6964	0.7508	0.579	-0.114
Mof_C 	C 	0.7137	0.7453	0.706	0.052
Mof_C 	C 	0.6849	0.6991	0.748	-0.111
Mof_C 	C 	0.6376	0.6607	0.673	0.058
Mof_C 	C 	0.7645	0.7865	0.787	0.046
Mof_C 	C 	0.774	0.8491	0.758	-0.095
Mof_C 	C 	0.823	0.8856	0.838	0.039
Mof_C 	C 	0.8599	0.8611	0.947	-0.095
Mof_C 	C 	0.85	0.8	0.975	0.087
Mof_C 	C 	0.8032	0.7611	0.9	-0.112
Mof_C 	C 	0.9093	0.902	0.032	0.339
Mof_H 	H 	0.6381	0.7159	0.4214	0.027
Mof_H 	H 	0.7163	0.781	0.5459	0.073
Mof_H 	H 	0.6979	0.6931	0.8323	0.077
Mof_H 	H 	0.6169	0.6309	0.7054	0.01
Mof_H 	H 	0.7475	0.8673	0.6845	0.071
Mof_H 	H 	0.8304	0.9277	0.8167	0.036
Mof_H 	H 	0.8765	0.7834	0.0496	0.023
Mof_H 	H 	0.7973	0.719	0.9233	0.086
Mof_H 	H 	0.418	0.5003	0.2823	0.211
Mof_O 	O 	0.9622	0.9996	0.8145	-0.648
Mof_O 	O 	0.066	0.8754	0.856	-0.507
Mof_O 	O 	0.0413	0.9102	0.013	-0.559
Mof_O 	O 	0.4418	0.6241	0.6339	-0.465
Mof_O 	O 	0.4193	0.5433	0.5028	-0.486
Mof_C 	C 	0.0719	0.8768	0.972	0.427
Mof_C 	C 	0.1206	0.8331	0.047	-0.172
Mof_C 	C 	0.15	0.7886	0.006	0.018
Mof_C 	C 	0.1964	0.7492	0.079	-0.108
Mof_C 	C 	0.2137	0.7547	0.206	0.038
Mof_C 	C 	0.1849	0.8009	0.248	-0.118
Mof_C 	C 	0.1376	0.8393	0.173	0.057
Mof_C 	C 	0.2645	0.7135	0.287	0.034
Mof_C 	C 	0.274	0.6509	0.258	-0.106
Mof_C 	C 	0.323	0.6144	0.338	0.038
Mof_C 	C 	0.3599	0.6389	0.447	-0.133
Mof_C 	C 	0.35	0.7	0.475	0.044
Mof_C 	C 	0.3032	0.7389	0.4	-0.107
Mof_C 	C 	0.4093	0.598	0.532	0.365
Mof_H 	H 	0.1381	0.7841	0.9214	0.04
Mof_H 	H 	0.2163	0.719	0.0459	0.051
Mof_H 	H 	0.1979	0.8069	0.3323	0.071
Mof_H 	H 	0.1169	0.8691	0.2054	0.005
Mof_H 	H 	0.2475	0.6327	0.1845	0.051
Mof_H 	H 	0.3304	0.5723	0.3167	0.011
Mof_H 	H 	0.3765	0.7166	0.5496	0.035
Mof_H 	H 	0.2973	0.781	0.4233	0.071
Mof_H 	H 	0.918	0.9997	0.7823	0.212
Mof_O 	O 	0.4622	0.4996	0.8145	-0.798
Mof_O 	O 	0.566	0.3754	0.856	-0.473
Mof_O 	O 	0.5413	0.4102	0.013	-0.53
Mof_O 	O 	0.9418	0.1241	0.6339	-0.394
Mof_O 	O 	0.9193	0.0433	0.5028	-0.449
Mof_C 	C 	0.5719	0.3768	0.972	0.434
Mof_C 	C 	0.6206	0.3331	0.047	-0.161
Mof_C 	C 	0.65	0.2886	0.006	0.014
Mof_C 	C 	0.6964	0.2492	0.079	-0.098
Mof_C 	C 	0.7137	0.2547	0.206	0.041
Mof_C 	C 	0.6849	0.3009	0.248	-0.113
Mof_C 	C 	0.6376	0.3393	0.173	0.06
Mof_C 	C 	0.7645	0.2135	0.287	0.035
Mof_C 	C 	0.774	0.1509	0.258	-0.1
Mof_C 	C 	0.823	0.1144	0.338	0.035
Mof_C 	C 	0.8599	0.1389	0.447	-0.113
Mof_C 	C 	0.85	0.2	0.475	0.039
Mof_C 	C 	0.8032	0.2389	0.4	-0.095
Mof_C 	C 	0.9093	0.098	0.532	0.36
Mof_H 	H 	0.6381	0.2841	0.9214	0.055
Mof_H 	H 	0.7163	0.219	0.0459	0.052
Mof_H 	H 	0.6979	0.3069	0.3323	0.071
Mof_H 	H 	0.6169	0.3691	0.2054	0.005
Mof_H 	H 	0.7475	0.1327	0.1845	0.052
Mof_H 	H 	0.8304	0.0723	0.3167	0.011
Mof_H 	H 	0.8765	0.2166	0.5496	0.055
Mof_H 	H 	0.7973	0.281	0.4233	0.073
Mof_H 	H 	0.418	0.4997	0.7823	0.214
Mof_O 	O 	0.0378	0.9996	0.6855	-0.834
Mof_O 	O 	0.934	0.8754	0.644	-0.391
Mof_O 	O 	0.9587	0.9102	0.487	-0.386
Mof_O 	O 	0.5582	0.6241	0.8661	-0.465
Mof_O 	O 	0.5807	0.5433	0.9972	-0.472
Mof_C 	C 	0.9281	0.8768	0.528	0.36
Mof_C 	C 	0.8794	0.8331	0.453	-0.099
Mof_C 	C 	0.85	0.7886	0.494	0.047
Mof_C 	C 	0.8036	0.7492	0.421	-0.096
Mof_C 	C 	0.7863	0.7547	0.294	0.044
Mof_C 	C 	0.8151	0.8009	0.252	-0.091
Mof_C 	C 	0.8624	0.8393	0.327	0.043
Mof_C 	C 	0.7355	0.7135	0.213	0.036
Mof_C 	C 	0.726	0.6509	0.242	-0.101
Mof_C 	C 	0.677	0.6144	0.162	0.045
Mof_C 	C 	0.6401	0.6389	0.053	-0.139
Mof_C 	C 	0.65	0.7	0.025	-0.008
Mof_C 	C 	0.6968	0.7389	0.1	-0.084
Mof_C 	C 	0.5907	0.598	0.968	0.386
Mof_H 	H 	0.8619	0.7841	0.5786	0.048
Mof_H 	H 	0.7837	0.719	0.4541	0.071
Mof_H 	H 	0.8021	0.8069	0.1677	0.064
Mof_H 	H 	0.8831	0.8691	0.2946	0.032
Mof_H 	H 	0.7525	0.6327	0.3155	0.075
Mof_H 	H 	0.6696	0.5723	0.1833	0.015
Mof_H 	H 	0.6235	0.7166	0.9504	0.069
Mof_H 	H 	0.7027	0.781	0.0767	0.055
Mof_H 	H 	0.082	0.9997	0.7177	0.238
Mof_O 	O 	0.5378	0.4996	0.6855	-0.804
Mof_O 	O 	0.434	0.3754	0.644	-0.466
Mof_O 	O 	0.4587	0.4102	0.487	-0.493
Mof_O 	O 	0.0582	0.1241	0.8661	-0.529
Mof_O 	O 	0.0807	0.0433	0.9972	-0.525
Mof_C 	C 	0.4281	0.3768	0.528	0.373
Mof_C 	C 	0.3794	0.3331	0.453	-0.139
Mof_C 	C 	0.35	0.2886	0.494	0.056
Mof_C 	C 	0.3036	0.2492	0.421	-0.12
Mof_C 	C 	0.2863	0.2547	0.294	0.042
Mof_C 	C 	0.3151	0.3009	0.252	-0.114
Mof_C 	C 	0.3624	0.3393	0.327	0.048
Mof_C 	C 	0.2355	0.2135	0.213	0.026
Mof_C 	C 	0.226	0.1509	0.242	-0.11
Mof_C 	C 	0.177	0.1144	0.162	0.043
Mof_C 	C 	0.1401	0.1389	0.053	-0.163
Mof_C 	C 	0.15	0.2	0.025	-0.007
Mof_C 	C 	0.1968	0.2389	0.1	-0.096
Mof_C 	C 	0.0907	0.098	0.968	0.386
Mof_H 	H 	0.3619	0.2841	0.5786	0.025
Mof_H 	H 	0.2837	0.219	0.4541	0.066
Mof_H 	H 	0.3021	0.3069	0.1677	0.06
Mof_H 	H 	0.3831	0.3691	0.2946	0.007
Mof_H 	H 	0.2525	0.1327	0.3155	0.058
Mof_H 	H 	0.1696	0.0723	0.1833	-0.002
Mof_H 	H 	0.1235	0.2166	0.9504	0.045
Mof_H 	H 	0.2027	0.281	0.0767	0.043
Mof_H 	H 	0.582	0.4997	0.7177	0.218
Mof_Zn	Zn	-0	0	-0	1.153
Mof_Zn	Zn	0.5	0.5	-0	1.226
Mof_Zn	Zn	1.332e-33	0	0.5	1.159
Mof_Zn	Zn	0.5	0.5	0.5	1.235
Mof_Zn	Zn	6.65999e-34	0.0709	0.25	1.152
Mof_Zn	Zn	6.65999e-34	0.9318	0.25	1.182
Mof_Zn	Zn	0.5	0.5709	0.25	1.209
Mof_Zn	Zn	0.5	0.4318	0.25	1.22
Mof_Zn	Zn	4.21396e-17	0.9291	0.75	1.16
Mof_Zn	Zn	2.10698e-17	0.0682	0.75	1.15
Mof_Zn	Zn	0.5	0.4291	0.75	1.211
Mof_Zn	Zn	0.5	0.5682	0.75	1.22
_end
