# CIF file generated by openbabel 3.1.0, see https://openbabel.org
data_I
_chemical_name_common 'image0'
_cell_length_a 16.802
_cell_length_b 16.802
_cell_length_c 13.96
_cell_angle_alpha 90
_cell_angle_beta 90
_cell_angle_gamma 120
_space_group_name_H-M_alt 'P 1'
_space_group_name_Hall 'P 1'
loop_
    _symmetry_equiv_pos_as_xyz
    x,y,z
loop_
    _atom_site_label
    _atom_site_type_symbol
    _atom_site_fract_x
    _atom_site_fract_y
    _atom_site_fract_z
    _atom_site_occupancy
    O1       O        0.77773    0.42457    0.18150    1.000
    N1       N        0.11230    0.50644    0.41281    1.000
    N2       N        0.22851    0.56156    0.51762    1.000
    C1       C        0.96669    0.45860    0.33121    1.000
    H1       H        0.93470    0.42650    0.38550    1.000
    C2       C        0.06175    0.50556    0.33055    1.000
    C3       C        0.19114    0.57979    0.44469    1.000
    H2       H        0.21640    0.63790    0.41720    1.000
    C4       C        0.17000    0.46820    0.53650    1.000
    C5       C        0.17540    0.41200    0.60640    1.000
    H3       H        0.22330    0.43460    0.65060    1.000
    C6       C        0.10670    0.32130    0.60720    1.000
    H4       H        0.10890    0.28190    0.65250    1.000
    C7       C        0.03380    0.28650    0.54200    1.000
    H5       H        0.98840    0.22500    0.54580    1.000
    C8       C        0.02770    0.34140    0.47210    1.000
    H6       H        0.97990    0.31820    0.42790    1.000
    C9       C        0.09630    0.43250    0.47140    1.000
    O2       O        0.57543    0.35316    0.18150    1.000
    N3       N        0.49356    0.60586    0.41281    1.000
    N4       N        0.43844    0.66695    0.51762    1.000
    C10      C        0.54140    0.50809    0.33121    1.000
    H7       H        0.57350    0.50820    0.38550    1.000
    C11      C        0.49444    0.55619    0.33055    1.000
    C12      C        0.42021    0.61135    0.44469    1.000
    H8       H        0.36210    0.57850    0.41720    1.000
    C13      C        0.53180    0.70180    0.53650    1.000
    C14      C        0.58800    0.76340    0.60640    1.000
    H9       H        0.56540    0.78870    0.65060    1.000
    C15      C        0.67870    0.78540    0.60720    1.000
    H10      H        0.71810    0.82700    0.65250    1.000
    C16      C        0.71350    0.74730    0.54200    1.000
    H11      H        0.77500    0.76340    0.54580    1.000
    C17      C        0.65860    0.68630    0.47210    1.000
    H12      H        0.68180    0.66170    0.42790    1.000
    C18      C        0.56750    0.66380    0.47140    1.000
    O3       O        0.64684    0.22227    0.18150    1.000
    N5       N        0.39414    0.88770    0.41281    1.000
    N6       N        0.33305    0.77149    0.51762    1.000
    C19      C        0.49191    0.03331    0.33121    1.000
    H13      H        0.49180    0.06530    0.38550    1.000
    C20      C        0.44381    0.93825    0.33055    1.000
    C21      C        0.38865    0.80886    0.44469    1.000
    H14      H        0.42150    0.78360    0.41720    1.000
    C22      C        0.29820    0.83000    0.53650    1.000
    C23      C        0.23660    0.82460    0.60640    1.000
    H15      H        0.21130    0.77670    0.65060    1.000
    C24      C        0.21460    0.89330    0.60720    1.000
    H16      H        0.17300    0.89110    0.65250    1.000
    C25      C        0.25270    0.96620    0.54200    1.000
    H17      H        0.23660    0.01160    0.54580    1.000
    C26      C        0.31370    0.97230    0.47210    1.000
    H18      H        0.33830    0.02010    0.42790    1.000
    C27      C        0.33620    0.90370    0.47140    1.000
    O4       O        0.57543    0.22227    0.31850    1.000
    N7       N        0.49356    0.88770    0.08719    1.000
    N8       N        0.43844    0.77149    0.98238    1.000
    C28      C        0.54140    0.03331    0.16879    1.000
    H19      H        0.57350    0.06530    0.11450    1.000
    C29      C        0.49444    0.93825    0.16945    1.000
    C30      C        0.42021    0.80886    0.05531    1.000
    H20      H        0.36210    0.78360    0.08280    1.000
    C31      C        0.53180    0.83000    0.96350    1.000
    C32      C        0.58800    0.82460    0.89360    1.000
    H21      H        0.56540    0.77670    0.84940    1.000
    C33      C        0.67870    0.89330    0.89280    1.000
    H22      H        0.71810    0.89110    0.84750    1.000
    C34      C        0.71350    0.96620    0.95800    1.000
    H23      H        0.77500    0.01160    0.95420    1.000
    C35      C        0.65860    0.97230    0.02790    1.000
    H24      H        0.68180    0.02010    0.07210    1.000
    C36      C        0.56750    0.90370    0.02860    1.000
    O5       O        0.64684    0.42457    0.31850    1.000
    N9       N        0.39414    0.50644    0.08719    1.000
    N10      N        0.33305    0.56156    0.98238    1.000
    C37      C        0.49191    0.45860    0.16879    1.000
    H25      H        0.49180    0.42650    0.11450    1.000
    C38      C        0.44381    0.50556    0.16945    1.000
    C39      C        0.38865    0.57979    0.05531    1.000
    H26      H        0.42150    0.63790    0.08280    1.000
    C40      C        0.29820    0.46820    0.96350    1.000
    C41      C        0.23660    0.41200    0.89360    1.000
    H27      H        0.21130    0.43460    0.84940    1.000
    C42      C        0.21460    0.32130    0.89280    1.000
    H28      H        0.17300    0.28190    0.84750    1.000
    C43      C        0.25270    0.28650    0.95800    1.000
    H29      H        0.23660    0.22500    0.95420    1.000
    C44      C        0.31370    0.34140    0.02790    1.000
    H30      H        0.33830    0.31820    0.07210    1.000
    C45      C        0.33620    0.43250    0.02860    1.000
    O6       O        0.77773    0.35316    0.31850    1.000
    N11      N        0.11230    0.60586    0.08719    1.000
    N12      N        0.22851    0.66695    0.98238    1.000
    C46      C        0.96669    0.50809    0.16879    1.000
    H31      H        0.93470    0.50820    0.11450    1.000
    C47      C        0.06175    0.55619    0.16945    1.000
    C48      C        0.19114    0.61135    0.05531    1.000
    H32      H        0.21640    0.57850    0.08280    1.000
    C49      C        0.17000    0.70180    0.96350    1.000
    C50      C        0.17540    0.76340    0.89360    1.000
    H33      H        0.22330    0.78870    0.84940    1.000
    C51      C        0.10670    0.78540    0.89280    1.000
    H34      H        0.10890    0.82700    0.84750    1.000
    C52      C        0.03380    0.74730    0.95800    1.000
    H35      H        0.98840    0.76340    0.95420    1.000
    C53      C        0.02770    0.68630    0.02790    1.000
    H36      H        0.97990    0.66170    0.07210    1.000
    C54      C        0.09630    0.66380    0.02860    1.000
    O7       O        0.22227    0.57543    0.81850    1.000
    N13      N        0.88770    0.49356    0.58719    1.000
    N14      N        0.77149    0.43844    0.48238    1.000
    C55      C        0.03331    0.54140    0.66879    1.000
    H37      H        0.06530    0.57350    0.61450    1.000
    C56      C        0.93825    0.49444    0.66945    1.000
    C57      C        0.80886    0.42021    0.55531    1.000
    H38      H        0.78360    0.36210    0.58280    1.000
    C58      C        0.83000    0.53180    0.46350    1.000
    C59      C        0.82460    0.58800    0.39360    1.000
    H39      H        0.77670    0.56540    0.34940    1.000
    C60      C        0.89330    0.67870    0.39280    1.000
    H40      H        0.89110    0.71810    0.34750    1.000
    C61      C        0.96620    0.71350    0.45800    1.000
    H41      H        0.01160    0.77500    0.45420    1.000
    C62      C        0.97230    0.65860    0.52790    1.000
    H42      H        0.02010    0.68180    0.57210    1.000
    C63      C        0.90370    0.56750    0.52860    1.000
    O8       O        0.42457    0.64684    0.81850    1.000
    N15      N        0.50644    0.39414    0.58719    1.000
    N16      N        0.56156    0.33305    0.48238    1.000
    C64      C        0.45860    0.49191    0.66879    1.000
    H43      H        0.42650    0.49180    0.61450    1.000
    C65      C        0.50556    0.44381    0.66945    1.000
    C66      C        0.57979    0.38865    0.55531    1.000
    H44      H        0.63790    0.42150    0.58280    1.000
    C67      C        0.46820    0.29820    0.46350    1.000
    C68      C        0.41200    0.23660    0.39360    1.000
    H45      H        0.43460    0.21130    0.34940    1.000
    C69      C        0.32130    0.21460    0.39280    1.000
    H46      H        0.28190    0.17300    0.34750    1.000
    C70      C        0.28650    0.25270    0.45800    1.000
    H47      H        0.22500    0.23660    0.45420    1.000
    C71      C        0.34140    0.31370    0.52790    1.000
    H48      H        0.31820    0.33830    0.57210    1.000
    C72      C        0.43250    0.33620    0.52860    1.000
    O9       O        0.35316    0.77773    0.81850    1.000
    N17      N        0.60586    0.11230    0.58719    1.000
    N18      N        0.66695    0.22851    0.48238    1.000
    C73      C        0.50809    0.96669    0.66879    1.000
    H49      H        0.50820    0.93470    0.61450    1.000
    C74      C        0.55619    0.06175    0.66945    1.000
    C75      C        0.61135    0.19114    0.55531    1.000
    H50      H        0.57850    0.21640    0.58280    1.000
    C76      C        0.70180    0.17000    0.46350    1.000
    C77      C        0.76340    0.17540    0.39360    1.000
    H51      H        0.78870    0.22330    0.34940    1.000
    C78      C        0.78540    0.10670    0.39280    1.000
    H52      H        0.82700    0.10890    0.34750    1.000
    C79      C        0.74730    0.03380    0.45800    1.000
    H53      H        0.76340    0.98840    0.45420    1.000
    C80      C        0.68630    0.02770    0.52790    1.000
    H54      H        0.66170    0.97990    0.57210    1.000
    C81      C        0.66380    0.09630    0.52860    1.000
    O10      O        0.42457    0.77773    0.68150    1.000
    N19      N        0.50644    0.11230    0.91281    1.000
    N20      N        0.56156    0.22851    0.01762    1.000
    C82      C        0.45860    0.96669    0.83121    1.000
    H55      H        0.42650    0.93470    0.88550    1.000
    C83      C        0.50556    0.06175    0.83055    1.000
    C84      C        0.57979    0.19114    0.94469    1.000
    H56      H        0.63790    0.21640    0.91720    1.000
    C85      C        0.46820    0.17000    0.03650    1.000
    C86      C        0.41200    0.17540    0.10640    1.000
    H57      H        0.43460    0.22330    0.15060    1.000
    C87      C        0.32130    0.10670    0.10720    1.000
    H58      H        0.28190    0.10890    0.15250    1.000
    C88      C        0.28650    0.03380    0.04200    1.000
    H59      H        0.22500    0.98840    0.04580    1.000
    C89      C        0.34140    0.02770    0.97210    1.000
    H60      H        0.31820    0.97990    0.92790    1.000
    C90      C        0.43250    0.09630    0.97140    1.000
    O11      O        0.35316    0.57543    0.68150    1.000
    N21      N        0.60586    0.49356    0.91281    1.000
    N22      N        0.66695    0.43844    0.01762    1.000
    C91      C        0.50809    0.54140    0.83121    1.000
    H61      H        0.50820    0.57350    0.88550    1.000
    C92      C        0.55619    0.49444    0.83055    1.000
    C93      C        0.61135    0.42021    0.94469    1.000
    H62      H        0.57850    0.36210    0.91720    1.000
    C94      C        0.70180    0.53180    0.03650    1.000
    C95      C        0.76340    0.58800    0.10640    1.000
    H63      H        0.78870    0.56540    0.15060    1.000
    C96      C        0.78540    0.67870    0.10720    1.000
    H64      H        0.82700    0.71810    0.15250    1.000
    C97      C        0.74730    0.71350    0.04200    1.000
    H65      H        0.76340    0.77500    0.04580    1.000
    C98      C        0.68630    0.65860    0.97210    1.000
    H66      H        0.66170    0.68180    0.92790    1.000
    C99      C        0.66380    0.56750    0.97140    1.000
    O12      O        0.22227    0.64684    0.68150    1.000
    N23      N        0.88770    0.39414    0.91281    1.000
    N24      N        0.77149    0.33305    0.01762    1.000
    C100     C        0.03331    0.49191    0.83121    1.000
    H67      H        0.06530    0.49180    0.88550    1.000
    C101     C        0.93825    0.44381    0.83055    1.000
    C102     C        0.80886    0.38865    0.94469    1.000
    H68      H        0.78360    0.42150    0.91720    1.000
    C103     C        0.83000    0.29820    0.03650    1.000
    C104     C        0.82460    0.23660    0.10640    1.000
    H69      H        0.77670    0.21130    0.15060    1.000
    C105     C        0.89330    0.21460    0.10720    1.000
    H70      H        0.89110    0.17300    0.15250    1.000
    C106     C        0.96620    0.25270    0.04200    1.000
    H71      H        0.01160    0.23660    0.04580    1.000
    C107     C        0.97230    0.31370    0.97210    1.000
    H72      H        0.02010    0.33830    0.92790    1.000
    C108     C        0.90370    0.33620    0.97140    1.000
    Ni1      Ni       0.66667    0.33333    0.10348    1.000
    Ni2      Ni       0.66667    0.33333    0.39652    1.000
    Ni3      Ni       0.33333    0.66667    0.89652    1.000
    Ni4      Ni       0.33333    0.66667    0.60348    1.000
    C109     C        0.81550    0.40775    0.25000    1.000
    C110     C        0.91950    0.45975    0.25000    1.000
    C111     C        0.11000    0.55500    0.25000    1.000
    H73      H        0.17390    0.58695    0.25000    1.000
    C112     C        0.59225    0.40775    0.25000    1.000
    C113     C        0.54025    0.45975    0.25000    1.000
    C114     C        0.44500    0.55500    0.25000    1.000
    H74      H        0.41305    0.58695    0.25000    1.000
    C115     C        0.59225    0.18450    0.25000    1.000
    C116     C        0.54025    0.08050    0.25000    1.000
    C117     C        0.44500    0.89000    0.25000    1.000
    H75      H        0.41305    0.82610    0.25000    1.000
    C118     C        0.18450    0.59225    0.75000    1.000
    C119     C        0.08050    0.54025    0.75000    1.000
    C120     C        0.89000    0.44500    0.75000    1.000
    H76      H        0.82610    0.41305    0.75000    1.000
    C121     C        0.40775    0.59225    0.75000    1.000
    C122     C        0.45975    0.54025    0.75000    1.000
    C123     C        0.55500    0.44500    0.75000    1.000
    H77      H        0.58695    0.41305    0.75000    1.000
    C124     C        0.40775    0.81550    0.75000    1.000
    C125     C        0.45975    0.91950    0.75000    1.000
    C126     C        0.55500    0.11000    0.75000    1.000
    H78      H        0.58695    0.17390    0.75000    1.000
