data_functionalizedCrystal
_audit_creation_method	'EQeq! by Chris Wilmer'
_symmetry_space_group_name_H-M	'P1'
_symmetry_Int_Tables_number	1
_symmetry_cell_setting	triclinic
loop_
_symmetry_equiv_pos_as_xyz
  x,y,z
_cell_length_a	20.3378
_cell_length_b	17.6645
_cell_length_c	8.3564
_cell_angle_alpha	90
_cell_angle_beta	96.685
_cell_angle_gamma	90
loop_
_atom_site_label
_atom_site_type_symbol
_atom_site_fract_x
_atom_site_fract_y
_atom_site_fract_z
_atom_site_charge
Mof_U 	U 	0.24428	0.18228	0.29323	0.034
Mof_U 	U 	0.17398	0.23192	0.69502	-0.144
Mof_O 	O 	0.2423	0.2925	0.7384	-0.091
Mof_O 	O 	0.1064	0.172	0.6598	-0.186
Mof_O 	O 	0.3367	0.105	0.3888	-0.115
Mof_O 	O 	0.4	0.0536	0.5939	-0.148
Mof_O 	O 	0.2203	0.1421	0.8875	-0.189
Mof_O 	O 	0.3021	0.1388	0.0699	-0.243
Mof_O 	O 	0.2552	0.1618	0.5722	-0.165
Mof_O 	O 	0.1102	0.3446	0.6048	-0.112
Mof_O 	O 	0.0523	0.4067	0.4042	-0.141
Mof_O 	O 	0.2102	0.2685	0.0929	-0.168
Mof_O 	O 	0.1215	0.2853	0.9153	-0.174
Mof_O 	O 	0.1672	0.258	0.409	-0.189
Mof_C 	C 	0.3482	0.0873	0.5351	0.143
Mof_C 	C 	0.2954	0.105	0.6451	0.38
Mof_C 	C 	0.3328	0.1283	0.8093	-0.545
Mof_H 	H 	0.3625	0.0877	0.8488	0.232
Mof_H 	H 	0.3595	0.1728	0.7946	0.234
Mof_C 	C 	0.286	0.1455	0.9341	0.456
Mof_C 	C 	0.2554	0.0316	0.659	-0.789
Mof_H 	H 	0.2275	0.0371	0.7437	0.317
Mof_H 	H 	0.2853	0.99	0.684	0.255
Mof_H 	H 	0.2286	0.0219	0.5591	0.316
Mof_C 	C 	0.09	0.3539	0.4571	0.077
Mof_C 	C 	0.1103	0.297	0.3375	0.524
Mof_C 	C 	0.1275	0.3397	0.186	-0.69
Mof_H 	H 	0.0887	0.3681	0.1419	0.26
Mof_H 	H 	0.1621	0.376	0.2196	0.257
Mof_C 	C 	0.1494	0.293	0.0559	0.598
Mof_C 	C 	0.0531	0.2448	0.2917	-1.142
Mof_H 	H 	0.0583	0.221	0.1906	0.412
Mof_H 	H 	0.0126	0.2732	0.2817	0.407
Mof_H 	H 	0.0519	0.2068	0.3733	0.416
Mof_U 	U 	0.19497	0.26539	0.69368	0.173
Mof_O 	O 	0.2496	0.3386	0.685	-0.029
Mof_O 	O 	0.1395	0.1896	0.707	0.148
Mof_O 	O 	0.1569	0.2198	0.085	-0.184
Mof_O 	O 	0.1552	0.3228	0.925	-0.161
Mof_U 	U 	0.74428	0.68228	0.29323	0.031
Mof_U 	U 	0.67398	0.73192	0.69502	-0.147
Mof_O 	O 	0.7423	0.7925	0.7384	-0.092
Mof_O 	O 	0.6064	0.672	0.6598	-0.192
Mof_O 	O 	0.8367	0.605	0.3888	-0.117
Mof_O 	O 	0.9	0.5536	0.5939	-0.156
Mof_O 	O 	0.7203	0.6421	0.8875	-0.195
Mof_O 	O 	0.8021	0.6388	0.0699	-0.249
Mof_O 	O 	0.7552	0.6618	0.5722	-0.175
Mof_O 	O 	0.6102	0.8446	0.6048	-0.117
Mof_O 	O 	0.5523	0.9067	0.4042	-0.154
Mof_O 	O 	0.7102	0.7685	0.0929	-0.17
Mof_O 	O 	0.6215	0.7853	0.9153	-0.175
Mof_O 	O 	0.6672	0.758	0.409	-0.189
Mof_C 	C 	0.8482	0.5873	0.5351	0.127
Mof_C 	C 	0.7954	0.605	0.6451	0.421
Mof_C 	C 	0.8328	0.6283	0.8093	-0.566
Mof_H 	H 	0.8625	0.5877	0.8488	0.231
Mof_H 	H 	0.8595	0.6728	0.7946	0.237
Mof_C 	C 	0.786	0.6455	0.9341	0.46
Mof_C 	C 	0.7554	0.5316	0.659	-0.943
Mof_H 	H 	0.7275	0.5371	0.7437	0.355
Mof_H 	H 	0.7853	0.49	0.684	0.326
Mof_H 	H 	0.7286	0.5219	0.5591	0.353
Mof_C 	C 	0.59	0.8539	0.4571	0.08
Mof_C 	C 	0.6103	0.797	0.3375	0.519
Mof_C 	C 	0.6275	0.8397	0.186	-0.687
Mof_H 	H 	0.5887	0.8681	0.1419	0.255
Mof_H 	H 	0.6621	0.876	0.2196	0.254
Mof_C 	C 	0.6494	0.793	0.0559	0.599
Mof_C 	C 	0.5531	0.7448	0.2917	-1.133
Mof_H 	H 	0.5583	0.721	0.1906	0.408
Mof_H 	H 	0.5126	0.7732	0.2817	0.403
Mof_H 	H 	0.5519	0.7068	0.3733	0.412
Mof_U 	U 	0.69497	0.76539	0.69368	0.173
Mof_O 	O 	0.7496	0.8386	0.685	-0.036
Mof_O 	O 	0.6395	0.6896	0.707	0.151
Mof_O 	O 	0.6569	0.7198	0.085	-0.186
Mof_O 	O 	0.6552	0.8228	0.925	-0.166
Mof_U 	U 	0.75572	0.18228	0.70677	0.033
Mof_U 	U 	0.82602	0.23192	0.30498	-0.145
Mof_O 	O 	0.7577	0.2925	0.2616	-0.092
Mof_O 	O 	0.8936	0.172	0.3402	-0.186
Mof_O 	O 	0.6633	0.105	0.6112	-0.115
Mof_O 	O 	0.6	0.0536	0.4061	-0.148
Mof_O 	O 	0.7797	0.1421	0.1125	-0.189
Mof_O 	O 	0.6979	0.1388	0.9301	-0.243
Mof_O 	O 	0.7448	0.1618	0.4278	-0.165
Mof_O 	O 	0.8898	0.3446	0.3952	-0.112
Mof_O 	O 	0.9477	0.4067	0.5958	-0.14
Mof_O 	O 	0.7898	0.2685	0.9071	-0.168
Mof_O 	O 	0.8785	0.2853	0.0847	-0.174
Mof_O 	O 	0.8328	0.258	0.591	-0.189
Mof_C 	C 	0.6518	0.0873	0.4649	0.143
Mof_C 	C 	0.7046	0.105	0.3549	0.38
Mof_C 	C 	0.6672	0.1283	0.1907	-0.545
Mof_H 	H 	0.6375	0.0877	0.1512	0.232
Mof_H 	H 	0.6405	0.1728	0.2054	0.234
Mof_C 	C 	0.714	0.1455	0.0659	0.456
Mof_C 	C 	0.7446	0.0316	0.341	-0.789
Mof_H 	H 	0.7725	0.0371	0.2563	0.317
Mof_H 	H 	0.7147	0.99	0.316	0.255
Mof_H 	H 	0.7714	0.0219	0.4409	0.316
Mof_C 	C 	0.91	0.3539	0.5429	0.077
Mof_C 	C 	0.8897	0.297	0.6625	0.524
Mof_C 	C 	0.8725	0.3397	0.814	-0.69
Mof_H 	H 	0.9113	0.3681	0.8581	0.26
Mof_H 	H 	0.8379	0.376	0.7804	0.257
Mof_C 	C 	0.8506	0.293	0.9441	0.598
Mof_C 	C 	0.9469	0.2448	0.7083	-1.143
Mof_H 	H 	0.9417	0.221	0.8094	0.412
Mof_H 	H 	0.9874	0.2732	0.7183	0.407
Mof_H 	H 	0.9481	0.2068	0.6267	0.417
Mof_U 	U 	0.80503	0.26539	0.30632	0.172
Mof_O 	O 	0.7504	0.3386	0.315	-0.029
Mof_O 	O 	0.8605	0.1896	0.293	0.148
Mof_O 	O 	0.8431	0.2198	0.915	-0.184
Mof_O 	O 	0.8448	0.3228	0.075	-0.161
Mof_U 	U 	0.25572	0.68228	0.70677	0.031
Mof_U 	U 	0.32602	0.73192	0.30498	-0.147
Mof_O 	O 	0.2577	0.7925	0.2616	-0.092
Mof_O 	O 	0.3936	0.672	0.3402	-0.192
Mof_O 	O 	0.1633	0.605	0.6112	-0.117
Mof_O 	O 	0.1	0.5536	0.4061	-0.156
Mof_O 	O 	0.2797	0.6421	0.1125	-0.195
Mof_O 	O 	0.1979	0.6388	0.9301	-0.249
Mof_O 	O 	0.2448	0.6618	0.4278	-0.175
Mof_O 	O 	0.3898	0.8446	0.3952	-0.117
Mof_O 	O 	0.4477	0.9067	0.5958	-0.154
Mof_O 	O 	0.2898	0.7685	0.9071	-0.17
Mof_O 	O 	0.3785	0.7853	0.0847	-0.175
Mof_O 	O 	0.3328	0.758	0.591	-0.189
Mof_C 	C 	0.1518	0.5873	0.4649	0.127
Mof_C 	C 	0.2046	0.605	0.3549	0.421
Mof_C 	C 	0.1672	0.6283	0.1907	-0.566
Mof_H 	H 	0.1375	0.5877	0.1512	0.231
Mof_H 	H 	0.1405	0.6728	0.2054	0.237
Mof_C 	C 	0.214	0.6455	0.0659	0.46
Mof_C 	C 	0.2446	0.5316	0.341	-0.942
Mof_H 	H 	0.2725	0.5371	0.2563	0.355
Mof_H 	H 	0.2147	0.49	0.316	0.326
Mof_H 	H 	0.2714	0.5219	0.4409	0.353
Mof_C 	C 	0.41	0.8539	0.5429	0.08
Mof_C 	C 	0.3897	0.797	0.6625	0.519
Mof_C 	C 	0.3725	0.8397	0.814	-0.687
Mof_H 	H 	0.4113	0.8681	0.8581	0.255
Mof_H 	H 	0.3379	0.876	0.7804	0.254
Mof_C 	C 	0.3506	0.793	0.9441	0.599
Mof_C 	C 	0.4469	0.7448	0.7083	-1.133
Mof_H 	H 	0.4417	0.721	0.8094	0.408
Mof_H 	H 	0.4874	0.7732	0.7183	0.403
Mof_H 	H 	0.4481	0.7068	0.6267	0.412
Mof_U 	U 	0.30503	0.76539	0.30632	0.173
Mof_O 	O 	0.2504	0.8386	0.315	-0.036
Mof_O 	O 	0.3605	0.6896	0.293	0.151
Mof_O 	O 	0.3431	0.7198	0.915	-0.186
Mof_O 	O 	0.3448	0.8228	0.075	-0.166
Mof_U 	U 	0.5	0.01346	0.5	0.026
Mof_U 	U 	-4.76605e-18	0.51346	0.5	0.008
_end
