data_functionalizedCrystal
_audit_creation_method	'EQeq! by Chris Wilmer'
_symmetry_space_group_name_H-M	'P1'
_symmetry_Int_Tables_number	1
_symmetry_cell_setting	triclinic
loop_
_symmetry_equiv_pos_as_xyz
  x,y,z
_cell_length_a	24.942
_cell_length_b	24.942
_cell_length_c	24.942
_cell_angle_alpha	90
_cell_angle_beta	90
_cell_angle_gamma	90
loop_
_atom_site_label
_atom_site_type_symbol
_atom_site_fract_x
_atom_site_fract_y
_atom_site_fract_z
_atom_site_charge
Mof_O 	O 	0.00958	0.10986	0.09296	-0.552
Mof_O 	O 	0.96895	0.0332	0.07079	-0.52
Mof_O 	O 	0.79179	0.19374	0.23711	-0.435
Mof_O 	O 	0.73898	0.13203	0.19993	-0.263
Mof_O 	O 	0.78047	0.06184	0.13716	-0.119
Mof_C 	C 	0.96908	0.07813	0.09209	0.528
Mof_C 	C 	0.92052	0.09769	0.12063	-0.461
Mof_C 	C 	0.92378	0.14352	0.15205	0.233
Mof_H 	H 	0.9564	0.1631	0.154	-0.027
Mof_C 	C 	0.87942	0.16036	0.18028	-0.222
Mof_H 	H 	0.882	0.1909	0.2028	0.125
Mof_C 	C 	0.83141	0.13353	0.17627	0.077
Mof_C 	C 	0.78372	0.15425	0.20609	0.279
Mof_C 	C 	0.82816	0.08835	0.14449	-0.201
Mof_C 	C 	0.87229	0.07005	0.11694	0.704
Mof_H 	H 	0.8698	0.0387	0.0955	-1.034
Mof_C 	C 	0.10875	0.12173	0.18271	-0.049
Mof_H 	H 	0.1164	0.0853	0.1964	0.039
Mof_H 	H 	0.0697	0.1281	0.1854	0.03
Mof_C 	C 	0.1391	0.1636	0.21661	-0.073
Mof_H 	H 	0.1147	0.1933	0.2265	0.052
Mof_H 	H 	0.1525	0.1468	0.25	0.048
Mof_O 	O 	0.8685	0.0214	0.092	0.888
Mof_O 	O 	0.49042	0.89014	0.59296	-0.514
Mof_O 	O 	0.53105	0.9668	0.57079	-0.492
Mof_O 	O 	0.70821	0.80626	0.73711	-0.433
Mof_O 	O 	0.76102	0.86797	0.69993	-0.255
Mof_O 	O 	0.71953	0.93816	0.63716	-0.102
Mof_C 	C 	0.53092	0.92187	0.59209	0.487
Mof_C 	C 	0.57948	0.90231	0.62063	-0.428
Mof_C 	C 	0.57622	0.85648	0.65205	0.215
Mof_H 	H 	0.5436	0.8369	0.654	-0.026
Mof_C 	C 	0.62058	0.83964	0.68028	-0.205
Mof_H 	H 	0.618	0.8091	0.7028	0.119
Mof_C 	C 	0.66859	0.86647	0.67627	0.069
Mof_C 	C 	0.71628	0.84575	0.70609	0.283
Mof_C 	C 	0.67184	0.91165	0.64449	-0.179
Mof_C 	C 	0.62771	0.92995	0.61694	0.67
Mof_H 	H 	0.6302	0.9613	0.5955	-0.979
Mof_C 	C 	0.39125	0.87827	0.68271	-0.056
Mof_H 	H 	0.3836	0.9147	0.6964	0.051
Mof_H 	H 	0.4303	0.8719	0.6854	0.04
Mof_C 	C 	0.3609	0.8364	0.71661	-0.072
Mof_H 	H 	0.3853	0.8067	0.7265	0.056
Mof_H 	H 	0.3475	0.8532	0.75	0.053
Mof_O 	O 	0.6315	0.9786	0.592	0.859
Mof_O 	O 	0.99042	0.60986	0.40704	-0.487
Mof_O 	O 	0.03105	0.5332	0.42921	-0.506
Mof_O 	O 	0.20821	0.69374	0.26289	-0.436
Mof_O 	O 	0.26102	0.63203	0.30007	-0.259
Mof_O 	O 	0.21953	0.56184	0.36284	-0.11
Mof_C 	C 	0.03092	0.57813	0.40791	0.458
Mof_C 	C 	0.07948	0.59769	0.37937	-0.434
Mof_C 	C 	0.07622	0.64352	0.34795	0.214
Mof_H 	H 	0.0436	0.6631	0.346	-0.035
Mof_C 	C 	0.12058	0.66036	0.31972	-0.21
Mof_H 	H 	0.118	0.6909	0.2972	0.117
Mof_C 	C 	0.16859	0.63353	0.32373	0.069
Mof_C 	C 	0.21628	0.65425	0.29391	0.282
Mof_C 	C 	0.17184	0.58835	0.35551	-0.189
Mof_C 	C 	0.12771	0.57005	0.38306	0.683
Mof_H 	H 	0.1302	0.5387	0.4045	-1.011
Mof_C 	C 	0.89125	0.62173	0.31729	-0.056
Mof_H 	H 	0.8836	0.5853	0.3036	0.048
Mof_H 	H 	0.9303	0.6281	0.3146	0.042
Mof_C 	C 	0.8609	0.6636	0.28339	-0.072
Mof_H 	H 	0.8853	0.6933	0.2735	0.057
Mof_H 	H 	0.8475	0.6468	0.25	0.051
Mof_O 	O 	0.1315	0.5214	0.408	0.881
Mof_O 	O 	0.50958	0.39014	0.90704	-0.512
Mof_O 	O 	0.46895	0.4668	0.92921	-0.497
Mof_O 	O 	0.29179	0.30626	0.76289	-0.434
Mof_O 	O 	0.23898	0.36797	0.80007	-0.258
Mof_O 	O 	0.28047	0.43816	0.86284	-0.107
Mof_C 	C 	0.46908	0.42187	0.90791	0.491
Mof_C 	C 	0.42052	0.40231	0.87937	-0.433
Mof_C 	C 	0.42378	0.35648	0.84795	0.219
Mof_H 	H 	0.4564	0.3369	0.846	-0.027
Mof_C 	C 	0.37942	0.33964	0.81972	-0.208
Mof_H 	H 	0.382	0.3091	0.7972	0.12
Mof_C 	C 	0.33141	0.36647	0.82373	0.07
Mof_C 	C 	0.28372	0.34575	0.79391	0.283
Mof_C 	C 	0.32816	0.41165	0.85551	-0.185
Mof_C 	C 	0.37229	0.42995	0.88306	0.68
Mof_H 	H 	0.3698	0.4613	0.9045	-0.996
Mof_C 	C 	0.60875	0.37827	0.81729	-0.054
Mof_H 	H 	0.6164	0.4147	0.8036	0.046
Mof_H 	H 	0.5697	0.3719	0.8146	0.037
Mof_C 	C 	0.6391	0.3364	0.78339	-0.072
Mof_H 	H 	0.6147	0.3067	0.7735	0.055
Mof_H 	H 	0.6525	0.3532	0.75	0.051
Mof_O 	O 	0.3685	0.4786	0.908	0.87
Mof_O 	O 	0.09296	0.00958	0.10986	-0.551
Mof_O 	O 	0.07079	0.96895	0.0332	-0.519
Mof_O 	O 	0.23711	0.79179	0.19374	-0.434
Mof_O 	O 	0.19993	0.73898	0.13203	-0.262
Mof_O 	O 	0.13716	0.78047	0.06184	-0.118
Mof_C 	C 	0.09209	0.96908	0.07813	0.529
Mof_C 	C 	0.12063	0.92052	0.09769	-0.46
Mof_C 	C 	0.15205	0.92378	0.14352	0.234
Mof_H 	H 	0.154	0.9564	0.1631	-0.026
Mof_C 	C 	0.18028	0.87942	0.16036	-0.221
Mof_H 	H 	0.2028	0.882	0.1909	0.125
Mof_C 	C 	0.17627	0.83141	0.13353	0.077
Mof_C 	C 	0.20609	0.78372	0.15425	0.279
Mof_C 	C 	0.14449	0.82816	0.08835	-0.201
Mof_C 	C 	0.11694	0.87229	0.07005	0.704
Mof_H 	H 	0.0955	0.8698	0.0387	-1.034
Mof_C 	C 	0.18271	0.10875	0.12173	-0.049
Mof_H 	H 	0.1964	0.1164	0.0853	0.039
Mof_H 	H 	0.1854	0.0697	0.1281	0.03
Mof_C 	C 	0.21661	0.1391	0.1636	-0.073
Mof_H 	H 	0.2265	0.1147	0.1933	0.052
Mof_H 	H 	0.25	0.1525	0.1468	0.048
Mof_O 	O 	0.092	0.8685	0.0214	0.888
Mof_O 	O 	0.59296	0.49042	0.89014	-0.514
Mof_O 	O 	0.57079	0.53105	0.9668	-0.492
Mof_O 	O 	0.73711	0.70821	0.80626	-0.433
Mof_O 	O 	0.69993	0.76102	0.86797	-0.255
Mof_O 	O 	0.63716	0.71953	0.93816	-0.102
Mof_C 	C 	0.59209	0.53092	0.92187	0.487
Mof_C 	C 	0.62063	0.57948	0.90231	-0.428
Mof_C 	C 	0.65205	0.57622	0.85648	0.215
Mof_H 	H 	0.654	0.5436	0.8369	-0.026
Mof_C 	C 	0.68028	0.62058	0.83964	-0.205
Mof_H 	H 	0.7028	0.618	0.8091	0.119
Mof_C 	C 	0.67627	0.66859	0.86647	0.069
Mof_C 	C 	0.70609	0.71628	0.84575	0.283
Mof_C 	C 	0.64449	0.67184	0.91165	-0.179
Mof_C 	C 	0.61694	0.62771	0.92995	0.67
Mof_H 	H 	0.5955	0.6302	0.9613	-0.979
Mof_C 	C 	0.68271	0.39125	0.87827	-0.056
Mof_H 	H 	0.6964	0.3836	0.9147	0.051
Mof_H 	H 	0.6854	0.4303	0.8719	0.04
Mof_C 	C 	0.71661	0.3609	0.8364	-0.072
Mof_H 	H 	0.7265	0.3853	0.8067	0.056
Mof_H 	H 	0.75	0.3475	0.8532	0.053
Mof_O 	O 	0.592	0.6315	0.9786	0.859
Mof_O 	O 	0.40704	0.99042	0.60986	-0.487
Mof_O 	O 	0.42921	0.03105	0.5332	-0.506
Mof_O 	O 	0.26289	0.20821	0.69374	-0.436
Mof_O 	O 	0.30007	0.26102	0.63203	-0.259
Mof_O 	O 	0.36284	0.21953	0.56184	-0.11
Mof_C 	C 	0.40791	0.03092	0.57813	0.458
Mof_C 	C 	0.37937	0.07948	0.59769	-0.434
Mof_C 	C 	0.34795	0.07622	0.64352	0.214
Mof_H 	H 	0.346	0.0436	0.6631	-0.035
Mof_C 	C 	0.31972	0.12058	0.66036	-0.21
Mof_H 	H 	0.2972	0.118	0.6909	0.117
Mof_C 	C 	0.32373	0.16859	0.63353	0.069
Mof_C 	C 	0.29391	0.21628	0.65425	0.282
Mof_C 	C 	0.35551	0.17184	0.58835	-0.189
Mof_C 	C 	0.38306	0.12771	0.57005	0.683
Mof_H 	H 	0.4045	0.1302	0.5387	-1.011
Mof_C 	C 	0.31729	0.89125	0.62173	-0.056
Mof_H 	H 	0.3036	0.8836	0.5853	0.048
Mof_H 	H 	0.3146	0.9303	0.6281	0.042
Mof_C 	C 	0.28339	0.8609	0.6636	-0.072
Mof_H 	H 	0.2735	0.8853	0.6933	0.057
Mof_H 	H 	0.25	0.8475	0.6468	0.051
Mof_O 	O 	0.408	0.1315	0.5214	0.881
Mof_O 	O 	0.90704	0.50958	0.39014	-0.512
Mof_O 	O 	0.92921	0.46895	0.4668	-0.497
Mof_O 	O 	0.76289	0.29179	0.30626	-0.434
Mof_O 	O 	0.80007	0.23898	0.36797	-0.258
Mof_O 	O 	0.86284	0.28047	0.43816	-0.107
Mof_C 	C 	0.90791	0.46908	0.42187	0.491
Mof_C 	C 	0.87937	0.42052	0.40231	-0.433
Mof_C 	C 	0.84795	0.42378	0.35648	0.219
Mof_H 	H 	0.846	0.4564	0.3369	-0.027
Mof_C 	C 	0.81972	0.37942	0.33964	-0.208
Mof_H 	H 	0.7972	0.382	0.3091	0.12
Mof_C 	C 	0.82373	0.33141	0.36647	0.07
Mof_C 	C 	0.79391	0.28372	0.34575	0.283
Mof_C 	C 	0.85551	0.32816	0.41165	-0.185
Mof_C 	C 	0.88306	0.37229	0.42995	0.68
Mof_H 	H 	0.9045	0.3698	0.4613	-0.996
Mof_C 	C 	0.81729	0.60875	0.37827	-0.054
Mof_H 	H 	0.8036	0.6164	0.4147	0.046
Mof_H 	H 	0.8146	0.5697	0.3719	0.037
Mof_C 	C 	0.78339	0.6391	0.3364	-0.072
Mof_H 	H 	0.7735	0.6147	0.3067	0.055
Mof_H 	H 	0.75	0.6525	0.3532	0.051
Mof_O 	O 	0.908	0.3685	0.4786	0.87
Mof_O 	O 	0.10986	0.09296	0.00958	-0.551
Mof_O 	O 	0.0332	0.07079	0.96895	-0.519
Mof_O 	O 	0.19374	0.23711	0.79179	-0.434
Mof_O 	O 	0.13203	0.19993	0.73898	-0.262
Mof_O 	O 	0.06184	0.13716	0.78047	-0.118
Mof_C 	C 	0.07813	0.09209	0.96908	0.529
Mof_C 	C 	0.09769	0.12063	0.92052	-0.46
Mof_C 	C 	0.14352	0.15205	0.92378	0.234
Mof_H 	H 	0.1631	0.154	0.9564	-0.026
Mof_C 	C 	0.16036	0.18028	0.87942	-0.221
Mof_H 	H 	0.1909	0.2028	0.882	0.125
Mof_C 	C 	0.13353	0.17627	0.83141	0.077
Mof_C 	C 	0.15425	0.20609	0.78372	0.279
Mof_C 	C 	0.08835	0.14449	0.82816	-0.201
Mof_C 	C 	0.07005	0.11694	0.87229	0.704
Mof_H 	H 	0.0387	0.0955	0.8698	-1.034
Mof_C 	C 	0.12173	0.18271	0.10875	-0.049
Mof_H 	H 	0.0853	0.1964	0.1164	0.039
Mof_H 	H 	0.1281	0.1854	0.0697	0.03
Mof_C 	C 	0.1636	0.21661	0.1391	-0.073
Mof_H 	H 	0.1933	0.2265	0.1147	0.052
Mof_H 	H 	0.1468	0.25	0.1525	0.048
Mof_O 	O 	0.0214	0.092	0.8685	0.888
Mof_O 	O 	0.89014	0.59296	0.49042	-0.514
Mof_O 	O 	0.9668	0.57079	0.53105	-0.492
Mof_O 	O 	0.80626	0.73711	0.70821	-0.433
Mof_O 	O 	0.86797	0.69993	0.76102	-0.255
Mof_O 	O 	0.93816	0.63716	0.71953	-0.102
Mof_C 	C 	0.92187	0.59209	0.53092	0.487
Mof_C 	C 	0.90231	0.62063	0.57948	-0.428
Mof_C 	C 	0.85648	0.65205	0.57622	0.215
Mof_H 	H 	0.8369	0.654	0.5436	-0.026
Mof_C 	C 	0.83964	0.68028	0.62058	-0.205
Mof_H 	H 	0.8091	0.7028	0.618	0.119
Mof_C 	C 	0.86647	0.67627	0.66859	0.069
Mof_C 	C 	0.84575	0.70609	0.71628	0.283
Mof_C 	C 	0.91165	0.64449	0.67184	-0.179
Mof_C 	C 	0.92995	0.61694	0.62771	0.67
Mof_H 	H 	0.9613	0.5955	0.6302	-0.979
Mof_C 	C 	0.87827	0.68271	0.39125	-0.056
Mof_H 	H 	0.9147	0.6964	0.3836	0.051
Mof_H 	H 	0.8719	0.6854	0.4303	0.04
Mof_C 	C 	0.8364	0.71661	0.3609	-0.072
Mof_H 	H 	0.8067	0.7265	0.3853	0.056
Mof_H 	H 	0.8532	0.75	0.3475	0.053
Mof_O 	O 	0.9786	0.592	0.6315	0.859
Mof_O 	O 	0.60986	0.40704	0.99042	-0.487
Mof_O 	O 	0.5332	0.42921	0.03105	-0.506
Mof_O 	O 	0.69374	0.26289	0.20821	-0.436
Mof_O 	O 	0.63203	0.30007	0.26102	-0.259
Mof_O 	O 	0.56184	0.36284	0.21953	-0.11
Mof_C 	C 	0.57813	0.40791	0.03092	0.458
Mof_C 	C 	0.59769	0.37937	0.07948	-0.434
Mof_C 	C 	0.64352	0.34795	0.07622	0.214
Mof_H 	H 	0.6631	0.346	0.0436	-0.035
Mof_C 	C 	0.66036	0.31972	0.12058	-0.21
Mof_H 	H 	0.6909	0.2972	0.118	0.117
Mof_C 	C 	0.63353	0.32373	0.16859	0.069
Mof_C 	C 	0.65425	0.29391	0.21628	0.282
Mof_C 	C 	0.58835	0.35551	0.17184	-0.189
Mof_C 	C 	0.57005	0.38306	0.12771	0.683
Mof_H 	H 	0.5387	0.4045	0.1302	-1.011
Mof_C 	C 	0.62173	0.31729	0.89125	-0.056
Mof_H 	H 	0.5853	0.3036	0.8836	0.048
Mof_H 	H 	0.6281	0.3146	0.9303	0.042
Mof_C 	C 	0.6636	0.28339	0.8609	-0.072
Mof_H 	H 	0.6933	0.2735	0.8853	0.057
Mof_H 	H 	0.6468	0.25	0.8475	0.051
Mof_O 	O 	0.5214	0.408	0.1315	0.881
Mof_O 	O 	0.39014	0.90704	0.50958	-0.512
Mof_O 	O 	0.4668	0.92921	0.46895	-0.497
Mof_O 	O 	0.30626	0.76289	0.29179	-0.434
Mof_O 	O 	0.36797	0.80007	0.23898	-0.258
Mof_O 	O 	0.43816	0.86284	0.28047	-0.107
Mof_C 	C 	0.42187	0.90791	0.46908	0.491
Mof_C 	C 	0.40231	0.87937	0.42052	-0.433
Mof_C 	C 	0.35648	0.84795	0.42378	0.219
Mof_H 	H 	0.3369	0.846	0.4564	-0.027
Mof_C 	C 	0.33964	0.81972	0.37942	-0.208
Mof_H 	H 	0.3091	0.7972	0.382	0.12
Mof_C 	C 	0.36647	0.82373	0.33141	0.07
Mof_C 	C 	0.34575	0.79391	0.28372	0.283
Mof_C 	C 	0.41165	0.85551	0.32816	-0.185
Mof_C 	C 	0.42995	0.88306	0.37229	0.68
Mof_H 	H 	0.4613	0.9045	0.3698	-0.996
Mof_C 	C 	0.37827	0.81729	0.60875	-0.054
Mof_H 	H 	0.4147	0.8036	0.6164	0.046
Mof_H 	H 	0.3719	0.8146	0.5697	0.037
Mof_C 	C 	0.3364	0.78339	0.6391	-0.072
Mof_H 	H 	0.3067	0.7735	0.6147	0.055
Mof_H 	H 	0.3532	0.75	0.6525	0.051
Mof_O 	O 	0.4786	0.908	0.3685	0.87
Mof_O 	O 	0.99042	0.89014	0.90704	-0.481
Mof_O 	O 	0.03105	0.9668	0.92921	-0.484
Mof_O 	O 	0.20821	0.80626	0.76289	-0.435
Mof_O 	O 	0.26102	0.86797	0.80007	-0.255
Mof_O 	O 	0.21953	0.93816	0.86284	-0.101
Mof_C 	C 	0.03092	0.92187	0.90791	0.454
Mof_C 	C 	0.07948	0.90231	0.87937	-0.417
Mof_C 	C 	0.07622	0.85648	0.84795	0.206
Mof_H 	H 	0.0436	0.8369	0.846	-0.031
Mof_C 	C 	0.12058	0.83964	0.81972	-0.201
Mof_H 	H 	0.118	0.8091	0.7972	0.115
Mof_C 	C 	0.16859	0.86647	0.82373	0.066
Mof_C 	C 	0.21628	0.84575	0.79391	0.284
Mof_C 	C 	0.17184	0.91165	0.85551	-0.176
Mof_C 	C 	0.12771	0.92995	0.88306	0.664
Mof_H 	H 	0.1302	0.9613	0.9045	-0.976
Mof_C 	C 	0.89125	0.87827	0.81729	-0.058
Mof_H 	H 	0.8836	0.9147	0.8036	0.053
Mof_H 	H 	0.9303	0.8719	0.8146	0.045
Mof_C 	C 	0.8609	0.8364	0.78339	-0.071
Mof_H 	H 	0.8853	0.8067	0.7735	0.058
Mof_H 	H 	0.8475	0.8532	0.75	0.054
Mof_O 	O 	0.1315	0.9786	0.908	0.861
Mof_O 	O 	0.50958	0.10986	0.40704	-0.519
Mof_O 	O 	0.46895	0.0332	0.42921	-0.516
Mof_O 	O 	0.29179	0.19374	0.26289	-0.436
Mof_O 	O 	0.23898	0.13203	0.30007	-0.262
Mof_O 	O 	0.28047	0.06184	0.36284	-0.117
Mof_C 	C 	0.46908	0.07813	0.40791	0.496
Mof_C 	C 	0.42052	0.09769	0.37937	-0.45
Mof_C 	C 	0.42378	0.14352	0.34795	0.226
Mof_H 	H 	0.4564	0.1631	0.346	-0.032
Mof_C 	C 	0.37942	0.16036	0.31972	-0.217
Mof_H 	H 	0.382	0.1909	0.2972	0.121
Mof_C 	C 	0.33141	0.13353	0.32373	0.074
Mof_C 	C 	0.28372	0.15425	0.29391	0.28
Mof_C 	C 	0.32816	0.08835	0.35551	-0.198
Mof_C 	C 	0.37229	0.07005	0.38306	0.699
Mof_H 	H 	0.3698	0.0387	0.4045	-1.031
Mof_C 	C 	0.60875	0.12173	0.31729	-0.052
Mof_H 	H 	0.6164	0.0853	0.3036	0.041
Mof_H 	H 	0.5697	0.1281	0.3146	0.035
Mof_C 	C 	0.6391	0.1636	0.28339	-0.073
Mof_H 	H 	0.6147	0.1933	0.2735	0.053
Mof_H 	H 	0.6525	0.1468	0.25	0.048
Mof_O 	O 	0.3685	0.0214	0.408	0.89
Mof_O 	O 	0.00958	0.39014	0.59296	-0.545
Mof_O 	O 	0.96895	0.4668	0.57079	-0.502
Mof_O 	O 	0.79179	0.30626	0.73711	-0.433
Mof_O 	O 	0.73898	0.36797	0.69993	-0.258
Mof_O 	O 	0.78047	0.43816	0.63716	-0.109
Mof_C 	C 	0.96908	0.42187	0.59209	0.525
Mof_C 	C 	0.92052	0.40231	0.62063	-0.444
Mof_C 	C 	0.92378	0.35648	0.65205	0.227
Mof_H 	H 	0.9564	0.3369	0.654	-0.022
Mof_C 	C 	0.87942	0.33964	0.68028	-0.212
Mof_H 	H 	0.882	0.3091	0.7028	0.124
Mof_C 	C 	0.83141	0.36647	0.67627	0.074
Mof_C 	C 	0.78372	0.34575	0.70609	0.281
Mof_C 	C 	0.82816	0.41165	0.64449	-0.188
Mof_C 	C 	0.87229	0.42995	0.61694	0.686
Mof_H 	H 	0.8698	0.4613	0.5955	-0.999
Mof_C 	C 	0.10875	0.37827	0.68271	-0.051
Mof_H 	H 	0.1164	0.4147	0.6964	0.044
Mof_H 	H 	0.0697	0.3719	0.6854	0.032
Mof_C 	C 	0.1391	0.3364	0.71661	-0.073
Mof_H 	H 	0.1147	0.3067	0.7265	0.053
Mof_H 	H 	0.1525	0.3532	0.75	0.05
Mof_O 	O 	0.8685	0.4786	0.592	0.868
Mof_O 	O 	0.49042	0.60986	0.09296	-0.521
Mof_O 	O 	0.53105	0.5332	0.07079	-0.511
Mof_O 	O 	0.70821	0.69374	0.23711	-0.434
Mof_O 	O 	0.76102	0.63203	0.19993	-0.259
Mof_O 	O 	0.71953	0.56184	0.13716	-0.112
Mof_C 	C 	0.53092	0.57813	0.09209	0.492
Mof_C 	C 	0.57948	0.59769	0.12063	-0.444
Mof_C 	C 	0.57622	0.64352	0.15205	0.223
Mof_H 	H 	0.5436	0.6631	0.154	-0.03
Mof_C 	C 	0.62058	0.66036	0.18028	-0.214
Mof_H 	H 	0.618	0.6909	0.2028	0.121
Mof_C 	C 	0.66859	0.63353	0.17627	0.073
Mof_C 	C 	0.71628	0.65425	0.20609	0.28
Mof_C 	C 	0.67184	0.58835	0.14449	-0.192
Mof_C 	C 	0.62771	0.57005	0.11694	0.689
Mof_H 	H 	0.6302	0.5387	0.0955	-1.015
Mof_C 	C 	0.39125	0.62173	0.18271	-0.053
Mof_H 	H 	0.3836	0.5853	0.1964	0.046
Mof_H 	H 	0.4303	0.6281	0.1854	0.037
Mof_C 	C 	0.3609	0.6636	0.21661	-0.072
Mof_H 	H 	0.3853	0.6933	0.2265	0.055
Mof_H 	H 	0.3475	0.6468	0.25	0.051
Mof_O 	O 	0.6315	0.5214	0.092	0.879
Mof_O 	O 	0.90704	0.99042	0.89014	-0.481
Mof_O 	O 	0.92921	0.03105	0.9668	-0.484
Mof_O 	O 	0.76289	0.20821	0.80626	-0.435
Mof_O 	O 	0.80007	0.26102	0.86797	-0.255
Mof_O 	O 	0.86284	0.21953	0.93816	-0.101
Mof_C 	C 	0.90791	0.03092	0.92187	0.454
Mof_C 	C 	0.87937	0.07948	0.90231	-0.417
Mof_C 	C 	0.84795	0.07622	0.85648	0.206
Mof_H 	H 	0.846	0.0436	0.8369	-0.031
Mof_C 	C 	0.81972	0.12058	0.83964	-0.201
Mof_H 	H 	0.7972	0.118	0.8091	0.115
Mof_C 	C 	0.82373	0.16859	0.86647	0.066
Mof_C 	C 	0.79391	0.21628	0.84575	0.284
Mof_C 	C 	0.85551	0.17184	0.91165	-0.176
Mof_C 	C 	0.88306	0.12771	0.92995	0.664
Mof_H 	H 	0.9045	0.1302	0.9613	-0.976
Mof_C 	C 	0.81729	0.89125	0.87827	-0.058
Mof_H 	H 	0.8036	0.8836	0.9147	0.053
Mof_H 	H 	0.8146	0.9303	0.8719	0.045
Mof_C 	C 	0.78339	0.8609	0.8364	-0.071
Mof_H 	H 	0.7735	0.8853	0.8067	0.058
Mof_H 	H 	0.75	0.8475	0.8532	0.054
Mof_O 	O 	0.908	0.1315	0.9786	0.861
Mof_O 	O 	0.40704	0.50958	0.10986	-0.519
Mof_O 	O 	0.42921	0.46895	0.0332	-0.516
Mof_O 	O 	0.26289	0.29179	0.19374	-0.436
Mof_O 	O 	0.30007	0.23898	0.13203	-0.262
Mof_O 	O 	0.36284	0.28047	0.06184	-0.117
Mof_C 	C 	0.40791	0.46908	0.07813	0.496
Mof_C 	C 	0.37937	0.42052	0.09769	-0.45
Mof_C 	C 	0.34795	0.42378	0.14352	0.226
Mof_H 	H 	0.346	0.4564	0.1631	-0.032
Mof_C 	C 	0.31972	0.37942	0.16036	-0.217
Mof_H 	H 	0.2972	0.382	0.1909	0.121
Mof_C 	C 	0.32373	0.33141	0.13353	0.074
Mof_C 	C 	0.29391	0.28372	0.15425	0.28
Mof_C 	C 	0.35551	0.32816	0.08835	-0.198
Mof_C 	C 	0.38306	0.37229	0.07005	0.699
Mof_H 	H 	0.4045	0.3698	0.0387	-1.031
Mof_C 	C 	0.31729	0.60875	0.12173	-0.052
Mof_H 	H 	0.3036	0.6164	0.0853	0.041
Mof_H 	H 	0.3146	0.5697	0.1281	0.035
Mof_C 	C 	0.28339	0.6391	0.1636	-0.073
Mof_H 	H 	0.2735	0.6147	0.1933	0.053
Mof_H 	H 	0.25	0.6525	0.1468	0.048
Mof_O 	O 	0.408	0.3685	0.0214	0.89
Mof_O 	O 	0.59296	0.00958	0.39014	-0.545
Mof_O 	O 	0.57079	0.96895	0.4668	-0.502
Mof_O 	O 	0.73711	0.79179	0.30626	-0.433
Mof_O 	O 	0.69993	0.73898	0.36797	-0.258
Mof_O 	O 	0.63716	0.78047	0.43816	-0.109
Mof_C 	C 	0.59209	0.96908	0.42187	0.525
Mof_C 	C 	0.62063	0.92052	0.40231	-0.444
Mof_C 	C 	0.65205	0.92378	0.35648	0.227
Mof_H 	H 	0.654	0.9564	0.3369	-0.022
Mof_C 	C 	0.68028	0.87942	0.33964	-0.212
Mof_H 	H 	0.7028	0.882	0.3091	0.124
Mof_C 	C 	0.67627	0.83141	0.36647	0.074
Mof_C 	C 	0.70609	0.78372	0.34575	0.281
Mof_C 	C 	0.64449	0.82816	0.41165	-0.188
Mof_C 	C 	0.61694	0.87229	0.42995	0.686
Mof_H 	H 	0.5955	0.8698	0.4613	-0.999
Mof_C 	C 	0.68271	0.10875	0.37827	-0.051
Mof_H 	H 	0.6964	0.1164	0.4147	0.044
Mof_H 	H 	0.6854	0.0697	0.3719	0.032
Mof_C 	C 	0.71661	0.1391	0.3364	-0.073
Mof_H 	H 	0.7265	0.1147	0.3067	0.053
Mof_H 	H 	0.75	0.1525	0.3532	0.05
Mof_O 	O 	0.592	0.8685	0.4786	0.868
Mof_O 	O 	0.09296	0.49042	0.60986	-0.521
Mof_O 	O 	0.07079	0.53105	0.5332	-0.511
Mof_O 	O 	0.23711	0.70821	0.69374	-0.434
Mof_O 	O 	0.19993	0.76102	0.63203	-0.259
Mof_O 	O 	0.13716	0.71953	0.56184	-0.112
Mof_C 	C 	0.09209	0.53092	0.57813	0.492
Mof_C 	C 	0.12063	0.57948	0.59769	-0.444
Mof_C 	C 	0.15205	0.57622	0.64352	0.223
Mof_H 	H 	0.154	0.5436	0.6631	-0.03
Mof_C 	C 	0.18028	0.62058	0.66036	-0.214
Mof_H 	H 	0.2028	0.618	0.6909	0.121
Mof_C 	C 	0.17627	0.66859	0.63353	0.073
Mof_C 	C 	0.20609	0.71628	0.65425	0.28
Mof_C 	C 	0.14449	0.67184	0.58835	-0.192
Mof_C 	C 	0.11694	0.62771	0.57005	0.689
Mof_H 	H 	0.0955	0.6302	0.5387	-1.015
Mof_C 	C 	0.18271	0.39125	0.62173	-0.053
Mof_H 	H 	0.1964	0.3836	0.5853	0.046
Mof_H 	H 	0.1854	0.4303	0.6281	0.037
Mof_C 	C 	0.21661	0.3609	0.6636	-0.072
Mof_H 	H 	0.2265	0.3853	0.6933	0.055
Mof_H 	H 	0.25	0.3475	0.6468	0.051
Mof_O 	O 	0.092	0.6315	0.5214	0.879
Mof_O 	O 	0.89014	0.90704	0.99042	-0.481
Mof_O 	O 	0.9668	0.92921	0.03105	-0.484
Mof_O 	O 	0.80626	0.76289	0.20821	-0.435
Mof_O 	O 	0.86797	0.80007	0.26102	-0.255
Mof_O 	O 	0.93816	0.86284	0.21953	-0.101
Mof_C 	C 	0.92187	0.90791	0.03092	0.454
Mof_C 	C 	0.90231	0.87937	0.07948	-0.417
Mof_C 	C 	0.85648	0.84795	0.07622	0.206
Mof_H 	H 	0.8369	0.846	0.0436	-0.031
Mof_C 	C 	0.83964	0.81972	0.12058	-0.201
Mof_H 	H 	0.8091	0.7972	0.118	0.115
Mof_C 	C 	0.86647	0.82373	0.16859	0.066
Mof_C 	C 	0.84575	0.79391	0.21628	0.284
Mof_C 	C 	0.91165	0.85551	0.17184	-0.176
Mof_C 	C 	0.92995	0.88306	0.12771	0.664
Mof_H 	H 	0.9613	0.9045	0.1302	-0.976
Mof_C 	C 	0.87827	0.81729	0.89125	-0.058
Mof_H 	H 	0.9147	0.8036	0.8836	0.053
Mof_H 	H 	0.8719	0.8146	0.9303	0.045
Mof_C 	C 	0.8364	0.78339	0.8609	-0.071
Mof_H 	H 	0.8067	0.7735	0.8853	0.058
Mof_H 	H 	0.8532	0.75	0.8475	0.054
Mof_O 	O 	0.9786	0.908	0.1315	0.861
Mof_O 	O 	0.10986	0.40704	0.50958	-0.519
Mof_O 	O 	0.0332	0.42921	0.46895	-0.516
Mof_O 	O 	0.19374	0.26289	0.29179	-0.436
Mof_O 	O 	0.13203	0.30007	0.23898	-0.262
Mof_O 	O 	0.06184	0.36284	0.28047	-0.117
Mof_C 	C 	0.07813	0.40791	0.46908	0.496
Mof_C 	C 	0.09769	0.37937	0.42052	-0.45
Mof_C 	C 	0.14352	0.34795	0.42378	0.226
Mof_H 	H 	0.1631	0.346	0.4564	-0.032
Mof_C 	C 	0.16036	0.31972	0.37942	-0.217
Mof_H 	H 	0.1909	0.2972	0.382	0.121
Mof_C 	C 	0.13353	0.32373	0.33141	0.074
Mof_C 	C 	0.15425	0.29391	0.28372	0.28
Mof_C 	C 	0.08835	0.35551	0.32816	-0.198
Mof_C 	C 	0.07005	0.38306	0.37229	0.699
Mof_H 	H 	0.0387	0.4045	0.3698	-1.031
Mof_C 	C 	0.12173	0.31729	0.60875	-0.052
Mof_H 	H 	0.0853	0.3036	0.6164	0.041
Mof_H 	H 	0.1281	0.3146	0.5697	0.035
Mof_C 	C 	0.1636	0.28339	0.6391	-0.073
Mof_H 	H 	0.1933	0.2735	0.6147	0.053
Mof_H 	H 	0.1468	0.25	0.6525	0.048
Mof_O 	O 	0.0214	0.408	0.3685	0.89
Mof_O 	O 	0.39014	0.59296	0.00958	-0.545
Mof_O 	O 	0.4668	0.57079	0.96895	-0.502
Mof_O 	O 	0.30626	0.73711	0.79179	-0.433
Mof_O 	O 	0.36797	0.69993	0.73898	-0.258
Mof_O 	O 	0.43816	0.63716	0.78047	-0.109
Mof_C 	C 	0.42187	0.59209	0.96908	0.525
Mof_C 	C 	0.40231	0.62063	0.92052	-0.444
Mof_C 	C 	0.35648	0.65205	0.92378	0.227
Mof_H 	H 	0.3369	0.654	0.9564	-0.022
Mof_C 	C 	0.33964	0.68028	0.87942	-0.212
Mof_H 	H 	0.3091	0.7028	0.882	0.124
Mof_C 	C 	0.36647	0.67627	0.83141	0.074
Mof_C 	C 	0.34575	0.70609	0.78372	0.281
Mof_C 	C 	0.41165	0.64449	0.82816	-0.188
Mof_C 	C 	0.42995	0.61694	0.87229	0.686
Mof_H 	H 	0.4613	0.5955	0.8698	-0.999
Mof_C 	C 	0.37827	0.68271	0.10875	-0.051
Mof_H 	H 	0.4147	0.6964	0.1164	0.044
Mof_H 	H 	0.3719	0.6854	0.0697	0.032
Mof_C 	C 	0.3364	0.71661	0.1391	-0.073
Mof_H 	H 	0.3067	0.7265	0.1147	0.053
Mof_H 	H 	0.3532	0.75	0.1525	0.05
Mof_O 	O 	0.4786	0.592	0.8685	0.868
Mof_O 	O 	0.60986	0.09296	0.49042	-0.521
Mof_O 	O 	0.5332	0.07079	0.53105	-0.511
Mof_O 	O 	0.69374	0.23711	0.70821	-0.434
Mof_O 	O 	0.63203	0.19993	0.76102	-0.259
Mof_O 	O 	0.56184	0.13716	0.71953	-0.112
Mof_C 	C 	0.57813	0.09209	0.53092	0.492
Mof_C 	C 	0.59769	0.12063	0.57948	-0.444
Mof_C 	C 	0.64352	0.15205	0.57622	0.223
Mof_H 	H 	0.6631	0.154	0.5436	-0.03
Mof_C 	C 	0.66036	0.18028	0.62058	-0.214
Mof_H 	H 	0.6909	0.2028	0.618	0.121
Mof_C 	C 	0.63353	0.17627	0.66859	0.073
Mof_C 	C 	0.65425	0.20609	0.71628	0.28
Mof_C 	C 	0.58835	0.14449	0.67184	-0.192
Mof_C 	C 	0.57005	0.11694	0.62771	0.689
Mof_H 	H 	0.5387	0.0955	0.6302	-1.015
Mof_C 	C 	0.62173	0.18271	0.39125	-0.053
Mof_H 	H 	0.5853	0.1964	0.3836	0.046
Mof_H 	H 	0.6281	0.1854	0.4303	0.037
Mof_C 	C 	0.6636	0.21661	0.3609	-0.072
Mof_H 	H 	0.6933	0.2265	0.3853	0.055
Mof_H 	H 	0.6468	0.25	0.3475	0.051
Mof_O 	O 	0.5214	0.092	0.6315	0.879
Mof_Zn	Zn	0.07886	0.07886	0.07886	1.218
Mof_Zn	Zn	0.23183	0.23183	0.23183	1.227
Mof_N 	N 	0.12591	0.12591	0.12591	-0.202
Mof_N 	N 	0.18471	0.18471	0.18471	-0.198
Mof_Zn	Zn	0.42114	0.92114	0.57886	1.221
Mof_Zn	Zn	0.26817	0.76817	0.73183	1.227
Mof_N 	N 	0.37409	0.87409	0.62591	-0.199
Mof_N 	N 	0.31529	0.81529	0.68471	-0.198
Mof_Zn	Zn	0.92114	0.57886	0.42114	1.221
Mof_Zn	Zn	0.76817	0.73183	0.26817	1.227
Mof_N 	N 	0.87409	0.62591	0.37409	-0.199
Mof_N 	N 	0.81529	0.68471	0.31529	-0.198
Mof_Zn	Zn	0.57886	0.42114	0.92114	1.221
Mof_Zn	Zn	0.73183	0.26817	0.76817	1.227
Mof_N 	N 	0.62591	0.37409	0.87409	-0.199
Mof_N 	N 	0.68471	0.31529	0.81529	-0.198
Mof_Zn	Zn	0.92114	0.92114	0.92114	1.223
Mof_Zn	Zn	0.76817	0.76817	0.76817	1.227
Mof_N 	N 	0.87409	0.87409	0.87409	-0.197
Mof_N 	N 	0.81529	0.81529	0.81529	-0.198
Mof_Zn	Zn	0.57886	0.07886	0.42114	1.22
Mof_Zn	Zn	0.73183	0.23183	0.26817	1.227
Mof_N 	N 	0.62591	0.12591	0.37409	-0.2
Mof_N 	N 	0.68471	0.18471	0.31529	-0.198
Mof_Zn	Zn	0.07886	0.42114	0.57886	1.22
Mof_Zn	Zn	0.23183	0.26817	0.73183	1.227
Mof_N 	N 	0.12591	0.37409	0.62591	-0.2
Mof_N 	N 	0.18471	0.31529	0.68471	-0.198
Mof_Zn	Zn	0.42114	0.57886	0.07886	1.22
Mof_Zn	Zn	0.26817	0.73183	0.23183	1.227
Mof_N 	N 	0.37409	0.62591	0.12591	-0.2
Mof_N 	N 	0.31529	0.68471	0.18471	-0.198
Mof_Zn	Zn	-0	0	-0	1.211
Mof_Zn	Zn	0.5	0	0.5	1.228
Mof_Zn	Zn	1.48898e-32	0.5	0.5	1.228
Mof_Zn	Zn	0.5	0.5	-0	1.228
_end
