data_functionalizedCrystal
_audit_creation_method	'EQeq! by Chris Wilmer'
_symmetry_space_group_name_H-M	'P1'
_symmetry_Int_Tables_number	1
_symmetry_cell_setting	triclinic
loop_
_symmetry_equiv_pos_as_xyz
  x,y,z
_cell_length_a	9.4442
_cell_length_b	15.449
_cell_length_c	9.5719
_cell_angle_alpha	90
_cell_angle_beta	93.268
_cell_angle_gamma	90
loop_
_atom_site_label
_atom_site_type_symbol
_atom_site_fract_x
_atom_site_fract_y
_atom_site_fract_z
_atom_site_charge
Mof_U 	U 	0.45078	0.22963	0.19832	0.039
Mof_P 	P 	0.203	0.2014	0.9683	0.473
Mof_O 	O 	0.3645	0.2011	0.9493	-0.123
Mof_O 	O 	0.1961	0.2311	0.1176	-0.137
Mof_O 	O 	0.1248	0.2647	0.8648	-0.134
Mof_O 	O 	0.1476	0.1092	0.9464	-0.133
Mof_U 	U 	0.95078	0.72963	0.69832	0.043
Mof_P 	P 	0.703	0.7014	0.4683	0.472
Mof_O 	O 	0.8645	0.7011	0.4493	-0.122
Mof_O 	O 	0.6961	0.7311	0.6176	-0.134
Mof_O 	O 	0.6248	0.7647	0.3648	-0.132
Mof_O 	O 	0.6476	0.6092	0.4464	-0.132
Mof_U 	U 	0.54922	0.22963	0.80168	0.041
Mof_P 	P 	0.797	0.2014	0.0317	0.469
Mof_O 	O 	0.6355	0.2011	0.0507	-0.124
Mof_O 	O 	0.8039	0.2311	0.8824	-0.132
Mof_O 	O 	0.8752	0.2647	0.1352	-0.132
Mof_O 	O 	0.8524	0.1092	0.0536	-0.133
Mof_U 	U 	0.04922	0.72963	0.30168	0.039
Mof_P 	P 	0.297	0.7014	0.5317	0.472
Mof_O 	O 	0.1355	0.7011	0.5507	-0.125
Mof_O 	O 	0.3039	0.7311	0.3824	-0.135
Mof_O 	O 	0.3752	0.7647	0.6352	-0.132
Mof_O 	O 	0.3524	0.6092	0.5536	-0.133
Mof_U 	U 	0.54922	0.77037	0.80168	0.041
Mof_P 	P 	0.797	0.7986	0.0317	0.469
Mof_O 	O 	0.6355	0.7989	0.0507	-0.124
Mof_O 	O 	0.8039	0.7689	0.8824	-0.132
Mof_O 	O 	0.8752	0.7353	0.1352	-0.132
Mof_O 	O 	0.8524	0.8908	0.0536	-0.131
Mof_U 	U 	0.04922	0.27037	0.30168	0.039
Mof_P 	P 	0.297	0.2986	0.5317	0.472
Mof_O 	O 	0.1355	0.2989	0.5507	-0.125
Mof_O 	O 	0.3039	0.2689	0.3824	-0.135
Mof_O 	O 	0.3752	0.2353	0.6352	-0.133
Mof_O 	O 	0.3524	0.3908	0.5536	-0.133
Mof_U 	U 	0.45078	0.77037	0.19832	0.04
Mof_P 	P 	0.203	0.7986	0.9683	0.473
Mof_O 	O 	0.3645	0.7989	0.9493	-0.122
Mof_O 	O 	0.1961	0.7689	0.1176	-0.136
Mof_O 	O 	0.1248	0.7353	0.8648	-0.134
Mof_O 	O 	0.1476	0.8908	0.9464	-0.131
Mof_U 	U 	0.95078	0.27037	0.69832	0.042
Mof_P 	P 	0.703	0.2986	0.4683	0.472
Mof_O 	O 	0.8645	0.2989	0.4493	-0.123
Mof_O 	O 	0.6961	0.2689	0.6176	-0.135
Mof_O 	O 	0.6248	0.2353	0.3648	-0.133
Mof_O 	O 	0.6476	0.3908	0.4464	-0.132
Mof_U 	U 	-0	0	-0	0.042
Mof_U 	U 	0.5	0.5	0.5	0.046
_end
