# CIF file generated by openbabel 3.1.0, see https://openbabel.org
data_I
_chemical_name_common 'image0'
_cell_length_a 9.93
_cell_length_b 9.3445
_cell_length_c 22.717
_cell_angle_alpha 90
_cell_angle_beta 106.94
_cell_angle_gamma 90
_space_group_name_H-M_alt 'P 1'
_space_group_name_Hall 'P 1'
loop_
    _symmetry_equiv_pos_as_xyz
    x,y,z
loop_
    _atom_site_label
    _atom_site_type_symbol
    _atom_site_fract_x
    _atom_site_fract_y
    _atom_site_fract_z
    _atom_site_occupancy
    Cu1      Cu       0.19384    0.12252    0.84733    1.000
    N1       N        0.35190    0.25310    0.88620    1.000
    N2       N        0.11240    0.41280    0.25790    1.000
    N3       N        0.08570    0.01150    0.89500    1.000
    N4       N        0.78230    0.47370    0.03880    1.000
    C1       C        0.38790    0.37030    0.86040    1.000
    H1       H        0.33060    0.39660    0.82180    1.000
    C2       C        0.50310    0.45500    0.88670    1.000
    H2       H        0.52450    0.53190    0.86510    1.000
    C3       C        0.58920    0.42380    0.94730    1.000
    C4       C        0.54730    0.30410    0.97370    1.000
    H3       H        0.59840    0.27810    0.01350    1.000
    C5       C        0.43230    0.22240    0.94300    1.000
    H4       H        0.41000    0.14250    0.96270    1.000
    C6       C        0.71690    0.51000    0.97780    1.000
    C7       C        0.76880    0.61860    0.95070    1.000
    H5       H        0.72270    0.64480    0.91040    1.000
    C8       C        0.89150    0.69090    0.98350    1.000
    C9       C        0.95490    0.65210    0.04280    1.000
    H6       H        0.03550    0.70030    0.06520    1.000
    C10      C        0.90370    0.54550    0.06990    1.000
    C11      C        0.95230    0.80460    0.95360    1.000
    C12      C        0.88120    0.86830    0.89770    1.000
    H7       H        0.78830    0.84340    0.87800    1.000
    C13      C        0.94870    0.96860    0.87130    1.000
    H8       H        0.89660    0.01020    0.83460    1.000
    C14      C        0.09040    0.85120    0.97900    1.000
    H9       H        0.14330    0.81370    0.01650    1.000
    C15      C        0.97590    0.49960    0.13510    1.000
    C16      C        0.91780    0.39850    0.16420    1.000
    H10      H        0.83110    0.35790    0.14410    1.000
    C17      C        0.98900    0.35710    0.22380    1.000
    H11      H        0.94860    0.28550    0.24150    1.000
    C18      C        0.16340    0.51260    0.22800    1.000
    H12      H        0.24830    0.55480    0.24950    1.000
    C19      C        0.10290    0.55930    0.16860    1.000
    H13      H        0.14640    0.62930    0.15140    1.000
    C20      C        0.15120    0.95200    0.94980    1.000
    H14      H        0.24310    0.98040    0.96940    1.000
    Cu2      Cu       0.19384    0.37748    0.34733    1.000
    N5       N        0.35190    0.24690    0.38620    1.000
    N6       N        0.11240    0.08720    0.75790    1.000
    N7       N        0.08570    0.48850    0.39500    1.000
    N8       N        0.78230    0.02630    0.53880    1.000
    C21      C        0.38790    0.12970    0.36040    1.000
    H15      H        0.33060    0.10340    0.32180    1.000
    C22      C        0.50310    0.04500    0.38670    1.000
    H16      H        0.52450    0.96810    0.36510    1.000
    C23      C        0.58920    0.07620    0.44730    1.000
    C24      C        0.54730    0.19590    0.47370    1.000
    H17      H        0.59840    0.22190    0.51350    1.000
    C25      C        0.43230    0.27760    0.44300    1.000
    H18      H        0.41000    0.35750    0.46270    1.000
    C26      C        0.71690    0.99000    0.47780    1.000
    C27      C        0.76880    0.88140    0.45070    1.000
    H19      H        0.72270    0.85520    0.41040    1.000
    C28      C        0.89150    0.80910    0.48350    1.000
    C29      C        0.95490    0.84790    0.54280    1.000
    H20      H        0.03550    0.79970    0.56520    1.000
    C30      C        0.90370    0.95450    0.56990    1.000
    C31      C        0.95230    0.69540    0.45360    1.000
    C32      C        0.88120    0.63170    0.39770    1.000
    H21      H        0.78830    0.65660    0.37800    1.000
    C33      C        0.94870    0.53140    0.37130    1.000
    H22      H        0.89660    0.48980    0.33460    1.000
    C34      C        0.09040    0.64880    0.47900    1.000
    H23      H        0.14330    0.68630    0.51650    1.000
    C35      C        0.97590    0.00040    0.63510    1.000
    C36      C        0.91780    0.10150    0.66420    1.000
    H24      H        0.83110    0.14210    0.64410    1.000
    C37      C        0.98900    0.14290    0.72380    1.000
    H25      H        0.94860    0.21450    0.74150    1.000
    C38      C        0.16340    0.98740    0.72800    1.000
    H26      H        0.24830    0.94520    0.74950    1.000
    C39      C        0.10290    0.94070    0.66860    1.000
    H27      H        0.14640    0.87070    0.65140    1.000
    C40      C        0.15120    0.54800    0.44980    1.000
    H28      H        0.24310    0.51960    0.46940    1.000
    Cu3      Cu       0.80616    0.62252    0.65267    1.000
    N9       N        0.64810    0.75310    0.61380    1.000
    N10      N        0.88760    0.91280    0.24210    1.000
    N11      N        0.91430    0.51150    0.60500    1.000
    N12      N        0.21770    0.97370    0.46120    1.000
    C41      C        0.61210    0.87030    0.63960    1.000
    H29      H        0.66940    0.89660    0.67820    1.000
    C42      C        0.49690    0.95500    0.61330    1.000
    H30      H        0.47550    0.03190    0.63490    1.000
    C43      C        0.41080    0.92380    0.55270    1.000
    C44      C        0.45270    0.80410    0.52630    1.000
    H31      H        0.40160    0.77810    0.48650    1.000
    C45      C        0.56770    0.72240    0.55700    1.000
    H32      H        0.59000    0.64250    0.53730    1.000
    C46      C        0.28310    0.01000    0.52220    1.000
    C47      C        0.23120    0.11860    0.54930    1.000
    H33      H        0.27730    0.14480    0.58960    1.000
    C48      C        0.10850    0.19090    0.51650    1.000
    C49      C        0.04510    0.15210    0.45720    1.000
    H34      H        0.96450    0.20030    0.43480    1.000
    C50      C        0.09630    0.04550    0.43010    1.000
    C51      C        0.04770    0.30460    0.54640    1.000
    C52      C        0.11880    0.36830    0.60230    1.000
    H35      H        0.21170    0.34340    0.62200    1.000
    C53      C        0.05130    0.46860    0.62870    1.000
    H36      H        0.10340    0.51020    0.66540    1.000
    C54      C        0.90960    0.35120    0.52100    1.000
    H37      H        0.85670    0.31370    0.48350    1.000
    C55      C        0.02410    0.99960    0.36490    1.000
    C56      C        0.08220    0.89850    0.33580    1.000
    H38      H        0.16890    0.85790    0.35590    1.000
    C57      C        0.01100    0.85710    0.27620    1.000
    H39      H        0.05140    0.78550    0.25850    1.000
    C58      C        0.83660    0.01260    0.27200    1.000
    H40      H        0.75170    0.05480    0.25050    1.000
    C59      C        0.89710    0.05930    0.33140    1.000
    H41      H        0.85360    0.12930    0.34860    1.000
    C60      C        0.84880    0.45200    0.55020    1.000
    H42      H        0.75690    0.48040    0.53060    1.000
    Cu4      Cu       0.80616    0.87748    0.15267    1.000
    N13      N        0.64810    0.74690    0.11380    1.000
    N14      N        0.88760    0.58720    0.74210    1.000
    N15      N        0.91430    0.98850    0.10500    1.000
    N16      N        0.21770    0.52630    0.96120    1.000
    C61      C        0.61210    0.62970    0.13960    1.000
    H43      H        0.66940    0.60340    0.17820    1.000
    C62      C        0.49690    0.54500    0.11330    1.000
    H44      H        0.47550    0.46810    0.13490    1.000
    C63      C        0.41080    0.57620    0.05270    1.000
    C64      C        0.45270    0.69590    0.02630    1.000
    H45      H        0.40160    0.72190    0.98650    1.000
    C65      C        0.56770    0.77760    0.05700    1.000
    H46      H        0.59000    0.85750    0.03730    1.000
    C66      C        0.28310    0.49000    0.02220    1.000
    C67      C        0.23120    0.38140    0.04930    1.000
    H47      H        0.27730    0.35520    0.08960    1.000
    C68      C        0.10850    0.30910    0.01650    1.000
    C69      C        0.04510    0.34790    0.95720    1.000
    H48      H        0.96450    0.29970    0.93480    1.000
    C70      C        0.09630    0.45450    0.93010    1.000
    C71      C        0.04770    0.19540    0.04640    1.000
    C72      C        0.11880    0.13170    0.10230    1.000
    H49      H        0.21170    0.15660    0.12200    1.000
    C73      C        0.05130    0.03140    0.12870    1.000
    H50      H        0.10340    0.98980    0.16540    1.000
    C74      C        0.90960    0.14880    0.02100    1.000
    H51      H        0.85670    0.18630    0.98350    1.000
    C75      C        0.02410    0.50040    0.86490    1.000
    C76      C        0.08220    0.60150    0.83580    1.000
    H52      H        0.16890    0.64210    0.85590    1.000
    C77      C        0.01100    0.64290    0.77620    1.000
    H53      H        0.05140    0.71450    0.75850    1.000
    C78      C        0.83660    0.48740    0.77200    1.000
    H54      H        0.75170    0.44520    0.75050    1.000
    C79      C        0.89710    0.44070    0.83140    1.000
    H55      H        0.85360    0.37070    0.84860    1.000
    C80      C        0.84880    0.04800    0.05020    1.000
    H56      H        0.75690    0.01960    0.03060    1.000
