data_functionalizedCrystal
_audit_creation_method	'EQeq! by Chris Wilmer'
_symmetry_space_group_name_H-M	'P1'
_symmetry_Int_Tables_number	1
_symmetry_cell_setting	triclinic
loop_
_symmetry_equiv_pos_as_xyz
  x,y,z
_cell_length_a	9.9411
_cell_length_b	9.9411
_cell_length_c	11.21
_cell_angle_alpha	63.6786
_cell_angle_beta	63.6786
_cell_angle_gamma	89.9999
loop_
_atom_site_label
_atom_site_type_symbol
_atom_site_fract_x
_atom_site_fract_y
_atom_site_fract_z
_atom_site_charge
Mof_Cd	Cd	0.86416	0.61416	0.77168	0.411
Mof_Cd	Cd	0.61416	0.86416	0.27168	0.41
Mof_Cd	Cd	0.13584	0.38584	0.22832	0.411
Mof_Cd	Cd	0.38584	0.13584	0.72832	0.41
Mof_C 	C 	0.613	0.5586	0.5582	0.196
Mof_C 	C 	0.3288	0.8832	0.5582	0.196
Mof_C 	C 	0.5586	0.3288	0.0582	0.197
Mof_C 	C 	0.8832	0.613	0.0582	0.196
Mof_C 	C 	0.387	0.4414	0.4418	0.196
Mof_C 	C 	0.6712	0.1168	0.4418	0.196
Mof_C 	C 	0.4414	0.6712	0.9418	0.197
Mof_C 	C 	0.1168	0.387	0.9418	0.196
Mof_N 	N 	0.75368	0.75252	0.51484	-0.038
Mof_N 	N 	0.74791	0.62566	0.6306	-0.065
Mof_N 	N 	0.66005	0.50206	0.66034	-0.092
Mof_N 	N 	0.66775	0.71116	0.4677	-0.114
Mof_N 	N 	0.51751	0.4627	0.55132	-0.093
Mof_N 	N 	0.23148	0.73264	0.51484	-0.038
Mof_N 	N 	0.12149	0.74374	0.6306	-0.065
Mof_N 	N 	0.17961	0.8376	0.66034	-0.091
Mof_N 	N 	0.36455	0.82114	0.4677	-0.114
Mof_N 	N 	0.43117	0.98598	0.55132	-0.093
Mof_N 	N 	0.75252	0.23148	0.01484	-0.037
Mof_N 	N 	0.62566	0.12149	0.1306	-0.065
Mof_N 	N 	0.50206	0.17961	0.16034	-0.092
Mof_N 	N 	0.71116	0.36455	0.9677	-0.114
Mof_N 	N 	0.4627	0.43117	0.05132	-0.093
Mof_N 	N 	0.73264	0.75368	0.01484	-0.038
Mof_N 	N 	0.74374	0.74791	0.1306	-0.065
Mof_N 	N 	0.8376	0.66005	0.16034	-0.092
Mof_N 	N 	0.82114	0.66775	0.9677	-0.114
Mof_N 	N 	0.98598	0.51751	0.05132	-0.093
Mof_N 	N 	0.24632	0.24748	0.48516	-0.038
Mof_N 	N 	0.25209	0.37434	0.3694	-0.065
Mof_N 	N 	0.33995	0.49794	0.33966	-0.092
Mof_N 	N 	0.33225	0.28884	0.5323	-0.114
Mof_N 	N 	0.48249	0.5373	0.44868	-0.093
Mof_N 	N 	0.76852	0.26736	0.48516	-0.038
Mof_N 	N 	0.87851	0.25626	0.3694	-0.065
Mof_N 	N 	0.82039	0.1624	0.33966	-0.091
Mof_N 	N 	0.63545	0.17886	0.5323	-0.114
Mof_N 	N 	0.56883	0.01402	0.44868	-0.093
Mof_N 	N 	0.24748	0.76852	0.98516	-0.037
Mof_N 	N 	0.37434	0.87851	0.8694	-0.065
Mof_N 	N 	0.49794	0.82039	0.83966	-0.092
Mof_N 	N 	0.28884	0.63545	0.0323	-0.114
Mof_N 	N 	0.5373	0.56883	0.94868	-0.093
Mof_N 	N 	0.26736	0.24632	0.98516	-0.038
Mof_N 	N 	0.25626	0.25209	0.8694	-0.065
Mof_N 	N 	0.1624	0.33995	0.83966	-0.092
Mof_N 	N 	0.17886	0.33225	0.0323	-0.114
Mof_N 	N 	0.01402	0.48249	0.94868	-0.093
_end
