# CIF file generated by openbabel 3.1.0, see https://openbabel.org
data_I
_chemical_name_common 'image0'
_cell_length_a 15.5659
_cell_length_b 29.759
_cell_length_c 22.7134
_cell_angle_alpha 90
_cell_angle_beta 97.155
_cell_angle_gamma 90
_space_group_name_H-M_alt 'P 1'
_space_group_name_Hall 'P 1'
loop_
    _symmetry_equiv_pos_as_xyz
    x,y,z
loop_
    _atom_site_label
    _atom_site_type_symbol
    _atom_site_fract_x
    _atom_site_fract_y
    _atom_site_fract_z
    _atom_site_occupancy
    Tb1      Tb       0.55681    0.17071    0.38488    1.000
    Tb2      Tb       0.81151    0.05686    0.59681    1.000
    N1       N        0.58750    0.23172    0.46170    1.000
    N2       N        0.68760    0.22306    0.37710    1.000
    N3       N        0.66870    0.14545    0.32009    1.000
    N4       N        0.93570    0.40465    0.29112    1.000
    N5       N        0.93560    0.08985    0.55183    1.000
    N6       N        0.83770    0.02635    0.49592    1.000
    N7       N        0.70170    0.00241    0.54986    1.000
    N8       N        0.87430    0.95464    0.20488    1.000
    O1       O        0.48260    0.16368    0.46860    1.000
    O2       O        0.41860    0.19560    0.53870    1.000
    O3       O        0.54490    0.09457    0.35429    1.000
    O4       O        0.57630    0.03817    0.29550    1.000
    O5       O        0.80770    0.38518    0.15410    1.000
    O6       O        0.88840    0.44397    0.18698    1.000
    O7       O        0.86030    0.12605    0.63638    1.000
    O8       O        0.96640    0.17570    0.65945    1.000
    O9       O        0.69950    0.04180    0.65319    1.000
    O10      O        0.58160    0.00424    0.67140    1.000
    O11      O        0.92810    0.06609    0.17807    1.000
    O12      O        0.88270    0.01031    0.11664    1.000
    O13      O        0.66240    0.13871    0.45555    1.000
    O14      O        0.72430    0.10291    0.53351    1.000
    O15      O        0.51420    0.18350    0.28140    1.000
    C1       C        0.47290    0.19440    0.50420    1.000
    C2       C        0.53610    0.23360    0.50500    1.000
    C3       C        0.54040    0.26770    0.54670    1.000
    H1       H        0.50370    0.26780    0.57600    1.000
    C4       C        0.59980    0.30130    0.54400    1.000
    H2       H        0.60380    0.32470    0.57130    1.000
    C5       C        0.65430    0.29996    0.49980    1.000
    H3       H        0.69590    0.32210    0.49770    1.000
    C6       C        0.64550    0.26504    0.45910    1.000
    C7       C        0.69870    0.26095    0.40950    1.000
    C8       C        0.75530    0.29470    0.39670    1.000
    H4       H        0.76480    0.31960    0.42140    1.000
    C9       C        0.79740    0.29076    0.34680    1.000
    C10      C        0.78860    0.25140    0.31470    1.000
    H5       H        0.81750    0.24750    0.28170    1.000
    C11      C        0.73610    0.21757    0.33240    1.000
    C12      C        0.72880    0.17294    0.30270    1.000
    C13      C        0.78180    0.15950    0.26170    1.000
    H6       H        0.82430    0.17870    0.25080    1.000
    C14      C        0.77100    0.11750    0.23730    1.000
    H7       H        0.80580    0.10820    0.20920    1.000
    C15      C        0.70900    0.08899    0.25440    1.000
    H8       H        0.70110    0.06030    0.23830    1.000
    C16      C        0.65900    0.10433    0.29590    1.000
    C17      C        0.58720    0.07643    0.31710    1.000
    C18      C        0.95200    0.38788    0.34630    1.000
    H9       H        0.99460    0.40170    0.37250    1.000
    C19      C        0.90990    0.35181    0.36630    1.000
    H10      H        0.92270    0.34190    0.40520    1.000
    C20      C        0.84750    0.33008    0.32720    1.000
    C21      C        0.83070    0.34653    0.26980    1.000
    H11      H        0.79020    0.33250    0.24220    1.000
    C22      C        0.87490    0.38407    0.25410    1.000
    C23      C        0.85450    0.40543    0.19330    1.000
    C24      C        0.93350    0.14337    0.63040    1.000
    C25      C        0.97980    0.12273    0.58260    1.000
    C26      C        0.05910    0.13800    0.56820    1.000
    H12      H        0.08880    0.16090    0.58980    1.000
    C27      C        0.09240    0.11810    0.52100    1.000
    H13      H        0.14640    0.12680    0.51140    1.000
    C28      C        0.04530    0.08520    0.48800    1.000
    H14      H        0.06650    0.07190    0.45570    1.000
    C29      C        0.96620    0.07253    0.50430    1.000
    C30      C        0.90590    0.04036    0.47020    1.000
    C31      C        0.91850    0.02767    0.41270    1.000
    H15      H        0.96560    0.03840    0.39550    1.000
    C32      C        0.85940    0.99873    0.38180    1.000
    C33      C        0.79000    0.98370    0.40870    1.000
    H16      H        0.75000    0.96400    0.38890    1.000
    C34      C        0.78020    0.99826    0.46600    1.000
    C35      C        0.70580    0.98385    0.49640    1.000
    C36      C        0.64430    0.95320    0.47210    1.000
    H17      H        0.64680    0.94110    0.43460    1.000
    C37      C        0.57900    0.94110    0.50530    1.000
    H18      H        0.53740    0.92020    0.49040    1.000
    C38      C        0.57550    0.95980    0.56020    1.000
    H19      H        0.53240    0.95170    0.58300    1.000
    C39      C        0.63670    0.99057    0.58040    1.000
    C40      C        0.63950    0.01409    0.64030    1.000
    C41      C        0.86040    0.92497    0.24760    1.000
    H20      H        0.85320    0.89470    0.23790    1.000
    C42      C        0.85670    0.93852    0.30560    1.000
    H21      H        0.84550    0.91770    0.33410    1.000
    C43      C        0.86990    0.98320    0.32070    1.000
    C44      C        0.88870    0.01335    0.27680    1.000
    H22      H        0.90090    0.04330    0.28580    1.000
    C45      C        0.88880    0.99746    0.21980    1.000
    C46      C        0.90140    0.02812    0.16840    1.000
    C47      C        0.67350    0.10662    0.48800    1.000
    H23      H        0.63940    0.08160    0.47720    1.000
    O16      O        0.47220    0.21420    0.19720    1.000
    Tb3      Tb       0.05681    0.67071    0.38488    1.000
    Tb4      Tb       0.31151    0.55686    0.59681    1.000
    N9       N        0.08750    0.73172    0.46170    1.000
    N10      N        0.18760    0.72306    0.37710    1.000
    N11      N        0.16870    0.64545    0.32009    1.000
    N12      N        0.43570    0.90465    0.29112    1.000
    N13      N        0.43560    0.58985    0.55183    1.000
    N14      N        0.33770    0.52635    0.49592    1.000
    N15      N        0.20170    0.50241    0.54986    1.000
    N16      N        0.37430    0.45464    0.20488    1.000
    O17      O        0.98260    0.66368    0.46860    1.000
    O18      O        0.91860    0.69560    0.53870    1.000
    O19      O        0.04490    0.59457    0.35429    1.000
    O20      O        0.07630    0.53817    0.29550    1.000
    O21      O        0.30770    0.88518    0.15410    1.000
    O22      O        0.38840    0.94397    0.18698    1.000
    O23      O        0.36030    0.62605    0.63638    1.000
    O24      O        0.46640    0.67570    0.65945    1.000
    O25      O        0.19950    0.54180    0.65319    1.000
    O26      O        0.08160    0.50424    0.67140    1.000
    O27      O        0.42810    0.56609    0.17807    1.000
    O28      O        0.38270    0.51031    0.11664    1.000
    O29      O        0.16240    0.63871    0.45555    1.000
    O30      O        0.22430    0.60291    0.53351    1.000
    O31      O        0.01420    0.68350    0.28140    1.000
    C48      C        0.97290    0.69440    0.50420    1.000
    C49      C        0.03610    0.73360    0.50500    1.000
    C50      C        0.04040    0.76770    0.54670    1.000
    H24      H        0.00370    0.76780    0.57600    1.000
    C51      C        0.09980    0.80130    0.54400    1.000
    H25      H        0.10380    0.82470    0.57130    1.000
    C52      C        0.15430    0.79996    0.49980    1.000
    H26      H        0.19590    0.82210    0.49770    1.000
    C53      C        0.14550    0.76504    0.45910    1.000
    C54      C        0.19870    0.76095    0.40950    1.000
    C55      C        0.25530    0.79470    0.39670    1.000
    H27      H        0.26480    0.81960    0.42140    1.000
    C56      C        0.29740    0.79076    0.34680    1.000
    C57      C        0.28860    0.75140    0.31470    1.000
    H28      H        0.31750    0.74750    0.28170    1.000
    C58      C        0.23610    0.71757    0.33240    1.000
    C59      C        0.22880    0.67294    0.30270    1.000
    C60      C        0.28180    0.65950    0.26170    1.000
    H29      H        0.32430    0.67870    0.25080    1.000
    C61      C        0.27100    0.61750    0.23730    1.000
    H30      H        0.30580    0.60820    0.20920    1.000
    C62      C        0.20900    0.58899    0.25440    1.000
    H31      H        0.20110    0.56030    0.23830    1.000
    C63      C        0.15900    0.60433    0.29590    1.000
    C64      C        0.08720    0.57643    0.31710    1.000
    C65      C        0.45200    0.88788    0.34630    1.000
    H32      H        0.49460    0.90170    0.37250    1.000
    C66      C        0.40990    0.85181    0.36630    1.000
    H33      H        0.42270    0.84190    0.40520    1.000
    C67      C        0.34750    0.83008    0.32720    1.000
    C68      C        0.33070    0.84653    0.26980    1.000
    H34      H        0.29020    0.83250    0.24220    1.000
    C69      C        0.37490    0.88407    0.25410    1.000
    C70      C        0.35450    0.90543    0.19330    1.000
    C71      C        0.43350    0.64337    0.63040    1.000
    C72      C        0.47980    0.62273    0.58260    1.000
    C73      C        0.55910    0.63800    0.56820    1.000
    H35      H        0.58880    0.66090    0.58980    1.000
    C74      C        0.59240    0.61810    0.52100    1.000
    H36      H        0.64640    0.62680    0.51140    1.000
    C75      C        0.54530    0.58520    0.48800    1.000
    H37      H        0.56650    0.57190    0.45570    1.000
    C76      C        0.46620    0.57253    0.50430    1.000
    C77      C        0.40590    0.54036    0.47020    1.000
    C78      C        0.41850    0.52767    0.41270    1.000
    H38      H        0.46560    0.53840    0.39550    1.000
    C79      C        0.35940    0.49873    0.38180    1.000
    C80      C        0.29000    0.48370    0.40870    1.000
    H39      H        0.25000    0.46400    0.38890    1.000
    C81      C        0.28020    0.49826    0.46600    1.000
    C82      C        0.20580    0.48385    0.49640    1.000
    C83      C        0.14430    0.45320    0.47210    1.000
    H40      H        0.14680    0.44110    0.43460    1.000
    C84      C        0.07900    0.44110    0.50530    1.000
    H41      H        0.03740    0.42020    0.49040    1.000
    C85      C        0.07550    0.45980    0.56020    1.000
    H42      H        0.03240    0.45170    0.58300    1.000
    C86      C        0.13670    0.49057    0.58040    1.000
    C87      C        0.13950    0.51409    0.64030    1.000
    C88      C        0.36040    0.42497    0.24760    1.000
    H43      H        0.35320    0.39470    0.23790    1.000
    C89      C        0.35670    0.43852    0.30560    1.000
    H44      H        0.34550    0.41770    0.33410    1.000
    C90      C        0.36990    0.48320    0.32070    1.000
    C91      C        0.38870    0.51335    0.27680    1.000
    H45      H        0.40090    0.54330    0.28580    1.000
    C92      C        0.38880    0.49746    0.21980    1.000
    C93      C        0.40140    0.52812    0.16840    1.000
    C94      C        0.17350    0.60662    0.48800    1.000
    H46      H        0.13940    0.58160    0.47720    1.000
    O32      O        0.97220    0.71420    0.19720    1.000
    Tb5      Tb       0.44319    0.17071    0.11512    1.000
    Tb6      Tb       0.18849    0.05686    0.90319    1.000
    N17      N        0.41250    0.23172    0.03830    1.000
    N18      N        0.31240    0.22306    0.12290    1.000
    N19      N        0.33130    0.14545    0.17991    1.000
    N20      N        0.06430    0.40465    0.20888    1.000
    N21      N        0.06440    0.08985    0.94817    1.000
    N22      N        0.16230    0.02635    0.00408    1.000
    N23      N        0.29830    0.00241    0.95014    1.000
    N24      N        0.12570    0.95464    0.29512    1.000
    O33      O        0.51740    0.16368    0.03140    1.000
    O34      O        0.58140    0.19560    0.96130    1.000
    O35      O        0.45510    0.09457    0.14571    1.000
    O36      O        0.42370    0.03817    0.20450    1.000
    O37      O        0.19230    0.38518    0.34590    1.000
    O38      O        0.11160    0.44397    0.31302    1.000
    O39      O        0.13970    0.12605    0.86362    1.000
    O40      O        0.03360    0.17570    0.84055    1.000
    O41      O        0.30050    0.04180    0.84681    1.000
    O42      O        0.41840    0.00424    0.82860    1.000
    O43      O        0.07190    0.06609    0.32193    1.000
    O44      O        0.11730    0.01031    0.38336    1.000
    O45      O        0.33760    0.13871    0.04445    1.000
    O46      O        0.27570    0.10291    0.96649    1.000
    O47      O        0.48580    0.18350    0.21860    1.000
    C95      C        0.52710    0.19440    0.99580    1.000
    C96      C        0.46390    0.23360    0.99500    1.000
    C97      C        0.45960    0.26770    0.95330    1.000
    H47      H        0.49630    0.26780    0.92400    1.000
    C98      C        0.40020    0.30130    0.95600    1.000
    H48      H        0.39620    0.32470    0.92870    1.000
    C99      C        0.34570    0.29996    0.00020    1.000
    H49      H        0.30410    0.32210    0.00230    1.000
    C100     C        0.35450    0.26504    0.04090    1.000
    C101     C        0.30130    0.26095    0.09050    1.000
    C102     C        0.24470    0.29470    0.10330    1.000
    H50      H        0.23520    0.31960    0.07860    1.000
    C103     C        0.20260    0.29076    0.15320    1.000
    C104     C        0.21140    0.25140    0.18530    1.000
    H51      H        0.18250    0.24750    0.21830    1.000
    C105     C        0.26390    0.21757    0.16760    1.000
    C106     C        0.27120    0.17294    0.19730    1.000
    C107     C        0.21820    0.15950    0.23830    1.000
    H52      H        0.17570    0.17870    0.24920    1.000
    C108     C        0.22900    0.11750    0.26270    1.000
    H53      H        0.19420    0.10820    0.29080    1.000
    C109     C        0.29100    0.08899    0.24560    1.000
    H54      H        0.29890    0.06030    0.26170    1.000
    C110     C        0.34100    0.10433    0.20410    1.000
    C111     C        0.41280    0.07643    0.18290    1.000
    C112     C        0.04800    0.38788    0.15370    1.000
    H55      H        0.00540    0.40170    0.12750    1.000
    C113     C        0.09010    0.35181    0.13370    1.000
    H56      H        0.07730    0.34190    0.09480    1.000
    C114     C        0.15250    0.33008    0.17280    1.000
    C115     C        0.16930    0.34653    0.23020    1.000
    H57      H        0.20980    0.33250    0.25780    1.000
    C116     C        0.12510    0.38407    0.24590    1.000
    C117     C        0.14550    0.40543    0.30670    1.000
    C118     C        0.06650    0.14337    0.86960    1.000
    C119     C        0.02020    0.12273    0.91740    1.000
    C120     C        0.94090    0.13800    0.93180    1.000
    H58      H        0.91120    0.16090    0.91020    1.000
    C121     C        0.90760    0.11810    0.97900    1.000
    H59      H        0.85360    0.12680    0.98860    1.000
    C122     C        0.95470    0.08520    0.01200    1.000
    H60      H        0.93350    0.07190    0.04430    1.000
    C123     C        0.03380    0.07253    0.99570    1.000
    C124     C        0.09410    0.04036    0.02980    1.000
    C125     C        0.08150    0.02767    0.08730    1.000
    H61      H        0.03440    0.03840    0.10450    1.000
    C126     C        0.14060    0.99873    0.11820    1.000
    C127     C        0.21000    0.98370    0.09130    1.000
    H62      H        0.25000    0.96400    0.11110    1.000
    C128     C        0.21980    0.99826    0.03400    1.000
    C129     C        0.29420    0.98385    0.00360    1.000
    C130     C        0.35570    0.95320    0.02790    1.000
    H63      H        0.35320    0.94110    0.06540    1.000
    C131     C        0.42100    0.94110    0.99470    1.000
    H64      H        0.46260    0.92020    0.00960    1.000
    C132     C        0.42450    0.95980    0.93980    1.000
    H65      H        0.46760    0.95170    0.91700    1.000
    C133     C        0.36330    0.99057    0.91960    1.000
    C134     C        0.36050    0.01409    0.85970    1.000
    C135     C        0.13960    0.92497    0.25240    1.000
    H66      H        0.14680    0.89470    0.26210    1.000
    C136     C        0.14330    0.93852    0.19440    1.000
    H67      H        0.15450    0.91770    0.16590    1.000
    C137     C        0.13010    0.98320    0.17930    1.000
    C138     C        0.11130    0.01335    0.22320    1.000
    H68      H        0.09910    0.04330    0.21420    1.000
    C139     C        0.11120    0.99746    0.28020    1.000
    C140     C        0.09860    0.02812    0.33160    1.000
    C141     C        0.32650    0.10662    0.01200    1.000
    H69      H        0.36060    0.08160    0.02280    1.000
    O48      O        0.52780    0.21420    0.30280    1.000
    Tb7      Tb       0.94319    0.67071    0.11512    1.000
    Tb8      Tb       0.68849    0.55686    0.90319    1.000
    N25      N        0.91250    0.73172    0.03830    1.000
    N26      N        0.81240    0.72306    0.12290    1.000
    N27      N        0.83130    0.64545    0.17991    1.000
    N28      N        0.56430    0.90465    0.20888    1.000
    N29      N        0.56440    0.58985    0.94817    1.000
    N30      N        0.66230    0.52635    0.00408    1.000
    N31      N        0.79830    0.50241    0.95014    1.000
    N32      N        0.62570    0.45464    0.29512    1.000
    O49      O        0.01740    0.66368    0.03140    1.000
    O50      O        0.08140    0.69560    0.96130    1.000
    O51      O        0.95510    0.59457    0.14571    1.000
    O52      O        0.92370    0.53817    0.20450    1.000
    O53      O        0.69230    0.88518    0.34590    1.000
    O54      O        0.61160    0.94397    0.31302    1.000
    O55      O        0.63970    0.62605    0.86362    1.000
    O56      O        0.53360    0.67570    0.84055    1.000
    O57      O        0.80050    0.54180    0.84681    1.000
    O58      O        0.91840    0.50424    0.82860    1.000
    O59      O        0.57190    0.56609    0.32193    1.000
    O60      O        0.61730    0.51031    0.38336    1.000
    O61      O        0.83760    0.63871    0.04445    1.000
    O62      O        0.77570    0.60291    0.96649    1.000
    O63      O        0.98580    0.68350    0.21860    1.000
    C142     C        0.02710    0.69440    0.99580    1.000
    C143     C        0.96390    0.73360    0.99500    1.000
    C144     C        0.95960    0.76770    0.95330    1.000
    H70      H        0.99630    0.76780    0.92400    1.000
    C145     C        0.90020    0.80130    0.95600    1.000
    H71      H        0.89620    0.82470    0.92870    1.000
    C146     C        0.84570    0.79996    0.00020    1.000
    H72      H        0.80410    0.82210    0.00230    1.000
    C147     C        0.85450    0.76504    0.04090    1.000
    C148     C        0.80130    0.76095    0.09050    1.000
    C149     C        0.74470    0.79470    0.10330    1.000
    H73      H        0.73520    0.81960    0.07860    1.000
    C150     C        0.70260    0.79076    0.15320    1.000
    C151     C        0.71140    0.75140    0.18530    1.000
    H74      H        0.68250    0.74750    0.21830    1.000
    C152     C        0.76390    0.71757    0.16760    1.000
    C153     C        0.77120    0.67294    0.19730    1.000
    C154     C        0.71820    0.65950    0.23830    1.000
    H75      H        0.67570    0.67870    0.24920    1.000
    C155     C        0.72900    0.61750    0.26270    1.000
    H76      H        0.69420    0.60820    0.29080    1.000
    C156     C        0.79100    0.58899    0.24560    1.000
    H77      H        0.79890    0.56030    0.26170    1.000
    C157     C        0.84100    0.60433    0.20410    1.000
    C158     C        0.91280    0.57643    0.18290    1.000
    C159     C        0.54800    0.88788    0.15370    1.000
    H78      H        0.50540    0.90170    0.12750    1.000
    C160     C        0.59010    0.85181    0.13370    1.000
    H79      H        0.57730    0.84190    0.09480    1.000
    C161     C        0.65250    0.83008    0.17280    1.000
    C162     C        0.66930    0.84653    0.23020    1.000
    H80      H        0.70980    0.83250    0.25780    1.000
    C163     C        0.62510    0.88407    0.24590    1.000
    C164     C        0.64550    0.90543    0.30670    1.000
    C165     C        0.56650    0.64337    0.86960    1.000
    C166     C        0.52020    0.62273    0.91740    1.000
    C167     C        0.44090    0.63800    0.93180    1.000
    H81      H        0.41120    0.66090    0.91020    1.000
    C168     C        0.40760    0.61810    0.97900    1.000
    H82      H        0.35360    0.62680    0.98860    1.000
    C169     C        0.45470    0.58520    0.01200    1.000
    H83      H        0.43350    0.57190    0.04430    1.000
    C170     C        0.53380    0.57253    0.99570    1.000
    C171     C        0.59410    0.54036    0.02980    1.000
    C172     C        0.58150    0.52767    0.08730    1.000
    H84      H        0.53440    0.53840    0.10450    1.000
    C173     C        0.64060    0.49873    0.11820    1.000
    C174     C        0.71000    0.48370    0.09130    1.000
    H85      H        0.75000    0.46400    0.11110    1.000
    C175     C        0.71980    0.49826    0.03400    1.000
    C176     C        0.79420    0.48385    0.00360    1.000
    C177     C        0.85570    0.45320    0.02790    1.000
    H86      H        0.85320    0.44110    0.06540    1.000
    C178     C        0.92100    0.44110    0.99470    1.000
    H87      H        0.96260    0.42020    0.00960    1.000
    C179     C        0.92450    0.45980    0.93980    1.000
    H88      H        0.96760    0.45170    0.91700    1.000
    C180     C        0.86330    0.49057    0.91960    1.000
    C181     C        0.86050    0.51409    0.85970    1.000
    C182     C        0.63960    0.42497    0.25240    1.000
    H89      H        0.64680    0.39470    0.26210    1.000
    C183     C        0.64330    0.43852    0.19440    1.000
    H90      H        0.65450    0.41770    0.16590    1.000
    C184     C        0.63010    0.48320    0.17930    1.000
    C185     C        0.61130    0.51335    0.22320    1.000
    H91      H        0.59910    0.54330    0.21420    1.000
    C186     C        0.61120    0.49746    0.28020    1.000
    C187     C        0.59860    0.52812    0.33160    1.000
    C188     C        0.82650    0.60662    0.01200    1.000
    H92      H        0.86060    0.58160    0.02280    1.000
    O64      O        0.02780    0.71420    0.30280    1.000
    Tb9      Tb       0.44319    0.82930    0.61512    1.000
    Tb10     Tb       0.18849    0.94314    0.40319    1.000
    N33      N        0.41250    0.76828    0.53830    1.000
    N34      N        0.31240    0.77694    0.62290    1.000
    N35      N        0.33130    0.85455    0.67991    1.000
    N36      N        0.06430    0.59535    0.70888    1.000
    N37      N        0.06440    0.91015    0.44817    1.000
    N38      N        0.16230    0.97365    0.50408    1.000
    N39      N        0.29830    0.99759    0.45014    1.000
    N40      N        0.12570    0.04536    0.79512    1.000
    O65      O        0.51740    0.83632    0.53140    1.000
    O66      O        0.58140    0.80440    0.46130    1.000
    O67      O        0.45510    0.90543    0.64571    1.000
    O68      O        0.42370    0.96183    0.70450    1.000
    O69      O        0.19230    0.61482    0.84590    1.000
    O70      O        0.11160    0.55603    0.81302    1.000
    O71      O        0.13970    0.87395    0.36362    1.000
    O72      O        0.03360    0.82430    0.34055    1.000
    O73      O        0.30050    0.95820    0.34681    1.000
    O74      O        0.41840    0.99576    0.32860    1.000
    O75      O        0.07190    0.93391    0.82193    1.000
    O76      O        0.11730    0.98969    0.88336    1.000
    O77      O        0.33760    0.86129    0.54445    1.000
    O78      O        0.27570    0.89709    0.46649    1.000
    O79      O        0.48580    0.81650    0.71860    1.000
    C189     C        0.52710    0.80560    0.49580    1.000
    C190     C        0.46390    0.76640    0.49500    1.000
    C191     C        0.45960    0.73230    0.45330    1.000
    H93      H        0.49630    0.73220    0.42400    1.000
    C192     C        0.40020    0.69870    0.45600    1.000
    H94      H        0.39620    0.67530    0.42870    1.000
    C193     C        0.34570    0.70004    0.50020    1.000
    H95      H        0.30410    0.67790    0.50230    1.000
    C194     C        0.35450    0.73496    0.54090    1.000
    C195     C        0.30130    0.73905    0.59050    1.000
    C196     C        0.24470    0.70530    0.60330    1.000
    H96      H        0.23520    0.68040    0.57860    1.000
    C197     C        0.20260    0.70924    0.65320    1.000
    C198     C        0.21140    0.74860    0.68530    1.000
    H97      H        0.18250    0.75250    0.71830    1.000
    C199     C        0.26390    0.78243    0.66760    1.000
    C200     C        0.27120    0.82706    0.69730    1.000
    C201     C        0.21820    0.84050    0.73830    1.000
    H98      H        0.17570    0.82130    0.74920    1.000
    C202     C        0.22900    0.88250    0.76270    1.000
    H99      H        0.19420    0.89180    0.79080    1.000
    C203     C        0.29100    0.91101    0.74560    1.000
    H100     H        0.29890    0.93970    0.76170    1.000
    C204     C        0.34100    0.89567    0.70410    1.000
    C205     C        0.41280    0.92357    0.68290    1.000
    C206     C        0.04800    0.61212    0.65370    1.000
    H101     H        0.00540    0.59830    0.62750    1.000
    C207     C        0.09010    0.64819    0.63370    1.000
    H102     H        0.07730    0.65810    0.59480    1.000
    C208     C        0.15250    0.66992    0.67280    1.000
    C209     C        0.16930    0.65347    0.73020    1.000
    H103     H        0.20980    0.66750    0.75780    1.000
    C210     C        0.12510    0.61593    0.74590    1.000
    C211     C        0.14550    0.59457    0.80670    1.000
    C212     C        0.06650    0.85663    0.36960    1.000
    C213     C        0.02020    0.87727    0.41740    1.000
    C214     C        0.94090    0.86200    0.43180    1.000
    H104     H        0.91120    0.83910    0.41020    1.000
    C215     C        0.90760    0.88190    0.47900    1.000
    H105     H        0.85360    0.87320    0.48860    1.000
    C216     C        0.95470    0.91480    0.51200    1.000
    H106     H        0.93350    0.92810    0.54430    1.000
    C217     C        0.03380    0.92747    0.49570    1.000
    C218     C        0.09410    0.95964    0.52980    1.000
    C219     C        0.08150    0.97233    0.58730    1.000
    H107     H        0.03440    0.96160    0.60450    1.000
    C220     C        0.14060    0.00127    0.61820    1.000
    C221     C        0.21000    0.01630    0.59130    1.000
    H108     H        0.25000    0.03600    0.61110    1.000
    C222     C        0.21980    0.00174    0.53400    1.000
    C223     C        0.29420    0.01615    0.50360    1.000
    C224     C        0.35570    0.04680    0.52790    1.000
    H109     H        0.35320    0.05890    0.56540    1.000
    C225     C        0.42100    0.05890    0.49470    1.000
    H110     H        0.46260    0.07980    0.50960    1.000
    C226     C        0.42450    0.04020    0.43980    1.000
    H111     H        0.46760    0.04830    0.41700    1.000
    C227     C        0.36330    0.00943    0.41960    1.000
    C228     C        0.36050    0.98591    0.35970    1.000
    C229     C        0.13960    0.07503    0.75240    1.000
    H112     H        0.14680    0.10530    0.76210    1.000
    C230     C        0.14330    0.06148    0.69440    1.000
    H113     H        0.15450    0.08230    0.66590    1.000
    C231     C        0.13010    0.01680    0.67930    1.000
    C232     C        0.11130    0.98665    0.72320    1.000
    H114     H        0.09910    0.95670    0.71420    1.000
    C233     C        0.11120    0.00254    0.78020    1.000
    C234     C        0.09860    0.97188    0.83160    1.000
    C235     C        0.32650    0.89338    0.51200    1.000
    H115     H        0.36060    0.91840    0.52280    1.000
    O80      O        0.52780    0.78580    0.80280    1.000
    Tb11     Tb       0.94319    0.32929    0.61512    1.000
    Tb12     Tb       0.68849    0.44314    0.40319    1.000
    N41      N        0.91250    0.26828    0.53830    1.000
    N42      N        0.81240    0.27694    0.62290    1.000
    N43      N        0.83130    0.35455    0.67991    1.000
    N44      N        0.56430    0.09535    0.70888    1.000
    N45      N        0.56440    0.41015    0.44817    1.000
    N46      N        0.66230    0.47365    0.50408    1.000
    N47      N        0.79830    0.49759    0.45014    1.000
    N48      N        0.62570    0.54536    0.79512    1.000
    O81      O        0.01740    0.33632    0.53140    1.000
    O82      O        0.08140    0.30440    0.46130    1.000
    O83      O        0.95510    0.40543    0.64571    1.000
    O84      O        0.92370    0.46183    0.70450    1.000
    O85      O        0.69230    0.11482    0.84590    1.000
    O86      O        0.61160    0.05603    0.81302    1.000
    O87      O        0.63970    0.37395    0.36362    1.000
    O88      O        0.53360    0.32430    0.34055    1.000
    O89      O        0.80050    0.45820    0.34681    1.000
    O90      O        0.91840    0.49576    0.32860    1.000
    O91      O        0.57190    0.43391    0.82193    1.000
    O92      O        0.61730    0.48969    0.88336    1.000
    O93      O        0.83760    0.36129    0.54445    1.000
    O94      O        0.77570    0.39709    0.46649    1.000
    O95      O        0.98580    0.31650    0.71860    1.000
    C236     C        0.02710    0.30560    0.49580    1.000
    C237     C        0.96390    0.26640    0.49500    1.000
    C238     C        0.95960    0.23230    0.45330    1.000
    H116     H        0.99630    0.23220    0.42400    1.000
    C239     C        0.90020    0.19870    0.45600    1.000
    H117     H        0.89620    0.17530    0.42870    1.000
    C240     C        0.84570    0.20004    0.50020    1.000
    H118     H        0.80410    0.17790    0.50230    1.000
    C241     C        0.85450    0.23496    0.54090    1.000
    C242     C        0.80130    0.23905    0.59050    1.000
    C243     C        0.74470    0.20530    0.60330    1.000
    H119     H        0.73520    0.18040    0.57860    1.000
    C244     C        0.70260    0.20924    0.65320    1.000
    C245     C        0.71140    0.24860    0.68530    1.000
    H120     H        0.68250    0.25250    0.71830    1.000
    C246     C        0.76390    0.28243    0.66760    1.000
    C247     C        0.77120    0.32706    0.69730    1.000
    C248     C        0.71820    0.34050    0.73830    1.000
    H121     H        0.67570    0.32130    0.74920    1.000
    C249     C        0.72900    0.38250    0.76270    1.000
    H122     H        0.69420    0.39180    0.79080    1.000
    C250     C        0.79100    0.41101    0.74560    1.000
    H123     H        0.79890    0.43970    0.76170    1.000
    C251     C        0.84100    0.39567    0.70410    1.000
    C252     C        0.91280    0.42357    0.68290    1.000
    C253     C        0.54800    0.11212    0.65370    1.000
    H124     H        0.50540    0.09830    0.62750    1.000
    C254     C        0.59010    0.14819    0.63370    1.000
    H125     H        0.57730    0.15810    0.59480    1.000
    C255     C        0.65250    0.16992    0.67280    1.000
    C256     C        0.66930    0.15347    0.73020    1.000
    H126     H        0.70980    0.16750    0.75780    1.000
    C257     C        0.62510    0.11593    0.74590    1.000
    C258     C        0.64550    0.09457    0.80670    1.000
    C259     C        0.56650    0.35663    0.36960    1.000
    C260     C        0.52020    0.37727    0.41740    1.000
    C261     C        0.44090    0.36200    0.43180    1.000
    H127     H        0.41120    0.33910    0.41020    1.000
    C262     C        0.40760    0.38190    0.47900    1.000
    H128     H        0.35360    0.37320    0.48860    1.000
    C263     C        0.45470    0.41480    0.51200    1.000
    H129     H        0.43350    0.42810    0.54430    1.000
    C264     C        0.53380    0.42747    0.49570    1.000
    C265     C        0.59410    0.45964    0.52980    1.000
    C266     C        0.58150    0.47233    0.58730    1.000
    H130     H        0.53440    0.46160    0.60450    1.000
    C267     C        0.64060    0.50127    0.61820    1.000
    C268     C        0.71000    0.51630    0.59130    1.000
    H131     H        0.75000    0.53600    0.61110    1.000
    C269     C        0.71980    0.50174    0.53400    1.000
    C270     C        0.79420    0.51615    0.50360    1.000
    C271     C        0.85570    0.54680    0.52790    1.000
    H132     H        0.85320    0.55890    0.56540    1.000
    C272     C        0.92100    0.55890    0.49470    1.000
    H133     H        0.96260    0.57980    0.50960    1.000
    C273     C        0.92450    0.54020    0.43980    1.000
    H134     H        0.96760    0.54830    0.41700    1.000
    C274     C        0.86330    0.50943    0.41960    1.000
    C275     C        0.86050    0.48591    0.35970    1.000
    C276     C        0.63960    0.57503    0.75240    1.000
    H135     H        0.64680    0.60530    0.76210    1.000
    C277     C        0.64330    0.56148    0.69440    1.000
    H136     H        0.65450    0.58230    0.66590    1.000
    C278     C        0.63010    0.51680    0.67930    1.000
    C279     C        0.61130    0.48665    0.72320    1.000
    H137     H        0.59910    0.45670    0.71420    1.000
    C280     C        0.61120    0.50254    0.78020    1.000
    C281     C        0.59860    0.47188    0.83160    1.000
    C282     C        0.82650    0.39338    0.51200    1.000
    H138     H        0.86060    0.41840    0.52280    1.000
    O96      O        0.02780    0.28580    0.80280    1.000
    Tb13     Tb       0.55681    0.82930    0.88488    1.000
    Tb14     Tb       0.81151    0.94314    0.09681    1.000
    N49      N        0.58750    0.76828    0.96170    1.000
    N50      N        0.68760    0.77694    0.87710    1.000
    N51      N        0.66870    0.85455    0.82009    1.000
    N52      N        0.93570    0.59535    0.79112    1.000
    N53      N        0.93560    0.91015    0.05183    1.000
    N54      N        0.83770    0.97365    0.99592    1.000
    N55      N        0.70170    0.99759    0.04986    1.000
    N56      N        0.87430    0.04536    0.70488    1.000
    O97      O        0.48260    0.83632    0.96860    1.000
    O98      O        0.41860    0.80440    0.03870    1.000
    O99      O        0.54490    0.90543    0.85429    1.000
    O100     O        0.57630    0.96183    0.79550    1.000
    O101     O        0.80770    0.61482    0.65410    1.000
    O102     O        0.88840    0.55603    0.68698    1.000
    O103     O        0.86030    0.87395    0.13638    1.000
    O104     O        0.96640    0.82430    0.15945    1.000
    O105     O        0.69950    0.95820    0.15319    1.000
    O106     O        0.58160    0.99576    0.17140    1.000
    O107     O        0.92810    0.93391    0.67807    1.000
    O108     O        0.88270    0.98969    0.61664    1.000
    O109     O        0.66240    0.86129    0.95555    1.000
    O110     O        0.72430    0.89709    0.03351    1.000
    O111     O        0.51420    0.81650    0.78140    1.000
    C283     C        0.47290    0.80560    0.00420    1.000
    C284     C        0.53610    0.76640    0.00500    1.000
    C285     C        0.54040    0.73230    0.04670    1.000
    H139     H        0.50370    0.73220    0.07600    1.000
    C286     C        0.59980    0.69870    0.04400    1.000
    H140     H        0.60380    0.67530    0.07130    1.000
    C287     C        0.65430    0.70004    0.99980    1.000
    H141     H        0.69590    0.67790    0.99770    1.000
    C288     C        0.64550    0.73496    0.95910    1.000
    C289     C        0.69870    0.73905    0.90950    1.000
    C290     C        0.75530    0.70530    0.89670    1.000
    H142     H        0.76480    0.68040    0.92140    1.000
    C291     C        0.79740    0.70924    0.84680    1.000
    C292     C        0.78860    0.74860    0.81470    1.000
    H143     H        0.81750    0.75250    0.78170    1.000
    C293     C        0.73610    0.78243    0.83240    1.000
    C294     C        0.72880    0.82706    0.80270    1.000
    C295     C        0.78180    0.84050    0.76170    1.000
    H144     H        0.82430    0.82130    0.75080    1.000
    C296     C        0.77100    0.88250    0.73730    1.000
    H145     H        0.80580    0.89180    0.70920    1.000
    C297     C        0.70900    0.91101    0.75440    1.000
    H146     H        0.70110    0.93970    0.73830    1.000
    C298     C        0.65900    0.89567    0.79590    1.000
    C299     C        0.58720    0.92357    0.81710    1.000
    C300     C        0.95200    0.61212    0.84630    1.000
    H147     H        0.99460    0.59830    0.87250    1.000
    C301     C        0.90990    0.64819    0.86630    1.000
    H148     H        0.92270    0.65810    0.90520    1.000
    C302     C        0.84750    0.66992    0.82720    1.000
    C303     C        0.83070    0.65347    0.76980    1.000
    H149     H        0.79020    0.66750    0.74220    1.000
    C304     C        0.87490    0.61593    0.75410    1.000
    C305     C        0.85450    0.59457    0.69330    1.000
    C306     C        0.93350    0.85663    0.13040    1.000
    C307     C        0.97980    0.87727    0.08260    1.000
    C308     C        0.05910    0.86200    0.06820    1.000
    H150     H        0.08880    0.83910    0.08980    1.000
    C309     C        0.09240    0.88190    0.02100    1.000
    H151     H        0.14640    0.87320    0.01140    1.000
    C310     C        0.04530    0.91480    0.98800    1.000
    H152     H        0.06650    0.92810    0.95570    1.000
    C311     C        0.96620    0.92747    0.00430    1.000
    C312     C        0.90590    0.95964    0.97020    1.000
    C313     C        0.91850    0.97233    0.91270    1.000
    H153     H        0.96560    0.96160    0.89550    1.000
    C314     C        0.85940    0.00127    0.88180    1.000
    C315     C        0.79000    0.01630    0.90870    1.000
    H154     H        0.75000    0.03600    0.88890    1.000
    C316     C        0.78020    0.00174    0.96600    1.000
    C317     C        0.70580    0.01615    0.99640    1.000
    C318     C        0.64430    0.04680    0.97210    1.000
    H155     H        0.64680    0.05890    0.93460    1.000
    C319     C        0.57900    0.05890    0.00530    1.000
    H156     H        0.53740    0.07980    0.99040    1.000
    C320     C        0.57550    0.04020    0.06020    1.000
    H157     H        0.53240    0.04830    0.08300    1.000
    C321     C        0.63670    0.00943    0.08040    1.000
    C322     C        0.63950    0.98591    0.14030    1.000
    C323     C        0.86040    0.07503    0.74760    1.000
    H158     H        0.85320    0.10530    0.73790    1.000
    C324     C        0.85670    0.06148    0.80560    1.000
    H159     H        0.84550    0.08230    0.83410    1.000
    C325     C        0.86990    0.01680    0.82070    1.000
    C326     C        0.88870    0.98665    0.77680    1.000
    H160     H        0.90090    0.95670    0.78580    1.000
    C327     C        0.88880    0.00254    0.71980    1.000
    C328     C        0.90140    0.97188    0.66840    1.000
    C329     C        0.67350    0.89338    0.98800    1.000
    H161     H        0.63940    0.91840    0.97720    1.000
    O112     O        0.47220    0.78580    0.69720    1.000
    Tb15     Tb       0.05681    0.32929    0.88488    1.000
    Tb16     Tb       0.31151    0.44314    0.09681    1.000
    N57      N        0.08750    0.26828    0.96170    1.000
    N58      N        0.18760    0.27694    0.87710    1.000
    N59      N        0.16870    0.35455    0.82009    1.000
    N60      N        0.43570    0.09535    0.79112    1.000
    N61      N        0.43560    0.41015    0.05183    1.000
    N62      N        0.33770    0.47365    0.99592    1.000
    N63      N        0.20170    0.49759    0.04986    1.000
    N64      N        0.37430    0.54536    0.70488    1.000
    O113     O        0.98260    0.33632    0.96860    1.000
    O114     O        0.91860    0.30440    0.03870    1.000
    O115     O        0.04490    0.40543    0.85429    1.000
    O116     O        0.07630    0.46183    0.79550    1.000
    O117     O        0.30770    0.11482    0.65410    1.000
    O118     O        0.38840    0.05603    0.68698    1.000
    O119     O        0.36030    0.37395    0.13638    1.000
    O120     O        0.46640    0.32430    0.15945    1.000
    O121     O        0.19950    0.45820    0.15319    1.000
    O122     O        0.08160    0.49576    0.17140    1.000
    O123     O        0.42810    0.43391    0.67807    1.000
    O124     O        0.38270    0.48969    0.61664    1.000
    O125     O        0.16240    0.36129    0.95555    1.000
    O126     O        0.22430    0.39709    0.03351    1.000
    O127     O        0.01420    0.31650    0.78140    1.000
    C330     C        0.97290    0.30560    0.00420    1.000
    C331     C        0.03610    0.26640    0.00500    1.000
    C332     C        0.04040    0.23230    0.04670    1.000
    H162     H        0.00370    0.23220    0.07600    1.000
    C333     C        0.09980    0.19870    0.04400    1.000
    H163     H        0.10380    0.17530    0.07130    1.000
    C334     C        0.15430    0.20004    0.99980    1.000
    H164     H        0.19590    0.17790    0.99770    1.000
    C335     C        0.14550    0.23496    0.95910    1.000
    C336     C        0.19870    0.23905    0.90950    1.000
    C337     C        0.25530    0.20530    0.89670    1.000
    H165     H        0.26480    0.18040    0.92140    1.000
    C338     C        0.29740    0.20924    0.84680    1.000
    C339     C        0.28860    0.24860    0.81470    1.000
    H166     H        0.31750    0.25250    0.78170    1.000
    C340     C        0.23610    0.28243    0.83240    1.000
    C341     C        0.22880    0.32706    0.80270    1.000
    C342     C        0.28180    0.34050    0.76170    1.000
    H167     H        0.32430    0.32130    0.75080    1.000
    C343     C        0.27100    0.38250    0.73730    1.000
    H168     H        0.30580    0.39180    0.70920    1.000
    C344     C        0.20900    0.41101    0.75440    1.000
    H169     H        0.20110    0.43970    0.73830    1.000
    C345     C        0.15900    0.39567    0.79590    1.000
    C346     C        0.08720    0.42357    0.81710    1.000
    C347     C        0.45200    0.11212    0.84630    1.000
    H170     H        0.49460    0.09830    0.87250    1.000
    C348     C        0.40990    0.14819    0.86630    1.000
    H171     H        0.42270    0.15810    0.90520    1.000
    C349     C        0.34750    0.16992    0.82720    1.000
    C350     C        0.33070    0.15347    0.76980    1.000
    H172     H        0.29020    0.16750    0.74220    1.000
    C351     C        0.37490    0.11593    0.75410    1.000
    C352     C        0.35450    0.09457    0.69330    1.000
    C353     C        0.43350    0.35663    0.13040    1.000
    C354     C        0.47980    0.37727    0.08260    1.000
    C355     C        0.55910    0.36200    0.06820    1.000
    H173     H        0.58880    0.33910    0.08980    1.000
    C356     C        0.59240    0.38190    0.02100    1.000
    H174     H        0.64640    0.37320    0.01140    1.000
    C357     C        0.54530    0.41480    0.98800    1.000
    H175     H        0.56650    0.42810    0.95570    1.000
    C358     C        0.46620    0.42747    0.00430    1.000
    C359     C        0.40590    0.45964    0.97020    1.000
    C360     C        0.41850    0.47233    0.91270    1.000
    H176     H        0.46560    0.46160    0.89550    1.000
    C361     C        0.35940    0.50127    0.88180    1.000
    C362     C        0.29000    0.51630    0.90870    1.000
    H177     H        0.25000    0.53600    0.88890    1.000
    C363     C        0.28020    0.50174    0.96600    1.000
    C364     C        0.20580    0.51615    0.99640    1.000
    C365     C        0.14430    0.54680    0.97210    1.000
    H178     H        0.14680    0.55890    0.93460    1.000
    C366     C        0.07900    0.55890    0.00530    1.000
    H179     H        0.03740    0.57980    0.99040    1.000
    C367     C        0.07550    0.54020    0.06020    1.000
    H180     H        0.03240    0.54830    0.08300    1.000
    C368     C        0.13670    0.50943    0.08040    1.000
    C369     C        0.13950    0.48591    0.14030    1.000
    C370     C        0.36040    0.57503    0.74760    1.000
    H181     H        0.35320    0.60530    0.73790    1.000
    C371     C        0.35670    0.56148    0.80560    1.000
    H182     H        0.34550    0.58230    0.83410    1.000
    C372     C        0.36990    0.51680    0.82070    1.000
    C373     C        0.38870    0.48665    0.77680    1.000
    H183     H        0.40090    0.45670    0.78580    1.000
    C374     C        0.38880    0.50254    0.71980    1.000
    C375     C        0.40140    0.47188    0.66840    1.000
    C376     C        0.17350    0.39338    0.98800    1.000
    H184     H        0.13940    0.41840    0.97720    1.000
    O128     O        0.97220    0.28580    0.69720    1.000
    Tb17     Tb       0.50000    0.02305    0.75000    1.000
    Tb18     Tb       0.00000    0.52305    0.75000    1.000
    Tb19     Tb       0.50000    0.97695    0.25000    1.000
    Tb20     Tb       0.00000    0.47695    0.25000    1.000
    C377     C        0.50000    0.21700    0.25000    1.000
    C378     C        0.00000    0.71700    0.25000    1.000
    C379     C        0.50000    0.78300    0.75000    1.000
    C380     C        0.00000    0.28300    0.75000    1.000
