# CIF file generated by openbabel 3.1.0, see https://openbabel.org
data_I
_chemical_name_common 'image0'
_cell_length_a 9.848
_cell_length_b 12.47
_cell_length_c 12.603
_cell_angle_alpha 63.47
_cell_angle_beta 74.56
_cell_angle_gamma 76.03
_space_group_name_H-M_alt 'P 1'
_space_group_name_Hall 'P 1'
loop_
    _symmetry_equiv_pos_as_xyz
    x,y,z
loop_
    _atom_site_label
    _atom_site_type_symbol
    _atom_site_fract_x
    _atom_site_fract_y
    _atom_site_fract_z
    _atom_site_occupancy
    Ga1      Ga       0.20020    0.88246    0.51811    1.000
    Ga2      Ga       0.09730    0.40144    0.16234    1.000
    Ga3      Ga       0.36690    0.16190    0.50600    1.000
    Co1      Co       0.39210    0.66020    0.90310    1.000
    Co2      Co       0.53140    0.53530    0.31000    1.000
    P1       P        0.11570    0.16940    0.40040    1.000
    P2       P        0.36160    0.89670    0.68510    1.000
    P3       P        0.33870    0.50870    0.17060    1.000
    P4       P        0.45180    0.69790    0.45120    1.000
    P5       P        0.21020    0.48940    0.88310    1.000
    O1       O        0.34490    0.81110    0.43320    1.000
    O2       O        0.23670    0.86680    0.66020    1.000
    O3       O        0.18280    0.04470    0.41440    1.000
    O4       O        0.96080    0.17830    0.46380    1.000
    O5       O        0.15690    0.40080    0.01070    1.000
    O6       O        0.09090    0.53310    0.81100    1.000
    O7       O        0.12710    0.24210    0.26450    1.000
    O8       O        0.18140    0.49650    0.19940    1.000
    O9       O        0.19280    0.22320    0.45260    1.000
    O10      O        0.34190    0.02930    0.65520    1.000
    O11      O        0.49760    0.85790    0.61540    1.000
    O12      O        0.59090    0.71940    0.46210    1.000
    O13      O        0.36540    0.82780    0.82100    1.000
    O14      O        0.25640    0.59470    0.88410    1.000
    O15      O        0.42160    0.40620    0.13700    1.000
    O16      O        0.36560    0.63000    0.06600    1.000
    O17      O        0.46920    0.66930    0.34230    1.000
    O18      O        0.33160    0.41800    0.82760    1.000
    O19      O        0.39400    0.59420    0.56290    1.000
    O20      O        0.37370    0.50720    0.28120    1.000
    Ga4      Ga       0.79980    0.11754    0.48189    1.000
    Ga5      Ga       0.90270    0.59856    0.83766    1.000
    Ga6      Ga       0.63310    0.83810    0.49400    1.000
    Co3      Co       0.60790    0.33980    0.09690    1.000
    Co4      Co       0.46860    0.46470    0.69000    1.000
    P6       P        0.88430    0.83060    0.59960    1.000
    P7       P        0.63840    0.10330    0.31490    1.000
    P8       P        0.66130    0.49130    0.82940    1.000
    P9       P        0.54820    0.30210    0.54880    1.000
    P10      P        0.78980    0.51060    0.11690    1.000
    O21      O        0.65510    0.18890    0.56680    1.000
    O22      O        0.76330    0.13320    0.33980    1.000
    O23      O        0.81720    0.95530    0.58560    1.000
    O24      O        0.03920    0.82170    0.53620    1.000
    O25      O        0.84310    0.59920    0.98930    1.000
    O26      O        0.90910    0.46690    0.18900    1.000
    O27      O        0.87290    0.75790    0.73550    1.000
    O28      O        0.81860    0.50350    0.80060    1.000
    O29      O        0.80720    0.77680    0.54740    1.000
    O30      O        0.65810    0.97070    0.34480    1.000
    O31      O        0.50240    0.14210    0.38460    1.000
    O32      O        0.40910    0.28060    0.53790    1.000
    O33      O        0.63460    0.17220    0.17900    1.000
    O34      O        0.74360    0.40530    0.11590    1.000
    O35      O        0.57840    0.59380    0.86300    1.000
    O36      O        0.63440    0.37000    0.93400    1.000
    O37      O        0.53080    0.33070    0.65770    1.000
    O38      O        0.66840    0.58200    0.17240    1.000
    O39      O        0.60600    0.40580    0.43710    1.000
    O40      O        0.62630    0.49280    0.71880    1.000
