data_functionalizedCrystal
_audit_creation_method	'EQeq! by Chris Wilmer'
_symmetry_space_group_name_H-M	'P1'
_symmetry_Int_Tables_number	1
_symmetry_cell_setting	triclinic
loop_
_symmetry_equiv_pos_as_xyz
  x,y,z
_cell_length_a	18.0725
_cell_length_b	18.0725
_cell_length_c	17.1854
_cell_angle_alpha	90
_cell_angle_beta	90
_cell_angle_gamma	90
loop_
_atom_site_label
_atom_site_type_symbol
_atom_site_fract_x
_atom_site_fract_y
_atom_site_fract_z
_atom_site_charge
Mof_C 	C 	0.7165	0.0067	0.4903	0.002
Mof_H 	H 	0.7437	0.0074	0.443	0.065
Mof_C 	C 	0.7019	0.0734	0.53	-0.047
Mof_C 	C 	0.6614	0.0723	0.6002	-0.035
Mof_H 	H 	0.6516	0.1173	0.627	0.084
Mof_C 	C 	0.6357	0.0046	0.6307	0.051
Mof_C 	C 	0.6503	0.938	0.5909	-0.052
Mof_H 	H 	0.6329	0.8924	0.6115	0.063
Mof_C 	C 	0.6907	0.939	0.5208	-0.057
Mof_C 	C 	0.4546	0.9417	0.9986	0.021
Mof_C 	C 	0.4594	0.891	0.0615	-0.007
Mof_C 	C 	0.4933	0.8463	0.1819	0.031
Mof_C 	C 	0.5607	0.8298	0.2194	-0.039
Mof_H 	H 	0.6063	0.8447	0.1966	0.068
Mof_C 	C 	0.5605	0.7914	0.2907	-0.053
Mof_C 	C 	0.493	0.7694	0.3246	-0.005
Mof_H 	H 	0.4929	0.7434	0.3727	0.07
Mof_C 	C 	0.4256	0.7858	0.2871	-0.04
Mof_C 	C 	0.4258	0.8243	0.2157	-0.042
Mof_H 	H 	0.3803	0.8354	0.1904	0.071
Mof_O 	O 	0.695	0.9582	0.9169	-0.162
Mof_C 	C 	0.5357	0.9316	0.9459	0.004
Mof_C 	C 	0.5331	0.9815	0.009	-0.009
Mof_C 	C 	0.5182	0.9552	0.0846	0.003
Mof_C 	C 	0.5058	0.8791	0.0972	0.009
Mof_C 	C 	0.5084	0.8293	0.0341	-0.023
Mof_C 	C 	0.5234	0.8555	0.9585	0.113
Mof_C 	C 	0.481	0.9206	0.1328	-0.013
Mof_C 	C 	0.51	0.0038	0.1465	0.01
Mof_C 	C 	0.6153	0.993	0.7197	0.919
Mof_C 	C 	0.5392	0.9882	0.7369	0.076
Mof_C 	C 	0.5157	0.9738	0.8136	-0.091
Mof_C 	C 	0.5684	0.9643	0.8733	-0.057
Mof_C 	C 	0.6446	0.9691	0.8562	0.18
Mof_C 	C 	0.668	0.9835	0.7794	-0.153
Mof_C 	C 	0.5767	0.0065	0.681	-0.597
Mof_C 	C 	0.6051	0.025	0.755	-0.612
Mof_C 	C 	0.561	0.038	0.821	0.257
Mof_Cu	Cu	0.7059	0.7167	0.45951	0.928
Mof_Cu	Cu	0.7827	0.7924	0.35572	0.916
Mof_C 	C 	0.3566	0.7701	0.3337	0.304
Mof_C 	C 	0.6309	0.7726	0.3296	0.317
Mof_O 	O 	0.7558	0.8679	0.4266	-0.407
Mof_C 	C 	0.7124	0.8677	0.484	0.349
Mof_O 	O 	0.689	0.8056	0.5114	-0.39
Mof_O 	O 	0.7707	0.1313	0.4298	-0.355
Mof_C 	C 	0.7291	0.1434	0.4932	0.306
Mof_O 	O 	0.7113	0.2066	0.5176	-0.386
Mof_O 	O 	0.6911	0.8041	0.3114	-0.408
Mof_O 	O 	0.2982	0.7927	0.3004	-0.395
Mof_O 	O 	0.3655	0.7396	0.4021	-0.393
Mof_O 	O 	0.6238	0.7362	0.3969	-0.387
Mof_O 	O 	0.527	0.8098	0.8945	-0.155
Mof_C 	C 	0.2835	0.9933	0.4903	0.005
Mof_H 	H 	0.2563	0.9926	0.443	0.064
Mof_C 	C 	0.2981	0.9266	0.53	-0.047
Mof_C 	C 	0.3386	0.9277	0.6002	-0.041
Mof_H 	H 	0.3484	0.8827	0.627	0.082
Mof_C 	C 	0.3643	0.9954	0.6307	0.059
Mof_C 	C 	0.3497	0.062	0.5909	-0.056
Mof_H 	H 	0.3671	0.1076	0.6115	0.067
Mof_C 	C 	0.3093	0.061	0.5208	-0.06
Mof_C 	C 	0.5454	0.0583	0.9986	0.017
Mof_C 	C 	0.5406	0.109	0.0615	-0.006
Mof_C 	C 	0.5067	0.1537	0.1819	0.032
Mof_C 	C 	0.4393	0.1702	0.2194	-0.039
Mof_H 	H 	0.3937	0.1553	0.1966	0.067
Mof_C 	C 	0.4395	0.2086	0.2907	-0.053
Mof_C 	C 	0.507	0.2306	0.3246	-0.005
Mof_H 	H 	0.5071	0.2566	0.3727	0.07
Mof_C 	C 	0.5744	0.2142	0.2871	-0.04
Mof_C 	C 	0.5742	0.1757	0.2157	-0.042
Mof_H 	H 	0.6197	0.1646	0.1904	0.071
Mof_O 	O 	0.305	0.0418	0.9169	-0.161
Mof_C 	C 	0.4643	0.0684	0.9459	0.004
Mof_C 	C 	0.4669	0.0185	0.009	-0.015
Mof_C 	C 	0.4818	0.0448	0.0846	0.005
Mof_C 	C 	0.4942	0.1209	0.0972	0.011
Mof_C 	C 	0.4916	0.1707	0.0341	-0.024
Mof_C 	C 	0.4766	0.1445	0.9585	0.114
Mof_C 	C 	0.519	0.0794	0.1328	-0.02
Mof_C 	C 	0.49	0.9962	0.1465	-0.003
Mof_C 	C 	0.3847	0.007	0.7197	0.788
Mof_C 	C 	0.4608	0.0118	0.7369	0.043
Mof_C 	C 	0.4843	0.0262	0.8136	-0.086
Mof_C 	C 	0.4316	0.0357	0.8733	-0.051
Mof_C 	C 	0.3554	0.0309	0.8562	0.17
Mof_C 	C 	0.332	0.0165	0.7794	-0.139
Mof_C 	C 	0.4233	0.9935	0.681	-0.526
Mof_C 	C 	0.3949	0.975	0.755	-0.511
Mof_C 	C 	0.439	0.962	0.821	0.23
Mof_Cu	Cu	0.2941	0.2833	0.45951	0.929
Mof_Cu	Cu	0.2173	0.2076	0.35572	0.916
Mof_C 	C 	0.6434	0.2299	0.3337	0.304
Mof_C 	C 	0.3691	0.2274	0.3296	0.317
Mof_O 	O 	0.2442	0.1321	0.4266	-0.408
Mof_C 	C 	0.2876	0.1323	0.484	0.349
Mof_O 	O 	0.311	0.1944	0.5114	-0.39
Mof_O 	O 	0.2293	0.8687	0.4298	-0.355
Mof_C 	C 	0.2709	0.8566	0.4932	0.306
Mof_O 	O 	0.2887	0.7934	0.5176	-0.386
Mof_O 	O 	0.3089	0.1959	0.3114	-0.409
Mof_O 	O 	0.7018	0.2073	0.3004	-0.395
Mof_O 	O 	0.6345	0.2604	0.4021	-0.393
Mof_O 	O 	0.3762	0.2638	0.3969	-0.387
Mof_O 	O 	0.473	0.1902	0.8945	-0.154
Mof_C 	C 	0.9933	0.7165	0.4903	0.005
Mof_H 	H 	0.9926	0.7437	0.443	0.064
Mof_C 	C 	0.9266	0.7019	0.53	-0.047
Mof_C 	C 	0.9277	0.6614	0.6002	-0.041
Mof_H 	H 	0.8827	0.6516	0.627	0.082
Mof_C 	C 	0.9954	0.6357	0.6307	0.059
Mof_C 	C 	0.062	0.6503	0.5909	-0.056
Mof_H 	H 	0.1076	0.6329	0.6115	0.067
Mof_C 	C 	0.061	0.6907	0.5208	-0.06
Mof_C 	C 	0.0583	0.4546	0.9986	0.017
Mof_C 	C 	0.109	0.4594	0.0615	-0.006
Mof_C 	C 	0.1537	0.4933	0.1819	0.032
Mof_C 	C 	0.1702	0.5607	0.2194	-0.039
Mof_H 	H 	0.1553	0.6063	0.1966	0.068
Mof_C 	C 	0.2086	0.5605	0.2907	-0.053
Mof_C 	C 	0.2306	0.493	0.3246	-0.005
Mof_H 	H 	0.2566	0.4929	0.3727	0.07
Mof_C 	C 	0.2142	0.4256	0.2871	-0.04
Mof_C 	C 	0.1757	0.4258	0.2157	-0.042
Mof_H 	H 	0.1646	0.3803	0.1904	0.071
Mof_O 	O 	0.0418	0.695	0.9169	-0.161
Mof_C 	C 	0.0684	0.5357	0.9459	0.004
Mof_C 	C 	0.0185	0.5331	0.009	-0.015
Mof_C 	C 	0.0448	0.5182	0.0846	0.005
Mof_C 	C 	0.1209	0.5058	0.0972	0.011
Mof_C 	C 	0.1707	0.5084	0.0341	-0.024
Mof_C 	C 	0.1445	0.5234	0.9585	0.114
Mof_C 	C 	0.0794	0.481	0.1328	-0.02
Mof_C 	C 	0.9962	0.51	0.1465	-0.003
Mof_C 	C 	0.007	0.6153	0.7197	0.787
Mof_C 	C 	0.0118	0.5392	0.7369	0.044
Mof_C 	C 	0.0262	0.5157	0.8136	-0.086
Mof_C 	C 	0.0357	0.5684	0.8733	-0.051
Mof_C 	C 	0.0309	0.6446	0.8562	0.17
Mof_C 	C 	0.0165	0.668	0.7794	-0.138
Mof_C 	C 	0.9935	0.5767	0.681	-0.526
Mof_C 	C 	0.975	0.6051	0.755	-0.511
Mof_C 	C 	0.962	0.561	0.821	0.23
Mof_Cu	Cu	0.2833	0.7059	0.45951	0.928
Mof_Cu	Cu	0.2076	0.7827	0.35572	0.916
Mof_C 	C 	0.2299	0.3566	0.3337	0.304
Mof_C 	C 	0.2274	0.6309	0.3296	0.317
Mof_O 	O 	0.1321	0.7558	0.4266	-0.408
Mof_C 	C 	0.1323	0.7124	0.484	0.349
Mof_O 	O 	0.1944	0.689	0.5114	-0.39
Mof_O 	O 	0.8687	0.7707	0.4298	-0.355
Mof_C 	C 	0.8566	0.7291	0.4932	0.306
Mof_O 	O 	0.7934	0.7113	0.5176	-0.386
Mof_O 	O 	0.1959	0.6911	0.3114	-0.409
Mof_O 	O 	0.2073	0.2982	0.3004	-0.395
Mof_O 	O 	0.2604	0.3655	0.4021	-0.393
Mof_O 	O 	0.2638	0.6238	0.3969	-0.387
Mof_O 	O 	0.1902	0.527	0.8945	-0.154
Mof_C 	C 	0.0067	0.2835	0.4903	0.001
Mof_H 	H 	0.0074	0.2563	0.443	0.064
Mof_C 	C 	0.0734	0.2981	0.53	-0.048
Mof_C 	C 	0.0723	0.3386	0.6002	-0.036
Mof_H 	H 	0.1173	0.3484	0.627	0.083
Mof_C 	C 	0.0046	0.3643	0.6307	0.051
Mof_C 	C 	0.938	0.3497	0.5909	-0.052
Mof_H 	H 	0.8924	0.3671	0.6115	0.063
Mof_C 	C 	0.939	0.3093	0.5208	-0.058
Mof_C 	C 	0.9417	0.5454	0.9986	0.021
Mof_C 	C 	0.891	0.5406	0.0615	-0.007
Mof_C 	C 	0.8463	0.5067	0.1819	0.031
Mof_C 	C 	0.8298	0.4393	0.2194	-0.039
Mof_H 	H 	0.8447	0.3937	0.1966	0.068
Mof_C 	C 	0.7914	0.4395	0.2907	-0.053
Mof_C 	C 	0.7694	0.507	0.3246	-0.005
Mof_H 	H 	0.7434	0.5071	0.3727	0.07
Mof_C 	C 	0.7858	0.5744	0.2871	-0.04
Mof_C 	C 	0.8243	0.5742	0.2157	-0.042
Mof_H 	H 	0.8354	0.6197	0.1904	0.071
Mof_O 	O 	0.9582	0.305	0.9169	-0.162
Mof_C 	C 	0.9316	0.4643	0.9459	0.004
Mof_C 	C 	0.9815	0.4669	0.009	-0.009
Mof_C 	C 	0.9552	0.4818	0.0846	0.003
Mof_C 	C 	0.8791	0.4942	0.0972	0.009
Mof_C 	C 	0.8293	0.4916	0.0341	-0.023
Mof_C 	C 	0.8555	0.4766	0.9585	0.113
Mof_C 	C 	0.9206	0.519	0.1328	-0.013
Mof_C 	C 	0.0038	0.49	0.1465	0.01
Mof_C 	C 	0.993	0.3847	0.7197	0.919
Mof_C 	C 	0.9882	0.4608	0.7369	0.076
Mof_C 	C 	0.9738	0.4843	0.8136	-0.09
Mof_C 	C 	0.9643	0.4316	0.8733	-0.057
Mof_C 	C 	0.9691	0.3554	0.8562	0.18
Mof_C 	C 	0.9835	0.332	0.7794	-0.153
Mof_C 	C 	0.0065	0.4233	0.681	-0.597
Mof_C 	C 	0.025	0.3949	0.755	-0.612
Mof_C 	C 	0.038	0.439	0.821	0.258
Mof_Cu	Cu	0.7167	0.2941	0.45951	0.928
Mof_Cu	Cu	0.7924	0.2173	0.35572	0.916
Mof_C 	C 	0.7701	0.6434	0.3337	0.304
Mof_C 	C 	0.7726	0.3691	0.3296	0.317
Mof_O 	O 	0.8679	0.2442	0.4266	-0.407
Mof_C 	C 	0.8677	0.2876	0.484	0.349
Mof_O 	O 	0.8056	0.311	0.5114	-0.39
Mof_O 	O 	0.1313	0.2293	0.4298	-0.356
Mof_C 	C 	0.1434	0.2709	0.4932	0.306
Mof_O 	O 	0.2066	0.2887	0.5176	-0.386
Mof_O 	O 	0.8041	0.3089	0.3114	-0.408
Mof_O 	O 	0.7927	0.7018	0.3004	-0.395
Mof_O 	O 	0.7396	0.6345	0.4021	-0.393
Mof_O 	O 	0.7362	0.3762	0.3969	-0.387
Mof_O 	O 	0.8098	0.473	0.8945	-0.155
Mof_C 	C 	0.5	0	0.6707	0.337
Mof_C 	C 	-2.10604e-33	0.5	0.6707	0.337
_end
