# CIF file generated by openbabel 3.1.0, see https://openbabel.org
data_I
_chemical_name_common 'image0'
_cell_length_a 24.4186
_cell_length_b 24.4186
_cell_length_c 55.4757
_cell_angle_alpha 90
_cell_angle_beta 90
_cell_angle_gamma 120
_space_group_name_H-M_alt 'P 1'
_space_group_name_Hall 'P 1'
loop_
    _symmetry_equiv_pos_as_xyz
    x,y,z
loop_
    _atom_site_label
    _atom_site_type_symbol
    _atom_site_fract_x
    _atom_site_fract_y
    _atom_site_fract_z
    _atom_site_occupancy
    In1      In       0.77849    0.72900    0.47478    1.000
    O1       O        0.76350    0.63450    0.47460    1.000
    O2       O        0.66840    0.56860    0.49132    1.000
    O3       O        0.75520    0.85280    0.49959    1.000
    O4       O        0.79690    0.82220    0.47021    1.000
    O5       O        0.97710    0.36620    0.20510    1.000
    O6       O        0.00860    0.29940    0.22046    1.000
    O7       O        0.78900    0.12580    0.44333    1.000
    O8       O        0.80710    0.41040    0.41900    1.000
    O9       O        0.89160    0.26200    0.33387    1.000
    N1       N        0.73870    0.37170    0.45067    1.000
    H1       H        0.71610    0.33800    0.45890    1.000
    N2       N        0.76480    0.30630    0.43047    1.000
    H2       H        0.74370    0.28090    0.44200    1.000
    N3       N        0.82520    0.06850    0.42292    1.000
    H3       H        0.83860    0.06590    0.40890    1.000
    N4       N        0.83470    0.15770    0.40524    1.000
    H4       H        0.85430    0.15030    0.39400    1.000
    N5       N        0.85230    0.31920    0.35214    1.000
    H5       H        0.84740    0.35140    0.35030    1.000
    N6       N        0.89090    0.34390    0.31408    1.000
    H6       H        0.88150    0.37340    0.31560    1.000
    C1       C        0.71920    0.58150    0.48091    1.000
    C2       C        0.72740    0.52710    0.47385    1.000
    C3       C        0.67940    0.46750    0.47922    1.000
    H7       H        0.64500    0.46240    0.48820    1.000
    C4       C        0.68150    0.41350    0.47118    1.000
    H8       H        0.64920    0.37260    0.47450    1.000
    C5       C        0.73590    0.42560    0.45778    1.000
    C6       C        0.78400    0.48540    0.45219    1.000
    H9       H        0.81930    0.49130    0.44370    1.000
    C7       C        0.77840    0.53860    0.45987    1.000
    H10      H        0.80840    0.57960    0.45550    1.000
    C8       C        0.77320    0.36640    0.43216    1.000
    C9       C        0.78600    0.28160    0.41274    1.000
    C10      C        0.79540    0.23180    0.41946    1.000
    H11      H        0.78310    0.21340    0.43460    1.000
    C11      C        0.82390    0.20990    0.40290    1.000
    C12      C        0.84280    0.23660    0.38020    1.000
    H12      H        0.86190    0.22230    0.36940    1.000
    C13      C        0.83160    0.28730    0.37414    1.000
    C14      C        0.80420    0.30970    0.39020    1.000
    H13      H        0.79810    0.34310    0.38600    1.000
    C15      C        0.81370    0.11820    0.42571    1.000
    C16      C        0.81860    0.02230    0.43898    1.000
    C17      C        0.78820    0.01160    0.46097    1.000
    H14      H        0.77450    0.03820    0.46690    1.000
    C18      C        0.77930    0.95810    0.47382    1.000
    H15      H        0.75890    0.94940    0.48870    1.000
    C19      C        0.79870    0.91910    0.46571    1.000
    C20      C        0.82930    0.92970    0.44273    1.000
    H16      H        0.84090    0.90140    0.43680    1.000
    C21      C        0.84140    0.98310    0.42936    1.000
    H17      H        0.86320    0.99270    0.41480    1.000
    C22      C        0.78640    0.86220    0.47978    1.000
    C23      C        0.87910    0.30540    0.33334    1.000
    C24      C        0.91690    0.34040    0.29188    1.000
    C25      C        0.94450    0.30490    0.28745    1.000
    H18      H        0.94840    0.28140    0.29990    1.000
    C26      C        0.96680    0.30320    0.26481    1.000
    H19      H        0.98570    0.27890    0.26210    1.000
    C27      C        0.96130    0.33800    0.24584    1.000
    C28      C        0.93520    0.37480    0.25010    1.000
    H20      H        0.93390    0.39980    0.23770    1.000
    C29      C        0.91020    0.37620    0.27290    1.000
    H21      H        0.89010    0.39950    0.27550    1.000
    C30      C        0.98490    0.33560    0.22118    1.000
    In2      In       0.27100    0.04949    0.80811    1.000
    O10      O        0.36550    0.12900    0.80793    1.000
    O11      O        0.43140    0.09980    0.82465    1.000
    O12      O        0.14720    0.90240    0.83292    1.000
    O13      O        0.17780    0.97470    0.80354    1.000
    O14      O        0.63380    0.61090    0.53843    1.000
    O15      O        0.70060    0.70920    0.55379    1.000
    O16      O        0.87420    0.66320    0.77666    1.000
    O17      O        0.58960    0.39670    0.75233    1.000
    O18      O        0.73800    0.62960    0.66720    1.000
    N7       N        0.62830    0.36700    0.78400    1.000
    H22      H        0.66200    0.37810    0.79223    1.000
    N8       N        0.69370    0.45850    0.76380    1.000
    H23      H        0.71910    0.46280    0.77533    1.000
    N9       N        0.93150    0.75670    0.75625    1.000
    H24      H        0.93410    0.77270    0.74223    1.000
    N10      N        0.84230    0.67700    0.73857    1.000
    H25      H        0.84970    0.70400    0.72733    1.000
    N11      N        0.68080    0.53310    0.68547    1.000
    H26      H        0.64860    0.49600    0.68363    1.000
    N12      N        0.65610    0.54700    0.64741    1.000
    H27      H        0.62660    0.50810    0.64893    1.000
    C31      C        0.41850    0.13770    0.81424    1.000
    C32      C        0.47290    0.20030    0.80718    1.000
    C33      C        0.53250    0.21190    0.81255    1.000
    H28      H        0.53760    0.18260    0.82153    1.000
    C34      C        0.58650    0.26800    0.80451    1.000
    H29      H        0.62740    0.27660    0.80783    1.000
    C35      C        0.57440    0.31030    0.79111    1.000
    C36      C        0.51460    0.29860    0.78552    1.000
    H30      H        0.50870    0.32800    0.77703    1.000
    C37      C        0.46140    0.23980    0.79320    1.000
    H31      H        0.42040    0.22880    0.78883    1.000
    C38      C        0.63360    0.40680    0.76549    1.000
    C39      C        0.71840    0.50440    0.74607    1.000
    C40      C        0.76820    0.56360    0.75279    1.000
    H32      H        0.78660    0.56970    0.76793    1.000
    C41      C        0.79010    0.61400    0.73623    1.000
    C42      C        0.76340    0.60620    0.71353    1.000
    H33      H        0.77770    0.63960    0.70273    1.000
    C43      C        0.71270    0.54430    0.70747    1.000
    C44      C        0.69030    0.49450    0.72353    1.000
    H34      H        0.65690    0.45500    0.71933    1.000
    C45      C        0.88180    0.69550    0.75904    1.000
    C46      C        0.97770    0.79630    0.77231    1.000
    C47      C        0.98840    0.77660    0.79430    1.000
    H35      H        0.96180    0.73630    0.80023    1.000
    C48      C        0.04190    0.82120    0.80715    1.000
    H36      H        0.05060    0.80950    0.82203    1.000
    C49      C        0.08090    0.87960    0.79904    1.000
    C50      C        0.07030    0.89960    0.77606    1.000
    H37      H        0.09860    0.93950    0.77013    1.000
    C51      C        0.01690    0.85830    0.76269    1.000
    H38      H        0.00730    0.87050    0.74813    1.000
    C52      C        0.13780    0.92420    0.81311    1.000
    C53      C        0.69460    0.57370    0.66667    1.000
    C54      C        0.65960    0.57650    0.62521    1.000
    C55      C        0.69510    0.63960    0.62078    1.000
    H39      H        0.71860    0.66700    0.63323    1.000
    C56      C        0.69680    0.66360    0.59814    1.000
    H40      H        0.72110    0.70680    0.59543    1.000
    C57      C        0.66200    0.62330    0.57917    1.000
    C58      C        0.62520    0.56040    0.58343    1.000
    H41      H        0.60020    0.53410    0.57103    1.000
    C59      C        0.62380    0.53400    0.60623    1.000
    H42      H        0.60050    0.49060    0.60883    1.000
    C60      C        0.66440    0.64930    0.55451    1.000
    In3      In       0.95051    0.22151    0.14145    1.000
    O19      O        0.87100    0.23650    0.14127    1.000
    O20      O        0.90020    0.33160    0.15799    1.000
    O21      O        0.09760    0.24480    0.16626    1.000
    O22      O        0.02530    0.20310    0.13688    1.000
    O23      O        0.38910    0.02290    0.87177    1.000
    O24      O        0.29080    0.99140    0.88713    1.000
    O25      O        0.33680    0.21100    0.11000    1.000
    O26      O        0.60330    0.19290    0.08567    1.000
    O27      O        0.37040    0.10840    0.00054    1.000
    N13      N        0.63300    0.26130    0.11734    1.000
    H43      H        0.62190    0.28390    0.12557    1.000
    N14      N        0.54150    0.23520    0.09714    1.000
    H44      H        0.53720    0.25630    0.10867    1.000
    N15      N        0.24330    0.17480    0.08959    1.000
    H45      H        0.22730    0.16140    0.07557    1.000
    N16      N        0.32300    0.16530    0.07191    1.000
    H46      H        0.29600    0.14570    0.06067    1.000
    N17      N        0.46690    0.14770    0.01881    1.000
    H47      H        0.50400    0.15260    0.01697    1.000
    N18      N        0.45300    0.10910    0.98075    1.000
    H48      H        0.49190    0.11850    0.98227    1.000
    C61      C        0.86230    0.28080    0.14758    1.000
    C62      C        0.79970    0.27260    0.14052    1.000
    C63      C        0.78810    0.32060    0.14589    1.000
    H49      H        0.81740    0.35500    0.15487    1.000
    C64      C        0.73200    0.31850    0.13785    1.000
    H50      H        0.72340    0.35080    0.14117    1.000
    C65      C        0.68970    0.26410    0.12445    1.000
    C66      C        0.70140    0.21600    0.11886    1.000
    H51      H        0.67200    0.18070    0.11037    1.000
    C67      C        0.76020    0.22160    0.12654    1.000
    H52      H        0.77120    0.19160    0.12217    1.000
    C68      C        0.59320    0.22680    0.09883    1.000
    C69      C        0.49560    0.21400    0.07941    1.000
    C70      C        0.43640    0.20460    0.08613    1.000
    H53      H        0.43030    0.21690    0.10127    1.000
    C71      C        0.38600    0.17610    0.06957    1.000
    C72      C        0.39380    0.15720    0.04687    1.000
    H54      H        0.36040    0.13810    0.03607    1.000
    C73      C        0.45570    0.16840    0.04081    1.000
    C74      C        0.50550    0.19580    0.05687    1.000
    H55      H        0.54500    0.20190    0.05267    1.000
    C75      C        0.30450    0.18630    0.09238    1.000
    C76      C        0.20370    0.18140    0.10565    1.000
    C77      C        0.22340    0.21180    0.12764    1.000
    H56      H        0.26370    0.22550    0.13357    1.000
    C78      C        0.17880    0.22070    0.14049    1.000
    H57      H        0.19050    0.24110    0.15537    1.000
    C79      C        0.12040    0.20130    0.13238    1.000
    C80      C        0.10040    0.17070    0.10940    1.000
    H58      H        0.06050    0.15910    0.10347    1.000
    C81      C        0.14170    0.15860    0.09603    1.000
    H59      H        0.12950    0.13680    0.08147    1.000
    C82      C        0.07580    0.21360    0.14645    1.000
    C83      C        0.42630    0.12090    0.00001    1.000
    C84      C        0.42350    0.08310    0.95855    1.000
    C85      C        0.36040    0.05550    0.95412    1.000
    H60      H        0.33300    0.05160    0.96657    1.000
    C86      C        0.33640    0.03320    0.93148    1.000
    H61      H        0.29320    0.01430    0.92877    1.000
    C87      C        0.37670    0.03870    0.91251    1.000
    C88      C        0.43960    0.06480    0.91677    1.000
    H62      H        0.46590    0.06610    0.90437    1.000
    C89      C        0.46600    0.08980    0.93957    1.000
    H63      H        0.50940    0.10990    0.94217    1.000
    C90      C        0.35070    0.01510    0.88785    1.000
    In4      In       0.72900    0.77849    0.52522    1.000
    O28      O        0.63450    0.76350    0.52540    1.000
    O29      O        0.56860    0.66840    0.50868    1.000
    O30      O        0.85280    0.75520    0.50041    1.000
    O31      O        0.82220    0.79690    0.52979    1.000
    O32      O        0.36620    0.97710    0.79490    1.000
    O33      O        0.29940    0.00860    0.77954    1.000
    O34      O        0.12580    0.78900    0.55667    1.000
    O35      O        0.41040    0.80710    0.58100    1.000
    O36      O        0.26200    0.89160    0.66613    1.000
    N19      N        0.37170    0.73870    0.54933    1.000
    H64      H        0.33800    0.71610    0.54110    1.000
    N20      N        0.30630    0.76480    0.56953    1.000
    H65      H        0.28090    0.74370    0.55800    1.000
    N21      N        0.06850    0.82520    0.57708    1.000
    H66      H        0.06590    0.83860    0.59110    1.000
    N22      N        0.15770    0.83470    0.59476    1.000
    H67      H        0.15030    0.85430    0.60600    1.000
    N23      N        0.31920    0.85230    0.64786    1.000
    H68      H        0.35140    0.84740    0.64970    1.000
    N24      N        0.34390    0.89090    0.68592    1.000
    H69      H        0.37340    0.88150    0.68440    1.000
    C91      C        0.58150    0.71920    0.51909    1.000
    C92      C        0.52710    0.72740    0.52615    1.000
    C93      C        0.46750    0.67940    0.52078    1.000
    H70      H        0.46240    0.64500    0.51180    1.000
    C94      C        0.41350    0.68150    0.52882    1.000
    H71      H        0.37260    0.64920    0.52550    1.000
    C95      C        0.42560    0.73590    0.54222    1.000
    C96      C        0.48540    0.78400    0.54781    1.000
    H72      H        0.49130    0.81930    0.55630    1.000
    C97      C        0.53860    0.77840    0.54013    1.000
    H73      H        0.57960    0.80840    0.54450    1.000
    C98      C        0.36640    0.77320    0.56784    1.000
    C99      C        0.28160    0.78600    0.58726    1.000
    C100     C        0.23180    0.79540    0.58054    1.000
    H74      H        0.21340    0.78310    0.56540    1.000
    C101     C        0.20990    0.82390    0.59710    1.000
    C102     C        0.23660    0.84280    0.61980    1.000
    H75      H        0.22230    0.86190    0.63060    1.000
    C103     C        0.28730    0.83160    0.62586    1.000
    C104     C        0.30970    0.80420    0.60980    1.000
    H76      H        0.34310    0.79810    0.61400    1.000
    C105     C        0.11820    0.81370    0.57429    1.000
    C106     C        0.02230    0.81860    0.56102    1.000
    C107     C        0.01160    0.78820    0.53903    1.000
    H77      H        0.03820    0.77450    0.53310    1.000
    C108     C        0.95810    0.77930    0.52618    1.000
    H78      H        0.94940    0.75890    0.51130    1.000
    C109     C        0.91910    0.79870    0.53429    1.000
    C110     C        0.92970    0.82930    0.55727    1.000
    H79      H        0.90140    0.84090    0.56320    1.000
    C111     C        0.98310    0.84140    0.57064    1.000
    H80      H        0.99270    0.86320    0.58520    1.000
    C112     C        0.86220    0.78640    0.52022    1.000
    C113     C        0.30540    0.87910    0.66666    1.000
    C114     C        0.34040    0.91690    0.70812    1.000
    C115     C        0.30490    0.94450    0.71255    1.000
    H81      H        0.28140    0.94840    0.70010    1.000
    C116     C        0.30320    0.96680    0.73519    1.000
    H82      H        0.27890    0.98570    0.73790    1.000
    C117     C        0.33800    0.96130    0.75416    1.000
    C118     C        0.37480    0.93520    0.74990    1.000
    H83      H        0.39980    0.93390    0.76230    1.000
    C119     C        0.37620    0.91020    0.72710    1.000
    H84      H        0.39950    0.89010    0.72450    1.000
    C120     C        0.33560    0.98490    0.77882    1.000
    In5      In       0.04949    0.27100    0.19189    1.000
    O37      O        0.12900    0.36550    0.19207    1.000
    O38      O        0.09980    0.43140    0.17535    1.000
    O39      O        0.90240    0.14720    0.16708    1.000
    O40      O        0.97470    0.17780    0.19646    1.000
    O41      O        0.61090    0.63380    0.46157    1.000
    O42      O        0.70920    0.70060    0.44621    1.000
    O43      O        0.66320    0.87420    0.22334    1.000
    O44      O        0.39670    0.58960    0.24767    1.000
    O45      O        0.62960    0.73800    0.33280    1.000
    N25      N        0.36700    0.62830    0.21600    1.000
    H85      H        0.37810    0.66200    0.20777    1.000
    N26      N        0.45850    0.69370    0.23620    1.000
    H86      H        0.46280    0.71910    0.22467    1.000
    N27      N        0.75670    0.93150    0.24375    1.000
    H87      H        0.77270    0.93410    0.25777    1.000
    N28      N        0.67700    0.84230    0.26143    1.000
    H88      H        0.70400    0.84970    0.27267    1.000
    N29      N        0.53310    0.68080    0.31453    1.000
    H89      H        0.49600    0.64860    0.31637    1.000
    N30      N        0.54700    0.65610    0.35259    1.000
    H90      H        0.50810    0.62660    0.35107    1.000
    C121     C        0.13770    0.41850    0.18576    1.000
    C122     C        0.20030    0.47290    0.19282    1.000
    C123     C        0.21190    0.53250    0.18745    1.000
    H91      H        0.18260    0.53760    0.17847    1.000
    C124     C        0.26800    0.58650    0.19549    1.000
    H92      H        0.27660    0.62740    0.19217    1.000
    C125     C        0.31030    0.57440    0.20889    1.000
    C126     C        0.29860    0.51460    0.21448    1.000
    H93      H        0.32800    0.50870    0.22297    1.000
    C127     C        0.23980    0.46140    0.20680    1.000
    H94      H        0.22880    0.42040    0.21117    1.000
    C128     C        0.40680    0.63360    0.23451    1.000
    C129     C        0.50440    0.71840    0.25393    1.000
    C130     C        0.56360    0.76820    0.24721    1.000
    H95      H        0.56970    0.78660    0.23207    1.000
    C131     C        0.61400    0.79010    0.26377    1.000
    C132     C        0.60620    0.76340    0.28647    1.000
    H96      H        0.63960    0.77770    0.29727    1.000
    C133     C        0.54430    0.71270    0.29253    1.000
    C134     C        0.49450    0.69030    0.27647    1.000
    H97      H        0.45500    0.65690    0.28067    1.000
    C135     C        0.69550    0.88180    0.24096    1.000
    C136     C        0.79630    0.97770    0.22769    1.000
    C137     C        0.77660    0.98840    0.20570    1.000
    H98      H        0.73630    0.96180    0.19977    1.000
    C138     C        0.82120    0.04190    0.19285    1.000
    H99      H        0.80950    0.05060    0.17797    1.000
    C139     C        0.87960    0.08090    0.20096    1.000
    C140     C        0.89960    0.07030    0.22394    1.000
    H100     H        0.93950    0.09860    0.22987    1.000
    C141     C        0.85830    0.01690    0.23731    1.000
    H101     H        0.87050    0.00730    0.25187    1.000
    C142     C        0.92420    0.13780    0.18689    1.000
    C143     C        0.57370    0.69460    0.33333    1.000
    C144     C        0.57650    0.65960    0.37479    1.000
    C145     C        0.63960    0.69510    0.37922    1.000
    H102     H        0.66700    0.71860    0.36677    1.000
    C146     C        0.66360    0.69680    0.40186    1.000
    H103     H        0.70680    0.72110    0.40457    1.000
    C147     C        0.62330    0.66200    0.42083    1.000
    C148     C        0.56040    0.62520    0.41657    1.000
    H104     H        0.53410    0.60020    0.42897    1.000
    C149     C        0.53400    0.62380    0.39377    1.000
    H105     H        0.49060    0.60050    0.39117    1.000
    C150     C        0.64930    0.66440    0.44549    1.000
    In6      In       0.22151    0.95051    0.85855    1.000
    O46      O        0.23650    0.87100    0.85873    1.000
    O47      O        0.33160    0.90020    0.84201    1.000
    O48      O        0.24480    0.09760    0.83374    1.000
    O49      O        0.20310    0.02530    0.86312    1.000
    O50      O        0.02290    0.38910    0.12823    1.000
    O51      O        0.99140    0.29080    0.11287    1.000
    O52      O        0.21100    0.33680    0.89000    1.000
    O53      O        0.19290    0.60330    0.91433    1.000
    O54      O        0.10840    0.37040    0.99946    1.000
    N31      N        0.26130    0.63300    0.88266    1.000
    H106     H        0.28390    0.62190    0.87443    1.000
    N32      N        0.23520    0.54150    0.90286    1.000
    H107     H        0.25630    0.53720    0.89133    1.000
    N33      N        0.17480    0.24330    0.91041    1.000
    H108     H        0.16140    0.22730    0.92443    1.000
    N34      N        0.16530    0.32300    0.92809    1.000
    H109     H        0.14570    0.29600    0.93933    1.000
    N35      N        0.14770    0.46690    0.98119    1.000
    H110     H        0.15260    0.50400    0.98303    1.000
    N36      N        0.10910    0.45300    0.01925    1.000
    H111     H        0.11850    0.49190    0.01773    1.000
    C151     C        0.28080    0.86230    0.85242    1.000
    C152     C        0.27260    0.79970    0.85948    1.000
    C153     C        0.32060    0.78810    0.85411    1.000
    H112     H        0.35500    0.81740    0.84513    1.000
    C154     C        0.31850    0.73200    0.86215    1.000
    H113     H        0.35080    0.72340    0.85883    1.000
    C155     C        0.26410    0.68970    0.87555    1.000
    C156     C        0.21600    0.70140    0.88114    1.000
    H114     H        0.18070    0.67200    0.88963    1.000
    C157     C        0.22160    0.76020    0.87346    1.000
    H115     H        0.19160    0.77120    0.87783    1.000
    C158     C        0.22680    0.59320    0.90117    1.000
    C159     C        0.21400    0.49560    0.92059    1.000
    C160     C        0.20460    0.43640    0.91387    1.000
    H116     H        0.21690    0.43030    0.89873    1.000
    C161     C        0.17610    0.38600    0.93043    1.000
    C162     C        0.15720    0.39380    0.95313    1.000
    H117     H        0.13810    0.36040    0.96393    1.000
    C163     C        0.16840    0.45570    0.95919    1.000
    C164     C        0.19580    0.50550    0.94313    1.000
    H118     H        0.20190    0.54500    0.94733    1.000
    C165     C        0.18630    0.30450    0.90762    1.000
    C166     C        0.18140    0.20370    0.89435    1.000
    C167     C        0.21180    0.22340    0.87236    1.000
    H119     H        0.22550    0.26370    0.86643    1.000
    C168     C        0.22070    0.17880    0.85951    1.000
    H120     H        0.24110    0.19050    0.84463    1.000
    C169     C        0.20130    0.12040    0.86762    1.000
    C170     C        0.17070    0.10040    0.89060    1.000
    H121     H        0.15910    0.06050    0.89653    1.000
    C171     C        0.15860    0.14170    0.90397    1.000
    H122     H        0.13680    0.12950    0.91853    1.000
    C172     C        0.21360    0.07580    0.85355    1.000
    C173     C        0.12090    0.42630    0.99999    1.000
    C174     C        0.08310    0.42350    0.04145    1.000
    C175     C        0.05550    0.36040    0.04588    1.000
    H123     H        0.05160    0.33300    0.03343    1.000
    C176     C        0.03320    0.33640    0.06852    1.000
    H124     H        0.01430    0.29320    0.07123    1.000
    C177     C        0.03870    0.37670    0.08749    1.000
    C178     C        0.06480    0.43960    0.08323    1.000
    H125     H        0.06610    0.46590    0.09563    1.000
    C179     C        0.08980    0.46600    0.06043    1.000
    H126     H        0.10990    0.50940    0.05783    1.000
    C180     C        0.01510    0.35070    0.11215    1.000
    In7      In       0.62836    0.62836    0.50000    1.000
    O55      O        0.71550    0.71550    0.50000    1.000
    In8      In       0.37164    0.00000    0.83333    1.000
    O56      O        0.28450    0.00000    0.83333    1.000
    In9      In       0.00000    0.37164    0.16667    1.000
    O57      O        0.00000    0.28450    0.16667    1.000
