# CIF file generated by openbabel 3.1.0, see https://openbabel.org
data_I
_chemical_name_common 'image0'
_cell_length_a 26.0818
_cell_length_b 26.0818
_cell_length_c 6.8783
_cell_angle_alpha 90
_cell_angle_beta 90
_cell_angle_gamma 120
_space_group_name_H-M_alt 'P 1'
_space_group_name_Hall 'P 1'
loop_
    _symmetry_equiv_pos_as_xyz
    x,y,z
loop_
    _atom_site_label
    _atom_site_type_symbol
    _atom_site_fract_x
    _atom_site_fract_y
    _atom_site_fract_z
    _atom_site_occupancy
    Fe1      Fe       0.38620    0.35570    0.13420    1.000
    O1       O        0.32560    0.29660    0.36970    1.000
    O2       O        0.35730    0.26680    0.00980    1.000
    O3       O        0.43730    0.40730    0.92370    1.000
    C1       C        0.32060    0.24940    0.42030    1.000
    C2       C        0.34100    0.21640    0.11720    1.000
    C3       C        0.31570    0.19940    0.30030    1.000
    C4       C        0.34510    0.18180    0.97550    1.000
    H1       H        0.36130    0.19280    0.83820    1.000
    Fe2      Fe       0.05287    0.68903    0.46753    1.000
    O4       O        0.99227    0.62993    0.70303    1.000
    O5       O        0.02397    0.60013    0.34313    1.000
    O6       O        0.10397    0.74063    0.25703    1.000
    C5       C        0.98727    0.58273    0.75363    1.000
    C6       C        0.00767    0.54973    0.45053    1.000
    C7       C        0.98237    0.53273    0.63363    1.000
    C8       C        0.01177    0.51513    0.30883    1.000
    H2       H        0.02797    0.52613    0.17153    1.000
    Fe3      Fe       0.71953    0.02237    0.80087    1.000
    O7       O        0.65893    0.96327    0.03637    1.000
    O8       O        0.69063    0.93347    0.67647    1.000
    O9       O        0.77063    0.07397    0.59037    1.000
    C9       C        0.65393    0.91607    0.08697    1.000
    C10      C        0.67433    0.88307    0.78387    1.000
    C11      C        0.64903    0.86607    0.96697    1.000
    C12      C        0.67843    0.84847    0.64217    1.000
    H3       H        0.69463    0.85947    0.50487    1.000
    Fe4      Fe       0.64430    0.03050    0.13420    1.000
    O10      O        0.70340    0.02900    0.36970    1.000
    O11      O        0.73320    0.09050    0.00980    1.000
    O12      O        0.59270    0.03000    0.92370    1.000
    C13      C        0.75060    0.07120    0.42030    1.000
    C14      C        0.78360    0.12460    0.11720    1.000
    C15      C        0.80060    0.11630    0.30030    1.000
    C16      C        0.81820    0.16330    0.97550    1.000
    H4       H        0.80720    0.16850    0.83820    1.000
    Fe5      Fe       0.31097    0.36383    0.46753    1.000
    O13      O        0.37007    0.36233    0.70303    1.000
    O14      O        0.39987    0.42383    0.34313    1.000
    O15      O        0.25937    0.36333    0.25703    1.000
    C17      C        0.41727    0.40453    0.75363    1.000
    C18      C        0.45027    0.45793    0.45053    1.000
    C19      C        0.46727    0.44963    0.63363    1.000
    C20      C        0.48487    0.49663    0.30883    1.000
    H5       H        0.47387    0.50183    0.17153    1.000
    Fe6      Fe       0.97763    0.69717    0.80087    1.000
    O16      O        0.03673    0.69567    0.03637    1.000
    O17      O        0.06653    0.75717    0.67647    1.000
    O18      O        0.92603    0.69667    0.59037    1.000
    C21      C        0.08393    0.73787    0.08697    1.000
    C22      C        0.11693    0.79127    0.78387    1.000
    C23      C        0.13393    0.78297    0.96697    1.000
    C24      C        0.15153    0.82997    0.64217    1.000
    H6       H        0.14053    0.83517    0.50487    1.000
    Fe7      Fe       0.96950    0.61380    0.13420    1.000
    O19      O        0.97100    0.67440    0.36970    1.000
    O20      O        0.90950    0.64270    0.00980    1.000
    O21      O        0.97000    0.56270    0.92370    1.000
    C25      C        0.92880    0.67940    0.42030    1.000
    C26      C        0.87540    0.65900    0.11720    1.000
    C27      C        0.88370    0.68430    0.30030    1.000
    C28      C        0.83670    0.65490    0.97550    1.000
    H7       H        0.83150    0.63870    0.83820    1.000
    Fe8      Fe       0.63617    0.94713    0.46753    1.000
    O22      O        0.63767    0.00773    0.70303    1.000
    O23      O        0.57617    0.97603    0.34313    1.000
    O24      O        0.63667    0.89603    0.25703    1.000
    C29      C        0.59547    0.01273    0.75363    1.000
    C30      C        0.54207    0.99233    0.45053    1.000
    C31      C        0.55037    0.01763    0.63363    1.000
    C32      C        0.50337    0.98823    0.30883    1.000
    H8       H        0.49817    0.97203    0.17153    1.000
    Fe9      Fe       0.30283    0.28047    0.80087    1.000
    O25      O        0.30433    0.34107    0.03637    1.000
    O26      O        0.24283    0.30937    0.67647    1.000
    O27      O        0.30333    0.22937    0.59037    1.000
    C33      C        0.26213    0.34607    0.08697    1.000
    C34      C        0.20873    0.32567    0.78387    1.000
    C35      C        0.21703    0.35097    0.96697    1.000
    C36      C        0.17003    0.32157    0.64217    1.000
    H9       H        0.16483    0.30537    0.50487    1.000
    Fe10     Fe       0.61380    0.64430    0.86580    1.000
    O28      O        0.67440    0.70340    0.63030    1.000
    O29      O        0.64270    0.73320    0.99020    1.000
    O30      O        0.56270    0.59270    0.07630    1.000
    C37      C        0.67940    0.75060    0.57970    1.000
    C38      C        0.65900    0.78360    0.88280    1.000
    C39      C        0.68430    0.80060    0.69970    1.000
    C40      C        0.65490    0.81820    0.02450    1.000
    H10      H        0.63870    0.80720    0.16180    1.000
    Fe11     Fe       0.28047    0.97763    0.19913    1.000
    O31      O        0.34107    0.03673    0.96363    1.000
    O32      O        0.30937    0.06653    0.32353    1.000
    O33      O        0.22937    0.92603    0.40963    1.000
    C41      C        0.34607    0.08393    0.91303    1.000
    C42      C        0.32567    0.11693    0.21613    1.000
    C43      C        0.35097    0.13393    0.03303    1.000
    C44      C        0.32157    0.15153    0.35783    1.000
    H11      H        0.30537    0.14053    0.49513    1.000
    Fe12     Fe       0.94713    0.31097    0.53247    1.000
    O34      O        0.00773    0.37007    0.29697    1.000
    O35      O        0.97603    0.39987    0.65687    1.000
    O36      O        0.89603    0.25937    0.74297    1.000
    C45      C        0.01273    0.41727    0.24637    1.000
    C46      C        0.99233    0.45027    0.54947    1.000
    C47      C        0.01763    0.46727    0.36637    1.000
    C48      C        0.98823    0.48487    0.69117    1.000
    H12      H        0.97203    0.47387    0.82847    1.000
    Fe13     Fe       0.35570    0.96950    0.86580    1.000
    O37      O        0.29660    0.97100    0.63030    1.000
    O38      O        0.26680    0.90950    0.99020    1.000
    O39      O        0.40730    0.97000    0.07630    1.000
    C49      C        0.24940    0.92880    0.57970    1.000
    C50      C        0.21640    0.87540    0.88280    1.000
    C51      C        0.19940    0.88370    0.69970    1.000
    C52      C        0.18180    0.83670    0.02450    1.000
    H13      H        0.19280    0.83150    0.16180    1.000
    Fe14     Fe       0.02237    0.30283    0.19913    1.000
    O40      O        0.96327    0.30433    0.96363    1.000
    O41      O        0.93347    0.24283    0.32353    1.000
    O42      O        0.07397    0.30333    0.40963    1.000
    C53      C        0.91607    0.26213    0.91303    1.000
    C54      C        0.88307    0.20873    0.21613    1.000
    C55      C        0.86607    0.21703    0.03303    1.000
    C56      C        0.84847    0.17003    0.35783    1.000
    H14      H        0.85947    0.16483    0.49513    1.000
    Fe15     Fe       0.68903    0.63617    0.53247    1.000
    O43      O        0.62993    0.63767    0.29697    1.000
    O44      O        0.60013    0.57617    0.65687    1.000
    O45      O        0.74063    0.63667    0.74297    1.000
    C57      C        0.58273    0.59547    0.24637    1.000
    C58      C        0.54973    0.54207    0.54947    1.000
    C59      C        0.53273    0.55037    0.36637    1.000
    C60      C        0.51513    0.50337    0.69117    1.000
    H15      H        0.52613    0.49817    0.82847    1.000
    Fe16     Fe       0.03050    0.38620    0.86580    1.000
    O46      O        0.02900    0.32560    0.63030    1.000
    O47      O        0.09050    0.35730    0.99020    1.000
    O48      O        0.03000    0.43730    0.07630    1.000
    C61      C        0.07120    0.32060    0.57970    1.000
    C62      C        0.12460    0.34100    0.88280    1.000
    C63      C        0.11630    0.31570    0.69970    1.000
    C64      C        0.16330    0.34510    0.02450    1.000
    H16      H        0.16850    0.36130    0.16180    1.000
    Fe17     Fe       0.69717    0.71953    0.19913    1.000
    O49      O        0.69567    0.65893    0.96363    1.000
    O50      O        0.75717    0.69063    0.32353    1.000
    O51      O        0.69667    0.77063    0.40963    1.000
    C65      C        0.73787    0.65393    0.91303    1.000
    C66      C        0.79127    0.67433    0.21613    1.000
    C67      C        0.78297    0.64903    0.03303    1.000
    C68      C        0.82997    0.67843    0.35783    1.000
    H17      H        0.83517    0.69463    0.49513    1.000
    Fe18     Fe       0.36383    0.05287    0.53247    1.000
    O52      O        0.36233    0.99227    0.29697    1.000
    O53      O        0.42383    0.02397    0.65687    1.000
    O54      O        0.36333    0.10397    0.74297    1.000
    C69      C        0.40453    0.98727    0.24637    1.000
    C70      C        0.45793    0.00767    0.54947    1.000
    C71      C        0.44963    0.98237    0.36637    1.000
    C72      C        0.49663    0.01177    0.69117    1.000
    H18      H        0.50183    0.02797    0.82847    1.000
