data_functionalizedCrystal
_audit_creation_method	'EQeq! by Chris Wilmer'
_symmetry_space_group_name_H-M	'P1'
_symmetry_Int_Tables_number	1
_symmetry_cell_setting	triclinic
loop_
_symmetry_equiv_pos_as_xyz
  x,y,z
_cell_length_a	15.5285
_cell_length_b	15.7542
_cell_length_c	15.8691
_cell_angle_alpha	107.604
_cell_angle_beta	109.573
_cell_angle_gamma	109.808
loop_
_atom_site_label
_atom_site_type_symbol
_atom_site_fract_x
_atom_site_fract_y
_atom_site_fract_z
_atom_site_charge
Mof_Zn	Zn	0.04769	0.30589	0.92891	1.211
Mof_Zn	Zn	0.40677	0.25939	0.88314	1.204
Mof_O 	O 	0.5381	0.3248	0.0093	-0.446
Mof_C 	C 	0.3116	0.5918	0.3025	0.04
Mof_H 	H 	0.3241	0.641	0.2806	0.035
Mof_O 	O 	0.9248	0.1721	0.8597	-0.457
Mof_O 	O 	0.026	0.1299	0.9533	-0.341
Mof_O 	O 	0.1913	0.5243	0.0949	-0.313
Mof_C 	C 	0.3761	0.6179	0.4013	-0.103
Mof_H 	H 	0.431	0.6845	0.4447	0.075
Mof_C 	C 	0.229	0.4941	0.2359	-0.112
Mof_N 	N 	0.9942	0.3664	0.8377	-0.265
Mof_C 	C 	0.0746	0.7953	0.5831	-0.121
Mof_H 	H 	0.0115	0.7592	0.5228	0.081
Mof_O 	O 	0.4339	0.2297	0.0478	-0.334
Mof_C 	C 	0.2128	0.4237	0.2722	0.039
Mof_H 	H 	0.1571	0.3575	0.2288	0.032
Mof_C 	C 	0.8627	0.9295	0.8625	0.025
Mof_H 	H 	0.9273	0.9459	0.9121	0.047
Mof_C 	C 	0.2751	0.4479	0.3686	-0.104
Mof_H 	H 	0.2613	0.3986	0.3901	0.07
Mof_N 	N 	0.4571	0.3432	0.8153	-0.262
Mof_C 	C 	0.955	0.4988	0.6384	0.052
Mof_C 	C 	0.7006	0.4378	0.2137	0.026
Mof_H 	H 	0.7066	0.4679	0.1723	0.045
Mof_C 	C 	0.1334	0.8895	0.6115	0.052
Mof_H 	H 	0.1107	0.9206	0.5744	0.027
Mof_C 	C 	0.7791	0.4835	0.3105	-0.095
Mof_H 	H 	0.8377	0.5452	0.3342	0.075
Mof_N 	N 	0.9366	0.5879	0.5118	-0.133
Mof_C 	C 	0.7751	0.4418	0.3746	0.032
Mof_N 	N 	0.2344	0.2231	0.9829	-0.365
Mof_H 	H 	0.2825	0.2067	0.0009	0.176
Mof_H 	H 	0.1856	0.2059	0.9988	0.17
Mof_N 	N 	0.521	0.6691	0.5922	-0.135
Mof_C 	C 	0.779	0.8325	0.8149	-0.091
Mof_H 	H 	0.7875	0.7849	0.8349	0.065
Mof_O 	O 	0.092	0.3729	0.0713	-0.472
Mof_C 	C 	0.6103	0.3452	0.1759	-0.1
Mof_C 	C 	0.3609	0.5471	0.4368	0.039
Mof_C 	C 	0.0987	0.743	0.6363	0.048
Mof_C 	C 	0.4867	0.4706	0.7261	0.069
Mof_C 	C 	0.6829	0.8036	0.7384	0.031
Mof_C 	C 	0.5846	0.6356	0.7304	-0.125
Mof_H 	H 	0.6357	0.659	0.796	0.075
Mof_N 	N 	0.2051	0.3716	0.8668	-0.063
Mof_C 	C 	0.1977	0.7933	0.7185	-0.116
Mof_H 	H 	0.22	0.7602	0.7533	0.076
Mof_C 	C 	0.499	0.5381	0.678	0.054
Mof_N 	N 	0.2853	0.3677	0.8625	-0.063
Mof_C 	C 	0.6043	0.303	0.2397	0.028
Mof_H 	H 	0.5449	0.2421	0.2164	0.038
Mof_C 	C 	0.6851	0.3496	0.3377	-0.095
Mof_H 	H 	0.6797	0.3197	0.3794	0.066
Mof_C 	C 	0.5938	0.6983	0.6847	0.082
Mof_C 	C 	0.7532	0.9742	0.7595	0.033
Mof_H 	H 	0.744	0.0217	0.7397	0.036
Mof_C 	C 	0.966	0.4521	0.7079	0.087
Mof_C 	C 	0.8639	0.4943	0.4806	0.084
Mof_C 	C 	0.5366	0.5079	0.8296	-0.141
Mof_H 	H 	0.5818	0.5776	0.8719	0.079
Mof_C 	C 	0.6724	0.8794	0.7133	-0.095
Mof_H 	H 	0.608	0.8633	0.6636	0.071
Mof_C 	C 	0.2352	0.9475	0.7016	-0.128
Mof_C 	C 	0.1672	0.4628	0.125	0.365
Mof_C 	C 	0.8692	0.4463	0.5421	-0.124
Mof_H 	H 	0.8165	0.3808	0.5188	0.076
Mof_C 	C 	0.8503	0.0036	0.8359	-0.102
Mof_C 	C 	0.4237	0.3652	0.6687	-0.14
Mof_H 	H 	0.39	0.3355	0.5984	0.083
Mof_C 	C 	0.9326	0.3492	0.6722	-0.162
Mof_H 	H 	0.8995	0.3062	0.603	0.09
Mof_C 	C 	0.4367	0.5743	0.5399	0.078
Mof_C 	C 	0.5196	0.4422	0.8706	0.092
Mof_H 	H 	0.554	0.4693	0.9407	-0.01
Mof_N 	N 	0.3056	0.3053	0.9019	-0.265
Mof_C 	C 	0.0119	0.508	0.8099	-0.161
Mof_H 	H 	0.0347	0.5778	0.8377	0.094
Mof_C 	C 	0.0257	0.4657	0.8725	0.1
Mof_H 	H 	0.0581	0.5073	0.942	-0.008
Mof_C 	C 	0.0292	0.595	0.6701	-0.126
Mof_H 	H 	0.0861	0.6318	0.7353	0.076
Mof_C 	C 	0.5215	0.2965	0.072	0.335
Mof_C 	C 	0.4243	0.5081	0.5809	-0.123
Mof_H 	H 	0.3658	0.4433	0.5435	0.076
Mof_C 	C 	0.9415	0.1079	0.887	0.354
Mof_C 	C 	0.0207	0.639	0.6057	0.075
Mof_N 	N 	0.1707	0.3136	0.9092	-0.259
Mof_C 	C 	0.2652	0.8977	0.749	0.052
Mof_H 	H 	0.3324	0.9319	0.8039	0.033
Mof_C 	C 	0.9485	0.3109	0.7389	0.107
Mof_H 	H 	0.9257	0.2412	0.713	-0.019
Mof_C 	C 	0.4111	0.3057	0.7143	0.083
Mof_H 	H 	0.3685	0.2354	0.6738	0.002
Mof_C 	C 	0.2352	0.2752	0.9302	0.223
Mof_O 	O 	0.3786	0.1053	0.8171	-0.392
Mof_C 	C 	0.2914	0.0512	0.7329	0.306
Mof_O 	O 	0.2603	0.0989	0.6873	-0.306
Mof_Zn	Zn	0.95231	0.69411	0.07109	1.21
Mof_Zn	Zn	0.59323	0.74061	0.11686	1.203
Mof_O 	O 	0.4619	0.6752	0.9907	-0.447
Mof_C 	C 	0.6884	0.4082	0.6975	0.039
Mof_H 	H 	0.6759	0.359	0.7194	0.034
Mof_O 	O 	0.0752	0.8279	0.1403	-0.458
Mof_O 	O 	0.974	0.8701	0.0467	-0.341
Mof_O 	O 	0.8087	0.4757	0.9051	-0.313
Mof_C 	C 	0.6239	0.3821	0.5987	-0.103
Mof_H 	H 	0.569	0.3155	0.5553	0.075
Mof_C 	C 	0.771	0.5059	0.7641	-0.112
Mof_N 	N 	0.0058	0.6336	0.1623	-0.265
Mof_C 	C 	0.9254	0.2047	0.4169	-0.121
Mof_H 	H 	0.9885	0.2408	0.4772	0.081
Mof_O 	O 	0.5661	0.7703	0.9522	-0.334
Mof_C 	C 	0.7872	0.5763	0.7278	0.039
Mof_H 	H 	0.8429	0.6425	0.7712	0.032
Mof_C 	C 	0.1373	0.0705	0.1375	0.025
Mof_H 	H 	0.0727	0.0541	0.0879	0.047
Mof_C 	C 	0.7249	0.5521	0.6314	-0.104
Mof_H 	H 	0.7387	0.6014	0.6099	0.07
Mof_N 	N 	0.5429	0.6568	0.1847	-0.262
Mof_C 	C 	0.045	0.5012	0.3616	0.052
Mof_C 	C 	0.2994	0.5622	0.7863	0.026
Mof_H 	H 	0.2934	0.5321	0.8277	0.045
Mof_C 	C 	0.8666	0.1105	0.3885	0.052
Mof_H 	H 	0.8893	0.0794	0.4256	0.027
Mof_C 	C 	0.2209	0.5165	0.6895	-0.095
Mof_H 	H 	0.1623	0.4548	0.6658	0.075
Mof_N 	N 	0.0634	0.4121	0.4882	-0.133
Mof_C 	C 	0.2249	0.5582	0.6254	0.032
Mof_N 	N 	0.7656	0.7769	0.0171	-0.365
Mof_H 	H 	0.7175	0.7933	0.9991	0.176
Mof_H 	H 	0.8144	0.7941	0.0012	0.17
Mof_N 	N 	0.479	0.3309	0.4078	-0.135
Mof_C 	C 	0.221	0.1675	0.1851	-0.091
Mof_H 	H 	0.2125	0.2151	0.1651	0.065
Mof_O 	O 	0.908	0.6271	0.9287	-0.472
Mof_C 	C 	0.3897	0.6548	0.8241	-0.1
Mof_C 	C 	0.6391	0.4529	0.5632	0.039
Mof_C 	C 	0.9013	0.257	0.3637	0.048
Mof_C 	C 	0.5133	0.5294	0.2739	0.069
Mof_C 	C 	0.3171	0.1964	0.2616	0.031
Mof_C 	C 	0.4154	0.3644	0.2696	-0.125
Mof_H 	H 	0.3643	0.341	0.204	0.075
Mof_N 	N 	0.7949	0.6284	0.1332	-0.063
Mof_C 	C 	0.8023	0.2067	0.2815	-0.116
Mof_H 	H 	0.78	0.2398	0.2467	0.076
Mof_C 	C 	0.501	0.4619	0.322	0.054
Mof_N 	N 	0.7147	0.6323	0.1375	-0.063
Mof_C 	C 	0.3957	0.697	0.7603	0.028
Mof_H 	H 	0.4551	0.7579	0.7836	0.038
Mof_C 	C 	0.3149	0.6504	0.6623	-0.095
Mof_H 	H 	0.3203	0.6803	0.6206	0.066
Mof_C 	C 	0.4062	0.3017	0.3153	0.082
Mof_C 	C 	0.2468	0.0258	0.2405	0.033
Mof_H 	H 	0.256	0.9783	0.2603	0.036
Mof_C 	C 	0.034	0.5479	0.2921	0.087
Mof_C 	C 	0.1361	0.5057	0.5194	0.084
Mof_C 	C 	0.4634	0.4921	0.1704	-0.141
Mof_H 	H 	0.4182	0.4224	0.1281	0.079
Mof_C 	C 	0.3276	0.1206	0.2867	-0.095
Mof_H 	H 	0.392	0.1367	0.3364	0.071
Mof_C 	C 	0.7648	0.0525	0.2984	-0.128
Mof_C 	C 	0.8328	0.5372	0.875	0.365
Mof_C 	C 	0.1308	0.5537	0.4579	-0.124
Mof_H 	H 	0.1835	0.6192	0.4812	0.076
Mof_C 	C 	0.1497	0.9964	0.1641	-0.102
Mof_C 	C 	0.5763	0.6348	0.3313	-0.14
Mof_H 	H 	0.61	0.6645	0.4016	0.083
Mof_C 	C 	0.0674	0.6508	0.3278	-0.162
Mof_H 	H 	0.1005	0.6938	0.397	0.09
Mof_C 	C 	0.5633	0.4257	0.4601	0.078
Mof_C 	C 	0.4804	0.5578	0.1294	0.092
Mof_H 	H 	0.446	0.5307	0.0593	-0.01
Mof_N 	N 	0.6944	0.6947	0.0981	-0.265
Mof_C 	C 	0.9881	0.492	0.1901	-0.161
Mof_H 	H 	0.9653	0.4222	0.1623	0.094
Mof_C 	C 	0.9743	0.5343	0.1275	0.1
Mof_H 	H 	0.9419	0.4927	0.058	-0.008
Mof_C 	C 	0.9708	0.405	0.3299	-0.126
Mof_H 	H 	0.9139	0.3682	0.2647	0.076
Mof_C 	C 	0.4785	0.7035	0.928	0.335
Mof_C 	C 	0.5757	0.4919	0.4191	-0.123
Mof_H 	H 	0.6342	0.5567	0.4565	0.076
Mof_C 	C 	0.0585	0.8921	0.113	0.354
Mof_C 	C 	0.9793	0.361	0.3943	0.075
Mof_N 	N 	0.8293	0.6864	0.0908	-0.259
Mof_C 	C 	0.7348	0.1023	0.251	0.052
Mof_H 	H 	0.6676	0.0681	0.1961	0.033
Mof_C 	C 	0.0515	0.6891	0.2611	0.107
Mof_H 	H 	0.0743	0.7588	0.287	-0.019
Mof_C 	C 	0.5889	0.6943	0.2857	0.083
Mof_H 	H 	0.6315	0.7646	0.3262	0.002
Mof_C 	C 	0.7648	0.7248	0.0698	0.223
Mof_O 	O 	0.6214	0.8947	0.1829	-0.392
Mof_C 	C 	0.7086	0.9488	0.2671	0.306
Mof_O 	O 	0.7397	0.9011	0.3127	-0.306
_end
