data_functionalizedCrystal
_audit_creation_method	'EQeq! by Chris Wilmer'
_symmetry_space_group_name_H-M	'P1'
_symmetry_Int_Tables_number	1
_symmetry_cell_setting	triclinic
loop_
_symmetry_equiv_pos_as_xyz
  x,y,z
_cell_length_a	22.543
_cell_length_b	22.543
_cell_length_c	35.5167
_cell_angle_alpha	90
_cell_angle_beta	90
_cell_angle_gamma	90
loop_
_atom_site_label
_atom_site_type_symbol
_atom_site_fract_x
_atom_site_fract_y
_atom_site_fract_z
_atom_site_charge
Mof_N 	N 	0.23632	0.09176	0.64109	-0.197
Mof_C 	C 	0.219	0.12319	0.67091	0.088
Mof_H 	H 	0.2483	0.1441	0.6848	-0.016
Mof_C 	C 	0.16087	0.12711	0.68276	-0.162
Mof_H 	H 	0.1506	0.1514	0.7036	0.082
Mof_C 	C 	0.11773	0.09512	0.66383	0.098
Mof_C 	C 	0.13575	0.06162	0.63315	-0.163
Mof_H 	H 	0.1077	0.0391	0.6192	0.082
Mof_C 	C 	0.19464	0.06127	0.62305	0.092
Mof_H 	H 	0.2062	0.0379	0.602	-0.013
Mof_C 	C 	0.05506	0.09613	0.67555	-0.037
Mof_C 	C 	0.03178	0.10078	0.71134	-0.029
Mof_C 	C 	0.06565	0.10069	0.74718	0.101
Mof_C 	C 	0.08374	0.04801	0.7631	-0.164
Mof_H 	H 	0.0773	0.0116	0.7503	0.083
Mof_C 	C 	0.1112	0.04843	0.79768	0.09
Mof_H 	H 	0.1229	0.0115	0.8083	-0.017
Mof_N 	N 	0.12238	0.09776	0.81718	-0.215
Mof_C 	C 	0.10661	0.14722	0.80118	0.105
Mof_H 	H 	0.1159	0.1832	0.8138	-0.031
Mof_C 	C 	0.07743	0.15108	0.76721	-0.177
Mof_H 	H 	0.0655	0.1886	0.7577	0.08
Mof_N 	N 	0.73632	0.59176	0.14109	-0.197
Mof_C 	C 	0.719	0.62319	0.17091	0.088
Mof_H 	H 	0.7483	0.6441	0.1848	-0.016
Mof_C 	C 	0.66087	0.62711	0.18276	-0.162
Mof_H 	H 	0.6506	0.6514	0.2036	0.082
Mof_C 	C 	0.61773	0.59512	0.16383	0.098
Mof_C 	C 	0.63575	0.56162	0.13315	-0.163
Mof_H 	H 	0.6077	0.5391	0.1192	0.082
Mof_C 	C 	0.69464	0.56127	0.12305	0.093
Mof_H 	H 	0.7062	0.5379	0.102	-0.012
Mof_C 	C 	0.55506	0.59613	0.17555	-0.036
Mof_C 	C 	0.53178	0.60078	0.21134	-0.028
Mof_C 	C 	0.56565	0.60069	0.24718	0.102
Mof_C 	C 	0.58374	0.54801	0.2631	-0.163
Mof_H 	H 	0.5773	0.5116	0.2503	0.084
Mof_C 	C 	0.6112	0.54843	0.29768	0.091
Mof_H 	H 	0.6229	0.5115	0.3083	-0.016
Mof_N 	N 	0.62238	0.59776	0.31718	-0.214
Mof_C 	C 	0.60661	0.64722	0.30118	0.106
Mof_H 	H 	0.6159	0.6832	0.3138	-0.03
Mof_C 	C 	0.57743	0.65108	0.26721	-0.176
Mof_H 	H 	0.5655	0.6886	0.2577	0.081
Mof_N 	N 	0.26368	0.90824	0.14109	-0.196
Mof_C 	C 	0.281	0.87681	0.17091	0.089
Mof_H 	H 	0.2517	0.8559	0.1848	-0.015
Mof_C 	C 	0.33913	0.87289	0.18276	-0.161
Mof_H 	H 	0.3494	0.8486	0.2036	0.083
Mof_C 	C 	0.38227	0.90488	0.16383	0.099
Mof_C 	C 	0.36425	0.93838	0.13315	-0.162
Mof_H 	H 	0.3923	0.9609	0.1192	0.083
Mof_C 	C 	0.30536	0.93873	0.12305	0.093
Mof_H 	H 	0.2938	0.9621	0.102	-0.012
Mof_C 	C 	0.44494	0.90387	0.17555	-0.036
Mof_C 	C 	0.46822	0.89922	0.21134	-0.028
Mof_C 	C 	0.43435	0.89931	0.24718	0.102
Mof_C 	C 	0.41626	0.95199	0.2631	-0.163
Mof_H 	H 	0.4227	0.9884	0.2503	0.084
Mof_C 	C 	0.3888	0.95157	0.29768	0.091
Mof_H 	H 	0.3771	0.9885	0.3083	-0.016
Mof_N 	N 	0.37762	0.90224	0.31718	-0.214
Mof_C 	C 	0.39339	0.85278	0.30118	0.106
Mof_H 	H 	0.3841	0.8168	0.3138	-0.03
Mof_C 	C 	0.42257	0.84892	0.26721	-0.176
Mof_H 	H 	0.4345	0.8114	0.2577	0.081
Mof_N 	N 	0.76368	0.40824	0.64109	-0.196
Mof_C 	C 	0.781	0.37681	0.67091	0.089
Mof_H 	H 	0.7517	0.3559	0.6848	-0.015
Mof_C 	C 	0.83913	0.37289	0.68276	-0.161
Mof_H 	H 	0.8494	0.3486	0.7036	0.083
Mof_C 	C 	0.88227	0.40488	0.66383	0.099
Mof_C 	C 	0.86425	0.43838	0.63315	-0.162
Mof_H 	H 	0.8923	0.4609	0.6192	0.083
Mof_C 	C 	0.80536	0.43873	0.62305	0.093
Mof_H 	H 	0.7938	0.4621	0.602	-0.012
Mof_C 	C 	0.94494	0.40387	0.67555	-0.036
Mof_C 	C 	0.96822	0.39922	0.71134	-0.028
Mof_C 	C 	0.93435	0.39931	0.74718	0.102
Mof_C 	C 	0.91626	0.45199	0.7631	-0.164
Mof_H 	H 	0.9227	0.4884	0.7503	0.084
Mof_C 	C 	0.8888	0.45157	0.79768	0.091
Mof_H 	H 	0.8771	0.4885	0.8083	-0.016
Mof_N 	N 	0.87762	0.40224	0.81718	-0.214
Mof_C 	C 	0.89339	0.35278	0.80118	0.106
Mof_H 	H 	0.8841	0.3168	0.8138	-0.03
Mof_C 	C 	0.92257	0.34892	0.76721	-0.176
Mof_H 	H 	0.9345	0.3114	0.7577	0.081
Mof_N 	N 	0.15824	0.98632	0.89109	-0.196
Mof_C 	C 	0.12681	0.969	0.92091	0.089
Mof_H 	H 	0.1059	0.9983	0.9348	-0.015
Mof_C 	C 	0.12289	0.91087	0.93276	-0.161
Mof_H 	H 	0.0986	0.9006	0.9536	0.083
Mof_C 	C 	0.15488	0.86773	0.91383	0.099
Mof_C 	C 	0.18838	0.88575	0.88315	-0.162
Mof_H 	H 	0.2109	0.8577	0.8692	0.083
Mof_C 	C 	0.18873	0.94464	0.87305	0.093
Mof_H 	H 	0.2121	0.9562	0.852	-0.012
Mof_C 	C 	0.15387	0.80506	0.92555	-0.036
Mof_C 	C 	0.14922	0.78178	0.96134	-0.028
Mof_C 	C 	0.14931	0.81565	0.99718	0.102
Mof_C 	C 	0.20199	0.83374	0.0131	-0.164
Mof_H 	H 	0.2384	0.8273	0.0003	0.084
Mof_C 	C 	0.20157	0.8612	0.04768	0.091
Mof_H 	H 	0.2385	0.8729	0.0583	-0.016
Mof_N 	N 	0.15224	0.87238	0.06718	-0.214
Mof_C 	C 	0.10278	0.85661	0.05118	0.106
Mof_H 	H 	0.0668	0.8659	0.0638	-0.03
Mof_C 	C 	0.09892	0.82743	0.01721	-0.176
Mof_H 	H 	0.0614	0.8155	0.0077	0.081
Mof_N 	N 	0.65824	0.48632	0.39109	-0.196
Mof_C 	C 	0.62681	0.469	0.42091	0.089
Mof_H 	H 	0.6059	0.4983	0.4348	-0.015
Mof_C 	C 	0.62289	0.41087	0.43276	-0.161
Mof_H 	H 	0.5986	0.4006	0.4536	0.083
Mof_C 	C 	0.65488	0.36773	0.41383	0.099
Mof_C 	C 	0.68838	0.38575	0.38315	-0.162
Mof_H 	H 	0.7109	0.3577	0.3692	0.083
Mof_C 	C 	0.68873	0.44464	0.37305	0.093
Mof_H 	H 	0.7121	0.4562	0.352	-0.012
Mof_C 	C 	0.65387	0.30506	0.42555	-0.036
Mof_C 	C 	0.64922	0.28178	0.46134	-0.028
Mof_C 	C 	0.64931	0.31565	0.49718	0.102
Mof_C 	C 	0.70199	0.33374	0.5131	-0.163
Mof_H 	H 	0.7384	0.3273	0.5003	0.084
Mof_C 	C 	0.70157	0.3612	0.54768	0.091
Mof_H 	H 	0.7385	0.3729	0.5583	-0.016
Mof_N 	N 	0.65224	0.37238	0.56718	-0.214
Mof_C 	C 	0.60278	0.35661	0.55118	0.106
Mof_H 	H 	0.5668	0.3659	0.5638	-0.03
Mof_C 	C 	0.59892	0.32743	0.51721	-0.176
Mof_H 	H 	0.5614	0.3155	0.5077	0.081
Mof_N 	N 	0.34176	0.01368	0.39109	-0.196
Mof_C 	C 	0.37319	0.031	0.42091	0.089
Mof_H 	H 	0.3941	0.0017	0.4348	-0.015
Mof_C 	C 	0.37711	0.08913	0.43276	-0.161
Mof_H 	H 	0.4014	0.0994	0.4536	0.083
Mof_C 	C 	0.34512	0.13227	0.41383	0.099
Mof_C 	C 	0.31162	0.11425	0.38315	-0.162
Mof_H 	H 	0.2891	0.1423	0.3692	0.083
Mof_C 	C 	0.31127	0.05536	0.37305	0.093
Mof_H 	H 	0.2879	0.0438	0.352	-0.012
Mof_C 	C 	0.34613	0.19494	0.42555	-0.036
Mof_C 	C 	0.35078	0.21822	0.46134	-0.028
Mof_C 	C 	0.35069	0.18435	0.49718	0.102
Mof_C 	C 	0.29801	0.16626	0.5131	-0.163
Mof_H 	H 	0.2616	0.1727	0.5003	0.084
Mof_C 	C 	0.29843	0.1388	0.54768	0.091
Mof_H 	H 	0.2615	0.1271	0.5583	-0.016
Mof_N 	N 	0.34776	0.12762	0.56718	-0.214
Mof_C 	C 	0.39722	0.14339	0.55118	0.106
Mof_H 	H 	0.4332	0.1341	0.5638	-0.03
Mof_C 	C 	0.40108	0.17257	0.51721	-0.176
Mof_H 	H 	0.4386	0.1845	0.5077	0.081
Mof_N 	N 	0.84176	0.51368	0.89109	-0.196
Mof_C 	C 	0.87319	0.531	0.92091	0.089
Mof_H 	H 	0.8941	0.5017	0.9348	-0.016
Mof_C 	C 	0.87711	0.58913	0.93276	-0.161
Mof_H 	H 	0.9014	0.5994	0.9536	0.083
Mof_C 	C 	0.84512	0.63227	0.91383	0.099
Mof_C 	C 	0.81162	0.61425	0.88315	-0.162
Mof_H 	H 	0.7891	0.6423	0.8692	0.083
Mof_C 	C 	0.81127	0.55536	0.87305	0.093
Mof_H 	H 	0.7879	0.5438	0.852	-0.012
Mof_C 	C 	0.84613	0.69494	0.92555	-0.036
Mof_C 	C 	0.85078	0.71822	0.96134	-0.028
Mof_C 	C 	0.85069	0.68435	0.99718	0.102
Mof_C 	C 	0.79801	0.66626	0.0131	-0.163
Mof_H 	H 	0.7616	0.6727	0.0003	0.084
Mof_C 	C 	0.79843	0.6388	0.04768	0.091
Mof_H 	H 	0.7615	0.6271	0.0583	-0.016
Mof_N 	N 	0.84776	0.62762	0.06718	-0.214
Mof_C 	C 	0.89722	0.64339	0.05118	0.106
Mof_H 	H 	0.9332	0.6341	0.0638	-0.03
Mof_C 	C 	0.90108	0.67257	0.01721	-0.176
Mof_H 	H 	0.9386	0.6845	0.0077	0.081
Mof_N 	N 	0.26368	0.09176	0.85891	-0.196
Mof_C 	C 	0.281	0.12319	0.82909	0.089
Mof_H 	H 	0.2517	0.1441	0.8152	-0.015
Mof_C 	C 	0.33913	0.12711	0.81724	-0.161
Mof_H 	H 	0.3494	0.1514	0.7964	0.083
Mof_C 	C 	0.38227	0.09512	0.83617	0.099
Mof_C 	C 	0.36425	0.06162	0.86685	-0.162
Mof_H 	H 	0.3923	0.0391	0.8808	0.083
Mof_C 	C 	0.30536	0.06127	0.87695	0.093
Mof_H 	H 	0.2938	0.0379	0.898	-0.012
Mof_C 	C 	0.44494	0.09613	0.82445	-0.036
Mof_C 	C 	0.46822	0.10078	0.78866	-0.028
Mof_C 	C 	0.43435	0.10069	0.75282	0.102
Mof_C 	C 	0.41626	0.04801	0.7369	-0.163
Mof_H 	H 	0.4227	0.0116	0.7497	0.084
Mof_C 	C 	0.3888	0.04843	0.70232	0.091
Mof_H 	H 	0.3771	0.0115	0.6917	-0.016
Mof_N 	N 	0.37762	0.09776	0.68282	-0.214
Mof_C 	C 	0.39339	0.14722	0.69882	0.106
Mof_H 	H 	0.3841	0.1832	0.6862	-0.03
Mof_C 	C 	0.42257	0.15108	0.73279	-0.176
Mof_H 	H 	0.4345	0.1886	0.7423	0.081
Mof_N 	N 	0.76368	0.59176	0.35891	-0.196
Mof_C 	C 	0.781	0.62319	0.32909	0.089
Mof_H 	H 	0.7517	0.6441	0.3152	-0.015
Mof_C 	C 	0.83913	0.62711	0.31724	-0.161
Mof_H 	H 	0.8494	0.6514	0.2964	0.083
Mof_C 	C 	0.88227	0.59512	0.33617	0.099
Mof_C 	C 	0.86425	0.56162	0.36685	-0.162
Mof_H 	H 	0.8923	0.5391	0.3808	0.083
Mof_C 	C 	0.80536	0.56127	0.37695	0.093
Mof_H 	H 	0.7938	0.5379	0.398	-0.012
Mof_C 	C 	0.94494	0.59613	0.32445	-0.036
Mof_C 	C 	0.96822	0.60078	0.28866	-0.028
Mof_C 	C 	0.93435	0.60069	0.25282	0.102
Mof_C 	C 	0.91626	0.54801	0.2369	-0.164
Mof_H 	H 	0.9227	0.5116	0.2497	0.084
Mof_C 	C 	0.8888	0.54843	0.20232	0.091
Mof_H 	H 	0.8771	0.5115	0.1917	-0.016
Mof_N 	N 	0.87762	0.59776	0.18282	-0.214
Mof_C 	C 	0.89339	0.64722	0.19882	0.106
Mof_H 	H 	0.8841	0.6832	0.1862	-0.03
Mof_C 	C 	0.92257	0.65108	0.23279	-0.176
Mof_H 	H 	0.9345	0.6886	0.2423	0.081
Mof_N 	N 	0.23632	0.90824	0.35891	-0.196
Mof_C 	C 	0.219	0.87681	0.32909	0.089
Mof_H 	H 	0.2483	0.8559	0.3152	-0.015
Mof_C 	C 	0.16087	0.87289	0.31724	-0.161
Mof_H 	H 	0.1506	0.8486	0.2964	0.083
Mof_C 	C 	0.11773	0.90488	0.33617	0.099
Mof_C 	C 	0.13575	0.93838	0.36685	-0.162
Mof_H 	H 	0.1077	0.9609	0.3808	0.083
Mof_C 	C 	0.19464	0.93873	0.37695	0.093
Mof_H 	H 	0.2062	0.9621	0.398	-0.012
Mof_C 	C 	0.05506	0.90387	0.32445	-0.036
Mof_C 	C 	0.03178	0.89922	0.28866	-0.028
Mof_C 	C 	0.06565	0.89931	0.25282	0.102
Mof_C 	C 	0.08374	0.95199	0.2369	-0.163
Mof_H 	H 	0.0773	0.9884	0.2497	0.084
Mof_C 	C 	0.1112	0.95157	0.20232	0.091
Mof_H 	H 	0.1229	0.9885	0.1917	-0.016
Mof_N 	N 	0.12238	0.90224	0.18282	-0.214
Mof_C 	C 	0.10661	0.85278	0.19882	0.106
Mof_H 	H 	0.1159	0.8168	0.1862	-0.03
Mof_C 	C 	0.07743	0.84892	0.23279	-0.176
Mof_H 	H 	0.0655	0.8114	0.2423	0.081
Mof_N 	N 	0.73632	0.40824	0.85891	-0.196
Mof_C 	C 	0.719	0.37681	0.82909	0.089
Mof_H 	H 	0.7483	0.3559	0.8152	-0.015
Mof_C 	C 	0.66087	0.37289	0.81724	-0.161
Mof_H 	H 	0.6506	0.3486	0.7964	0.083
Mof_C 	C 	0.61773	0.40488	0.83617	0.099
Mof_C 	C 	0.63575	0.43838	0.86685	-0.162
Mof_H 	H 	0.6077	0.4609	0.8808	0.083
Mof_C 	C 	0.69464	0.43873	0.87695	0.093
Mof_H 	H 	0.7062	0.4621	0.898	-0.012
Mof_C 	C 	0.55506	0.40387	0.82445	-0.036
Mof_C 	C 	0.53178	0.39922	0.78866	-0.028
Mof_C 	C 	0.56565	0.39931	0.75282	0.102
Mof_C 	C 	0.58374	0.45199	0.7369	-0.163
Mof_H 	H 	0.5773	0.4884	0.7497	0.084
Mof_C 	C 	0.6112	0.45157	0.70232	0.091
Mof_H 	H 	0.6229	0.4885	0.6917	-0.016
Mof_N 	N 	0.62238	0.40224	0.68282	-0.214
Mof_C 	C 	0.60661	0.35278	0.69882	0.106
Mof_H 	H 	0.6159	0.3168	0.6862	-0.03
Mof_C 	C 	0.57743	0.34892	0.73279	-0.176
Mof_H 	H 	0.5655	0.3114	0.7423	0.081
Mof_N 	N 	0.34176	0.98632	0.60891	-0.196
Mof_C 	C 	0.37319	0.969	0.57909	0.089
Mof_H 	H 	0.3941	0.9983	0.5652	-0.015
Mof_C 	C 	0.37711	0.91087	0.56724	-0.161
Mof_H 	H 	0.4014	0.9006	0.5464	0.083
Mof_C 	C 	0.34512	0.86773	0.58617	0.099
Mof_C 	C 	0.31162	0.88575	0.61685	-0.162
Mof_H 	H 	0.2891	0.8577	0.6308	0.083
Mof_C 	C 	0.31127	0.94464	0.62695	0.093
Mof_H 	H 	0.2879	0.9562	0.648	-0.012
Mof_C 	C 	0.34613	0.80506	0.57445	-0.036
Mof_C 	C 	0.35078	0.78178	0.53866	-0.028
Mof_C 	C 	0.35069	0.81565	0.50282	0.102
Mof_C 	C 	0.29801	0.83374	0.4869	-0.163
Mof_H 	H 	0.2616	0.8273	0.4997	0.084
Mof_C 	C 	0.29843	0.8612	0.45232	0.091
Mof_H 	H 	0.2615	0.8729	0.4417	-0.016
Mof_N 	N 	0.34776	0.87238	0.43282	-0.214
Mof_C 	C 	0.39722	0.85661	0.44882	0.106
Mof_H 	H 	0.4332	0.8659	0.4362	-0.03
Mof_C 	C 	0.40108	0.82743	0.48279	-0.176
Mof_H 	H 	0.4386	0.8155	0.4923	0.081
Mof_N 	N 	0.84176	0.48632	0.10891	-0.196
Mof_C 	C 	0.87319	0.469	0.07909	0.089
Mof_H 	H 	0.8941	0.4983	0.0652	-0.016
Mof_C 	C 	0.87711	0.41087	0.06724	-0.161
Mof_H 	H 	0.9014	0.4006	0.0464	0.083
Mof_C 	C 	0.84512	0.36773	0.08617	0.099
Mof_C 	C 	0.81162	0.38575	0.11685	-0.162
Mof_H 	H 	0.7891	0.3577	0.1308	0.083
Mof_C 	C 	0.81127	0.44464	0.12695	0.093
Mof_H 	H 	0.7879	0.4562	0.148	-0.012
Mof_C 	C 	0.84613	0.30506	0.07445	-0.036
Mof_C 	C 	0.85078	0.28178	0.03866	-0.028
Mof_C 	C 	0.85069	0.31565	0.00282	0.102
Mof_C 	C 	0.79801	0.33374	0.9869	-0.163
Mof_H 	H 	0.7616	0.3273	0.9997	0.084
Mof_C 	C 	0.79843	0.3612	0.95232	0.091
Mof_H 	H 	0.7615	0.3729	0.9417	-0.016
Mof_N 	N 	0.84776	0.37238	0.93282	-0.214
Mof_C 	C 	0.89722	0.35661	0.94882	0.106
Mof_H 	H 	0.9332	0.3659	0.9362	-0.03
Mof_C 	C 	0.90108	0.32743	0.98279	-0.176
Mof_H 	H 	0.9386	0.3155	0.9923	0.081
Mof_N 	N 	0.15824	0.01368	0.10891	-0.196
Mof_C 	C 	0.12681	0.031	0.07909	0.089
Mof_H 	H 	0.1059	0.0017	0.0652	-0.015
Mof_C 	C 	0.12289	0.08913	0.06724	-0.161
Mof_H 	H 	0.0986	0.0994	0.0464	0.083
Mof_C 	C 	0.15488	0.13227	0.08617	0.099
Mof_C 	C 	0.18838	0.11425	0.11685	-0.162
Mof_H 	H 	0.2109	0.1423	0.1308	0.083
Mof_C 	C 	0.18873	0.05536	0.12695	0.093
Mof_H 	H 	0.2121	0.0438	0.148	-0.012
Mof_C 	C 	0.15387	0.19494	0.07445	-0.036
Mof_C 	C 	0.14922	0.21822	0.03866	-0.028
Mof_C 	C 	0.14931	0.18435	0.00282	0.102
Mof_C 	C 	0.20199	0.16626	0.9869	-0.164
Mof_H 	H 	0.2384	0.1727	0.9997	0.084
Mof_C 	C 	0.20157	0.1388	0.95232	0.091
Mof_H 	H 	0.2385	0.1271	0.9417	-0.016
Mof_N 	N 	0.15224	0.12762	0.93282	-0.214
Mof_C 	C 	0.10278	0.14339	0.94882	0.106
Mof_H 	H 	0.0668	0.1341	0.9362	-0.03
Mof_C 	C 	0.09892	0.17257	0.98279	-0.176
Mof_H 	H 	0.0614	0.1845	0.9923	0.081
Mof_N 	N 	0.65824	0.51368	0.60891	-0.196
Mof_C 	C 	0.62681	0.531	0.57909	0.089
Mof_H 	H 	0.6059	0.5017	0.5652	-0.015
Mof_C 	C 	0.62289	0.58913	0.56724	-0.161
Mof_H 	H 	0.5986	0.5994	0.5464	0.083
Mof_C 	C 	0.65488	0.63227	0.58617	0.099
Mof_C 	C 	0.68838	0.61425	0.61685	-0.162
Mof_H 	H 	0.7109	0.6423	0.6308	0.083
Mof_C 	C 	0.68873	0.55536	0.62695	0.093
Mof_H 	H 	0.7121	0.5438	0.648	-0.012
Mof_C 	C 	0.65387	0.69494	0.57445	-0.036
Mof_C 	C 	0.64922	0.71822	0.53866	-0.028
Mof_C 	C 	0.64931	0.68435	0.50282	0.102
Mof_C 	C 	0.70199	0.66626	0.4869	-0.163
Mof_H 	H 	0.7384	0.6727	0.4997	0.084
Mof_C 	C 	0.70157	0.6388	0.45232	0.091
Mof_H 	H 	0.7385	0.6271	0.4417	-0.016
Mof_N 	N 	0.65224	0.62762	0.43282	-0.214
Mof_C 	C 	0.60278	0.64339	0.44882	0.106
Mof_H 	H 	0.5668	0.6341	0.4362	-0.03
Mof_C 	C 	0.59892	0.67257	0.48279	-0.176
Mof_H 	H 	0.5614	0.6845	0.4923	0.081
Mof_N 	N 	0.76368	0.90824	0.35891	-0.196
Mof_C 	C 	0.781	0.87681	0.32909	0.089
Mof_H 	H 	0.7517	0.8559	0.3152	-0.015
Mof_C 	C 	0.83913	0.87289	0.31724	-0.161
Mof_H 	H 	0.8494	0.8486	0.2964	0.083
Mof_C 	C 	0.88227	0.90488	0.33617	0.099
Mof_C 	C 	0.86425	0.93838	0.36685	-0.162
Mof_H 	H 	0.8923	0.9609	0.3808	0.083
Mof_C 	C 	0.80536	0.93873	0.37695	0.093
Mof_H 	H 	0.7938	0.9621	0.398	-0.012
Mof_C 	C 	0.94494	0.90387	0.32445	-0.036
Mof_C 	C 	0.96822	0.89922	0.28866	-0.028
Mof_C 	C 	0.93435	0.89931	0.25282	0.102
Mof_C 	C 	0.91626	0.95199	0.2369	-0.164
Mof_H 	H 	0.9227	0.9884	0.2497	0.084
Mof_C 	C 	0.8888	0.95157	0.20232	0.091
Mof_H 	H 	0.8771	0.9885	0.1917	-0.016
Mof_N 	N 	0.87762	0.90224	0.18282	-0.214
Mof_C 	C 	0.89339	0.85278	0.19882	0.106
Mof_H 	H 	0.8841	0.8168	0.1862	-0.03
Mof_C 	C 	0.92257	0.84892	0.23279	-0.176
Mof_H 	H 	0.9345	0.8114	0.2423	0.081
Mof_N 	N 	0.26368	0.40824	0.85891	-0.196
Mof_C 	C 	0.281	0.37681	0.82909	0.089
Mof_H 	H 	0.2517	0.3559	0.8152	-0.015
Mof_C 	C 	0.33913	0.37289	0.81724	-0.161
Mof_H 	H 	0.3494	0.3486	0.7964	0.083
Mof_C 	C 	0.38227	0.40488	0.83617	0.099
Mof_C 	C 	0.36425	0.43838	0.86685	-0.162
Mof_H 	H 	0.3923	0.4609	0.8808	0.083
Mof_C 	C 	0.30536	0.43873	0.87695	0.093
Mof_H 	H 	0.2938	0.4621	0.898	-0.012
Mof_C 	C 	0.44494	0.40387	0.82445	-0.036
Mof_C 	C 	0.46822	0.39922	0.78866	-0.028
Mof_C 	C 	0.43435	0.39931	0.75282	0.102
Mof_C 	C 	0.41626	0.45199	0.7369	-0.163
Mof_H 	H 	0.4227	0.4884	0.7497	0.084
Mof_C 	C 	0.3888	0.45157	0.70232	0.091
Mof_H 	H 	0.3771	0.4885	0.6917	-0.016
Mof_N 	N 	0.37762	0.40224	0.68282	-0.214
Mof_C 	C 	0.39339	0.35278	0.69882	0.106
Mof_H 	H 	0.3841	0.3168	0.6862	-0.03
Mof_C 	C 	0.42257	0.34892	0.73279	-0.176
Mof_H 	H 	0.4345	0.3114	0.7423	0.081
Mof_N 	N 	0.73632	0.09176	0.85891	-0.196
Mof_C 	C 	0.719	0.12319	0.82909	0.089
Mof_H 	H 	0.7483	0.1441	0.8152	-0.015
Mof_C 	C 	0.66087	0.12711	0.81724	-0.161
Mof_H 	H 	0.6506	0.1514	0.7964	0.083
Mof_C 	C 	0.61773	0.09512	0.83617	0.099
Mof_C 	C 	0.63575	0.06162	0.86685	-0.162
Mof_H 	H 	0.6077	0.0391	0.8808	0.083
Mof_C 	C 	0.69464	0.06127	0.87695	0.093
Mof_H 	H 	0.7062	0.0379	0.898	-0.012
Mof_C 	C 	0.55506	0.09613	0.82445	-0.036
Mof_C 	C 	0.53178	0.10078	0.78866	-0.028
Mof_C 	C 	0.56565	0.10069	0.75282	0.102
Mof_C 	C 	0.58374	0.04801	0.7369	-0.163
Mof_H 	H 	0.5773	0.0116	0.7497	0.084
Mof_C 	C 	0.6112	0.04843	0.70232	0.091
Mof_H 	H 	0.6229	0.0115	0.6917	-0.016
Mof_N 	N 	0.62238	0.09776	0.68282	-0.214
Mof_C 	C 	0.60661	0.14722	0.69882	0.106
Mof_H 	H 	0.6159	0.1832	0.6862	-0.03
Mof_C 	C 	0.57743	0.15108	0.73279	-0.176
Mof_H 	H 	0.5655	0.1886	0.7423	0.081
Mof_N 	N 	0.23632	0.59176	0.35891	-0.196
Mof_C 	C 	0.219	0.62319	0.32909	0.089
Mof_H 	H 	0.2483	0.6441	0.3152	-0.015
Mof_C 	C 	0.16087	0.62711	0.31724	-0.161
Mof_H 	H 	0.1506	0.6514	0.2964	0.083
Mof_C 	C 	0.11773	0.59512	0.33617	0.099
Mof_C 	C 	0.13575	0.56162	0.36685	-0.162
Mof_H 	H 	0.1077	0.5391	0.3808	0.083
Mof_C 	C 	0.19464	0.56127	0.37695	0.093
Mof_H 	H 	0.2062	0.5379	0.398	-0.012
Mof_C 	C 	0.05506	0.59613	0.32445	-0.036
Mof_C 	C 	0.03178	0.60078	0.28866	-0.028
Mof_C 	C 	0.06565	0.60069	0.25282	0.102
Mof_C 	C 	0.08374	0.54801	0.2369	-0.163
Mof_H 	H 	0.0773	0.5116	0.2497	0.084
Mof_C 	C 	0.1112	0.54843	0.20232	0.091
Mof_H 	H 	0.1229	0.5115	0.1917	-0.016
Mof_N 	N 	0.12238	0.59776	0.18282	-0.214
Mof_C 	C 	0.10661	0.64722	0.19882	0.106
Mof_H 	H 	0.1159	0.6832	0.1862	-0.03
Mof_C 	C 	0.07743	0.65108	0.23279	-0.176
Mof_H 	H 	0.0655	0.6886	0.2423	0.081
Mof_N 	N 	0.84176	0.01368	0.10891	-0.196
Mof_C 	C 	0.87319	0.031	0.07909	0.089
Mof_H 	H 	0.8941	0.0017	0.0652	-0.016
Mof_C 	C 	0.87711	0.08913	0.06724	-0.161
Mof_H 	H 	0.9014	0.0994	0.0464	0.083
Mof_C 	C 	0.84512	0.13227	0.08617	0.099
Mof_C 	C 	0.81162	0.11425	0.11685	-0.162
Mof_H 	H 	0.7891	0.1423	0.1308	0.083
Mof_C 	C 	0.81127	0.05536	0.12695	0.093
Mof_H 	H 	0.7879	0.0438	0.148	-0.012
Mof_C 	C 	0.84613	0.19494	0.07445	-0.036
Mof_C 	C 	0.85078	0.21822	0.03866	-0.028
Mof_C 	C 	0.85069	0.18435	0.00282	0.102
Mof_C 	C 	0.79801	0.16626	0.9869	-0.164
Mof_H 	H 	0.7616	0.1727	0.9997	0.084
Mof_C 	C 	0.79843	0.1388	0.95232	0.091
Mof_H 	H 	0.7615	0.1271	0.9417	-0.016
Mof_N 	N 	0.84776	0.12762	0.93282	-0.214
Mof_C 	C 	0.89722	0.14339	0.94882	0.106
Mof_H 	H 	0.9332	0.1341	0.9362	-0.03
Mof_C 	C 	0.90108	0.17257	0.98279	-0.176
Mof_H 	H 	0.9386	0.1845	0.9923	0.081
Mof_N 	N 	0.34176	0.51368	0.60891	-0.196
Mof_C 	C 	0.37319	0.531	0.57909	0.089
Mof_H 	H 	0.3941	0.5017	0.5652	-0.015
Mof_C 	C 	0.37711	0.58913	0.56724	-0.161
Mof_H 	H 	0.4014	0.5994	0.5464	0.083
Mof_C 	C 	0.34512	0.63227	0.58617	0.099
Mof_C 	C 	0.31162	0.61425	0.61685	-0.162
Mof_H 	H 	0.2891	0.6423	0.6308	0.083
Mof_C 	C 	0.31127	0.55536	0.62695	0.093
Mof_H 	H 	0.2879	0.5438	0.648	-0.012
Mof_C 	C 	0.34613	0.69494	0.57445	-0.036
Mof_C 	C 	0.35078	0.71822	0.53866	-0.028
Mof_C 	C 	0.35069	0.68435	0.50282	0.102
Mof_C 	C 	0.29801	0.66626	0.4869	-0.163
Mof_H 	H 	0.2616	0.6727	0.4997	0.084
Mof_C 	C 	0.29843	0.6388	0.45232	0.091
Mof_H 	H 	0.2615	0.6271	0.4417	-0.016
Mof_N 	N 	0.34776	0.62762	0.43282	-0.214
Mof_C 	C 	0.39722	0.64339	0.44882	0.106
Mof_H 	H 	0.4332	0.6341	0.4362	-0.03
Mof_C 	C 	0.40108	0.67257	0.48279	-0.176
Mof_H 	H 	0.4386	0.6845	0.4923	0.081
Mof_N 	N 	0.65824	0.98632	0.60891	-0.196
Mof_C 	C 	0.62681	0.969	0.57909	0.089
Mof_H 	H 	0.6059	0.9983	0.5652	-0.015
Mof_C 	C 	0.62289	0.91087	0.56724	-0.161
Mof_H 	H 	0.5986	0.9006	0.5464	0.083
Mof_C 	C 	0.65488	0.86773	0.58617	0.099
Mof_C 	C 	0.68838	0.88575	0.61685	-0.162
Mof_H 	H 	0.7109	0.8577	0.6308	0.083
Mof_C 	C 	0.68873	0.94464	0.62695	0.093
Mof_H 	H 	0.7121	0.9562	0.648	-0.012
Mof_C 	C 	0.65387	0.80506	0.57445	-0.036
Mof_C 	C 	0.64922	0.78178	0.53866	-0.028
Mof_C 	C 	0.64931	0.81565	0.50282	0.102
Mof_C 	C 	0.70199	0.83374	0.4869	-0.163
Mof_H 	H 	0.7384	0.8273	0.4997	0.084
Mof_C 	C 	0.70157	0.8612	0.45232	0.091
Mof_H 	H 	0.7385	0.8729	0.4417	-0.016
Mof_N 	N 	0.65224	0.87238	0.43282	-0.214
Mof_C 	C 	0.60278	0.85661	0.44882	0.106
Mof_H 	H 	0.5668	0.8659	0.4362	-0.03
Mof_C 	C 	0.59892	0.82743	0.48279	-0.176
Mof_H 	H 	0.5614	0.8155	0.4923	0.081
Mof_N 	N 	0.15824	0.48632	0.10891	-0.196
Mof_C 	C 	0.12681	0.469	0.07909	0.089
Mof_H 	H 	0.1059	0.4983	0.0652	-0.015
Mof_C 	C 	0.12289	0.41087	0.06724	-0.161
Mof_H 	H 	0.0986	0.4006	0.0464	0.083
Mof_C 	C 	0.15488	0.36773	0.08617	0.099
Mof_C 	C 	0.18838	0.38575	0.11685	-0.162
Mof_H 	H 	0.2109	0.3577	0.1308	0.083
Mof_C 	C 	0.18873	0.44464	0.12695	0.093
Mof_H 	H 	0.2121	0.4562	0.148	-0.012
Mof_C 	C 	0.15387	0.30506	0.07445	-0.036
Mof_C 	C 	0.14922	0.28178	0.03866	-0.028
Mof_C 	C 	0.14931	0.31565	0.00282	0.102
Mof_C 	C 	0.20199	0.33374	0.9869	-0.163
Mof_H 	H 	0.2384	0.3273	0.9997	0.084
Mof_C 	C 	0.20157	0.3612	0.95232	0.091
Mof_H 	H 	0.2385	0.3729	0.9417	-0.016
Mof_N 	N 	0.15224	0.37238	0.93282	-0.214
Mof_C 	C 	0.10278	0.35661	0.94882	0.106
Mof_H 	H 	0.0668	0.3659	0.9362	-0.029
Mof_C 	C 	0.09892	0.32743	0.98279	-0.176
Mof_H 	H 	0.0614	0.3155	0.9923	0.081
Mof_N 	N 	0.73632	0.90824	0.14109	-0.196
Mof_C 	C 	0.719	0.87681	0.17091	0.089
Mof_H 	H 	0.7483	0.8559	0.1848	-0.015
Mof_C 	C 	0.66087	0.87289	0.18276	-0.161
Mof_H 	H 	0.6506	0.8486	0.2036	0.083
Mof_C 	C 	0.61773	0.90488	0.16383	0.099
Mof_C 	C 	0.63575	0.93838	0.13315	-0.162
Mof_H 	H 	0.6077	0.9609	0.1192	0.083
Mof_C 	C 	0.69464	0.93873	0.12305	0.093
Mof_H 	H 	0.7062	0.9621	0.102	-0.012
Mof_C 	C 	0.55506	0.90387	0.17555	-0.036
Mof_C 	C 	0.53178	0.89922	0.21134	-0.028
Mof_C 	C 	0.56565	0.89931	0.24718	0.102
Mof_C 	C 	0.58374	0.95199	0.2631	-0.163
Mof_H 	H 	0.5773	0.9884	0.2503	0.084
Mof_C 	C 	0.6112	0.95157	0.29768	0.091
Mof_H 	H 	0.6229	0.9885	0.3083	-0.016
Mof_N 	N 	0.62238	0.90224	0.31718	-0.214
Mof_C 	C 	0.60661	0.85278	0.30118	0.106
Mof_H 	H 	0.6159	0.8168	0.3138	-0.03
Mof_C 	C 	0.57743	0.84892	0.26721	-0.176
Mof_H 	H 	0.5655	0.8114	0.2577	0.081
Mof_N 	N 	0.23632	0.40824	0.64109	-0.196
Mof_C 	C 	0.219	0.37681	0.67091	0.089
Mof_H 	H 	0.2483	0.3559	0.6848	-0.015
Mof_C 	C 	0.16087	0.37289	0.68276	-0.161
Mof_H 	H 	0.1506	0.3486	0.7036	0.083
Mof_C 	C 	0.11773	0.40488	0.66383	0.099
Mof_C 	C 	0.13575	0.43838	0.63315	-0.162
Mof_H 	H 	0.1077	0.4609	0.6192	0.083
Mof_C 	C 	0.19464	0.43873	0.62305	0.093
Mof_H 	H 	0.2062	0.4621	0.602	-0.012
Mof_C 	C 	0.05506	0.40387	0.67555	-0.036
Mof_C 	C 	0.03178	0.39922	0.71134	-0.028
Mof_C 	C 	0.06565	0.39931	0.74718	0.102
Mof_C 	C 	0.08374	0.45199	0.7631	-0.163
Mof_H 	H 	0.0773	0.4884	0.7503	0.084
Mof_C 	C 	0.1112	0.45157	0.79768	0.091
Mof_H 	H 	0.1229	0.4885	0.8083	-0.016
Mof_N 	N 	0.12238	0.40224	0.81718	-0.214
Mof_C 	C 	0.10661	0.35278	0.80118	0.106
Mof_H 	H 	0.1159	0.3168	0.8138	-0.03
Mof_C 	C 	0.07743	0.34892	0.76721	-0.176
Mof_H 	H 	0.0655	0.3114	0.7577	0.081
Mof_N 	N 	0.76368	0.09176	0.64109	-0.196
Mof_C 	C 	0.781	0.12319	0.67091	0.089
Mof_H 	H 	0.7517	0.1441	0.6848	-0.015
Mof_C 	C 	0.83913	0.12711	0.68276	-0.161
Mof_H 	H 	0.8494	0.1514	0.7036	0.083
Mof_C 	C 	0.88227	0.09512	0.66383	0.099
Mof_C 	C 	0.86425	0.06162	0.63315	-0.162
Mof_H 	H 	0.8923	0.0391	0.6192	0.083
Mof_C 	C 	0.80536	0.06127	0.62305	0.093
Mof_H 	H 	0.7938	0.0379	0.602	-0.012
Mof_C 	C 	0.94494	0.09613	0.67555	-0.036
Mof_C 	C 	0.96822	0.10078	0.71134	-0.028
Mof_C 	C 	0.93435	0.10069	0.74718	0.102
Mof_C 	C 	0.91626	0.04801	0.7631	-0.164
Mof_H 	H 	0.9227	0.0116	0.7503	0.084
Mof_C 	C 	0.8888	0.04843	0.79768	0.091
Mof_H 	H 	0.8771	0.0115	0.8083	-0.016
Mof_N 	N 	0.87762	0.09776	0.81718	-0.214
Mof_C 	C 	0.89339	0.14722	0.80118	0.106
Mof_H 	H 	0.8841	0.1832	0.8138	-0.03
Mof_C 	C 	0.92257	0.15108	0.76721	-0.176
Mof_H 	H 	0.9345	0.1886	0.7577	0.081
Mof_N 	N 	0.26368	0.59176	0.14109	-0.196
Mof_C 	C 	0.281	0.62319	0.17091	0.089
Mof_H 	H 	0.2517	0.6441	0.1848	-0.015
Mof_C 	C 	0.33913	0.62711	0.18276	-0.161
Mof_H 	H 	0.3494	0.6514	0.2036	0.083
Mof_C 	C 	0.38227	0.59512	0.16383	0.099
Mof_C 	C 	0.36425	0.56162	0.13315	-0.162
Mof_H 	H 	0.3923	0.5391	0.1192	0.083
Mof_C 	C 	0.30536	0.56127	0.12305	0.093
Mof_H 	H 	0.2938	0.5379	0.102	-0.012
Mof_C 	C 	0.44494	0.59613	0.17555	-0.036
Mof_C 	C 	0.46822	0.60078	0.21134	-0.028
Mof_C 	C 	0.43435	0.60069	0.24718	0.102
Mof_C 	C 	0.41626	0.54801	0.2631	-0.163
Mof_H 	H 	0.4227	0.5116	0.2503	0.084
Mof_C 	C 	0.3888	0.54843	0.29768	0.091
Mof_H 	H 	0.3771	0.5115	0.3083	-0.016
Mof_N 	N 	0.37762	0.59776	0.31718	-0.214
Mof_C 	C 	0.39339	0.64722	0.30118	0.106
Mof_H 	H 	0.3841	0.6832	0.3138	-0.03
Mof_C 	C 	0.42257	0.65108	0.26721	-0.176
Mof_H 	H 	0.4345	0.6886	0.2577	0.081
Mof_N 	N 	0.65824	0.01368	0.39109	-0.196
Mof_C 	C 	0.62681	0.031	0.42091	0.089
Mof_H 	H 	0.6059	0.0017	0.4348	-0.015
Mof_C 	C 	0.62289	0.08913	0.43276	-0.161
Mof_H 	H 	0.5986	0.0994	0.4536	0.083
Mof_C 	C 	0.65488	0.13227	0.41383	0.099
Mof_C 	C 	0.68838	0.11425	0.38315	-0.162
Mof_H 	H 	0.7109	0.1423	0.3692	0.083
Mof_C 	C 	0.68873	0.05536	0.37305	0.093
Mof_H 	H 	0.7121	0.0438	0.352	-0.012
Mof_C 	C 	0.65387	0.19494	0.42555	-0.036
Mof_C 	C 	0.64922	0.21822	0.46134	-0.028
Mof_C 	C 	0.64931	0.18435	0.49718	0.102
Mof_C 	C 	0.70199	0.16626	0.5131	-0.163
Mof_H 	H 	0.7384	0.1727	0.5003	0.084
Mof_C 	C 	0.70157	0.1388	0.54768	0.091
Mof_H 	H 	0.7385	0.1271	0.5583	-0.016
Mof_N 	N 	0.65224	0.12762	0.56718	-0.214
Mof_C 	C 	0.60278	0.14339	0.55118	0.106
Mof_H 	H 	0.5668	0.1341	0.5638	-0.03
Mof_C 	C 	0.59892	0.17257	0.51721	-0.176
Mof_H 	H 	0.5614	0.1845	0.5077	0.081
Mof_N 	N 	0.15824	0.51368	0.89109	-0.196
Mof_C 	C 	0.12681	0.531	0.92091	0.089
Mof_H 	H 	0.1059	0.5017	0.9348	-0.015
Mof_C 	C 	0.12289	0.58913	0.93276	-0.161
Mof_H 	H 	0.0986	0.5994	0.9536	0.083
Mof_C 	C 	0.15488	0.63227	0.91383	0.099
Mof_C 	C 	0.18838	0.61425	0.88315	-0.162
Mof_H 	H 	0.2109	0.6423	0.8692	0.083
Mof_C 	C 	0.18873	0.55536	0.87305	0.093
Mof_H 	H 	0.2121	0.5438	0.852	-0.012
Mof_C 	C 	0.15387	0.69494	0.92555	-0.036
Mof_C 	C 	0.14922	0.71822	0.96134	-0.028
Mof_C 	C 	0.14931	0.68435	0.99718	0.102
Mof_C 	C 	0.20199	0.66626	0.0131	-0.163
Mof_H 	H 	0.2384	0.6727	0.0003	0.084
Mof_C 	C 	0.20157	0.6388	0.04768	0.091
Mof_H 	H 	0.2385	0.6271	0.0583	-0.016
Mof_N 	N 	0.15224	0.62762	0.06718	-0.214
Mof_C 	C 	0.10278	0.64339	0.05118	0.106
Mof_H 	H 	0.0668	0.6341	0.0638	-0.029
Mof_C 	C 	0.09892	0.67257	0.01721	-0.176
Mof_H 	H 	0.0614	0.6845	0.0077	0.081
Mof_N 	N 	0.84176	0.98632	0.89109	-0.196
Mof_C 	C 	0.87319	0.969	0.92091	0.089
Mof_H 	H 	0.8941	0.9983	0.9348	-0.016
Mof_C 	C 	0.87711	0.91087	0.93276	-0.161
Mof_H 	H 	0.9014	0.9006	0.9536	0.083
Mof_C 	C 	0.84512	0.86773	0.91383	0.099
Mof_C 	C 	0.81162	0.88575	0.88315	-0.162
Mof_H 	H 	0.7891	0.8577	0.8692	0.083
Mof_C 	C 	0.81127	0.94464	0.87305	0.093
Mof_H 	H 	0.7879	0.9562	0.852	-0.012
Mof_C 	C 	0.84613	0.80506	0.92555	-0.036
Mof_C 	C 	0.85078	0.78178	0.96134	-0.028
Mof_C 	C 	0.85069	0.81565	0.99718	0.102
Mof_C 	C 	0.79801	0.83374	0.0131	-0.164
Mof_H 	H 	0.7616	0.8273	0.0003	0.084
Mof_C 	C 	0.79843	0.8612	0.04768	0.091
Mof_H 	H 	0.7615	0.8729	0.0583	-0.016
Mof_N 	N 	0.84776	0.87238	0.06718	-0.214
Mof_C 	C 	0.89722	0.85661	0.05118	0.106
Mof_H 	H 	0.9332	0.8659	0.0638	-0.03
Mof_C 	C 	0.90108	0.82743	0.01721	-0.176
Mof_H 	H 	0.9386	0.8155	0.0077	0.081
Mof_N 	N 	0.34176	0.48632	0.39109	-0.196
Mof_C 	C 	0.37319	0.469	0.42091	0.089
Mof_H 	H 	0.3941	0.4983	0.4348	-0.015
Mof_C 	C 	0.37711	0.41087	0.43276	-0.161
Mof_H 	H 	0.4014	0.4006	0.4536	0.083
Mof_C 	C 	0.34512	0.36773	0.41383	0.099
Mof_C 	C 	0.31162	0.38575	0.38315	-0.162
Mof_H 	H 	0.2891	0.3577	0.3692	0.083
Mof_C 	C 	0.31127	0.44464	0.37305	0.093
Mof_H 	H 	0.2879	0.4562	0.352	-0.012
Mof_C 	C 	0.34613	0.30506	0.42555	-0.036
Mof_C 	C 	0.35078	0.28178	0.46134	-0.028
Mof_C 	C 	0.35069	0.31565	0.49718	0.102
Mof_C 	C 	0.29801	0.33374	0.5131	-0.163
Mof_H 	H 	0.2616	0.3273	0.5003	0.084
Mof_C 	C 	0.29843	0.3612	0.54768	0.091
Mof_H 	H 	0.2615	0.3729	0.5583	-0.016
Mof_N 	N 	0.34776	0.37238	0.56718	-0.214
Mof_C 	C 	0.39722	0.35661	0.55118	0.106
Mof_H 	H 	0.4332	0.3659	0.5638	-0.03
Mof_C 	C 	0.40108	0.32743	0.51721	-0.176
Mof_H 	H 	0.4386	0.3155	0.5077	0.081
Mof_Ag	Ag	0.33857	0.08857	0.625	0.608
Mof_Ag	Ag	0.83857	0.58857	0.125	0.608
Mof_Ag	Ag	0.16143	0.91143	0.125	0.608
Mof_Ag	Ag	0.66143	0.41143	0.625	0.608
Mof_Ag	Ag	0.16143	0.08857	0.875	0.608
Mof_Ag	Ag	0.66143	0.58857	0.375	0.608
Mof_Ag	Ag	0.33857	0.91143	0.375	0.608
Mof_Ag	Ag	0.83857	0.41143	0.875	0.608
Mof_Ag	Ag	0.66143	0.91143	0.375	0.608
Mof_Ag	Ag	0.16143	0.41143	0.875	0.608
Mof_Ag	Ag	0.83857	0.08857	0.875	0.607
Mof_Ag	Ag	0.33857	0.58857	0.375	0.608
Mof_Ag	Ag	0.83857	0.91143	0.125	0.607
Mof_Ag	Ag	0.33857	0.41143	0.625	0.608
Mof_Ag	Ag	0.66143	0.08857	0.625	0.608
Mof_Ag	Ag	0.16143	0.58857	0.125	0.608
Mof_S 	S 	3.79343e-33	0.09296	0.64217	-0.009
Mof_S 	S 	0.5	0.59296	0.14217	-0.009
Mof_S 	S 	0.5	0.90704	0.14217	-0.01
Mof_S 	S 	3.79343e-33	0.40704	0.64217	-0.009
Mof_S 	S 	0.15704	0.75	0.89217	-0.009
Mof_S 	S 	0.34296	0.25	0.39217	-0.009
Mof_S 	S 	0.5	0.09296	0.85783	-0.01
Mof_S 	S 	2.11378e-33	0.59296	0.35783	-0.009
Mof_S 	S 	-3.48063e-33	0.90704	0.35783	-0.009
Mof_S 	S 	0.5	0.40704	0.85783	-0.009
Mof_S 	S 	0.34296	0.75	0.60783	-0.009
Mof_S 	S 	0.15704	0.25	0.10783	-0.009
Mof_S 	S 	0.84296	0.25	0.10783	-0.01
Mof_S 	S 	0.65704	0.75	0.60783	-0.01
Mof_S 	S 	0.65704	0.25	0.39217	-0.01
Mof_S 	S 	0.84296	0.75	0.89217	-0.01
_end
