# CIF file generated by openbabel 3.1.0, see https://openbabel.org
data_I
_chemical_name_common 'image0'
_cell_length_a 25.8776
_cell_length_b 25.8776
_cell_length_c 6.2623
_cell_angle_alpha 90
_cell_angle_beta 90
_cell_angle_gamma 120
_space_group_name_H-M_alt 'P 1'
_space_group_name_Hall 'P 1'
loop_
    _symmetry_equiv_pos_as_xyz
    x,y,z
loop_
    _atom_site_label
    _atom_site_type_symbol
    _atom_site_fract_x
    _atom_site_fract_y
    _atom_site_fract_z
    _atom_site_occupancy
    Cu1      Cu       0.94630    0.63150    0.97900    1.000
    C1       C        0.00640    0.58560    0.71100    1.000
    C2       C        0.02360    0.50620    0.78800    1.000
    C3       C        0.00390    0.54320    0.87300    1.000
    C4       C        0.98480    0.54280    0.08700    1.000
    H1       H        0.03830    0.51200    0.63600    1.000
    O1       O        0.04060    0.60200    0.54200    1.000
    O2       O        0.97860    0.61530    0.72600    1.000
    O3       O        0.96940    0.58540    0.14700    1.000
    Cu2      Cu       0.61297    0.96483    0.31233    1.000
    C5       C        0.67307    0.91893    0.04433    1.000
    C6       C        0.69027    0.83953    0.12133    1.000
    C7       C        0.67057    0.87653    0.20633    1.000
    C8       C        0.65147    0.87613    0.42033    1.000
    H2       H        0.70497    0.84533    0.96933    1.000
    O4       O        0.70727    0.93533    0.87533    1.000
    O5       O        0.64527    0.94863    0.05933    1.000
    O6       O        0.63607    0.91873    0.48033    1.000
    Cu3      Cu       0.27963    0.29817    0.64567    1.000
    C9       C        0.33973    0.25227    0.37767    1.000
    C10      C        0.35693    0.17287    0.45467    1.000
    C11      C        0.33723    0.20987    0.53967    1.000
    C12      C        0.31813    0.20947    0.75367    1.000
    H3       H        0.37163    0.17867    0.30267    1.000
    O7       O        0.37393    0.26867    0.20867    1.000
    O8       O        0.31193    0.28197    0.39267    1.000
    O9       O        0.30273    0.25207    0.81367    1.000
    Cu4      Cu       0.36850    0.31480    0.97900    1.000
    C13      C        0.41440    0.42080    0.71100    1.000
    C14      C        0.49380    0.51740    0.78800    1.000
    C15      C        0.45680    0.46070    0.87300    1.000
    C16      C        0.45720    0.44200    0.08700    1.000
    H4       H        0.48800    0.52630    0.63600    1.000
    O10      O        0.39800    0.43860    0.54200    1.000
    O11      O        0.38470    0.36330    0.72600    1.000
    O12      O        0.41460    0.38400    0.14700    1.000
    Cu5      Cu       0.03517    0.64813    0.31233    1.000
    C17      C        0.08107    0.75413    0.04433    1.000
    C18      C        0.16047    0.85073    0.12133    1.000
    C19      C        0.12347    0.79403    0.20633    1.000
    C20      C        0.12387    0.77533    0.42033    1.000
    H5       H        0.15467    0.85963    0.96933    1.000
    O13      O        0.06467    0.77193    0.87533    1.000
    O14      O        0.05137    0.69663    0.05933    1.000
    O15      O        0.08127    0.71733    0.48033    1.000
    Cu6      Cu       0.70183    0.98147    0.64567    1.000
    C21      C        0.74773    0.08747    0.37767    1.000
    C22      C        0.82713    0.18407    0.45467    1.000
    C23      C        0.79013    0.12737    0.53967    1.000
    C24      C        0.79053    0.10867    0.75367    1.000
    H6       H        0.82133    0.19297    0.30267    1.000
    O16      O        0.73133    0.10527    0.20867    1.000
    O17      O        0.71803    0.02997    0.39267    1.000
    O18      O        0.74793    0.05067    0.81367    1.000
    Cu7      Cu       0.68520    0.05370    0.97900    1.000
    C25      C        0.57920    0.99360    0.71100    1.000
    C26      C        0.48260    0.97640    0.78800    1.000
    C27      C        0.53930    0.99610    0.87300    1.000
    C28      C        0.55800    0.01520    0.08700    1.000
    H7       H        0.47370    0.96170    0.63600    1.000
    O19      O        0.56140    0.95940    0.54200    1.000
    O20      O        0.63670    0.02140    0.72600    1.000
    O21      O        0.61600    0.03060    0.14700    1.000
    Cu8      Cu       0.35187    0.38703    0.31233    1.000
    C29      C        0.24587    0.32693    0.04433    1.000
    C30      C        0.14927    0.30973    0.12133    1.000
    C31      C        0.20597    0.32943    0.20633    1.000
    C32      C        0.22467    0.34853    0.42033    1.000
    H8       H        0.14037    0.29503    0.96933    1.000
    O22      O        0.22807    0.29273    0.87533    1.000
    O23      O        0.30337    0.35473    0.05933    1.000
    O24      O        0.28267    0.36393    0.48033    1.000
    Cu9      Cu       0.01853    0.72037    0.64567    1.000
    C33      C        0.91253    0.66027    0.37767    1.000
    C34      C        0.81593    0.64307    0.45467    1.000
    C35      C        0.87263    0.66277    0.53967    1.000
    C36      C        0.89133    0.68187    0.75367    1.000
    H9       H        0.80703    0.62837    0.30267    1.000
    O25      O        0.89473    0.62607    0.20867    1.000
    O26      O        0.97003    0.68807    0.39267    1.000
    O27      O        0.94933    0.69727    0.81367    1.000
    Cu10     Cu       0.05370    0.36850    0.02100    1.000
    C37      C        0.99360    0.41440    0.28900    1.000
    C38      C        0.97640    0.49380    0.21200    1.000
    C39      C        0.99610    0.45680    0.12700    1.000
    C40      C        0.01520    0.45720    0.91300    1.000
    H10      H        0.96170    0.48800    0.36400    1.000
    O28      O        0.95940    0.39800    0.45800    1.000
    O29      O        0.02140    0.38470    0.27400    1.000
    O30      O        0.03060    0.41460    0.85300    1.000
    Cu11     Cu       0.72037    0.70183    0.35433    1.000
    C41      C        0.66027    0.74773    0.62233    1.000
    C42      C        0.64307    0.82713    0.54533    1.000
    C43      C        0.66277    0.79013    0.46033    1.000
    C44      C        0.68187    0.79053    0.24633    1.000
    H11      H        0.62837    0.82133    0.69733    1.000
    O31      O        0.62607    0.73133    0.79133    1.000
    O32      O        0.68807    0.71803    0.60733    1.000
    O33      O        0.69727    0.74793    0.18633    1.000
    Cu12     Cu       0.38703    0.03517    0.68767    1.000
    C45      C        0.32693    0.08107    0.95567    1.000
    C46      C        0.30973    0.16047    0.87867    1.000
    C47      C        0.32943    0.12347    0.79367    1.000
    C48      C        0.34853    0.12387    0.57967    1.000
    H12      H        0.29503    0.15467    0.03067    1.000
    O34      O        0.29273    0.06467    0.12467    1.000
    O35      O        0.35473    0.05137    0.94067    1.000
    O36      O        0.36393    0.08127    0.51967    1.000
    Cu13     Cu       0.63150    0.68520    0.02100    1.000
    C49      C        0.58560    0.57920    0.28900    1.000
    C50      C        0.50620    0.48260    0.21200    1.000
    C51      C        0.54320    0.53930    0.12700    1.000
    C52      C        0.54280    0.55800    0.91300    1.000
    H13      H        0.51200    0.47370    0.36400    1.000
    O37      O        0.60200    0.56140    0.45800    1.000
    O38      O        0.61530    0.63670    0.27400    1.000
    O39      O        0.58540    0.61600    0.85300    1.000
    Cu14     Cu       0.29817    0.01853    0.35433    1.000
    C53      C        0.25227    0.91253    0.62233    1.000
    C54      C        0.17287    0.81593    0.54533    1.000
    C55      C        0.20987    0.87263    0.46033    1.000
    C56      C        0.20947    0.89133    0.24633    1.000
    H14      H        0.17867    0.80703    0.69733    1.000
    O40      O        0.26867    0.89473    0.79133    1.000
    O41      O        0.28197    0.97003    0.60733    1.000
    O42      O        0.25207    0.94933    0.18633    1.000
    Cu15     Cu       0.96483    0.35187    0.68767    1.000
    C57      C        0.91893    0.24587    0.95567    1.000
    C58      C        0.83953    0.14927    0.87867    1.000
    C59      C        0.87653    0.20597    0.79367    1.000
    C60      C        0.87613    0.22467    0.57967    1.000
    H15      H        0.84533    0.14037    0.03067    1.000
    O43      O        0.93533    0.22807    0.12467    1.000
    O44      O        0.94863    0.30337    0.94067    1.000
    O45      O        0.91873    0.28267    0.51967    1.000
    Cu16     Cu       0.31480    0.94630    0.02100    1.000
    C61      C        0.42080    0.00640    0.28900    1.000
    C62      C        0.51740    0.02360    0.21200    1.000
    C63      C        0.46070    0.00390    0.12700    1.000
    C64      C        0.44200    0.98480    0.91300    1.000
    H16      H        0.52630    0.03830    0.36400    1.000
    O46      O        0.43860    0.04060    0.45800    1.000
    O47      O        0.36330    0.97860    0.27400    1.000
    O48      O        0.38400    0.96940    0.85300    1.000
    Cu17     Cu       0.98147    0.27963    0.35433    1.000
    C65      C        0.08747    0.33973    0.62233    1.000
    C66      C        0.18407    0.35693    0.54533    1.000
    C67      C        0.12737    0.33723    0.46033    1.000
    C68      C        0.10867    0.31813    0.24633    1.000
    H17      H        0.19297    0.37163    0.69733    1.000
    O49      O        0.10527    0.37393    0.79133    1.000
    O50      O        0.02997    0.31193    0.60733    1.000
    O51      O        0.05067    0.30273    0.18633    1.000
    Cu18     Cu       0.64813    0.61297    0.68767    1.000
    C69      C        0.75413    0.67307    0.95567    1.000
    C70      C        0.85073    0.69027    0.87867    1.000
    C71      C        0.79403    0.67057    0.79367    1.000
    C72      C        0.77533    0.65147    0.57967    1.000
    H18      H        0.85963    0.70497    0.03067    1.000
    O52      O        0.77193    0.70727    0.12467    1.000
    O53      O        0.69663    0.64527    0.94067    1.000
    O54      O        0.71733    0.63607    0.51967    1.000
