data_functionalizedCrystal
_audit_creation_method	'EQeq! by Chris Wilmer'
_symmetry_space_group_name_H-M	'P1'
_symmetry_Int_Tables_number	1
_symmetry_cell_setting	triclinic
loop_
_symmetry_equiv_pos_as_xyz
  x,y,z
_cell_length_a	29.5665
_cell_length_b	29.5665
_cell_length_c	31.1563
_cell_angle_alpha	103.726
_cell_angle_beta	103.726
_cell_angle_gamma	90.0038
loop_
_atom_site_label
_atom_site_type_symbol
_atom_site_fract_x
_atom_site_fract_y
_atom_site_fract_z
_atom_site_charge
Mof_Zn	Zn	0.46691	0.00773	0.02982	1.198
Mof_Zn	Zn	0.49256	0.70198	0.47037	1.195
Mof_Zn	Zn	0.99275	0.03327	0.4704	1.199
Mof_Zn	Zn	0.50742	0.79808	0.52982	1.197
Mof_Zn	Zn	0.99227	0.53309	0.47018	1.198
Mof_Zn	Zn	0.29802	0.50744	0.02963	1.195
Mof_Zn	Zn	0.96673	0.00725	0.0296	1.198
Mof_Zn	Zn	0.20192	0.49258	0.97018	1.196
Mof_Zn	Zn	0.53309	0.99227	0.97018	1.198
Mof_Zn	Zn	0.50744	0.29802	0.52963	1.195
Mof_Zn	Zn	0.00725	0.96673	0.5296	1.2
Mof_Zn	Zn	0.49258	0.20192	0.47018	1.198
Mof_Zn	Zn	0.00773	0.46691	0.52982	1.199
Mof_Zn	Zn	0.70198	0.49256	0.97037	1.196
Mof_Zn	Zn	0.03327	0.99275	0.9704	1.199
Mof_Zn	Zn	0.79808	0.50742	0.02982	1.197
Mof_H 	H 	0.6488	0.7736	0.0981	0.04
Mof_H 	H 	0.7265	0.8511	0.4021	0.041
Mof_H 	H 	0.6592	0.8474	0.0791	0.086
Mof_H 	H 	0.619	0.8968	0.0367	0.018
Mof_H 	H 	0.5365	0.9289	0.1253	0.019
Mof_H 	H 	0.5768	0.8796	0.1678	0.1
Mof_H 	H 	0.6303	0.6919	0.0798	0.073
Mof_H 	H 	0.6497	0.6211	0.038	0.027
Mof_H 	H 	0.7769	0.6349	0.1261	0.028
Mof_H 	H 	0.7576	0.7058	0.1679	0.077
Mof_H 	H 	0.7955	0.9247	0.3321	0.1
Mof_H 	H 	0.8664	0.9648	0.3742	0.017
Mof_H 	H 	0.8786	0.8828	0.4633	0.016
Mof_H 	H 	0.8078	0.8426	0.4212	0.084
Mof_H 	H 	0.352	0.725	0.9036	0.041
Mof_H 	H 	0.2435	0.6191	0.8312	0.096
Mof_H 	H 	0.2244	0.5698	0.8737	0.02
Mof_H 	H 	0.3501	0.6043	0.9639	0.018
Mof_H 	H 	0.3692	0.6536	0.9213	0.083
Mof_H 	H 	0.3407	0.8089	0.9211	0.077
Mof_H 	H 	0.3808	0.88	0.9628	0.024
Mof_H 	H 	0.4632	0.8668	0.8741	0.024
Mof_H 	H 	0.4231	0.7957	0.8324	0.086
Mof_H 	H 	0.2249	0.8503	0.4042	0.043
Mof_H 	H 	0.1514	0.8406	0.4217	0.082
Mof_H 	H 	0.1022	0.881	0.4644	0.019
Mof_H 	H 	0.0699	0.9635	0.3757	0.022
Mof_H 	H 	0.1191	0.9231	0.3331	0.101
Mof_H 	H 	0.2966	0.744	0.3325	0.079
Mof_H 	H 	0.3676	0.7248	0.3742	0.023
Mof_H 	H 	0.3792	0.8504	0.4647	0.024
Mof_H 	H 	0.3082	0.8696	0.4229	0.077
Mof_H 	H 	0.6517	0.8711	0.4223	0.079
Mof_H 	H 	0.6014	0.8518	0.4637	0.021
Mof_H 	H 	0.5712	0.7246	0.3753	0.02
Mof_H 	H 	0.6216	0.744	0.3339	0.081
Mof_H 	H 	0.2264	0.3512	0.4019	0.04
Mof_H 	H 	0.1489	0.2735	0.0979	0.041
Mof_H 	H 	0.1526	0.3408	0.4209	0.086
Mof_H 	H 	0.1032	0.381	0.4633	0.018
Mof_H 	H 	0.0711	0.4635	0.3747	0.019
Mof_H 	H 	0.1204	0.4232	0.3322	0.1
Mof_H 	H 	0.3081	0.3697	0.4202	0.073
Mof_H 	H 	0.3789	0.3503	0.462	0.027
Mof_H 	H 	0.3651	0.2231	0.3739	0.028
Mof_H 	H 	0.2942	0.2424	0.3321	0.077
Mof_H 	H 	0.0753	0.2045	0.1679	0.1
Mof_H 	H 	0.0352	0.1336	0.1258	0.017
Mof_H 	H 	0.1172	0.1214	0.0367	0.016
Mof_H 	H 	0.1574	0.1922	0.0788	0.084
Mof_H 	H 	0.275	0.648	0.5964	0.041
Mof_H 	H 	0.3809	0.7565	0.6688	0.096
Mof_H 	H 	0.4302	0.7756	0.6263	0.02
Mof_H 	H 	0.3957	0.6499	0.5361	0.018
Mof_H 	H 	0.3464	0.6308	0.5787	0.083
Mof_H 	H 	0.1911	0.6593	0.5789	0.077
Mof_H 	H 	0.12	0.6192	0.5372	0.024
Mof_H 	H 	0.1332	0.5368	0.6259	0.024
Mof_H 	H 	0.2043	0.5769	0.6676	0.086
Mof_H 	H 	0.1497	0.7751	0.0958	0.043
Mof_H 	H 	0.1594	0.8486	0.0783	0.082
Mof_H 	H 	0.119	0.8978	0.0356	0.02
Mof_H 	H 	0.0365	0.9301	0.1243	0.022
Mof_H 	H 	0.0769	0.8809	0.1669	0.101
Mof_H 	H 	0.256	0.7034	0.1675	0.079
Mof_H 	H 	0.2752	0.6324	0.1258	0.023
Mof_H 	H 	0.1496	0.6208	0.0353	0.024
Mof_H 	H 	0.1304	0.6918	0.0771	0.077
Mof_H 	H 	0.1289	0.3483	0.0777	0.079
Mof_H 	H 	0.1482	0.3986	0.0363	0.022
Mof_H 	H 	0.2754	0.4288	0.1247	0.02
Mof_H 	H 	0.256	0.3784	0.1661	0.081
Mof_H 	H 	0.3512	0.2264	0.9019	0.04
Mof_H 	H 	0.2735	0.1489	0.5979	0.041
Mof_H 	H 	0.3408	0.1526	0.9209	0.086
Mof_H 	H 	0.381	0.1032	0.9633	0.018
Mof_H 	H 	0.4635	0.0711	0.8747	0.019
Mof_H 	H 	0.4232	0.1204	0.8322	0.1
Mof_H 	H 	0.3697	0.3081	0.9202	0.073
Mof_H 	H 	0.3503	0.3789	0.962	0.027
Mof_H 	H 	0.2231	0.3651	0.8739	0.028
Mof_H 	H 	0.2424	0.2942	0.8321	0.077
Mof_H 	H 	0.2045	0.0753	0.6679	0.1
Mof_H 	H 	0.1336	0.0352	0.6258	0.017
Mof_H 	H 	0.1214	0.1172	0.5367	0.016
Mof_H 	H 	0.1922	0.1574	0.5788	0.084
Mof_H 	H 	0.648	0.275	0.0964	0.041
Mof_H 	H 	0.7565	0.3809	0.1688	0.096
Mof_H 	H 	0.7756	0.4302	0.1263	0.02
Mof_H 	H 	0.6499	0.3957	0.0361	0.018
Mof_H 	H 	0.6308	0.3464	0.0787	0.083
Mof_H 	H 	0.6593	0.1911	0.0789	0.077
Mof_H 	H 	0.6192	0.12	0.0372	0.024
Mof_H 	H 	0.5368	0.1332	0.1259	0.024
Mof_H 	H 	0.5769	0.2043	0.1676	0.086
Mof_H 	H 	0.7751	0.1497	0.5958	0.043
Mof_H 	H 	0.8486	0.1594	0.5783	0.082
Mof_H 	H 	0.8978	0.119	0.5356	0.019
Mof_H 	H 	0.9301	0.0365	0.6243	0.022
Mof_H 	H 	0.8809	0.0769	0.6669	0.101
Mof_H 	H 	0.7034	0.256	0.6675	0.079
Mof_H 	H 	0.6324	0.2752	0.6258	0.023
Mof_H 	H 	0.6208	0.1496	0.5353	0.024
Mof_H 	H 	0.6918	0.1304	0.5771	0.077
Mof_H 	H 	0.3483	0.1289	0.5777	0.079
Mof_H 	H 	0.3986	0.1482	0.5363	0.021
Mof_H 	H 	0.4288	0.2754	0.6247	0.02
Mof_H 	H 	0.3784	0.256	0.6661	0.081
Mof_H 	H 	0.7736	0.6488	0.5981	0.04
Mof_H 	H 	0.8511	0.7265	0.9021	0.041
Mof_H 	H 	0.8474	0.6592	0.5791	0.086
Mof_H 	H 	0.8968	0.619	0.5367	0.018
Mof_H 	H 	0.9289	0.5365	0.6253	0.019
Mof_H 	H 	0.8796	0.5768	0.6678	0.1
Mof_H 	H 	0.6919	0.6303	0.5798	0.073
Mof_H 	H 	0.6211	0.6497	0.538	0.027
Mof_H 	H 	0.6349	0.7769	0.6261	0.028
Mof_H 	H 	0.7058	0.7576	0.6679	0.077
Mof_H 	H 	0.9247	0.7955	0.8321	0.1
Mof_H 	H 	0.9648	0.8664	0.8742	0.017
Mof_H 	H 	0.8828	0.8786	0.9633	0.016
Mof_H 	H 	0.8426	0.8078	0.9212	0.084
Mof_H 	H 	0.725	0.352	0.4036	0.041
Mof_H 	H 	0.6191	0.2435	0.3312	0.096
Mof_H 	H 	0.5698	0.2244	0.3737	0.02
Mof_H 	H 	0.6043	0.3501	0.4639	0.018
Mof_H 	H 	0.6536	0.3692	0.4213	0.083
Mof_H 	H 	0.8089	0.3407	0.4211	0.077
Mof_H 	H 	0.88	0.3808	0.4628	0.024
Mof_H 	H 	0.8668	0.4632	0.3741	0.024
Mof_H 	H 	0.7957	0.4231	0.3324	0.086
Mof_H 	H 	0.8503	0.2249	0.9042	0.043
Mof_H 	H 	0.8406	0.1514	0.9217	0.082
Mof_H 	H 	0.881	0.1022	0.9644	0.02
Mof_H 	H 	0.9635	0.0699	0.8757	0.022
Mof_H 	H 	0.9231	0.1191	0.8331	0.101
Mof_H 	H 	0.744	0.2966	0.8325	0.079
Mof_H 	H 	0.7248	0.3676	0.8742	0.023
Mof_H 	H 	0.8504	0.3792	0.9647	0.024
Mof_H 	H 	0.8696	0.3082	0.9229	0.077
Mof_H 	H 	0.8711	0.6517	0.9223	0.079
Mof_H 	H 	0.8518	0.6014	0.9637	0.022
Mof_H 	H 	0.7246	0.5712	0.8753	0.02
Mof_H 	H 	0.744	0.6216	0.8339	0.081
Mof_C 	C 	0.68146	0.80898	0.22585	-0.024
Mof_C 	C 	0.65748	0.83944	0.2009	0.141
Mof_C 	C 	0.64519	0.82613	0.1529	-0.079
Mof_C 	C 	0.65687	0.78235	0.1298	-0.025
Mof_C 	C 	0.68085	0.75189	0.1547	-0.03
Mof_C 	C 	0.69314	0.7652	0.2028	0.008
Mof_C 	C 	0.69101	0.81913	0.27441	-0.026
Mof_C 	C 	0.73476	0.84248	0.2973	0.136
Mof_C 	C 	0.74811	0.85451	0.3454	-0.068
Mof_C 	C 	0.71771	0.84321	0.37045	-0.029
Mof_C 	C 	0.67395	0.81985	0.3475	-0.033
Mof_C 	C 	0.6606	0.80782	0.2995	0.011
Mof_C 	C 	0.62217	0.85837	0.1278	0.116
Mof_C 	C 	0.63486	0.8636	0.0883	-0.152
Mof_C 	C 	0.61057	0.89339	0.06273	0.068
Mof_C 	C 	0.57357	0.91797	0.07666	-0.14
Mof_C 	C 	0.56088	0.91274	0.1162	0.071
Mof_C 	C 	0.58517	0.88295	0.14172	-0.15
Mof_C 	C 	0.69199	0.70615	0.1281	0.072
Mof_C 	C 	0.65947	0.68061	0.089	-0.121
Mof_C 	C 	0.67112	0.63788	0.06381	0.038
Mof_C 	C 	0.71528	0.6207	0.07775	-0.111
Mof_C 	C 	0.74781	0.64623	0.1169	0.043
Mof_C 	C 	0.73616	0.68896	0.14207	-0.122
Mof_C 	C 	0.79437	0.87951	0.37234	0.109
Mof_C 	C 	0.81202	0.91632	0.35819	-0.148
Mof_C 	C 	0.85471	0.94053	0.3836	0.076
Mof_C 	C 	0.87973	0.92793	0.4231	-0.152
Mof_C 	C 	0.86209	0.89111	0.43723	0.073
Mof_C 	C 	0.8194	0.8669	0.4119	-0.152
Mof_C 	C 	0.31878	0.69656	0.77585	-0.025
Mof_C 	C 	0.31023	0.66305	0.799	0.12
Mof_C 	C 	0.32271	0.67377	0.847	-0.066
Mof_C 	C 	0.34374	0.718	0.87189	-0.028
Mof_C 	C 	0.35227	0.75151	0.8488	-0.037
Mof_C 	C 	0.33979	0.74079	0.8008	0.02
Mof_C 	C 	0.30835	0.64141	0.8719	0.106
Mof_C 	C 	0.26472	0.61618	0.85754	-0.144
Mof_C 	C 	0.25318	0.58648	0.8832	0.068
Mof_C 	C 	0.28529	0.58199	0.92317	-0.139
Mof_C 	C 	0.32892	0.6072	0.93752	0.065
Mof_C 	C 	0.34045	0.63691	0.9119	-0.147
Mof_C 	C 	0.37776	0.79506	0.8725	0.084
Mof_C 	C 	0.36501	0.82043	0.9118	-0.132
Mof_C 	C 	0.38918	0.86322	0.93692	0.051
Mof_C 	C 	0.4261	0.88062	0.92274	-0.124
Mof_C 	C 	0.43885	0.85525	0.8834	0.054
Mof_C 	C 	0.41468	0.81246	0.8583	-0.132
Mof_C 	C 	0.19656	0.81922	0.27654	-0.024
Mof_C 	C 	0.24067	0.81049	0.3015	0.004
Mof_C 	C 	0.25132	0.82214	0.3496	-0.03
Mof_C 	C 	0.21785	0.84253	0.37258	-0.034
Mof_C 	C 	0.17375	0.85127	0.3476	-0.06
Mof_C 	C 	0.16309	0.83961	0.2996	0.121
Mof_C 	C 	0.14033	0.87773	0.37306	0.105
Mof_C 	C 	0.13522	0.86506	0.4126	-0.146
Mof_C 	C 	0.10555	0.88943	0.43828	0.065
Mof_C 	C 	0.08099	0.92645	0.42441	-0.139
Mof_C 	C 	0.0861	0.93912	0.3849	0.07
Mof_C 	C 	0.11576	0.91476	0.35919	-0.144
Mof_C 	C 	0.29514	0.80872	0.37344	0.078
Mof_C 	C 	0.31304	0.7651	0.35876	-0.13
Mof_C 	C 	0.35584	0.75354	0.3839	0.054
Mof_C 	C 	0.38074	0.7856	0.42371	-0.129
Mof_C 	C 	0.36283	0.82923	0.43839	0.052
Mof_C 	C 	0.32005	0.84079	0.4133	-0.129
Mof_C 	C 	0.64183	0.80953	0.3738	0.082
Mof_C 	C 	0.63574	0.842	0.4129	-0.133
Mof_C 	C 	0.60537	0.83035	0.4379	0.056
Mof_C 	C 	0.58109	0.78623	0.42374	-0.138
Mof_C 	C 	0.58718	0.75376	0.3846	0.062
Mof_C 	C 	0.61756	0.76542	0.35967	-0.135
Mof_C 	C 	0.5481	0.9491	0.0479	0.416
Mof_C 	C 	0.726	0.5742	0.0479	0.392
Mof_C 	C 	0.5513	0.7763	0.4531	0.41
Mof_C 	C 	0.0499	0.9515	0.4526	0.419
Mof_C 	C 	0.2739	0.5509	0.9509	0.401
Mof_C 	C 	0.9242	0.9534	0.451	0.42
Mof_C 	C 	0.4522	0.9258	0.9507	0.388
Mof_C 	C 	0.4258	0.7738	0.4524	0.414
Mof_C 	C 	0.8025	0.8161	0.2745	0.067
Mof_C 	C 	0.8329	0.8349	0.2449	-0.012
Mof_C 	C 	0.6887	0.9161	0.2342	0.078
Mof_C 	C 	0.6754	0.9642	0.2636	-0.015
Mof_C 	C 	0.0818	0.81	0.2765	0.064
Mof_C 	C 	0.0341	0.8263	0.2459	-0.01
Mof_C 	C 	0.3311	0.5863	0.7763	0.072
Mof_C 	C 	0.3025	0.5379	0.7498	-0.016
Mof_C 	C 	0.19102	0.31854	0.27415	-0.024
Mof_C 	C 	0.16056	0.34252	0.2991	0.141
Mof_C 	C 	0.17387	0.35481	0.3471	-0.079
Mof_C 	C 	0.21765	0.34313	0.3702	-0.025
Mof_C 	C 	0.24811	0.31915	0.3453	-0.03
Mof_C 	C 	0.2348	0.30686	0.2972	0.008
Mof_C 	C 	0.18087	0.30899	0.22559	-0.026
Mof_C 	C 	0.15752	0.26524	0.2027	0.136
Mof_C 	C 	0.14549	0.25189	0.1546	-0.068
Mof_C 	C 	0.15679	0.28229	0.12955	-0.029
Mof_C 	C 	0.18015	0.32605	0.1525	-0.033
Mof_C 	C 	0.19218	0.3394	0.2005	0.011
Mof_C 	C 	0.14163	0.37783	0.3722	0.116
Mof_C 	C 	0.1364	0.36514	0.4117	-0.153
Mof_C 	C 	0.10661	0.38943	0.43727	0.068
Mof_C 	C 	0.08203	0.42643	0.42334	-0.14
Mof_C 	C 	0.08726	0.43912	0.3838	0.072
Mof_C 	C 	0.11705	0.41483	0.35828	-0.15
Mof_C 	C 	0.29385	0.30801	0.3719	0.072
Mof_C 	C 	0.31939	0.34053	0.411	-0.121
Mof_C 	C 	0.36212	0.32888	0.43619	0.038
Mof_C 	C 	0.3793	0.28472	0.42225	-0.111
Mof_C 	C 	0.35377	0.25219	0.3831	0.043
Mof_C 	C 	0.31104	0.26384	0.35793	-0.122
Mof_C 	C 	0.12049	0.20563	0.12766	0.109
Mof_C 	C 	0.08368	0.18798	0.14181	-0.148
Mof_C 	C 	0.05947	0.14529	0.1164	0.076
Mof_C 	C 	0.07207	0.12027	0.0769	-0.152
Mof_C 	C 	0.10889	0.13791	0.06277	0.073
Mof_C 	C 	0.1331	0.1806	0.0881	-0.152
Mof_C 	C 	0.30344	0.68122	0.72415	-0.025
Mof_C 	C 	0.33695	0.68977	0.701	0.12
Mof_C 	C 	0.32623	0.67729	0.653	-0.066
Mof_C 	C 	0.282	0.65626	0.62811	-0.028
Mof_C 	C 	0.24849	0.64773	0.6512	-0.037
Mof_C 	C 	0.25921	0.66021	0.6992	0.02
Mof_C 	C 	0.35859	0.69165	0.6281	0.106
Mof_C 	C 	0.38382	0.73528	0.64246	-0.144
Mof_C 	C 	0.41352	0.74682	0.6168	0.068
Mof_C 	C 	0.41801	0.71471	0.57683	-0.139
Mof_C 	C 	0.3928	0.67108	0.56248	0.065
Mof_C 	C 	0.36309	0.65955	0.5881	-0.147
Mof_C 	C 	0.20494	0.62224	0.6275	0.084
Mof_C 	C 	0.17957	0.63499	0.5882	-0.131
Mof_C 	C 	0.13678	0.61082	0.56308	0.051
Mof_C 	C 	0.11938	0.5739	0.57726	-0.123
Mof_C 	C 	0.14475	0.56115	0.6166	0.054
Mof_C 	C 	0.18754	0.58532	0.6417	-0.132
Mof_C 	C 	0.18078	0.80344	0.22346	-0.024
Mof_C 	C 	0.18951	0.75933	0.1985	0.004
Mof_C 	C 	0.17786	0.74868	0.1504	-0.03
Mof_C 	C 	0.15747	0.78215	0.12742	-0.034
Mof_C 	C 	0.14873	0.82625	0.1524	-0.06
Mof_C 	C 	0.16039	0.83691	0.2004	0.121
Mof_C 	C 	0.12227	0.85967	0.12694	0.105
Mof_C 	C 	0.13494	0.86478	0.0874	-0.145
Mof_C 	C 	0.11057	0.89445	0.06172	0.065
Mof_C 	C 	0.07355	0.91901	0.07559	-0.139
Mof_C 	C 	0.06088	0.9139	0.1151	0.07
Mof_C 	C 	0.08524	0.88424	0.14081	-0.144
Mof_C 	C 	0.19128	0.70486	0.12656	0.078
Mof_C 	C 	0.2349	0.68696	0.14124	-0.13
Mof_C 	C 	0.24646	0.64416	0.1161	0.054
Mof_C 	C 	0.2144	0.61926	0.07629	-0.129
Mof_C 	C 	0.17077	0.63717	0.06161	0.052
Mof_C 	C 	0.15921	0.67995	0.0867	-0.129
Mof_C 	C 	0.19047	0.35817	0.1262	0.082
Mof_C 	C 	0.158	0.36426	0.0871	-0.133
Mof_C 	C 	0.16965	0.39463	0.0621	0.056
Mof_C 	C 	0.21377	0.41891	0.07626	-0.138
Mof_C 	C 	0.24624	0.41282	0.1154	0.062
Mof_C 	C 	0.23458	0.38244	0.14033	-0.134
Mof_C 	C 	0.0509	0.4519	0.4521	0.416
Mof_C 	C 	0.4258	0.274	0.4521	0.392
Mof_C 	C 	0.2237	0.4487	0.0469	0.41
Mof_C 	C 	0.0485	0.9501	0.0474	0.419
Mof_C 	C 	0.4491	0.7261	0.5491	0.401
Mof_C 	C 	0.0466	0.0758	0.049	0.42
Mof_C 	C 	0.0742	0.5478	0.5493	0.388
Mof_C 	C 	0.2262	0.5742	0.0476	0.414
Mof_C 	C 	0.1839	0.1975	0.2255	0.067
Mof_C 	C 	0.1651	0.1671	0.2551	-0.012
Mof_C 	C 	0.0839	0.3113	0.2658	0.078
Mof_C 	C 	0.0358	0.3246	0.2364	-0.015
Mof_C 	C 	0.19	0.9182	0.2235	0.064
Mof_C 	C 	0.1737	0.9659	0.2541	-0.01
Mof_C 	C 	0.4137	0.6689	0.7237	0.072
Mof_C 	C 	0.4621	0.6975	0.7502	-0.016
Mof_C 	C 	0.31854	0.19102	0.77415	-0.024
Mof_C 	C 	0.34252	0.16056	0.7991	0.141
Mof_C 	C 	0.35481	0.17387	0.8471	-0.079
Mof_C 	C 	0.34313	0.21765	0.8702	-0.025
Mof_C 	C 	0.31915	0.24811	0.8453	-0.03
Mof_C 	C 	0.30686	0.2348	0.7972	0.008
Mof_C 	C 	0.30899	0.18087	0.72559	-0.026
Mof_C 	C 	0.26524	0.15752	0.7027	0.136
Mof_C 	C 	0.25189	0.14549	0.6546	-0.068
Mof_C 	C 	0.28229	0.15679	0.62955	-0.029
Mof_C 	C 	0.32605	0.18015	0.6525	-0.033
Mof_C 	C 	0.3394	0.19218	0.7005	0.011
Mof_C 	C 	0.37783	0.14163	0.8722	0.116
Mof_C 	C 	0.36514	0.1364	0.9117	-0.152
Mof_C 	C 	0.38943	0.10661	0.93727	0.068
Mof_C 	C 	0.42643	0.08203	0.92334	-0.14
Mof_C 	C 	0.43912	0.08726	0.8838	0.071
Mof_C 	C 	0.41483	0.11705	0.85828	-0.15
Mof_C 	C 	0.30801	0.29385	0.8719	0.072
Mof_C 	C 	0.34053	0.31939	0.911	-0.121
Mof_C 	C 	0.32888	0.36212	0.93619	0.038
Mof_C 	C 	0.28472	0.3793	0.92225	-0.111
Mof_C 	C 	0.25219	0.35377	0.8831	0.043
Mof_C 	C 	0.26384	0.31104	0.85793	-0.122
Mof_C 	C 	0.20563	0.12049	0.62766	0.109
Mof_C 	C 	0.18798	0.08368	0.64181	-0.148
Mof_C 	C 	0.14529	0.05947	0.6164	0.076
Mof_C 	C 	0.12027	0.07207	0.5769	-0.152
Mof_C 	C 	0.13791	0.10889	0.56277	0.073
Mof_C 	C 	0.1806	0.1331	0.5881	-0.152
Mof_C 	C 	0.68122	0.30344	0.22415	-0.025
Mof_C 	C 	0.68977	0.33695	0.201	0.12
Mof_C 	C 	0.67729	0.32623	0.153	-0.066
Mof_C 	C 	0.65626	0.282	0.12811	-0.028
Mof_C 	C 	0.64773	0.24849	0.1512	-0.037
Mof_C 	C 	0.66021	0.25921	0.1992	0.02
Mof_C 	C 	0.69165	0.35859	0.1281	0.106
Mof_C 	C 	0.73528	0.38382	0.14246	-0.144
Mof_C 	C 	0.74682	0.41352	0.1168	0.068
Mof_C 	C 	0.71471	0.41801	0.07683	-0.139
Mof_C 	C 	0.67108	0.3928	0.06248	0.065
Mof_C 	C 	0.65955	0.36309	0.0881	-0.147
Mof_C 	C 	0.62224	0.20494	0.1275	0.084
Mof_C 	C 	0.63499	0.17957	0.0882	-0.132
Mof_C 	C 	0.61082	0.13678	0.06308	0.051
Mof_C 	C 	0.5739	0.11938	0.07726	-0.124
Mof_C 	C 	0.56115	0.14475	0.1166	0.054
Mof_C 	C 	0.58532	0.18754	0.1417	-0.132
Mof_C 	C 	0.80344	0.18078	0.72346	-0.024
Mof_C 	C 	0.75933	0.18951	0.6985	0.004
Mof_C 	C 	0.74868	0.17786	0.6504	-0.03
Mof_C 	C 	0.78215	0.15747	0.62742	-0.034
Mof_C 	C 	0.82625	0.14873	0.6524	-0.06
Mof_C 	C 	0.83691	0.16039	0.7004	0.121
Mof_C 	C 	0.85967	0.12227	0.62694	0.105
Mof_C 	C 	0.86478	0.13494	0.5874	-0.146
Mof_C 	C 	0.89445	0.11057	0.56172	0.065
Mof_C 	C 	0.91901	0.07355	0.57559	-0.139
Mof_C 	C 	0.9139	0.06088	0.6151	0.07
Mof_C 	C 	0.88424	0.08524	0.64081	-0.144
Mof_C 	C 	0.70486	0.19128	0.62656	0.078
Mof_C 	C 	0.68696	0.2349	0.64124	-0.13
Mof_C 	C 	0.64416	0.24646	0.6161	0.054
Mof_C 	C 	0.61926	0.2144	0.57629	-0.129
Mof_C 	C 	0.63717	0.17077	0.56161	0.052
Mof_C 	C 	0.67995	0.15921	0.5867	-0.129
Mof_C 	C 	0.35817	0.19047	0.6262	0.082
Mof_C 	C 	0.36426	0.158	0.5871	-0.133
Mof_C 	C 	0.39463	0.16965	0.5621	0.056
Mof_C 	C 	0.41891	0.21377	0.57626	-0.138
Mof_C 	C 	0.41282	0.24624	0.6154	0.062
Mof_C 	C 	0.38244	0.23458	0.64033	-0.135
Mof_C 	C 	0.4519	0.0509	0.9521	0.416
Mof_C 	C 	0.274	0.4258	0.9521	0.392
Mof_C 	C 	0.4487	0.2237	0.5469	0.41
Mof_C 	C 	0.9501	0.0485	0.5474	0.419
Mof_C 	C 	0.7261	0.4491	0.0491	0.401
Mof_C 	C 	0.0758	0.0466	0.549	0.42
Mof_C 	C 	0.5478	0.0742	0.0493	0.388
Mof_C 	C 	0.5742	0.2262	0.5476	0.414
Mof_C 	C 	0.1975	0.1839	0.7255	0.067
Mof_C 	C 	0.1671	0.1651	0.7551	-0.012
Mof_C 	C 	0.3113	0.0839	0.7658	0.078
Mof_C 	C 	0.3246	0.0358	0.7364	-0.015
Mof_C 	C 	0.9182	0.19	0.7235	0.064
Mof_C 	C 	0.9659	0.1737	0.7541	-0.01
Mof_C 	C 	0.6689	0.4137	0.2237	0.072
Mof_C 	C 	0.6975	0.4621	0.2502	-0.016
Mof_C 	C 	0.80898	0.68146	0.72585	-0.024
Mof_C 	C 	0.83944	0.65748	0.7009	0.141
Mof_C 	C 	0.82613	0.64519	0.6529	-0.079
Mof_C 	C 	0.78235	0.65687	0.6298	-0.025
Mof_C 	C 	0.75189	0.68085	0.6547	-0.03
Mof_C 	C 	0.7652	0.69314	0.7028	0.008
Mof_C 	C 	0.81913	0.69101	0.77441	-0.026
Mof_C 	C 	0.84248	0.73476	0.7973	0.136
Mof_C 	C 	0.85451	0.74811	0.8454	-0.068
Mof_C 	C 	0.84321	0.71771	0.87045	-0.029
Mof_C 	C 	0.81985	0.67395	0.8475	-0.033
Mof_C 	C 	0.80782	0.6606	0.7995	0.011
Mof_C 	C 	0.85837	0.62217	0.6278	0.116
Mof_C 	C 	0.8636	0.63486	0.5883	-0.153
Mof_C 	C 	0.89339	0.61057	0.56273	0.068
Mof_C 	C 	0.91797	0.57357	0.57666	-0.14
Mof_C 	C 	0.91274	0.56088	0.6162	0.072
Mof_C 	C 	0.88295	0.58517	0.64172	-0.15
Mof_C 	C 	0.70615	0.69199	0.6281	0.072
Mof_C 	C 	0.68061	0.65947	0.589	-0.121
Mof_C 	C 	0.63788	0.67112	0.56381	0.038
Mof_C 	C 	0.6207	0.71528	0.57775	-0.111
Mof_C 	C 	0.64623	0.74781	0.6169	0.043
Mof_C 	C 	0.68896	0.73616	0.64207	-0.122
Mof_C 	C 	0.87951	0.79437	0.87234	0.109
Mof_C 	C 	0.91632	0.81202	0.85819	-0.148
Mof_C 	C 	0.94053	0.85471	0.8836	0.076
Mof_C 	C 	0.92793	0.87973	0.9231	-0.152
Mof_C 	C 	0.89111	0.86209	0.93723	0.073
Mof_C 	C 	0.8669	0.8194	0.9119	-0.152
Mof_C 	C 	0.69656	0.31878	0.27585	-0.025
Mof_C 	C 	0.66305	0.31023	0.299	0.12
Mof_C 	C 	0.67377	0.32271	0.347	-0.066
Mof_C 	C 	0.718	0.34374	0.37189	-0.028
Mof_C 	C 	0.75151	0.35227	0.3488	-0.037
Mof_C 	C 	0.74079	0.33979	0.3008	0.02
Mof_C 	C 	0.64141	0.30835	0.3719	0.106
Mof_C 	C 	0.61618	0.26472	0.35754	-0.144
Mof_C 	C 	0.58648	0.25318	0.3832	0.068
Mof_C 	C 	0.58199	0.28529	0.42317	-0.139
Mof_C 	C 	0.6072	0.32892	0.43752	0.065
Mof_C 	C 	0.63691	0.34045	0.4119	-0.147
Mof_C 	C 	0.79506	0.37776	0.3725	0.084
Mof_C 	C 	0.82043	0.36501	0.4118	-0.131
Mof_C 	C 	0.86322	0.38918	0.43692	0.051
Mof_C 	C 	0.88062	0.4261	0.42274	-0.123
Mof_C 	C 	0.85525	0.43885	0.3834	0.054
Mof_C 	C 	0.81246	0.41468	0.3583	-0.132
Mof_C 	C 	0.81922	0.19656	0.77654	-0.024
Mof_C 	C 	0.81049	0.24067	0.8015	0.004
Mof_C 	C 	0.82214	0.25132	0.8496	-0.03
Mof_C 	C 	0.84253	0.21785	0.87258	-0.034
Mof_C 	C 	0.85127	0.17375	0.8476	-0.06
Mof_C 	C 	0.83961	0.16309	0.7996	0.121
Mof_C 	C 	0.87773	0.14033	0.87306	0.105
Mof_C 	C 	0.86506	0.13522	0.9126	-0.145
Mof_C 	C 	0.88943	0.10555	0.93828	0.065
Mof_C 	C 	0.92645	0.08099	0.92441	-0.139
Mof_C 	C 	0.93912	0.0861	0.8849	0.07
Mof_C 	C 	0.91476	0.11576	0.85919	-0.144
Mof_C 	C 	0.80872	0.29514	0.87344	0.078
Mof_C 	C 	0.7651	0.31304	0.85876	-0.13
Mof_C 	C 	0.75354	0.35584	0.8839	0.054
Mof_C 	C 	0.7856	0.38074	0.92371	-0.129
Mof_C 	C 	0.82923	0.36283	0.93839	0.052
Mof_C 	C 	0.84079	0.32005	0.9133	-0.129
Mof_C 	C 	0.80953	0.64183	0.8738	0.082
Mof_C 	C 	0.842	0.63574	0.9129	-0.133
Mof_C 	C 	0.83035	0.60537	0.9379	0.056
Mof_C 	C 	0.78623	0.58109	0.92374	-0.138
Mof_C 	C 	0.75376	0.58718	0.8846	0.062
Mof_C 	C 	0.76542	0.61756	0.85967	-0.134
Mof_C 	C 	0.9491	0.5481	0.5479	0.416
Mof_C 	C 	0.5742	0.726	0.5479	0.392
Mof_C 	C 	0.7763	0.5513	0.9531	0.41
Mof_C 	C 	0.9515	0.0499	0.9526	0.419
Mof_C 	C 	0.5509	0.2739	0.4509	0.401
Mof_C 	C 	0.9534	0.9242	0.951	0.42
Mof_C 	C 	0.9258	0.4522	0.4507	0.388
Mof_C 	C 	0.7738	0.4258	0.9524	0.414
Mof_C 	C 	0.8161	0.8025	0.7745	0.067
Mof_C 	C 	0.8349	0.8329	0.7449	-0.012
Mof_C 	C 	0.9161	0.6887	0.7342	0.078
Mof_C 	C 	0.9642	0.6754	0.7636	-0.015
Mof_C 	C 	0.81	0.0818	0.7765	0.064
Mof_C 	C 	0.8263	0.0341	0.7459	-0.01
Mof_C 	C 	0.5863	0.3311	0.2763	0.072
Mof_C 	C 	0.5379	0.3025	0.2498	-0.016
Mof_O 	O 	0.53335	0.73275	0.4392	-0.462
Mof_O 	O 	0.54371	0.80519	0.4844	-0.502
Mof_O 	O 	0.30402	0.54502	0.9842	-0.483
Mof_O 	O 	0.23179	0.53303	0.9383	-0.467
Mof_O 	O 	0.76854	0.56384	0.0622	-0.464
Mof_O 	O 	0.69574	0.55158	0.0163	-0.493
Mof_O 	O 	0.43651	0.73159	0.43794	-0.473
Mof_O 	O 	0.4472	0.80376	0.4843	-0.497
Mof_O 	O 	0.04409	0.93711	0.484	-0.499
Mof_O 	O 	0.03297	0.98705	0.4383	-0.468
Mof_O 	O 	0.5126	0.96698	0.061	-0.472
Mof_O 	O 	0.56202	0.9555	0.0158	-0.493
Mof_O 	O 	0.93734	0.98808	0.4392	-0.485
Mof_O 	O 	0.94756	0.93904	0.484	-0.487
Mof_O 	O 	0.4374	0.94834	0.9843	-0.474
Mof_O 	O 	0.48786	0.937	0.9388	-0.476
Mof_O 	O 	0.7661	0.8509	0.2748	-0.213
Mof_O 	O 	0.649	0.8802	0.226	-0.214
Mof_O 	O 	0.1176	0.8462	0.2764	-0.191
Mof_O 	O 	0.2929	0.6179	0.7749	-0.208
Mof_O 	O 	0.26725	0.46665	0.0608	-0.461
Mof_O 	O 	0.19481	0.45629	0.0156	-0.501
Mof_O 	O 	0.45498	0.69598	0.5158	-0.483
Mof_O 	O 	0.46697	0.76821	0.5617	-0.467
Mof_O 	O 	0.43616	0.23146	0.4378	-0.464
Mof_O 	O 	0.44842	0.30426	0.4837	-0.493
Mof_O 	O 	0.26841	0.56349	0.06206	-0.473
Mof_O 	O 	0.19624	0.5528	0.0157	-0.496
Mof_O 	O 	0.06289	0.95591	0.016	-0.498
Mof_O 	O 	0.01295	0.96703	0.0617	-0.467
Mof_O 	O 	0.03302	0.4874	0.439	-0.472
Mof_O 	O 	0.0445	0.43798	0.4842	-0.494
Mof_O 	O 	0.01192	0.06266	0.0608	-0.485
Mof_O 	O 	0.06096	0.05244	0.016	-0.487
Mof_O 	O 	0.05166	0.5626	0.5157	-0.473
Mof_O 	O 	0.063	0.51214	0.5612	-0.476
Mof_O 	O 	0.1491	0.2339	0.2252	-0.213
Mof_O 	O 	0.1198	0.351	0.274	-0.214
Mof_O 	O 	0.1538	0.8824	0.2236	-0.191
Mof_O 	O 	0.3821	0.7071	0.7251	-0.208
Mof_O 	O 	0.46665	0.26725	0.5608	-0.462
Mof_O 	O 	0.45629	0.19481	0.5156	-0.502
Mof_O 	O 	0.69598	0.45498	0.0158	-0.483
Mof_O 	O 	0.76821	0.46697	0.0617	-0.467
Mof_O 	O 	0.23146	0.43616	0.9378	-0.464
Mof_O 	O 	0.30426	0.44842	0.9837	-0.493
Mof_O 	O 	0.56349	0.26841	0.56206	-0.473
Mof_O 	O 	0.5528	0.19624	0.5157	-0.497
Mof_O 	O 	0.95591	0.06289	0.516	-0.499
Mof_O 	O 	0.96703	0.01295	0.5617	-0.468
Mof_O 	O 	0.4874	0.03302	0.939	-0.472
Mof_O 	O 	0.43798	0.0445	0.9842	-0.493
Mof_O 	O 	0.06266	0.01192	0.5608	-0.485
Mof_O 	O 	0.05244	0.06096	0.516	-0.487
Mof_O 	O 	0.5626	0.05166	0.0157	-0.474
Mof_O 	O 	0.51214	0.063	0.0612	-0.476
Mof_O 	O 	0.2339	0.1491	0.7252	-0.213
Mof_O 	O 	0.351	0.1198	0.774	-0.214
Mof_O 	O 	0.8824	0.1538	0.7236	-0.191
Mof_O 	O 	0.7071	0.3821	0.2251	-0.208
Mof_O 	O 	0.73275	0.53335	0.9392	-0.461
Mof_O 	O 	0.80519	0.54371	0.9844	-0.501
Mof_O 	O 	0.54502	0.30402	0.4842	-0.483
Mof_O 	O 	0.53303	0.23179	0.4383	-0.467
Mof_O 	O 	0.56384	0.76854	0.5622	-0.464
Mof_O 	O 	0.55158	0.69574	0.5163	-0.493
Mof_O 	O 	0.73159	0.43651	0.93794	-0.473
Mof_O 	O 	0.80376	0.4472	0.9843	-0.496
Mof_O 	O 	0.93711	0.04409	0.984	-0.498
Mof_O 	O 	0.98705	0.03297	0.9383	-0.467
Mof_O 	O 	0.96698	0.5126	0.561	-0.472
Mof_O 	O 	0.9555	0.56202	0.5158	-0.494
Mof_O 	O 	0.98808	0.93734	0.9392	-0.485
Mof_O 	O 	0.93904	0.94756	0.984	-0.487
Mof_O 	O 	0.94834	0.4374	0.4843	-0.473
Mof_O 	O 	0.937	0.48786	0.4388	-0.476
Mof_O 	O 	0.8509	0.7661	0.7748	-0.213
Mof_O 	O 	0.8802	0.649	0.726	-0.214
Mof_O 	O 	0.8462	0.1176	0.7764	-0.191
Mof_O 	O 	0.6179	0.2929	0.2749	-0.208
_end
