data_functionalizedCrystal
_audit_creation_method	'EQeq! by Chris Wilmer'
_symmetry_space_group_name_H-M	'P1'
_symmetry_Int_Tables_number	1
_symmetry_cell_setting	triclinic
loop_
_symmetry_equiv_pos_as_xyz
  x,y,z
_cell_length_a	10.09
_cell_length_b	16.362
_cell_length_c	24.453
_cell_angle_alpha	106.75
_cell_angle_beta	92.97
_cell_angle_gamma	103.16
loop_
_atom_site_label
_atom_site_type_symbol
_atom_site_fract_x
_atom_site_fract_y
_atom_site_fract_z
_atom_site_charge
Mof_Co	Co	0.59872	0.15569	0.03782	1.154
Mof_Co	Co	0.04104	0.65138	0.54054	1.153
Mof_H 	H 	0.2453	0.9999	0.0988	0.059
Mof_H 	H 	0.8488	0.0022	0.0983	0.062
Mof_H 	H 	0.102	0.1647	0.0312	0.062
Mof_H 	H 	0.9079	0.973	0.1926	0.056
Mof_H 	H 	0.8633	0.859	0.2333	0.068
Mof_H 	H 	0.0852	0.7318	0.1232	0.059
Mof_H 	H 	0.1278	0.8448	0.0837	0.066
Mof_H 	H 	0.6427	0.4805	0.0998	0.102
Mof_H 	H 	0.5533	0.3373	0.049	-0.006
Mof_H 	H 	0.7941	0.2597	0.1408	-0.011
Mof_H 	H 	0.8935	0.4021	0.1966	0.093
Mof_H 	H 	0.0328	0.5332	0.3299	0.098
Mof_H 	H 	0.0647	0.5399	0.4235	-0.011
Mof_H 	H 	0.9385	0.7535	0.4706	-0.002
Mof_H 	H 	0.9186	0.7576	0.3775	0.102
Mof_H 	H 	0.2561	0.8533	0.3233	0.265
Mof_H 	H 	0.5389	0.6599	0.5342	0.058
Mof_H 	H 	0.2917	0.4913	0.5983	0.059
Mof_H 	H 	0.6917	0.4998	0.6022	0.061
Mof_H 	H 	0.5822	0.3399	0.5793	0.072
Mof_H 	H 	0.5521	0.2254	0.6197	0.061
Mof_H 	H 	0.3359	0.3482	0.7349	0.067
Mof_H 	H 	0.3564	0.458	0.6924	0.06
Mof_H 	H 	0.635	0.2548	0.863	0.107
Mof_H 	H 	0.6974	0.2556	0.955	-0.011
Mof_H 	H 	0.4332	0.033	0.9317	-0.009
Mof_H 	H 	0.3702	0.0237	0.8389	0.098
Mof_H 	H 	0.3678	0.8919	0.6931	0.096
Mof_H 	H 	0.2598	0.7513	0.6361	-0.014
Mof_H 	H 	0.9839	0.8335	0.5673	-0
Mof_H 	H 	0.0818	0.9761	0.6201	0.103
Mof_H 	H 	0.7238	0.3856	0.7996	0.245
Mof_C 	C 	0.3374	0.1261	0.05062	0.305
Mof_C 	C 	0.1968	0.0892	0.06358	-0.056
Mof_C 	C 	0.173	0.0224	0.09004	-0.038
Mof_C 	C 	0.0438	0.9893	0.10337	0.012
Mof_C 	C 	0.936	0.0235	0.08954	-0.039
Mof_C 	C 	0.9577	0.0892	0.06291	-0.055
Mof_C 	C 	0.0879	0.1215	0.04954	-0.004
Mof_C 	C 	0.8417	0.1244	0.04713	0.3
Mof_C 	C 	0.019	0.9185	0.13118	0.025
Mof_C 	C 	0.9678	0.7821	0.18107	0.026
Mof_C 	C 	0.9416	0.9237	0.1781	-0.05
Mof_C 	C 	0.9152	0.8556	0.2028	-0.048
Mof_C 	C 	0.0477	0.7796	0.137	-0.043
Mof_C 	C 	0.0726	0.8476	0.1132	-0.056
Mof_C 	C 	0.9371	0.7066	0.20519	0.04
Mof_C 	C 	0.8695	0.6235	0.16913	-0.02
Mof_C 	C 	0.8469	0.5509	0.19146	0.033
Mof_C 	C 	0.9483	0.6421	0.28193	0.062
Mof_C 	C 	0.9777	0.716	0.26251	-0.096
Mof_C 	C 	0.7815	0.4599	0.1549	0.091
Mof_C 	C 	0.6761	0.437	0.1091	-0.161
Mof_C 	C 	0.6239	0.3509	0.0787	0.107
Mof_C 	C 	0.7647	0.3053	0.1325	0.092
Mof_C 	C 	0.8249	0.3907	0.1665	-0.149
Mof_C 	C 	0.9792	0.6467	0.34235	0.093
Mof_C 	C 	0.0181	0.5812	0.35807	-0.16
Mof_C 	C 	0.0358	0.5851	0.41455	0.114
Mof_C 	C 	0.9639	0.7107	0.4419	0.089
Mof_C 	C 	0.9489	0.7124	0.3859	-0.15
Mof_C 	C 	0.0768	0.8007	0.2988	0.323
Mof_C 	C 	0.7777	0.6271	0.55623	0.31
Mof_C 	C 	0.6381	0.5867	0.56699	-0.064
Mof_C 	C 	0.5261	0.6158	0.55177	0.005
Mof_C 	C 	0.3963	0.5796	0.56258	-0.066
Mof_C 	C 	0.3784	0.5142	0.58979	-0.032
Mof_C 	C 	0.4884	0.4826	0.60447	0.006
Mof_C 	C 	0.6173	0.5199	0.59269	-0.032
Mof_C 	C 	0.2785	0.6116	0.54571	0.311
Mof_C 	C 	0.4703	0.4104	0.63048	0.028
Mof_C 	C 	0.5301	0.3409	0.60968	-0.061
Mof_C 	C 	0.5126	0.272	0.63418	-0.041
Mof_C 	C 	0.4356	0.2733	0.68038	0.027
Mof_C 	C 	0.3821	0.3449	0.70266	-0.051
Mof_C 	C 	0.3963	0.4116	0.67773	-0.054
Mof_C 	C 	0.4136	0.1981	0.70428	0.028
Mof_C 	C 	0.4592	0.2096	0.76107	-0.069
Mof_C 	C 	0.4375	0.1363	0.78103	0.053
Mof_C 	C 	0.3242	0.0441	0.69289	0.031
Mof_C 	C 	0.3431	0.1141	0.67007	-0.02
Mof_C 	C 	0.487	0.1411	0.84042	0.097
Mof_C 	C 	0.5902	0.2091	0.8761	-0.154
Mof_C 	C 	0.6272	0.2093	0.93171	0.098
Mof_C 	C 	0.474	0.0792	0.91823	0.108
Mof_C 	C 	0.4341	0.0738	0.86228	-0.157
Mof_C 	C 	0.2499	0.9528	0.65848	0.092
Mof_C 	C 	0.2941	0.8827	0.6657	-0.157
Mof_C 	C 	0.2269	0.7979	0.6314	0.101
Mof_C 	C 	0.0656	0.8462	0.5911	0.094
Mof_C 	C 	0.1238	0.9319	0.6223	-0.155
Mof_C 	C 	0.55	0.2993	0.7943	0.235
Mof_N 	N 	0.8854	0.5606	0.24633	-0.122
Mof_N 	N 	0.6661	0.2846	0.08824	-0.258
Mof_N 	N 	0.3689	0.0551	0.74775	-0.12
Mof_N 	N 	0.5663	0.14595	0.95336	-0.262
Mof_N 	N 	0.1196	0.7792	0.59278	-0.258
Mof_N 	N 	0.0146	0.6486	0.45658	-0.259
Mof_O 	O 	0.4321	0.08958	0.06041	-0.424
Mof_O 	O 	0.3601	0.18989	0.03231	-0.319
Mof_O 	O 	0.7251	0.09318	0.06209	-0.418
Mof_O 	O 	0.8576	0.18131	0.02239	-0.323
Mof_O 	O 	0.1623	0.58282	0.56054	-0.431
Mof_O 	O 	0.2953	0.6663	0.51882	-0.322
Mof_O 	O 	0.8008	0.69299	0.53992	-0.318
Mof_O 	O 	0.8735	0.59054	0.56497	-0.422
Mof_O 	O 	0.213	0.8053	0.3013	-0.422
Mof_O 	O 	0.0292	0.8635	0.3268	-0.259
Mof_O 	O 	0.6982	0.332	0.7846	-0.367
Mof_O 	O 	0.498	0.3505	0.8341	-0.221
Mof_Co	Co	0.40128	0.84431	0.96218	1.155
Mof_Co	Co	0.95896	0.34862	0.45946	1.154
Mof_H 	H 	0.7547	0.0001	0.9012	0.06
Mof_H 	H 	0.1512	0.9978	0.9017	0.063
Mof_H 	H 	0.898	0.8353	0.9688	0.063
Mof_H 	H 	0.0921	0.027	0.8074	0.057
Mof_H 	H 	0.1367	0.141	0.7667	0.069
Mof_H 	H 	0.9148	0.2682	0.8768	0.06
Mof_H 	H 	0.8722	0.1552	0.9163	0.067
Mof_H 	H 	0.3573	0.5195	0.9002	0.103
Mof_H 	H 	0.4467	0.6627	0.951	-0.006
Mof_H 	H 	0.2059	0.7403	0.8592	-0.011
Mof_H 	H 	0.1065	0.5979	0.8034	0.093
Mof_H 	H 	0.9672	0.4668	0.6701	0.098
Mof_H 	H 	0.9353	0.4601	0.5765	-0.011
Mof_H 	H 	0.0615	0.2465	0.5294	-0.002
Mof_H 	H 	0.0814	0.2424	0.6225	0.102
Mof_H 	H 	0.7439	0.1467	0.6767	0.265
Mof_H 	H 	0.4611	0.3401	0.4658	0.058
Mof_H 	H 	0.7083	0.5087	0.4017	0.059
Mof_H 	H 	0.3083	0.5002	0.3978	0.061
Mof_H 	H 	0.4178	0.6601	0.4207	0.072
Mof_H 	H 	0.4479	0.7746	0.3803	0.061
Mof_H 	H 	0.6641	0.6518	0.2651	0.067
Mof_H 	H 	0.6436	0.542	0.3076	0.06
Mof_H 	H 	0.365	0.7452	0.137	0.107
Mof_H 	H 	0.3026	0.7444	0.045	-0.011
Mof_H 	H 	0.5668	0.967	0.0683	-0.009
Mof_H 	H 	0.6298	0.9763	0.1611	0.098
Mof_H 	H 	0.6322	0.1081	0.3069	0.096
Mof_H 	H 	0.7402	0.2487	0.3639	-0.014
Mof_H 	H 	0.0161	0.1665	0.4327	-0
Mof_H 	H 	0.9182	0.0239	0.3799	0.103
Mof_H 	H 	0.2762	0.6144	0.2004	0.245
Mof_C 	C 	0.6626	0.8739	0.94938	0.305
Mof_C 	C 	0.8032	0.9108	0.93642	-0.056
Mof_C 	C 	0.827	0.9776	0.90996	-0.038
Mof_C 	C 	0.9562	0.0107	0.89663	0.012
Mof_C 	C 	0.064	0.9765	0.91046	-0.039
Mof_C 	C 	0.0423	0.9108	0.93709	-0.055
Mof_C 	C 	0.9121	0.8785	0.95046	-0.004
Mof_C 	C 	0.1583	0.8756	0.95287	0.3
Mof_C 	C 	0.981	0.0815	0.86882	0.025
Mof_C 	C 	0.0322	0.2179	0.81893	0.026
Mof_C 	C 	0.0584	0.0763	0.8219	-0.05
Mof_C 	C 	0.0848	0.1444	0.7972	-0.048
Mof_C 	C 	0.9523	0.2204	0.863	-0.043
Mof_C 	C 	0.9274	0.1524	0.8868	-0.056
Mof_C 	C 	0.0629	0.2934	0.79481	0.04
Mof_C 	C 	0.1305	0.3765	0.83087	-0.02
Mof_C 	C 	0.1531	0.4491	0.80854	0.033
Mof_C 	C 	0.0517	0.3579	0.71807	0.062
Mof_C 	C 	0.0223	0.284	0.73749	-0.096
Mof_C 	C 	0.2185	0.5401	0.8451	0.091
Mof_C 	C 	0.3239	0.563	0.8909	-0.161
Mof_C 	C 	0.3761	0.6491	0.9213	0.107
Mof_C 	C 	0.2353	0.6947	0.8675	0.092
Mof_C 	C 	0.1751	0.6093	0.8335	-0.149
Mof_C 	C 	0.0208	0.3533	0.65765	0.093
Mof_C 	C 	0.9819	0.4188	0.64193	-0.16
Mof_C 	C 	0.9642	0.4149	0.58545	0.114
Mof_C 	C 	0.0361	0.2893	0.5581	0.089
Mof_C 	C 	0.0511	0.2876	0.6141	-0.15
Mof_C 	C 	0.9232	0.1993	0.7012	0.323
Mof_C 	C 	0.2223	0.3729	0.44377	0.31
Mof_C 	C 	0.3619	0.4133	0.43301	-0.064
Mof_C 	C 	0.4739	0.3842	0.44823	0.005
Mof_C 	C 	0.6037	0.4204	0.43742	-0.066
Mof_C 	C 	0.6216	0.4858	0.41021	-0.032
Mof_C 	C 	0.5116	0.5174	0.39553	0.006
Mof_C 	C 	0.3827	0.4801	0.40731	-0.032
Mof_C 	C 	0.7215	0.3884	0.45429	0.311
Mof_C 	C 	0.5297	0.5896	0.36952	0.028
Mof_C 	C 	0.4699	0.6591	0.39032	-0.061
Mof_C 	C 	0.4874	0.728	0.36582	-0.041
Mof_C 	C 	0.5644	0.7267	0.31962	0.027
Mof_C 	C 	0.6179	0.6551	0.29734	-0.051
Mof_C 	C 	0.6037	0.5884	0.32227	-0.054
Mof_C 	C 	0.5864	0.8019	0.29572	0.028
Mof_C 	C 	0.5408	0.7904	0.23893	-0.069
Mof_C 	C 	0.5625	0.8637	0.21897	0.053
Mof_C 	C 	0.6758	0.9559	0.30711	0.031
Mof_C 	C 	0.6569	0.8859	0.32993	-0.02
Mof_C 	C 	0.513	0.8589	0.15958	0.097
Mof_C 	C 	0.4098	0.7909	0.1239	-0.154
Mof_C 	C 	0.3728	0.7907	0.06829	0.098
Mof_C 	C 	0.526	0.9208	0.08177	0.108
Mof_C 	C 	0.5659	0.9262	0.13772	-0.157
Mof_C 	C 	0.7501	0.0472	0.34152	0.092
Mof_C 	C 	0.7059	0.1173	0.3343	-0.157
Mof_C 	C 	0.7731	0.2021	0.3686	0.101
Mof_C 	C 	0.9344	0.1538	0.4089	0.094
Mof_C 	C 	0.8762	0.0681	0.3777	-0.155
Mof_C 	C 	0.45	0.7007	0.2057	0.235
Mof_N 	N 	0.1146	0.4394	0.75367	-0.122
Mof_N 	N 	0.3339	0.7154	0.91176	-0.258
Mof_N 	N 	0.6311	0.9449	0.25225	-0.12
Mof_N 	N 	0.4337	0.85405	0.04664	-0.262
Mof_N 	N 	0.8804	0.2208	0.40722	-0.258
Mof_N 	N 	0.9854	0.3514	0.54342	-0.259
Mof_O 	O 	0.5679	0.91042	0.93959	-0.424
Mof_O 	O 	0.6399	0.81011	0.96769	-0.319
Mof_O 	O 	0.2749	0.90682	0.93791	-0.418
Mof_O 	O 	0.1424	0.81869	0.97761	-0.323
Mof_O 	O 	0.8377	0.41718	0.43946	-0.431
Mof_O 	O 	0.7047	0.3337	0.48118	-0.322
Mof_O 	O 	0.1992	0.30701	0.46008	-0.318
Mof_O 	O 	0.1265	0.40946	0.43503	-0.422
Mof_O 	O 	0.787	0.1947	0.6987	-0.422
Mof_O 	O 	0.9708	0.1365	0.6732	-0.259
Mof_O 	O 	0.3018	0.668	0.2154	-0.367
Mof_O 	O 	0.502	0.6495	0.1659	-0.221
_end
