data_functionalizedCrystal
_audit_creation_method	'EQeq! by Chris Wilmer'
_symmetry_space_group_name_H-M	'P1'
_symmetry_Int_Tables_number	1
_symmetry_cell_setting	triclinic
loop_
_symmetry_equiv_pos_as_xyz
  x,y,z
_cell_length_a	11.2574
_cell_length_b	12.0034
_cell_length_c	16.143
_cell_angle_alpha	90
_cell_angle_beta	129.603
_cell_angle_gamma	90
loop_
_atom_site_label
_atom_site_type_symbol
_atom_site_fract_x
_atom_site_fract_y
_atom_site_fract_z
_atom_site_charge
Mof_Zn	Zn	0.17802	0.02579	0.01875	1.236
Mof_O 	O 	0.07007	0.92702	0.88853	-0.413
Mof_O 	O 	0.3936	0.01943	0.05616	-0.381
Mof_O 	O 	0.36059	0.14677	0.13466	-0.345
Mof_O 	O 	0.21474	0.92135	0.12666	-0.443
Mof_O 	O 	0.02462	0.1441	0.96402	-0.449
Mof_S 	S 	0.02264	0.96556	0.7847	0.509
Mof_C 	C 	0.142	0.89041	0.76816	-0.089
Mof_O 	O 	0.0576	0.08097	0.78813	-0.262
Mof_O 	O 	0.86668	0.9337	0.69765	-0.226
Mof_C 	C 	0.2955	0.92231	0.8286	0.043
Mof_C 	C 	0.0838	0.8026	0.69689	0.067
Mof_C 	C 	0.3912	0.86603	0.8166	-0.081
Mof_H 	H 	0.3338	0.9812	0.8769	0.058
Mof_C 	C 	0.18	0.74518	0.68588	-0.11
Mof_H 	H 	0.9809	0.782	0.6565	0.054
Mof_C 	C 	0.3335	0.77748	0.74547	0.055
Mof_C 	C 	0.5556	0.90125	0.87888	0.323
Mof_C 	C 	0.1181	0.64849	0.61027	0.412
Mof_H 	H 	0.3975	0.7394	0.7374	0.057
Mof_Zn	Zn	0.82198	0.52579	0.48125	1.239
Mof_O 	O 	0.92993	0.42702	0.61147	-0.414
Mof_O 	O 	0.6064	0.51943	0.44384	-0.376
Mof_O 	O 	0.63941	0.64677	0.36534	-0.34
Mof_O 	O 	0.78526	0.42135	0.37334	-0.45
Mof_O 	O 	0.97538	0.6441	0.53598	-0.466
Mof_S 	S 	0.97736	0.46556	0.7153	0.509
Mof_C 	C 	0.858	0.39041	0.73184	-0.079
Mof_O 	O 	0.9424	0.58097	0.71187	-0.272
Mof_O 	O 	0.13332	0.4337	0.80235	-0.222
Mof_C 	C 	0.7045	0.42231	0.6714	0.035
Mof_C 	C 	0.9162	0.3026	0.80311	0.041
Mof_C 	C 	0.6088	0.36603	0.6834	-0.073
Mof_H 	H 	0.6662	0.4812	0.6231	0.062
Mof_C 	C 	0.82	0.24518	0.81412	-0.095
Mof_H 	H 	0.0191	0.282	0.8435	0.068
Mof_C 	C 	0.6665	0.27748	0.75453	0.045
Mof_C 	C 	0.4444	0.40125	0.62112	0.32
Mof_C 	C 	0.8819	0.14849	0.88973	0.392
Mof_H 	H 	0.6025	0.2394	0.7626	0.062
Mof_Zn	Zn	0.82198	0.97421	0.98125	1.235
Mof_O 	O 	0.92993	0.07298	0.11147	-0.414
Mof_O 	O 	0.6064	0.98057	0.94384	-0.381
Mof_O 	O 	0.63941	0.85323	0.86534	-0.345
Mof_O 	O 	0.78526	0.07865	0.87334	-0.443
Mof_O 	O 	0.97538	0.8559	0.03598	-0.449
Mof_S 	S 	0.97736	0.03444	0.2153	0.509
Mof_C 	C 	0.858	0.10959	0.23184	-0.089
Mof_O 	O 	0.9424	0.91903	0.21187	-0.262
Mof_O 	O 	0.13332	0.0663	0.30235	-0.226
Mof_C 	C 	0.7045	0.07769	0.1714	0.043
Mof_C 	C 	0.9162	0.1974	0.30311	0.067
Mof_C 	C 	0.6088	0.13397	0.1834	-0.081
Mof_H 	H 	0.6662	0.0188	0.1231	0.058
Mof_C 	C 	0.82	0.25482	0.31412	-0.11
Mof_H 	H 	0.0191	0.218	0.3435	0.054
Mof_C 	C 	0.6665	0.22252	0.25453	0.055
Mof_C 	C 	0.4444	0.09875	0.12112	0.323
Mof_C 	C 	0.8819	0.35151	0.38973	0.412
Mof_H 	H 	0.6025	0.2606	0.2626	0.057
Mof_Zn	Zn	0.17802	0.47421	0.51875	1.239
Mof_O 	O 	0.07007	0.57298	0.38853	-0.414
Mof_O 	O 	0.3936	0.48057	0.55616	-0.376
Mof_O 	O 	0.36059	0.35323	0.63466	-0.34
Mof_O 	O 	0.21474	0.57865	0.62666	-0.45
Mof_O 	O 	0.02462	0.3559	0.46402	-0.466
Mof_S 	S 	0.02264	0.53444	0.2847	0.509
Mof_C 	C 	0.142	0.60959	0.26816	-0.079
Mof_O 	O 	0.0576	0.41903	0.28813	-0.272
Mof_O 	O 	0.86668	0.5663	0.19765	-0.222
Mof_C 	C 	0.2955	0.57769	0.3286	0.035
Mof_C 	C 	0.0838	0.6974	0.19689	0.041
Mof_C 	C 	0.3912	0.63397	0.3166	-0.073
Mof_H 	H 	0.3338	0.5188	0.3769	0.062
Mof_C 	C 	0.18	0.75482	0.18588	-0.095
Mof_H 	H 	0.9809	0.718	0.1565	0.068
Mof_C 	C 	0.3335	0.72252	0.24547	0.045
Mof_C 	C 	0.5556	0.59875	0.37888	0.32
Mof_C 	C 	0.1181	0.85151	0.11027	0.392
Mof_H 	H 	0.3975	0.7606	0.2374	0.062
_end
