data_functionalizedCrystal
_audit_creation_method	'EQeq! by Chris Wilmer'
_symmetry_space_group_name_H-M	'P1'
_symmetry_Int_Tables_number	1
_symmetry_cell_setting	triclinic
loop_
_symmetry_equiv_pos_as_xyz
  x,y,z
_cell_length_a	6.4399
_cell_length_b	17.023
_cell_length_c	23.833
_cell_angle_alpha	90
_cell_angle_beta	90.792
_cell_angle_gamma	90
loop_
_atom_site_label
_atom_site_type_symbol
_atom_site_fract_x
_atom_site_fract_y
_atom_site_fract_z
_atom_site_charge
Mof_Gd	Gd	0.26297	0.06312	0.02216	1.766
Mof_C 	C 	0.2329	0.9388	0.9323	0.516
Mof_C 	C 	0.2705	0.8925	0.8833	-0.367
Mof_C 	C 	0.4661	0.8543	0.8737	0.392
Mof_C 	C 	0.4844	0.8106	0.8245	-0.314
Mof_H 	H 	0.6123	0.7879	0.8167	0.14
Mof_C 	C 	0.3228	0.7991	0.7866	0.132
Mof_C 	C 	0.1329	0.837	0.797	-0.248
Mof_H 	H 	0.022	0.8307	0.772	0.111
Mof_C 	C 	0.1104	0.8824	0.8431	0.221
Mof_H 	H 	0.9845	0.9079	0.8485	-0.051
Mof_C 	C 	0.3557	0.7485	0.7363	0.096
Mof_C 	C 	0.1948	0.7017	0.7167	-0.271
Mof_H 	H 	0.0666	0.703	0.7342	0.137
Mof_C 	C 	0.2248	0.6525	0.6709	0.345
Mof_C 	C 	0.4111	0.6505	0.6432	-0.304
Mof_C 	C 	0.5715	0.6983	0.6628	0.158
Mof_H 	H 	0.6994	0.6973	0.6451	-0.009
Mof_C 	C 	0.5415	0.7483	0.7089	-0.193
Mof_H 	H 	0.6482	0.7813	0.721	0.091
Mof_C 	C 	0.4468	0.5996	0.5933	0.488
Mof_O 	O 	0.0609	0.9749	0.9403	-0.579
Mof_O 	O 	0.3755	0.9491	0.9697	-0.612
Mof_O 	O 	0.6029	0.6122	0.5627	-0.495
Mof_O 	O 	0.3193	0.5424	0.5864	-0.481
Mof_O 	O 	0.6287	0.8611	0.9077	-0.501
Mof_O 	O 	0.0577	0.6058	0.6557	-0.465
Mof_H 	H 	0.093	0.575	0.6312	0.287
Mof_Gd	Gd	0.73703	0.56312	0.47784	1.774
Mof_C 	C 	0.7671	0.4388	0.5677	0.517
Mof_C 	C 	0.7295	0.3925	0.6167	-0.363
Mof_C 	C 	0.5339	0.3543	0.6263	0.392
Mof_C 	C 	0.5156	0.3106	0.6755	-0.311
Mof_H 	H 	0.3877	0.2879	0.6833	0.14
Mof_C 	C 	0.6772	0.2991	0.7134	0.13
Mof_C 	C 	0.8671	0.337	0.703	-0.244
Mof_H 	H 	0.978	0.3307	0.728	0.11
Mof_C 	C 	0.8896	0.3824	0.6569	0.214
Mof_H 	H 	0.0155	0.4079	0.6515	-0.047
Mof_C 	C 	0.6443	0.2485	0.7637	0.097
Mof_C 	C 	0.8052	0.2017	0.7833	-0.272
Mof_H 	H 	0.9334	0.203	0.7658	0.137
Mof_C 	C 	0.7752	0.1525	0.8291	0.346
Mof_C 	C 	0.5889	0.1505	0.8568	-0.304
Mof_C 	C 	0.4285	0.1983	0.8372	0.158
Mof_H 	H 	0.3006	0.1973	0.8549	-0.009
Mof_C 	C 	0.4585	0.2483	0.7911	-0.193
Mof_H 	H 	0.3518	0.2813	0.779	0.091
Mof_C 	C 	0.5532	0.0996	0.9067	0.487
Mof_O 	O 	0.9391	0.4749	0.5597	-0.581
Mof_O 	O 	0.6245	0.4491	0.5303	-0.613
Mof_O 	O 	0.3971	0.1122	0.9373	-0.493
Mof_O 	O 	0.6807	0.0424	0.9136	-0.478
Mof_O 	O 	0.3713	0.3611	0.5923	-0.501
Mof_O 	O 	0.9423	0.1058	0.8443	-0.465
Mof_H 	H 	0.907	0.075	0.8688	0.288
Mof_Gd	Gd	0.73703	0.93688	0.97784	1.767
Mof_C 	C 	0.7671	0.0612	0.0677	0.517
Mof_C 	C 	0.7295	0.1075	0.1167	-0.366
Mof_C 	C 	0.5339	0.1457	0.1263	0.393
Mof_C 	C 	0.5156	0.1894	0.1755	-0.313
Mof_H 	H 	0.3877	0.2121	0.1833	0.141
Mof_C 	C 	0.6772	0.2009	0.2134	0.132
Mof_C 	C 	0.8671	0.163	0.203	-0.248
Mof_H 	H 	0.978	0.1693	0.228	0.111
Mof_C 	C 	0.8896	0.1176	0.1569	0.221
Mof_H 	H 	0.0155	0.0921	0.1515	-0.051
Mof_C 	C 	0.6443	0.2515	0.2637	0.096
Mof_C 	C 	0.8052	0.2983	0.2833	-0.271
Mof_H 	H 	0.9334	0.297	0.2658	0.137
Mof_C 	C 	0.7752	0.3475	0.3291	0.345
Mof_C 	C 	0.5889	0.3495	0.3568	-0.304
Mof_C 	C 	0.4285	0.3017	0.3372	0.158
Mof_H 	H 	0.3006	0.3027	0.3549	-0.009
Mof_C 	C 	0.4585	0.2517	0.2911	-0.193
Mof_H 	H 	0.3518	0.2187	0.279	0.091
Mof_C 	C 	0.5532	0.4004	0.4067	0.488
Mof_O 	O 	0.9391	0.0251	0.0597	-0.579
Mof_O 	O 	0.6245	0.0509	0.0303	-0.612
Mof_O 	O 	0.3971	0.3878	0.4373	-0.495
Mof_O 	O 	0.6807	0.4576	0.4136	-0.481
Mof_O 	O 	0.3713	0.1389	0.0923	-0.501
Mof_O 	O 	0.9423	0.3942	0.3443	-0.465
Mof_H 	H 	0.907	0.425	0.3688	0.287
Mof_Gd	Gd	0.26297	0.43688	0.52216	1.774
Mof_C 	C 	0.2329	0.5612	0.4323	0.517
Mof_C 	C 	0.2705	0.6075	0.3833	-0.363
Mof_C 	C 	0.4661	0.6457	0.3737	0.392
Mof_C 	C 	0.4844	0.6894	0.3245	-0.311
Mof_H 	H 	0.6123	0.7121	0.3167	0.14
Mof_C 	C 	0.3228	0.7009	0.2866	0.13
Mof_C 	C 	0.1329	0.663	0.297	-0.244
Mof_H 	H 	0.022	0.6693	0.272	0.11
Mof_C 	C 	0.1104	0.6176	0.3431	0.214
Mof_H 	H 	0.9845	0.5921	0.3485	-0.047
Mof_C 	C 	0.3557	0.7515	0.2363	0.097
Mof_C 	C 	0.1948	0.7983	0.2167	-0.272
Mof_H 	H 	0.0666	0.797	0.2342	0.137
Mof_C 	C 	0.2248	0.8475	0.1709	0.346
Mof_C 	C 	0.4111	0.8495	0.1432	-0.304
Mof_C 	C 	0.5715	0.8017	0.1628	0.158
Mof_H 	H 	0.6994	0.8027	0.1451	-0.009
Mof_C 	C 	0.5415	0.7517	0.2089	-0.193
Mof_H 	H 	0.6482	0.7187	0.221	0.091
Mof_C 	C 	0.4468	0.9004	0.0933	0.487
Mof_O 	O 	0.0609	0.5251	0.4403	-0.581
Mof_O 	O 	0.3755	0.5509	0.4697	-0.613
Mof_O 	O 	0.6029	0.8878	0.0627	-0.493
Mof_O 	O 	0.3193	0.9576	0.0864	-0.478
Mof_O 	O 	0.6287	0.6389	0.4077	-0.501
Mof_O 	O 	0.0577	0.8942	0.1557	-0.465
Mof_H 	H 	0.093	0.925	0.1312	0.288
_end
