# CIF file generated by openbabel 3.1.0, see https://openbabel.org
data_I
_chemical_name_common 'VIXGAM_clean'
_cell_length_a 7.527
_cell_length_b 9.8016
_cell_length_c 9.8016
_cell_angle_alpha 81.5219
_cell_angle_beta 67.4203
_cell_angle_gamma 67.4203
_space_group_name_H-M_alt 'P 1'
_space_group_name_Hall 'P 1'
loop_
    _symmetry_equiv_pos_as_xyz
    x,y,z
loop_
    _atom_site_label
    _atom_site_type_symbol
    _atom_site_fract_x
    _atom_site_fract_y
    _atom_site_fract_z
    _atom_site_occupancy
    Zr1      Zr       0.30441    0.89498    0.49620    1.000
    Zr2      Zr       0.69559    0.10502    0.50380    1.000
    Zr3      Zr       0.80061    0.50380    0.89498    1.000
    Zr4      Zr       0.19938    0.49621    0.10502    1.000
    C1       C        0.95112    0.20508    0.68620    1.000
    C2       C        0.15760    0.20508    0.68620    1.000
    C3       C        0.36268    0.68620    0.79492    1.000
    C4       C        0.15620    0.68620    0.79492    1.000
    C5       C        0.63732    0.31380    0.20508    1.000
    C6       C        0.84380    0.31380    0.20508    1.000
    C7       C        0.84240    0.79492    0.31380    1.000
    C8       C        0.04888    0.79492    0.31380    1.000
    O1       O        0.91000    0.23548    0.30032    1.000
    O2       O        0.21032    0.69968    0.23548    1.000
    O3       O        0.07359    0.60640    0.88784    1.000
    O4       O        0.85452    0.69968    0.23548    1.000
    O5       O        0.09000    0.76452    0.69968    1.000
    O6       O        0.14548    0.30032    0.76452    1.000
    O7       O        0.03857    0.88784    0.39360    1.000
    O8       O        0.78968    0.30032    0.76452    1.000
    O9       O        0.32001    0.11216    0.60640    1.000
    O10      O        0.44580    0.76452    0.69968    1.000
    O11      O        0.55420    0.23548    0.30032    1.000
    O12      O        0.43217    0.60640    0.88784    1.000
    O13      O        0.92641    0.39360    0.11216    1.000
    O14      O        0.96143    0.11216    0.60640    1.000
    O15      O        0.56783    0.39360    0.11216    1.000
    O16      O        0.67999    0.88784    0.39360    1.000
