data_functionalizedCrystal
_audit_creation_method	'EQeq! by Chris Wilmer'
_symmetry_space_group_name_H-M	'P1'
_symmetry_Int_Tables_number	1
_symmetry_cell_setting	triclinic
loop_
_symmetry_equiv_pos_as_xyz
  x,y,z
_cell_length_a	42.347
_cell_length_b	8.569
_cell_length_c	14.49
_cell_angle_alpha	90
_cell_angle_beta	108.758
_cell_angle_gamma	90
loop_
_atom_site_label
_atom_site_type_symbol
_atom_site_fract_x
_atom_site_fract_y
_atom_site_fract_z
_atom_site_charge
Mof_C 	C 	0.19526	0.2433	0.5973	0.198
Mof_C 	C 	0.16319	0.1614	0.5703	-0.591
Mof_H 	H 	0.161	0.096	0.5148	0.123
Mof_H 	H 	0.1454	0.2363	0.5544	0.133
Mof_H 	H 	0.1621	0.0983	0.624	0.143
Mof_C 	C 	0.23636	0.3962	0.676	0.224
Mof_C 	C 	0.25673	0.5061	0.7504	-0.737
Mof_H 	H 	0.2447	0.535	0.7938	0.217
Mof_H 	H 	0.2773	0.4568	0.7868	0.207
Mof_H 	H 	0.2613	0.5978	0.7189	0.21
Mof_C 	C 	0.16031	0.8891	0.3355	-0.316
Mof_C 	C 	0.07231	0.5335	0.169	-0.34
Mof_C 	C 	0.98876	0.1937	0.9633	-0.357
Mof_C 	C 	0.89862	0.8638	0.7806	-0.265
Mof_C 	C 	0.82181	0.7275	0.8894	-0.258
Mof_C 	C 	0.84035	0.5971	0.6335	-0.301
Mof_N 	N 	0.2059	0.3445	0.673	-0.183
Mof_N 	N 	0.21826	0.2331	0.555	-0.272
Mof_N 	N 	0.18768	0.3844	0.7348	-0.197
Mof_H 	H 	0.1958	0.4494	0.7817	0.057
Mof_H 	H 	0.1683	0.344	0.7259	-0.008
Mof_N 	N 	0.2446	0.3314	0.6052	-0.282
Mof_C 	C 	0.17998	0.9829	0.3692	-0.305
Mof_C 	C 	0.09435	0.6124	0.2085	-0.318
Mof_C 	C 	0.00692	0.2751	0.018	-0.369
Mof_C 	C 	0.92244	0.9362	0.8151	-0.389
Mof_C 	C 	0.83246	0.753	0.8276	-0.239
Mof_C 	C 	0.82929	0.4937	0.5837	-0.262
Mof_C 	C 	0.76282	0.7282	0.0001	-0.254
Mof_Cu	Cu	0.21458	0.12283	0.43099	0.799
Mof_Cu	Cu	0.13044	0.73638	0.2719	0.78
Mof_Cu	Cu	0.03806	0.40346	0.10173	0.749
Mof_Cu	Cu	0.9585	0.06148	0.87917	0.746
Mof_Cu	Cu	0.85669	0.75516	0.73085	0.791
Mof_Cu	Cu	0.80521	0.66764	0.99146	0.805
Mof_N 	N 	0.33969	0.6109	0.6645	-0.259
Mof_N 	N 	0.42769	0.9665	0.831	-0.272
Mof_N 	N 	0.60138	0.6362	0.2194	-0.233
Mof_N 	N 	0.67819	0.7725	0.1106	-0.234
Mof_N 	N 	0.49308	0.2249	0.982	-0.292
Mof_N 	N 	0.82929	0.5063	0.0837	-0.234
Mof_C 	C 	0.30474	0.7433	0.9027	0.198
Mof_C 	C 	0.33681	0.6614	0.9297	-0.588
Mof_H 	H 	0.339	0.596	0.9852	0.122
Mof_H 	H 	0.3546	0.7363	0.9456	0.132
Mof_H 	H 	0.3379	0.5983	0.876	0.142
Mof_C 	C 	0.26364	0.8962	0.824	0.226
Mof_C 	C 	0.24327	0.0061	0.7496	-0.744
Mof_H 	H 	0.2553	0.035	0.7062	0.219
Mof_H 	H 	0.2227	0.9568	0.7132	0.209
Mof_H 	H 	0.2387	0.0978	0.7811	0.212
Mof_C 	C 	0.33969	0.3891	0.1645	-0.316
Mof_C 	C 	0.42769	0.0335	0.331	-0.341
Mof_C 	C 	0.51124	0.6937	0.5367	-0.348
Mof_C 	C 	0.60138	0.3638	0.7194	-0.266
Mof_C 	C 	0.67819	0.2275	0.6106	-0.257
Mof_C 	C 	0.65965	0.0971	0.8665	-0.303
Mof_N 	N 	0.2941	0.8445	0.827	-0.183
Mof_N 	N 	0.28174	0.7331	0.945	-0.272
Mof_N 	N 	0.31232	0.8844	0.7652	-0.197
Mof_H 	H 	0.3042	0.9494	0.7183	0.057
Mof_H 	H 	0.3317	0.844	0.7741	-0.008
Mof_N 	N 	0.2554	0.8314	0.8948	-0.282
Mof_C 	C 	0.32002	0.4829	0.1308	-0.303
Mof_C 	C 	0.40565	0.1124	0.2915	-0.318
Mof_C 	C 	0.49308	0.7751	0.482	-0.378
Mof_C 	C 	0.57756	0.4362	0.6849	-0.39
Mof_C 	C 	0.66754	0.253	0.6724	-0.24
Mof_C 	C 	0.67071	0.9937	0.9163	-0.262
Mof_C 	C 	0.73718	0.2282	0.4999	-0.263
Mof_Cu	Cu	0.28542	0.62283	0.06901	0.8
Mof_Cu	Cu	0.36956	0.23638	0.2281	0.78
Mof_Cu	Cu	0.46194	0.90346	0.39827	0.749
Mof_Cu	Cu	0.5415	0.56148	0.62083	0.746
Mof_Cu	Cu	0.64331	0.25516	0.76915	0.791
Mof_Cu	Cu	0.69479	0.16764	0.50854	0.806
Mof_N 	N 	0.16031	0.1109	0.8355	-0.259
Mof_N 	N 	0.07231	0.4665	0.669	-0.272
Mof_N 	N 	0.89862	0.1362	0.2806	-0.233
Mof_N 	N 	0.82181	0.2725	0.3894	-0.234
Mof_N 	N 	0.00692	0.7249	0.518	-0.288
Mof_N 	N 	0.67071	0.0063	0.4163	-0.235
Mof_C 	C 	0.30474	0.2567	0.4027	0.199
Mof_C 	C 	0.33681	0.3386	0.4297	-0.59
Mof_H 	H 	0.339	0.404	0.4852	0.123
Mof_H 	H 	0.3546	0.2637	0.4456	0.134
Mof_H 	H 	0.3379	0.4017	0.376	0.144
Mof_C 	C 	0.26364	0.1038	0.324	0.224
Mof_C 	C 	0.24327	0.9939	0.2496	-0.737
Mof_H 	H 	0.2553	0.965	0.2062	0.216
Mof_H 	H 	0.2227	0.0432	0.2132	0.207
Mof_H 	H 	0.2387	0.9022	0.2811	0.21
Mof_C 	C 	0.51124	0.3063	0.0367	-0.393
Mof_C 	C 	0.65965	0.9029	0.3665	-0.313
Mof_N 	N 	0.2941	0.1555	0.327	-0.183
Mof_N 	N 	0.28174	0.2669	0.445	-0.271
Mof_N 	N 	0.31232	0.1156	0.2652	-0.197
Mof_H 	H 	0.3042	0.0506	0.2183	0.057
Mof_H 	H 	0.3317	0.156	0.2741	-0.007
Mof_N 	N 	0.2554	0.1686	0.3948	-0.282
Mof_C 	C 	0.32002	0.5171	0.6308	-0.336
Mof_C 	C 	0.40565	0.8876	0.7915	-0.36
Mof_C 	C 	0.57756	0.5638	0.1849	-0.398
Mof_C 	C 	0.66754	0.747	0.1724	-0.25
Mof_C 	C 	0.73718	0.7718	0.9999	-0.271
Mof_Cu	Cu	0.28542	0.37717	0.56901	0.801
Mof_Cu	Cu	0.36956	0.76362	0.7281	0.777
Mof_Cu	Cu	0.46194	0.09654	0.89827	0.73
Mof_Cu	Cu	0.5415	0.43852	0.12083	0.753
Mof_Cu	Cu	0.64331	0.74484	0.26915	0.79
Mof_Cu	Cu	0.69479	0.83236	0.00854	0.807
Mof_C 	C 	0.19526	0.7567	0.0973	0.2
Mof_C 	C 	0.16319	0.8386	0.0703	-0.593
Mof_H 	H 	0.161	0.904	0.0148	0.125
Mof_H 	H 	0.1454	0.7637	0.0544	0.136
Mof_H 	H 	0.1621	0.9017	0.124	0.145
Mof_C 	C 	0.23636	0.6038	0.176	0.223
Mof_C 	C 	0.25673	0.4939	0.2504	-0.733
Mof_H 	H 	0.2447	0.465	0.2938	0.215
Mof_H 	H 	0.2773	0.5432	0.2868	0.205
Mof_H 	H 	0.2613	0.4022	0.2189	0.209
Mof_C 	C 	0.98876	0.8063	0.4633	-0.398
Mof_C 	C 	0.84035	0.4029	0.1335	-0.311
Mof_N 	N 	0.2059	0.6555	0.173	-0.183
Mof_N 	N 	0.21826	0.7669	0.055	-0.271
Mof_N 	N 	0.18768	0.6156	0.2348	-0.197
Mof_H 	H 	0.1958	0.5506	0.2817	0.057
Mof_H 	H 	0.1683	0.656	0.2259	-0.007
Mof_N 	N 	0.2446	0.6686	0.1052	-0.281
Mof_C 	C 	0.17998	0.0171	0.8692	-0.338
Mof_C 	C 	0.09435	0.3876	0.7085	-0.36
Mof_C 	C 	0.92244	0.0638	0.3151	-0.398
Mof_C 	C 	0.83246	0.247	0.3276	-0.249
Mof_C 	C 	0.76282	0.2718	0.5001	-0.263
Mof_Cu	Cu	0.21458	0.87717	0.93099	0.8
Mof_Cu	Cu	0.13044	0.26362	0.7719	0.777
Mof_Cu	Cu	0.03806	0.59654	0.60173	0.731
Mof_Cu	Cu	0.9585	0.93852	0.37917	0.753
Mof_Cu	Cu	0.85669	0.24484	0.23085	0.791
Mof_Cu	Cu	0.80521	0.33236	0.49146	0.805
Mof_C 	C 	0.69526	0.7433	0.5973	0.199
Mof_C 	C 	0.66319	0.6614	0.5703	-0.59
Mof_H 	H 	0.661	0.596	0.5148	0.124
Mof_H 	H 	0.6454	0.7363	0.5544	0.133
Mof_H 	H 	0.6621	0.5983	0.624	0.143
Mof_C 	C 	0.73636	0.8962	0.676	0.226
Mof_C 	C 	0.75673	0.0061	0.7504	-0.742
Mof_H 	H 	0.7447	0.035	0.7938	0.218
Mof_H 	H 	0.7773	0.9568	0.7868	0.209
Mof_H 	H 	0.7613	0.0978	0.7189	0.212
Mof_C 	C 	0.66031	0.3891	0.3355	-0.316
Mof_C 	C 	0.57231	0.0335	0.169	-0.34
Mof_C 	C 	0.48876	0.6937	0.9633	-0.355
Mof_C 	C 	0.39862	0.3638	0.7806	-0.265
Mof_C 	C 	0.32181	0.2275	0.8894	-0.259
Mof_C 	C 	0.34035	0.0971	0.6335	-0.302
Mof_N 	N 	0.7059	0.8445	0.673	-0.183
Mof_N 	N 	0.71826	0.7331	0.555	-0.272
Mof_N 	N 	0.68768	0.8844	0.7348	-0.197
Mof_H 	H 	0.6958	0.9494	0.7817	0.057
Mof_H 	H 	0.6683	0.844	0.7259	-0.008
Mof_N 	N 	0.7446	0.8314	0.6052	-0.282
Mof_C 	C 	0.67998	0.4829	0.3692	-0.304
Mof_C 	C 	0.59435	0.1124	0.2085	-0.318
Mof_C 	C 	0.50692	0.7751	0.018	-0.372
Mof_C 	C 	0.42244	0.4362	0.8151	-0.39
Mof_C 	C 	0.33246	0.253	0.8276	-0.24
Mof_C 	C 	0.32929	0.9937	0.5837	-0.261
Mof_C 	C 	0.26282	0.2282	0.0001	-0.251
Mof_Cu	Cu	0.71458	0.62283	0.43099	0.799
Mof_Cu	Cu	0.63044	0.23638	0.2719	0.78
Mof_Cu	Cu	0.53807	0.90346	0.10173	0.748
Mof_Cu	Cu	0.4585	0.56148	0.87917	0.746
Mof_Cu	Cu	0.35669	0.25516	0.73085	0.791
Mof_Cu	Cu	0.30521	0.16764	0.99146	0.804
Mof_N 	N 	0.83969	0.1109	0.6645	-0.259
Mof_N 	N 	0.92769	0.4665	0.831	-0.272
Mof_N 	N 	0.10138	0.1362	0.2194	-0.233
Mof_N 	N 	0.17819	0.2725	0.1106	-0.233
Mof_N 	N 	0.99308	0.7249	0.982	-0.291
Mof_N 	N 	0.32929	0.0063	0.0837	-0.233
Mof_C 	C 	0.80474	0.2433	0.9027	0.197
Mof_C 	C 	0.83681	0.1614	0.9297	-0.586
Mof_H 	H 	0.839	0.096	0.9852	0.121
Mof_H 	H 	0.8546	0.2363	0.9456	0.131
Mof_H 	H 	0.8379	0.0983	0.876	0.142
Mof_C 	C 	0.76364	0.3962	0.824	0.224
Mof_C 	C 	0.74327	0.5061	0.7496	-0.737
Mof_H 	H 	0.7553	0.535	0.7062	0.217
Mof_H 	H 	0.7227	0.4568	0.7132	0.207
Mof_H 	H 	0.7387	0.5978	0.7811	0.21
Mof_C 	C 	0.83969	0.8891	0.1645	-0.316
Mof_C 	C 	0.92769	0.5335	0.331	-0.341
Mof_C 	C 	0.01124	0.1937	0.5367	-0.349
Mof_C 	C 	0.10138	0.8638	0.7194	-0.265
Mof_C 	C 	0.17819	0.7275	0.6106	-0.257
Mof_C 	C 	0.15965	0.5971	0.8665	-0.301
Mof_N 	N 	0.7941	0.3445	0.827	-0.183
Mof_N 	N 	0.78174	0.2331	0.945	-0.273
Mof_N 	N 	0.81232	0.3844	0.7652	-0.197
Mof_H 	H 	0.8042	0.4494	0.7183	0.057
Mof_H 	H 	0.8317	0.344	0.7741	-0.008
Mof_N 	N 	0.7554	0.3314	0.8948	-0.282
Mof_C 	C 	0.82002	0.9829	0.1308	-0.304
Mof_C 	C 	0.90565	0.6124	0.2915	-0.318
Mof_C 	C 	0.99308	0.2751	0.482	-0.378
Mof_C 	C 	0.07756	0.9362	0.6849	-0.39
Mof_C 	C 	0.16754	0.753	0.6724	-0.24
Mof_C 	C 	0.17071	0.4937	0.9163	-0.264
Mof_C 	C 	0.23718	0.7282	0.4999	-0.263
Mof_Cu	Cu	0.78542	0.12283	0.06901	0.8
Mof_Cu	Cu	0.86956	0.73638	0.2281	0.78
Mof_Cu	Cu	0.96194	0.40346	0.39827	0.749
Mof_Cu	Cu	0.0415	0.06148	0.62083	0.746
Mof_Cu	Cu	0.14331	0.75516	0.76915	0.791
Mof_Cu	Cu	0.19479	0.66764	0.50854	0.807
Mof_N 	N 	0.66031	0.6109	0.8355	-0.259
Mof_N 	N 	0.57231	0.9665	0.669	-0.272
Mof_N 	N 	0.39862	0.6362	0.2806	-0.233
Mof_N 	N 	0.32181	0.7725	0.3894	-0.234
Mof_N 	N 	0.50692	0.2249	0.518	-0.288
Mof_N 	N 	0.17071	0.5063	0.4163	-0.235
Mof_C 	C 	0.80474	0.7567	0.4027	0.199
Mof_C 	C 	0.83681	0.8386	0.4297	-0.59
Mof_H 	H 	0.839	0.904	0.4852	0.123
Mof_H 	H 	0.8546	0.7637	0.4456	0.134
Mof_H 	H 	0.8379	0.9017	0.376	0.144
Mof_C 	C 	0.76364	0.6038	0.324	0.223
Mof_C 	C 	0.74327	0.4939	0.2496	-0.733
Mof_H 	H 	0.7553	0.465	0.2062	0.215
Mof_H 	H 	0.7227	0.5432	0.2132	0.205
Mof_H 	H 	0.7387	0.4022	0.2811	0.209
Mof_C 	C 	0.01124	0.8063	0.0367	-0.394
Mof_C 	C 	0.15965	0.4029	0.3665	-0.312
Mof_N 	N 	0.7941	0.6555	0.327	-0.182
Mof_N 	N 	0.78174	0.7669	0.445	-0.271
Mof_N 	N 	0.81232	0.6156	0.2652	-0.197
Mof_H 	H 	0.8042	0.5506	0.2183	0.057
Mof_H 	H 	0.8317	0.656	0.2741	-0.007
Mof_N 	N 	0.7554	0.6686	0.3948	-0.282
Mof_C 	C 	0.82002	0.0171	0.6308	-0.336
Mof_C 	C 	0.90565	0.3876	0.7915	-0.36
Mof_C 	C 	0.07756	0.0638	0.1849	-0.398
Mof_C 	C 	0.16754	0.247	0.1724	-0.249
Mof_C 	C 	0.23718	0.2718	0.9999	-0.274
Mof_Cu	Cu	0.78542	0.87717	0.56901	0.801
Mof_Cu	Cu	0.86956	0.26362	0.7281	0.777
Mof_Cu	Cu	0.96194	0.59654	0.89827	0.73
Mof_Cu	Cu	0.0415	0.93852	0.12083	0.753
Mof_Cu	Cu	0.14331	0.24484	0.26915	0.791
Mof_Cu	Cu	0.19479	0.33236	0.00854	0.808
Mof_C 	C 	0.69526	0.2567	0.0973	0.201
Mof_C 	C 	0.66319	0.3386	0.0703	-0.595
Mof_H 	H 	0.661	0.404	0.0148	0.126
Mof_H 	H 	0.6454	0.2637	0.0544	0.136
Mof_H 	H 	0.6621	0.4017	0.124	0.145
Mof_C 	C 	0.73636	0.1038	0.176	0.225
Mof_C 	C 	0.75673	0.9939	0.2504	-0.739
Mof_H 	H 	0.7447	0.965	0.2938	0.217
Mof_H 	H 	0.7773	0.0432	0.2868	0.207
Mof_H 	H 	0.7613	0.9022	0.2189	0.211
Mof_C 	C 	0.48876	0.3063	0.4633	-0.398
Mof_C 	C 	0.34035	0.9029	0.1335	-0.313
Mof_N 	N 	0.7059	0.1555	0.173	-0.183
Mof_N 	N 	0.71826	0.2669	0.055	-0.27
Mof_N 	N 	0.68768	0.1156	0.2348	-0.197
Mof_H 	H 	0.6958	0.0506	0.2817	0.057
Mof_H 	H 	0.6683	0.156	0.2259	-0.007
Mof_N 	N 	0.7446	0.1686	0.1052	-0.281
Mof_C 	C 	0.67998	0.5171	0.8692	-0.337
Mof_C 	C 	0.59435	0.8876	0.7085	-0.36
Mof_C 	C 	0.42244	0.5638	0.3151	-0.398
Mof_C 	C 	0.33246	0.747	0.3276	-0.25
Mof_C 	C 	0.26282	0.7718	0.5001	-0.263
Mof_Cu	Cu	0.71458	0.37717	0.93099	0.8
Mof_Cu	Cu	0.63044	0.76362	0.7719	0.777
Mof_Cu	Cu	0.53807	0.09654	0.60173	0.731
Mof_Cu	Cu	0.4585	0.43852	0.37917	0.753
Mof_Cu	Cu	0.35669	0.74484	0.23085	0.791
Mof_Cu	Cu	0.30521	0.83236	0.49146	0.805
_end
