data_functionalizedCrystal
_audit_creation_method	'EQeq! by Chris Wilmer'
_symmetry_space_group_name_H-M	'P1'
_symmetry_Int_Tables_number	1
_symmetry_cell_setting	triclinic
loop_
_symmetry_equiv_pos_as_xyz
  x,y,z
_cell_length_a	13.1073
_cell_length_b	17.5935
_cell_length_c	25.4796
_cell_angle_alpha	90
_cell_angle_beta	90
_cell_angle_gamma	90
loop_
_atom_site_label
_atom_site_type_symbol
_atom_site_fract_x
_atom_site_fract_y
_atom_site_fract_z
_atom_site_charge
Mof_N 	N 	0.73366	0.62944	0.68081	-0.245
Mof_N 	N 	0.8691	0.59949	0.72926	-0.105
Mof_N 	N 	0.83081	0.66661	0.7444	-0.095
Mof_C 	C 	0.8089	0.57971	0.69109	0.097
Mof_H 	H 	0.8172	0.5347	0.6724	-0.016
Mof_C 	C 	0.75021	0.68349	0.71572	0.087
Mof_H 	H 	0.7108	0.7271	0.7195	-0.01
Mof_C 	C 	0.879	0.7116	0.78585	-0.05
Mof_H 	H 	0.9122	0.6776	0.8105	0.046
Mof_H 	H 	0.8268	0.7395	0.8048	0.042
Mof_C 	C 	0.9568	0.76702	0.76465	-0.098
Mof_H 	H 	0.9221	0.8025	0.7417	0.06
Mof_H 	H 	0.9842	0.7959	0.7938	0.062
Mof_N 	N 	0.73366	0.12944	0.18081	-0.245
Mof_N 	N 	0.8691	0.09949	0.22926	-0.105
Mof_N 	N 	0.83081	0.16661	0.2444	-0.095
Mof_C 	C 	0.8089	0.07971	0.19109	0.097
Mof_H 	H 	0.8172	0.0347	0.1724	-0.016
Mof_C 	C 	0.75021	0.18349	0.21572	0.087
Mof_H 	H 	0.7108	0.2271	0.2195	-0.01
Mof_C 	C 	0.879	0.2116	0.28585	-0.049
Mof_H 	H 	0.9122	0.1776	0.3105	0.046
Mof_H 	H 	0.8268	0.2395	0.3048	0.042
Mof_C 	C 	0.9568	0.26702	0.26465	-0.098
Mof_H 	H 	0.9221	0.3025	0.2417	0.06
Mof_H 	H 	0.9842	0.2959	0.2938	0.062
Mof_N 	N 	0.23366	0.62944	0.18081	-0.245
Mof_N 	N 	0.3691	0.59949	0.22926	-0.105
Mof_N 	N 	0.33081	0.66661	0.2444	-0.095
Mof_C 	C 	0.3089	0.57971	0.19109	0.097
Mof_H 	H 	0.3172	0.5347	0.1724	-0.016
Mof_C 	C 	0.25021	0.68349	0.21572	0.087
Mof_H 	H 	0.2108	0.7271	0.2195	-0.01
Mof_C 	C 	0.379	0.7116	0.28585	-0.049
Mof_H 	H 	0.4122	0.6776	0.3105	0.046
Mof_H 	H 	0.3268	0.7395	0.3048	0.042
Mof_C 	C 	0.4568	0.76702	0.26465	-0.098
Mof_H 	H 	0.4221	0.8025	0.2417	0.06
Mof_H 	H 	0.4842	0.7959	0.2938	0.062
Mof_N 	N 	0.23366	0.12944	0.68081	-0.245
Mof_N 	N 	0.3691	0.09949	0.72926	-0.105
Mof_N 	N 	0.33081	0.16661	0.7444	-0.095
Mof_C 	C 	0.3089	0.07971	0.69109	0.097
Mof_H 	H 	0.3172	0.0347	0.6724	-0.016
Mof_C 	C 	0.25021	0.18349	0.71572	0.087
Mof_H 	H 	0.2108	0.2271	0.7195	-0.01
Mof_C 	C 	0.379	0.2116	0.78585	-0.049
Mof_H 	H 	0.4122	0.1776	0.8105	0.046
Mof_H 	H 	0.3268	0.2395	0.8048	0.042
Mof_C 	C 	0.4568	0.26702	0.76465	-0.098
Mof_H 	H 	0.4221	0.3025	0.7417	0.06
Mof_H 	H 	0.4842	0.2959	0.7938	0.062
Mof_N 	N 	0.01634	0.12056	0.68081	-0.245
Mof_N 	N 	0.8809	0.15051	0.72926	-0.105
Mof_N 	N 	0.91919	0.08339	0.7444	-0.094
Mof_C 	C 	0.9411	0.17029	0.69109	0.098
Mof_H 	H 	0.9328	0.2153	0.6724	-0.015
Mof_C 	C 	0.99979	0.06651	0.71572	0.088
Mof_H 	H 	0.0392	0.0229	0.7195	-0.009
Mof_C 	C 	0.871	0.0384	0.78585	-0.049
Mof_H 	H 	0.8378	0.0724	0.8105	0.047
Mof_H 	H 	0.9232	0.0105	0.8048	0.043
Mof_C 	C 	0.7932	0.98298	0.76465	-0.095
Mof_H 	H 	0.8279	0.9475	0.7417	0.06
Mof_H 	H 	0.7658	0.9541	0.7938	0.063
Mof_N 	N 	0.01634	0.62056	0.18081	-0.244
Mof_N 	N 	0.8809	0.65051	0.22926	-0.104
Mof_N 	N 	0.91919	0.58339	0.2444	-0.094
Mof_C 	C 	0.9411	0.67029	0.19109	0.098
Mof_H 	H 	0.9328	0.7153	0.1724	-0.015
Mof_C 	C 	0.99979	0.56651	0.21572	0.088
Mof_H 	H 	0.0392	0.5229	0.2195	-0.009
Mof_C 	C 	0.871	0.5384	0.28585	-0.048
Mof_H 	H 	0.8378	0.5724	0.3105	0.047
Mof_H 	H 	0.9232	0.5105	0.3048	0.043
Mof_C 	C 	0.7932	0.48298	0.26465	-0.097
Mof_H 	H 	0.8279	0.4475	0.2417	0.061
Mof_H 	H 	0.7658	0.4541	0.2938	0.063
Mof_N 	N 	0.51634	0.12056	0.18081	-0.244
Mof_N 	N 	0.3809	0.15051	0.22926	-0.104
Mof_N 	N 	0.41919	0.08339	0.2444	-0.094
Mof_C 	C 	0.4411	0.17029	0.19109	0.098
Mof_H 	H 	0.4328	0.2153	0.1724	-0.015
Mof_C 	C 	0.49979	0.06651	0.21572	0.088
Mof_H 	H 	0.5392	0.0229	0.2195	-0.009
Mof_C 	C 	0.371	0.0384	0.28585	-0.048
Mof_H 	H 	0.3378	0.0724	0.3105	0.046
Mof_H 	H 	0.4232	0.0105	0.3048	0.043
Mof_C 	C 	0.2932	0.98298	0.26465	-0.098
Mof_H 	H 	0.3279	0.9475	0.2417	0.061
Mof_H 	H 	0.2658	0.9541	0.2938	0.063
Mof_N 	N 	0.51634	0.62056	0.68081	-0.244
Mof_N 	N 	0.3809	0.65051	0.72926	-0.104
Mof_N 	N 	0.41919	0.58339	0.7444	-0.094
Mof_C 	C 	0.4411	0.67029	0.69109	0.098
Mof_H 	H 	0.4328	0.7153	0.6724	-0.015
Mof_C 	C 	0.49979	0.56651	0.71572	0.088
Mof_H 	H 	0.5392	0.5229	0.7195	-0.009
Mof_C 	C 	0.371	0.5384	0.78585	-0.048
Mof_H 	H 	0.3378	0.5724	0.8105	0.047
Mof_H 	H 	0.4232	0.5105	0.8048	0.043
Mof_C 	C 	0.2932	0.48298	0.76465	-0.097
Mof_H 	H 	0.3279	0.4475	0.7417	0.061
Mof_H 	H 	0.2658	0.4541	0.7938	0.063
Mof_N 	N 	0.01634	0.62944	0.06919	-0.244
Mof_N 	N 	0.8809	0.59949	0.02074	-0.104
Mof_N 	N 	0.91919	0.66661	0.0056	-0.094
Mof_C 	C 	0.9411	0.57971	0.05891	0.098
Mof_H 	H 	0.9328	0.5347	0.0776	-0.015
Mof_C 	C 	0.99979	0.68349	0.03428	0.087
Mof_H 	H 	0.0392	0.7271	0.0305	-0.009
Mof_C 	C 	0.871	0.7116	0.96415	-0.049
Mof_H 	H 	0.8378	0.6776	0.9395	0.047
Mof_H 	H 	0.9232	0.7395	0.9452	0.043
Mof_C 	C 	0.7932	0.76702	0.98535	-0.095
Mof_H 	H 	0.8279	0.8025	0.0083	0.06
Mof_H 	H 	0.7658	0.7959	0.9562	0.062
Mof_N 	N 	0.01634	0.12944	0.56919	-0.244
Mof_N 	N 	0.8809	0.09949	0.52074	-0.104
Mof_N 	N 	0.91919	0.16661	0.5056	-0.094
Mof_C 	C 	0.9411	0.07971	0.55891	0.098
Mof_H 	H 	0.9328	0.0347	0.5776	-0.015
Mof_C 	C 	0.99979	0.18349	0.53428	0.088
Mof_H 	H 	0.0392	0.2271	0.5305	-0.009
Mof_C 	C 	0.871	0.2116	0.46415	-0.048
Mof_H 	H 	0.8378	0.1776	0.4395	0.047
Mof_H 	H 	0.9232	0.2395	0.4452	0.043
Mof_C 	C 	0.7932	0.26702	0.48535	-0.097
Mof_H 	H 	0.8279	0.3025	0.5083	0.061
Mof_H 	H 	0.7658	0.2959	0.4562	0.063
Mof_N 	N 	0.51634	0.62944	0.56919	-0.244
Mof_N 	N 	0.3809	0.59949	0.52074	-0.104
Mof_N 	N 	0.41919	0.66661	0.5056	-0.094
Mof_C 	C 	0.4411	0.57971	0.55891	0.098
Mof_H 	H 	0.4328	0.5347	0.5776	-0.015
Mof_C 	C 	0.49979	0.68349	0.53428	0.088
Mof_H 	H 	0.5392	0.7271	0.5305	-0.009
Mof_C 	C 	0.371	0.7116	0.46415	-0.048
Mof_H 	H 	0.3378	0.6776	0.4395	0.047
Mof_H 	H 	0.4232	0.7395	0.4452	0.043
Mof_C 	C 	0.2932	0.76702	0.48535	-0.097
Mof_H 	H 	0.3279	0.8025	0.5083	0.061
Mof_H 	H 	0.2658	0.7959	0.4562	0.063
Mof_N 	N 	0.51634	0.12944	0.06919	-0.244
Mof_N 	N 	0.3809	0.09949	0.02074	-0.104
Mof_N 	N 	0.41919	0.16661	0.0056	-0.094
Mof_C 	C 	0.4411	0.07971	0.05891	0.098
Mof_H 	H 	0.4328	0.0347	0.0776	-0.015
Mof_C 	C 	0.49979	0.18349	0.03428	0.088
Mof_H 	H 	0.5392	0.2271	0.0305	-0.009
Mof_C 	C 	0.371	0.2116	0.96415	-0.048
Mof_H 	H 	0.3378	0.1776	0.9395	0.046
Mof_H 	H 	0.4232	0.2395	0.9452	0.043
Mof_C 	C 	0.2932	0.26702	0.98535	-0.099
Mof_H 	H 	0.3279	0.3025	0.0083	0.061
Mof_H 	H 	0.2658	0.2959	0.9562	0.064
Mof_N 	N 	0.73366	0.12056	0.06919	-0.244
Mof_N 	N 	0.8691	0.15051	0.02074	-0.104
Mof_N 	N 	0.83081	0.08339	0.0056	-0.094
Mof_C 	C 	0.8089	0.17029	0.05891	0.098
Mof_H 	H 	0.8172	0.2153	0.0776	-0.015
Mof_C 	C 	0.75021	0.06651	0.03428	0.088
Mof_H 	H 	0.7108	0.0229	0.0305	-0.009
Mof_C 	C 	0.879	0.0384	0.96415	-0.05
Mof_H 	H 	0.9122	0.0724	0.9395	0.047
Mof_H 	H 	0.8268	0.0105	0.9452	0.043
Mof_C 	C 	0.9568	0.98298	0.98535	-0.096
Mof_H 	H 	0.9221	0.9475	0.0083	0.06
Mof_H 	H 	0.9842	0.9541	0.9562	0.063
Mof_N 	N 	0.73366	0.62056	0.56919	-0.244
Mof_N 	N 	0.8691	0.65051	0.52074	-0.104
Mof_N 	N 	0.83081	0.58339	0.5056	-0.094
Mof_C 	C 	0.8089	0.67029	0.55891	0.098
Mof_H 	H 	0.8172	0.7153	0.5776	-0.015
Mof_C 	C 	0.75021	0.56651	0.53428	0.088
Mof_H 	H 	0.7108	0.5229	0.5305	-0.009
Mof_C 	C 	0.879	0.5384	0.46415	-0.048
Mof_H 	H 	0.9122	0.5724	0.4395	0.047
Mof_H 	H 	0.8268	0.5105	0.4452	0.043
Mof_C 	C 	0.9568	0.48298	0.48535	-0.097
Mof_H 	H 	0.9221	0.4475	0.5083	0.061
Mof_H 	H 	0.9842	0.4541	0.4562	0.063
Mof_N 	N 	0.23366	0.12056	0.56919	-0.244
Mof_N 	N 	0.3691	0.15051	0.52074	-0.104
Mof_N 	N 	0.33081	0.08339	0.5056	-0.094
Mof_C 	C 	0.3089	0.17029	0.55891	0.098
Mof_H 	H 	0.3172	0.2153	0.5776	-0.015
Mof_C 	C 	0.25021	0.06651	0.53428	0.088
Mof_H 	H 	0.2108	0.0229	0.5305	-0.009
Mof_C 	C 	0.379	0.0384	0.46415	-0.048
Mof_H 	H 	0.4122	0.0724	0.4395	0.047
Mof_H 	H 	0.3268	0.0105	0.4452	0.043
Mof_C 	C 	0.4568	0.98298	0.48535	-0.097
Mof_H 	H 	0.4221	0.9475	0.5083	0.061
Mof_H 	H 	0.4842	0.9541	0.4562	0.063
Mof_N 	N 	0.23366	0.62056	0.06919	-0.244
Mof_N 	N 	0.3691	0.65051	0.02074	-0.104
Mof_N 	N 	0.33081	0.58339	0.0056	-0.094
Mof_C 	C 	0.3089	0.67029	0.05891	0.098
Mof_H 	H 	0.3172	0.7153	0.0776	-0.015
Mof_C 	C 	0.25021	0.56651	0.03428	0.088
Mof_H 	H 	0.2108	0.5229	0.0305	-0.009
Mof_C 	C 	0.379	0.5384	0.96415	-0.048
Mof_H 	H 	0.4122	0.5724	0.9395	0.047
Mof_H 	H 	0.3268	0.5105	0.9452	0.043
Mof_C 	C 	0.4568	0.48298	0.98535	-0.097
Mof_H 	H 	0.4221	0.4475	0.0083	0.061
Mof_H 	H 	0.4842	0.4541	0.9562	0.063
Mof_N 	N 	0.26634	0.37056	0.31919	-0.244
Mof_N 	N 	0.1309	0.40051	0.27074	-0.104
Mof_N 	N 	0.16919	0.33339	0.2556	-0.094
Mof_C 	C 	0.1911	0.42029	0.30891	0.098
Mof_H 	H 	0.1828	0.4653	0.3276	-0.015
Mof_C 	C 	0.24979	0.31651	0.28428	0.088
Mof_H 	H 	0.2892	0.2729	0.2805	-0.009
Mof_C 	C 	0.121	0.2884	0.21415	-0.049
Mof_H 	H 	0.0878	0.3224	0.1895	0.047
Mof_H 	H 	0.1732	0.2605	0.1952	0.043
Mof_C 	C 	0.0432	0.23298	0.23535	-0.097
Mof_H 	H 	0.0779	0.1975	0.2583	0.061
Mof_H 	H 	0.0158	0.2041	0.2062	0.063
Mof_N 	N 	0.26634	0.87056	0.81919	-0.244
Mof_N 	N 	0.1309	0.90051	0.77074	-0.104
Mof_N 	N 	0.16919	0.83339	0.7556	-0.094
Mof_C 	C 	0.1911	0.92029	0.80891	0.098
Mof_H 	H 	0.1828	0.9653	0.8276	-0.015
Mof_C 	C 	0.24979	0.81651	0.78428	0.088
Mof_H 	H 	0.2892	0.7729	0.7805	-0.009
Mof_C 	C 	0.121	0.7884	0.71415	-0.048
Mof_H 	H 	0.0878	0.8224	0.6895	0.047
Mof_H 	H 	0.1732	0.7605	0.6952	0.043
Mof_C 	C 	0.0432	0.73298	0.73535	-0.097
Mof_H 	H 	0.0779	0.6975	0.7583	0.061
Mof_H 	H 	0.0158	0.7041	0.7062	0.063
Mof_N 	N 	0.76634	0.37056	0.81919	-0.244
Mof_N 	N 	0.6309	0.40051	0.77074	-0.104
Mof_N 	N 	0.66919	0.33339	0.7556	-0.094
Mof_C 	C 	0.6911	0.42029	0.80891	0.098
Mof_H 	H 	0.6828	0.4653	0.8276	-0.015
Mof_C 	C 	0.74979	0.31651	0.78428	0.088
Mof_H 	H 	0.7892	0.2729	0.7805	-0.009
Mof_C 	C 	0.621	0.2884	0.71415	-0.048
Mof_H 	H 	0.5878	0.3224	0.6895	0.047
Mof_H 	H 	0.6732	0.2605	0.6952	0.043
Mof_C 	C 	0.5432	0.23298	0.73535	-0.097
Mof_H 	H 	0.5779	0.1975	0.7583	0.061
Mof_H 	H 	0.5158	0.2041	0.7062	0.063
Mof_N 	N 	0.76634	0.87056	0.31919	-0.244
Mof_N 	N 	0.6309	0.90051	0.27074	-0.104
Mof_N 	N 	0.66919	0.83339	0.2556	-0.094
Mof_C 	C 	0.6911	0.92029	0.30891	0.098
Mof_H 	H 	0.6828	0.9653	0.3276	-0.015
Mof_C 	C 	0.74979	0.81651	0.28428	0.088
Mof_H 	H 	0.7892	0.7729	0.2805	-0.009
Mof_C 	C 	0.621	0.7884	0.21415	-0.048
Mof_H 	H 	0.5878	0.8224	0.1895	0.047
Mof_H 	H 	0.6732	0.7605	0.1952	0.043
Mof_C 	C 	0.5432	0.73298	0.23535	-0.097
Mof_H 	H 	0.5779	0.6975	0.2583	0.061
Mof_H 	H 	0.5158	0.7041	0.2062	0.063
Mof_N 	N 	0.98366	0.87944	0.31919	-0.244
Mof_N 	N 	0.1191	0.84949	0.27074	-0.104
Mof_N 	N 	0.08081	0.91661	0.2556	-0.094
Mof_C 	C 	0.0589	0.82971	0.30891	0.098
Mof_H 	H 	0.0672	0.7847	0.3276	-0.015
Mof_C 	C 	0.00021	0.93349	0.28428	0.088
Mof_H 	H 	0.9608	0.9771	0.2805	-0.009
Mof_C 	C 	0.129	0.9616	0.21415	-0.049
Mof_H 	H 	0.1622	0.9276	0.1895	0.047
Mof_H 	H 	0.0768	0.9895	0.1952	0.043
Mof_C 	C 	0.2068	0.01702	0.23535	-0.095
Mof_H 	H 	0.1721	0.0525	0.2583	0.06
Mof_H 	H 	0.2342	0.0459	0.2062	0.063
Mof_N 	N 	0.98366	0.37944	0.81919	-0.244
Mof_N 	N 	0.1191	0.34949	0.77074	-0.104
Mof_N 	N 	0.08081	0.41661	0.7556	-0.094
Mof_C 	C 	0.0589	0.32971	0.80891	0.098
Mof_H 	H 	0.0672	0.2847	0.8276	-0.015
Mof_C 	C 	0.00021	0.43349	0.78428	0.088
Mof_H 	H 	0.9608	0.4771	0.7805	-0.009
Mof_C 	C 	0.129	0.4616	0.71415	-0.048
Mof_H 	H 	0.1622	0.4276	0.6895	0.047
Mof_H 	H 	0.0768	0.4895	0.6952	0.043
Mof_C 	C 	0.2068	0.51702	0.73535	-0.097
Mof_H 	H 	0.1721	0.5525	0.7583	0.061
Mof_H 	H 	0.2342	0.5459	0.7062	0.063
Mof_N 	N 	0.48366	0.87944	0.81919	-0.244
Mof_N 	N 	0.6191	0.84949	0.77074	-0.104
Mof_N 	N 	0.58081	0.91661	0.7556	-0.094
Mof_C 	C 	0.5589	0.82971	0.80891	0.098
Mof_H 	H 	0.5672	0.7847	0.8276	-0.015
Mof_C 	C 	0.50021	0.93349	0.78428	0.088
Mof_H 	H 	0.4608	0.9771	0.7805	-0.009
Mof_C 	C 	0.629	0.9616	0.71415	-0.048
Mof_H 	H 	0.6622	0.9276	0.6895	0.046
Mof_H 	H 	0.5768	0.9895	0.6952	0.043
Mof_C 	C 	0.7068	0.01702	0.73535	-0.098
Mof_H 	H 	0.6721	0.0525	0.7583	0.061
Mof_H 	H 	0.7342	0.0459	0.7062	0.063
Mof_N 	N 	0.48366	0.37944	0.31919	-0.244
Mof_N 	N 	0.6191	0.34949	0.27074	-0.104
Mof_N 	N 	0.58081	0.41661	0.2556	-0.094
Mof_C 	C 	0.5589	0.32971	0.30891	0.098
Mof_H 	H 	0.5672	0.2847	0.3276	-0.015
Mof_C 	C 	0.50021	0.43349	0.28428	0.088
Mof_H 	H 	0.4608	0.4771	0.2805	-0.009
Mof_C 	C 	0.629	0.4616	0.21415	-0.048
Mof_H 	H 	0.6622	0.4276	0.1895	0.047
Mof_H 	H 	0.5768	0.4895	0.1952	0.043
Mof_C 	C 	0.7068	0.51702	0.23535	-0.097
Mof_H 	H 	0.6721	0.5525	0.2583	0.061
Mof_H 	H 	0.7342	0.5459	0.2062	0.063
Mof_N 	N 	0.98366	0.37056	0.93081	-0.244
Mof_N 	N 	0.1191	0.40051	0.97926	-0.104
Mof_N 	N 	0.08081	0.33339	0.9944	-0.094
Mof_C 	C 	0.0589	0.42029	0.94109	0.098
Mof_H 	H 	0.0672	0.4653	0.9224	-0.015
Mof_C 	C 	0.00021	0.31651	0.96572	0.087
Mof_H 	H 	0.9608	0.2729	0.9695	-0.009
Mof_C 	C 	0.129	0.2884	0.03585	-0.049
Mof_H 	H 	0.1622	0.3224	0.0605	0.047
Mof_H 	H 	0.0768	0.2605	0.0548	0.043
Mof_C 	C 	0.2068	0.23298	0.01465	-0.095
Mof_H 	H 	0.1721	0.1975	0.9917	0.06
Mof_H 	H 	0.2342	0.2041	0.0438	0.062
Mof_N 	N 	0.98366	0.87056	0.43081	-0.244
Mof_N 	N 	0.1191	0.90051	0.47926	-0.104
Mof_N 	N 	0.08081	0.83339	0.4944	-0.094
Mof_C 	C 	0.0589	0.92029	0.44109	0.098
Mof_H 	H 	0.0672	0.9653	0.4224	-0.015
Mof_C 	C 	0.00021	0.81651	0.46572	0.088
Mof_H 	H 	0.9608	0.7729	0.4695	-0.009
Mof_C 	C 	0.129	0.7884	0.53585	-0.048
Mof_H 	H 	0.1622	0.8224	0.5605	0.047
Mof_H 	H 	0.0768	0.7605	0.5548	0.043
Mof_C 	C 	0.2068	0.73298	0.51465	-0.097
Mof_H 	H 	0.1721	0.6975	0.4917	0.061
Mof_H 	H 	0.2342	0.7041	0.5438	0.063
Mof_N 	N 	0.48366	0.37056	0.43081	-0.244
Mof_N 	N 	0.6191	0.40051	0.47926	-0.104
Mof_N 	N 	0.58081	0.33339	0.4944	-0.094
Mof_C 	C 	0.5589	0.42029	0.44109	0.098
Mof_H 	H 	0.5672	0.4653	0.4224	-0.015
Mof_C 	C 	0.50021	0.31651	0.46572	0.088
Mof_H 	H 	0.4608	0.2729	0.4695	-0.009
Mof_C 	C 	0.629	0.2884	0.53585	-0.048
Mof_H 	H 	0.6622	0.3224	0.5605	0.047
Mof_H 	H 	0.5768	0.2605	0.5548	0.043
Mof_C 	C 	0.7068	0.23298	0.51465	-0.097
Mof_H 	H 	0.6721	0.1975	0.4917	0.061
Mof_H 	H 	0.7342	0.2041	0.5438	0.063
Mof_N 	N 	0.48366	0.87056	0.93081	-0.244
Mof_N 	N 	0.6191	0.90051	0.97926	-0.104
Mof_N 	N 	0.58081	0.83339	0.9944	-0.094
Mof_C 	C 	0.5589	0.92029	0.94109	0.098
Mof_H 	H 	0.5672	0.9653	0.9224	-0.015
Mof_C 	C 	0.50021	0.81651	0.96572	0.088
Mof_H 	H 	0.4608	0.7729	0.9695	-0.009
Mof_C 	C 	0.629	0.7884	0.03585	-0.048
Mof_H 	H 	0.6622	0.8224	0.0605	0.046
Mof_H 	H 	0.5768	0.7605	0.0548	0.043
Mof_C 	C 	0.7068	0.73298	0.01465	-0.099
Mof_H 	H 	0.6721	0.6975	0.9917	0.061
Mof_H 	H 	0.7342	0.7041	0.0438	0.064
Mof_N 	N 	0.26634	0.87944	0.93081	-0.244
Mof_N 	N 	0.1309	0.84949	0.97926	-0.104
Mof_N 	N 	0.16919	0.91661	0.9944	-0.094
Mof_C 	C 	0.1911	0.82971	0.94109	0.098
Mof_H 	H 	0.1828	0.7847	0.9224	-0.015
Mof_C 	C 	0.24979	0.93349	0.96572	0.088
Mof_H 	H 	0.2892	0.9771	0.9695	-0.009
Mof_C 	C 	0.121	0.9616	0.03585	-0.05
Mof_H 	H 	0.0878	0.9276	0.0605	0.047
Mof_H 	H 	0.1732	0.9895	0.0548	0.043
Mof_C 	C 	0.0432	0.01702	0.01465	-0.096
Mof_H 	H 	0.0779	0.0525	0.9917	0.06
Mof_H 	H 	0.0158	0.0459	0.0438	0.063
Mof_N 	N 	0.26634	0.37944	0.43081	-0.244
Mof_N 	N 	0.1309	0.34949	0.47926	-0.104
Mof_N 	N 	0.16919	0.41661	0.4944	-0.094
Mof_C 	C 	0.1911	0.32971	0.44109	0.098
Mof_H 	H 	0.1828	0.2847	0.4224	-0.015
Mof_C 	C 	0.24979	0.43349	0.46572	0.088
Mof_H 	H 	0.2892	0.4771	0.4695	-0.009
Mof_C 	C 	0.121	0.4616	0.53585	-0.048
Mof_H 	H 	0.0878	0.4276	0.5605	0.047
Mof_H 	H 	0.1732	0.4895	0.5548	0.043
Mof_C 	C 	0.0432	0.51702	0.51465	-0.097
Mof_H 	H 	0.0779	0.5525	0.4917	0.061
Mof_H 	H 	0.0158	0.5459	0.5438	0.063
Mof_N 	N 	0.76634	0.87944	0.43081	-0.244
Mof_N 	N 	0.6309	0.84949	0.47926	-0.104
Mof_N 	N 	0.66919	0.91661	0.4944	-0.094
Mof_C 	C 	0.6911	0.82971	0.44109	0.098
Mof_H 	H 	0.6828	0.7847	0.4224	-0.015
Mof_C 	C 	0.74979	0.93349	0.46572	0.088
Mof_H 	H 	0.7892	0.9771	0.4695	-0.009
Mof_C 	C 	0.621	0.9616	0.53585	-0.048
Mof_H 	H 	0.5878	0.9276	0.5605	0.047
Mof_H 	H 	0.6732	0.9895	0.5548	0.043
Mof_C 	C 	0.5432	0.01702	0.51465	-0.097
Mof_H 	H 	0.5779	0.0525	0.4917	0.061
Mof_H 	H 	0.5158	0.0459	0.5438	0.063
Mof_N 	N 	0.76634	0.37944	0.93081	-0.244
Mof_N 	N 	0.6309	0.34949	0.97926	-0.104
Mof_N 	N 	0.66919	0.41661	0.9944	-0.094
Mof_C 	C 	0.6911	0.32971	0.94109	0.098
Mof_H 	H 	0.6828	0.2847	0.9224	-0.015
Mof_C 	C 	0.74979	0.43349	0.96572	0.088
Mof_H 	H 	0.7892	0.4771	0.9695	-0.009
Mof_C 	C 	0.621	0.4616	0.03585	-0.048
Mof_H 	H 	0.5878	0.4276	0.0605	0.047
Mof_H 	H 	0.6732	0.4895	0.0548	0.043
Mof_C 	C 	0.5432	0.51702	0.01465	-0.097
Mof_H 	H 	0.5779	0.5525	0.9917	0.061
Mof_H 	H 	0.5158	0.5459	0.0438	0.063
Mof_Cu	Cu	0.625	0.625	0.625	0.853
Mof_Cu	Cu	0.125	0.125	0.625	0.853
Mof_Cu	Cu	0.125	0.625	0.125	0.853
Mof_Cu	Cu	0.625	0.125	0.125	0.853
Mof_Cu	Cu	0.375	0.375	0.375	0.853
Mof_Cu	Cu	0.875	0.875	0.375	0.853
Mof_Cu	Cu	0.875	0.375	0.875	0.853
Mof_Cu	Cu	0.375	0.875	0.875	0.853
_end
