# CIF file generated by openbabel 3.1.0, see https://openbabel.org
data_I
_chemical_name_common 'image0'
_cell_length_a 20.504
_cell_length_b 9.5776
_cell_length_c 19.444
_cell_angle_alpha 90
_cell_angle_beta 103.735
_cell_angle_gamma 90
_space_group_name_H-M_alt 'P 1'
_space_group_name_Hall 'P 1'
loop_
    _symmetry_equiv_pos_as_xyz
    x,y,z
loop_
    _atom_site_label
    _atom_site_type_symbol
    _atom_site_fract_x
    _atom_site_fract_y
    _atom_site_fract_z
    _atom_site_occupancy
    Zn1      Zn       0.59911    0.91573    0.78959    1.000
    Zn2      Zn       0.71863    0.86299    0.92754    1.000
    N1       N        0.55790    0.94380    0.68430    1.000
    C1       C        0.51290    0.98940    0.53870    1.000
    C2       C        0.52580    0.09800    0.58610    1.000
    H1       H        0.51830    0.18930    0.56980    1.000
    C3       C        0.54940    0.07320    0.65710    1.000
    H2       H        0.56000    0.14900    0.68760    1.000
    C4       C        0.52050    0.85520    0.56780    1.000
    H3       H        0.50860    0.77750    0.53880    1.000
    C5       C        0.54510    0.83870    0.63840    1.000
    H4       H        0.55370    0.74840    0.65580    1.000
    C6       C        0.38800    0.34840    0.15870    1.000
    C7       C        0.76390    0.65680    0.56330    1.000
    C8       C        0.74770    0.83250    0.79580    1.000
    C9       C        0.76080    0.73820    0.68140    1.000
    H5       H        0.71430    0.73690    0.66630    1.000
    C10      C        0.79110    0.78110    0.75010    1.000
    C11      C        0.79880    0.69830    0.63620    1.000
    C12      C        0.89940    0.73430    0.72840    1.000
    C13      C        0.86810    0.69970    0.65890    1.000
    H6       H        0.89410    0.67720    0.62720    1.000
    C14      C        0.85920    0.77380    0.77410    1.000
    H7       H        0.87900    0.79510    0.82110    1.000
    C15      C        0.37110    0.60260    0.13780    1.000
    H8       H        0.38740    0.61870    0.18600    1.000
    C16      C        0.35030    0.71260    0.09190    1.000
    C17      C        0.32850    0.69030    0.02020    1.000
    H9       H        0.31380    0.76580    0.99050    1.000
    C18      C        0.36730    0.46960    0.11140    1.000
    C19      C        0.35150    0.85840    0.11780    1.000
    C20      C        0.34770    0.44710    0.03780    1.000
    H10      H        0.34820    0.35680    0.02030    1.000
    C21      C        0.32790    0.55660    0.99080    1.000
    N2       N        0.31050    0.53130    0.91900    1.000
    H11      H        0.31360    0.44680    0.90520    1.000
    O1       O        0.38520    0.88630    0.17760    1.000
    O2       O        0.69240    0.87920    0.76610    1.000
    O3       O        0.37790    0.22550    0.13160    1.000
    O4       O        0.77200    0.82470    0.86210    1.000
    O5       O        0.41250    0.36410    0.22120    1.000
    O6       O        0.70390    0.65420    0.54450    1.000
    O7       O        0.31610    0.94760    0.07730    1.000
    O8       O        0.80140    0.63970    0.52020    1.000
    N3       N        0.96800    0.72150    0.74980    1.000
    H12      H        0.98960    0.68260    0.72210    1.000
    C22      C        0.21570    0.67000    0.85370    1.000
    C23      C        0.28810    0.63230    0.86670    1.000
    H13      H        0.29680    0.59870    0.82260    1.000
    H14      H        0.31450    0.71630    0.87980    1.000
    C24      C        0.00230    0.76940    0.81430    1.000
    H15      H        0.98640    0.72340    0.85160    1.000
    H16      H        0.99540    0.86910    0.81770    1.000
    C25      C        0.16660    0.57160    0.85310    1.000
    H17      H        0.17980    0.48020    0.86530    1.000
    C26      C        0.19470    0.80490    0.83680    1.000
    H18      H        0.22580    0.87380    0.83350    1.000
    C27      C        0.09790    0.60160    0.83530    1.000
    H19      H        0.06620    0.53100    0.83220    1.000
    C28      C        0.07880    0.73780    0.82270    1.000
    C29      C        0.12730    0.83770    0.82470    1.000
    H20      H        0.11430    0.93060    0.81770    1.000
    Zn3      Zn       0.75696    0.98084    0.93870    1.000
    Zn4      Zn       0.40089    0.41573    0.71041    1.000
    Zn5      Zn       0.28137    0.36299    0.57246    1.000
    N4       N        0.44210    0.44380    0.81570    1.000
    C30      C        0.48710    0.48940    0.96130    1.000
    C31      C        0.47420    0.59800    0.91390    1.000
    H21      H        0.48170    0.68930    0.93020    1.000
    C32      C        0.45060    0.57320    0.84290    1.000
    H22      H        0.44000    0.64900    0.81240    1.000
    C33      C        0.47950    0.35520    0.93220    1.000
    H23      H        0.49140    0.27750    0.96120    1.000
    C34      C        0.45490    0.33870    0.86160    1.000
    H24      H        0.44630    0.24840    0.84420    1.000
    C35      C        0.61200    0.84840    0.34130    1.000
    C36      C        0.23610    0.15680    0.93670    1.000
    C37      C        0.25230    0.33250    0.70420    1.000
    C38      C        0.23920    0.23820    0.81860    1.000
    H25      H        0.28570    0.23690    0.83370    1.000
    C39      C        0.20890    0.28110    0.74990    1.000
    C40      C        0.20120    0.19830    0.86380    1.000
    C41      C        0.10060    0.23430    0.77160    1.000
    C42      C        0.13190    0.19970    0.84110    1.000
    H26      H        0.10590    0.17720    0.87280    1.000
    C43      C        0.14080    0.27380    0.72590    1.000
    H27      H        0.12100    0.29510    0.67890    1.000
    C44      C        0.62890    0.10260    0.36220    1.000
    H28      H        0.61260    0.11870    0.31400    1.000
    C45      C        0.64970    0.21260    0.40810    1.000
    C46      C        0.67150    0.19030    0.47980    1.000
    H29      H        0.68620    0.26580    0.50950    1.000
    C47      C        0.63270    0.96960    0.38860    1.000
    C48      C        0.64850    0.35840    0.38220    1.000
    C49      C        0.65230    0.94710    0.46220    1.000
    H30      H        0.65180    0.85680    0.47970    1.000
    C50      C        0.67210    0.05660    0.50920    1.000
    N5       N        0.68950    0.03130    0.58100    1.000
    H31      H        0.68640    0.94680    0.59480    1.000
    O9       O        0.61480    0.38630    0.32240    1.000
    O10      O        0.30760    0.37920    0.73390    1.000
    O11      O        0.62210    0.72550    0.36840    1.000
    O12      O        0.22800    0.32470    0.63790    1.000
    O13      O        0.58750    0.86410    0.27880    1.000
    O14      O        0.29610    0.15420    0.95550    1.000
    O15      O        0.68390    0.44760    0.42270    1.000
    O16      O        0.19860    0.13970    0.97980    1.000
    N6       N        0.03200    0.22150    0.75020    1.000
    H32      H        0.01040    0.18260    0.77790    1.000
    C51      C        0.78430    0.17000    0.64630    1.000
    C52      C        0.71190    0.13230    0.63330    1.000
    H33      H        0.70320    0.09870    0.67740    1.000
    H34      H        0.68550    0.21630    0.62020    1.000
    C53      C        0.99770    0.26940    0.68570    1.000
    H35      H        0.01360    0.22340    0.64840    1.000
    H36      H        0.00460    0.36910    0.68230    1.000
    C54      C        0.83340    0.07160    0.64690    1.000
    H37      H        0.82020    0.98020    0.63470    1.000
    C55      C        0.80530    0.30490    0.66320    1.000
    H38      H        0.77420    0.37380    0.66650    1.000
    C56      C        0.90210    0.10160    0.66470    1.000
    H39      H        0.93380    0.03100    0.66780    1.000
    C57      C        0.92120    0.23780    0.67730    1.000
    C58      C        0.87270    0.33770    0.67530    1.000
    H40      H        0.88570    0.43060    0.68230    1.000
    Zn6      Zn       0.24304    0.48084    0.56130    1.000
    Zn7      Zn       0.40089    0.08427    0.21041    1.000
    Zn8      Zn       0.28137    0.13701    0.07246    1.000
    N7       N        0.44210    0.05620    0.31570    1.000
    C59      C        0.48710    0.01060    0.46130    1.000
    C60      C        0.47420    0.90200    0.41390    1.000
    H41      H        0.48170    0.81070    0.43020    1.000
    C61      C        0.45060    0.92680    0.34290    1.000
    H42      H        0.44000    0.85100    0.31240    1.000
    C62      C        0.47950    0.14480    0.43220    1.000
    H43      H        0.49140    0.22250    0.46120    1.000
    C63      C        0.45490    0.16130    0.36160    1.000
    H44      H        0.44630    0.25160    0.34420    1.000
    C64      C        0.61200    0.65160    0.84130    1.000
    C65      C        0.23610    0.34320    0.43670    1.000
    C66      C        0.25230    0.16750    0.20420    1.000
    C67      C        0.23920    0.26180    0.31860    1.000
    H45      H        0.28570    0.26310    0.33370    1.000
    C68      C        0.20890    0.21890    0.24990    1.000
    C69      C        0.20120    0.30170    0.36380    1.000
    C70      C        0.10060    0.26570    0.27160    1.000
    C71      C        0.13190    0.30030    0.34110    1.000
    H46      H        0.10590    0.32280    0.37280    1.000
    C72      C        0.14080    0.22620    0.22590    1.000
    H47      H        0.12100    0.20490    0.17890    1.000
    C73      C        0.62890    0.39740    0.86220    1.000
    H48      H        0.61260    0.38130    0.81400    1.000
    C74      C        0.64970    0.28740    0.90810    1.000
    C75      C        0.67150    0.30970    0.97980    1.000
    H49      H        0.68620    0.23420    0.00950    1.000
    C76      C        0.63270    0.53040    0.88860    1.000
    C77      C        0.64850    0.14160    0.88220    1.000
    C78      C        0.65230    0.55290    0.96220    1.000
    H50      H        0.65180    0.64320    0.97970    1.000
    C79      C        0.67210    0.44340    0.00920    1.000
    N8       N        0.68950    0.46870    0.08100    1.000
    H51      H        0.68640    0.55320    0.09480    1.000
    O17      O        0.61480    0.11370    0.82240    1.000
    O18      O        0.30760    0.12080    0.23390    1.000
    O19      O        0.62210    0.77450    0.86840    1.000
    O20      O        0.22800    0.17530    0.13790    1.000
    O21      O        0.58750    0.63590    0.77880    1.000
    O22      O        0.29610    0.34580    0.45550    1.000
    O23      O        0.68390    0.05240    0.92270    1.000
    O24      O        0.19860    0.36030    0.47980    1.000
    N9       N        0.03200    0.27850    0.25020    1.000
    H52      H        0.01040    0.31740    0.27790    1.000
    C80      C        0.78430    0.33000    0.14630    1.000
    C81      C        0.71190    0.36770    0.13330    1.000
    H53      H        0.70320    0.40130    0.17740    1.000
    H54      H        0.68550    0.28370    0.12020    1.000
    C82      C        0.99770    0.23060    0.18570    1.000
    H55      H        0.01360    0.27660    0.14840    1.000
    H56      H        0.00460    0.13090    0.18230    1.000
    C83      C        0.83340    0.42840    0.14690    1.000
    H57      H        0.82020    0.51980    0.13470    1.000
    C84      C        0.80530    0.19510    0.16320    1.000
    H58      H        0.77420    0.12620    0.16650    1.000
    C85      C        0.90210    0.39840    0.16470    1.000
    H59      H        0.93380    0.46900    0.16780    1.000
    C86      C        0.92120    0.26220    0.17730    1.000
    C87      C        0.87270    0.16230    0.17530    1.000
    H60      H        0.88570    0.06940    0.18230    1.000
    Zn9      Zn       0.24304    0.01916    0.06130    1.000
    Zn10     Zn       0.59911    0.58427    0.28959    1.000
    Zn11     Zn       0.71863    0.63701    0.42754    1.000
    N10      N        0.55790    0.55620    0.18430    1.000
    C88      C        0.51290    0.51060    0.03870    1.000
    C89      C        0.52580    0.40200    0.08610    1.000
    H61      H        0.51830    0.31070    0.06980    1.000
    C90      C        0.54940    0.42680    0.15710    1.000
    H62      H        0.56000    0.35100    0.18760    1.000
    C91      C        0.52050    0.64480    0.06780    1.000
    H63      H        0.50860    0.72250    0.03880    1.000
    C92      C        0.54510    0.66130    0.13840    1.000
    H64      H        0.55370    0.75160    0.15580    1.000
    C93      C        0.38800    0.15160    0.65870    1.000
    C94      C        0.76390    0.84320    0.06330    1.000
    C95      C        0.74770    0.66750    0.29580    1.000
    C96      C        0.76080    0.76180    0.18140    1.000
    H65      H        0.71430    0.76310    0.16630    1.000
    C97      C        0.79110    0.71890    0.25010    1.000
    C98      C        0.79880    0.80170    0.13620    1.000
    C99      C        0.89940    0.76570    0.22840    1.000
    C100     C        0.86810    0.80030    0.15890    1.000
    H66      H        0.89410    0.82280    0.12720    1.000
    C101     C        0.85920    0.72620    0.27410    1.000
    H67      H        0.87900    0.70490    0.32110    1.000
    C102     C        0.37110    0.89740    0.63780    1.000
    H68      H        0.38740    0.88130    0.68600    1.000
    C103     C        0.35030    0.78740    0.59190    1.000
    C104     C        0.32850    0.80970    0.52020    1.000
    H69      H        0.31380    0.73420    0.49050    1.000
    C105     C        0.36730    0.03040    0.61140    1.000
    C106     C        0.35150    0.64160    0.61780    1.000
    C107     C        0.34770    0.05290    0.53780    1.000
    H70      H        0.34820    0.14320    0.52030    1.000
    C108     C        0.32790    0.94340    0.49080    1.000
    N11      N        0.31050    0.96870    0.41900    1.000
    H71      H        0.31360    0.05320    0.40520    1.000
    O25      O        0.38520    0.61370    0.67760    1.000
    O26      O        0.69240    0.62080    0.26610    1.000
    O27      O        0.37790    0.27450    0.63160    1.000
    O28      O        0.77200    0.67530    0.36210    1.000
    O29      O        0.41250    0.13590    0.72120    1.000
    O30      O        0.70390    0.84580    0.04450    1.000
    O31      O        0.31610    0.55240    0.57730    1.000
    O32      O        0.80140    0.86030    0.02020    1.000
    N12      N        0.96800    0.77850    0.24980    1.000
    H72      H        0.98960    0.81740    0.22210    1.000
    C109     C        0.21570    0.83000    0.35370    1.000
    C110     C        0.28810    0.86770    0.36670    1.000
    H73      H        0.29680    0.90130    0.32260    1.000
    H74      H        0.31450    0.78370    0.37980    1.000
    C111     C        0.00230    0.73060    0.31430    1.000
    H75      H        0.98640    0.77660    0.35160    1.000
    H76      H        0.99540    0.63090    0.31770    1.000
    C112     C        0.16660    0.92840    0.35310    1.000
    H77      H        0.17980    0.01980    0.36530    1.000
    C113     C        0.19470    0.69510    0.33680    1.000
    H78      H        0.22580    0.62620    0.33350    1.000
    C114     C        0.09790    0.89840    0.33530    1.000
    H79      H        0.06620    0.96900    0.33220    1.000
    C115     C        0.07880    0.76220    0.32270    1.000
    C116     C        0.12730    0.66230    0.32470    1.000
    H80      H        0.11430    0.56940    0.31770    1.000
    Zn12     Zn       0.75696    0.51916    0.43870    1.000
