data_functionalizedCrystal
_audit_creation_method	'EQeq! by Chris Wilmer'
_symmetry_space_group_name_H-M	'P1'
_symmetry_Int_Tables_number	1
_symmetry_cell_setting	triclinic
loop_
_symmetry_equiv_pos_as_xyz
  x,y,z
_cell_length_a	8.014
_cell_length_b	9.74
_cell_length_c	7.744
_cell_angle_alpha	102.32
_cell_angle_beta	93.38
_cell_angle_gamma	75.9
loop_
_atom_site_label
_atom_site_type_symbol
_atom_site_fract_x
_atom_site_fract_y
_atom_site_fract_z
_atom_site_charge
Mof_Mn	Mn	0.03196	0.25126	0.15892	0.971
Mof_Mn	Mn	0.30922	0.11955	0.81271	0.933
Mof_P 	P 	0.73268	0.08984	0.92682	0.544
Mof_O 	O 	0.1595	0.3391	0.9717	-0.369
Mof_O 	O 	0.8061	0.2106	0.0375	-0.333
Mof_O 	O 	0.106	0.5144	0.8165	-0.292
Mof_O 	O 	0.9454	0.2199	0.4104	-0.282
Mof_O 	O 	0.2403	0.283	0.3466	-0.302
Mof_O 	O 	0.8047	0.9459	0.9848	-0.45
Mof_O 	O 	0.0605	0.1537	0.6593	-0.283
Mof_O 	O 	0.3601	0.2071	0.5867	-0.294
Mof_O 	O 	0.5394	0.1335	0.9302	-0.37
Mof_O 	O 	0.7883	0.0667	0.7275	-0.22
Mof_C 	C 	0.0653	0.1992	0.5204	0.237
Mof_C 	C 	0.2371	0.2333	0.4817	0.246
Mof_C 	C 	0.0766	0.4582	0.9375	0.263
Mof_Mn	Mn	0.96804	0.74874	0.84108	0.972
Mof_Mn	Mn	0.69078	0.88045	0.18729	0.934
Mof_P 	P 	0.26732	0.91016	0.07318	0.544
Mof_O 	O 	0.8405	0.6609	0.0283	-0.369
Mof_O 	O 	0.1939	0.7894	0.9625	-0.333
Mof_O 	O 	0.894	0.4856	0.1835	-0.292
Mof_O 	O 	0.0546	0.7801	0.5896	-0.282
Mof_O 	O 	0.7597	0.717	0.6534	-0.302
Mof_O 	O 	0.1953	0.0541	0.0152	-0.45
Mof_O 	O 	0.9395	0.8463	0.3407	-0.283
Mof_O 	O 	0.6399	0.7929	0.4133	-0.294
Mof_O 	O 	0.4606	0.8665	0.0698	-0.37
Mof_O 	O 	0.2117	0.9333	0.2725	-0.22
Mof_C 	C 	0.9347	0.8008	0.4796	0.237
Mof_C 	C 	0.7629	0.7667	0.5183	0.246
Mof_C 	C 	0.9234	0.5418	0.0625	0.263
_end
