data_functionalizedCrystal
_audit_creation_method	'EQeq! by Chris Wilmer'
_symmetry_space_group_name_H-M	'P1'
_symmetry_Int_Tables_number	1
_symmetry_cell_setting	triclinic
loop_
_symmetry_equiv_pos_as_xyz
  x,y,z
_cell_length_a	8.4321
_cell_length_b	13.1871
_cell_length_c	9.5505
_cell_angle_alpha	90
_cell_angle_beta	94.385
_cell_angle_gamma	90
loop_
_atom_site_label
_atom_site_type_symbol
_atom_site_fract_x
_atom_site_fract_y
_atom_site_fract_z
_atom_site_charge
Mof_Tb	Tb	0.53853	0.27011	0.48942	1.592
Mof_C 	C 	0.5352	0.3887	0.7423	0.281
Mof_C 	C 	0.5208	0.4508	0.8727	-0.044
Mof_C 	C 	0.6181	0.4247	0.9944	-0.049
Mof_C 	C 	0.4047	0.5268	0.8769	-0.088
Mof_C 	C 	0.7526	0.3514	0.9848	0.295
Mof_C 	C 	0.2957	0.5522	0.7454	0.386
Mof_O 	O 	0.5435	0.4322	0.6229	-0.384
Mof_O 	O 	0.5339	0.2927	0.7504	-0.397
Mof_O 	O 	0.7832	0.2857	0.0814	-0.397
Mof_O 	O 	0.8386	0.3575	0.8827	-0.411
Mof_O 	O 	0.3444	0.6134	0.6571	-0.471
Mof_O 	O 	0.1587	0.513	0.7385	-0.302
Mof_Tb	Tb	0.96147	0.77011	0.01058	1.56
Mof_C 	C 	0.9648	0.8887	0.7577	0.281
Mof_C 	C 	0.9792	0.9508	0.6273	-0.039
Mof_C 	C 	0.8819	0.9247	0.5056	-0.05
Mof_C 	C 	0.0953	0.0268	0.6231	-0.092
Mof_C 	C 	0.7474	0.8514	0.5152	0.291
Mof_C 	C 	0.2043	0.0522	0.7546	0.384
Mof_O 	O 	0.9565	0.9322	0.8771	-0.373
Mof_O 	O 	0.9661	0.7927	0.7496	-0.39
Mof_O 	O 	0.7168	0.7857	0.4186	-0.397
Mof_O 	O 	0.6614	0.8575	0.6173	-0.415
Mof_O 	O 	0.1556	0.1134	0.8429	-0.471
Mof_O 	O 	0.3413	0.013	0.7615	-0.303
Mof_Tb	Tb	0.46147	0.72989	0.51058	1.593
Mof_C 	C 	0.4648	0.6113	0.2577	0.282
Mof_C 	C 	0.4792	0.5492	0.1273	-0.043
Mof_C 	C 	0.3819	0.5753	0.0056	-0.048
Mof_C 	C 	0.5953	0.4732	0.1231	-0.087
Mof_C 	C 	0.2474	0.6486	0.0152	0.296
Mof_C 	C 	0.7043	0.4478	0.2546	0.386
Mof_O 	O 	0.4565	0.5678	0.3771	-0.384
Mof_O 	O 	0.4661	0.7073	0.2496	-0.397
Mof_O 	O 	0.2168	0.7143	0.9186	-0.397
Mof_O 	O 	0.1614	0.6425	0.1173	-0.411
Mof_O 	O 	0.6556	0.3866	0.3429	-0.471
Mof_O 	O 	0.8413	0.487	0.2615	-0.302
Mof_Tb	Tb	0.03853	0.22989	0.98942	1.56
Mof_C 	C 	0.0352	0.1113	0.2423	0.281
Mof_C 	C 	0.0208	0.0492	0.3727	-0.039
Mof_C 	C 	0.1181	0.0753	0.4944	-0.05
Mof_C 	C 	0.9047	0.9732	0.3769	-0.092
Mof_C 	C 	0.2526	0.1486	0.4848	0.291
Mof_C 	C 	0.7957	0.9478	0.2454	0.384
Mof_O 	O 	0.0435	0.0678	0.1229	-0.373
Mof_O 	O 	0.0339	0.2073	0.2504	-0.39
Mof_O 	O 	0.2832	0.2143	0.5814	-0.397
Mof_O 	O 	0.3386	0.1425	0.3827	-0.415
Mof_O 	O 	0.8444	0.8866	0.1571	-0.471
Mof_O 	O 	0.6587	0.987	0.2385	-0.303
_end
