data_functionalizedCrystal
_audit_creation_method	'EQeq! by Chris Wilmer'
_symmetry_space_group_name_H-M	'P1'
_symmetry_Int_Tables_number	1
_symmetry_cell_setting	triclinic
loop_
_symmetry_equiv_pos_as_xyz
  x,y,z
_cell_length_a	9.48
_cell_length_b	9.968
_cell_length_c	11.255
_cell_angle_alpha	92.329
_cell_angle_beta	98.804
_cell_angle_gamma	110.796
loop_
_atom_site_label
_atom_site_type_symbol
_atom_site_fract_x
_atom_site_fract_y
_atom_site_fract_z
_atom_site_charge
Mof_La	La	0.7163	0.95561	0.01522	2.162
Mof_La	La	0.2837	0.04439	0.98478	2.162
Mof_H 	H 	0.676	0.5057	0.9578	0.027
Mof_H 	H 	0.8028	0.2195	0.7836	0.073
Mof_H 	H 	0.0798	0.6363	0.841	0.083
Mof_H 	H 	0.8369	0.4128	0.5696	0.131
Mof_H 	H 	0.7495	0.2907	0.3767	-0.01
Mof_H 	H 	0.0612	0.1038	0.4342	-0.008
Mof_H 	H 	0.1508	0.2256	0.6271	0.139
Mof_H 	H 	0.768	0.867	0.791	0.248
Mof_H 	H 	0.906	0.987	0.796	0.318
Mof_H 	H 	0.324	0.4943	0.0422	0.027
Mof_H 	H 	0.1972	0.7805	0.2164	0.073
Mof_H 	H 	0.9202	0.3637	0.159	0.083
Mof_H 	H 	0.1631	0.5872	0.4304	0.131
Mof_H 	H 	0.2505	0.7093	0.6233	-0.01
Mof_H 	H 	0.9388	0.8962	0.5658	-0.008
Mof_H 	H 	0.8492	0.7744	0.3729	0.139
Mof_H 	H 	0.232	0.133	0.209	0.248
Mof_H 	H 	0.094	0.013	0.204	0.318
Mof_C 	C 	0.924	0.7437	0.9705	0.471
Mof_C 	C 	0.8852	0.5935	0.912	-0.111
Mof_C 	C 	0.7477	0.4849	0.9202	0.026
Mof_C 	C 	0.7175	0.3447	0.8721	-0.088
Mof_C 	C 	0.5732	0.2277	0.8912	0.372
Mof_C 	C 	0.8209	0.314	0.8123	-0.1
Mof_C 	C 	0.9517	0.4253	0.7953	0.167
Mof_C 	C 	0.988	0.5637	0.848	-0.103
Mof_C 	C 	0.9994	0.3277	0.6174	0.28
Mof_C 	C 	0.8809	0.35	0.543	-0.268
Mof_C 	C 	0.829	0.2767	0.4277	0.14
Mof_C 	C 	0.8948	0.1825	0.3876	-0.17
Mof_C 	C 	0.8315	0.0964	0.2646	0.35
Mof_C 	C 	0.0155	0.1647	0.4617	0.122
Mof_C 	C 	0.0692	0.2373	0.5772	-0.261
Mof_C 	C 	0.076	0.2563	0.0295	0.471
Mof_C 	C 	0.1148	0.4065	0.088	-0.111
Mof_C 	C 	0.2523	0.5151	0.0798	0.026
Mof_C 	C 	0.2825	0.6553	0.1279	-0.088
Mof_C 	C 	0.4268	0.7723	0.1088	0.372
Mof_C 	C 	0.1791	0.686	0.1877	-0.1
Mof_C 	C 	0.0483	0.5747	0.2047	0.167
Mof_C 	C 	0.012	0.4363	0.152	-0.103
Mof_C 	C 	0.0006	0.6723	0.3826	0.28
Mof_C 	C 	0.1191	0.65	0.457	-0.268
Mof_C 	C 	0.171	0.7233	0.5723	0.14
Mof_C 	C 	0.1052	0.8175	0.6124	-0.17
Mof_C 	C 	0.1685	0.9036	0.7354	0.35
Mof_C 	C 	0.9845	0.8353	0.5383	0.122
Mof_C 	C 	0.9308	0.7627	0.4228	-0.261
Mof_O 	O 	0.8178	0.7662	0.0157	-0.538
Mof_O 	O 	0.0519	0.8349	0.9729	-0.53
Mof_O 	O 	0.4506	0.2516	0.8798	-0.448
Mof_O 	O 	0.5769	0.1057	0.9195	-0.585
Mof_O 	O 	0.0567	0.3975	0.7336	-0.276
Mof_O 	O 	0.7219	0.1176	0.1976	-0.445
Mof_O 	O 	0.8868	0.0068	0.232	-0.419
Mof_O 	O 	0.8116	0.9601	0.8086	-0.749
Mof_O 	O 	0.1822	0.2338	0.9843	-0.538
Mof_O 	O 	0.9481	0.1651	0.0271	-0.53
Mof_O 	O 	0.5494	0.7484	0.1202	-0.448
Mof_O 	O 	0.4231	0.8943	0.0805	-0.585
Mof_O 	O 	0.9433	0.6025	0.2664	-0.276
Mof_O 	O 	0.2781	0.8824	0.8024	-0.445
Mof_O 	O 	0.1132	0.9932	0.768	-0.419
Mof_O 	O 	0.1884	0.0399	0.1914	-0.749
_end
