data_functionalizedCrystal
_audit_creation_method	'EQeq! by Chris Wilmer'
_symmetry_space_group_name_H-M	'P1'
_symmetry_Int_Tables_number	1
_symmetry_cell_setting	triclinic
loop_
_symmetry_equiv_pos_as_xyz
  x,y,z
_cell_length_a	13.6319
_cell_length_b	16.2211
_cell_length_c	15.7201
_cell_angle_alpha	90
_cell_angle_beta	96.607
_cell_angle_gamma	90
loop_
_atom_site_label
_atom_site_type_symbol
_atom_site_fract_x
_atom_site_fract_y
_atom_site_fract_z
_atom_site_charge
Mof_Ag	Ag	0.01942	0.37808	0.91976	0.479
Mof_S 	S 	0.0915	0.43818	0.08153	-0.189
Mof_S 	S 	0.37324	0.12904	0.20654	-0.181
Mof_N 	N 	0.189	0.31443	0.972	-0.154
Mof_N 	N 	0.1418	0.59202	0.0729	-0.219
Mof_N 	N 	0.3466	0.9722	0.1875	-0.215
Mof_C 	C 	0.2093	0.2984	0.0553	0.037
Mof_C 	C 	0.2715	0.2341	0.0833	0.037
Mof_C 	C 	0.1631	0.3497	0.1204	-0.123
Mof_H 	H 	0.2161	0.3689	0.1632	0.056
Mof_H 	H 	0.1204	0.3136	0.1499	0.037
Mof_C 	C 	0.1816	0.5165	0.0793	0.119
Mof_C 	C 	0.2821	0.5034	0.0844	-0.171
Mof_H 	H 	0.3082	0.4497	0.0867	0.087
Mof_C 	C 	0.3433	0.5714	0.0861	0.08
Mof_H 	H 	0.4122	0.5645	0.0912	-0.007
Mof_C 	C 	0.3033	0.6488	0.0803	-0.163
Mof_H 	H 	0.3442	0.6956	0.0814	0.07
Mof_C 	C 	0.2039	0.6569	0.0731	0.088
Mof_H 	H 	0.1768	0.7102	0.0679	-0.031
Mof_C 	C 	0.2962	0.2171	0.1786	-0.124
Mof_H 	H 	0.2341	0.2099	0.2036	0.056
Mof_H 	H 	0.329	0.266	0.2053	0.05
Mof_C 	C 	0.2968	0.9018	0.1679	0.086
Mof_H 	H 	0.3317	0.8517	0.1722	-0.026
Mof_C 	C 	0.1982	0.9002	0.1421	-0.16
Mof_H 	H 	0.1653	0.8499	0.1296	0.067
Mof_C 	C 	0.1476	0.9737	0.1347	0.075
Mof_H 	H 	0.0792	0.974	0.1174	-0.013
Mof_C 	C 	0.1966	0.0468	0.1524	-0.169
Mof_H 	H 	0.1631	0.0976	0.1466	0.08
Mof_C 	C 	0.2959	0.0433	0.1789	0.115
Mof_Ag	Ag	0.51942	0.87808	0.91976	0.519
Mof_S 	S 	0.5915	0.93818	0.08153	-0.182
Mof_S 	S 	0.87324	0.62904	0.20654	-0.166
Mof_N 	N 	0.689	0.81443	0.972	-0.154
Mof_N 	N 	0.6418	0.09202	0.0729	-0.21
Mof_N 	N 	0.8466	0.4722	0.1875	-0.205
Mof_C 	C 	0.7093	0.7984	0.0553	0.037
Mof_C 	C 	0.7715	0.7341	0.0833	0.041
Mof_C 	C 	0.6631	0.8497	0.1204	-0.127
Mof_H 	H 	0.7161	0.8689	0.1632	0.058
Mof_H 	H 	0.6204	0.8136	0.1499	0.041
Mof_C 	C 	0.6816	0.0165	0.0793	0.117
Mof_C 	C 	0.7821	0.0034	0.0844	-0.168
Mof_H 	H 	0.8082	0.9497	0.0867	0.088
Mof_C 	C 	0.8433	0.0714	0.0861	0.078
Mof_H 	H 	0.9122	0.0645	0.0912	0.002
Mof_C 	C 	0.8033	0.1488	0.0803	-0.16
Mof_H 	H 	0.8442	0.1956	0.0814	0.074
Mof_C 	C 	0.7039	0.1569	0.0731	0.087
Mof_H 	H 	0.6768	0.2102	0.0679	-0.026
Mof_C 	C 	0.7962	0.7171	0.1786	-0.132
Mof_H 	H 	0.7341	0.7099	0.2036	0.059
Mof_H 	H 	0.829	0.766	0.2053	0.056
Mof_C 	C 	0.7968	0.4018	0.1679	0.084
Mof_H 	H 	0.8317	0.3517	0.1722	-0.02
Mof_C 	C 	0.6982	0.4002	0.1421	-0.156
Mof_H 	H 	0.6653	0.3499	0.1296	0.069
Mof_C 	C 	0.6476	0.4737	0.1347	0.072
Mof_H 	H 	0.5792	0.474	0.1174	-0.004
Mof_C 	C 	0.6966	0.5468	0.1524	-0.164
Mof_H 	H 	0.6631	0.5976	0.1466	0.081
Mof_C 	C 	0.7959	0.5433	0.1789	0.112
Mof_Ag	Ag	0.98058	0.37808	0.58024	0.567
Mof_S 	S 	0.9085	0.43818	0.41847	-0.158
Mof_S 	S 	0.62676	0.12904	0.29346	-0.18
Mof_N 	N 	0.811	0.31443	0.528	-0.158
Mof_N 	N 	0.8582	0.59202	0.4271	-0.199
Mof_N 	N 	0.6534	0.9722	0.3125	-0.215
Mof_C 	C 	0.7907	0.2984	0.4447	0.043
Mof_C 	C 	0.7285	0.2341	0.4167	0.037
Mof_C 	C 	0.8369	0.3497	0.3796	-0.138
Mof_H 	H 	0.7839	0.3689	0.3368	0.061
Mof_H 	H 	0.8796	0.3136	0.3501	0.05
Mof_C 	C 	0.8184	0.5165	0.4207	0.115
Mof_C 	C 	0.7179	0.5034	0.4156	-0.167
Mof_H 	H 	0.6918	0.4497	0.4133	0.085
Mof_C 	C 	0.6567	0.5714	0.4139	0.076
Mof_H 	H 	0.5878	0.5645	0.4088	-0.005
Mof_C 	C 	0.6967	0.6488	0.4197	-0.159
Mof_H 	H 	0.6558	0.6956	0.4186	0.069
Mof_C 	C 	0.7961	0.6569	0.4269	0.087
Mof_H 	H 	0.8232	0.7102	0.4321	-0.02
Mof_C 	C 	0.7038	0.2171	0.3214	-0.126
Mof_H 	H 	0.7659	0.2099	0.2964	0.059
Mof_H 	H 	0.671	0.266	0.2947	0.051
Mof_C 	C 	0.7032	0.9018	0.3321	0.086
Mof_H 	H 	0.6683	0.8517	0.3278	-0.026
Mof_C 	C 	0.8018	0.9002	0.3579	-0.157
Mof_H 	H 	0.8347	0.8499	0.3704	0.074
Mof_C 	C 	0.8524	0.9737	0.3653	0.075
Mof_H 	H 	0.9208	0.974	0.3826	0.004
Mof_C 	C 	0.8034	0.0468	0.3476	-0.165
Mof_H 	H 	0.8369	0.0976	0.3534	0.086
Mof_C 	C 	0.7041	0.0433	0.3211	0.115
Mof_Ag	Ag	0.48058	0.87808	0.58024	0.519
Mof_S 	S 	0.4085	0.93818	0.41847	-0.182
Mof_S 	S 	0.12676	0.62904	0.29346	-0.187
Mof_N 	N 	0.311	0.81443	0.528	-0.156
Mof_N 	N 	0.3582	0.09202	0.4271	-0.21
Mof_N 	N 	0.1534	0.4722	0.3125	-0.213
Mof_C 	C 	0.2907	0.7984	0.4447	0.038
Mof_C 	C 	0.2285	0.7341	0.4167	0.036
Mof_C 	C 	0.3369	0.8497	0.3796	-0.127
Mof_H 	H 	0.2839	0.8689	0.3368	0.056
Mof_H 	H 	0.3796	0.8136	0.3501	0.041
Mof_C 	C 	0.3184	0.0165	0.4207	0.117
Mof_C 	C 	0.2179	0.0034	0.4156	-0.172
Mof_H 	H 	0.1918	0.9497	0.4133	0.084
Mof_C 	C 	0.1567	0.0714	0.4139	0.079
Mof_H 	H 	0.0878	0.0645	0.4088	-0.014
Mof_C 	C 	0.1967	0.1488	0.4197	-0.163
Mof_H 	H 	0.1558	0.1956	0.4186	0.066
Mof_C 	C 	0.2961	0.1569	0.4269	0.087
Mof_H 	H 	0.3232	0.2102	0.4321	-0.026
Mof_C 	C 	0.2038	0.7171	0.3214	-0.123
Mof_H 	H 	0.2659	0.7099	0.2964	0.056
Mof_H 	H 	0.171	0.766	0.2947	0.046
Mof_C 	C 	0.2032	0.4018	0.3321	0.086
Mof_H 	H 	0.1683	0.3517	0.3278	-0.028
Mof_C 	C 	0.3018	0.4002	0.3579	-0.159
Mof_H 	H 	0.3347	0.3499	0.3704	0.07
Mof_C 	C 	0.3524	0.4737	0.3653	0.076
Mof_H 	H 	0.4208	0.474	0.3826	-0.005
Mof_C 	C 	0.3034	0.5468	0.3476	-0.168
Mof_H 	H 	0.3369	0.5976	0.3534	0.083
Mof_C 	C 	0.2041	0.5433	0.3211	0.116
Mof_Ag	Ag	0.98058	0.62192	0.08024	0.563
Mof_S 	S 	0.9085	0.56182	0.91847	-0.156
Mof_S 	S 	0.62676	0.87096	0.79346	-0.18
Mof_N 	N 	0.811	0.68557	0.028	-0.159
Mof_N 	N 	0.8582	0.40798	0.9271	-0.199
Mof_N 	N 	0.6534	0.0278	0.8125	-0.215
Mof_C 	C 	0.7907	0.7016	0.9447	0.044
Mof_C 	C 	0.7285	0.7659	0.9167	0.037
Mof_C 	C 	0.8369	0.6503	0.8796	-0.139
Mof_H 	H 	0.7839	0.6311	0.8368	0.062
Mof_H 	H 	0.8796	0.6864	0.8501	0.051
Mof_C 	C 	0.8184	0.4835	0.9207	0.115
Mof_C 	C 	0.7179	0.4966	0.9156	-0.166
Mof_H 	H 	0.6918	0.5503	0.9133	0.085
Mof_C 	C 	0.6567	0.4286	0.9139	0.076
Mof_H 	H 	0.5878	0.4355	0.9088	-0.005
Mof_C 	C 	0.6967	0.3512	0.9197	-0.159
Mof_H 	H 	0.6558	0.3044	0.9186	0.069
Mof_C 	C 	0.7961	0.3431	0.9269	0.087
Mof_H 	H 	0.8232	0.2898	0.9321	-0.02
Mof_C 	C 	0.7038	0.7829	0.8214	-0.126
Mof_H 	H 	0.7659	0.7901	0.7964	0.059
Mof_H 	H 	0.671	0.734	0.7947	0.05
Mof_C 	C 	0.7032	0.0982	0.8321	0.086
Mof_H 	H 	0.6683	0.1483	0.8278	-0.026
Mof_C 	C 	0.8018	0.0998	0.8579	-0.157
Mof_H 	H 	0.8347	0.1501	0.8704	0.074
Mof_C 	C 	0.8524	0.0263	0.8653	0.075
Mof_H 	H 	0.9208	0.026	0.8826	0.005
Mof_C 	C 	0.8034	0.9532	0.8476	-0.164
Mof_H 	H 	0.8369	0.9024	0.8534	0.086
Mof_C 	C 	0.7041	0.9567	0.8211	0.115
Mof_Ag	Ag	0.48058	0.12192	0.08024	0.519
Mof_S 	S 	0.4085	0.06182	0.91847	-0.182
Mof_S 	S 	0.12676	0.37096	0.79346	-0.187
Mof_N 	N 	0.311	0.18557	0.028	-0.155
Mof_N 	N 	0.3582	0.90798	0.9271	-0.21
Mof_N 	N 	0.1534	0.5278	0.8125	-0.213
Mof_C 	C 	0.2907	0.2016	0.9447	0.038
Mof_C 	C 	0.2285	0.2659	0.9167	0.036
Mof_C 	C 	0.3369	0.1503	0.8796	-0.127
Mof_H 	H 	0.2839	0.1311	0.8368	0.056
Mof_H 	H 	0.3796	0.1864	0.8501	0.041
Mof_C 	C 	0.3184	0.9835	0.9207	0.117
Mof_C 	C 	0.2179	0.9966	0.9156	-0.172
Mof_H 	H 	0.1918	0.0503	0.9133	0.084
Mof_C 	C 	0.1567	0.9286	0.9139	0.078
Mof_H 	H 	0.0878	0.9355	0.9088	-0.015
Mof_C 	C 	0.1967	0.8512	0.9197	-0.163
Mof_H 	H 	0.1558	0.8044	0.9186	0.066
Mof_C 	C 	0.2961	0.8431	0.9269	0.087
Mof_H 	H 	0.3232	0.7898	0.9321	-0.026
Mof_C 	C 	0.2038	0.2829	0.8214	-0.123
Mof_H 	H 	0.2659	0.2901	0.7964	0.056
Mof_H 	H 	0.171	0.234	0.7947	0.046
Mof_C 	C 	0.2032	0.5982	0.8321	0.085
Mof_H 	H 	0.1683	0.6483	0.8278	-0.028
Mof_C 	C 	0.3018	0.5998	0.8579	-0.159
Mof_H 	H 	0.3347	0.6501	0.8704	0.07
Mof_C 	C 	0.3524	0.5263	0.8653	0.075
Mof_H 	H 	0.4208	0.526	0.8826	-0.005
Mof_C 	C 	0.3034	0.4532	0.8476	-0.168
Mof_H 	H 	0.3369	0.4024	0.8534	0.083
Mof_C 	C 	0.2041	0.4567	0.8211	0.116
Mof_Ag	Ag	0.01942	0.62192	0.41976	0.481
Mof_S 	S 	0.0915	0.56182	0.58153	-0.192
Mof_S 	S 	0.37324	0.87096	0.70654	-0.182
Mof_N 	N 	0.189	0.68557	0.472	-0.154
Mof_N 	N 	0.1418	0.40798	0.5729	-0.22
Mof_N 	N 	0.3466	0.0278	0.6875	-0.215
Mof_C 	C 	0.2093	0.7016	0.5553	0.036
Mof_C 	C 	0.2715	0.7659	0.5833	0.037
Mof_C 	C 	0.1631	0.6503	0.6204	-0.123
Mof_H 	H 	0.2161	0.6311	0.6632	0.056
Mof_H 	H 	0.1204	0.6864	0.6499	0.036
Mof_C 	C 	0.1816	0.4835	0.5793	0.119
Mof_C 	C 	0.2821	0.4966	0.5844	-0.171
Mof_H 	H 	0.3082	0.5503	0.5867	0.087
Mof_C 	C 	0.3433	0.4286	0.5861	0.08
Mof_H 	H 	0.4122	0.4355	0.5912	-0.007
Mof_C 	C 	0.3033	0.3512	0.5803	-0.163
Mof_H 	H 	0.3442	0.3044	0.5814	0.07
Mof_C 	C 	0.2039	0.3431	0.5731	0.088
Mof_H 	H 	0.1768	0.2898	0.5679	-0.031
Mof_C 	C 	0.2962	0.7829	0.6786	-0.125
Mof_H 	H 	0.2341	0.7901	0.7036	0.056
Mof_H 	H 	0.329	0.734	0.7053	0.05
Mof_C 	C 	0.2968	0.0982	0.6679	0.086
Mof_H 	H 	0.3317	0.1483	0.6722	-0.027
Mof_C 	C 	0.1982	0.0998	0.6421	-0.16
Mof_H 	H 	0.1653	0.1501	0.6296	0.067
Mof_C 	C 	0.1476	0.0263	0.6347	0.075
Mof_H 	H 	0.0792	0.026	0.6174	-0.013
Mof_C 	C 	0.1966	0.9532	0.6524	-0.169
Mof_H 	H 	0.1631	0.9024	0.6466	0.08
Mof_C 	C 	0.2959	0.9567	0.6789	0.115
Mof_Ag	Ag	0.51942	0.12192	0.41976	0.519
Mof_S 	S 	0.5915	0.06182	0.58153	-0.181
Mof_S 	S 	0.87324	0.37096	0.70654	-0.165
Mof_N 	N 	0.689	0.18557	0.472	-0.155
Mof_N 	N 	0.6418	0.90798	0.5729	-0.21
Mof_N 	N 	0.8466	0.5278	0.6875	-0.204
Mof_C 	C 	0.7093	0.2016	0.5553	0.038
Mof_C 	C 	0.7715	0.2659	0.5833	0.041
Mof_C 	C 	0.6631	0.1503	0.6204	-0.128
Mof_H 	H 	0.7161	0.1311	0.6632	0.058
Mof_H 	H 	0.6204	0.1864	0.6499	0.041
Mof_C 	C 	0.6816	0.9835	0.5793	0.117
Mof_C 	C 	0.7821	0.9966	0.5844	-0.168
Mof_H 	H 	0.8082	0.0503	0.5867	0.089
Mof_C 	C 	0.8433	0.9286	0.5861	0.079
Mof_H 	H 	0.9122	0.9355	0.5912	0.003
Mof_C 	C 	0.8033	0.8512	0.5803	-0.16
Mof_H 	H 	0.8442	0.8044	0.5814	0.075
Mof_C 	C 	0.7039	0.8431	0.5731	0.088
Mof_H 	H 	0.6768	0.7898	0.5679	-0.025
Mof_C 	C 	0.7962	0.2829	0.6786	-0.132
Mof_H 	H 	0.7341	0.2901	0.7036	0.059
Mof_H 	H 	0.829	0.234	0.7053	0.056
Mof_C 	C 	0.7968	0.5982	0.6679	0.084
Mof_H 	H 	0.8317	0.6483	0.6722	-0.019
Mof_C 	C 	0.6982	0.5998	0.6421	-0.155
Mof_H 	H 	0.6653	0.6501	0.6296	0.069
Mof_C 	C 	0.6476	0.5263	0.6347	0.072
Mof_H 	H 	0.5792	0.526	0.6174	-0.004
Mof_C 	C 	0.6966	0.4532	0.6524	-0.164
Mof_H 	H 	0.6631	0.4024	0.6466	0.081
Mof_C 	C 	0.7959	0.4567	0.6789	0.112
Mof_Ag	Ag	0.5	0.96675	0.25	0.492
Mof_Ag	Ag	1.20531e-33	0.46675	0.25	0.444
Mof_Ag	Ag	0.5	0.03325	0.75	0.492
Mof_Ag	Ag	3.61593e-33	0.53325	0.75	0.441
_end
