data_functionalizedCrystal
_audit_creation_method	'EQeq! by Chris Wilmer'
_symmetry_space_group_name_H-M	'P1'
_symmetry_Int_Tables_number	1
_symmetry_cell_setting	triclinic
loop_
_symmetry_equiv_pos_as_xyz
  x,y,z
_cell_length_a	10.2551
_cell_length_b	10.6342
_cell_length_c	6.2296
_cell_angle_alpha	90
_cell_angle_beta	114.568
_cell_angle_gamma	90
loop_
_atom_site_label
_atom_site_type_symbol
_atom_site_fract_x
_atom_site_fract_y
_atom_site_fract_z
_atom_site_charge
Mof_C 	C 	0.3177	0.211	0.5454	-0.062
Mof_H 	H 	0.4006	0.266	0.5696	0.014
Mof_H 	H 	0.3329	0.1741	0.6999	-0.003
Mof_N 	N 	0.3108	0.1091	0.3802	-0.262
Mof_H 	H 	0.295	0.1436	0.236	0.054
Mof_H 	H 	0.2344	0.0576	0.3595	0.047
Mof_C 	C 	0.8177	0.711	0.5454	-0.062
Mof_H 	H 	0.9006	0.766	0.5696	0.042
Mof_H 	H 	0.8329	0.6741	0.6999	0.022
Mof_N 	N 	0.8108	0.6091	0.3802	-0.255
Mof_H 	H 	0.795	0.6436	0.236	0.077
Mof_H 	H 	0.7344	0.5576	0.3595	0.077
Mof_C 	C 	0.6823	0.211	0.9546	0.024
Mof_H 	H 	0.5994	0.266	0.9304	-0.004
Mof_H 	H 	0.6671	0.1741	0.8001	-0.024
Mof_N 	N 	0.6892	0.1091	0.1198	-0.283
Mof_H 	H 	0.705	0.1436	0.264	0.069
Mof_H 	H 	0.7656	0.0576	0.1405	0.065
Mof_C 	C 	0.1823	0.711	0.9546	0.027
Mof_H 	H 	0.0994	0.766	0.9304	-0.016
Mof_H 	H 	0.1671	0.6741	0.8001	-0.028
Mof_N 	N 	0.1892	0.6091	0.1198	-0.285
Mof_H 	H 	0.205	0.6436	0.264	0.071
Mof_H 	H 	0.2656	0.5576	0.1405	0.074
Mof_C 	C 	0.6823	0.789	0.4546	-0.026
Mof_H 	H 	0.5994	0.734	0.4304	0.008
Mof_H 	H 	0.6671	0.8259	0.3001	0.005
Mof_N 	N 	0.6892	0.8909	0.6198	-0.268
Mof_H 	H 	0.705	0.8564	0.764	0.095
Mof_H 	H 	0.7656	0.9424	0.6405	0.11
Mof_C 	C 	0.1823	0.289	0.4546	-0.024
Mof_H 	H 	0.0994	0.234	0.4304	-0.02
Mof_H 	H 	0.1671	0.3259	0.3001	-0.021
Mof_N 	N 	0.1892	0.3909	0.6198	-0.276
Mof_H 	H 	0.205	0.3564	0.764	0.072
Mof_H 	H 	0.2656	0.4424	0.6405	0.08
Mof_C 	C 	0.3177	0.789	0.0454	-0.11
Mof_H 	H 	0.4006	0.734	0.0696	0.027
Mof_H 	H 	0.3329	0.8259	0.1999	0.023
Mof_N 	N 	0.3108	0.8909	0.8802	-0.237
Mof_H 	H 	0.295	0.8564	0.736	0.078
Mof_H 	H 	0.2344	0.9424	0.8595	0.092
Mof_C 	C 	0.8177	0.289	0.0454	-0.113
Mof_H 	H 	0.9006	0.234	0.0696	0.039
Mof_H 	H 	0.8329	0.3259	0.1999	0.026
Mof_N 	N 	0.8108	0.3909	0.8802	-0.236
Mof_H 	H 	0.795	0.3564	0.736	0.076
Mof_H 	H 	0.7344	0.4424	0.8595	0.082
Mof_Ag	Ag	0.5	0	0.5	0.309
Mof_Ag	Ag	1.6123e-33	0.5	0.5	0.311
Mof_Ag	Ag	0.5	0	-0	0.258
Mof_Ag	Ag	-0	0.5	-0	0.261
_end
