data_functionalizedCrystal
_audit_creation_method	'EQeq! by Chris Wilmer'
_symmetry_space_group_name_H-M	'P1'
_symmetry_Int_Tables_number	1
_symmetry_cell_setting	triclinic
loop_
_symmetry_equiv_pos_as_xyz
  x,y,z
_cell_length_a	16.1292
_cell_length_b	16.1292
_cell_length_c	16.1292
_cell_angle_alpha	92.5495
_cell_angle_beta	92.5495
_cell_angle_gamma	92.5495
loop_
_atom_site_label
_atom_site_type_symbol
_atom_site_fract_x
_atom_site_fract_y
_atom_site_fract_z
_atom_site_charge
Mof_In	In	0.74044	0.16109	0.40989	2.843
Mof_In	In	0.40989	0.74044	0.16109	2.843
Mof_In	In	0.16109	0.40989	0.74044	2.843
Mof_In	In	0.83891	0.25956	0.59011	2.843
Mof_In	In	0.25956	0.59011	0.83891	2.843
Mof_In	In	0.59011	0.83891	0.25956	2.843
Mof_In	In	0.65936	0.34064	0.5	2.306
Mof_In	In	0.5	0.65936	0.34064	2.306
Mof_In	In	0.34064	0.5	0.65936	2.306
Mof_H 	H 	0.4908	0.0269	0.3883	-0.073
Mof_H 	H 	0.3561	0.9775	0.3504	0.181
Mof_H 	H 	0.2803	0.2082	0.356	0.196
Mof_H 	H 	0.4115	0.2569	0.4032	-0.096
Mof_H 	H 	0.9732	0.1281	0.2842	-0.054
Mof_H 	H 	0.0986	0.0839	0.2363	0.177
Mof_H 	H 	0.1963	0.1276	0.4723	0.193
Mof_H 	H 	0.0759	0.168	0.5118	-0.094
Mof_H 	H 	0.6557	0.2349	0.1651	-0.043
Mof_H 	H 	0.6092	0.2799	0.0367	0.157
Mof_H 	H 	0.5986	0.5117	0.1356	0.158
Mof_H 	H 	0.6352	0.4666	0.2647	-0.063
Mof_H 	H 	0.3883	0.4908	0.0269	-0.073
Mof_H 	H 	0.3504	0.3561	0.9775	0.181
Mof_H 	H 	0.356	0.2803	0.2082	0.196
Mof_H 	H 	0.4032	0.4115	0.2569	-0.096
Mof_H 	H 	0.2842	0.9732	0.1281	-0.054
Mof_H 	H 	0.2363	0.0986	0.0839	0.177
Mof_H 	H 	0.4723	0.1963	0.1276	0.193
Mof_H 	H 	0.5118	0.0759	0.168	-0.094
Mof_H 	H 	0.1651	0.6557	0.2349	-0.043
Mof_H 	H 	0.0367	0.6092	0.2799	0.157
Mof_H 	H 	0.1356	0.5986	0.5117	0.158
Mof_H 	H 	0.2647	0.6352	0.4666	-0.063
Mof_H 	H 	0.0269	0.3883	0.4908	-0.073
Mof_H 	H 	0.9775	0.3504	0.3561	0.181
Mof_H 	H 	0.2082	0.356	0.2803	0.196
Mof_H 	H 	0.2569	0.4032	0.4115	-0.096
Mof_H 	H 	0.1281	0.2842	0.9732	-0.054
Mof_H 	H 	0.0839	0.2363	0.0986	0.177
Mof_H 	H 	0.1276	0.4723	0.1963	0.193
Mof_H 	H 	0.168	0.5118	0.0759	-0.094
Mof_H 	H 	0.2349	0.1651	0.6557	-0.043
Mof_H 	H 	0.2799	0.0367	0.6092	0.157
Mof_H 	H 	0.5117	0.1356	0.5986	0.158
Mof_H 	H 	0.4666	0.2647	0.6352	-0.063
Mof_H 	H 	0.9731	0.5092	0.6117	-0.07
Mof_H 	H 	0.0225	0.6439	0.6496	0.177
Mof_H 	H 	0.7918	0.7197	0.644	0.195
Mof_H 	H 	0.7431	0.5885	0.5968	-0.095
Mof_H 	H 	0.8719	0.0268	0.7158	-0.056
Mof_H 	H 	0.9161	0.9014	0.7637	0.179
Mof_H 	H 	0.8724	0.8037	0.5277	0.193
Mof_H 	H 	0.832	0.9241	0.4882	-0.094
Mof_H 	H 	0.7651	0.3443	0.8349	-0.043
Mof_H 	H 	0.7201	0.3908	0.9633	0.158
Mof_H 	H 	0.4883	0.4014	0.8644	0.158
Mof_H 	H 	0.5334	0.3648	0.7353	-0.063
Mof_H 	H 	0.5092	0.6117	0.9731	-0.07
Mof_H 	H 	0.6439	0.6496	0.0225	0.177
Mof_H 	H 	0.7197	0.644	0.7918	0.195
Mof_H 	H 	0.5885	0.5968	0.7431	-0.095
Mof_H 	H 	0.0268	0.7158	0.8719	-0.056
Mof_H 	H 	0.9014	0.7637	0.9161	0.179
Mof_H 	H 	0.8037	0.5277	0.8724	0.193
Mof_H 	H 	0.9241	0.4882	0.832	-0.094
Mof_H 	H 	0.3443	0.8349	0.7651	-0.043
Mof_H 	H 	0.3908	0.9633	0.7201	0.158
Mof_H 	H 	0.4014	0.8644	0.4883	0.158
Mof_H 	H 	0.3648	0.7353	0.5334	-0.063
Mof_H 	H 	0.6117	0.9731	0.5092	-0.07
Mof_H 	H 	0.6496	0.0225	0.6439	0.177
Mof_H 	H 	0.644	0.7918	0.7197	0.195
Mof_H 	H 	0.5968	0.7431	0.5885	-0.095
Mof_H 	H 	0.7158	0.8719	0.0268	-0.056
Mof_H 	H 	0.7637	0.9161	0.9014	0.179
Mof_H 	H 	0.5277	0.8724	0.8037	0.193
Mof_H 	H 	0.4882	0.832	0.9241	-0.094
Mof_H 	H 	0.8349	0.7651	0.3443	-0.043
Mof_H 	H 	0.9633	0.7201	0.3908	0.158
Mof_H 	H 	0.8644	0.4883	0.4014	0.158
Mof_H 	H 	0.7353	0.5334	0.3648	-0.063
Mof_C 	C 	0.5512	0.1798	0.43	0.602
Mof_C 	C 	0.4657	0.1477	0.4	-0.374
Mof_C 	C 	0.4485	0.0639	0.3834	0.319
Mof_C 	C 	0.3684	0.0341	0.3592	-0.419
Mof_C 	C 	0.308	0.0902	0.3488	0.437
Mof_C 	C 	0.3225	0.1715	0.3637	-0.475
Mof_C 	C 	0.4015	0.2004	0.3908	0.337
Mof_C 	C 	0.9315	0.1838	0.4322	0.616
Mof_C 	C 	0.0127	0.1525	0.4021	-0.378
Mof_C 	C 	0.0193	0.1269	0.3209	0.303
Mof_C 	C 	0.0934	0.0993	0.2921	-0.38
Mof_C 	C 	0.1595	0.0951	0.3496	0.373
Mof_C 	C 	0.151	0.1259	0.4344	-0.454
Mof_C 	C 	0.0811	0.1505	0.4566	0.376
Mof_C 	C 	0.6774	0.3174	0.3105	0.571
Mof_C 	C 	0.6485	0.3461	0.2282	-0.319
Mof_C 	C 	0.6422	0.2899	0.1593	0.238
Mof_C 	C 	0.6157	0.3168	0.0827	-0.348
Mof_C 	C 	0.5989	0.4021	0.0763	0.354
Mof_C 	C 	0.608	0.4559	0.1421	-0.371
Mof_C 	C 	0.6311	0.4293	0.2188	0.26
Mof_C 	C 	0.43	0.5512	0.1798	0.602
Mof_C 	C 	0.4	0.4657	0.1477	-0.374
Mof_C 	C 	0.3834	0.4485	0.0639	0.319
Mof_C 	C 	0.3592	0.3684	0.0341	-0.419
Mof_C 	C 	0.3488	0.308	0.0902	0.437
Mof_C 	C 	0.3637	0.3225	0.1715	-0.475
Mof_C 	C 	0.3908	0.4015	0.2004	0.337
Mof_C 	C 	0.4322	0.9315	0.1838	0.616
Mof_C 	C 	0.4021	0.0127	0.1525	-0.378
Mof_C 	C 	0.3209	0.0193	0.1269	0.303
Mof_C 	C 	0.2921	0.0934	0.0993	-0.38
Mof_C 	C 	0.3496	0.1595	0.0951	0.373
Mof_C 	C 	0.4344	0.151	0.1259	-0.454
Mof_C 	C 	0.4566	0.0811	0.1505	0.376
Mof_C 	C 	0.3105	0.6774	0.3174	0.571
Mof_C 	C 	0.2282	0.6485	0.3461	-0.319
Mof_C 	C 	0.1593	0.6422	0.2899	0.238
Mof_C 	C 	0.0827	0.6157	0.3168	-0.348
Mof_C 	C 	0.0763	0.5989	0.4021	0.354
Mof_C 	C 	0.1421	0.608	0.4559	-0.371
Mof_C 	C 	0.2188	0.6311	0.4293	0.26
Mof_C 	C 	0.1798	0.43	0.5512	0.602
Mof_C 	C 	0.1477	0.4	0.4657	-0.374
Mof_C 	C 	0.0639	0.3834	0.4485	0.319
Mof_C 	C 	0.0341	0.3592	0.3684	-0.419
Mof_C 	C 	0.0902	0.3488	0.308	0.437
Mof_C 	C 	0.1715	0.3637	0.3225	-0.475
Mof_C 	C 	0.2004	0.3908	0.4015	0.337
Mof_C 	C 	0.1838	0.4322	0.9315	0.616
Mof_C 	C 	0.1525	0.4021	0.0127	-0.378
Mof_C 	C 	0.1269	0.3209	0.0193	0.303
Mof_C 	C 	0.0993	0.2921	0.0934	-0.38
Mof_C 	C 	0.0951	0.3496	0.1595	0.373
Mof_C 	C 	0.1259	0.4344	0.151	-0.454
Mof_C 	C 	0.1505	0.4566	0.0811	0.376
Mof_C 	C 	0.3174	0.3105	0.6774	0.571
Mof_C 	C 	0.3461	0.2282	0.6485	-0.319
Mof_C 	C 	0.2899	0.1593	0.6422	0.238
Mof_C 	C 	0.3168	0.0827	0.6157	-0.348
Mof_C 	C 	0.4021	0.0763	0.5989	0.354
Mof_C 	C 	0.4559	0.1421	0.608	-0.371
Mof_C 	C 	0.4293	0.2188	0.6311	0.26
Mof_C 	C 	0.8202	0.4488	0.57	0.601
Mof_C 	C 	0.8523	0.5343	0.6	-0.371
Mof_C 	C 	0.9361	0.5515	0.6166	0.314
Mof_C 	C 	0.9659	0.6316	0.6408	-0.411
Mof_C 	C 	0.9098	0.692	0.6512	0.433
Mof_C 	C 	0.8285	0.6775	0.6363	-0.471
Mof_C 	C 	0.7996	0.5985	0.6092	0.333
Mof_C 	C 	0.8162	0.0685	0.5678	0.614
Mof_C 	C 	0.8475	0.9873	0.5979	-0.378
Mof_C 	C 	0.8731	0.9807	0.6791	0.308
Mof_C 	C 	0.9007	0.9066	0.7079	-0.382
Mof_C 	C 	0.9049	0.8405	0.6504	0.374
Mof_C 	C 	0.8741	0.849	0.5656	-0.454
Mof_C 	C 	0.8495	0.9189	0.5434	0.377
Mof_C 	C 	0.6826	0.3226	0.6895	0.571
Mof_C 	C 	0.6539	0.3515	0.7718	-0.319
Mof_C 	C 	0.7101	0.3578	0.8407	0.239
Mof_C 	C 	0.6832	0.3843	0.9173	-0.349
Mof_C 	C 	0.5979	0.4011	0.9237	0.355
Mof_C 	C 	0.5441	0.392	0.8579	-0.372
Mof_C 	C 	0.5707	0.3689	0.7812	0.261
Mof_C 	C 	0.4488	0.57	0.8202	0.601
Mof_C 	C 	0.5343	0.6	0.8523	-0.371
Mof_C 	C 	0.5515	0.6166	0.9361	0.314
Mof_C 	C 	0.6316	0.6408	0.9659	-0.411
Mof_C 	C 	0.692	0.6512	0.9098	0.433
Mof_C 	C 	0.6775	0.6363	0.8285	-0.471
Mof_C 	C 	0.5985	0.6092	0.7996	0.333
Mof_C 	C 	0.0685	0.5678	0.8162	0.614
Mof_C 	C 	0.9873	0.5979	0.8475	-0.378
Mof_C 	C 	0.9807	0.6791	0.8731	0.308
Mof_C 	C 	0.9066	0.7079	0.9007	-0.382
Mof_C 	C 	0.8405	0.6504	0.9049	0.374
Mof_C 	C 	0.849	0.5656	0.8741	-0.454
Mof_C 	C 	0.9189	0.5434	0.8495	0.377
Mof_C 	C 	0.3226	0.6895	0.6826	0.571
Mof_C 	C 	0.3515	0.7718	0.6539	-0.319
Mof_C 	C 	0.3578	0.8407	0.7101	0.239
Mof_C 	C 	0.3843	0.9173	0.6832	-0.349
Mof_C 	C 	0.4011	0.9237	0.5979	0.355
Mof_C 	C 	0.392	0.8579	0.5441	-0.372
Mof_C 	C 	0.3689	0.7812	0.5707	0.261
Mof_C 	C 	0.57	0.8202	0.4488	0.601
Mof_C 	C 	0.6	0.8523	0.5343	-0.371
Mof_C 	C 	0.6166	0.9361	0.5515	0.314
Mof_C 	C 	0.6408	0.9659	0.6316	-0.411
Mof_C 	C 	0.6512	0.9098	0.692	0.433
Mof_C 	C 	0.6363	0.8285	0.6775	-0.471
Mof_C 	C 	0.6092	0.7996	0.5985	0.333
Mof_C 	C 	0.5678	0.8162	0.0685	0.614
Mof_C 	C 	0.5979	0.8475	0.9873	-0.378
Mof_C 	C 	0.6791	0.8731	0.9807	0.308
Mof_C 	C 	0.7079	0.9007	0.9066	-0.382
Mof_C 	C 	0.6504	0.9049	0.8405	0.374
Mof_C 	C 	0.5656	0.8741	0.849	-0.454
Mof_C 	C 	0.5434	0.8495	0.9189	0.377
Mof_C 	C 	0.6895	0.6826	0.3226	0.571
Mof_C 	C 	0.7718	0.6539	0.3515	-0.319
Mof_C 	C 	0.8407	0.7101	0.3578	0.239
Mof_C 	C 	0.9173	0.6832	0.3843	-0.349
Mof_C 	C 	0.9237	0.5979	0.4011	0.355
Mof_C 	C 	0.8579	0.5441	0.392	-0.372
Mof_C 	C 	0.7812	0.5707	0.3689	0.261
Mof_C 	C 	0.68305	-1.69857e-18	0.31695	0.38
Mof_C 	C 	0.31695	0.68305	-0	0.38
Mof_C 	C 	2.97249e-18	0.31695	0.68305	0.38
Mof_O 	O 	0.5564	0.2556	0.4528	-0.701
Mof_O 	O 	0.6087	0.1283	0.4285	-0.716
Mof_O 	O 	0.2301	0.0567	0.3213	-0.355
Mof_O 	O 	0.9312	0.2169	0.5047	-0.732
Mof_O 	O 	0.869	0.1785	0.38	-0.715
Mof_O 	O 	0.6782	0.3699	0.3724	-0.689
Mof_O 	O 	0.6991	0.242	0.3135	-0.711
Mof_O 	O 	0.7352	0.0616	0.315	-0.604
Mof_O 	O 	0.4528	0.5564	0.2556	-0.701
Mof_O 	O 	0.4285	0.6087	0.1283	-0.716
Mof_O 	O 	0.3213	0.2301	0.0567	-0.355
Mof_O 	O 	0.5047	0.9312	0.2169	-0.732
Mof_O 	O 	0.38	0.869	0.1785	-0.715
Mof_O 	O 	0.3724	0.6782	0.3699	-0.689
Mof_O 	O 	0.3135	0.6991	0.242	-0.711
Mof_O 	O 	0.315	0.7352	0.0616	-0.604
Mof_O 	O 	0.2556	0.4528	0.5564	-0.701
Mof_O 	O 	0.1283	0.4285	0.6087	-0.716
Mof_O 	O 	0.0567	0.3213	0.2301	-0.355
Mof_O 	O 	0.2169	0.5047	0.9312	-0.732
Mof_O 	O 	0.1785	0.38	0.869	-0.715
Mof_O 	O 	0.3699	0.3724	0.6782	-0.689
Mof_O 	O 	0.242	0.3135	0.6991	-0.711
Mof_O 	O 	0.0616	0.315	0.7352	-0.604
Mof_O 	O 	0.7444	0.4436	0.5472	-0.701
Mof_O 	O 	0.8717	0.3913	0.5715	-0.715
Mof_O 	O 	0.9433	0.7699	0.6787	-0.353
Mof_O 	O 	0.7831	0.0688	0.4953	-0.733
Mof_O 	O 	0.8215	0.131	0.62	-0.715
Mof_O 	O 	0.6301	0.3218	0.6276	-0.689
Mof_O 	O 	0.758	0.3009	0.6865	-0.711
Mof_O 	O 	0.9384	0.2648	0.685	-0.604
Mof_O 	O 	0.4436	0.5472	0.7444	-0.701
Mof_O 	O 	0.3913	0.5715	0.8717	-0.715
Mof_O 	O 	0.7699	0.6787	0.9433	-0.353
Mof_O 	O 	0.0688	0.4953	0.7831	-0.733
Mof_O 	O 	0.131	0.62	0.8215	-0.715
Mof_O 	O 	0.3218	0.6276	0.6301	-0.689
Mof_O 	O 	0.3009	0.6865	0.758	-0.711
Mof_O 	O 	0.2648	0.685	0.9384	-0.604
Mof_O 	O 	0.5472	0.7444	0.4436	-0.701
Mof_O 	O 	0.5715	0.8717	0.3913	-0.715
Mof_O 	O 	0.6787	0.9433	0.7699	-0.353
Mof_O 	O 	0.4953	0.7831	0.0688	-0.733
Mof_O 	O 	0.62	0.8215	0.131	-0.715
Mof_O 	O 	0.6276	0.6301	0.3218	-0.689
Mof_O 	O 	0.6865	0.758	0.3009	-0.711
Mof_O 	O 	0.685	0.9384	0.2648	-0.604
Mof_O 	O 	0.7482	0.2518	0.5	-1.413
Mof_O 	O 	0.5	0.7482	0.2518	-1.413
Mof_O 	O 	0.2518	0.5	0.7482	-1.413
Mof_O 	O 	0.56955	0.43045	-0	-0.334
Mof_O 	O 	2.97249e-18	0.56955	0.43045	-0.334
Mof_O 	O 	0.43045	0	0.56955	-0.334
_end
