data_functionalizedCrystal
_audit_creation_method	'EQeq! by Chris Wilmer'
_symmetry_space_group_name_H-M	'P1'
_symmetry_Int_Tables_number	1
_symmetry_cell_setting	triclinic
loop_
_symmetry_equiv_pos_as_xyz
  x,y,z
_cell_length_a	20.796
_cell_length_b	19.485
_cell_length_c	5.972
_cell_angle_alpha	90
_cell_angle_beta	114.096
_cell_angle_gamma	90
loop_
_atom_site_label
_atom_site_type_symbol
_atom_site_fract_x
_atom_site_fract_y
_atom_site_fract_z
_atom_site_charge
Mof_N 	N 	0.612	0.0402	0.151	-0.297
Mof_H 	H 	0.6281	0.0513	0.3107	0.076
Mof_H 	H 	0.6419	0.0108	0.1262	0.066
Mof_N 	N 	0.652	0.2011	0.88	-0.26
Mof_H 	H 	0.6187	0.2299	0.8875	0.083
Mof_H 	H 	0.6378	0.1862	0.7245	0.074
Mof_N 	N 	0.841	0.1961	0.61	-0.306
Mof_H 	H 	0.8767	0.2248	0.628	0.091
Mof_H 	H 	0.8501	0.1766	0.7565	0.086
Mof_N 	N 	0.9068	0.055	0.381	-0.266
Mof_H 	H 	0.8972	0.0719	0.2308	0.071
Mof_H 	H 	0.8715	0.0264	0.3692	0.069
Mof_C 	C 	0.5974	0.1003	0.993	0.102
Mof_H 	H 	0.5619	0.1283	0.0157	-0.059
Mof_H 	H 	0.5789	0.0859	0.823	-0.05
Mof_C 	C 	0.6632	0.1425	0.051	-0.147
Mof_H 	H 	0.6793	0.1599	0.2175	0.01
Mof_H 	H 	0.6999	0.1132	0.0434	0.024
Mof_C 	C 	0.8364	0.143	0.433	-0.009
Mof_H 	H 	0.8269	0.1624	0.2727	-0.029
Mof_H 	H 	0.8005	0.1094	0.4177	-0.011
Mof_C 	C 	0.9094	0.1124	0.548	-0.072
Mof_H 	H 	0.9448	0.1458	0.5559	0.029
Mof_H 	H 	0.9196	0.0958	0.7121	0.016
Mof_N 	N 	0.112	0.5402	0.151	-0.301
Mof_H 	H 	0.1281	0.5513	0.3107	0.085
Mof_H 	H 	0.1419	0.5108	0.1262	0.082
Mof_N 	N 	0.152	0.7011	0.88	-0.256
Mof_H 	H 	0.1187	0.7299	0.8875	0.079
Mof_H 	H 	0.1378	0.6862	0.7245	0.072
Mof_N 	N 	0.341	0.6961	0.61	-0.302
Mof_H 	H 	0.3767	0.7248	0.628	0.086
Mof_H 	H 	0.3501	0.6766	0.7565	0.083
Mof_N 	N 	0.4068	0.555	0.381	-0.288
Mof_H 	H 	0.3972	0.5719	0.2308	0.069
Mof_H 	H 	0.3715	0.5264	0.3692	0.078
Mof_C 	C 	0.0974	0.6003	0.993	0.112
Mof_H 	H 	0.0619	0.6283	0.0157	-0.069
Mof_H 	H 	0.0789	0.5859	0.823	-0.054
Mof_C 	C 	0.1632	0.6425	0.051	-0.154
Mof_H 	H 	0.1793	0.6599	0.2175	0.012
Mof_H 	H 	0.1999	0.6132	0.0434	0.03
Mof_C 	C 	0.3364	0.643	0.433	-0.021
Mof_H 	H 	0.3269	0.6624	0.2727	-0.026
Mof_H 	H 	0.3005	0.6094	0.4177	-0.004
Mof_C 	C 	0.4094	0.6124	0.548	-0.054
Mof_H 	H 	0.4448	0.6458	0.5559	0.008
Mof_H 	H 	0.4196	0.5958	0.7121	-0.002
Mof_N 	N 	0.388	0.0402	0.349	-0.268
Mof_H 	H 	0.3719	0.0513	0.1893	0.065
Mof_H 	H 	0.3581	0.0108	0.3738	0.066
Mof_N 	N 	0.348	0.2011	0.62	-0.292
Mof_H 	H 	0.3813	0.2299	0.6125	0.084
Mof_H 	H 	0.3622	0.1862	0.7755	0.085
Mof_N 	N 	0.159	0.1961	0.89	-0.269
Mof_H 	H 	0.1233	0.2248	0.872	0.08
Mof_H 	H 	0.1499	0.1766	0.7435	0.071
Mof_N 	N 	0.0932	0.055	0.119	-0.294
Mof_H 	H 	0.1028	0.0719	0.2692	0.072
Mof_H 	H 	0.1285	0.0264	0.1308	0.068
Mof_C 	C 	0.4026	0.1003	0.507	-0.051
Mof_H 	H 	0.4381	0.1283	0.4843	0.003
Mof_H 	H 	0.4211	0.0859	0.677	-0.004
Mof_C 	C 	0.3368	0.1425	0.449	-0.034
Mof_H 	H 	0.3207	0.1599	0.2825	-0.022
Mof_H 	H 	0.3001	0.1132	0.4566	-0.003
Mof_C 	C 	0.1636	0.143	0.067	-0.105
Mof_H 	H 	0.1731	0.1624	0.2273	-0.003
Mof_H 	H 	0.1995	0.1094	0.0823	0.013
Mof_C 	C 	0.0906	0.1124	0.952	0.029
Mof_H 	H 	0.0552	0.1458	0.9441	-0.017
Mof_H 	H 	0.0804	0.0958	0.7879	-0.032
Mof_N 	N 	0.888	0.5402	0.349	-0.263
Mof_H 	H 	0.8719	0.5513	0.1893	0.077
Mof_H 	H 	0.8581	0.5108	0.3738	0.083
Mof_N 	N 	0.848	0.7011	0.62	-0.295
Mof_H 	H 	0.8813	0.7299	0.6125	0.09
Mof_H 	H 	0.8622	0.6862	0.7755	0.09
Mof_N 	N 	0.659	0.6961	0.89	-0.271
Mof_H 	H 	0.6233	0.7248	0.872	0.084
Mof_H 	H 	0.6499	0.6766	0.7435	0.074
Mof_N 	N 	0.5932	0.555	0.119	-0.305
Mof_H 	H 	0.6028	0.5719	0.2692	0.077
Mof_H 	H 	0.6285	0.5264	0.1308	0.079
Mof_C 	C 	0.9026	0.6003	0.507	-0.058
Mof_H 	H 	0.9381	0.6283	0.4843	0.017
Mof_H 	H 	0.9211	0.5859	0.677	0.013
Mof_C 	C 	0.8368	0.6425	0.449	-0.028
Mof_H 	H 	0.8207	0.6599	0.2825	-0.022
Mof_H 	H 	0.8001	0.6132	0.4566	-0
Mof_C 	C 	0.6636	0.643	0.067	-0.107
Mof_H 	H 	0.6731	0.6624	0.2273	-0.002
Mof_H 	H 	0.6995	0.6094	0.0823	0.018
Mof_C 	C 	0.5906	0.6124	0.952	0.033
Mof_H 	H 	0.5552	0.6458	0.9441	-0.011
Mof_H 	H 	0.5804	0.5958	0.7879	-0.031
Mof_N 	N 	0.388	0.9598	0.849	-0.236
Mof_H 	H 	0.3719	0.9487	0.6893	0.088
Mof_H 	H 	0.3581	0.9892	0.8738	0.104
Mof_N 	N 	0.348	0.7989	0.12	-0.307
Mof_H 	H 	0.3813	0.7701	0.1125	0.076
Mof_H 	H 	0.3622	0.8138	0.2755	0.08
Mof_N 	N 	0.159	0.8039	0.39	-0.295
Mof_H 	H 	0.1233	0.7752	0.372	0.077
Mof_H 	H 	0.1499	0.8234	0.2435	0.072
Mof_N 	N 	0.0932	0.945	0.619	-0.282
Mof_H 	H 	0.1028	0.9281	0.7692	0.092
Mof_H 	H 	0.1285	0.9736	0.6308	0.101
Mof_C 	C 	0.4026	0.8997	0.007	-0.178
Mof_H 	H 	0.4381	0.8717	0.9843	0.062
Mof_H 	H 	0.4211	0.9141	0.177	0.036
Mof_C 	C 	0.3368	0.8575	0.949	0.061
Mof_H 	H 	0.3207	0.8401	0.7825	-0.044
Mof_H 	H 	0.3001	0.8868	0.9566	-0.012
Mof_C 	C 	0.1636	0.857	0.567	-0.039
Mof_H 	H 	0.1731	0.8376	0.7273	-0.011
Mof_H 	H 	0.1995	0.8906	0.5823	0.01
Mof_C 	C 	0.0906	0.8876	0.452	-0.037
Mof_H 	H 	0.0552	0.8542	0.4441	-0.002
Mof_H 	H 	0.0804	0.9042	0.2879	-0.005
Mof_N 	N 	0.888	0.4598	0.849	-0.233
Mof_H 	H 	0.8719	0.4487	0.6893	0.079
Mof_H 	H 	0.8581	0.4892	0.8738	0.087
Mof_N 	N 	0.848	0.2989	0.12	-0.309
Mof_H 	H 	0.8813	0.2701	0.1125	0.082
Mof_H 	H 	0.8622	0.3138	0.2755	0.083
Mof_N 	N 	0.659	0.3039	0.39	-0.296
Mof_H 	H 	0.6233	0.2752	0.372	0.08
Mof_H 	H 	0.6499	0.3234	0.2435	0.071
Mof_N 	N 	0.5932	0.445	0.619	-0.294
Mof_H 	H 	0.6028	0.4281	0.7692	0.083
Mof_H 	H 	0.6285	0.4736	0.6308	0.085
Mof_C 	C 	0.9026	0.3997	0.007	-0.185
Mof_H 	H 	0.9381	0.3717	0.9843	0.071
Mof_H 	H 	0.9211	0.4141	0.177	0.039
Mof_C 	C 	0.8368	0.3575	0.949	0.066
Mof_H 	H 	0.8207	0.3401	0.7825	-0.046
Mof_H 	H 	0.8001	0.3868	0.9566	-0.019
Mof_C 	C 	0.6636	0.357	0.567	-0.036
Mof_H 	H 	0.6731	0.3376	0.7273	-0.012
Mof_H 	H 	0.6995	0.3906	0.5823	0.004
Mof_C 	C 	0.5906	0.3876	0.452	-0.039
Mof_H 	H 	0.5552	0.3542	0.4441	0.002
Mof_H 	H 	0.5804	0.4042	0.2879	-0.015
Mof_N 	N 	0.612	0.9598	0.651	-0.274
Mof_H 	H 	0.6281	0.9487	0.8107	0.101
Mof_H 	H 	0.6419	0.9892	0.6262	0.104
Mof_N 	N 	0.652	0.7989	0.38	-0.286
Mof_H 	H 	0.6187	0.7701	0.3875	0.077
Mof_H 	H 	0.6378	0.8138	0.2245	0.072
Mof_N 	N 	0.841	0.8039	0.11	-0.317
Mof_H 	H 	0.8767	0.7752	0.128	0.087
Mof_H 	H 	0.8501	0.8234	0.2565	0.084
Mof_N 	N 	0.9068	0.945	0.881	-0.242
Mof_H 	H 	0.8972	0.9281	0.7308	0.089
Mof_H 	H 	0.8715	0.9736	0.8692	0.1
Mof_C 	C 	0.5974	0.8997	0.493	-0.028
Mof_H 	H 	0.5619	0.8717	0.5157	-0.002
Mof_H 	H 	0.5789	0.9141	0.323	-0.006
Mof_C 	C 	0.6632	0.8575	0.551	-0.055
Mof_H 	H 	0.6793	0.8401	0.7175	-0.006
Mof_H 	H 	0.6999	0.8868	0.5434	0.013
Mof_C 	C 	0.8364	0.857	0.933	0.058
Mof_H 	H 	0.8269	0.8376	0.7727	-0.042
Mof_H 	H 	0.8005	0.8906	0.9177	-0.014
Mof_C 	C 	0.9094	0.8876	0.048	-0.135
Mof_H 	H 	0.9448	0.8542	0.0559	0.043
Mof_H 	H 	0.9196	0.9042	0.2121	0.038
Mof_N 	N 	0.112	0.4598	0.651	-0.279
Mof_H 	H 	0.1281	0.4487	0.8107	0.088
Mof_H 	H 	0.1419	0.4892	0.6262	0.087
Mof_N 	N 	0.152	0.2989	0.38	-0.283
Mof_H 	H 	0.1187	0.2701	0.3875	0.072
Mof_H 	H 	0.1378	0.3138	0.2245	0.067
Mof_N 	N 	0.341	0.3039	0.11	-0.314
Mof_H 	H 	0.3767	0.2752	0.128	0.081
Mof_H 	H 	0.3501	0.3234	0.2565	0.077
Mof_N 	N 	0.4068	0.445	0.881	-0.264
Mof_H 	H 	0.3972	0.4281	0.7308	0.073
Mof_H 	H 	0.3715	0.4736	0.8692	0.083
Mof_C 	C 	0.0974	0.3997	0.493	-0.021
Mof_H 	H 	0.0619	0.3717	0.5157	-0.016
Mof_H 	H 	0.0789	0.4141	0.323	-0.023
Mof_C 	C 	0.1632	0.3575	0.551	-0.06
Mof_H 	H 	0.1793	0.3401	0.7175	-0.006
Mof_H 	H 	0.1999	0.3868	0.5434	0.01
Mof_C 	C 	0.3364	0.357	0.933	0.055
Mof_H 	H 	0.3269	0.3376	0.7727	-0.043
Mof_H 	H 	0.3005	0.3906	0.9177	-0.018
Mof_C 	C 	0.4094	0.3876	0.048	-0.127
Mof_H 	H 	0.4448	0.3542	0.0559	0.023
Mof_H 	H 	0.4196	0.4042	0.2121	0.01
Mof_Ag	Ag	0.5	0	-0	0.249
Mof_Ag	Ag	-0	0.5	-0	0.252
Mof_Ag	Ag	0.5	0	0.5	0.311
Mof_Ag	Ag	1.2866e-17	0.5	0.5	0.312
Mof_Ag	Ag	0.75	0.25	-0	0.332
Mof_Ag	Ag	0.25	0.25	0.5	0.394
Mof_Ag	Ag	0.25	0.75	-0	0.333
Mof_Ag	Ag	0.75	0.75	0.5	0.399
Mof_Ag	Ag	0.75	0.25	0.5	0.417
Mof_Ag	Ag	0.25	0.25	-0	0.35
Mof_Ag	Ag	0.25	0.75	0.5	0.418
Mof_Ag	Ag	0.75	0.75	-0	0.355
Mof_Ag	Ag	1.2866e-17	0	0.5	0.295
Mof_Ag	Ag	0.5	0.5	0.5	0.392
Mof_Ag	Ag	-0	0	-0	0.235
Mof_Ag	Ag	0.5	0.5	-0	0.326
_end
