# CIF file generated by openbabel 3.1.0, see https://openbabel.org
data_I
_chemical_name_common 'XAVDEF_clean_h'
_cell_length_a 14.4447
_cell_length_b 15.6609
_cell_length_c 20.4563
_cell_angle_alpha 90
_cell_angle_beta 90
_cell_angle_gamma 90
_space_group_name_H-M_alt 'P 1'
_space_group_name_Hall 'P 1'
loop_
    _symmetry_equiv_pos_as_xyz
    x,y,z
loop_
    _atom_site_label
    _atom_site_type_symbol
    _atom_site_fract_x
    _atom_site_fract_y
    _atom_site_fract_z
    _atom_site_occupancy
    V1       V        0.23600    0.74200    0.27950    1.000
    V2       V        0.73000    0.24600    0.39550    1.000
    V3       V        0.23500    0.74400    0.43200    1.000
    V4       V        0.76400    0.24200    0.72050    1.000
    V5       V        0.27000    0.74600    0.60450    1.000
    V6       V        0.76500    0.24400    0.56800    1.000
    V7       V        0.26400    0.74200    0.77950    1.000
    V8       V        0.77000    0.24600    0.89550    1.000
    V9       V        0.26500    0.74400    0.93200    1.000
    V10      V        0.73600    0.24200    0.22050    1.000
    V11      V        0.23000    0.74600    0.10450    1.000
    V12      V        0.73500    0.24400    0.06800    1.000
    C1       C        0.43570    0.56400    0.49490    1.000
    C2       C        0.46360    0.53620    0.55530    1.000
    C3       C        0.52790    0.47220    0.56040    1.000
    C4       C        0.47210    0.52780    0.43960    1.000
    C5       C        0.53640    0.46380    0.44470    1.000
    C6       C        0.56430    0.43600    0.50510    1.000
    C7       C        0.36530    0.63400    0.48940    1.000
    C8       C        0.63470    0.36600    0.51060    1.000
    C9       C        0.06360    0.56400    0.33600    1.000
    C10      C        0.02490    0.52510    0.39000    1.000
    C11      C        0.96130    0.46110    0.38200    1.000
    C12      C        0.03870    0.53890    0.27500    1.000
    C13      C        0.97510    0.47490    0.26700    1.000
    C14      C        0.93640    0.43600    0.32000    1.000
    C15      C        0.13320    0.63410    0.34600    1.000
    C16      C        0.86680    0.36590    0.31100    1.000
    C17      C        0.43540    0.56400    0.16400    1.000
    C18      C        0.46760    0.53220    0.22200    1.000
    C19      C        0.53220    0.46810    0.22200    1.000
    C20      C        0.46780    0.53190    0.10600    1.000
    C21      C        0.53240    0.46780    0.10600    1.000
    C22      C        0.56460    0.43600    0.16400    1.000
    C23      C        0.36460    0.63410    0.16400    1.000
    C24      C        0.63540    0.36590    0.16400    1.000
    C25      C        0.56430    0.06400    0.50510    1.000
    C26      C        0.53640    0.03620    0.44470    1.000
    C27      C        0.47210    0.97220    0.43960    1.000
    C28      C        0.52790    0.02780    0.56040    1.000
    C29      C        0.46360    0.96380    0.55530    1.000
    C30      C        0.43570    0.93600    0.49490    1.000
    C31      C        0.63470    0.13400    0.51060    1.000
    C32      C        0.36530    0.86600    0.48940    1.000
    C33      C        0.93640    0.06400    0.66400    1.000
    C34      C        0.97510    0.02510    0.61000    1.000
    C35      C        0.03870    0.96110    0.61800    1.000
    C36      C        0.96130    0.03890    0.72500    1.000
    C37      C        0.02490    0.97490    0.73300    1.000
    C38      C        0.06360    0.93600    0.68000    1.000
    C39      C        0.86680    0.13410    0.65400    1.000
    C40      C        0.13320    0.86590    0.68900    1.000
    C41      C        0.56460    0.06400    0.83600    1.000
    C42      C        0.53240    0.03220    0.77800    1.000
    C43      C        0.46780    0.96810    0.77800    1.000
    C44      C        0.53220    0.03190    0.89400    1.000
    C45      C        0.46760    0.96780    0.89400    1.000
    C46      C        0.43540    0.93600    0.83600    1.000
    C47      C        0.63540    0.13410    0.83600    1.000
    C48      C        0.36460    0.86590    0.83600    1.000
    C49      C        0.06430    0.56400    0.99490    1.000
    C50      C        0.03640    0.53620    0.05530    1.000
    C51      C        0.97210    0.47220    0.06040    1.000
    C52      C        0.02790    0.52780    0.93960    1.000
    C53      C        0.96360    0.46380    0.94470    1.000
    C54      C        0.93570    0.43600    0.00510    1.000
    C55      C        0.13470    0.63400    0.98940    1.000
    C56      C        0.86530    0.36600    0.01060    1.000
    C57      C        0.43640    0.56400    0.83600    1.000
    C58      C        0.47510    0.52510    0.89000    1.000
    C59      C        0.53870    0.46110    0.88200    1.000
    C60      C        0.46130    0.53890    0.77500    1.000
    C61      C        0.52490    0.47490    0.76700    1.000
    C62      C        0.56360    0.43600    0.82000    1.000
    C63      C        0.36680    0.63410    0.84600    1.000
    C64      C        0.63320    0.36590    0.81100    1.000
    C65      C        0.06460    0.56400    0.66400    1.000
    C66      C        0.03240    0.53220    0.72200    1.000
    C67      C        0.96780    0.46810    0.72200    1.000
    C68      C        0.03220    0.53190    0.60600    1.000
    C69      C        0.96760    0.46780    0.60600    1.000
    C70      C        0.93540    0.43600    0.66400    1.000
    C71      C        0.13540    0.63410    0.66400    1.000
    C72      C        0.86460    0.36590    0.66400    1.000
    C73      C        0.93570    0.06400    0.00510    1.000
    C74      C        0.96360    0.03620    0.94470    1.000
    C75      C        0.02790    0.97220    0.93960    1.000
    C76      C        0.97210    0.02780    0.06040    1.000
    C77      C        0.03640    0.96380    0.05530    1.000
    C78      C        0.06430    0.93600    0.99490    1.000
    C79      C        0.86530    0.13400    0.01060    1.000
    C80      C        0.13470    0.86600    0.98940    1.000
    C81      C        0.56360    0.06400    0.16400    1.000
    C82      C        0.52490    0.02510    0.11000    1.000
    C83      C        0.46130    0.96110    0.11800    1.000
    C84      C        0.53870    0.03890    0.22500    1.000
    C85      C        0.47510    0.97490    0.23300    1.000
    C86      C        0.43640    0.93600    0.18000    1.000
    C87      C        0.63320    0.13410    0.15400    1.000
    C88      C        0.36680    0.86590    0.18900    1.000
    C89      C        0.93540    0.06400    0.33600    1.000
    C90      C        0.96760    0.03220    0.27800    1.000
    C91      C        0.03220    0.96810    0.27800    1.000
    C92      C        0.96780    0.03190    0.39400    1.000
    C93      C        0.03240    0.96780    0.39400    1.000
    C94      C        0.06460    0.93600    0.33600    1.000
    C95      C        0.86460    0.13410    0.33600    1.000
    C96      C        0.13540    0.86590    0.33600    1.000
    O1       O        0.31000    0.72900    0.35500    1.000
    O2       O        0.76422    0.25813    0.46104    1.000
    O3       O        0.20300    0.75814    0.19173    1.000
    O4       O        0.33880    0.66040    0.43200    1.000
    O5       O        0.66920    0.33170    0.45800    1.000
    O6       O        0.33080    0.66830    0.54200    1.000
    O7       O        0.66120    0.33960    0.56800    1.000
    O8       O        0.16990    0.67100    0.29500    1.000
    O9       O        0.84310    0.34210    0.25200    1.000
    O10      O        0.15690    0.65790    0.40400    1.000
    O11      O        0.83010    0.32900    0.36200    1.000
    O12      O        0.33410    0.66440    0.10900    1.000
    O13      O        0.66620    0.33540    0.10900    1.000
    O14      O        0.33380    0.66460    0.21900    1.000
    O15      O        0.66590    0.33560    0.22000    1.000
    O16      O        0.69000    0.22900    0.64500    1.000
    O17      O        0.23578    0.75813    0.53896    1.000
    O18      O        0.79700    0.25814    0.80827    1.000
    O19      O        0.66120    0.16040    0.56800    1.000
    O20      O        0.33080    0.83170    0.54200    1.000
    O21      O        0.66920    0.16830    0.45800    1.000
    O22      O        0.33880    0.83960    0.43200    1.000
    O23      O        0.83010    0.17100    0.70500    1.000
    O24      O        0.15690    0.84210    0.74800    1.000
    O25      O        0.84310    0.15790    0.59600    1.000
    O26      O        0.16990    0.82900    0.63800    1.000
    O27      O        0.66590    0.16440    0.89100    1.000
    O28      O        0.33380    0.83540    0.89100    1.000
    O29      O        0.66620    0.16460    0.78100    1.000
    O30      O        0.33410    0.83560    0.78000    1.000
    O31      O        0.19000    0.72900    0.85500    1.000
    O32      O        0.73578    0.25813    0.96104    1.000
    O33      O        0.29700    0.75814    0.69173    1.000
    O34      O        0.16120    0.66040    0.93200    1.000
    O35      O        0.83080    0.33170    0.95800    1.000
    O36      O        0.16920    0.66830    0.04200    1.000
    O37      O        0.83880    0.33960    0.06800    1.000
    O38      O        0.33010    0.67100    0.79500    1.000
    O39      O        0.65690    0.34210    0.75200    1.000
    O40      O        0.34310    0.65790    0.90400    1.000
    O41      O        0.66990    0.32900    0.86200    1.000
    O42      O        0.16590    0.66440    0.60900    1.000
    O43      O        0.83380    0.33540    0.60900    1.000
    O44      O        0.16620    0.66460    0.71900    1.000
    O45      O        0.83410    0.33560    0.72000    1.000
    O46      O        0.81000    0.22900    0.14500    1.000
    O47      O        0.26422    0.75813    0.03896    1.000
    O48      O        0.70300    0.25814    0.30827    1.000
    O49      O        0.83880    0.16040    0.06800    1.000
    O50      O        0.16920    0.83170    0.04200    1.000
    O51      O        0.83080    0.16830    0.95800    1.000
    O52      O        0.16120    0.83960    0.93200    1.000
    O53      O        0.66990    0.17100    0.20500    1.000
    O54      O        0.34310    0.84210    0.24800    1.000
    O55      O        0.65690    0.15790    0.09600    1.000
    O56      O        0.33010    0.82900    0.13800    1.000
    O57      O        0.83410    0.16440    0.39100    1.000
    O58      O        0.16620    0.83540    0.39100    1.000
    O59      O        0.83380    0.16460    0.28100    1.000
    O60      O        0.16590    0.83560    0.28000    1.000
    H1       H        0.43332    0.56632    0.60131    1.000
    H2       H        0.55109    0.44909    0.61064    1.000
    H3       H        0.44890    0.55092    0.38936    1.000
    H4       H        0.56669    0.43367    0.39870    1.000
    H5       H        0.04588    0.54624    0.44123    1.000
    H6       H        0.92929    0.42892    0.42659    1.000
    H7       H        0.07072    0.57109    0.23042    1.000
    H8       H        0.95417    0.45380    0.21575    1.000
    H9       H        0.44070    0.55902    0.27020    1.000
    H10      H        0.55904    0.44142    0.27026    1.000
    H11      H        0.44101    0.55852    0.05771    1.000
    H12      H        0.55920    0.44108    0.05774    1.000
    H13      H        0.56668    0.06632    0.39869    1.000
    H14      H        0.44891    0.94909    0.38936    1.000
    H15      H        0.55110    0.05092    0.61064    1.000
    H16      H        0.43331    0.93367    0.60130    1.000
    H17      H        0.95412    0.04624    0.55877    1.000
    H18      H        0.07071    0.92892    0.57341    1.000
    H19      H        0.92928    0.07109    0.76958    1.000
    H20      H        0.04583    0.95380    0.78425    1.000
    H21      H        0.55930    0.05902    0.72980    1.000
    H22      H        0.44096    0.94142    0.72974    1.000
    H23      H        0.55899    0.05852    0.94229    1.000
    H24      H        0.44080    0.94108    0.94226    1.000
    H25      H        0.06668    0.56632    0.10131    1.000
    H26      H        0.94891    0.44909    0.11064    1.000
    H27      H        0.05110    0.55092    0.88936    1.000
    H28      H        0.93331    0.43367    0.89870    1.000
    H29      H        0.45412    0.54624    0.94123    1.000
    H30      H        0.57071    0.42892    0.92659    1.000
    H31      H        0.42928    0.57109    0.73042    1.000
    H32      H        0.54583    0.45380    0.71575    1.000
    H33      H        0.05930    0.55902    0.77020    1.000
    H34      H        0.94096    0.44142    0.77026    1.000
    H35      H        0.05899    0.55852    0.55771    1.000
    H36      H        0.94080    0.44108    0.55774    1.000
    H37      H        0.93332    0.06632    0.89869    1.000
    H38      H        0.05109    0.94909    0.88936    1.000
    H39      H        0.94890    0.05092    0.11064    1.000
    H40      H        0.06669    0.93367    0.10130    1.000
    H41      H        0.54588    0.04624    0.05877    1.000
    H42      H        0.42929    0.92892    0.07341    1.000
    H43      H        0.57072    0.07109    0.26958    1.000
    H44      H        0.45417    0.95380    0.28425    1.000
    H45      H        0.94070    0.05902    0.22980    1.000
    H46      H        0.05904    0.94142    0.22974    1.000
    H47      H        0.94101    0.05852    0.44229    1.000
    H48      H        0.05920    0.94108    0.44226    1.000
