data_functionalizedCrystal
_audit_creation_method	'EQeq! by Chris Wilmer'
_symmetry_space_group_name_H-M	'P1'
_symmetry_Int_Tables_number	1
_symmetry_cell_setting	triclinic
loop_
_symmetry_equiv_pos_as_xyz
  x,y,z
_cell_length_a	10.953
_cell_length_b	19.811
_cell_length_c	23.056
_cell_angle_alpha	90
_cell_angle_beta	90
_cell_angle_gamma	99.88
loop_
_atom_site_label
_atom_site_type_symbol
_atom_site_fract_x
_atom_site_fract_y
_atom_site_fract_z
_atom_site_charge
Mof_Pr	Pr	0.96065	0.09981	0.64615	1.971
Mof_Pr	Pr	0.14892	0.8523	0.85488	1.569
Mof_Pr	Pr	0.53935	0.40019	0.14615	1.98
Mof_Pr	Pr	0.35108	0.6477	0.35488	1.576
Mof_Pr	Pr	0.03935	0.90019	0.35385	1.972
Mof_Pr	Pr	0.85108	0.1477	0.14512	1.57
Mof_Pr	Pr	0.46065	0.59981	0.85385	1.981
Mof_Pr	Pr	0.64892	0.3523	0.64512	1.577
Mof_Cu	Cu	0.91006	0.10005	0.82258	0.875
Mof_Cu	Cu	0.19739	0.84747	0.6783	0.892
Mof_Cu	Cu	0.58994	0.39995	0.32258	0.876
Mof_Cu	Cu	0.30261	0.65253	0.1783	0.892
Mof_Cu	Cu	0.08994	0.89995	0.17742	0.875
Mof_Cu	Cu	0.80261	0.15253	0.3217	0.892
Mof_Cu	Cu	0.41006	0.60005	0.67742	0.876
Mof_Cu	Cu	0.69739	0.34747	0.8217	0.892
Mof_H 	H 	0.728	0.756	0.7942	0.021
Mof_H 	H 	0.6225	0.9417	0.6956	0.047
Mof_H 	H 	0.5821	0.959	0.4172	0.055
Mof_H 	H 	0.3911	0.1916	0.7005	0.032
Mof_H 	H 	0.4828	0.0072	0.8048	0.011
Mof_H 	H 	0.772	0.744	0.2942	0.02
Mof_H 	H 	0.8775	0.5583	0.1956	0.048
Mof_H 	H 	0.9179	0.541	0.9172	0.055
Mof_H 	H 	0.1089	0.3084	0.2005	0.032
Mof_H 	H 	0.0172	0.4928	0.3048	0.009
Mof_H 	H 	0.272	0.244	0.2058	0.021
Mof_H 	H 	0.3775	0.0583	0.3044	0.047
Mof_H 	H 	0.4179	0.041	0.5828	0.055
Mof_H 	H 	0.6089	0.8084	0.2995	0.032
Mof_H 	H 	0.5172	0.9928	0.1952	0.011
Mof_H 	H 	0.228	0.256	0.7058	0.02
Mof_H 	H 	0.1225	0.4417	0.8044	0.048
Mof_H 	H 	0.0821	0.459	0.0828	0.055
Mof_H 	H 	0.8911	0.6916	0.7995	0.032
Mof_H 	H 	0.9828	0.5072	0.6952	0.009
Mof_C 	C 	0.7482	0.9135	0.7508	-0.095
Mof_C 	C 	0.7808	0.8569	0.7802	-0.058
Mof_C 	C 	0.7077	0.7931	0.7739	0.007
Mof_C 	C 	0.6044	0.7833	0.7377	-0.118
Mof_C 	C 	0.5726	0.8397	0.7082	-0.042
Mof_C 	C 	0.6442	0.9043	0.715	-0.004
Mof_C 	C 	0.8169	0.9851	0.7602	0.443
Mof_C 	C 	0.9011	0.8624	0.8122	0.311
Mof_C 	C 	0.5358	0.7122	0.7289	0.419
Mof_C 	C 	0.4551	0.8342	0.6734	0.326
Mof_C 	C 	0.6268	0.9985	0.4963	-0.035
Mof_C 	C 	0.578	0.0236	0.5465	-0.079
Mof_C 	C 	0.5492	0.9754	0.4505	-0.005
Mof_C 	C 	0.7611	0.9918	0.4902	0.3
Mof_C 	C 	0.6584	0.0529	0.5958	0.381
Mof_C 	C 	0.5368	0.1085	0.7911	-0.064
Mof_C 	C 	0.5086	0.1641	0.7597	-0.083
Mof_C 	C 	0.4083	0.1547	0.722	-0.005
Mof_C 	C 	0.3332	0.0911	0.7159	-0.03
Mof_C 	C 	0.3611	0.0347	0.7471	-0.101
Mof_C 	C 	0.4635	0.0444	0.7843	0.02
Mof_C 	C 	0.6505	0.1118	0.8288	0.346
Mof_C 	C 	0.5779	0.2358	0.7692	0.395
Mof_C 	C 	0.2127	0.0858	0.683	0.308
Mof_C 	C 	0.2917	0.9636	0.7391	0.423
Mof_C 	C 	0.7518	0.5865	0.2508	-0.093
Mof_C 	C 	0.7192	0.6431	0.2802	-0.06
Mof_C 	C 	0.7923	0.7069	0.2739	0.009
Mof_C 	C 	0.8956	0.7167	0.2377	-0.12
Mof_C 	C 	0.9274	0.6603	0.2082	-0.039
Mof_C 	C 	0.8558	0.5957	0.215	-0.006
Mof_C 	C 	0.6831	0.5149	0.2602	0.438
Mof_C 	C 	0.5989	0.6376	0.3122	0.312
Mof_C 	C 	0.9642	0.7878	0.2289	0.422
Mof_C 	C 	0.0449	0.6658	0.1734	0.324
Mof_C 	C 	0.8732	0.5015	0.9963	-0.035
Mof_C 	C 	0.922	0.4764	0.0465	-0.079
Mof_C 	C 	0.9508	0.5246	0.9505	-0.005
Mof_C 	C 	0.7389	0.5082	0.9902	0.296
Mof_C 	C 	0.8416	0.4471	0.0958	0.381
Mof_C 	C 	0.9632	0.3915	0.2911	-0.065
Mof_C 	C 	0.9914	0.3359	0.2597	-0.084
Mof_C 	C 	0.0917	0.3453	0.222	-0.003
Mof_C 	C 	0.1668	0.4089	0.2159	-0.03
Mof_C 	C 	0.1389	0.4653	0.2471	-0.105
Mof_C 	C 	0.0365	0.4556	0.2843	0.022
Mof_C 	C 	0.8495	0.3882	0.3288	0.347
Mof_C 	C 	0.9221	0.2642	0.2692	0.395
Mof_C 	C 	0.2873	0.4142	0.183	0.308
Mof_C 	C 	0.2083	0.5364	0.2391	0.426
Mof_C 	C 	0.2518	0.0865	0.2492	-0.095
Mof_C 	C 	0.2192	0.1431	0.2198	-0.058
Mof_C 	C 	0.2923	0.2069	0.2261	0.007
Mof_C 	C 	0.3956	0.2167	0.2623	-0.118
Mof_C 	C 	0.4274	0.1603	0.2918	-0.042
Mof_C 	C 	0.3558	0.0957	0.285	-0.004
Mof_C 	C 	0.1831	0.0149	0.2398	0.443
Mof_C 	C 	0.0989	0.1376	0.1878	0.311
Mof_C 	C 	0.4642	0.2878	0.2711	0.419
Mof_C 	C 	0.5449	0.1658	0.3266	0.326
Mof_C 	C 	0.3732	0.0015	0.5037	-0.035
Mof_C 	C 	0.422	0.9764	0.4535	-0.079
Mof_C 	C 	0.4508	0.0246	0.5495	-0.005
Mof_C 	C 	0.2389	0.0082	0.5098	0.3
Mof_C 	C 	0.3416	0.9471	0.4042	0.381
Mof_C 	C 	0.4632	0.8915	0.2089	-0.064
Mof_C 	C 	0.4914	0.8359	0.2403	-0.083
Mof_C 	C 	0.5917	0.8453	0.278	-0.005
Mof_C 	C 	0.6668	0.9089	0.2841	-0.03
Mof_C 	C 	0.6389	0.9653	0.2529	-0.101
Mof_C 	C 	0.5365	0.9556	0.2157	0.02
Mof_C 	C 	0.3495	0.8882	0.1712	0.346
Mof_C 	C 	0.4221	0.7642	0.2308	0.395
Mof_C 	C 	0.7873	0.9142	0.317	0.308
Mof_C 	C 	0.7083	0.0364	0.2609	0.423
Mof_C 	C 	0.2482	0.4135	0.7492	-0.093
Mof_C 	C 	0.2808	0.3569	0.7198	-0.06
Mof_C 	C 	0.2077	0.2931	0.7261	0.009
Mof_C 	C 	0.1044	0.2833	0.7623	-0.12
Mof_C 	C 	0.0726	0.3397	0.7918	-0.039
Mof_C 	C 	0.1442	0.4043	0.785	-0.006
Mof_C 	C 	0.3169	0.4851	0.7398	0.438
Mof_C 	C 	0.4011	0.3624	0.6878	0.312
Mof_C 	C 	0.0358	0.2122	0.7711	0.422
Mof_C 	C 	0.9551	0.3342	0.8266	0.324
Mof_C 	C 	0.1268	0.4985	0.0037	-0.035
Mof_C 	C 	0.078	0.5236	0.9535	-0.079
Mof_C 	C 	0.0492	0.4754	0.0495	-0.005
Mof_C 	C 	0.2611	0.4918	0.0098	0.296
Mof_C 	C 	0.1584	0.5529	0.9042	0.381
Mof_C 	C 	0.0368	0.6085	0.7089	-0.065
Mof_C 	C 	0.0086	0.6641	0.7403	-0.084
Mof_C 	C 	0.9083	0.6547	0.778	-0.003
Mof_C 	C 	0.8332	0.5911	0.7841	-0.03
Mof_C 	C 	0.8611	0.5347	0.7529	-0.105
Mof_C 	C 	0.9635	0.5444	0.7157	0.022
Mof_C 	C 	0.1505	0.6118	0.6712	0.347
Mof_C 	C 	0.0779	0.7358	0.7308	0.395
Mof_C 	C 	0.7127	0.5858	0.817	0.308
Mof_C 	C 	0.7917	0.4636	0.7609	0.426
Mof_O 	O 	0.8538	0.02087	0.71738	-0.544
Mof_O 	O 	0.8275	0.00496	0.81243	-0.455
Mof_O 	O 	0.9945	0.90131	0.79128	-0.408
Mof_O 	O 	0.9091	0.8261	0.85591	-0.44
Mof_O 	O 	0.5271	0.67187	0.77101	-0.579
Mof_O 	O 	0.4943	0.69592	0.67878	-0.437
Mof_O 	O 	0.3561	0.81994	0.70242	-0.392
Mof_O 	O 	0.4622	0.8482	0.62111	-0.277
Mof_O 	O 	0.83	0.0377	0.46051	-0.298
Mof_O 	O 	0.798	0.9411	0.51187	-0.28
Mof_O 	O 	0.7741	0.059	0.5902	-0.533
Mof_O 	O 	0.6052	0.0704	0.6394	-0.317
Mof_O 	O 	0.7527	0.13188	0.80397	-0.397
Mof_O 	O 	0.6386	0.0916	0.8793	-0.326
Mof_O 	O 	0.6144	0.25179	0.82004	-0.425
Mof_O 	O 	0.5906	0.27667	0.72767	-0.522
Mof_O 	O 	0.2049	0.1214	0.63868	-0.429
Mof_O 	O 	0.1187	0.04757	0.70447	-0.424
Mof_O 	O 	0.2602	0.92823	0.78346	-0.536
Mof_O 	O 	0.2754	0.9428	0.68756	-0.419
Mof_O 	O 	0.6462	0.47913	0.21738	-0.542
Mof_O 	O 	0.6725	0.49504	0.31243	-0.452
Mof_O 	O 	0.5055	0.59869	0.29128	-0.41
Mof_O 	O 	0.5909	0.6739	0.35591	-0.441
Mof_O 	O 	0.9729	0.82813	0.27101	-0.577
Mof_O 	O 	0.0057	0.80408	0.17878	-0.44
Mof_O 	O 	0.1439	0.68006	0.20242	-0.392
Mof_O 	O 	0.0378	0.6518	0.12111	-0.277
Mof_O 	O 	0.67	0.4623	0.96051	-0.295
Mof_O 	O 	0.702	0.5589	0.01187	-0.28
Mof_O 	O 	0.7259	0.441	0.0902	-0.533
Mof_O 	O 	0.8948	0.4296	0.1394	-0.317
Mof_O 	O 	0.7473	0.36812	0.30397	-0.397
Mof_O 	O 	0.8614	0.4084	0.3793	-0.326
Mof_O 	O 	0.8856	0.24821	0.32004	-0.426
Mof_O 	O 	0.9094	0.22333	0.22767	-0.522
Mof_O 	O 	0.2951	0.3786	0.13868	-0.431
Mof_O 	O 	0.3813	0.45243	0.20447	-0.427
Mof_O 	O 	0.2398	0.57177	0.28346	-0.537
Mof_O 	O 	0.2246	0.5572	0.18756	-0.419
Mof_O 	O 	0.1462	0.97913	0.28262	-0.544
Mof_O 	O 	0.1725	0.99504	0.18757	-0.455
Mof_O 	O 	0.0055	0.09869	0.20872	-0.408
Mof_O 	O 	0.0909	0.1739	0.14409	-0.44
Mof_O 	O 	0.4729	0.32813	0.22899	-0.579
Mof_O 	O 	0.5057	0.30408	0.32122	-0.437
Mof_O 	O 	0.6439	0.18006	0.29758	-0.392
Mof_O 	O 	0.5378	0.1518	0.37889	-0.277
Mof_O 	O 	0.17	0.9623	0.53949	-0.298
Mof_O 	O 	0.202	0.0589	0.48813	-0.28
Mof_O 	O 	0.2259	0.941	0.4098	-0.533
Mof_O 	O 	0.3948	0.9296	0.3606	-0.317
Mof_O 	O 	0.2473	0.86812	0.19603	-0.397
Mof_O 	O 	0.3614	0.9084	0.1207	-0.326
Mof_O 	O 	0.3856	0.74821	0.17996	-0.425
Mof_O 	O 	0.4094	0.72333	0.27233	-0.522
Mof_O 	O 	0.7951	0.8786	0.36132	-0.429
Mof_O 	O 	0.8813	0.95243	0.29553	-0.424
Mof_O 	O 	0.7398	0.07177	0.21654	-0.536
Mof_O 	O 	0.7246	0.0572	0.31244	-0.419
Mof_O 	O 	0.3538	0.52087	0.78262	-0.542
Mof_O 	O 	0.3275	0.50496	0.68757	-0.452
Mof_O 	O 	0.4945	0.40131	0.70872	-0.41
Mof_O 	O 	0.4091	0.3261	0.64409	-0.441
Mof_O 	O 	0.0271	0.17187	0.72899	-0.577
Mof_O 	O 	0.9943	0.19592	0.82122	-0.44
Mof_O 	O 	0.8561	0.31994	0.79758	-0.392
Mof_O 	O 	0.9622	0.3482	0.87889	-0.277
Mof_O 	O 	0.33	0.5377	0.03949	-0.295
Mof_O 	O 	0.298	0.4411	0.98813	-0.28
Mof_O 	O 	0.2741	0.559	0.9098	-0.533
Mof_O 	O 	0.1052	0.5704	0.8606	-0.317
Mof_O 	O 	0.2527	0.63188	0.69603	-0.397
Mof_O 	O 	0.1386	0.5916	0.6207	-0.326
Mof_O 	O 	0.1144	0.75179	0.67996	-0.426
Mof_O 	O 	0.0906	0.77667	0.77233	-0.522
Mof_O 	O 	0.7049	0.6214	0.86132	-0.431
Mof_O 	O 	0.6187	0.54757	0.79553	-0.427
Mof_O 	O 	0.7602	0.42823	0.71654	-0.537
Mof_O 	O 	0.7754	0.4428	0.81244	-0.419
_end
