# CIF file generated by openbabel 3.1.0, see https://openbabel.org
data_I
_chemical_name_common 'image0'
_cell_length_a 9.5261
_cell_length_b 15.77
_cell_length_c 4.3128
_cell_angle_alpha 90
_cell_angle_beta 97.767
_cell_angle_gamma 90
_space_group_name_H-M_alt 'P 1'
_space_group_name_Hall 'P 1'
loop_
    _symmetry_equiv_pos_as_xyz
    x,y,z
loop_
    _atom_site_label
    _atom_site_type_symbol
    _atom_site_fract_x
    _atom_site_fract_y
    _atom_site_fract_z
    _atom_site_occupancy
    O1       O        0.40740    0.60000    0.96710    1.000
    O2       O        0.16050    0.84470    0.54850    1.000
    H1       H        0.74600    0.54400    0.06200    1.000
    N1       N        0.47220    0.73370    0.11710    1.000
    H2       H        0.53600    0.71500    0.26100    1.000
    N2       N        0.35580    0.85560    0.90860    1.000
    C1       C        0.38280    0.67880    0.93460    1.000
    C2       C        0.27400    0.71730    0.73540    1.000
    H3       H        0.20990    0.68350    0.60890    1.000
    C3       C        0.25850    0.80580    0.72070    1.000
    C4       C        0.45470    0.81750    0.09450    1.000
    H4       H        0.51830    0.85140    0.22210    1.000
    O3       O        0.90740    0.10000    0.96710    1.000
    O4       O        0.66050    0.34470    0.54850    1.000
    H5       H        0.24600    0.04400    0.06200    1.000
    N3       N        0.97220    0.23370    0.11710    1.000
    H6       H        0.03600    0.21500    0.26100    1.000
    N4       N        0.85580    0.35560    0.90860    1.000
    C5       C        0.88280    0.17880    0.93460    1.000
    C6       C        0.77400    0.21730    0.73540    1.000
    H7       H        0.70990    0.18350    0.60890    1.000
    C7       C        0.75850    0.30580    0.72070    1.000
    C8       C        0.95470    0.31750    0.09450    1.000
    H8       H        0.01830    0.35140    0.22210    1.000
    O5       O        0.40740    0.40000    0.96710    1.000
    O6       O        0.16050    0.15530    0.54850    1.000
    H9       H        0.74600    0.45600    0.06200    1.000
    N5       N        0.47220    0.26630    0.11710    1.000
    H10      H        0.53600    0.28500    0.26100    1.000
    N6       N        0.35580    0.14440    0.90860    1.000
    C9       C        0.38280    0.32120    0.93460    1.000
    C10      C        0.27400    0.28270    0.73540    1.000
    H11      H        0.20990    0.31650    0.60890    1.000
    C11      C        0.25850    0.19420    0.72070    1.000
    C12      C        0.45470    0.18250    0.09450    1.000
    H12      H        0.51830    0.14860    0.22210    1.000
    O7       O        0.90740    0.90000    0.96710    1.000
    O8       O        0.66050    0.65530    0.54850    1.000
    H13      H        0.24600    0.95600    0.06200    1.000
    N7       N        0.97220    0.76630    0.11710    1.000
    H14      H        0.03600    0.78500    0.26100    1.000
    N8       N        0.85580    0.64440    0.90860    1.000
    C13      C        0.88280    0.82120    0.93460    1.000
    C14      C        0.77400    0.78270    0.73540    1.000
    H15      H        0.70990    0.81650    0.60890    1.000
    C15      C        0.75850    0.69420    0.72070    1.000
    C16      C        0.95470    0.68250    0.09450    1.000
    H16      H        0.01830    0.64860    0.22210    1.000
    Ba1      Ba       0.50000    0.50000    0.50000    1.000
    O9       O        0.69450    0.50000    0.07030    1.000
    Ba2      Ba       0.00000    0.00000    0.50000    1.000
    O10      O        0.19450    0.00000    0.07030    1.000
