data_functionalizedCrystal
_audit_creation_method	'EQeq! by Chris Wilmer'
_symmetry_space_group_name_H-M	'P1'
_symmetry_Int_Tables_number	1
_symmetry_cell_setting	triclinic
loop_
_symmetry_equiv_pos_as_xyz
  x,y,z
_cell_length_a	26.3262
_cell_length_b	26.3262
_cell_length_c	7.044
_cell_angle_alpha	90
_cell_angle_beta	90
_cell_angle_gamma	120
loop_
_atom_site_label
_atom_site_type_symbol
_atom_site_fract_x
_atom_site_fract_y
_atom_site_fract_z
_atom_site_charge
Mof_Mn	Mn	0.3856	0.3609	0.142	0.922
Mof_O 	O 	0.3292	0.2945	0.3615	-0.46
Mof_O 	O 	0.3007	0.2278	0.5889	-0.416
Mof_O 	O 	0.3572	0.2768	0.0107	-0.445
Mof_C 	C 	0.3202	0.2457	0.4193	0.394
Mof_C 	C 	0.3288	0.2053	0.2876	-0.15
Mof_C 	C 	0.3453	0.2235	0.0898	0.178
Mof_C 	C 	0.3524	0.1832	0.979	-0.076
Mof_H 	H 	0.3609	0.1919	0.8388	0.061
Mof_Mn	Mn	0.05227	0.69423	0.47533	0.922
Mof_O 	O 	0.99587	0.62783	0.69483	-0.46
Mof_O 	O 	0.96737	0.56113	0.92223	-0.416
Mof_O 	O 	0.02387	0.61013	0.34403	-0.446
Mof_C 	C 	0.98687	0.57903	0.75263	0.393
Mof_C 	C 	0.99547	0.53863	0.62093	-0.151
Mof_C 	C 	0.01197	0.55683	0.42313	0.177
Mof_C 	C 	0.01907	0.51653	0.31233	-0.077
Mof_H 	H 	0.02757	0.52523	0.17213	0.06
Mof_Mn	Mn	0.71893	0.02757	0.80867	0.921
Mof_O 	O 	0.66253	0.96117	0.02817	-0.461
Mof_O 	O 	0.63403	0.89447	0.25557	-0.417
Mof_O 	O 	0.69053	0.94347	0.67737	-0.446
Mof_C 	C 	0.65353	0.91237	0.08597	0.393
Mof_C 	C 	0.66213	0.87197	0.95427	-0.151
Mof_C 	C 	0.67863	0.89017	0.75647	0.177
Mof_C 	C 	0.68573	0.84987	0.64567	-0.077
Mof_H 	H 	0.69423	0.85857	0.50547	0.06
Mof_Mn	Mn	0.6391	0.0247	0.142	0.921
Mof_O 	O 	0.7055	0.0347	0.3615	-0.461
Mof_O 	O 	0.7722	0.0729	0.5889	-0.417
Mof_O 	O 	0.7232	0.0804	0.0107	-0.446
Mof_C 	C 	0.7543	0.0745	0.4193	0.393
Mof_C 	C 	0.7947	0.1235	0.2876	-0.151
Mof_C 	C 	0.7765	0.1218	0.0898	0.176
Mof_C 	C 	0.8168	0.1692	0.979	-0.076
Mof_H 	H 	0.8081	0.169	0.8388	0.06
Mof_Mn	Mn	0.30577	0.35803	0.47533	0.921
Mof_O 	O 	0.37217	0.36803	0.69483	-0.461
Mof_O 	O 	0.43887	0.40623	0.92223	-0.417
Mof_O 	O 	0.38987	0.41373	0.34403	-0.446
Mof_C 	C 	0.42097	0.40783	0.75263	0.393
Mof_C 	C 	0.46137	0.45683	0.62093	-0.151
Mof_C 	C 	0.44317	0.45513	0.42313	0.177
Mof_C 	C 	0.48347	0.50253	0.31233	-0.077
Mof_H 	H 	0.47477	0.50233	0.17213	0.06
Mof_Mn	Mn	0.97243	0.69137	0.80867	0.921
Mof_O 	O 	0.03883	0.70137	0.02817	-0.461
Mof_O 	O 	0.10553	0.73957	0.25557	-0.417
Mof_O 	O 	0.05653	0.74707	0.67737	-0.446
Mof_C 	C 	0.08763	0.74117	0.08597	0.394
Mof_C 	C 	0.12803	0.79017	0.95427	-0.151
Mof_C 	C 	0.10983	0.78847	0.75647	0.177
Mof_C 	C 	0.15013	0.83587	0.64567	-0.077
Mof_H 	H 	0.14143	0.83567	0.50547	0.061
Mof_Mn	Mn	0.9753	0.6144	0.142	0.921
Mof_O 	O 	0.9653	0.6708	0.3615	-0.461
Mof_O 	O 	0.9271	0.6993	0.5889	-0.417
Mof_O 	O 	0.9196	0.6428	0.0107	-0.446
Mof_C 	C 	0.9255	0.6798	0.4193	0.393
Mof_C 	C 	0.8765	0.6712	0.2876	-0.151
Mof_C 	C 	0.8782	0.6547	0.0898	0.177
Mof_C 	C 	0.8308	0.6476	0.979	-0.077
Mof_H 	H 	0.831	0.6391	0.8388	0.06
Mof_Mn	Mn	0.64197	0.94773	0.47533	0.921
Mof_O 	O 	0.63197	0.00413	0.69483	-0.461
Mof_O 	O 	0.59377	0.03263	0.92223	-0.417
Mof_O 	O 	0.58627	0.97613	0.34403	-0.446
Mof_C 	C 	0.59217	0.01313	0.75263	0.393
Mof_C 	C 	0.54317	0.00453	0.62093	-0.151
Mof_C 	C 	0.54487	0.98803	0.42313	0.177
Mof_C 	C 	0.49747	0.98093	0.31233	-0.077
Mof_H 	H 	0.49767	0.97243	0.17213	0.06
Mof_Mn	Mn	0.30863	0.28107	0.80867	0.921
Mof_O 	O 	0.29863	0.33747	0.02817	-0.461
Mof_O 	O 	0.26043	0.36597	0.25557	-0.417
Mof_O 	O 	0.25293	0.30947	0.67737	-0.446
Mof_C 	C 	0.25883	0.34647	0.08597	0.393
Mof_C 	C 	0.20983	0.33787	0.95427	-0.151
Mof_C 	C 	0.21153	0.32137	0.75647	0.177
Mof_C 	C 	0.16413	0.31427	0.64567	-0.076
Mof_H 	H 	0.16433	0.30577	0.50547	0.06
Mof_Mn	Mn	0.6144	0.6391	0.858	0.921
Mof_O 	O 	0.6708	0.7055	0.6385	-0.461
Mof_O 	O 	0.6993	0.7722	0.4111	-0.417
Mof_O 	O 	0.6428	0.7232	0.9893	-0.446
Mof_C 	C 	0.6798	0.7543	0.5807	0.393
Mof_C 	C 	0.6712	0.7947	0.7124	-0.151
Mof_C 	C 	0.6547	0.7765	0.9102	0.177
Mof_C 	C 	0.6476	0.8168	0.021	-0.077
Mof_H 	H 	0.6391	0.8081	0.1612	0.06
Mof_Mn	Mn	0.28107	0.97243	0.19133	0.921
Mof_O 	O 	0.33747	0.03883	0.97183	-0.461
Mof_O 	O 	0.36597	0.10553	0.74443	-0.417
Mof_O 	O 	0.30947	0.05653	0.32263	-0.446
Mof_C 	C 	0.34647	0.08763	0.91403	0.393
Mof_C 	C 	0.33787	0.12803	0.04573	-0.151
Mof_C 	C 	0.32137	0.10983	0.24353	0.177
Mof_C 	C 	0.31427	0.15013	0.35433	-0.077
Mof_H 	H 	0.30577	0.14143	0.49453	0.06
Mof_Mn	Mn	0.94773	0.30577	0.52467	0.921
Mof_O 	O 	0.00413	0.37217	0.30517	-0.461
Mof_O 	O 	0.03263	0.43887	0.07777	-0.417
Mof_O 	O 	0.97613	0.38987	0.65597	-0.446
Mof_C 	C 	0.01313	0.42097	0.24737	0.393
Mof_C 	C 	0.00453	0.46137	0.37907	-0.151
Mof_C 	C 	0.98803	0.44317	0.57687	0.177
Mof_C 	C 	0.98093	0.48347	0.68767	-0.077
Mof_H 	H 	0.97243	0.47477	0.82787	0.06
Mof_Mn	Mn	0.3609	0.9753	0.858	0.921
Mof_O 	O 	0.2945	0.9653	0.6385	-0.461
Mof_O 	O 	0.2278	0.9271	0.4111	-0.417
Mof_O 	O 	0.2768	0.9196	0.9893	-0.446
Mof_C 	C 	0.2457	0.9255	0.5807	0.393
Mof_C 	C 	0.2053	0.8765	0.7124	-0.151
Mof_C 	C 	0.2235	0.8782	0.9102	0.176
Mof_C 	C 	0.1832	0.8308	0.021	-0.076
Mof_H 	H 	0.1919	0.831	0.1612	0.06
Mof_Mn	Mn	0.02757	0.30863	0.19133	0.921
Mof_O 	O 	0.96117	0.29863	0.97183	-0.461
Mof_O 	O 	0.89447	0.26043	0.74443	-0.417
Mof_O 	O 	0.94347	0.25293	0.32263	-0.446
Mof_C 	C 	0.91237	0.25883	0.91403	0.394
Mof_C 	C 	0.87197	0.20983	0.04573	-0.151
Mof_C 	C 	0.89017	0.21153	0.24353	0.177
Mof_C 	C 	0.84987	0.16413	0.35433	-0.077
Mof_H 	H 	0.85857	0.16433	0.49453	0.061
Mof_Mn	Mn	0.69423	0.64197	0.52467	0.921
Mof_O 	O 	0.62783	0.63197	0.30517	-0.461
Mof_O 	O 	0.56113	0.59377	0.07777	-0.417
Mof_O 	O 	0.61013	0.58627	0.65597	-0.446
Mof_C 	C 	0.57903	0.59217	0.24737	0.393
Mof_C 	C 	0.53863	0.54317	0.37907	-0.151
Mof_C 	C 	0.55683	0.54487	0.57687	0.177
Mof_C 	C 	0.51653	0.49747	0.68767	-0.077
Mof_H 	H 	0.52523	0.49767	0.82787	0.06
Mof_Mn	Mn	0.0247	0.3856	0.858	0.921
Mof_O 	O 	0.0347	0.3292	0.6385	-0.461
Mof_O 	O 	0.0729	0.3007	0.4111	-0.417
Mof_O 	O 	0.0804	0.3572	0.9893	-0.446
Mof_C 	C 	0.0745	0.3202	0.5807	0.393
Mof_C 	C 	0.1235	0.3288	0.7124	-0.151
Mof_C 	C 	0.1218	0.3453	0.9102	0.177
Mof_C 	C 	0.1692	0.3524	0.021	-0.077
Mof_H 	H 	0.169	0.3609	0.1612	0.06
Mof_Mn	Mn	0.69137	0.71893	0.19133	0.921
Mof_O 	O 	0.70137	0.66253	0.97183	-0.461
Mof_O 	O 	0.73957	0.63403	0.74443	-0.417
Mof_O 	O 	0.74707	0.69053	0.32263	-0.446
Mof_C 	C 	0.74117	0.65353	0.91403	0.393
Mof_C 	C 	0.79017	0.66213	0.04573	-0.151
Mof_C 	C 	0.78847	0.67863	0.24353	0.177
Mof_C 	C 	0.83587	0.68573	0.35433	-0.076
Mof_H 	H 	0.83567	0.69423	0.49453	0.06
Mof_Mn	Mn	0.35803	0.05227	0.52467	0.921
Mof_O 	O 	0.36803	0.99587	0.30517	-0.461
Mof_O 	O 	0.40623	0.96737	0.07777	-0.417
Mof_O 	O 	0.41373	0.02387	0.65597	-0.446
Mof_C 	C 	0.40783	0.98687	0.24737	0.393
Mof_C 	C 	0.45683	0.99547	0.37907	-0.151
Mof_C 	C 	0.45513	0.01197	0.57687	0.177
Mof_C 	C 	0.50253	0.01907	0.68767	-0.077
Mof_H 	H 	0.50233	0.02757	0.82787	0.06
_end
