# CIF file generated by openbabel 3.1.0, see https://openbabel.org
data_I
_chemical_name_common 'image0'
_cell_length_a 13.736
_cell_length_b 13.736
_cell_length_c 15.17
_cell_angle_alpha 90
_cell_angle_beta 90
_cell_angle_gamma 120
_space_group_name_H-M_alt 'P 1'
_space_group_name_Hall 'P 1'
loop_
    _symmetry_equiv_pos_as_xyz
    x,y,z
loop_
    _atom_site_label
    _atom_site_type_symbol
    _atom_site_fract_x
    _atom_site_fract_y
    _atom_site_fract_z
    _atom_site_occupancy
    Al1      Al       0.99687    0.22868    0.10029    1.000
    Si1      Si       0.22862    0.23197    0.10520    1.000
    O1       O        0.12340    0.24000    0.12820    1.000
    O2       O        0.32510    0.31370    0.16720    1.000
    O3       O        0.20200    0.10960    0.11950    1.000
    O4       O        0.26520    0.26920    0.00870    1.000
    P1       P        0.89864    0.33668    0.22813    1.000
    Al2      Al       0.66354    0.56201    0.43362    1.000
    Si2      Si       0.89529    0.56530    0.43853    1.000
    O5       O        0.79007    0.57333    0.46153    1.000
    O6       O        0.99177    0.64703    0.50053    1.000
    O7       O        0.86867    0.44293    0.45283    1.000
    O8       O        0.93187    0.60253    0.34203    1.000
    P2       P        0.56530    0.67002    0.56147    1.000
    Al3      Al       0.33020    0.89535    0.76696    1.000
    Si3      Si       0.56195    0.89864    0.77187    1.000
    O9       O        0.45673    0.90667    0.79487    1.000
    O10      O        0.65843    0.98037    0.83387    1.000
    O11      O        0.53533    0.77627    0.78617    1.000
    O12      O        0.59853    0.93587    0.67537    1.000
    P3       P        0.23197    0.00335    0.89480    1.000
    Al4      Al       0.77132    0.76819    0.10029    1.000
    Si4      Si       0.76803    0.99665    0.10520    1.000
    O13      O        0.76000    0.88340    0.12820    1.000
    O14      O        0.68630    0.01140    0.16720    1.000
    O15      O        0.89040    0.09240    0.11950    1.000
    O16      O        0.73080    0.99600    0.00870    1.000
    P4       P        0.66332    0.56195    0.22813    1.000
    Al5      Al       0.43799    0.10152    0.43362    1.000
    Si5      Si       0.43470    0.32998    0.43853    1.000
    O17      O        0.42667    0.21673    0.46153    1.000
    O18      O        0.35297    0.34473    0.50053    1.000
    O19      O        0.55707    0.42573    0.45283    1.000
    O20      O        0.39747    0.32933    0.34203    1.000
    P5       P        0.32998    0.89529    0.56147    1.000
    Al6      Al       0.10465    0.43486    0.76696    1.000
    Si6      Si       0.10136    0.66332    0.77187    1.000
    O21      O        0.09333    0.55007    0.79487    1.000
    O22      O        0.01963    0.67807    0.83387    1.000
    O23      O        0.22373    0.75907    0.78617    1.000
    O24      O        0.06413    0.66267    0.67537    1.000
    P6       P        0.99665    0.22862    0.89480    1.000
    Al7      Al       0.23181    0.00313    0.10029    1.000
    Si7      Si       0.00335    0.77138    0.10520    1.000
    O25      O        0.11660    0.87660    0.12820    1.000
    O26      O        0.98860    0.67490    0.16720    1.000
    O27      O        0.90760    0.79800    0.11950    1.000
    O28      O        0.00400    0.73480    0.00870    1.000
    P7       P        0.43805    0.10136    0.22813    1.000
    Al8      Al       0.89848    0.33646    0.43362    1.000
    Si8      Si       0.67002    0.10471    0.43853    1.000
    O29      O        0.78327    0.20993    0.46153    1.000
    O30      O        0.65527    0.00823    0.50053    1.000
    O31      O        0.57427    0.13133    0.45283    1.000
    O32      O        0.67067    0.06813    0.34203    1.000
    P8       P        0.10471    0.43470    0.56147    1.000
    Al9      Al       0.56514    0.66980    0.76696    1.000
    Si9      Si       0.33668    0.43805    0.77187    1.000
    O33      O        0.44993    0.54327    0.79487    1.000
    O34      O        0.32193    0.34157    0.83387    1.000
    O35      O        0.24093    0.46467    0.78617    1.000
    O36      O        0.33733    0.40147    0.67537    1.000
    P9       P        0.77138    0.76803    0.89480    1.000
    Al10     Al       0.00313    0.77132    0.89971    1.000
    O37      O        0.87660    0.76000    0.87180    1.000
    O38      O        0.67490    0.68630    0.83280    1.000
    O39      O        0.79800    0.89040    0.88050    1.000
    O40      O        0.73480    0.73080    0.99130    1.000
    Al11     Al       0.66980    0.10465    0.23304    1.000
    O41      O        0.54327    0.09333    0.20513    1.000
    O42      O        0.34157    0.01963    0.16613    1.000
    O43      O        0.46467    0.22373    0.21383    1.000
    O44      O        0.40147    0.06413    0.32463    1.000
    Al12     Al       0.33646    0.43799    0.56638    1.000
    O45      O        0.20993    0.42667    0.53847    1.000
    O46      O        0.00823    0.35297    0.49947    1.000
    O47      O        0.13133    0.55707    0.54717    1.000
    O48      O        0.06813    0.39747    0.65797    1.000
    Al13     Al       0.22868    0.23181    0.89971    1.000
    O49      O        0.24000    0.11660    0.87180    1.000
    O50      O        0.31370    0.98860    0.83280    1.000
    O51      O        0.10960    0.90760    0.88050    1.000
    O52      O        0.26920    0.00400    0.99130    1.000
    Al14     Al       0.89535    0.56514    0.23304    1.000
    O53      O        0.90667    0.44993    0.20513    1.000
    O54      O        0.98037    0.32193    0.16613    1.000
    O55      O        0.77627    0.24093    0.21383    1.000
    O56      O        0.93587    0.33733    0.32463    1.000
    Al15     Al       0.56201    0.89848    0.56638    1.000
    O57      O        0.57333    0.78327    0.53847    1.000
    O58      O        0.64703    0.65527    0.49947    1.000
    O59      O        0.44293    0.57427    0.54717    1.000
    O60      O        0.60253    0.67067    0.65797    1.000
    Al16     Al       0.76819    0.99687    0.89971    1.000
    O61      O        0.88340    0.12340    0.87180    1.000
    O62      O        0.01140    0.32510    0.83280    1.000
    O63      O        0.09240    0.20200    0.88050    1.000
    O64      O        0.99600    0.26520    0.99130    1.000
    Al17     Al       0.43486    0.33020    0.23304    1.000
    O65      O        0.55007    0.45673    0.20513    1.000
    O66      O        0.67807    0.65843    0.16613    1.000
    O67      O        0.75907    0.53533    0.21383    1.000
    O68      O        0.66267    0.59853    0.32463    1.000
    Al18     Al       0.10152    0.66354    0.56638    1.000
    O69      O        0.21673    0.79007    0.53847    1.000
    O70      O        0.34473    0.99177    0.49947    1.000
    O71      O        0.42573    0.86867    0.54717    1.000
    O72      O        0.32933    0.93187    0.65797    1.000
