data_functionalizedCrystal
_audit_creation_method	'EQeq! by Chris Wilmer'
_symmetry_space_group_name_H-M	'P1'
_symmetry_Int_Tables_number	1
_symmetry_cell_setting	triclinic
loop_
_symmetry_equiv_pos_as_xyz
  x,y,z
_cell_length_a	26.4013
_cell_length_b	26.4013
_cell_length_c	9.6662
_cell_angle_alpha	90
_cell_angle_beta	90
_cell_angle_gamma	120
loop_
_atom_site_label
_atom_site_type_symbol
_atom_site_fract_x
_atom_site_fract_y
_atom_site_fract_z
_atom_site_charge
Mof_C 	C 	0.3229	0.2512	0.8842	0.091
Mof_N 	N 	0.3313	0.2216	0.8135	-0.196
Mof_C 	C 	0.4535	0.1841	0.676	0.108
Mof_H 	H 	0.4332	0.1435	0.6806	-0.011
Mof_C 	C 	0.5131	0.2118	0.672	-0.165
Mof_H 	H 	0.5323	0.1904	0.6683	0.093
Mof_C 	C 	0.98957	0.58453	0.21753	0.046
Mof_N 	N 	0.99797	0.55493	0.14683	-0.188
Mof_C 	C 	0.12017	0.51743	0.00933	0.1
Mof_H 	H 	0.09987	0.47683	0.01393	-0.015
Mof_C 	C 	0.17977	0.54513	0.00533	-0.164
Mof_H 	H 	0.19897	0.52373	0.00163	0.09
Mof_C 	C 	0.65623	0.91787	0.55087	0.054
Mof_N 	N 	0.66463	0.88827	0.48017	-0.188
Mof_C 	C 	0.78683	0.85077	0.34267	0.1
Mof_H 	H 	0.76653	0.81017	0.34727	-0.009
Mof_C 	C 	0.84643	0.87847	0.33867	-0.154
Mof_H 	H 	0.86563	0.85707	0.33497	0.09
Mof_C 	C 	0.7488	0.0717	0.8842	0.09
Mof_N 	N 	0.7784	0.1097	0.8135	-0.197
Mof_C 	C 	0.8159	0.2694	0.676	0.106
Mof_H 	H 	0.8565	0.2897	0.6806	-0.01
Mof_C 	C 	0.7882	0.3013	0.672	-0.165
Mof_H 	H 	0.8096	0.3419	0.6683	0.094
Mof_C 	C 	0.41547	0.40503	0.21753	0.043
Mof_N 	N 	0.44507	0.44303	0.14683	-0.192
Mof_C 	C 	0.48257	0.60273	0.00933	0.1
Mof_H 	H 	0.52317	0.62303	0.01393	-0.015
Mof_C 	C 	0.45487	0.63463	0.00533	-0.164
Mof_H 	H 	0.47627	0.67523	0.00163	0.09
Mof_C 	C 	0.08213	0.73837	0.55087	0.051
Mof_N 	N 	0.11173	0.77637	0.48017	-0.189
Mof_C 	C 	0.14923	0.93607	0.34267	0.096
Mof_H 	H 	0.18983	0.95637	0.34727	-0.005
Mof_C 	C 	0.12153	0.96797	0.33867	-0.144
Mof_H 	H 	0.14293	0.00857	0.33497	0.079
Mof_C 	C 	0.9283	0.6771	0.8842	0.098
Mof_N 	N 	0.8903	0.6687	0.8135	-0.198
Mof_C 	C 	0.7306	0.5465	0.676	0.106
Mof_H 	H 	0.7103	0.5668	0.6806	-0.011
Mof_C 	C 	0.6987	0.4869	0.672	-0.165
Mof_H 	H 	0.6581	0.4677	0.6683	0.094
Mof_C 	C 	0.59497	0.01043	0.21753	0.041
Mof_N 	N 	0.55697	0.00203	0.14683	-0.193
Mof_C 	C 	0.39727	0.87983	0.00933	0.1
Mof_H 	H 	0.37697	0.90013	0.01393	-0.013
Mof_C 	C 	0.36537	0.82023	0.00533	-0.163
Mof_H 	H 	0.32477	0.80103	0.00163	0.09
Mof_C 	C 	0.26163	0.34377	0.55087	0.053
Mof_N 	N 	0.22363	0.33537	0.48017	-0.189
Mof_C 	C 	0.06393	0.21317	0.34267	0.119
Mof_H 	H 	0.04363	0.23347	0.34727	-0.018
Mof_C 	C 	0.03203	0.15357	0.33867	-0.192
Mof_H 	H 	0.99143	0.13437	0.33497	0.108
Mof_C 	C 	0.2512	0.3229	0.1158	0.054
Mof_N 	N 	0.2216	0.3313	0.1865	-0.194
Mof_C 	C 	0.1841	0.4535	0.324	0.108
Mof_H 	H 	0.1435	0.4332	0.3194	-0.012
Mof_C 	C 	0.2118	0.5131	0.328	-0.164
Mof_H 	H 	0.1904	0.5323	0.3317	0.097
Mof_C 	C 	0.91787	0.65623	0.44913	0.049
Mof_N 	N 	0.88827	0.66463	0.51983	-0.191
Mof_C 	C 	0.85077	0.78683	0.65733	0.105
Mof_H 	H 	0.81017	0.76653	0.65273	-0.008
Mof_C 	C 	0.87847	0.84643	0.66133	-0.154
Mof_H 	H 	0.85707	0.86563	0.66503	0.096
Mof_C 	C 	0.58453	0.98957	0.78247	0.059
Mof_N 	N 	0.55493	0.99797	0.85317	-0.169
Mof_C 	C 	0.51743	0.12017	0.99067	0.108
Mof_H 	H 	0.47683	0.09987	0.98607	-0.001
Mof_C 	C 	0.54513	0.17977	0.99467	-0.158
Mof_H 	H 	0.52373	0.19897	0.99837	0.099
Mof_C 	C 	0.0717	0.7488	0.1158	0.055
Mof_N 	N 	0.1097	0.7784	0.1865	-0.195
Mof_C 	C 	0.2694	0.8159	0.324	0.108
Mof_H 	H 	0.2897	0.8565	0.3194	-0.01
Mof_C 	C 	0.3013	0.7882	0.328	-0.163
Mof_H 	H 	0.3419	0.8096	0.3317	0.097
Mof_C 	C 	0.73837	0.08213	0.44913	0.046
Mof_N 	N 	0.77637	0.11173	0.51983	-0.192
Mof_C 	C 	0.93607	0.14923	0.65733	0.103
Mof_H 	H 	0.95637	0.18983	0.65273	-0.004
Mof_C 	C 	0.96797	0.12153	0.66133	-0.146
Mof_H 	H 	0.00857	0.14293	0.66503	0.088
Mof_C 	C 	0.40503	0.41547	0.78247	0.056
Mof_N 	N 	0.44303	0.44507	0.85317	-0.173
Mof_C 	C 	0.60273	0.48257	0.99067	0.108
Mof_H 	H 	0.62303	0.52317	0.98607	-0
Mof_C 	C 	0.63463	0.45487	0.99467	-0.159
Mof_H 	H 	0.67523	0.47627	0.99837	0.099
Mof_C 	C 	0.6771	0.9283	0.1158	0.063
Mof_N 	N 	0.6687	0.8903	0.1865	-0.196
Mof_C 	C 	0.5465	0.7306	0.324	0.108
Mof_H 	H 	0.5668	0.7103	0.3194	-0.011
Mof_C 	C 	0.4869	0.6987	0.328	-0.163
Mof_H 	H 	0.4677	0.6581	0.3317	0.097
Mof_C 	C 	0.34377	0.26163	0.44913	0.047
Mof_N 	N 	0.33537	0.22363	0.51983	-0.192
Mof_C 	C 	0.21317	0.06393	0.65733	0.124
Mof_H 	H 	0.23347	0.04363	0.65273	-0.017
Mof_C 	C 	0.15357	0.03203	0.66133	-0.192
Mof_H 	H 	0.13437	0.99143	0.66503	0.115
Mof_C 	C 	0.01043	0.59497	0.78247	0.054
Mof_N 	N 	0.00203	0.55697	0.85317	-0.174
Mof_C 	C 	0.87983	0.39727	0.99067	0.108
Mof_H 	H 	0.90013	0.37697	0.98607	0.001
Mof_C 	C 	0.82023	0.36537	0.99467	-0.158
Mof_H 	H 	0.80103	0.32477	0.99837	0.099
Mof_C 	C 	0.6771	0.7488	0.1158	0.054
Mof_N 	N 	0.6687	0.7784	0.1865	-0.194
Mof_C 	C 	0.5465	0.8159	0.324	0.108
Mof_H 	H 	0.5668	0.8565	0.3194	-0.01
Mof_C 	C 	0.4869	0.7882	0.328	-0.163
Mof_H 	H 	0.4677	0.8096	0.3317	0.097
Mof_C 	C 	0.34377	0.08213	0.44913	0.046
Mof_N 	N 	0.33537	0.11173	0.51983	-0.192
Mof_C 	C 	0.21317	0.14923	0.65733	0.116
Mof_H 	H 	0.23347	0.18983	0.65273	-0.011
Mof_C 	C 	0.15357	0.12153	0.66133	-0.173
Mof_H 	H 	0.13437	0.14293	0.66503	0.102
Mof_C 	C 	0.01043	0.41547	0.78247	0.054
Mof_N 	N 	0.00203	0.44507	0.85317	-0.174
Mof_C 	C 	0.87983	0.48257	0.99067	0.108
Mof_H 	H 	0.90013	0.52317	0.98607	0.001
Mof_C 	C 	0.82023	0.45487	0.99467	-0.158
Mof_H 	H 	0.80103	0.47627	0.99837	0.099
Mof_C 	C 	0.2512	0.9283	0.1158	0.063
Mof_N 	N 	0.2216	0.8903	0.1865	-0.196
Mof_C 	C 	0.1841	0.7306	0.324	0.108
Mof_H 	H 	0.1435	0.7103	0.3194	-0.012
Mof_C 	C 	0.2118	0.6987	0.328	-0.164
Mof_H 	H 	0.1904	0.6581	0.3317	0.097
Mof_C 	C 	0.91787	0.26163	0.44913	0.049
Mof_N 	N 	0.88827	0.22363	0.51983	-0.191
Mof_C 	C 	0.85077	0.06393	0.65733	0.12
Mof_H 	H 	0.81017	0.04363	0.65273	-0.015
Mof_C 	C 	0.87847	0.03203	0.66133	-0.183
Mof_H 	H 	0.85707	0.99143	0.66503	0.112
Mof_C 	C 	0.58453	0.59497	0.78247	0.056
Mof_N 	N 	0.55493	0.55697	0.85317	-0.173
Mof_C 	C 	0.51743	0.39727	0.99067	0.108
Mof_H 	H 	0.47683	0.37697	0.98607	-0
Mof_C 	C 	0.54513	0.36537	0.99467	-0.159
Mof_H 	H 	0.52373	0.32477	0.99837	0.099
Mof_C 	C 	0.0717	0.3229	0.1158	0.055
Mof_N 	N 	0.1097	0.3313	0.1865	-0.195
Mof_C 	C 	0.2694	0.4535	0.324	0.108
Mof_H 	H 	0.2897	0.4332	0.3194	-0.011
Mof_C 	C 	0.3013	0.5131	0.328	-0.164
Mof_H 	H 	0.3419	0.5323	0.3317	0.097
Mof_C 	C 	0.73837	0.65623	0.44913	0.048
Mof_N 	N 	0.77637	0.66463	0.51983	-0.192
Mof_C 	C 	0.93607	0.78683	0.65733	0.097
Mof_H 	H 	0.95637	0.76653	0.65273	-0.003
Mof_C 	C 	0.96797	0.84643	0.66133	-0.136
Mof_H 	H 	0.00857	0.86563	0.66503	0.085
Mof_C 	C 	0.40503	0.98957	0.78247	0.059
Mof_N 	N 	0.44303	0.99797	0.85317	-0.169
Mof_C 	C 	0.60273	0.12017	0.99067	0.108
Mof_H 	H 	0.62303	0.09987	0.98607	-0.001
Mof_C 	C 	0.63463	0.17977	0.99467	-0.158
Mof_H 	H 	0.67523	0.19897	0.99837	0.099
Mof_C 	C 	0.7488	0.6771	0.8842	0.09
Mof_N 	N 	0.7784	0.6687	0.8135	-0.196
Mof_C 	C 	0.8159	0.5465	0.676	0.106
Mof_H 	H 	0.8565	0.5668	0.6806	-0.01
Mof_C 	C 	0.7882	0.4869	0.672	-0.165
Mof_H 	H 	0.8096	0.4677	0.6683	0.094
Mof_C 	C 	0.41547	0.01043	0.21753	0.041
Mof_N 	N 	0.44507	0.00203	0.14683	-0.193
Mof_C 	C 	0.48257	0.87983	0.00933	0.1
Mof_H 	H 	0.52317	0.90013	0.01393	-0.013
Mof_C 	C 	0.45487	0.82023	0.00533	-0.163
Mof_H 	H 	0.47627	0.80103	0.00163	0.09
Mof_C 	C 	0.08213	0.34377	0.55087	0.051
Mof_N 	N 	0.11173	0.33537	0.48017	-0.189
Mof_C 	C 	0.14923	0.21317	0.34267	0.11
Mof_H 	H 	0.18983	0.23347	0.34727	-0.013
Mof_C 	C 	0.12153	0.15357	0.33867	-0.174
Mof_H 	H 	0.14293	0.13437	0.33497	0.095
Mof_C 	C 	0.9283	0.2512	0.8842	0.098
Mof_N 	N 	0.8903	0.2216	0.8135	-0.198
Mof_C 	C 	0.7306	0.1841	0.676	0.107
Mof_H 	H 	0.7103	0.1435	0.6806	-0.012
Mof_C 	C 	0.6987	0.2118	0.672	-0.165
Mof_H 	H 	0.6581	0.1904	0.6683	0.093
Mof_C 	C 	0.59497	0.58453	0.21753	0.043
Mof_N 	N 	0.55697	0.55493	0.14683	-0.192
Mof_C 	C 	0.39727	0.51743	0.00933	0.1
Mof_H 	H 	0.37697	0.47683	0.01393	-0.015
Mof_C 	C 	0.36537	0.54513	0.00533	-0.164
Mof_H 	H 	0.32477	0.52373	0.00163	0.09
Mof_C 	C 	0.26163	0.91787	0.55087	0.054
Mof_N 	N 	0.22363	0.88827	0.48017	-0.188
Mof_C 	C 	0.06393	0.85077	0.34267	0.113
Mof_H 	H 	0.04363	0.81017	0.34727	-0.016
Mof_C 	C 	0.03203	0.87847	0.33867	-0.182
Mof_H 	H 	0.99143	0.85707	0.33497	0.104
Mof_C 	C 	0.3229	0.0717	0.8842	0.091
Mof_N 	N 	0.3313	0.1097	0.8135	-0.197
Mof_C 	C 	0.4535	0.2694	0.676	0.106
Mof_H 	H 	0.4332	0.2897	0.6806	-0.011
Mof_C 	C 	0.5131	0.3013	0.672	-0.165
Mof_H 	H 	0.5323	0.3419	0.6683	0.094
Mof_C 	C 	0.98957	0.40503	0.21753	0.046
Mof_N 	N 	0.99797	0.44303	0.14683	-0.188
Mof_C 	C 	0.12017	0.60273	0.00933	0.1
Mof_H 	H 	0.09987	0.62303	0.01393	-0.015
Mof_C 	C 	0.17977	0.63463	0.00533	-0.164
Mof_H 	H 	0.19897	0.67523	0.00163	0.09
Mof_C 	C 	0.65623	0.73837	0.55087	0.053
Mof_N 	N 	0.66463	0.77637	0.48017	-0.189
Mof_C 	C 	0.78683	0.93607	0.34267	0.091
Mof_H 	H 	0.76653	0.95637	0.34727	-0.003
Mof_C 	C 	0.84643	0.96797	0.33867	-0.134
Mof_H 	H 	0.86563	0.00857	0.33497	0.077
Mof_Au	Au	0.29228	0.29228	-0	-0.025
Mof_Au	Au	0.95895	0.62561	0.33333	0.037
Mof_Au	Au	0.62561	0.95895	0.66667	0.067
Mof_Au	Au	0.70772	0	-0	-0.038
Mof_Au	Au	0.37439	0.33333	0.33333	0.03
Mof_Au	Au	0.04105	0.66667	0.66667	0.054
Mof_Au	Au	-7.79351e-17	0.70772	-0	-0.037
Mof_Au	Au	0.66667	0.04105	0.33333	0.024
Mof_Au	Au	0.33333	0.37439	0.66667	0.06
Mof_Au	Au	0.70772	0.70772	-0	-0.024
Mof_Au	Au	0.37439	0.04105	0.33333	0.024
Mof_Au	Au	0.04105	0.37439	0.66667	0.054
Mof_Au	Au	0.29228	0	-0	-0.039
Mof_Au	Au	0.95895	0.33333	0.33333	0.037
Mof_Au	Au	0.62561	0.66667	0.66667	0.059
Mof_Au	Au	-0	0.29228	-0	-0.038
Mof_Au	Au	0.66667	0.62561	0.33333	0.03
Mof_Au	Au	0.33333	0.95895	0.66667	0.068
Mof_Fe	Fe	0.33333	0.16667	0.66667	0.721
Mof_Fe	Fe	-0	0.5	-0	0.651
Mof_Fe	Fe	0.83333	0.16667	0.66667	0.722
Mof_Fe	Fe	0.5	0.5	-0	0.662
Mof_Fe	Fe	0.83333	0.66667	0.66667	0.722
Mof_Fe	Fe	0.5	0	-0	0.65
Mof_Fe	Fe	0.16667	0.33333	0.33333	0.717
Mof_Fe	Fe	0.16667	0.83333	0.33333	0.717
Mof_Fe	Fe	0.66667	0.83333	0.33333	0.718
Mof_N 	N 	0.4224	0.2112	0.673	-0.21
Mof_C 	C 	0.5444	0.2722	0.674	0.083
Mof_C 	C 	0.6087	0.30435	0.673	0.087
Mof_N 	N 	0.08907	0.54453	0.00633	-0.209
Mof_C 	C 	0.21107	0.60553	0.00733	0.079
Mof_C 	C 	0.27537	0.63768	0.00633	0.086
Mof_N 	N 	0.75573	0.87787	0.33967	-0.205
Mof_C 	C 	0.87773	0.93887	0.34067	0.068
Mof_C 	C 	0.94203	0.97102	0.33967	0.1
Mof_N 	N 	0.7888	0.2112	0.673	-0.209
Mof_C 	C 	0.7278	0.2722	0.674	0.083
Mof_C 	C 	0.69565	0.30435	0.673	0.087
Mof_N 	N 	0.45547	0.54453	0.00633	-0.209
Mof_C 	C 	0.39447	0.60553	0.00733	0.079
Mof_C 	C 	0.36232	0.63768	0.00633	0.086
Mof_N 	N 	0.12213	0.87787	0.33967	-0.209
Mof_C 	C 	0.06113	0.93887	0.34067	0.081
Mof_C 	C 	0.02898	0.97102	0.33967	0.088
Mof_N 	N 	0.7888	0.5776	0.673	-0.209
Mof_C 	C 	0.7278	0.4556	0.674	0.083
Mof_C 	C 	0.69565	0.3913	0.673	0.087
Mof_N 	N 	0.45547	0.91093	0.00633	-0.206
Mof_C 	C 	0.39447	0.78893	0.00733	0.079
Mof_C 	C 	0.36232	0.72463	0.00633	0.086
Mof_N 	N 	0.12213	0.24427	0.33967	-0.213
Mof_C 	C 	0.06113	0.12227	0.34067	0.095
Mof_C 	C 	0.02898	0.05797	0.33967	0.074
Mof_N 	N 	0.2112	0.4224	0.327	-0.21
Mof_C 	C 	0.2722	0.5444	0.326	0.086
Mof_C 	C 	0.30435	0.6087	0.327	0.092
Mof_N 	N 	0.87787	0.75573	0.66033	-0.206
Mof_C 	C 	0.93887	0.87773	0.65933	0.075
Mof_C 	C 	0.97102	0.94203	0.66033	0.105
Mof_N 	N 	0.54453	0.08907	0.99367	-0.194
Mof_C 	C 	0.60553	0.21107	0.99267	0.085
Mof_C 	C 	0.63768	0.27537	0.99367	0.094
Mof_N 	N 	0.2112	0.7888	0.327	-0.21
Mof_C 	C 	0.2722	0.7278	0.326	0.086
Mof_C 	C 	0.30435	0.69565	0.327	0.092
Mof_N 	N 	0.87787	0.12213	0.66033	-0.21
Mof_C 	C 	0.93887	0.06113	0.65933	0.089
Mof_C 	C 	0.97102	0.02898	0.66033	0.092
Mof_N 	N 	0.54453	0.45547	0.99367	-0.194
Mof_C 	C 	0.60553	0.39447	0.99267	0.086
Mof_C 	C 	0.63768	0.36232	0.99367	0.094
Mof_N 	N 	0.5776	0.7888	0.327	-0.209
Mof_C 	C 	0.4556	0.7278	0.326	0.086
Mof_C 	C 	0.3913	0.69565	0.327	0.092
Mof_N 	N 	0.24427	0.12213	0.66033	-0.213
Mof_C 	C 	0.12227	0.06113	0.65933	0.101
Mof_C 	C 	0.05797	0.02898	0.66033	0.079
Mof_N 	N 	0.91093	0.45547	0.99367	-0.191
Mof_C 	C 	0.78893	0.39447	0.99267	0.085
Mof_C 	C 	0.72463	0.36232	0.99367	0.094
Mof_N 	N 	0.6364	0.3636	0.67	-0.133
Mof_N 	N 	0.30307	0.69693	0.00333	-0.134
Mof_N 	N 	0.96973	0.03027	0.33667	-0.134
Mof_N 	N 	0.6364	0.2728	0.67	-0.133
Mof_N 	N 	0.30307	0.60613	0.00333	-0.134
Mof_N 	N 	0.96973	0.93947	0.33667	-0.131
Mof_N 	N 	0.7272	0.3636	0.67	-0.133
Mof_N 	N 	0.39387	0.69693	0.00333	-0.134
Mof_N 	N 	0.06053	0.03027	0.33667	-0.136
Mof_N 	N 	0.3636	0.6364	0.33	-0.131
Mof_N 	N 	0.03027	0.96973	0.66333	-0.129
Mof_N 	N 	0.69693	0.30307	0.99667	-0.13
Mof_N 	N 	0.2728	0.6364	0.33	-0.131
Mof_N 	N 	0.93947	0.96973	0.66333	-0.127
Mof_N 	N 	0.60613	0.30307	0.99667	-0.13
Mof_N 	N 	0.3636	0.7272	0.33	-0.13
Mof_N 	N 	0.03027	0.06053	0.66333	-0.132
Mof_N 	N 	0.69693	0.39387	0.99667	-0.13
_end
