# CIF file generated by openbabel 3.1.0, see https://openbabel.org
data_I
_chemical_name_common 'BOWQAG_clean'
_cell_length_a 6.7186
_cell_length_b 17.082
_cell_length_c 17.352
_cell_angle_alpha 90
_cell_angle_beta 98.77
_cell_angle_gamma 90
_space_group_name_H-M_alt 'P 1'
_space_group_name_Hall 'P 1'
loop_
    _symmetry_equiv_pos_as_xyz
    x,y,z
loop_
    _atom_site_label
    _atom_site_type_symbol
    _atom_site_fract_x
    _atom_site_fract_y
    _atom_site_fract_z
    _atom_site_occupancy
    Zn1      Zn       0.27804    0.51831    0.29612    1.000
    H2       H        0.64070    0.55040    0.21880    1.000
    H3       H        0.73480    0.54580    0.09700    1.000
    H4       H        0.18380    0.46110    0.01260    1.000
    H5       H        0.10030    0.46990    0.13600    1.000
    H6       H        0.50060    0.40180    0.40770    1.000
    H7       H        0.80720    0.39040    0.48780    1.000
    H8       H        0.90940    0.61950    0.44940    1.000
    H9       H        0.60200    0.62440    0.36910    1.000
    H10      H        0.59770    0.36430    0.16600    1.000
    H11      H        0.66690    0.24780    0.37190    1.000
    H12      H        0.35000    0.19060    0.33710    1.000
    H13      H        0.28440    0.30540    0.13030    1.000
    C14      C        0.54580    0.53264    0.17615    1.000
    C15      C        0.60330    0.52945    0.10358    1.000
    C16      C        0.47120    0.50252    0.03962    1.000
    C17      C        0.28030    0.48010    0.05408    1.000
    C18      C        0.23130    0.48541    0.12784    1.000
    C19      C        0.58660    0.44615    0.41528    1.000
    C20      C        0.76950    0.43908    0.46336    1.000
    C21      C        0.89880    0.50311    0.47605    1.000
    C22      C        0.82980    0.57347    0.44067    1.000
    C23      C        0.64570    0.57610    0.39294    1.000
    C24      C        0.85870    0.35007    0.29717    1.000
    C25      C        0.66310    0.31187    0.27274    1.000
    C26      C        0.54790    0.32879    0.20065    1.000
    C27      C        0.58870    0.25989    0.32301    1.000
    C28      C        0.09150    0.20307    0.20639    1.000
    C29      C        0.28650    0.24244    0.22985    1.000
    C30      C        0.40080    0.22555    0.30219    1.000
    C31      C        0.36150    0.29395    0.17959    1.000
    N32      N        0.36200    0.51188    0.18944    1.000
    N33      N        0.52550    0.51320    0.37879    1.000
    N34      N        0.09950    0.42917    0.30878    1.000
    N35      N        0.14450    0.37608    0.36381    1.000
    N36      N        0.99400    0.32474    0.35766    1.000
    N37      N        0.92050    0.41476    0.26520    1.000
    N38      N        0.85850    0.12003    0.19413    1.000
    N39      N        0.80370    0.17532    0.14189    1.000
    N40      N        0.94990    0.22891    0.14851    1.000
    N41      N        0.03920    0.13557    0.23589    1.000
    H42      H        0.03676    0.72907    0.61029    1.000
    H43      H        0.02704    0.71533    0.88176    1.000
    Zn44     Zn       0.72196    0.01831    0.20388    1.000
    H45      H        0.35930    0.05040    0.28120    1.000
    H46      H        0.26520    0.04580    0.40300    1.000
    H47      H        0.81620    0.96110    0.48740    1.000
    H48      H        0.89970    0.96990    0.36400    1.000
    H49      H        0.49940    0.90180    0.09230    1.000
    H50      H        0.19280    0.89040    0.01220    1.000
    H51      H        0.09060    0.11950    0.05060    1.000
    H52      H        0.39800    0.12440    0.13090    1.000
    H53      H        0.40230    0.86430    0.33400    1.000
    H54      H        0.33310    0.74780    0.12810    1.000
    H55      H        0.65000    0.69060    0.16290    1.000
    H56      H        0.71560    0.80540    0.36970    1.000
    C57      C        0.45420    0.03264    0.32385    1.000
    C58      C        0.39670    0.02945    0.39642    1.000
    C59      C        0.52880    0.00252    0.46038    1.000
    C60      C        0.71970    0.98010    0.44592    1.000
    C61      C        0.76870    0.98541    0.37216    1.000
    C62      C        0.41340    0.94615    0.08472    1.000
    C63      C        0.23050    0.93908    0.03664    1.000
    C64      C        0.10120    0.00311    0.02395    1.000
    C65      C        0.17020    0.07347    0.05933    1.000
    C66      C        0.35430    0.07610    0.10706    1.000
    C67      C        0.14130    0.85007    0.20283    1.000
    C68      C        0.33690    0.81187    0.22726    1.000
    C69      C        0.45210    0.82879    0.29935    1.000
    C70      C        0.41130    0.75989    0.17699    1.000
    C71      C        0.90850    0.70307    0.29361    1.000
    C72      C        0.71350    0.74244    0.27015    1.000
    C73      C        0.59920    0.72555    0.19781    1.000
    C74      C        0.63850    0.79395    0.32041    1.000
    N75      N        0.63800    0.01188    0.31056    1.000
    N76      N        0.47450    0.01320    0.12121    1.000
    N77      N        0.90050    0.92917    0.19122    1.000
    N78      N        0.85550    0.87608    0.13619    1.000
    N79      N        0.00600    0.82474    0.14234    1.000
    N80      N        0.07950    0.91476    0.23480    1.000
    N81      N        0.14150    0.62003    0.30587    1.000
    N82      N        0.19630    0.67532    0.35811    1.000
    N83      N        0.05010    0.72891    0.35149    1.000
    N84      N        0.96080    0.63557    0.26411    1.000
    H85      H        0.96324    0.22907    0.88971    1.000
    H86      H        0.97296    0.21533    0.61824    1.000
    Zn87     Zn       0.72196    0.48169    0.70388    1.000
    H88      H        0.35930    0.44960    0.78120    1.000
    H89      H        0.26520    0.45420    0.90300    1.000
    H90      H        0.81620    0.53890    0.98740    1.000
    H91      H        0.89970    0.53010    0.86400    1.000
    H92      H        0.49940    0.59820    0.59230    1.000
    H93      H        0.19280    0.60960    0.51220    1.000
    H94      H        0.09060    0.38050    0.55060    1.000
    H95      H        0.39800    0.37560    0.63090    1.000
    H96      H        0.40230    0.63570    0.83400    1.000
    H97      H        0.33310    0.75220    0.62810    1.000
    H98      H        0.65000    0.80940    0.66290    1.000
    H99      H        0.71560    0.69460    0.86970    1.000
    C100     C        0.45420    0.46736    0.82385    1.000
    C101     C        0.39670    0.47055    0.89642    1.000
    C102     C        0.52880    0.49748    0.96038    1.000
    C103     C        0.71970    0.51990    0.94592    1.000
    C104     C        0.76870    0.51459    0.87216    1.000
    C105     C        0.41340    0.55385    0.58472    1.000
    C106     C        0.23050    0.56092    0.53664    1.000
    C107     C        0.10120    0.49689    0.52395    1.000
    C108     C        0.17020    0.42653    0.55933    1.000
    C109     C        0.35430    0.42390    0.60706    1.000
    C110     C        0.14130    0.64993    0.70283    1.000
    C111     C        0.33690    0.68813    0.72726    1.000
    C112     C        0.45210    0.67121    0.79935    1.000
    C113     C        0.41130    0.74011    0.67699    1.000
    C114     C        0.90850    0.79693    0.79361    1.000
    C115     C        0.71350    0.75756    0.77015    1.000
    C116     C        0.59920    0.77445    0.69781    1.000
    C117     C        0.63850    0.70605    0.82041    1.000
    N118     N        0.63800    0.48812    0.81056    1.000
    N119     N        0.47450    0.48680    0.62121    1.000
    N120     N        0.90050    0.57083    0.69122    1.000
    N121     N        0.85550    0.62392    0.63619    1.000
    N122     N        0.00600    0.67526    0.64234    1.000
    N123     N        0.07950    0.58524    0.73480    1.000
    N124     N        0.14150    0.87997    0.80587    1.000
    N125     N        0.19630    0.82468    0.85811    1.000
    N126     N        0.05010    0.77109    0.85149    1.000
    N127     N        0.96080    0.86443    0.76411    1.000
    H128     H        0.96324    0.27093    0.38971    1.000
    H129     H        0.97296    0.28467    0.11824    1.000
    Zn130    Zn       0.27804    0.98169    0.79612    1.000
    H131     H        0.64070    0.94960    0.71880    1.000
    H132     H        0.73480    0.95420    0.59700    1.000
    H133     H        0.18380    0.03890    0.51260    1.000
    H134     H        0.10030    0.03010    0.63600    1.000
    H135     H        0.50060    0.09820    0.90770    1.000
    H136     H        0.80720    0.10960    0.98780    1.000
    H137     H        0.90940    0.88050    0.94940    1.000
    H138     H        0.60200    0.87560    0.86910    1.000
    H139     H        0.59770    0.13570    0.66600    1.000
    H140     H        0.66690    0.25220    0.87190    1.000
    H141     H        0.35000    0.30940    0.83710    1.000
    H142     H        0.28440    0.19460    0.63030    1.000
    C143     C        0.54580    0.96736    0.67615    1.000
    C144     C        0.60330    0.97055    0.60358    1.000
    C145     C        0.47120    0.99748    0.53962    1.000
    C146     C        0.28030    0.01990    0.55408    1.000
    C147     C        0.23130    0.01459    0.62784    1.000
    C148     C        0.58660    0.05385    0.91528    1.000
    C149     C        0.76950    0.06092    0.96336    1.000
    C150     C        0.89880    0.99689    0.97605    1.000
    C151     C        0.82980    0.92653    0.94067    1.000
    C152     C        0.64570    0.92390    0.89294    1.000
    C153     C        0.85870    0.14993    0.79717    1.000
    C154     C        0.66310    0.18813    0.77274    1.000
    C155     C        0.54790    0.17121    0.70065    1.000
    C156     C        0.58870    0.24011    0.82301    1.000
    C157     C        0.09150    0.29693    0.70639    1.000
    C158     C        0.28650    0.25756    0.72985    1.000
    C159     C        0.40080    0.27445    0.80219    1.000
    C160     C        0.36150    0.20605    0.67959    1.000
    N161     N        0.36200    0.98812    0.68944    1.000
    N162     N        0.52550    0.98680    0.87879    1.000
    N163     N        0.09950    0.07083    0.80878    1.000
    N164     N        0.14450    0.12392    0.86381    1.000
    N165     N        0.99400    0.17526    0.85766    1.000
    N166     N        0.92050    0.08524    0.76520    1.000
    N167     N        0.85850    0.37997    0.69413    1.000
    N168     N        0.80370    0.32468    0.64189    1.000
    N169     N        0.94990    0.27109    0.64851    1.000
    N170     N        0.03920    0.36443    0.73589    1.000
    H171     H        0.03676    0.77093    0.11029    1.000
    H172     H        0.02704    0.78467    0.38176    1.000
