data_functionalizedCrystal
_audit_creation_method	'EQeq! by Chris Wilmer'
_symmetry_space_group_name_H-M	'P1'
_symmetry_Int_Tables_number	1
_symmetry_cell_setting	triclinic
loop_
_symmetry_equiv_pos_as_xyz
  x,y,z
_cell_length_a	13.12
_cell_length_b	13.049
_cell_length_c	12.85
_cell_angle_alpha	90
_cell_angle_beta	105.7
_cell_angle_gamma	90
loop_
_atom_site_label
_atom_site_type_symbol
_atom_site_fract_x
_atom_site_fract_y
_atom_site_fract_z
_atom_site_charge
Mof_Er	Er	0.2662	0.0672	0.3232	2.58
Mof_O 	O 	0.218	0.019	0.957	-0.559
Mof_O 	O 	0.195	0.053	0.117	-0.506
Mof_O 	O 	0.0851	0.068	0.292	-0.63
Mof_O 	O 	0.418	0.084	0.257	-0.598
Mof_O 	O 	0.231	0.407	0.223	-0.722
Mof_O 	O 	0.253	0.242	0.262	-0.583
Mof_O 	O 	0.554	0.946	0.554	-0.559
Mof_O 	O 	0.317	0.188	0.494	-0.265
Mof_C 	C 	0.238	0.013	0.055	0.659
Mof_H 	H 	0.2946	0.9703	0.0873	-0.184
Mof_C 	C 	0.24	0.317	0.203	0.879
Mof_H 	H 	0.2369	0.3022	0.1315	-0.259
Mof_C 	C 	0.517	0.03	0.525	0.261
Mof_O 	O 	0.254	0.192	0.427	-0.634
Mof_H 	H 	0.1926	0.2541	0.439	-0.202
Mof_H 	H 	0.5476	0.084	0.5694	-0.042
Mof_Er	Er	0.7662	0.5672	0.3232	2.598
Mof_O 	O 	0.718	0.519	0.957	-0.581
Mof_O 	O 	0.695	0.553	0.117	-0.514
Mof_O 	O 	0.5851	0.568	0.292	-0.637
Mof_O 	O 	0.918	0.584	0.257	-0.577
Mof_O 	O 	0.731	0.907	0.223	-0.706
Mof_O 	O 	0.753	0.742	0.262	-0.579
Mof_O 	O 	0.054	0.446	0.554	-0.572
Mof_O 	O 	0.817	0.688	0.494	-0.258
Mof_C 	C 	0.738	0.513	0.055	0.718
Mof_H 	H 	0.7946	0.4703	0.0873	-0.213
Mof_C 	C 	0.74	0.817	0.203	0.878
Mof_H 	H 	0.7369	0.8022	0.1315	-0.251
Mof_C 	C 	0.017	0.53	0.525	-0.113
Mof_O 	O 	0.754	0.692	0.427	-0.635
Mof_H 	H 	0.6926	0.7541	0.439	-0.196
Mof_H 	H 	0.0476	0.584	0.5694	0.094
Mof_Er	Er	0.7338	0.0672	0.1768	2.566
Mof_O 	O 	0.782	0.019	0.543	-0.603
Mof_O 	O 	0.805	0.053	0.383	-0.512
Mof_O 	O 	0.9149	0.068	0.208	-0.612
Mof_O 	O 	0.582	0.084	0.243	-0.594
Mof_O 	O 	0.769	0.407	0.277	-0.715
Mof_O 	O 	0.747	0.242	0.238	-0.582
Mof_O 	O 	0.446	0.946	0.946	-0.569
Mof_O 	O 	0.683	0.188	0.006	-0.269
Mof_C 	C 	0.762	0.013	0.445	0.745
Mof_H 	H 	0.7054	0.9703	0.4127	-0.212
Mof_C 	C 	0.76	0.317	0.297	0.886
Mof_H 	H 	0.7631	0.3022	0.3685	-0.248
Mof_C 	C 	0.483	0.03	0.975	0.732
Mof_O 	O 	0.746	0.192	0.073	-0.594
Mof_H 	H 	0.8074	0.2541	0.061	-0.155
Mof_H 	H 	0.4524	0.084	0.9306	-0.212
Mof_Er	Er	0.2338	0.5672	0.1768	2.61
Mof_O 	O 	0.282	0.519	0.543	-0.609
Mof_O 	O 	0.305	0.553	0.383	-0.524
Mof_O 	O 	0.4149	0.568	0.208	-0.639
Mof_O 	O 	0.082	0.584	0.243	-0.594
Mof_O 	O 	0.269	0.907	0.277	-0.712
Mof_O 	O 	0.247	0.742	0.238	-0.586
Mof_O 	O 	0.946	0.446	0.946	-0.538
Mof_O 	O 	0.183	0.688	0.006	-0.274
Mof_C 	C 	0.262	0.513	0.445	0.767
Mof_H 	H 	0.2054	0.4703	0.4127	-0.227
Mof_C 	C 	0.26	0.817	0.297	0.882
Mof_H 	H 	0.2631	0.8022	0.3685	-0.251
Mof_C 	C 	0.983	0.53	0.975	1.299
Mof_O 	O 	0.246	0.692	0.073	-0.616
Mof_H 	H 	0.3074	0.7541	0.061	-0.179
Mof_H 	H 	0.9524	0.584	0.9306	-0.425
Mof_Er	Er	0.7338	0.9328	0.6768	2.616
Mof_O 	O 	0.782	0.981	0.043	-0.604
Mof_O 	O 	0.805	0.947	0.883	-0.515
Mof_O 	O 	0.9149	0.932	0.708	-0.604
Mof_O 	O 	0.582	0.916	0.743	-0.603
Mof_O 	O 	0.769	0.593	0.777	-0.71
Mof_O 	O 	0.747	0.758	0.738	-0.58
Mof_O 	O 	0.446	0.054	0.446	-0.562
Mof_O 	O 	0.683	0.812	0.506	-0.264
Mof_C 	C 	0.762	0.987	0.945	0.77
Mof_H 	H 	0.7054	0.0297	0.9127	-0.217
Mof_C 	C 	0.76	0.683	0.797	0.889
Mof_H 	H 	0.7631	0.6978	0.8685	-0.245
Mof_C 	C 	0.483	0.97	0.475	0.486
Mof_O 	O 	0.746	0.808	0.573	-0.634
Mof_H 	H 	0.8074	0.7459	0.561	-0.194
Mof_H 	H 	0.4524	0.916	0.4306	-0.126
Mof_Er	Er	0.2338	0.4328	0.6768	2.618
Mof_O 	O 	0.282	0.481	0.043	-0.636
Mof_O 	O 	0.305	0.447	0.883	-0.531
Mof_O 	O 	0.4149	0.432	0.708	-0.636
Mof_O 	O 	0.082	0.416	0.743	-0.594
Mof_O 	O 	0.269	0.093	0.777	-0.713
Mof_O 	O 	0.247	0.258	0.738	-0.582
Mof_O 	O 	0.946	0.554	0.446	-0.547
Mof_O 	O 	0.183	0.312	0.506	-0.27
Mof_C 	C 	0.262	0.487	0.945	0.813
Mof_H 	H 	0.2054	0.5297	0.9127	-0.238
Mof_C 	C 	0.26	0.183	0.797	0.883
Mof_H 	H 	0.2631	0.1978	0.8685	-0.246
Mof_C 	C 	0.983	0.47	0.475	0.858
Mof_O 	O 	0.246	0.308	0.573	-0.637
Mof_H 	H 	0.3074	0.2459	0.561	-0.2
Mof_H 	H 	0.9524	0.416	0.4306	-0.262
Mof_Er	Er	0.2662	0.9328	0.8232	2.583
Mof_O 	O 	0.218	0.981	0.457	-0.605
Mof_O 	O 	0.195	0.947	0.617	-0.525
Mof_O 	O 	0.0851	0.932	0.792	-0.626
Mof_O 	O 	0.418	0.916	0.757	-0.601
Mof_O 	O 	0.231	0.593	0.723	-0.72
Mof_O 	O 	0.253	0.758	0.762	-0.581
Mof_O 	O 	0.554	0.054	0.054	-0.594
Mof_O 	O 	0.317	0.812	0.994	-0.235
Mof_C 	C 	0.238	0.987	0.555	0.768
Mof_H 	H 	0.2946	0.0297	0.5873	-0.226
Mof_C 	C 	0.24	0.683	0.703	0.882
Mof_H 	H 	0.2369	0.6978	0.6315	-0.253
Mof_C 	C 	0.517	0.97	0.025	0.057
Mof_O 	O 	0.254	0.808	0.927	-0.625
Mof_H 	H 	0.1926	0.7459	0.939	-0.157
Mof_H 	H 	0.5476	0.916	0.0694	0.036
Mof_Er	Er	0.7662	0.4328	0.8232	2.581
Mof_O 	O 	0.718	0.481	0.457	-0.607
Mof_O 	O 	0.695	0.447	0.617	-0.52
Mof_O 	O 	0.5851	0.432	0.792	-0.633
Mof_O 	O 	0.918	0.416	0.757	-0.575
Mof_O 	O 	0.731	0.093	0.723	-0.718
Mof_O 	O 	0.753	0.258	0.762	-0.58
Mof_O 	O 	0.054	0.554	0.054	-0.581
Mof_O 	O 	0.817	0.312	0.994	-0.204
Mof_C 	C 	0.738	0.487	0.555	0.761
Mof_H 	H 	0.7946	0.5297	0.5873	-0.219
Mof_C 	C 	0.74	0.183	0.703	0.886
Mof_H 	H 	0.7369	0.1978	0.6315	-0.251
Mof_C 	C 	0.017	0.47	0.025	-0.557
Mof_O 	O 	0.754	0.308	0.927	-0.615
Mof_H 	H 	0.6926	0.2459	0.939	-0.116
Mof_H 	H 	0.0476	0.416	0.0694	0.256
Mof_C 	C 	1.16649e-33	0.107	0.25	0.829
Mof_H 	H 	-1.34199e-17	0.1784	0.25	-0.242
Mof_C 	C 	0.5	0.607	0.25	0.877
Mof_H 	H 	0.5	0.6784	0.25	-0.249
Mof_C 	C 	3.49946e-33	0.893	0.75	0.827
Mof_H 	H 	-2.68398e-17	0.8216	0.75	-0.237
Mof_C 	C 	0.5	0.393	0.75	0.877
Mof_H 	H 	0.5	0.3216	0.75	-0.246
Mof_C 	C 	0.5	0.045	0.25	0.79
Mof_H 	H 	0.5	0.9732	0.25	-0.217
Mof_C 	C 	1.16649e-33	0.545	0.25	0.774
Mof_H 	H 	-1.34199e-17	0.4732	0.25	-0.228
Mof_C 	C 	0.5	0.955	0.75	0.821
Mof_H 	H 	0.5	0.0268	0.75	-0.233
Mof_C 	C 	3.49946e-33	0.455	0.75	0.776
Mof_H 	H 	3.49946e-33	0.5268	0.75	-0.228
Mof_C 	C 	0.25	0.25	0.5	1.308
Mof_C 	C 	0.75	0.25	-0	1.104
Mof_C 	C 	0.75	0.75	0.5	1.297
Mof_C 	C 	0.25	0.75	-0	1.203
_end
