data_functionalizedCrystal
_audit_creation_method	'EQeq! by Chris Wilmer'
_symmetry_space_group_name_H-M	'P1'
_symmetry_Int_Tables_number	1
_symmetry_cell_setting	triclinic
loop_
_symmetry_equiv_pos_as_xyz
  x,y,z
_cell_length_a	21.9828
_cell_length_b	29.985
_cell_length_c	10.4146
_cell_angle_alpha	90
_cell_angle_beta	90
_cell_angle_gamma	90
loop_
_atom_site_label
_atom_site_type_symbol
_atom_site_fract_x
_atom_site_fract_y
_atom_site_fract_z
_atom_site_charge
Mof_C 	C 	0.42087	0.5593	0.0603	0.416
Mof_C 	C 	0.38062	0.59777	0.0981	-0.151
Mof_C 	C 	0.35845	0.60086	0.2222	0.074
Mof_H 	H 	0.3673	0.5785	0.2813	0.013
Mof_C 	C 	0.32321	0.63693	0.2589	-0.146
Mof_H 	H 	0.308	0.6384	0.3421	0.084
Mof_C 	C 	0.31044	0.67079	0.1731	0.081
Mof_C 	C 	0.36687	0.63114	0.0113	0.073
Mof_H 	H 	0.3806	0.6291	0.927	0.015
Mof_C 	C 	0.33271	0.66773	0.0494	-0.141
Mof_H 	H 	0.3247	0.6905	0.991	0.082
Mof_C 	C 	0.27668	0.71142	0.2134	0.015
Mof_O 	O 	0.43605	0.53263	0.14636	-0.489
Mof_O 	O 	0.43666	0.5573	0.94432	-0.483
Mof_C 	C 	0.92087	0.0593	0.5603	0.41
Mof_C 	C 	0.88062	0.09777	0.5981	-0.129
Mof_C 	C 	0.85845	0.10086	0.7222	0.07
Mof_H 	H 	0.8673	0.0785	0.7813	0.027
Mof_C 	C 	0.82321	0.13693	0.7589	-0.133
Mof_H 	H 	0.808	0.1384	0.8421	0.086
Mof_C 	C 	0.81044	0.17079	0.6731	0.081
Mof_C 	C 	0.86687	0.13114	0.5113	0.068
Mof_H 	H 	0.8806	0.1291	0.427	0.031
Mof_C 	C 	0.83271	0.16773	0.5494	-0.128
Mof_H 	H 	0.8247	0.1905	0.491	0.088
Mof_C 	C 	0.77668	0.21142	0.7134	0.021
Mof_O 	O 	0.93605	0.03263	0.64636	-0.445
Mof_O 	O 	0.93666	0.0573	0.44432	-0.439
Mof_C 	C 	0.57913	0.9407	0.0603	0.418
Mof_C 	C 	0.61938	0.90223	0.0981	-0.15
Mof_C 	C 	0.64155	0.89914	0.2222	0.077
Mof_H 	H 	0.6327	0.9215	0.2813	0.014
Mof_C 	C 	0.67679	0.86307	0.2589	-0.147
Mof_H 	H 	0.692	0.8616	0.3421	0.085
Mof_C 	C 	0.68956	0.82921	0.1731	0.084
Mof_C 	C 	0.63313	0.86886	0.0113	0.076
Mof_H 	H 	0.6194	0.8709	0.927	0.016
Mof_C 	C 	0.66729	0.83227	0.0494	-0.141
Mof_H 	H 	0.6753	0.8095	0.991	0.086
Mof_C 	C 	0.72332	0.78858	0.2134	0.015
Mof_O 	O 	0.56395	0.96737	0.14636	-0.488
Mof_O 	O 	0.56334	0.9427	0.94432	-0.482
Mof_C 	C 	0.07913	0.4407	0.5603	0.418
Mof_C 	C 	0.11938	0.40223	0.5981	-0.167
Mof_C 	C 	0.14155	0.39914	0.7222	0.079
Mof_H 	H 	0.1327	0.4215	0.7813	0.003
Mof_C 	C 	0.17679	0.36307	0.7589	-0.157
Mof_H 	H 	0.192	0.3616	0.8421	0.082
Mof_C 	C 	0.18956	0.32921	0.6731	0.084
Mof_C 	C 	0.13313	0.36886	0.5113	0.077
Mof_H 	H 	0.1194	0.3709	0.427	0.002
Mof_C 	C 	0.16729	0.33227	0.5494	-0.153
Mof_H 	H 	0.1753	0.3095	0.491	0.082
Mof_C 	C 	0.22332	0.28858	0.7134	0.01
Mof_O 	O 	0.06395	0.46737	0.64636	-0.515
Mof_O 	O 	0.06334	0.4427	0.44432	-0.509
Mof_C 	C 	0.57913	0.0593	0.9397	0.418
Mof_C 	C 	0.61938	0.09777	0.9019	-0.15
Mof_C 	C 	0.64155	0.10086	0.7778	0.077
Mof_H 	H 	0.6327	0.0785	0.7187	0.014
Mof_C 	C 	0.67679	0.13693	0.7411	-0.147
Mof_H 	H 	0.692	0.1384	0.6579	0.085
Mof_C 	C 	0.68956	0.17079	0.8269	0.084
Mof_C 	C 	0.63313	0.13114	0.9887	0.076
Mof_H 	H 	0.6194	0.1291	0.073	0.016
Mof_C 	C 	0.66729	0.16773	0.9506	-0.141
Mof_H 	H 	0.6753	0.1905	0.009	0.086
Mof_C 	C 	0.72332	0.21142	0.7866	0.015
Mof_O 	O 	0.56395	0.03263	0.85364	-0.488
Mof_O 	O 	0.56334	0.0573	0.05568	-0.482
Mof_C 	C 	0.07913	0.5593	0.4397	0.418
Mof_C 	C 	0.11938	0.59777	0.4019	-0.167
Mof_C 	C 	0.14155	0.60086	0.2778	0.079
Mof_H 	H 	0.1327	0.5785	0.2187	0.003
Mof_C 	C 	0.17679	0.63693	0.2411	-0.157
Mof_H 	H 	0.192	0.6384	0.1579	0.082
Mof_C 	C 	0.18956	0.67079	0.3269	0.084
Mof_C 	C 	0.13313	0.63114	0.4887	0.077
Mof_H 	H 	0.1194	0.6291	0.573	0.002
Mof_C 	C 	0.16729	0.66773	0.4506	-0.153
Mof_H 	H 	0.1753	0.6905	0.509	0.082
Mof_C 	C 	0.22332	0.71142	0.2866	0.01
Mof_O 	O 	0.06395	0.53263	0.35364	-0.515
Mof_O 	O 	0.06334	0.5573	0.55568	-0.509
Mof_C 	C 	0.42087	0.4407	0.9397	0.417
Mof_C 	C 	0.38062	0.40223	0.9019	-0.15
Mof_C 	C 	0.35845	0.39914	0.7778	0.075
Mof_H 	H 	0.3673	0.4215	0.7187	0.014
Mof_C 	C 	0.32321	0.36307	0.7411	-0.146
Mof_H 	H 	0.308	0.3616	0.6579	0.084
Mof_C 	C 	0.31044	0.32921	0.8269	0.081
Mof_C 	C 	0.36687	0.36886	0.9887	0.073
Mof_H 	H 	0.3806	0.3709	0.073	0.015
Mof_C 	C 	0.33271	0.33227	0.9506	-0.141
Mof_H 	H 	0.3247	0.3095	0.009	0.082
Mof_C 	C 	0.27668	0.28858	0.7866	0.015
Mof_O 	O 	0.43605	0.46737	0.85364	-0.489
Mof_O 	O 	0.43666	0.4427	0.05568	-0.483
Mof_C 	C 	0.92087	0.9407	0.4397	0.41
Mof_C 	C 	0.88062	0.90223	0.4019	-0.129
Mof_C 	C 	0.85845	0.89914	0.2778	0.07
Mof_H 	H 	0.8673	0.9215	0.2187	0.027
Mof_C 	C 	0.82321	0.86307	0.2411	-0.133
Mof_H 	H 	0.808	0.8616	0.1579	0.086
Mof_C 	C 	0.81044	0.82921	0.3269	0.081
Mof_C 	C 	0.86687	0.86886	0.4887	0.068
Mof_H 	H 	0.8806	0.8709	0.573	0.031
Mof_C 	C 	0.83271	0.83227	0.4506	-0.128
Mof_H 	H 	0.8247	0.8095	0.509	0.088
Mof_C 	C 	0.77668	0.78858	0.2866	0.021
Mof_O 	O 	0.93605	0.96737	0.35364	-0.445
Mof_O 	O 	0.93666	0.9427	0.55568	-0.439
Mof_C 	C 	0.57913	0.4407	0.9397	0.418
Mof_C 	C 	0.61938	0.40223	0.9019	-0.15
Mof_C 	C 	0.64155	0.39914	0.7778	0.077
Mof_H 	H 	0.6327	0.4215	0.7187	0.014
Mof_C 	C 	0.67679	0.36307	0.7411	-0.147
Mof_H 	H 	0.692	0.3616	0.6579	0.085
Mof_C 	C 	0.68956	0.32921	0.8269	0.084
Mof_C 	C 	0.63313	0.36886	0.9887	0.075
Mof_H 	H 	0.6194	0.3709	0.073	0.016
Mof_C 	C 	0.66729	0.33227	0.9506	-0.141
Mof_H 	H 	0.6753	0.3095	0.009	0.086
Mof_C 	C 	0.72332	0.28858	0.7866	0.015
Mof_O 	O 	0.56395	0.46737	0.85364	-0.488
Mof_O 	O 	0.56334	0.4427	0.05568	-0.482
Mof_C 	C 	0.07913	0.9407	0.4397	0.418
Mof_C 	C 	0.11938	0.90223	0.4019	-0.166
Mof_C 	C 	0.14155	0.89914	0.2778	0.079
Mof_H 	H 	0.1327	0.9215	0.2187	0.003
Mof_C 	C 	0.17679	0.86307	0.2411	-0.157
Mof_H 	H 	0.192	0.8616	0.1579	0.082
Mof_C 	C 	0.18956	0.82921	0.3269	0.084
Mof_C 	C 	0.13313	0.86886	0.4887	0.077
Mof_H 	H 	0.1194	0.8709	0.573	0.002
Mof_C 	C 	0.16729	0.83227	0.4506	-0.153
Mof_H 	H 	0.1753	0.8095	0.509	0.081
Mof_C 	C 	0.22332	0.78858	0.2866	0.01
Mof_O 	O 	0.06395	0.96737	0.35364	-0.515
Mof_O 	O 	0.06334	0.9427	0.55568	-0.509
Mof_C 	C 	0.42087	0.0593	0.9397	0.418
Mof_C 	C 	0.38062	0.09777	0.9019	-0.151
Mof_C 	C 	0.35845	0.10086	0.7778	0.075
Mof_H 	H 	0.3673	0.0785	0.7187	0.014
Mof_C 	C 	0.32321	0.13693	0.7411	-0.146
Mof_H 	H 	0.308	0.1384	0.6579	0.084
Mof_C 	C 	0.31044	0.17079	0.8269	0.081
Mof_C 	C 	0.36687	0.13114	0.9887	0.074
Mof_H 	H 	0.3806	0.1291	0.073	0.015
Mof_C 	C 	0.33271	0.16773	0.9506	-0.141
Mof_H 	H 	0.3247	0.1905	0.009	0.082
Mof_C 	C 	0.27668	0.21142	0.7866	0.015
Mof_O 	O 	0.43605	0.03263	0.85364	-0.489
Mof_O 	O 	0.43666	0.0573	0.05568	-0.483
Mof_C 	C 	0.92087	0.5593	0.4397	0.41
Mof_C 	C 	0.88062	0.59777	0.4019	-0.129
Mof_C 	C 	0.85845	0.60086	0.2778	0.07
Mof_H 	H 	0.8673	0.5785	0.2187	0.027
Mof_C 	C 	0.82321	0.63693	0.2411	-0.133
Mof_H 	H 	0.808	0.6384	0.1579	0.086
Mof_C 	C 	0.81044	0.67079	0.3269	0.081
Mof_C 	C 	0.86687	0.63114	0.4887	0.068
Mof_H 	H 	0.8806	0.6291	0.573	0.031
Mof_C 	C 	0.83271	0.66773	0.4506	-0.128
Mof_H 	H 	0.8247	0.6905	0.509	0.088
Mof_C 	C 	0.77668	0.71142	0.2866	0.021
Mof_O 	O 	0.93605	0.53263	0.35364	-0.445
Mof_O 	O 	0.93666	0.5573	0.55568	-0.439
Mof_C 	C 	0.42087	0.9407	0.0603	0.418
Mof_C 	C 	0.38062	0.90223	0.0981	-0.151
Mof_C 	C 	0.35845	0.89914	0.2222	0.075
Mof_H 	H 	0.3673	0.9215	0.2813	0.014
Mof_C 	C 	0.32321	0.86307	0.2589	-0.146
Mof_H 	H 	0.308	0.8616	0.3421	0.084
Mof_C 	C 	0.31044	0.82921	0.1731	0.081
Mof_C 	C 	0.36687	0.86886	0.0113	0.074
Mof_H 	H 	0.3806	0.8709	0.927	0.015
Mof_C 	C 	0.33271	0.83227	0.0494	-0.141
Mof_H 	H 	0.3247	0.8095	0.991	0.082
Mof_C 	C 	0.27668	0.78858	0.2134	0.015
Mof_O 	O 	0.43605	0.96737	0.14636	-0.489
Mof_O 	O 	0.43666	0.9427	0.94432	-0.483
Mof_C 	C 	0.92087	0.4407	0.5603	0.41
Mof_C 	C 	0.88062	0.40223	0.5981	-0.129
Mof_C 	C 	0.85845	0.39914	0.7222	0.07
Mof_H 	H 	0.8673	0.4215	0.7813	0.027
Mof_C 	C 	0.82321	0.36307	0.7589	-0.133
Mof_H 	H 	0.808	0.3616	0.8421	0.086
Mof_C 	C 	0.81044	0.32921	0.6731	0.081
Mof_C 	C 	0.86687	0.36886	0.5113	0.068
Mof_H 	H 	0.8806	0.3709	0.427	0.031
Mof_C 	C 	0.83271	0.33227	0.5494	-0.128
Mof_H 	H 	0.8247	0.3095	0.491	0.088
Mof_C 	C 	0.77668	0.28858	0.7134	0.021
Mof_O 	O 	0.93605	0.46737	0.64636	-0.445
Mof_O 	O 	0.93666	0.4427	0.44432	-0.439
Mof_C 	C 	0.57913	0.5593	0.0603	0.418
Mof_C 	C 	0.61938	0.59777	0.0981	-0.15
Mof_C 	C 	0.64155	0.60086	0.2222	0.077
Mof_H 	H 	0.6327	0.5785	0.2813	0.014
Mof_C 	C 	0.67679	0.63693	0.2589	-0.147
Mof_H 	H 	0.692	0.6384	0.3421	0.085
Mof_C 	C 	0.68956	0.67079	0.1731	0.084
Mof_C 	C 	0.63313	0.63114	0.0113	0.075
Mof_H 	H 	0.6194	0.6291	0.927	0.016
Mof_C 	C 	0.66729	0.66773	0.0494	-0.141
Mof_H 	H 	0.6753	0.6905	0.991	0.086
Mof_C 	C 	0.72332	0.71142	0.2134	0.015
Mof_O 	O 	0.56395	0.53263	0.14636	-0.488
Mof_O 	O 	0.56334	0.5573	0.94432	-0.482
Mof_C 	C 	0.07913	0.0593	0.5603	0.418
Mof_C 	C 	0.11938	0.09777	0.5981	-0.166
Mof_C 	C 	0.14155	0.10086	0.7222	0.079
Mof_H 	H 	0.1327	0.0785	0.7813	0.003
Mof_C 	C 	0.17679	0.13693	0.7589	-0.157
Mof_H 	H 	0.192	0.1384	0.8421	0.082
Mof_C 	C 	0.18956	0.17079	0.6731	0.084
Mof_C 	C 	0.13313	0.13114	0.5113	0.077
Mof_H 	H 	0.1194	0.1291	0.427	0.002
Mof_C 	C 	0.16729	0.16773	0.5494	-0.153
Mof_H 	H 	0.1753	0.1905	0.491	0.081
Mof_C 	C 	0.22332	0.21142	0.7134	0.01
Mof_O 	O 	0.06395	0.03263	0.64636	-0.515
Mof_O 	O 	0.06334	0.0573	0.44432	-0.509
Mof_Zn	Zn	0.5	0.48408	0.1339	1.197
Mof_Zn	Zn	1.12601e-33	0.98408	0.6339	1.166
Mof_Zn	Zn	0.5	0.01592	0.1339	1.197
Mof_Zn	Zn	8.48047e-33	0.51592	0.6339	1.165
Mof_Zn	Zn	0.5	0.98408	0.8661	1.197
Mof_Zn	Zn	6.50311e-34	0.48408	0.3661	1.165
Mof_Zn	Zn	0.5	0.51592	0.8661	1.197
Mof_Zn	Zn	-1.1883e-33	0.01592	0.3661	1.166
Mof_N 	N 	0.30193	0.75	0.1753	-0.109
Mof_N 	N 	0.80193	0.25	0.6753	-0.103
Mof_N 	N 	0.69807	0.75	0.1753	-0.107
Mof_N 	N 	0.19807	0.25	0.6753	-0.112
Mof_N 	N 	0.69807	0.25	0.8247	-0.107
Mof_N 	N 	0.19807	0.75	0.3247	-0.112
Mof_N 	N 	0.30193	0.25	0.8247	-0.109
Mof_N 	N 	0.80193	0.75	0.3247	-0.103
_end
