data_functionalizedCrystal
_audit_creation_method	'EQeq! by Chris Wilmer'
_symmetry_space_group_name_H-M	'P1'
_symmetry_Int_Tables_number	1
_symmetry_cell_setting	triclinic
loop_
_symmetry_equiv_pos_as_xyz
  x,y,z
_cell_length_a	21.8947
_cell_length_b	8.3062
_cell_length_c	23.2034
_cell_angle_alpha	90
_cell_angle_beta	100.053
_cell_angle_gamma	90
loop_
_atom_site_label
_atom_site_type_symbol
_atom_site_fract_x
_atom_site_fract_y
_atom_site_fract_z
_atom_site_charge
Mof_C 	C 	0.0788	0.83	0.1492	-0.216
Mof_H 	H 	0.0734	0.7318	0.1669	0.104
Mof_C 	C 	0.1225	0.9388	0.1787	0.303
Mof_C 	C 	0.1279	0.0874	0.1515	-0.225
Mof_C 	C 	0.1709	0.216	0.1768	0.418
Mof_C 	C 	0.0917	0.1197	0.0967	0.021
Mof_H 	H 	0.0957	0.2188	0.0791	0.053
Mof_C 	C 	0.0506	0.0098	0.0684	0.031
Mof_C 	C 	0.044	0.8619	0.0958	0.021
Mof_H 	H 	0.0158	0.7859	0.0776	0.039
Mof_C 	C 	0.2401	0.7974	0.1418	0.508
Mof_C 	C 	0.2192	0.8508	0.0796	-0.258
Mof_C 	C 	0.1791	0.7537	0.0398	0.315
Mof_C 	C 	0.1578	0.8111	0.9836	-0.232
Mof_H 	H 	0.1307	0.749	0.9573	0.131
Mof_C 	C 	0.1764	0.9581	0.9668	0.056
Mof_H 	H 	0.1617	0.9946	0.9291	0.01
Mof_C 	C 	0.2169	0.0544	0.005	0.009
Mof_C 	C 	0.2371	0.9982	0.06136	0.066
Mof_H 	H 	0.2636	0.062	0.0876	0.023
Mof_H 	H 	0.1696	0.5905	0.0894	0.265
Mof_N 	N 	0.235	0.2035	0.98187	-0.076
Mof_N 	N 	0.0179	0.0537	0.0123	-0.078
Mof_O 	O 	0.26556	0.9011	0.17698	-0.513
Mof_O 	O 	0.2291	0.6546	0.15482	-0.536
Mof_O 	O 	0.16951	0.3528	0.15388	-0.45
Mof_O 	O 	0.21081	0.1915	0.22431	-0.616
Mof_O 	O 	0.15584	0.8961	0.2295	-0.477
Mof_O 	O 	0.1592	0.6056	0.05279	-0.42
Mof_Tm	Tm	0.25245	0.96525	0.27162	1.724
Mof_C 	C 	0.5788	0.33	0.1492	-0.225
Mof_H 	H 	0.5734	0.2318	0.1669	0.107
Mof_C 	C 	0.6225	0.4388	0.1787	0.311
Mof_C 	C 	0.6279	0.5874	0.1515	-0.236
Mof_C 	C 	0.6709	0.716	0.1768	0.42
Mof_C 	C 	0.5917	0.6197	0.0967	0.028
Mof_H 	H 	0.5957	0.7188	0.0791	0.05
Mof_C 	C 	0.5506	0.5098	0.0684	0.023
Mof_C 	C 	0.544	0.3619	0.0958	0.032
Mof_H 	H 	0.5158	0.2859	0.0776	0.037
Mof_C 	C 	0.7401	0.2974	0.1418	0.51
Mof_C 	C 	0.7192	0.3508	0.0796	-0.264
Mof_C 	C 	0.6791	0.2537	0.0398	0.321
Mof_C 	C 	0.6578	0.3111	0.9836	-0.241
Mof_H 	H 	0.6307	0.249	0.9573	0.134
Mof_C 	C 	0.6764	0.4581	0.9668	0.064
Mof_H 	H 	0.6617	0.4946	0.9291	0.006
Mof_C 	C 	0.7169	0.5544	0.005	-0.001
Mof_C 	C 	0.7371	0.4982	0.06136	0.08
Mof_H 	H 	0.7636	0.562	0.0876	0.016
Mof_H 	H 	0.6696	0.0905	0.0894	0.267
Mof_N 	N 	0.735	0.7035	0.98187	-0.072
Mof_N 	N 	0.5179	0.5537	0.0123	-0.077
Mof_O 	O 	0.76556	0.4011	0.17698	-0.513
Mof_O 	O 	0.7291	0.1546	0.15482	-0.535
Mof_O 	O 	0.66951	0.8528	0.15388	-0.452
Mof_O 	O 	0.71081	0.6915	0.22431	-0.619
Mof_O 	O 	0.65584	0.3961	0.2295	-0.478
Mof_O 	O 	0.6592	0.1056	0.05279	-0.421
Mof_Tm	Tm	0.75245	0.46525	0.27162	1.732
Mof_C 	C 	0.9212	0.83	0.3508	-0.219
Mof_H 	H 	0.9266	0.7318	0.3331	0.104
Mof_C 	C 	0.8775	0.9388	0.3213	0.304
Mof_C 	C 	0.8721	0.0874	0.3485	-0.228
Mof_C 	C 	0.8291	0.216	0.3232	0.418
Mof_C 	C 	0.9083	0.1197	0.4033	0.023
Mof_H 	H 	0.9043	0.2188	0.4209	0.052
Mof_C 	C 	0.9494	0.0098	0.4316	0.03
Mof_C 	C 	0.956	0.8619	0.4042	0.024
Mof_H 	H 	0.9842	0.7859	0.4224	0.038
Mof_C 	C 	0.7599	0.7974	0.3582	0.509
Mof_C 	C 	0.7808	0.8508	0.4204	-0.261
Mof_C 	C 	0.8209	0.7537	0.4602	0.318
Mof_C 	C 	0.8422	0.8111	0.5164	-0.236
Mof_H 	H 	0.8693	0.749	0.5427	0.133
Mof_C 	C 	0.8236	0.9581	0.5332	0.06
Mof_H 	H 	0.8383	0.9946	0.5709	0.008
Mof_C 	C 	0.7831	0.0544	0.495	0.004
Mof_C 	C 	0.7629	0.9982	0.43864	0.073
Mof_H 	H 	0.7364	0.062	0.4124	0.02
Mof_H 	H 	0.8304	0.5905	0.4106	0.265
Mof_N 	N 	0.765	0.2035	0.51813	-0.074
Mof_N 	N 	0.9821	0.0537	0.4877	-0.078
Mof_O 	O 	0.73444	0.9011	0.32302	-0.513
Mof_O 	O 	0.7709	0.6546	0.34518	-0.537
Mof_O 	O 	0.83049	0.3528	0.34612	-0.451
Mof_O 	O 	0.78919	0.1915	0.27569	-0.616
Mof_O 	O 	0.84416	0.8961	0.2705	-0.477
Mof_O 	O 	0.8408	0.6056	0.44721	-0.421
Mof_Tm	Tm	0.74755	0.96525	0.22838	1.723
Mof_C 	C 	0.4212	0.33	0.3508	-0.225
Mof_H 	H 	0.4266	0.2318	0.3331	0.107
Mof_C 	C 	0.3775	0.4388	0.3213	0.311
Mof_C 	C 	0.3721	0.5874	0.3485	-0.235
Mof_C 	C 	0.3291	0.716	0.3232	0.42
Mof_C 	C 	0.4083	0.6197	0.4033	0.028
Mof_H 	H 	0.4043	0.7188	0.4209	0.05
Mof_C 	C 	0.4494	0.5098	0.4316	0.023
Mof_C 	C 	0.456	0.3619	0.4042	0.032
Mof_H 	H 	0.4842	0.2859	0.4224	0.036
Mof_C 	C 	0.2599	0.2974	0.3582	0.51
Mof_C 	C 	0.2808	0.3508	0.4204	-0.263
Mof_C 	C 	0.3209	0.2537	0.4602	0.319
Mof_C 	C 	0.3422	0.3111	0.5164	-0.238
Mof_H 	H 	0.3693	0.249	0.5427	0.133
Mof_C 	C 	0.3236	0.4581	0.5332	0.062
Mof_H 	H 	0.3383	0.4946	0.5709	0.007
Mof_C 	C 	0.2831	0.5544	0.495	0.001
Mof_C 	C 	0.2629	0.4982	0.43864	0.079
Mof_H 	H 	0.2364	0.562	0.4124	0.016
Mof_H 	H 	0.3304	0.0905	0.4106	0.266
Mof_N 	N 	0.265	0.7035	0.51813	-0.073
Mof_N 	N 	0.4821	0.5537	0.4877	-0.077
Mof_O 	O 	0.23444	0.4011	0.32302	-0.513
Mof_O 	O 	0.2709	0.1546	0.34518	-0.535
Mof_O 	O 	0.33049	0.8528	0.34612	-0.452
Mof_O 	O 	0.28919	0.6915	0.27569	-0.619
Mof_O 	O 	0.34416	0.3961	0.2705	-0.478
Mof_O 	O 	0.3408	0.1056	0.44721	-0.421
Mof_Tm	Tm	0.24755	0.46525	0.22838	1.732
Mof_C 	C 	0.9212	0.17	0.8508	-0.217
Mof_H 	H 	0.9266	0.2682	0.8331	0.103
Mof_C 	C 	0.8775	0.0612	0.8213	0.302
Mof_C 	C 	0.8721	0.9126	0.8485	-0.226
Mof_C 	C 	0.8291	0.784	0.8232	0.418
Mof_C 	C 	0.9083	0.8803	0.9033	0.021
Mof_H 	H 	0.9043	0.7812	0.9209	0.053
Mof_C 	C 	0.9494	0.9902	0.9316	0.031
Mof_C 	C 	0.956	0.1381	0.9042	0.021
Mof_H 	H 	0.9842	0.2141	0.9224	0.039
Mof_C 	C 	0.7599	0.2026	0.8582	0.508
Mof_C 	C 	0.7808	0.1492	0.9204	-0.258
Mof_C 	C 	0.8209	0.2463	0.9602	0.315
Mof_C 	C 	0.8422	0.1889	0.0164	-0.232
Mof_H 	H 	0.8693	0.251	0.0427	0.131
Mof_C 	C 	0.8236	0.0419	0.0332	0.056
Mof_H 	H 	0.8383	0.0054	0.0709	0.01
Mof_C 	C 	0.7831	0.9456	0.995	0.009
Mof_C 	C 	0.7629	0.0018	0.93864	0.066
Mof_H 	H 	0.7364	0.938	0.9124	0.023
Mof_H 	H 	0.8304	0.4095	0.9106	0.265
Mof_N 	N 	0.765	0.7965	0.01813	-0.076
Mof_N 	N 	0.9821	0.9463	0.9877	-0.078
Mof_O 	O 	0.73444	0.0989	0.82302	-0.513
Mof_O 	O 	0.7709	0.3454	0.84518	-0.536
Mof_O 	O 	0.83049	0.6472	0.84612	-0.45
Mof_O 	O 	0.78919	0.8085	0.77569	-0.616
Mof_O 	O 	0.84416	0.1039	0.7705	-0.477
Mof_O 	O 	0.8408	0.3944	0.94721	-0.42
Mof_Tm	Tm	0.74755	0.03475	0.72838	1.724
Mof_C 	C 	0.4212	0.67	0.8508	-0.225
Mof_H 	H 	0.4266	0.7682	0.8331	0.107
Mof_C 	C 	0.3775	0.5612	0.8213	0.311
Mof_C 	C 	0.3721	0.4126	0.8485	-0.236
Mof_C 	C 	0.3291	0.284	0.8232	0.42
Mof_C 	C 	0.4083	0.3803	0.9033	0.028
Mof_H 	H 	0.4043	0.2812	0.9209	0.05
Mof_C 	C 	0.4494	0.4902	0.9316	0.023
Mof_C 	C 	0.456	0.6381	0.9042	0.032
Mof_H 	H 	0.4842	0.7141	0.9224	0.037
Mof_C 	C 	0.2599	0.7026	0.8582	0.51
Mof_C 	C 	0.2808	0.6492	0.9204	-0.264
Mof_C 	C 	0.3209	0.7463	0.9602	0.321
Mof_C 	C 	0.3422	0.6889	0.0164	-0.241
Mof_H 	H 	0.3693	0.751	0.0427	0.134
Mof_C 	C 	0.3236	0.5419	0.0332	0.064
Mof_H 	H 	0.3383	0.5054	0.0709	0.006
Mof_C 	C 	0.2831	0.4456	0.995	-0.001
Mof_C 	C 	0.2629	0.5018	0.93864	0.08
Mof_H 	H 	0.2364	0.438	0.9124	0.016
Mof_H 	H 	0.3304	0.9095	0.9106	0.267
Mof_N 	N 	0.265	0.2965	0.01813	-0.072
Mof_N 	N 	0.4821	0.4463	0.9877	-0.077
Mof_O 	O 	0.23444	0.5989	0.82302	-0.513
Mof_O 	O 	0.2709	0.8454	0.84518	-0.535
Mof_O 	O 	0.33049	0.1472	0.84612	-0.452
Mof_O 	O 	0.28919	0.3085	0.77569	-0.619
Mof_O 	O 	0.34416	0.6039	0.7705	-0.478
Mof_O 	O 	0.3408	0.8944	0.94721	-0.421
Mof_Tm	Tm	0.24755	0.53475	0.72838	1.732
Mof_C 	C 	0.0788	0.17	0.6492	-0.219
Mof_H 	H 	0.0734	0.2682	0.6669	0.104
Mof_C 	C 	0.1225	0.0612	0.6787	0.304
Mof_C 	C 	0.1279	0.9126	0.6515	-0.228
Mof_C 	C 	0.1709	0.784	0.6768	0.418
Mof_C 	C 	0.0917	0.8803	0.5967	0.023
Mof_H 	H 	0.0957	0.7812	0.5791	0.052
Mof_C 	C 	0.0506	0.9902	0.5684	0.03
Mof_C 	C 	0.044	0.1381	0.5958	0.024
Mof_H 	H 	0.0158	0.2141	0.5776	0.038
Mof_C 	C 	0.2401	0.2026	0.6418	0.509
Mof_C 	C 	0.2192	0.1492	0.5796	-0.261
Mof_C 	C 	0.1791	0.2463	0.5398	0.318
Mof_C 	C 	0.1578	0.1889	0.4836	-0.236
Mof_H 	H 	0.1307	0.251	0.4573	0.133
Mof_C 	C 	0.1764	0.0419	0.4668	0.06
Mof_H 	H 	0.1617	0.0054	0.4291	0.008
Mof_C 	C 	0.2169	0.9456	0.505	0.004
Mof_C 	C 	0.2371	0.0018	0.56136	0.073
Mof_H 	H 	0.2636	0.938	0.5876	0.02
Mof_H 	H 	0.1696	0.4095	0.5894	0.265
Mof_N 	N 	0.235	0.7965	0.48187	-0.074
Mof_N 	N 	0.0179	0.9463	0.5123	-0.078
Mof_O 	O 	0.26556	0.0989	0.67698	-0.513
Mof_O 	O 	0.2291	0.3454	0.65482	-0.537
Mof_O 	O 	0.16951	0.6472	0.65388	-0.451
Mof_O 	O 	0.21081	0.8085	0.72431	-0.616
Mof_O 	O 	0.15584	0.1039	0.7295	-0.477
Mof_O 	O 	0.1592	0.3944	0.55279	-0.421
Mof_Tm	Tm	0.25245	0.03475	0.77162	1.723
Mof_C 	C 	0.5788	0.67	0.6492	-0.225
Mof_H 	H 	0.5734	0.7682	0.6669	0.107
Mof_C 	C 	0.6225	0.5612	0.6787	0.311
Mof_C 	C 	0.6279	0.4126	0.6515	-0.235
Mof_C 	C 	0.6709	0.284	0.6768	0.42
Mof_C 	C 	0.5917	0.3803	0.5967	0.028
Mof_H 	H 	0.5957	0.2812	0.5791	0.05
Mof_C 	C 	0.5506	0.4902	0.5684	0.023
Mof_C 	C 	0.544	0.6381	0.5958	0.032
Mof_H 	H 	0.5158	0.7141	0.5776	0.036
Mof_C 	C 	0.7401	0.7026	0.6418	0.51
Mof_C 	C 	0.7192	0.6492	0.5796	-0.263
Mof_C 	C 	0.6791	0.7463	0.5398	0.319
Mof_C 	C 	0.6578	0.6889	0.4836	-0.238
Mof_H 	H 	0.6307	0.751	0.4573	0.133
Mof_C 	C 	0.6764	0.5419	0.4668	0.062
Mof_H 	H 	0.6617	0.5054	0.4291	0.007
Mof_C 	C 	0.7169	0.4456	0.505	0.001
Mof_C 	C 	0.7371	0.5018	0.56136	0.079
Mof_H 	H 	0.7636	0.438	0.5876	0.016
Mof_H 	H 	0.6696	0.9095	0.5894	0.266
Mof_N 	N 	0.735	0.2965	0.48187	-0.073
Mof_N 	N 	0.5179	0.4463	0.5123	-0.077
Mof_O 	O 	0.76556	0.5989	0.67698	-0.513
Mof_O 	O 	0.7291	0.8454	0.65482	-0.535
Mof_O 	O 	0.66951	0.1472	0.65388	-0.452
Mof_O 	O 	0.71081	0.3085	0.72431	-0.619
Mof_O 	O 	0.65584	0.6039	0.7295	-0.478
Mof_O 	O 	0.6592	0.8944	0.55279	-0.421
Mof_Tm	Tm	0.75245	0.53475	0.77162	1.732
_end
