# CIF file generated by openbabel 3.1.0, see https://openbabel.org
data_I
_chemical_name_common 'QOVWOO_clean'
_cell_length_a 19.2395
_cell_length_b 15.1642
_cell_length_c 6.6812
_cell_angle_alpha 90
_cell_angle_beta 84.0842
_cell_angle_gamma 90
_space_group_name_H-M_alt 'P 1'
_space_group_name_Hall 'P 1'
loop_
    _symmetry_equiv_pos_as_xyz
    x,y,z
loop_
    _atom_site_label
    _atom_site_type_symbol
    _atom_site_fract_x
    _atom_site_fract_y
    _atom_site_fract_z
    _atom_site_occupancy
    Ga1      Ga       0.49568    0.25396    0.51928    1.000
    H2       H        0.78732    0.09372    0.58149    1.000
    H3       H        0.66881    0.12474    0.55727    1.000
    H4       H        0.70824    0.14273    0.94831    1.000
    H5       H        0.82676    0.11171    0.97252    1.000
    H6       H        0.28082    0.17689    0.56010    1.000
    H7       H        0.16320    0.14363    0.52772    1.000
    H8       H        0.21599    0.06812    0.94732    1.000
    H9       H        0.33361    0.10139    0.97970    1.000
    C10      C        0.81687    0.10014    0.27902    1.000
    C11      C        0.77083    0.10394    0.44947    1.000
    C12      C        0.70174    0.12202    0.43535    1.000
    C13      C        0.67869    0.13631    0.25078    1.000
    C14      C        0.72473    0.13251    0.08033    1.000
    C15      C        0.79382    0.11442    0.09445    1.000
    C16      C        0.89151    0.08060    0.29427    1.000
    C17      C        0.60405    0.15584    0.23553    1.000
    C18      C        0.31697    0.14190    0.27259    1.000
    C19      C        0.26730    0.15421    0.43233    1.000
    C20      C        0.19873    0.13482    0.41345    1.000
    C21      C        0.17984    0.10312    0.23483    1.000
    C22      C        0.22951    0.09080    0.07509    1.000
    C23      C        0.29808    0.11019    0.09397    1.000
    C24      C        0.39104    0.16285    0.29299    1.000
    C25      C        0.10577    0.08217    0.21443    1.000
    O26      O        0.49900    0.18900    0.77180    1.000
    O27      O        0.99990    0.06360    0.74650    1.000
    O28      O        0.91268    0.06603    0.46508    1.000
    O29      O        0.93439    0.07842    0.13655    1.000
    O30      O        0.56103    0.15703    0.39300    1.000
    O31      O        0.58303    0.17142    0.06497    1.000
    O32      O        0.40855    0.19231    0.45851    1.000
    O33      O        0.43710    0.15135    0.14496    1.000
    O34      O        0.05926    0.09747    0.35933    1.000
    O35      O        0.08871    0.04890    0.05204    1.000
    H36      H        0.99990    0.37046    0.24650    1.000
    H37      H        0.49900    0.12306    0.77180    1.000
    Ga38     Ga       0.50432    0.75396    0.98072    1.000
    H39      H        0.21268    0.59372    0.91851    1.000
    H40      H        0.33119    0.62474    0.94273    1.000
    H41      H        0.29176    0.64273    0.55169    1.000
    H42      H        0.17324    0.61171    0.52748    1.000
    H43      H        0.71918    0.67689    0.93990    1.000
    H44      H        0.83680    0.64363    0.97228    1.000
    H45      H        0.78401    0.56812    0.55268    1.000
    H46      H        0.66639    0.60139    0.52030    1.000
    C47      C        0.18313    0.60014    0.22098    1.000
    C48      C        0.22917    0.60394    0.05053    1.000
    C49      C        0.29826    0.62202    0.06465    1.000
    C50      C        0.32131    0.63631    0.24922    1.000
    C51      C        0.27527    0.63251    0.41967    1.000
    C52      C        0.20618    0.61442    0.40555    1.000
    C53      C        0.10849    0.58060    0.20573    1.000
    C54      C        0.39595    0.65584    0.26447    1.000
    C55      C        0.68303    0.64190    0.22741    1.000
    C56      C        0.73270    0.65421    0.06767    1.000
    C57      C        0.80127    0.63482    0.08655    1.000
    C58      C        0.82016    0.60312    0.26517    1.000
    C59      C        0.77049    0.59080    0.42491    1.000
    C60      C        0.70192    0.61019    0.40603    1.000
    C61      C        0.60896    0.66285    0.20701    1.000
    C62      C        0.89423    0.58217    0.28557    1.000
    O63      O        0.50100    0.68900    0.72820    1.000
    O64      O        0.00010    0.56360    0.75350    1.000
    O65      O        0.08732    0.56603    0.03492    1.000
    O66      O        0.06561    0.57842    0.36345    1.000
    O67      O        0.43897    0.65703    0.10700    1.000
    O68      O        0.41697    0.67142    0.43503    1.000
    O69      O        0.59145    0.69231    0.04149    1.000
    O70      O        0.56290    0.65135    0.35504    1.000
    O71      O        0.94074    0.59747    0.14067    1.000
    O72      O        0.91129    0.54890    0.44796    1.000
    H73      H        0.00010    0.87046    0.25350    1.000
    H74      H        0.50100    0.62306    0.72820    1.000
    Ga75     Ga       0.50432    0.74604    0.48072    1.000
    H76      H        0.21268    0.90628    0.41851    1.000
    H77      H        0.33119    0.87526    0.44273    1.000
    H78      H        0.29176    0.85727    0.05169    1.000
    H79      H        0.17324    0.88829    0.02748    1.000
    H80      H        0.71918    0.82311    0.43990    1.000
    H81      H        0.83680    0.85637    0.47228    1.000
    H82      H        0.78401    0.93188    0.05268    1.000
    H83      H        0.66639    0.89861    0.02030    1.000
    C84      C        0.18313    0.89986    0.72098    1.000
    C85      C        0.22917    0.89606    0.55053    1.000
    C86      C        0.29826    0.87798    0.56465    1.000
    C87      C        0.32131    0.86369    0.74922    1.000
    C88      C        0.27527    0.86749    0.91967    1.000
    C89      C        0.20618    0.88558    0.90555    1.000
    C90      C        0.10849    0.91940    0.70573    1.000
    C91      C        0.39595    0.84416    0.76447    1.000
    C92      C        0.68303    0.85810    0.72741    1.000
    C93      C        0.73270    0.84579    0.56767    1.000
    C94      C        0.80127    0.86518    0.58655    1.000
    C95      C        0.82016    0.89688    0.76517    1.000
    C96      C        0.77049    0.90920    0.92491    1.000
    C97      C        0.70192    0.88981    0.90603    1.000
    C98      C        0.60896    0.83715    0.70701    1.000
    C99      C        0.89423    0.91783    0.78557    1.000
    O100     O        0.50100    0.81100    0.22820    1.000
    O101     O        0.00010    0.93640    0.25350    1.000
    O102     O        0.08732    0.93397    0.53492    1.000
    O103     O        0.06561    0.92158    0.86345    1.000
    O104     O        0.43897    0.84297    0.60700    1.000
    O105     O        0.41697    0.82858    0.93503    1.000
    O106     O        0.59145    0.80769    0.54149    1.000
    O107     O        0.56290    0.84865    0.85504    1.000
    O108     O        0.94074    0.90253    0.64067    1.000
    O109     O        0.91129    0.95110    0.94796    1.000
    H110     H        0.00010    0.62954    0.75350    1.000
    H111     H        0.50100    0.87694    0.22820    1.000
    Ga112    Ga       0.49568    0.24604    0.01928    1.000
    H113     H        0.78732    0.40628    0.08149    1.000
    H114     H        0.66881    0.37526    0.05727    1.000
    H115     H        0.70824    0.35727    0.44831    1.000
    H116     H        0.82676    0.38829    0.47252    1.000
    H117     H        0.28082    0.32311    0.06010    1.000
    H118     H        0.16320    0.35637    0.02772    1.000
    H119     H        0.21599    0.43188    0.44732    1.000
    H120     H        0.33361    0.39861    0.47970    1.000
    C121     C        0.81687    0.39986    0.77902    1.000
    C122     C        0.77083    0.39606    0.94947    1.000
    C123     C        0.70174    0.37798    0.93535    1.000
    C124     C        0.67869    0.36369    0.75078    1.000
    C125     C        0.72473    0.36749    0.58033    1.000
    C126     C        0.79382    0.38558    0.59445    1.000
    C127     C        0.89151    0.41940    0.79427    1.000
    C128     C        0.60405    0.34416    0.73553    1.000
    C129     C        0.31697    0.35810    0.77259    1.000
    C130     C        0.26730    0.34579    0.93233    1.000
    C131     C        0.19873    0.36518    0.91345    1.000
    C132     C        0.17984    0.39688    0.73483    1.000
    C133     C        0.22951    0.40920    0.57509    1.000
    C134     C        0.29808    0.38981    0.59397    1.000
    C135     C        0.39104    0.33715    0.79299    1.000
    C136     C        0.10577    0.41783    0.71443    1.000
    O137     O        0.49900    0.31100    0.27180    1.000
    O138     O        0.99990    0.43640    0.24650    1.000
    O139     O        0.91268    0.43397    0.96508    1.000
    O140     O        0.93439    0.42158    0.63655    1.000
    O141     O        0.56103    0.34297    0.89300    1.000
    O142     O        0.58303    0.32858    0.56497    1.000
    O143     O        0.40855    0.30769    0.95851    1.000
    O144     O        0.43710    0.34865    0.64496    1.000
    O145     O        0.05926    0.40253    0.85933    1.000
    O146     O        0.08871    0.45110    0.55204    1.000
    H147     H        0.99990    0.12954    0.74650    1.000
    H148     H        0.49900    0.37694    0.27180    1.000
    Ga149    Ga       0.00000    0.00000    0.00000    1.000
    Ga150    Ga       0.00000    0.50000    0.50000    1.000
    Ga151    Ga       0.00000    0.00000    0.50000    1.000
    Ga152    Ga       0.00000    0.50000    0.00000    1.000
