# CIF file generated by openbabel 3.1.0, see https://openbabel.org
data_I
_chemical_name_common 'image0'
_cell_length_a 15.1123
_cell_length_b 19.9069
_cell_length_c 31.2591
_cell_angle_alpha 90
_cell_angle_beta 90
_cell_angle_gamma 90
_space_group_name_H-M_alt 'P 1'
_space_group_name_Hall 'P 1'
loop_
    _symmetry_equiv_pos_as_xyz
    x,y,z
loop_
    _atom_site_label
    _atom_site_type_symbol
    _atom_site_fract_x
    _atom_site_fract_y
    _atom_site_fract_z
    _atom_site_occupancy
    Zn1      Zn       0.10911    0.19556    0.14187    1.000
    N1       N        0.09940    0.19330    0.21284    1.000
    C1       C        0.13350    0.24120    0.23728    1.000
    H1       H        0.16100    0.27730    0.22380    1.000
    C2       C        0.13070    0.24090    0.28154    1.000
    H2       H        0.15590    0.27590    0.29710    1.000
    C3       C        0.09020    0.18840    0.30225    1.000
    C4       C        0.05590    0.13770    0.27717    1.000
    H3       H        0.02900    0.10080    0.28990    1.000
    C5       C        0.06160    0.14160    0.23321    1.000
    H4       H        0.03800    0.10670    0.21700    1.000
    C6       C        0.08100    0.18240    0.35020    1.000
    O1       O        0.04860    0.13260    0.36638    1.000
    N2       N        0.11050    0.23550    0.37256    1.000
    N3       N        0.10830    0.23260    0.41670    1.000
    C7       C        0.12200    0.28790    0.43576    1.000
    H5       H        0.13260    0.32670    0.42000    1.000
    C8       C        0.12120    0.29090    0.48236    1.000
    C9       C        0.11570    0.35050    0.50430    1.000
    H6       H        0.11370    0.39070    0.48920    1.000
    C10      C        0.11310    0.35150    0.54880    1.000
    H7       H        0.10640    0.39260    0.56250    1.000
    N4       N        0.11970    0.29760    0.57186    1.000
    C11      C        0.12750    0.23970    0.55080    1.000
    H8       H        0.13230    0.20040    0.56680    1.000
    C12      C        0.12870    0.23460    0.50690    1.000
    H9       H        0.13470    0.19270    0.49400    1.000
    C13      C        0.36330    0.90830    0.14042    1.000
    C14      C        0.27160    0.91440    0.13870    1.000
    H10      H        0.23660    0.87600    0.13710    1.000
    C15      C        0.23220    0.97680    0.13930    1.000
    H11      H        0.17090    0.98050    0.13790    1.000
    C16      C        0.28420    0.03390    0.14194    1.000
    C17      C        0.37530    0.02820    0.14184    1.000
    H12      H        0.41030    0.06660    0.14240    1.000
    C18      C        0.41460    0.96510    0.14093    1.000
    H13      H        0.47590    0.96140    0.14070    1.000
    C19      C        0.24050    0.10190    0.14458    1.000
    O2       O        0.15670    0.10236    0.14123    1.000
    O3       O        0.28540    0.15330    0.14983    1.000
    C20      C        0.40280    0.83950    0.14146    1.000
    O4       O        0.48310    0.83420    0.13677    1.000
    O5       O        0.35010    0.79043    0.14664    1.000
    H14      H        0.12900    0.27500    0.36420    1.000
    Zn2      Zn       0.60911    0.69556    0.64187    1.000
    N5       N        0.59940    0.69330    0.71284    1.000
    C21      C        0.63350    0.74120    0.73728    1.000
    H15      H        0.66100    0.77730    0.72380    1.000
    C22      C        0.63070    0.74090    0.78154    1.000
    H16      H        0.65590    0.77590    0.79710    1.000
    C23      C        0.59020    0.68840    0.80225    1.000
    C24      C        0.55590    0.63770    0.77717    1.000
    H17      H        0.52900    0.60080    0.78990    1.000
    C25      C        0.56160    0.64160    0.73321    1.000
    H18      H        0.53800    0.60670    0.71700    1.000
    C26      C        0.58100    0.68240    0.85020    1.000
    O6       O        0.54860    0.63260    0.86638    1.000
    N6       N        0.61050    0.73550    0.87256    1.000
    N7       N        0.60830    0.73260    0.91670    1.000
    C27      C        0.62200    0.78790    0.93576    1.000
    H19      H        0.63260    0.82670    0.92000    1.000
    C28      C        0.62120    0.79090    0.98236    1.000
    C29      C        0.61570    0.85050    0.00430    1.000
    H20      H        0.61370    0.89070    0.98920    1.000
    C30      C        0.61310    0.85150    0.04880    1.000
    H21      H        0.60640    0.89260    0.06250    1.000
    N8       N        0.61970    0.79760    0.07186    1.000
    C31      C        0.62750    0.73970    0.05080    1.000
    H22      H        0.63230    0.70040    0.06680    1.000
    C32      C        0.62870    0.73460    0.00690    1.000
    H23      H        0.63470    0.69270    0.99400    1.000
    C33      C        0.86330    0.40830    0.64042    1.000
    C34      C        0.77160    0.41440    0.63870    1.000
    H24      H        0.73660    0.37600    0.63710    1.000
    C35      C        0.73220    0.47680    0.63930    1.000
    H25      H        0.67090    0.48050    0.63790    1.000
    C36      C        0.78420    0.53390    0.64194    1.000
    C37      C        0.87530    0.52820    0.64184    1.000
    H26      H        0.91030    0.56660    0.64240    1.000
    C38      C        0.91460    0.46510    0.64093    1.000
    H27      H        0.97590    0.46140    0.64070    1.000
    C39      C        0.74050    0.60190    0.64458    1.000
    O7       O        0.65670    0.60236    0.64123    1.000
    O8       O        0.78540    0.65330    0.64983    1.000
    C40      C        0.90280    0.33950    0.64146    1.000
    O9       O        0.98310    0.33420    0.63677    1.000
    O10      O        0.85010    0.29043    0.64664    1.000
    H28      H        0.62900    0.77500    0.86420    1.000
    Zn3      Zn       0.39089    0.80444    0.64187    1.000
    N9       N        0.40060    0.80670    0.71284    1.000
    C41      C        0.36650    0.75880    0.73728    1.000
    H29      H        0.33900    0.72270    0.72380    1.000
    C42      C        0.36930    0.75910    0.78154    1.000
    H30      H        0.34410    0.72410    0.79710    1.000
    C43      C        0.40980    0.81160    0.80225    1.000
    C44      C        0.44410    0.86230    0.77717    1.000
    H31      H        0.47100    0.89920    0.78990    1.000
    C45      C        0.43840    0.85840    0.73321    1.000
    H32      H        0.46200    0.89330    0.71700    1.000
    C46      C        0.41900    0.81760    0.85020    1.000
    O11      O        0.45140    0.86740    0.86638    1.000
    N10      N        0.38950    0.76450    0.87256    1.000
    N11      N        0.39170    0.76740    0.91670    1.000
    C47      C        0.37800    0.71210    0.93576    1.000
    H33      H        0.36740    0.67330    0.92000    1.000
    C48      C        0.37880    0.70910    0.98236    1.000
    C49      C        0.38430    0.64950    0.00430    1.000
    H34      H        0.38630    0.60930    0.98920    1.000
    C50      C        0.38690    0.64850    0.04880    1.000
    H35      H        0.39360    0.60740    0.06250    1.000
    N12      N        0.38030    0.70240    0.07186    1.000
    C51      C        0.37250    0.76030    0.05080    1.000
    H36      H        0.36770    0.79960    0.06680    1.000
    C52      C        0.37130    0.76540    0.00690    1.000
    H37      H        0.36530    0.80730    0.99400    1.000
    C53      C        0.13670    0.09170    0.64042    1.000
    C54      C        0.22840    0.08560    0.63870    1.000
    H38      H        0.26340    0.12400    0.63710    1.000
    C55      C        0.26780    0.02320    0.63930    1.000
    H39      H        0.32910    0.01950    0.63790    1.000
    C56      C        0.21580    0.96610    0.64194    1.000
    C57      C        0.12470    0.97180    0.64184    1.000
    H40      H        0.08970    0.93340    0.64240    1.000
    C58      C        0.08540    0.03490    0.64093    1.000
    H41      H        0.02410    0.03860    0.64070    1.000
    C59      C        0.25950    0.89810    0.64458    1.000
    O12      O        0.34330    0.89764    0.64123    1.000
    O13      O        0.21460    0.84670    0.64983    1.000
    C60      C        0.09720    0.16050    0.64146    1.000
    O14      O        0.01690    0.16580    0.63677    1.000
    O15      O        0.14990    0.20957    0.64664    1.000
    H42      H        0.37100    0.72500    0.86420    1.000
    Zn4      Zn       0.89089    0.30444    0.14187    1.000
    N13      N        0.90060    0.30670    0.21284    1.000
    C61      C        0.86650    0.25880    0.23728    1.000
    H43      H        0.83900    0.22270    0.22380    1.000
    C62      C        0.86930    0.25910    0.28154    1.000
    H44      H        0.84410    0.22410    0.29710    1.000
    C63      C        0.90980    0.31160    0.30225    1.000
    C64      C        0.94410    0.36230    0.27717    1.000
    H45      H        0.97100    0.39920    0.28990    1.000
    C65      C        0.93840    0.35840    0.23321    1.000
    H46      H        0.96200    0.39330    0.21700    1.000
    C66      C        0.91900    0.31760    0.35020    1.000
    O16      O        0.95140    0.36740    0.36638    1.000
    N14      N        0.88950    0.26450    0.37256    1.000
    N15      N        0.89170    0.26740    0.41670    1.000
    C67      C        0.87800    0.21210    0.43576    1.000
    H47      H        0.86740    0.17330    0.42000    1.000
    C68      C        0.87880    0.20910    0.48236    1.000
    C69      C        0.88430    0.14950    0.50430    1.000
    H48      H        0.88630    0.10930    0.48920    1.000
    C70      C        0.88690    0.14850    0.54880    1.000
    H49      H        0.89360    0.10740    0.56250    1.000
    N16      N        0.88030    0.20240    0.57186    1.000
    C71      C        0.87250    0.26030    0.55080    1.000
    H50      H        0.86770    0.29960    0.56680    1.000
    C72      C        0.87130    0.26540    0.50690    1.000
    H51      H        0.86530    0.30730    0.49400    1.000
    C73      C        0.63670    0.59170    0.14042    1.000
    C74      C        0.72840    0.58560    0.13870    1.000
    H52      H        0.76340    0.62400    0.13710    1.000
    C75      C        0.76780    0.52320    0.13930    1.000
    H53      H        0.82910    0.51950    0.13790    1.000
    C76      C        0.71580    0.46610    0.14194    1.000
    C77      C        0.62470    0.47180    0.14184    1.000
    H54      H        0.58970    0.43340    0.14240    1.000
    C78      C        0.58540    0.53490    0.14093    1.000
    H55      H        0.52410    0.53860    0.14070    1.000
    C79      C        0.75950    0.39810    0.14458    1.000
    O17      O        0.84330    0.39764    0.14123    1.000
    O18      O        0.71460    0.34670    0.14983    1.000
    C80      C        0.59720    0.66050    0.14146    1.000
    O19      O        0.51690    0.66580    0.13677    1.000
    O20      O        0.64990    0.70957    0.14664    1.000
    H56      H        0.87100    0.22500    0.36420    1.000
    Zn5      Zn       0.10911    0.30444    0.64187    1.000
    N17      N        0.09940    0.30670    0.71284    1.000
    C81      C        0.13350    0.25880    0.73728    1.000
    H57      H        0.16100    0.22270    0.72380    1.000
    C82      C        0.13070    0.25910    0.78154    1.000
    H58      H        0.15590    0.22410    0.79710    1.000
    C83      C        0.09020    0.31160    0.80225    1.000
    C84      C        0.05590    0.36230    0.77717    1.000
    H59      H        0.02900    0.39920    0.78990    1.000
    C85      C        0.06160    0.35840    0.73321    1.000
    H60      H        0.03800    0.39330    0.71700    1.000
    C86      C        0.08100    0.31760    0.85020    1.000
    O21      O        0.04860    0.36740    0.86638    1.000
    N18      N        0.11050    0.26450    0.87256    1.000
    N19      N        0.10830    0.26740    0.91670    1.000
    C87      C        0.12200    0.21210    0.93576    1.000
    H61      H        0.13260    0.17330    0.92000    1.000
    C88      C        0.12120    0.20910    0.98236    1.000
    C89      C        0.11570    0.14950    0.00430    1.000
    H62      H        0.11370    0.10930    0.98920    1.000
    C90      C        0.11310    0.14850    0.04880    1.000
    H63      H        0.10640    0.10740    0.06250    1.000
    N20      N        0.11970    0.20240    0.07186    1.000
    C91      C        0.12750    0.26030    0.05080    1.000
    H64      H        0.13230    0.29960    0.06680    1.000
    C92      C        0.12870    0.26540    0.00690    1.000
    H65      H        0.13470    0.30730    0.99400    1.000
    C93      C        0.36330    0.59170    0.64042    1.000
    C94      C        0.27160    0.58560    0.63870    1.000
    H66      H        0.23660    0.62400    0.63710    1.000
    C95      C        0.23220    0.52320    0.63930    1.000
    H67      H        0.17090    0.51950    0.63790    1.000
    C96      C        0.28420    0.46610    0.64194    1.000
    C97      C        0.37530    0.47180    0.64184    1.000
    H68      H        0.41030    0.43340    0.64240    1.000
    C98      C        0.41460    0.53490    0.64093    1.000
    H69      H        0.47590    0.53860    0.64070    1.000
    C99      C        0.24050    0.39810    0.64458    1.000
    O22      O        0.15670    0.39764    0.64123    1.000
    O23      O        0.28540    0.34670    0.64983    1.000
    C100     C        0.40280    0.66050    0.64146    1.000
    O24      O        0.48310    0.66580    0.63677    1.000
    O25      O        0.35010    0.70957    0.64664    1.000
    H70      H        0.12900    0.22500    0.86420    1.000
    Zn6      Zn       0.60911    0.80444    0.14187    1.000
    N21      N        0.59940    0.80670    0.21284    1.000
    C101     C        0.63350    0.75880    0.23728    1.000
    H71      H        0.66100    0.72270    0.22380    1.000
    C102     C        0.63070    0.75910    0.28154    1.000
    H72      H        0.65590    0.72410    0.29710    1.000
    C103     C        0.59020    0.81160    0.30225    1.000
    C104     C        0.55590    0.86230    0.27717    1.000
    H73      H        0.52900    0.89920    0.28990    1.000
    C105     C        0.56160    0.85840    0.23321    1.000
    H74      H        0.53800    0.89330    0.21700    1.000
    C106     C        0.58100    0.81760    0.35020    1.000
    O26      O        0.54860    0.86740    0.36638    1.000
    N22      N        0.61050    0.76450    0.37256    1.000
    N23      N        0.60830    0.76740    0.41670    1.000
    C107     C        0.62200    0.71210    0.43576    1.000
    H75      H        0.63260    0.67330    0.42000    1.000
    C108     C        0.62120    0.70910    0.48236    1.000
    C109     C        0.61570    0.64950    0.50430    1.000
    H76      H        0.61370    0.60930    0.48920    1.000
    C110     C        0.61310    0.64850    0.54880    1.000
    H77      H        0.60640    0.60740    0.56250    1.000
    N24      N        0.61970    0.70240    0.57186    1.000
    C111     C        0.62750    0.76030    0.55080    1.000
    H78      H        0.63230    0.79960    0.56680    1.000
    C112     C        0.62870    0.76540    0.50690    1.000
    H79      H        0.63470    0.80730    0.49400    1.000
    C113     C        0.86330    0.09170    0.14042    1.000
    C114     C        0.77160    0.08560    0.13870    1.000
    H80      H        0.73660    0.12400    0.13710    1.000
    C115     C        0.73220    0.02320    0.13930    1.000
    H81      H        0.67090    0.01950    0.13790    1.000
    C116     C        0.78420    0.96610    0.14194    1.000
    C117     C        0.87530    0.97180    0.14184    1.000
    H82      H        0.91030    0.93340    0.14240    1.000
    C118     C        0.91460    0.03490    0.14093    1.000
    H83      H        0.97590    0.03860    0.14070    1.000
    C119     C        0.74050    0.89810    0.14458    1.000
    O27      O        0.65670    0.89764    0.14123    1.000
    O28      O        0.78540    0.84670    0.14983    1.000
    C120     C        0.90280    0.16050    0.14146    1.000
    O29      O        0.98310    0.16580    0.13677    1.000
    O30      O        0.85010    0.20957    0.14664    1.000
    H84      H        0.62900    0.72500    0.36420    1.000
    Zn7      Zn       0.39089    0.69556    0.14187    1.000
    N25      N        0.40060    0.69330    0.21284    1.000
    C121     C        0.36650    0.74120    0.23728    1.000
    H85      H        0.33900    0.77730    0.22380    1.000
    C122     C        0.36930    0.74090    0.28154    1.000
    H86      H        0.34410    0.77590    0.29710    1.000
    C123     C        0.40980    0.68840    0.30225    1.000
    C124     C        0.44410    0.63770    0.27717    1.000
    H87      H        0.47100    0.60080    0.28990    1.000
    C125     C        0.43840    0.64160    0.23321    1.000
    H88      H        0.46200    0.60670    0.21700    1.000
    C126     C        0.41900    0.68240    0.35020    1.000
    O31      O        0.45140    0.63260    0.36638    1.000
    N26      N        0.38950    0.73550    0.37256    1.000
    N27      N        0.39170    0.73260    0.41670    1.000
    C127     C        0.37800    0.78790    0.43576    1.000
    H89      H        0.36740    0.82670    0.42000    1.000
    C128     C        0.37880    0.79090    0.48236    1.000
    C129     C        0.38430    0.85050    0.50430    1.000
    H90      H        0.38630    0.89070    0.48920    1.000
    C130     C        0.38690    0.85150    0.54880    1.000
    H91      H        0.39360    0.89260    0.56250    1.000
    N28      N        0.38030    0.79760    0.57186    1.000
    C131     C        0.37250    0.73970    0.55080    1.000
    H92      H        0.36770    0.70040    0.56680    1.000
    C132     C        0.37130    0.73460    0.50690    1.000
    H93      H        0.36530    0.69270    0.49400    1.000
    C133     C        0.13670    0.40830    0.14042    1.000
    C134     C        0.22840    0.41440    0.13870    1.000
    H94      H        0.26340    0.37600    0.13710    1.000
    C135     C        0.26780    0.47680    0.13930    1.000
    H95      H        0.32910    0.48050    0.13790    1.000
    C136     C        0.21580    0.53390    0.14194    1.000
    C137     C        0.12470    0.52820    0.14184    1.000
    H96      H        0.08970    0.56660    0.14240    1.000
    C138     C        0.08540    0.46510    0.14093    1.000
    H97      H        0.02410    0.46140    0.14070    1.000
    C139     C        0.25950    0.60190    0.14458    1.000
    O32      O        0.34330    0.60236    0.14123    1.000
    O33      O        0.21460    0.65330    0.14983    1.000
    C140     C        0.09720    0.33950    0.14146    1.000
    O34      O        0.01690    0.33420    0.13677    1.000
    O35      O        0.14990    0.29043    0.14664    1.000
    H98      H        0.37100    0.77500    0.36420    1.000
    Zn8      Zn       0.89089    0.19556    0.64187    1.000
    N29      N        0.90060    0.19330    0.71284    1.000
    C141     C        0.86650    0.24120    0.73728    1.000
    H99      H        0.83900    0.27730    0.72380    1.000
    C142     C        0.86930    0.24090    0.78154    1.000
    H100     H        0.84410    0.27590    0.79710    1.000
    C143     C        0.90980    0.18840    0.80225    1.000
    C144     C        0.94410    0.13770    0.77717    1.000
    H101     H        0.97100    0.10080    0.78990    1.000
    C145     C        0.93840    0.14160    0.73321    1.000
    H102     H        0.96200    0.10670    0.71700    1.000
    C146     C        0.91900    0.18240    0.85020    1.000
    O36      O        0.95140    0.13260    0.86638    1.000
    N30      N        0.88950    0.23550    0.87256    1.000
    N31      N        0.89170    0.23260    0.91670    1.000
    C147     C        0.87800    0.28790    0.93576    1.000
    H103     H        0.86740    0.32670    0.92000    1.000
    C148     C        0.87880    0.29090    0.98236    1.000
    C149     C        0.88430    0.35050    0.00430    1.000
    H104     H        0.88630    0.39070    0.98920    1.000
    C150     C        0.88690    0.35150    0.04880    1.000
    H105     H        0.89360    0.39260    0.06250    1.000
    N32      N        0.88030    0.29760    0.07186    1.000
    C151     C        0.87250    0.23970    0.05080    1.000
    H106     H        0.86770    0.20040    0.06680    1.000
    C152     C        0.87130    0.23460    0.00690    1.000
    H107     H        0.86530    0.19270    0.99400    1.000
    C153     C        0.63670    0.90830    0.64042    1.000
    C154     C        0.72840    0.91440    0.63870    1.000
    H108     H        0.76340    0.87600    0.63710    1.000
    C155     C        0.76780    0.97680    0.63930    1.000
    H109     H        0.82910    0.98050    0.63790    1.000
    C156     C        0.71580    0.03390    0.64194    1.000
    C157     C        0.62470    0.02820    0.64184    1.000
    H110     H        0.58970    0.06660    0.64240    1.000
    C158     C        0.58540    0.96510    0.64093    1.000
    H111     H        0.52410    0.96140    0.64070    1.000
    C159     C        0.75950    0.10190    0.64458    1.000
    O37      O        0.84330    0.10236    0.64123    1.000
    O38      O        0.71460    0.15330    0.64983    1.000
    C160     C        0.59720    0.83950    0.64146    1.000
    O39      O        0.51690    0.83420    0.63677    1.000
    O40      O        0.64990    0.79043    0.64664    1.000
    H112     H        0.87100    0.27500    0.86420    1.000
    Zn9      Zn       0.89089    0.69556    0.35813    1.000
    N33      N        0.90060    0.69330    0.28716    1.000
    C161     C        0.86650    0.74120    0.26272    1.000
    H113     H        0.83900    0.77730    0.27620    1.000
    C162     C        0.86930    0.74090    0.21846    1.000
    H114     H        0.84410    0.77590    0.20290    1.000
    C163     C        0.90980    0.68840    0.19775    1.000
    C164     C        0.94410    0.63770    0.22283    1.000
    H115     H        0.97100    0.60080    0.21010    1.000
    C165     C        0.93840    0.64160    0.26679    1.000
    H116     H        0.96200    0.60670    0.28300    1.000
    C166     C        0.91900    0.68240    0.14980    1.000
    O41      O        0.95140    0.63260    0.13362    1.000
    N34      N        0.88950    0.73550    0.12744    1.000
    N35      N        0.89170    0.73260    0.08330    1.000
    C167     C        0.87800    0.78790    0.06424    1.000
    H117     H        0.86740    0.82670    0.08000    1.000
    C168     C        0.87880    0.79090    0.01764    1.000
    C169     C        0.88430    0.85050    0.99570    1.000
    H118     H        0.88630    0.89070    0.01080    1.000
    C170     C        0.88690    0.85150    0.95120    1.000
    H119     H        0.89360    0.89260    0.93750    1.000
    N36      N        0.88030    0.79760    0.92814    1.000
    C171     C        0.87250    0.73970    0.94920    1.000
    H120     H        0.86770    0.70040    0.93320    1.000
    C172     C        0.87130    0.73460    0.99310    1.000
    H121     H        0.86530    0.69270    0.00600    1.000
    C173     C        0.63670    0.40830    0.35958    1.000
    C174     C        0.72840    0.41440    0.36130    1.000
    H122     H        0.76340    0.37600    0.36290    1.000
    C175     C        0.76780    0.47680    0.36070    1.000
    H123     H        0.82910    0.48050    0.36210    1.000
    C176     C        0.71580    0.53390    0.35806    1.000
    C177     C        0.62470    0.52820    0.35816    1.000
    H124     H        0.58970    0.56660    0.35760    1.000
    C178     C        0.58540    0.46510    0.35907    1.000
    H125     H        0.52410    0.46140    0.35930    1.000
    C179     C        0.75950    0.60190    0.35542    1.000
    O42      O        0.84330    0.60236    0.35877    1.000
    O43      O        0.71460    0.65330    0.35017    1.000
    C180     C        0.59720    0.33950    0.35854    1.000
    O44      O        0.51690    0.33420    0.36323    1.000
    O45      O        0.64990    0.29043    0.35336    1.000
    H126     H        0.87100    0.77500    0.13580    1.000
    Zn10     Zn       0.39089    0.19556    0.85813    1.000
    N37      N        0.40060    0.19330    0.78716    1.000
    C181     C        0.36650    0.24120    0.76272    1.000
    H127     H        0.33900    0.27730    0.77620    1.000
    C182     C        0.36930    0.24090    0.71846    1.000
    H128     H        0.34410    0.27590    0.70290    1.000
    C183     C        0.40980    0.18840    0.69775    1.000
    C184     C        0.44410    0.13770    0.72283    1.000
    H129     H        0.47100    0.10080    0.71010    1.000
    C185     C        0.43840    0.14160    0.76679    1.000
    H130     H        0.46200    0.10670    0.78300    1.000
    C186     C        0.41900    0.18240    0.64980    1.000
    O46      O        0.45140    0.13260    0.63362    1.000
    N38      N        0.38950    0.23550    0.62744    1.000
    N39      N        0.39170    0.23260    0.58330    1.000
    C187     C        0.37800    0.28790    0.56424    1.000
    H131     H        0.36740    0.32670    0.58000    1.000
    C188     C        0.37880    0.29090    0.51764    1.000
    C189     C        0.38430    0.35050    0.49570    1.000
    H132     H        0.38630    0.39070    0.51080    1.000
    C190     C        0.38690    0.35150    0.45120    1.000
    H133     H        0.39360    0.39260    0.43750    1.000
    N40      N        0.38030    0.29760    0.42814    1.000
    C191     C        0.37250    0.23970    0.44920    1.000
    H134     H        0.36770    0.20040    0.43320    1.000
    C192     C        0.37130    0.23460    0.49310    1.000
    H135     H        0.36530    0.19270    0.50600    1.000
    C193     C        0.13670    0.90830    0.85958    1.000
    C194     C        0.22840    0.91440    0.86130    1.000
    H136     H        0.26340    0.87600    0.86290    1.000
    C195     C        0.26780    0.97680    0.86070    1.000
    H137     H        0.32910    0.98050    0.86210    1.000
    C196     C        0.21580    0.03390    0.85806    1.000
    C197     C        0.12470    0.02820    0.85816    1.000
    H138     H        0.08970    0.06660    0.85760    1.000
    C198     C        0.08540    0.96510    0.85907    1.000
    H139     H        0.02410    0.96140    0.85930    1.000
    C199     C        0.25950    0.10190    0.85542    1.000
    O47      O        0.34330    0.10236    0.85877    1.000
    O48      O        0.21460    0.15330    0.85017    1.000
    C200     C        0.09720    0.83950    0.85854    1.000
    O49      O        0.01690    0.83420    0.86323    1.000
    O50      O        0.14990    0.79043    0.85336    1.000
    H140     H        0.37100    0.27500    0.63580    1.000
    Zn11     Zn       0.60911    0.30444    0.85813    1.000
    N41      N        0.59940    0.30670    0.78716    1.000
    C201     C        0.63350    0.25880    0.76272    1.000
    H141     H        0.66100    0.22270    0.77620    1.000
    C202     C        0.63070    0.25910    0.71846    1.000
    H142     H        0.65590    0.22410    0.70290    1.000
    C203     C        0.59020    0.31160    0.69775    1.000
    C204     C        0.55590    0.36230    0.72283    1.000
    H143     H        0.52900    0.39920    0.71010    1.000
    C205     C        0.56160    0.35840    0.76679    1.000
    H144     H        0.53800    0.39330    0.78300    1.000
    C206     C        0.58100    0.31760    0.64980    1.000
    O51      O        0.54860    0.36740    0.63362    1.000
    N42      N        0.61050    0.26450    0.62744    1.000
    N43      N        0.60830    0.26740    0.58330    1.000
    C207     C        0.62200    0.21210    0.56424    1.000
    H145     H        0.63260    0.17330    0.58000    1.000
    C208     C        0.62120    0.20910    0.51764    1.000
    C209     C        0.61570    0.14950    0.49570    1.000
    H146     H        0.61370    0.10930    0.51080    1.000
    C210     C        0.61310    0.14850    0.45120    1.000
    H147     H        0.60640    0.10740    0.43750    1.000
    N44      N        0.61970    0.20240    0.42814    1.000
    C211     C        0.62750    0.26030    0.44920    1.000
    H148     H        0.63230    0.29960    0.43320    1.000
    C212     C        0.62870    0.26540    0.49310    1.000
    H149     H        0.63470    0.30730    0.50600    1.000
    C213     C        0.86330    0.59170    0.85958    1.000
    C214     C        0.77160    0.58560    0.86130    1.000
    H150     H        0.73660    0.62400    0.86290    1.000
    C215     C        0.73220    0.52320    0.86070    1.000
    H151     H        0.67090    0.51950    0.86210    1.000
    C216     C        0.78420    0.46610    0.85806    1.000
    C217     C        0.87530    0.47180    0.85816    1.000
    H152     H        0.91030    0.43340    0.85760    1.000
    C218     C        0.91460    0.53490    0.85907    1.000
    H153     H        0.97590    0.53860    0.85930    1.000
    C219     C        0.74050    0.39810    0.85542    1.000
    O52      O        0.65670    0.39764    0.85877    1.000
    O53      O        0.78540    0.34670    0.85017    1.000
    C220     C        0.90280    0.66050    0.85854    1.000
    O54      O        0.98310    0.66580    0.86323    1.000
    O55      O        0.85010    0.70957    0.85336    1.000
    H154     H        0.62900    0.22500    0.63580    1.000
    Zn12     Zn       0.10911    0.80444    0.35813    1.000
    N45      N        0.09940    0.80670    0.28716    1.000
    C221     C        0.13350    0.75880    0.26272    1.000
    H155     H        0.16100    0.72270    0.27620    1.000
    C222     C        0.13070    0.75910    0.21846    1.000
    H156     H        0.15590    0.72410    0.20290    1.000
    C223     C        0.09020    0.81160    0.19775    1.000
    C224     C        0.05590    0.86230    0.22283    1.000
    H157     H        0.02900    0.89920    0.21010    1.000
    C225     C        0.06160    0.85840    0.26679    1.000
    H158     H        0.03800    0.89330    0.28300    1.000
    C226     C        0.08100    0.81760    0.14980    1.000
    O56      O        0.04860    0.86740    0.13362    1.000
    N46      N        0.11050    0.76450    0.12744    1.000
    N47      N        0.10830    0.76740    0.08330    1.000
    C227     C        0.12200    0.71210    0.06424    1.000
    H159     H        0.13260    0.67330    0.08000    1.000
    C228     C        0.12120    0.70910    0.01764    1.000
    C229     C        0.11570    0.64950    0.99570    1.000
    H160     H        0.11370    0.60930    0.01080    1.000
    C230     C        0.11310    0.64850    0.95120    1.000
    H161     H        0.10640    0.60740    0.93750    1.000
    N48      N        0.11970    0.70240    0.92814    1.000
    C231     C        0.12750    0.76030    0.94920    1.000
    H162     H        0.13230    0.79960    0.93320    1.000
    C232     C        0.12870    0.76540    0.99310    1.000
    H163     H        0.13470    0.80730    0.00600    1.000
    C233     C        0.36330    0.09170    0.35958    1.000
    C234     C        0.27160    0.08560    0.36130    1.000
    H164     H        0.23660    0.12400    0.36290    1.000
    C235     C        0.23220    0.02320    0.36070    1.000
    H165     H        0.17090    0.01950    0.36210    1.000
    C236     C        0.28420    0.96610    0.35806    1.000
    C237     C        0.37530    0.97180    0.35816    1.000
    H166     H        0.41030    0.93340    0.35760    1.000
    C238     C        0.41460    0.03490    0.35907    1.000
    H167     H        0.47590    0.03860    0.35930    1.000
    C239     C        0.24050    0.89810    0.35542    1.000
    O57      O        0.15670    0.89764    0.35877    1.000
    O58      O        0.28540    0.84670    0.35017    1.000
    C240     C        0.40280    0.16050    0.35854    1.000
    O59      O        0.48310    0.16580    0.36323    1.000
    O60      O        0.35010    0.20957    0.35336    1.000
    H168     H        0.12900    0.72500    0.13580    1.000
    Zn13     Zn       0.89089    0.80444    0.85813    1.000
    N49      N        0.90060    0.80670    0.78716    1.000
    C241     C        0.86650    0.75880    0.76272    1.000
    H169     H        0.83900    0.72270    0.77620    1.000
    C242     C        0.86930    0.75910    0.71846    1.000
    H170     H        0.84410    0.72410    0.70290    1.000
    C243     C        0.90980    0.81160    0.69775    1.000
    C244     C        0.94410    0.86230    0.72283    1.000
    H171     H        0.97100    0.89920    0.71010    1.000
    C245     C        0.93840    0.85840    0.76679    1.000
    H172     H        0.96200    0.89330    0.78300    1.000
    C246     C        0.91900    0.81760    0.64980    1.000
    O61      O        0.95140    0.86740    0.63362    1.000
    N50      N        0.88950    0.76450    0.62744    1.000
    N51      N        0.89170    0.76740    0.58330    1.000
    C247     C        0.87800    0.71210    0.56424    1.000
    H173     H        0.86740    0.67330    0.58000    1.000
    C248     C        0.87880    0.70910    0.51764    1.000
    C249     C        0.88430    0.64950    0.49570    1.000
    H174     H        0.88630    0.60930    0.51080    1.000
    C250     C        0.88690    0.64850    0.45120    1.000
    H175     H        0.89360    0.60740    0.43750    1.000
    N52      N        0.88030    0.70240    0.42814    1.000
    C251     C        0.87250    0.76030    0.44920    1.000
    H176     H        0.86770    0.79960    0.43320    1.000
    C252     C        0.87130    0.76540    0.49310    1.000
    H177     H        0.86530    0.80730    0.50600    1.000
    C253     C        0.63670    0.09170    0.85958    1.000
    C254     C        0.72840    0.08560    0.86130    1.000
    H178     H        0.76340    0.12400    0.86290    1.000
    C255     C        0.76780    0.02320    0.86070    1.000
    H179     H        0.82910    0.01950    0.86210    1.000
    C256     C        0.71580    0.96610    0.85806    1.000
    C257     C        0.62470    0.97180    0.85816    1.000
    H180     H        0.58970    0.93340    0.85760    1.000
    C258     C        0.58540    0.03490    0.85907    1.000
    H181     H        0.52410    0.03860    0.85930    1.000
    C259     C        0.75950    0.89810    0.85542    1.000
    O62      O        0.84330    0.89764    0.85877    1.000
    O63      O        0.71460    0.84670    0.85017    1.000
    C260     C        0.59720    0.16050    0.85854    1.000
    O64      O        0.51690    0.16580    0.86323    1.000
    O65      O        0.64990    0.20957    0.85336    1.000
    H182     H        0.87100    0.72500    0.63580    1.000
    Zn14     Zn       0.39089    0.30444    0.35813    1.000
    N53      N        0.40060    0.30670    0.28716    1.000
    C261     C        0.36650    0.25880    0.26272    1.000
    H183     H        0.33900    0.22270    0.27620    1.000
    C262     C        0.36930    0.25910    0.21846    1.000
    H184     H        0.34410    0.22410    0.20290    1.000
    C263     C        0.40980    0.31160    0.19775    1.000
    C264     C        0.44410    0.36230    0.22283    1.000
    H185     H        0.47100    0.39920    0.21010    1.000
    C265     C        0.43840    0.35840    0.26679    1.000
    H186     H        0.46200    0.39330    0.28300    1.000
    C266     C        0.41900    0.31760    0.14980    1.000
    O66      O        0.45140    0.36740    0.13362    1.000
    N54      N        0.38950    0.26450    0.12744    1.000
    N55      N        0.39170    0.26740    0.08330    1.000
    C267     C        0.37800    0.21210    0.06424    1.000
    H187     H        0.36740    0.17330    0.08000    1.000
    C268     C        0.37880    0.20910    0.01764    1.000
    C269     C        0.38430    0.14950    0.99570    1.000
    H188     H        0.38630    0.10930    0.01080    1.000
    C270     C        0.38690    0.14850    0.95120    1.000
    H189     H        0.39360    0.10740    0.93750    1.000
    N56      N        0.38030    0.20240    0.92814    1.000
    C271     C        0.37250    0.26030    0.94920    1.000
    H190     H        0.36770    0.29960    0.93320    1.000
    C272     C        0.37130    0.26540    0.99310    1.000
    H191     H        0.36530    0.30730    0.00600    1.000
    C273     C        0.13670    0.59170    0.35958    1.000
    C274     C        0.22840    0.58560    0.36130    1.000
    H192     H        0.26340    0.62400    0.36290    1.000
    C275     C        0.26780    0.52320    0.36070    1.000
    H193     H        0.32910    0.51950    0.36210    1.000
    C276     C        0.21580    0.46610    0.35806    1.000
    C277     C        0.12470    0.47180    0.35816    1.000
    H194     H        0.08970    0.43340    0.35760    1.000
    C278     C        0.08540    0.53490    0.35907    1.000
    H195     H        0.02410    0.53860    0.35930    1.000
    C279     C        0.25950    0.39810    0.35542    1.000
    O67      O        0.34330    0.39764    0.35877    1.000
    O68      O        0.21460    0.34670    0.35017    1.000
    C280     C        0.09720    0.66050    0.35854    1.000
    O69      O        0.01690    0.66580    0.36323    1.000
    O70      O        0.14990    0.70957    0.35336    1.000
    H196     H        0.37100    0.22500    0.13580    1.000
    Zn15     Zn       0.60911    0.19556    0.35813    1.000
    N57      N        0.59940    0.19330    0.28716    1.000
    C281     C        0.63350    0.24120    0.26272    1.000
    H197     H        0.66100    0.27730    0.27620    1.000
    C282     C        0.63070    0.24090    0.21846    1.000
    H198     H        0.65590    0.27590    0.20290    1.000
    C283     C        0.59020    0.18840    0.19775    1.000
    C284     C        0.55590    0.13770    0.22283    1.000
    H199     H        0.52900    0.10080    0.21010    1.000
    C285     C        0.56160    0.14160    0.26679    1.000
    H200     H        0.53800    0.10670    0.28300    1.000
    C286     C        0.58100    0.18240    0.14980    1.000
    O71      O        0.54860    0.13260    0.13362    1.000
    N58      N        0.61050    0.23550    0.12744    1.000
    N59      N        0.60830    0.23260    0.08330    1.000
    C287     C        0.62200    0.28790    0.06424    1.000
    H201     H        0.63260    0.32670    0.08000    1.000
    C288     C        0.62120    0.29090    0.01764    1.000
    C289     C        0.61570    0.35050    0.99570    1.000
    H202     H        0.61370    0.39070    0.01080    1.000
    C290     C        0.61310    0.35150    0.95120    1.000
    H203     H        0.60640    0.39260    0.93750    1.000
    N60      N        0.61970    0.29760    0.92814    1.000
    C291     C        0.62750    0.23970    0.94920    1.000
    H204     H        0.63230    0.20040    0.93320    1.000
    C292     C        0.62870    0.23460    0.99310    1.000
    H205     H        0.63470    0.19270    0.00600    1.000
    C293     C        0.86330    0.90830    0.35958    1.000
    C294     C        0.77160    0.91440    0.36130    1.000
    H206     H        0.73660    0.87600    0.36290    1.000
    C295     C        0.73220    0.97680    0.36070    1.000
    H207     H        0.67090    0.98050    0.36210    1.000
    C296     C        0.78420    0.03390    0.35806    1.000
    C297     C        0.87530    0.02820    0.35816    1.000
    H208     H        0.91030    0.06660    0.35760    1.000
    C298     C        0.91460    0.96510    0.35907    1.000
    H209     H        0.97590    0.96140    0.35930    1.000
    C299     C        0.74050    0.10190    0.35542    1.000
    O72      O        0.65670    0.10236    0.35877    1.000
    O73      O        0.78540    0.15330    0.35017    1.000
    C300     C        0.90280    0.83950    0.35854    1.000
    O74      O        0.98310    0.83420    0.36323    1.000
    O75      O        0.85010    0.79043    0.35336    1.000
    H210     H        0.62900    0.27500    0.13580    1.000
    Zn16     Zn       0.10911    0.69556    0.85813    1.000
    N61      N        0.09940    0.69330    0.78716    1.000
    C301     C        0.13350    0.74120    0.76272    1.000
    H211     H        0.16100    0.77730    0.77620    1.000
    C302     C        0.13070    0.74090    0.71846    1.000
    H212     H        0.15590    0.77590    0.70290    1.000
    C303     C        0.09020    0.68840    0.69775    1.000
    C304     C        0.05590    0.63770    0.72283    1.000
    H213     H        0.02900    0.60080    0.71010    1.000
    C305     C        0.06160    0.64160    0.76679    1.000
    H214     H        0.03800    0.60670    0.78300    1.000
    C306     C        0.08100    0.68240    0.64980    1.000
    O76      O        0.04860    0.63260    0.63362    1.000
    N62      N        0.11050    0.73550    0.62744    1.000
    N63      N        0.10830    0.73260    0.58330    1.000
    C307     C        0.12200    0.78790    0.56424    1.000
    H215     H        0.13260    0.82670    0.58000    1.000
    C308     C        0.12120    0.79090    0.51764    1.000
    C309     C        0.11570    0.85050    0.49570    1.000
    H216     H        0.11370    0.89070    0.51080    1.000
    C310     C        0.11310    0.85150    0.45120    1.000
    H217     H        0.10640    0.89260    0.43750    1.000
    N64      N        0.11970    0.79760    0.42814    1.000
    C311     C        0.12750    0.73970    0.44920    1.000
    H218     H        0.13230    0.70040    0.43320    1.000
    C312     C        0.12870    0.73460    0.49310    1.000
    H219     H        0.13470    0.69270    0.50600    1.000
    C313     C        0.36330    0.40830    0.85958    1.000
    C314     C        0.27160    0.41440    0.86130    1.000
    H220     H        0.23660    0.37600    0.86290    1.000
    C315     C        0.23220    0.47680    0.86070    1.000
    H221     H        0.17090    0.48050    0.86210    1.000
    C316     C        0.28420    0.53390    0.85806    1.000
    C317     C        0.37530    0.52820    0.85816    1.000
    H222     H        0.41030    0.56660    0.85760    1.000
    C318     C        0.41460    0.46510    0.85907    1.000
    H223     H        0.47590    0.46140    0.85930    1.000
    C319     C        0.24050    0.60190    0.85542    1.000
    O77      O        0.15670    0.60236    0.85877    1.000
    O78      O        0.28540    0.65330    0.85017    1.000
    C320     C        0.40280    0.33950    0.85854    1.000
    O79      O        0.48310    0.33420    0.86323    1.000
    O80      O        0.35010    0.29043    0.85336    1.000
    H224     H        0.12900    0.77500    0.63580    1.000
