# CIF file generated by openbabel 3.1.0, see https://openbabel.org
data_I
_chemical_name_common 'image0'
_cell_length_a 17.8476
_cell_length_b 17.8476
_cell_length_c 13.5159
_cell_angle_alpha 90
_cell_angle_beta 90
_cell_angle_gamma 120
_space_group_name_H-M_alt 'P 1'
_space_group_name_Hall 'P 1'
loop_
    _symmetry_equiv_pos_as_xyz
    x,y,z
loop_
    _atom_site_label
    _atom_site_type_symbol
    _atom_site_fract_x
    _atom_site_fract_y
    _atom_site_fract_z
    _atom_site_occupancy
    Ga1      Ga       0.87483    0.64120    0.58602    1.000
    F1       F        0.76349    0.59356    0.65566    1.000
    F2       F        0.83856    0.54541    0.50560    1.000
    O1       O        0.90880    0.59370    0.69480    1.000
    O2       O        0.96830    0.62510    0.86780    1.000
    O3       O        0.83910    0.63810    0.83300    1.000
    P1       P        0.88701    0.59055    0.80421    1.000
    H1       H        0.83100    0.50100    0.82800    1.000
    Ga2      Ga       0.54150    0.97453    0.91935    1.000
    F3       F        0.43016    0.92689    0.98899    1.000
    F4       F        0.50523    0.87874    0.83893    1.000
    O4       O        0.57547    0.92703    0.02813    1.000
    O5       O        0.63497    0.95843    0.20113    1.000
    O6       O        0.50577    0.97143    0.16633    1.000
    P2       P        0.55368    0.92388    0.13754    1.000
    H2       H        0.49767    0.83433    0.16133    1.000
    Ga3      Ga       0.20816    0.30787    0.25269    1.000
    F5       F        0.09682    0.26023    0.32233    1.000
    F6       F        0.17189    0.21208    0.17227    1.000
    O7       O        0.24213    0.26037    0.36147    1.000
    O8       O        0.30163    0.29177    0.53447    1.000
    O9       O        0.17243    0.30477    0.49967    1.000
    P3       P        0.22034    0.25722    0.47088    1.000
    H3       H        0.16433    0.16767    0.49467    1.000
    Ga4      Ga       0.35880    0.23363    0.58602    1.000
    F7       F        0.40644    0.16993    0.65566    1.000
    F8       F        0.45459    0.29315    0.50560    1.000
    O10      O        0.40630    0.31510    0.69480    1.000
    O11      O        0.37490    0.34320    0.86780    1.000
    O12      O        0.36190    0.20100    0.83300    1.000
    P4       P        0.40945    0.29646    0.80421    1.000
    H4       H        0.49900    0.33000    0.82800    1.000
    Ga5      Ga       0.02547    0.56696    0.91935    1.000
    F9       F        0.07311    0.50326    0.98899    1.000
    F10      F        0.12126    0.62648    0.83893    1.000
    O13      O        0.07297    0.64843    0.02813    1.000
    O14      O        0.04157    0.67653    0.20113    1.000
    O15      O        0.02857    0.53433    0.16633    1.000
    P5       P        0.07612    0.62979    0.13754    1.000
    H5       H        0.16567    0.66333    0.16133    1.000
    Ga6      Ga       0.69213    0.90030    0.25269    1.000
    F11      F        0.73977    0.83660    0.32233    1.000
    F12      F        0.78792    0.95982    0.17227    1.000
    O16      O        0.73963    0.98177    0.36147    1.000
    O17      O        0.70823    0.00987    0.53447    1.000
    O18      O        0.69523    0.86767    0.49967    1.000
    P6       P        0.74278    0.96313    0.47088    1.000
    H6       H        0.83233    0.99667    0.49467    1.000
    Ga7      Ga       0.76637    0.12517    0.58602    1.000
    F13      F        0.83007    0.23651    0.65566    1.000
    F14      F        0.70685    0.16144    0.50560    1.000
    O19      O        0.68490    0.09120    0.69480    1.000
    O20      O        0.65680    0.03170    0.86780    1.000
    O21      O        0.79900    0.16090    0.83300    1.000
    P7       P        0.70354    0.11299    0.80421    1.000
    H7       H        0.67000    0.16900    0.82800    1.000
    Ga8      Ga       0.43304    0.45850    0.91935    1.000
    F15      F        0.49674    0.56984    0.98899    1.000
    F16      F        0.37352    0.49477    0.83893    1.000
    O22      O        0.35157    0.42453    0.02813    1.000
    O23      O        0.32347    0.36503    0.20113    1.000
    O24      O        0.46567    0.49423    0.16633    1.000
    P8       P        0.37021    0.44632    0.13754    1.000
    H8       H        0.33667    0.50233    0.16133    1.000
    Ga9      Ga       0.09970    0.79184    0.25269    1.000
    F17      F        0.16340    0.90318    0.32233    1.000
    F18      F        0.04018    0.82811    0.17227    1.000
    O25      O        0.01823    0.75787    0.36147    1.000
    O26      O        0.99013    0.69837    0.53447    1.000
    O27      O        0.13233    0.82757    0.49967    1.000
    P9       P        0.03687    0.77966    0.47088    1.000
    H9       H        0.00333    0.83567    0.49467    1.000
    Ga10     Ga       0.12517    0.35880    0.41398    1.000
    F19      F        0.23651    0.40644    0.34434    1.000
    F20      F        0.16144    0.45459    0.49440    1.000
    O28      O        0.09120    0.40630    0.30520    1.000
    O29      O        0.03170    0.37490    0.13220    1.000
    O30      O        0.16090    0.36190    0.16700    1.000
    P10      P        0.11299    0.40945    0.19579    1.000
    H10      H        0.16900    0.49900    0.17200    1.000
    Ga11     Ga       0.79184    0.69213    0.74731    1.000
    F21      F        0.90318    0.73977    0.67767    1.000
    F22      F        0.82811    0.78792    0.82773    1.000
    O31      O        0.75787    0.73963    0.63853    1.000
    O32      O        0.69837    0.70823    0.46553    1.000
    O33      O        0.82757    0.69523    0.50033    1.000
    P11      P        0.77966    0.74278    0.52912    1.000
    H11      H        0.83567    0.83233    0.50533    1.000
    Ga12     Ga       0.45850    0.02547    0.08065    1.000
    F23      F        0.56984    0.07311    0.01101    1.000
    F24      F        0.49477    0.12126    0.16107    1.000
    O34      O        0.42453    0.07297    0.97187    1.000
    O35      O        0.36503    0.04157    0.79887    1.000
    O36      O        0.49423    0.02857    0.83367    1.000
    P12      P        0.44632    0.07612    0.86246    1.000
    H12      H        0.50233    0.16567    0.83867    1.000
    Ga13     Ga       0.64120    0.76637    0.41398    1.000
    F25      F        0.59356    0.83007    0.34434    1.000
    F26      F        0.54541    0.70685    0.49440    1.000
    O37      O        0.59370    0.68490    0.30520    1.000
    O38      O        0.62510    0.65680    0.13220    1.000
    O39      O        0.63810    0.79900    0.16700    1.000
    P13      P        0.59055    0.70354    0.19579    1.000
    H13      H        0.50100    0.67000    0.17200    1.000
    Ga14     Ga       0.30787    0.09970    0.74731    1.000
    F27      F        0.26023    0.16340    0.67767    1.000
    F28      F        0.21208    0.04018    0.82773    1.000
    O40      O        0.26037    0.01823    0.63853    1.000
    O41      O        0.29177    0.99013    0.46553    1.000
    O42      O        0.30477    0.13233    0.50033    1.000
    P14      P        0.25722    0.03687    0.52912    1.000
    H14      H        0.16767    0.00333    0.50533    1.000
    Ga15     Ga       0.97453    0.43304    0.08065    1.000
    F29      F        0.92689    0.49674    0.01101    1.000
    F30      F        0.87874    0.37352    0.16107    1.000
    O43      O        0.92703    0.35157    0.97187    1.000
    O44      O        0.95843    0.32347    0.79887    1.000
    O45      O        0.97143    0.46567    0.83367    1.000
    P15      P        0.92388    0.37021    0.86246    1.000
    H15      H        0.83433    0.33667    0.83867    1.000
    Ga16     Ga       0.23363    0.87483    0.41398    1.000
    F31      F        0.16993    0.76349    0.34434    1.000
    F32      F        0.29315    0.83856    0.49440    1.000
    O46      O        0.31510    0.90880    0.30520    1.000
    O47      O        0.34320    0.96830    0.13220    1.000
    O48      O        0.20100    0.83910    0.16700    1.000
    P16      P        0.29646    0.88701    0.19579    1.000
    H16      H        0.33000    0.83100    0.17200    1.000
    Ga17     Ga       0.90030    0.20816    0.74731    1.000
    F33      F        0.83660    0.09682    0.67767    1.000
    F34      F        0.95982    0.17189    0.82773    1.000
    O49      O        0.98177    0.24213    0.63853    1.000
    O50      O        0.00987    0.30163    0.46553    1.000
    O51      O        0.86767    0.17243    0.50033    1.000
    P17      P        0.96313    0.22034    0.52912    1.000
    H17      H        0.99667    0.16433    0.50533    1.000
    Ga18     Ga       0.56696    0.54150    0.08065    1.000
    F35      F        0.50326    0.43016    0.01101    1.000
    F36      F        0.62648    0.50523    0.16107    1.000
    O52      O        0.64843    0.57547    0.97187    1.000
    O53      O        0.67653    0.63497    0.79887    1.000
    O54      O        0.53433    0.50577    0.83367    1.000
    P18      P        0.62979    0.55368    0.86246    1.000
    H18      H        0.66333    0.49767    0.83867    1.000
