data_functionalizedCrystal
_audit_creation_method	'EQeq! by Chris Wilmer'
_symmetry_space_group_name_H-M	'P1'
_symmetry_Int_Tables_number	1
_symmetry_cell_setting	triclinic
loop_
_symmetry_equiv_pos_as_xyz
  x,y,z
_cell_length_a	19.4254
_cell_length_b	21.878
_cell_length_c	15.578
_cell_angle_alpha	90
_cell_angle_beta	90
_cell_angle_gamma	90
loop_
_atom_site_label
_atom_site_type_symbol
_atom_site_fract_x
_atom_site_fract_y
_atom_site_fract_z
_atom_site_charge
Mof_N 	N 	0.44043	0.59959	0.59947	-0.226
Mof_C 	C 	0.4437	0.7266	0.596	0.052
Mof_C 	C 	0.4465	0.7942	0.5991	0.117
Mof_C 	C 	0.3949	0.6299	0.5548	0.078
Mof_H 	H 	0.361	0.6084	0.5254	0.006
Mof_N 	N 	0.3999	0.82994	0.5625	-0.221
Mof_H 	H 	0.3617	0.8187	0.5395	0.132
Mof_N 	N 	0.4963	0.82601	0.632	-0.092
Mof_C 	C 	0.4873	0.6313	0.6419	0.09
Mof_H 	H 	0.5211	0.61	0.672	0.003
Mof_C 	C 	0.3955	0.6949	0.5496	-0.121
Mof_H 	H 	0.3638	0.7154	0.5154	0.075
Mof_C 	C 	0.4887	0.6923	0.6438	-0.135
Mof_H 	H 	0.5209	0.712	0.6783	0.089
Mof_N 	N 	0.4851	0.8853	0.627	-0.08
Mof_C 	C 	0.4245	0.8883	0.5687	0.129
Mof_C 	C 	0.3958	0.9468	0.5597	-0.055
Mof_C 	C 	0.3289	0.9478	0.5233	0.034
Mof_H 	H 	0.3044	0.9114	0.5189	0.031
Mof_N 	N 	0.55957	0.59959	0.40053	-0.227
Mof_C 	C 	0.5563	0.7266	0.404	0.051
Mof_C 	C 	0.5535	0.7942	0.4009	0.116
Mof_C 	C 	0.6051	0.6299	0.4452	0.077
Mof_H 	H 	0.639	0.6084	0.4746	0.006
Mof_N 	N 	0.6001	0.82994	0.4375	-0.221
Mof_H 	H 	0.6383	0.8187	0.4605	0.132
Mof_N 	N 	0.5037	0.82601	0.368	-0.092
Mof_C 	C 	0.5127	0.6313	0.3581	0.09
Mof_H 	H 	0.4789	0.61	0.328	0.003
Mof_C 	C 	0.6045	0.6949	0.4504	-0.121
Mof_H 	H 	0.6362	0.7154	0.4846	0.075
Mof_C 	C 	0.5113	0.6923	0.3562	-0.135
Mof_H 	H 	0.4791	0.712	0.3217	0.089
Mof_N 	N 	0.5149	0.8853	0.373	-0.08
Mof_C 	C 	0.5755	0.8883	0.4313	0.129
Mof_C 	C 	0.6042	0.9468	0.4403	-0.055
Mof_C 	C 	0.6711	0.9478	0.4767	0.034
Mof_H 	H 	0.6956	0.9114	0.4811	0.031
Mof_N 	N 	0.05957	0.40041	0.09947	-0.227
Mof_C 	C 	0.0563	0.2734	0.096	0.052
Mof_C 	C 	0.0535	0.2058	0.0991	0.116
Mof_C 	C 	0.1051	0.3701	0.0548	0.077
Mof_H 	H 	0.139	0.3916	0.0254	0.006
Mof_N 	N 	0.1001	0.17006	0.0625	-0.221
Mof_H 	H 	0.1383	0.1813	0.0395	0.132
Mof_N 	N 	0.0037	0.17399	0.132	-0.092
Mof_C 	C 	0.0127	0.3687	0.1419	0.088
Mof_H 	H 	0.9789	0.39	0.172	0.005
Mof_C 	C 	0.1045	0.3051	0.0496	-0.122
Mof_H 	H 	0.1362	0.2846	0.0154	0.075
Mof_C 	C 	0.0113	0.3077	0.1438	-0.138
Mof_H 	H 	0.9791	0.288	0.1783	0.091
Mof_N 	N 	0.0149	0.1147	0.127	-0.079
Mof_C 	C 	0.0755	0.1117	0.0687	0.129
Mof_C 	C 	0.1042	0.0532	0.0597	-0.05
Mof_C 	C 	0.1711	0.0522	0.0233	0.038
Mof_H 	H 	0.1956	0.0886	0.0189	0.031
Mof_N 	N 	0.94043	0.40041	0.90053	-0.227
Mof_C 	C 	0.9437	0.2734	0.904	0.052
Mof_C 	C 	0.9465	0.2058	0.9009	0.116
Mof_C 	C 	0.8949	0.3701	0.9452	0.077
Mof_H 	H 	0.861	0.3916	0.9746	0.006
Mof_N 	N 	0.8999	0.17006	0.9375	-0.221
Mof_H 	H 	0.8617	0.1813	0.9605	0.132
Mof_N 	N 	0.9963	0.17399	0.868	-0.092
Mof_C 	C 	0.9873	0.3687	0.8581	0.088
Mof_H 	H 	0.0211	0.39	0.828	0.005
Mof_C 	C 	0.8955	0.3051	0.9504	-0.122
Mof_H 	H 	0.8638	0.2846	0.9846	0.075
Mof_C 	C 	0.9887	0.3077	0.8562	-0.138
Mof_H 	H 	0.0209	0.288	0.8217	0.091
Mof_N 	N 	0.9851	0.1147	0.873	-0.079
Mof_C 	C 	0.9245	0.1117	0.9313	0.129
Mof_C 	C 	0.8958	0.0532	0.9403	-0.05
Mof_C 	C 	0.8289	0.0522	0.9767	0.038
Mof_H 	H 	0.8044	0.0886	0.9811	0.031
Mof_N 	N 	0.55957	0.40041	0.40053	-0.227
Mof_C 	C 	0.5563	0.2734	0.404	0.052
Mof_C 	C 	0.5535	0.2058	0.4009	0.117
Mof_C 	C 	0.6051	0.3701	0.4452	0.077
Mof_H 	H 	0.639	0.3916	0.4746	0.006
Mof_N 	N 	0.6001	0.17006	0.4375	-0.221
Mof_H 	H 	0.6383	0.1813	0.4605	0.133
Mof_N 	N 	0.5037	0.17399	0.368	-0.092
Mof_C 	C 	0.5127	0.3687	0.3581	0.09
Mof_H 	H 	0.4789	0.39	0.328	0.003
Mof_C 	C 	0.6045	0.3051	0.4504	-0.121
Mof_H 	H 	0.6362	0.2846	0.4846	0.076
Mof_C 	C 	0.5113	0.3077	0.3562	-0.136
Mof_H 	H 	0.4791	0.288	0.3217	0.089
Mof_N 	N 	0.5149	0.1147	0.373	-0.079
Mof_C 	C 	0.5755	0.1117	0.4313	0.129
Mof_C 	C 	0.6042	0.0532	0.4403	-0.051
Mof_C 	C 	0.6711	0.0522	0.4767	0.039
Mof_H 	H 	0.6956	0.0886	0.4811	0.03
Mof_N 	N 	0.44043	0.40041	0.59947	-0.227
Mof_C 	C 	0.4437	0.2734	0.596	0.052
Mof_C 	C 	0.4465	0.2058	0.5991	0.117
Mof_C 	C 	0.3949	0.3701	0.5548	0.077
Mof_H 	H 	0.361	0.3916	0.5254	0.006
Mof_N 	N 	0.3999	0.17006	0.5625	-0.221
Mof_H 	H 	0.3617	0.1813	0.5395	0.133
Mof_N 	N 	0.4963	0.17399	0.632	-0.092
Mof_C 	C 	0.4873	0.3687	0.6419	0.09
Mof_H 	H 	0.5211	0.39	0.672	0.003
Mof_C 	C 	0.3955	0.3051	0.5496	-0.121
Mof_H 	H 	0.3638	0.2846	0.5154	0.076
Mof_C 	C 	0.4887	0.3077	0.6438	-0.136
Mof_H 	H 	0.5209	0.288	0.6783	0.089
Mof_N 	N 	0.4851	0.1147	0.627	-0.079
Mof_C 	C 	0.4245	0.1117	0.5687	0.129
Mof_C 	C 	0.3958	0.0532	0.5597	-0.051
Mof_C 	C 	0.3289	0.0522	0.5233	0.039
Mof_H 	H 	0.3044	0.0886	0.5189	0.03
Mof_N 	N 	0.94043	0.59959	0.90053	-0.227
Mof_C 	C 	0.9437	0.7266	0.904	0.052
Mof_C 	C 	0.9465	0.7942	0.9009	0.116
Mof_C 	C 	0.8949	0.6299	0.9452	0.077
Mof_H 	H 	0.861	0.6084	0.9746	0.006
Mof_N 	N 	0.8999	0.82994	0.9375	-0.221
Mof_H 	H 	0.8617	0.8187	0.9605	0.132
Mof_N 	N 	0.9963	0.82601	0.868	-0.092
Mof_C 	C 	0.9873	0.6313	0.8581	0.088
Mof_H 	H 	0.0211	0.61	0.828	0.005
Mof_C 	C 	0.8955	0.6949	0.9504	-0.122
Mof_H 	H 	0.8638	0.7154	0.9846	0.075
Mof_C 	C 	0.9887	0.6923	0.8562	-0.138
Mof_H 	H 	0.0209	0.712	0.8217	0.091
Mof_N 	N 	0.9851	0.8853	0.873	-0.08
Mof_C 	C 	0.9245	0.8883	0.9313	0.129
Mof_C 	C 	0.8958	0.9468	0.9403	-0.053
Mof_C 	C 	0.8289	0.9478	0.9767	0.033
Mof_H 	H 	0.8044	0.9114	0.9811	0.031
Mof_N 	N 	0.05957	0.59959	0.09947	-0.227
Mof_C 	C 	0.0563	0.7266	0.096	0.052
Mof_C 	C 	0.0535	0.7942	0.0991	0.116
Mof_C 	C 	0.1051	0.6299	0.0548	0.077
Mof_H 	H 	0.139	0.6084	0.0254	0.006
Mof_N 	N 	0.1001	0.82994	0.0625	-0.221
Mof_H 	H 	0.1383	0.8187	0.0395	0.132
Mof_N 	N 	0.0037	0.82601	0.132	-0.092
Mof_C 	C 	0.0127	0.6313	0.1419	0.088
Mof_H 	H 	0.9789	0.61	0.172	0.005
Mof_C 	C 	0.1045	0.6949	0.0496	-0.122
Mof_H 	H 	0.1362	0.7154	0.0154	0.075
Mof_C 	C 	0.0113	0.6923	0.1438	-0.138
Mof_H 	H 	0.9791	0.712	0.1783	0.091
Mof_N 	N 	0.0149	0.8853	0.127	-0.08
Mof_C 	C 	0.0755	0.8883	0.0687	0.129
Mof_C 	C 	0.1042	0.9468	0.0597	-0.053
Mof_C 	C 	0.1711	0.9478	0.0233	0.033
Mof_H 	H 	0.1956	0.9114	0.0189	0.031
Mof_Co	Co	0.43996	0.5	0.59942	1.169
Mof_O 	O 	0.03646	0.5	0.8472	-0.427
Mof_C 	C 	0.0878	0.5	0.8982	0.383
Mof_O 	O 	0.0844	0.5	0.9791	-0.489
Mof_O 	O 	0.3969	0.5	0.741	-0.377
Mof_C 	C 	0.2793	0.5	0.8559	-0.045
Mof_H 	H 	0.3209	0.5	0.8855	0.065
Mof_C 	C 	0.28	0.5	0.7659	-0.033
Mof_C 	C 	0.2189	0.5	0.7282	-0.054
Mof_H 	H 	0.2181	0.5	0.6685	0.07
Mof_C 	C 	0.2165	0.5	0.9035	0.006
Mof_H 	H 	0.2167	0.5	0.9632	0.048
Mof_C 	C 	0.1549	0.5	0.8575	-0.11
Mof_C 	C 	0.1588	0.5	0.7686	0.017
Mof_H 	H 	0.1184	0.5	0.7366	0.047
Mof_O 	O 	0.3311	0.5	0.6236	-0.348
Mof_C 	C 	0.3462	0.5	0.7134	0.309
Mof_Co	Co	0.56004	0.5	0.40058	1.169
Mof_O 	O 	0.96354	0.5	0.1528	-0.427
Mof_C 	C 	0.9122	0.5	0.1018	0.383
Mof_O 	O 	0.9156	0.5	0.0209	-0.489
Mof_O 	O 	0.6031	0.5	0.259	-0.377
Mof_C 	C 	0.7207	0.5	0.1441	-0.045
Mof_H 	H 	0.6791	0.5	0.1145	0.065
Mof_C 	C 	0.72	0.5	0.2341	-0.033
Mof_C 	C 	0.7811	0.5	0.2718	-0.054
Mof_H 	H 	0.7819	0.5	0.3315	0.07
Mof_C 	C 	0.7835	0.5	0.0965	0.006
Mof_H 	H 	0.7833	0.5	0.0368	0.048
Mof_C 	C 	0.8451	0.5	0.1425	-0.11
Mof_C 	C 	0.8412	0.5	0.2314	0.017
Mof_H 	H 	0.8816	0.5	0.2634	0.047
Mof_O 	O 	0.6689	0.5	0.3764	-0.348
Mof_C 	C 	0.6538	0.5	0.2866	0.309
Mof_Co	Co	0.06004	0.5	0.09942	1.168
Mof_O 	O 	0.46354	0.5	0.3472	-0.428
Mof_C 	C 	0.4122	0.5	0.3982	0.383
Mof_O 	O 	0.4156	0.5	0.4791	-0.49
Mof_O 	O 	0.1031	0.5	0.241	-0.378
Mof_C 	C 	0.2207	0.5	0.3559	-0.045
Mof_H 	H 	0.1791	0.5	0.3855	0.065
Mof_C 	C 	0.22	0.5	0.2659	-0.034
Mof_C 	C 	0.2811	0.5	0.2282	-0.054
Mof_H 	H 	0.2819	0.5	0.1685	0.07
Mof_C 	C 	0.2835	0.5	0.4035	0.006
Mof_H 	H 	0.2833	0.5	0.4632	0.048
Mof_C 	C 	0.3451	0.5	0.3575	-0.11
Mof_C 	C 	0.3412	0.5	0.2686	0.017
Mof_H 	H 	0.3816	0.5	0.2366	0.047
Mof_O 	O 	0.1689	0.5	0.1236	-0.348
Mof_C 	C 	0.1538	0.5	0.2134	0.309
Mof_Co	Co	0.93996	0.5	0.90058	1.168
Mof_O 	O 	0.53646	0.5	0.6528	-0.428
Mof_C 	C 	0.5878	0.5	0.6018	0.383
Mof_O 	O 	0.5844	0.5	0.5209	-0.49
Mof_O 	O 	0.8969	0.5	0.759	-0.378
Mof_C 	C 	0.7793	0.5	0.6441	-0.045
Mof_H 	H 	0.8209	0.5	0.6145	0.065
Mof_C 	C 	0.78	0.5	0.7341	-0.034
Mof_C 	C 	0.7189	0.5	0.7718	-0.054
Mof_H 	H 	0.7181	0.5	0.8315	0.07
Mof_C 	C 	0.7165	0.5	0.5965	0.006
Mof_H 	H 	0.7167	0.5	0.5368	0.048
Mof_C 	C 	0.6549	0.5	0.6425	-0.11
Mof_C 	C 	0.6588	0.5	0.7314	0.017
Mof_H 	H 	0.6184	0.5	0.7634	0.047
Mof_O 	O 	0.8311	0.5	0.8764	-0.348
Mof_C 	C 	0.8462	0.5	0.7866	0.309
Mof_C 	C 	0.4224	3.81295e-33	0.5756	0.008
Mof_H 	H 	0.4656	3.81295e-33	0.6014	0.054
Mof_N 	N 	0.2999	3.81295e-33	0.4948	-0.106
Mof_C 	C 	0.5776	0	0.4244	0.008
Mof_H 	H 	0.5344	3.81295e-33	0.3986	0.054
Mof_N 	N 	0.7001	0	0.5052	-0.106
Mof_C 	C 	0.0776	4.76619e-34	0.0756	0.006
Mof_H 	H 	0.0344	0	0.1014	0.054
Mof_N 	N 	0.2001	0	0.9948	-0.104
Mof_C 	C 	0.9224	0	0.9244	0.006
Mof_H 	H 	0.9656	0	0.8986	0.054
Mof_N 	N 	0.7999	0	0.0052	-0.104
_end
