data_functionalizedCrystal
_audit_creation_method	'EQeq! by Chris Wilmer'
_symmetry_space_group_name_H-M	'P1'
_symmetry_Int_Tables_number	1
_symmetry_cell_setting	triclinic
loop_
_symmetry_equiv_pos_as_xyz
  x,y,z
_cell_length_a	30.9492
_cell_length_b	30.9492
_cell_length_c	45.9136
_cell_angle_alpha	70.3035
_cell_angle_beta	70.3035
_cell_angle_gamma	89.9999
loop_
_atom_site_label
_atom_site_type_symbol
_atom_site_fract_x
_atom_site_fract_y
_atom_site_fract_z
_atom_site_charge
Mof_Cu	Cu	0.63888	0.08158	0.78024	0.903
Mof_Cu	Cu	0.58088	0.13818	0.78024	0.903
Mof_Cu	Cu	0.83158	0.83088	0.28024	0.903
Mof_Cu	Cu	0.88818	0.88888	0.28024	0.903
Mof_Cu	Cu	0.16912	0.16842	0.71976	0.903
Mof_Cu	Cu	0.11112	0.11182	0.71976	0.903
Mof_Cu	Cu	0.86182	0.41912	0.21976	0.903
Mof_Cu	Cu	0.91842	0.36112	0.21976	0.903
Mof_H 	H 	0.7132	0.1265	0.888	0.087
Mof_H 	H 	0.6913	0.1033	0.8514	0.018
Mof_H 	H 	0.5968	0.1923	0.8524	0.015
Mof_H 	H 	0.6188	0.2157	0.8888	0.09
Mof_H 	H 	0.9292	0.1511	0.8354	0.088
Mof_H 	H 	0.9819	0.1336	0.7926	0.013
Mof_H 	H 	0.085	0.2052	0.7984	0.02
Mof_H 	H 	0.0323	0.2228	0.8412	0.088
Mof_H 	H 	0.6725	0.2007	0.9738	0.105
Mof_H 	H 	0.8078	0.1844	0.8988	0.058
Mof_H 	H 	0.9096	0.2187	0.9258	0.053
Mof_H 	H 	0.8547	0.2324	0.9704	0.058
Mof_H 	H 	0.7425	0.163	0.9102	0.048
Mof_H 	H 	0.6625	0.2078	0.9258	0.068
Mof_H 	H 	0.8873	0.1757	0.8664	0.044
Mof_H 	H 	0.956	0.2184	0.8804	0.068
Mof_H 	H 	0.3988	0.9855	0.888	0.087
Mof_H 	H 	0.4573	0.0453	0.8514	0.017
Mof_H 	H 	0.5508	0.9553	0.8524	0.015
Mof_H 	H 	0.4924	0.8955	0.8888	0.09
Mof_H 	H 	0.2354	0.0135	0.8354	0.088
Mof_H 	H 	0.2255	0.0738	0.7926	0.014
Mof_H 	H 	0.1166	0.9964	0.7984	0.02
Mof_H 	H 	0.1265	0.936	0.8412	0.087
Mof_H 	H 	0.3537	0.8255	0.9738	0.106
Mof_H 	H 	0.2934	0.9168	0.8988	0.059
Mof_H 	H 	0.1646	0.8555	0.9258	0.054
Mof_H 	H 	0.1749	0.7972	0.9704	0.059
Mof_H 	H 	0.3473	0.9268	0.9102	0.049
Mof_H 	H 	0.4117	0.8664	0.9258	0.069
Mof_H 	H 	0.2463	0.9579	0.8664	0.045
Mof_H 	H 	0.1636	0.9012	0.8804	0.069
Mof_H 	H 	0.8765	0.6488	0.388	0.088
Mof_H 	H 	0.8533	0.7073	0.3514	0.019
Mof_H 	H 	0.9423	0.8008	0.3524	0.016
Mof_H 	H 	0.9657	0.7424	0.3888	0.091
Mof_H 	H 	0.9011	0.4854	0.3354	0.089
Mof_H 	H 	0.8836	0.4755	0.2926	0.015
Mof_H 	H 	0.9552	0.3666	0.2984	0.021
Mof_H 	H 	0.9728	0.3765	0.3412	0.089
Mof_H 	H 	0.9507	0.6037	0.4738	0.106
Mof_H 	H 	0.9344	0.5434	0.3988	0.059
Mof_H 	H 	0.9687	0.4146	0.4258	0.054
Mof_H 	H 	0.9824	0.4249	0.4704	0.059
Mof_H 	H 	0.913	0.5973	0.4102	0.049
Mof_H 	H 	0.9578	0.6617	0.4258	0.069
Mof_H 	H 	0.9257	0.4963	0.3664	0.045
Mof_H 	H 	0.9684	0.4136	0.3804	0.069
Mof_H 	H 	0.7355	0.9632	0.388	0.088
Mof_H 	H 	0.7953	0.9413	0.3514	0.019
Mof_H 	H 	0.7053	0.8468	0.3524	0.016
Mof_H 	H 	0.6455	0.8688	0.3888	0.091
Mof_H 	H 	0.7635	0.1792	0.3354	0.089
Mof_H 	H 	0.8238	0.2319	0.2926	0.015
Mof_H 	H 	0.7464	0.335	0.2984	0.021
Mof_H 	H 	0.686	0.2823	0.3412	0.088
Mof_H 	H 	0.5755	0.9225	0.4738	0.105
Mof_H 	H 	0.6668	0.0578	0.3988	0.059
Mof_H 	H 	0.6055	0.1596	0.4258	0.055
Mof_H 	H 	0.5472	0.1047	0.4704	0.059
Mof_H 	H 	0.6768	0.9925	0.4102	0.049
Mof_H 	H 	0.6164	0.9125	0.4258	0.069
Mof_H 	H 	0.7079	0.1373	0.3664	0.045
Mof_H 	H 	0.6512	0.206	0.3804	0.069
Mof_H 	H 	0.3512	0.1235	0.612	0.088
Mof_H 	H 	0.2927	0.1467	0.6486	0.019
Mof_H 	H 	0.1992	0.0577	0.6476	0.016
Mof_H 	H 	0.2576	0.0343	0.6112	0.091
Mof_H 	H 	0.5146	0.0989	0.6646	0.089
Mof_H 	H 	0.5245	0.1164	0.7074	0.015
Mof_H 	H 	0.6334	0.0448	0.7016	0.021
Mof_H 	H 	0.6235	0.0272	0.6588	0.089
Mof_H 	H 	0.3963	0.0493	0.5262	0.106
Mof_H 	H 	0.4566	0.0656	0.6012	0.059
Mof_H 	H 	0.5854	0.0313	0.5742	0.054
Mof_H 	H 	0.5751	0.0176	0.5296	0.059
Mof_H 	H 	0.4027	0.087	0.5898	0.049
Mof_H 	H 	0.3383	0.0422	0.5742	0.069
Mof_H 	H 	0.5037	0.0743	0.6336	0.045
Mof_H 	H 	0.5864	0.0316	0.6196	0.069
Mof_H 	H 	0.0368	0.2645	0.612	0.088
Mof_H 	H 	0.0587	0.2047	0.6486	0.019
Mof_H 	H 	0.1532	0.2947	0.6476	0.016
Mof_H 	H 	0.1312	0.3545	0.6112	0.091
Mof_H 	H 	0.8208	0.2365	0.6646	0.089
Mof_H 	H 	0.7681	0.1762	0.7074	0.015
Mof_H 	H 	0.665	0.2536	0.7016	0.021
Mof_H 	H 	0.7177	0.314	0.6588	0.088
Mof_H 	H 	0.0775	0.4245	0.5262	0.105
Mof_H 	H 	0.9422	0.3332	0.6012	0.059
Mof_H 	H 	0.8404	0.3945	0.5742	0.055
Mof_H 	H 	0.8953	0.4528	0.5296	0.059
Mof_H 	H 	0.0075	0.3232	0.5898	0.049
Mof_H 	H 	0.0875	0.3836	0.5742	0.069
Mof_H 	H 	0.8627	0.2921	0.6336	0.045
Mof_H 	H 	0.794	0.3488	0.6196	0.069
Mof_H 	H 	0.0145	0.6012	0.112	0.088
Mof_H 	H 	0.9547	0.5427	0.1486	0.018
Mof_H 	H 	0.0447	0.4492	0.1476	0.016
Mof_H 	H 	0.1045	0.5076	0.1112	0.091
Mof_H 	H 	0.9865	0.7646	0.1646	0.089
Mof_H 	H 	0.9262	0.7745	0.2074	0.015
Mof_H 	H 	0.0036	0.8834	0.2016	0.021
Mof_H 	H 	0.064	0.8735	0.1588	0.088
Mof_H 	H 	0.1745	0.6463	0.0262	0.106
Mof_H 	H 	0.0832	0.7066	0.1012	0.059
Mof_H 	H 	0.1445	0.8354	0.0742	0.054
Mof_H 	H 	0.2028	0.8251	0.0296	0.059
Mof_H 	H 	0.0732	0.6527	0.0898	0.049
Mof_H 	H 	0.1336	0.5883	0.0742	0.069
Mof_H 	H 	0.0421	0.7537	0.1336	0.045
Mof_H 	H 	0.0988	0.8364	0.1196	0.069
Mof_H 	H 	0.8735	0.2868	0.112	0.088
Mof_H 	H 	0.8967	0.3087	0.1486	0.019
Mof_H 	H 	0.8077	0.4032	0.1476	0.016
Mof_H 	H 	0.7843	0.3812	0.1112	0.091
Mof_H 	H 	0.8489	0.0708	0.1646	0.089
Mof_H 	H 	0.8664	0.0181	0.2074	0.014
Mof_H 	H 	0.7948	0.915	0.2016	0.021
Mof_H 	H 	0.7772	0.9677	0.1588	0.089
Mof_H 	H 	0.7993	0.3275	0.0262	0.106
Mof_H 	H 	0.8156	0.1922	0.1012	0.059
Mof_H 	H 	0.7813	0.0904	0.0742	0.054
Mof_H 	H 	0.7676	0.1453	0.0296	0.059
Mof_H 	H 	0.837	0.2575	0.0898	0.049
Mof_H 	H 	0.7922	0.3375	0.0742	0.069
Mof_H 	H 	0.8243	0.1127	0.1336	0.045
Mof_H 	H 	0.7816	0.044	0.1196	0.069
Mof_C 	C 	0.66816	0.17346	0.89208	0.121
Mof_C 	C 	0.6899	0.1398	0.8808	-0.161
Mof_C 	C 	0.6767	0.1257	0.859	0.082
Mof_C 	C 	0.64186	0.14546	0.84828	-0.149
Mof_C 	C 	0.6202	0.1792	0.8594	0.085
Mof_C 	C 	0.6333	0.1931	0.8814	-0.165
Mof_C 	C 	0.6419	0.2282	0.0184	0.087
Mof_C 	C 	0.6447	0.2636	0.9846	-0.024
Mof_C 	C 	0.97553	0.18873	0.84254	0.124
Mof_C 	C 	0.9604	0.162	0.828	-0.166
Mof_C 	C 	0.992	0.1514	0.8024	0.085
Mof_C 	C 	0.03868	0.16768	0.79124	-0.148
Mof_C 	C 	0.0538	0.1944	0.8058	0.08
Mof_C 	C 	0.0222	0.2049	0.8314	-0.164
Mof_C 	C 	0.6289	0.1302	0.8256	0.357
Mof_C 	C 	0.0743	0.1567	0.7658	0.352
Mof_C 	C 	0.7644	0.2252	0.9872	-0.046
Mof_C 	C 	0.71766	0.21946	0.99188	0.195
Mof_C 	C 	0.7038	0.2046	0.9706	-0.189
Mof_C 	C 	0.73661	0.19551	0.94478	0.069
Mof_C 	C 	0.78331	0.20121	0.94018	-0.017
Mof_C 	C 	0.7972	0.2161	0.9614	0.039
Mof_C 	C 	0.8176	0.1937	0.913	-0.081
Mof_C 	C 	0.8653	0.1993	0.907	0.044
Mof_C 	C 	0.8784	0.2143	0.929	-0.064
Mof_C 	C 	0.8451	0.2227	0.9562	-0.055
Mof_C 	C 	0.7231	0.1799	0.9212	-0.058
Mof_C 	C 	0.6817	0.1903	0.9152	-0.101
Mof_C 	C 	0.8978	0.1897	0.8782	-0.047
Mof_C 	C 	0.9447	0.2026	0.87	-0.108
Mof_C 	C 	0.43976	0.93446	0.89208	0.121
Mof_C 	C 	0.4293	0.9794	0.8808	-0.162
Mof_C 	C 	0.4643	0.0153	0.859	0.082
Mof_C 	C 	0.50986	0.00626	0.84828	-0.149
Mof_C 	C 	0.5204	0.9614	0.8594	0.085
Mof_C 	C 	0.4853	0.9255	0.8814	-0.165
Mof_C 	C 	0.3397	0.7534	0.0184	0.087
Mof_C 	C 	0.3707	0.7518	0.9846	-0.024
Mof_C 	C 	0.18193	0.96873	0.84254	0.123
Mof_C 	C 	0.2116	0.01	0.828	-0.165
Mof_C 	C 	0.2056	0.0462	0.8024	0.084
Mof_C 	C 	0.17008	0.04108	0.79124	-0.146
Mof_C 	C 	0.1404	0.9998	0.8058	0.079
Mof_C 	C 	0.1464	0.9637	0.8314	-0.162
Mof_C 	C 	0.5455	0.0442	0.8256	0.357
Mof_C 	C 	0.1599	0.0775	0.7658	0.351
Mof_C 	C 	0.2484	0.7876	0.9872	-0.046
Mof_C 	C 	0.29046	0.78866	0.99188	0.194
Mof_C 	C 	0.3256	0.8248	0.9706	-0.189
Mof_C 	C 	0.31861	0.85971	0.94478	0.069
Mof_C 	C 	0.27651	0.85861	0.94018	-0.017
Mof_C 	C 	0.2414	0.8225	0.9614	0.038
Mof_C 	C 	0.2694	0.8933	0.913	-0.081
Mof_C 	C 	0.2277	0.8937	0.907	0.044
Mof_C 	C 	0.1926	0.8567	0.929	-0.064
Mof_C 	C 	0.1987	0.8211	0.9562	-0.055
Mof_C 	C 	0.3557	0.8989	0.9212	-0.058
Mof_C 	C 	0.4031	0.8945	0.9152	-0.101
Mof_C 	C 	0.224	0.9321	0.8782	-0.048
Mof_C 	C 	0.1853	0.9274	0.87	-0.107
Mof_C 	C 	0.92346	0.68976	0.39208	0.121
Mof_C 	C 	0.8898	0.6793	0.3808	-0.161
Mof_C 	C 	0.8757	0.7143	0.359	0.082
Mof_C 	C 	0.89546	0.75986	0.34828	-0.149
Mof_C 	C 	0.9292	0.7704	0.3594	0.085
Mof_C 	C 	0.9431	0.7353	0.3814	-0.165
Mof_C 	C 	0.9782	0.5897	0.5184	0.087
Mof_C 	C 	0.0136	0.6207	0.4846	-0.024
Mof_C 	C 	0.93873	0.43193	0.34254	0.124
Mof_C 	C 	0.912	0.4616	0.328	-0.166
Mof_C 	C 	0.9014	0.4556	0.3024	0.085
Mof_C 	C 	0.91768	0.42008	0.29124	-0.147
Mof_C 	C 	0.9444	0.3904	0.3058	0.08
Mof_C 	C 	0.9549	0.3964	0.3314	-0.163
Mof_C 	C 	0.8802	0.7955	0.3256	0.357
Mof_C 	C 	0.9067	0.4099	0.2658	0.352
Mof_C 	C 	0.9752	0.4984	0.4872	-0.046
Mof_C 	C 	0.96946	0.54046	0.49188	0.195
Mof_C 	C 	0.9546	0.5756	0.4706	-0.189
Mof_C 	C 	0.94551	0.56861	0.44478	0.069
Mof_C 	C 	0.95121	0.52651	0.44018	-0.017
Mof_C 	C 	0.9661	0.4914	0.4614	0.039
Mof_C 	C 	0.9437	0.5194	0.413	-0.081
Mof_C 	C 	0.9493	0.4777	0.407	0.044
Mof_C 	C 	0.9643	0.4426	0.429	-0.064
Mof_C 	C 	0.9727	0.4487	0.4562	-0.055
Mof_C 	C 	0.9299	0.6057	0.4212	-0.058
Mof_C 	C 	0.9403	0.6531	0.4152	-0.101
Mof_C 	C 	0.9397	0.474	0.3782	-0.047
Mof_C 	C 	0.9526	0.4353	0.37	-0.107
Mof_C 	C 	0.68446	0.91816	0.39208	0.121
Mof_C 	C 	0.7294	0.9399	0.3808	-0.161
Mof_C 	C 	0.7653	0.9267	0.359	0.082
Mof_C 	C 	0.75626	0.89186	0.34828	-0.149
Mof_C 	C 	0.7114	0.8702	0.3594	0.085
Mof_C 	C 	0.6755	0.8833	0.3814	-0.166
Mof_C 	C 	0.5034	0.8919	0.5184	0.087
Mof_C 	C 	0.5018	0.8947	0.4846	-0.024
Mof_C 	C 	0.71873	0.22553	0.34254	0.124
Mof_C 	C 	0.76	0.2104	0.328	-0.166
Mof_C 	C 	0.7962	0.242	0.3024	0.085
Mof_C 	C 	0.79108	0.28868	0.29124	-0.147
Mof_C 	C 	0.7498	0.3038	0.3058	0.08
Mof_C 	C 	0.7137	0.2722	0.3314	-0.163
Mof_C 	C 	0.7942	0.8789	0.3256	0.357
Mof_C 	C 	0.8275	0.3243	0.2658	0.352
Mof_C 	C 	0.5376	0.0144	0.4872	-0.045
Mof_C 	C 	0.53866	0.96766	0.49188	0.194
Mof_C 	C 	0.5748	0.9538	0.4706	-0.189
Mof_C 	C 	0.60971	0.98661	0.44478	0.068
Mof_C 	C 	0.60861	0.03331	0.44018	-0.017
Mof_C 	C 	0.5725	0.0472	0.4614	0.038
Mof_C 	C 	0.6433	0.0676	0.413	-0.081
Mof_C 	C 	0.6437	0.1153	0.407	0.044
Mof_C 	C 	0.6067	0.1284	0.429	-0.065
Mof_C 	C 	0.5711	0.0951	0.4562	-0.054
Mof_C 	C 	0.6489	0.9731	0.4212	-0.058
Mof_C 	C 	0.6445	0.9317	0.4152	-0.101
Mof_C 	C 	0.6821	0.1478	0.3782	-0.047
Mof_C 	C 	0.6774	0.1947	0.37	-0.107
Mof_C 	C 	0.31024	0.07654	0.60792	0.121
Mof_C 	C 	0.3207	0.1102	0.6192	-0.161
Mof_C 	C 	0.2857	0.1243	0.641	0.082
Mof_C 	C 	0.24014	0.10454	0.65172	-0.149
Mof_C 	C 	0.2296	0.0708	0.6406	0.085
Mof_C 	C 	0.2647	0.0569	0.6186	-0.165
Mof_C 	C 	0.4103	0.0218	0.4816	0.087
Mof_C 	C 	0.3793	0.9864	0.5154	-0.024
Mof_C 	C 	0.56807	0.06127	0.65746	0.124
Mof_C 	C 	0.5384	0.088	0.672	-0.166
Mof_C 	C 	0.5444	0.0986	0.6976	0.085
Mof_C 	C 	0.57992	0.08232	0.70876	-0.147
Mof_C 	C 	0.6096	0.0556	0.6942	0.08
Mof_C 	C 	0.6036	0.0451	0.6686	-0.163
Mof_C 	C 	0.2045	0.1198	0.6744	0.357
Mof_C 	C 	0.5901	0.0933	0.7342	0.352
Mof_C 	C 	0.5016	0.0248	0.5128	-0.046
Mof_C 	C 	0.45954	0.03054	0.50812	0.195
Mof_C 	C 	0.4244	0.0454	0.5294	-0.189
Mof_C 	C 	0.43139	0.05449	0.55522	0.069
Mof_C 	C 	0.47349	0.04879	0.55982	-0.017
Mof_C 	C 	0.5086	0.0339	0.5386	0.039
Mof_C 	C 	0.4806	0.0563	0.587	-0.081
Mof_C 	C 	0.5223	0.0507	0.593	0.044
Mof_C 	C 	0.5574	0.0357	0.571	-0.064
Mof_C 	C 	0.5513	0.0273	0.5438	-0.055
Mof_C 	C 	0.3943	0.0701	0.5788	-0.058
Mof_C 	C 	0.3469	0.0597	0.5848	-0.101
Mof_C 	C 	0.526	0.0603	0.6218	-0.047
Mof_C 	C 	0.5647	0.0474	0.63	-0.107
Mof_C 	C 	0.08184	0.31554	0.60792	0.121
Mof_C 	C 	0.0601	0.2706	0.6192	-0.161
Mof_C 	C 	0.0733	0.2347	0.641	0.082
Mof_C 	C 	0.10814	0.24374	0.65172	-0.149
Mof_C 	C 	0.1298	0.2886	0.6406	0.085
Mof_C 	C 	0.1167	0.3245	0.6186	-0.166
Mof_C 	C 	0.1081	0.4966	0.4816	0.087
Mof_C 	C 	0.1053	0.4982	0.5154	-0.024
Mof_C 	C 	0.77447	0.28127	0.65746	0.124
Mof_C 	C 	0.7896	0.24	0.672	-0.166
Mof_C 	C 	0.758	0.2038	0.6976	0.085
Mof_C 	C 	0.71132	0.20892	0.70876	-0.147
Mof_C 	C 	0.6962	0.2502	0.6942	0.08
Mof_C 	C 	0.7278	0.2863	0.6686	-0.163
Mof_C 	C 	0.1211	0.2058	0.6744	0.357
Mof_C 	C 	0.6757	0.1725	0.7342	0.352
Mof_C 	C 	0.9856	0.4624	0.5128	-0.045
Mof_C 	C 	0.03234	0.46134	0.50812	0.194
Mof_C 	C 	0.0462	0.4252	0.5294	-0.189
Mof_C 	C 	0.01339	0.39029	0.55522	0.068
Mof_C 	C 	0.96669	0.39139	0.55982	-0.017
Mof_C 	C 	0.9528	0.4275	0.5386	0.038
Mof_C 	C 	0.9324	0.3567	0.587	-0.081
Mof_C 	C 	0.8847	0.3563	0.593	0.044
Mof_C 	C 	0.8716	0.3933	0.571	-0.065
Mof_C 	C 	0.9049	0.4289	0.5438	-0.054
Mof_C 	C 	0.0269	0.3511	0.5788	-0.058
Mof_C 	C 	0.0683	0.3555	0.5848	-0.101
Mof_C 	C 	0.8522	0.3179	0.6218	-0.047
Mof_C 	C 	0.8053	0.3226	0.63	-0.107
Mof_C 	C 	0.06554	0.56024	0.10792	0.121
Mof_C 	C 	0.0206	0.5707	0.1192	-0.162
Mof_C 	C 	0.9847	0.5357	0.141	0.082
Mof_C 	C 	0.99374	0.49014	0.15172	-0.149
Mof_C 	C 	0.0386	0.4796	0.1406	0.085
Mof_C 	C 	0.0745	0.5147	0.1186	-0.165
Mof_C 	C 	0.2466	0.6603	0.9816	0.087
Mof_C 	C 	0.2482	0.6293	0.0154	-0.024
Mof_C 	C 	0.03127	0.81807	0.15746	0.123
Mof_C 	C 	0.99	0.7884	0.172	-0.165
Mof_C 	C 	0.9538	0.7944	0.1976	0.084
Mof_C 	C 	0.95892	0.82992	0.20876	-0.146
Mof_C 	C 	0.0002	0.8596	0.1942	0.079
Mof_C 	C 	0.0363	0.8536	0.1686	-0.162
Mof_C 	C 	0.9558	0.4545	0.1744	0.357
Mof_C 	C 	0.9225	0.8401	0.2342	0.351
Mof_C 	C 	0.2124	0.7516	0.0128	-0.046
Mof_C 	C 	0.21134	0.70954	0.00812	0.194
Mof_C 	C 	0.1752	0.6744	0.0294	-0.189
Mof_C 	C 	0.14029	0.68139	0.05522	0.069
Mof_C 	C 	0.14139	0.72349	0.05982	-0.017
Mof_C 	C 	0.1775	0.7586	0.0386	0.038
Mof_C 	C 	0.1067	0.7306	0.087	-0.081
Mof_C 	C 	0.1063	0.7723	0.093	0.044
Mof_C 	C 	0.1433	0.8074	0.071	-0.064
Mof_C 	C 	0.1789	0.8013	0.0438	-0.055
Mof_C 	C 	0.1011	0.6443	0.0788	-0.058
Mof_C 	C 	0.1055	0.5969	0.0848	-0.101
Mof_C 	C 	0.0679	0.776	0.1218	-0.048
Mof_C 	C 	0.0726	0.8147	0.13	-0.107
Mof_C 	C 	0.82654	0.33184	0.10792	0.121
Mof_C 	C 	0.8602	0.3101	0.1192	-0.161
Mof_C 	C 	0.8743	0.3233	0.141	0.082
Mof_C 	C 	0.85454	0.35814	0.15172	-0.149
Mof_C 	C 	0.8208	0.3798	0.1406	0.085
Mof_C 	C 	0.8069	0.3667	0.1186	-0.165
Mof_C 	C 	0.7718	0.3581	0.9816	0.087
Mof_C 	C 	0.7364	0.3553	0.0154	-0.024
Mof_C 	C 	0.81127	0.02447	0.15746	0.124
Mof_C 	C 	0.838	0.0396	0.172	-0.166
Mof_C 	C 	0.8486	0.008	0.1976	0.085
Mof_C 	C 	0.83232	0.96132	0.20876	-0.148
Mof_C 	C 	0.8056	0.9462	0.1942	0.08
Mof_C 	C 	0.7951	0.9778	0.1686	-0.164
Mof_C 	C 	0.8698	0.3711	0.1744	0.357
Mof_C 	C 	0.8433	0.9257	0.2342	0.352
Mof_C 	C 	0.7748	0.2356	0.0128	-0.046
Mof_C 	C 	0.78054	0.28234	0.00812	0.195
Mof_C 	C 	0.7954	0.2962	0.0294	-0.189
Mof_C 	C 	0.80449	0.26339	0.05522	0.069
Mof_C 	C 	0.79879	0.21669	0.05982	-0.017
Mof_C 	C 	0.7839	0.2028	0.0386	0.039
Mof_C 	C 	0.8063	0.1824	0.087	-0.081
Mof_C 	C 	0.8007	0.1347	0.093	0.044
Mof_C 	C 	0.7857	0.1216	0.071	-0.064
Mof_C 	C 	0.7773	0.1549	0.0438	-0.055
Mof_C 	C 	0.8201	0.2769	0.0788	-0.058
Mof_C 	C 	0.8097	0.3183	0.0848	-0.101
Mof_C 	C 	0.8103	0.1022	0.1218	-0.047
Mof_C 	C 	0.7974	0.0553	0.13	-0.108
Mof_O 	O 	0.648	0.0973	0.8166	-0.384
Mof_O 	O 	0.5983	0.1487	0.8138	-0.407
Mof_O 	O 	0.1171	0.1744	0.757	-0.391
Mof_O 	O 	0.066	0.1306	0.7512	-0.407
Mof_O 	O 	0.6879	0.2262	0.0182	-0.226
Mof_O 	O 	0.5354	0.0861	0.8166	-0.384
Mof_O 	O 	0.5879	0.0375	0.8138	-0.407
Mof_O 	O 	0.1259	0.0686	0.757	-0.39
Mof_O 	O 	0.1828	0.1182	0.7512	-0.407
Mof_O 	O 	0.2939	0.7556	0.0182	-0.226
Mof_O 	O 	0.8473	0.7854	0.3166	-0.384
Mof_O 	O 	0.8987	0.8379	0.3138	-0.407
Mof_O 	O 	0.9244	0.3759	0.257	-0.39
Mof_O 	O 	0.8806	0.4328	0.2512	-0.407
Mof_O 	O 	0.9762	0.5439	0.5182	-0.226
Mof_O 	O 	0.8361	0.898	0.3166	-0.384
Mof_O 	O 	0.7875	0.8483	0.3138	-0.407
Mof_O 	O 	0.8186	0.3671	0.257	-0.39
Mof_O 	O 	0.8682	0.316	0.2512	-0.407
Mof_O 	O 	0.5056	0.9379	0.5182	-0.226
Mof_O 	O 	0.2146	0.1527	0.6834	-0.384
Mof_O 	O 	0.1621	0.1013	0.6862	-0.407
Mof_O 	O 	0.6241	0.0756	0.743	-0.39
Mof_O 	O 	0.5672	0.1194	0.7488	-0.407
Mof_O 	O 	0.4561	0.0238	0.4818	-0.226
Mof_O 	O 	0.102	0.1639	0.6834	-0.384
Mof_O 	O 	0.1517	0.2125	0.6862	-0.407
Mof_O 	O 	0.6329	0.1814	0.743	-0.39
Mof_O 	O 	0.684	0.1318	0.7488	-0.407
Mof_O 	O 	0.0621	0.4944	0.4818	-0.226
Mof_O 	O 	0.9139	0.4646	0.1834	-0.384
Mof_O 	O 	0.9625	0.4121	0.1862	-0.407
Mof_O 	O 	0.9314	0.8741	0.243	-0.39
Mof_O 	O 	0.8818	0.8172	0.2488	-0.407
Mof_O 	O 	0.2444	0.7061	0.9818	-0.226
Mof_O 	O 	0.9027	0.352	0.1834	-0.384
Mof_O 	O 	0.8513	0.4017	0.1862	-0.407
Mof_O 	O 	0.8256	0.8829	0.243	-0.391
Mof_O 	O 	0.8694	0.934	0.2488	-0.407
Mof_O 	O 	0.7738	0.3121	0.9818	-0.226
_end
