data_functionalizedCrystal
_audit_creation_method	'EQeq! by Chris Wilmer'
_symmetry_space_group_name_H-M	'P1'
_symmetry_Int_Tables_number	1
_symmetry_cell_setting	triclinic
loop_
_symmetry_equiv_pos_as_xyz
  x,y,z
_cell_length_a	12.18
_cell_length_b	14.2107
_cell_length_c	14.2834
_cell_angle_alpha	105.093
_cell_angle_beta	90
_cell_angle_gamma	90
loop_
_atom_site_label
_atom_site_type_symbol
_atom_site_fract_x
_atom_site_fract_y
_atom_site_fract_z
_atom_site_charge
Mof_Zn	Zn	0.5155	0.84589	0.15791	1.222
Mof_Zn	Zn	0.0155	0.65411	0.34209	1.222
Mof_Zn	Zn	0.7581	0.43801	0.79909	1.225
Mof_Zn	Zn	0.7419	0.93801	0.29909	1.225
Mof_Zn	Zn	0.2581	0.06199	0.70091	1.225
Mof_Zn	Zn	0.2419	0.56199	0.20091	1.225
Mof_Zn	Zn	0.9845	0.34589	0.65791	1.222
Mof_Zn	Zn	0.4845	0.15411	0.84209	1.222
Mof_H 	H 	0.9484	0.7447	0.1074	0.022
Mof_H 	H 	0.5458	0.8658	0.5034	0.081
Mof_H 	H 	0.6739	0.6198	0.9782	-0.008
Mof_H 	H 	0.8261	0.1198	0.4782	-0.007
Mof_H 	H 	0.187	0.827	0.8674	0.026
Mof_H 	H 	0.4484	0.7553	0.3926	0.024
Mof_H 	H 	0.3159	0.2206	0.4666	0.071
Mof_H 	H 	0.9364	0.5348	0.4788	0.005
Mof_H 	H 	0.0516	0.2553	0.8926	0.022
Mof_H 	H 	0.6841	0.7794	0.5334	0.071
Mof_H 	H 	0.5516	0.2447	0.6074	0.024
Mof_H 	H 	0.1841	0.7206	0.9666	0.069
Mof_H 	H 	0.8159	0.2794	0.0334	0.069
Mof_H 	H 	0.813	0.173	0.1326	0.026
Mof_H 	H 	0.0458	0.6342	0.9966	0.085
Mof_H 	H 	0.0636	0.4652	0.5212	0.005
Mof_H 	H 	0.313	0.327	0.3674	0.024
Mof_H 	H 	0.9542	0.3658	0.0034	0.085
Mof_H 	H 	0.4542	0.1342	0.4966	0.081
Mof_H 	H 	0.4364	0.9652	0.0212	0.006
Mof_H 	H 	0.1739	0.8802	0.5218	-0.007
Mof_H 	H 	0.687	0.673	0.6326	0.024
Mof_H 	H 	0.5636	0.0348	0.9788	0.006
Mof_H 	H 	0.3261	0.3802	0.0218	-0.008
Mof_C 	C 	0.4696	0.8669	0.5075	-0.097
Mof_C 	C 	0.5872	0.1983	0.5588	0.074
Mof_C 	C 	0.8235	0.5273	0.6334	0.429
Mof_C 	C 	0.75	0.1239	0.481	0.102
Mof_C 	C 	0.0304	0.3669	0.0075	-0.106
Mof_C 	C 	0.0778	0.4341	0.0797	0.012
Mof_C 	C 	0.75	0.6239	0.981	0.103
Mof_C 	C 	0.6851	0.0943	0.0699	-0.158
Mof_C 	C 	0.7647	0.2292	0.0235	-0.068
Mof_C 	C 	0.614	0.0857	0.9913	0.106
Mof_C 	C 	0.4222	0.9341	0.5797	0.01
Mof_C 	C 	0.7353	0.7292	0.5235	-0.074
Mof_C 	C 	0.7383	0.6661	0.583	0.058
Mof_C 	C 	0.3235	0.9727	0.8666	0.43
Mof_C 	C 	0.1765	0.4727	0.3666	0.429
Mof_C 	C 	0.701	0.1949	0.5532	-0.159
Mof_C 	C 	0.25	0.3761	0.019	0.103
Mof_C 	C 	0.2335	0.7318	0.3757	0.438
Mof_C 	C 	0.3149	0.9057	0.9301	-0.158
Mof_C 	C 	0.2383	0.8339	0.917	0.054
Mof_C 	C 	0.4128	0.8017	0.4412	0.074
Mof_C 	C 	0.5133	0.991	0.3431	0.295
Mof_C 	C 	0.2665	0.2318	0.8757	0.439
Mof_C 	C 	0.7665	0.2682	0.6243	0.438
Mof_C 	C 	0.6796	0.2796	0.8831	0.354
Mof_C 	C 	0.2617	0.3339	0.417	0.058
Mof_C 	C 	0.6899	0.2149	0.9498	-0.032
Mof_C 	C 	0.201	0.3051	0.9468	-0.161
Mof_C 	C 	0.5778	0.0659	0.4203	0.01
Mof_C 	C 	0.3101	0.7851	0.0502	-0.032
Mof_C 	C 	0.9867	0.491	0.8431	0.294
Mof_C 	C 	0.8149	0.5943	0.5699	-0.163
Mof_C 	C 	0.1796	0.2204	0.6169	0.353
Mof_C 	C 	0.7335	0.7682	0.1243	0.439
Mof_C 	C 	0.8101	0.7149	0.4498	-0.028
Mof_C 	C 	0.799	0.6949	0.0532	-0.161
Mof_C 	C 	0.9128	0.6983	0.0588	0.08
Mof_C 	C 	0.299	0.8051	0.4468	-0.159
Mof_C 	C 	0.886	0.5857	0.4913	0.111
Mof_C 	C 	0.0872	0.3017	0.9412	0.08
Mof_C 	C 	0.9696	0.6331	0.9925	-0.106
Mof_C 	C 	0.2353	0.7708	0.9765	-0.068
Mof_C 	C 	0.8204	0.7796	0.3831	0.353
Mof_C 	C 	0.4867	0.009	0.6569	0.295
Mof_C 	C 	0.0133	0.509	0.1569	0.294
Mof_C 	C 	0.114	0.4143	0.5087	0.111
Mof_C 	C 	0.5304	0.1331	0.4925	-0.097
Mof_C 	C 	0.1851	0.4057	0.4301	-0.163
Mof_C 	C 	0.3204	0.7204	0.1169	0.354
Mof_C 	C 	0.7617	0.1661	0.083	0.054
Mof_C 	C 	0.386	0.9143	0.0087	0.106
Mof_C 	C 	0.1899	0.2851	0.5502	-0.028
Mof_C 	C 	0.2647	0.2708	0.4765	-0.074
Mof_C 	C 	0.9222	0.5659	0.9203	0.012
Mof_C 	C 	0.25	0.8761	0.519	0.102
Mof_C 	C 	0.6765	0.0273	0.1334	0.43
Mof_N 	N 	0.6883	0.0587	0.4129	-0.225
Mof_N 	N 	0.1883	0.4413	0.0871	-0.225
Mof_N 	N 	0.8868	0.6431	0.4348	-0.237
Mof_N 	N 	0.3868	0.8569	0.0652	-0.236
Mof_N 	N 	0.1132	0.3569	0.5652	-0.237
Mof_N 	N 	0.6132	0.1431	0.9348	-0.236
Mof_N 	N 	0.3117	0.9413	0.5871	-0.225
Mof_N 	N 	0.8117	0.5587	0.9129	-0.225
Mof_O 	O 	0.2536	0.6565	0.1163	-0.438
Mof_O 	O 	0.6025	0.9638	0.1062	-0.431
Mof_O 	O 	0.0963	0.2369	0.6722	-0.419
Mof_O 	O 	0.2669	0.9651	0.7943	-0.45
Mof_O 	O 	0.2777	0.6647	0.3138	-0.493
Mof_O 	O 	0.2223	0.1647	0.8138	-0.494
Mof_O 	O 	0.8975	0.4638	0.6062	-0.43
Mof_O 	O 	0.7464	0.3435	0.8837	-0.438
Mof_O 	O 	0.7331	0.0349	0.2057	-0.45
Mof_O 	O 	0.4148	0.002	0.323	-0.28
Mof_O 	O 	0.4037	0.7369	0.1722	-0.42
Mof_O 	O 	0.3975	0.0362	0.8938	-0.431
Mof_O 	O 	0.0705	0.5817	0.1994	-0.527
Mof_O 	O 	0.7669	0.5349	0.7057	-0.45
Mof_O 	O 	0.1294	0.7456	0.3816	-0.495
Mof_O 	O 	0.5852	0.998	0.677	-0.28
Mof_O 	O 	0.9037	0.7631	0.3278	-0.419
Mof_O 	O 	0.4295	0.0817	0.6994	-0.527
Mof_O 	O 	0.9148	0.498	0.177	-0.279
Mof_O 	O 	0.7223	0.3353	0.6862	-0.493
Mof_O 	O 	0.7777	0.8353	0.1862	-0.494
Mof_O 	O 	0.9295	0.4183	0.8006	-0.527
Mof_O 	O 	0.6294	0.7544	0.1184	-0.495
Mof_O 	O 	0.0852	0.502	0.823	-0.279
Mof_O 	O 	0.3706	0.2456	0.8816	-0.495
Mof_O 	O 	0.1025	0.5362	0.3938	-0.43
Mof_O 	O 	0.5705	0.9183	0.3006	-0.527
Mof_O 	O 	0.5963	0.2631	0.8278	-0.42
Mof_O 	O 	0.7536	0.8435	0.3837	-0.437
Mof_O 	O 	0.8706	0.2544	0.6184	-0.495
Mof_O 	O 	0.2464	0.1565	0.6163	-0.437
Mof_O 	O 	0.2331	0.4651	0.2943	-0.45
_end
