data_functionalizedCrystal
_audit_creation_method	'EQeq! by Chris Wilmer'
_symmetry_space_group_name_H-M	'P1'
_symmetry_Int_Tables_number	1
_symmetry_cell_setting	triclinic
loop_
_symmetry_equiv_pos_as_xyz
  x,y,z
_cell_length_a	20.328
_cell_length_b	20.328
_cell_length_c	17.91
_cell_angle_alpha	90
_cell_angle_beta	90
_cell_angle_gamma	90
loop_
_atom_site_label
_atom_site_type_symbol
_atom_site_fract_x
_atom_site_fract_y
_atom_site_fract_z
_atom_site_charge
Mof_Zn	Zn	0.25841	0.11757	0.76401	1.231
Mof_O 	O 	0.1941	0.1721	0.7101	-0.46
Mof_O 	O 	0.2572	0.0331	0.7119	-0.451
Mof_O 	O 	0.233	0.1304	0.8686	-0.43
Mof_C 	C 	0.1989	0.178	0.6392	0.368
Mof_O 	O 	0.2456	0.157	0.5997	-0.442
Mof_O 	O 	0.3397	0.0516	0.6296	-0.418
Mof_C 	C 	0.1427	0.2128	0.6017	-0.115
Mof_C 	C 	0.4808	0.2091	0.6533	0.375
Mof_C 	C 	0.09	0.2337	0.644	0.064
Mof_C 	C 	0.1431	0.2242	0.5239	0.055
Mof_C 	C 	0.5391	0.2304	0.6102	-0.117
Mof_H 	H 	0.0882	0.224	0.6947	0.046
Mof_C 	C 	0.0928	0.2575	0.4904	-0.102
Mof_H 	H 	0.1781	0.2089	0.4953	0.043
Mof_C 	C 	0.5411	0.2183	0.5333	0.057
Mof_C 	C 	0.0912	0.2679	0.4077	0.325
Mof_H 	H 	0.5077	0.194	0.5108	0.039
Mof_O 	O 	0.0523	0.3078	0.3804	-0.303
Mof_Zn	Zn	0.75841	0.61757	0.26401	1.231
Mof_O 	O 	0.6941	0.6721	0.2101	-0.458
Mof_O 	O 	0.7572	0.5331	0.2119	-0.449
Mof_O 	O 	0.733	0.6304	0.3686	-0.435
Mof_C 	C 	0.6989	0.678	0.1392	0.358
Mof_O 	O 	0.7456	0.657	0.0997	-0.443
Mof_O 	O 	0.8397	0.5516	0.1296	-0.418
Mof_C 	C 	0.6427	0.7128	0.1017	-0.09
Mof_C 	C 	0.9808	0.7091	0.1533	0.366
Mof_C 	C 	0.59	0.7337	0.144	0.04
Mof_C 	C 	0.6431	0.7242	0.0239	-0.004
Mof_C 	C 	0.0391	0.7304	0.1102	-0.099
Mof_H 	H 	0.5882	0.724	0.1947	0.052
Mof_C 	C 	0.5928	0.7575	0.9904	-0.055
Mof_H 	H 	0.6781	0.7089	0.9953	0.069
Mof_C 	C 	0.0411	0.7183	0.0333	0.018
Mof_C 	C 	0.5912	0.7679	0.9077	0.308
Mof_H 	H 	0.0077	0.694	0.0108	0.047
Mof_O 	O 	0.5523	0.8078	0.8804	-0.297
Mof_Zn	Zn	0.74159	0.88243	0.76401	1.23
Mof_O 	O 	0.8059	0.8279	0.7101	-0.461
Mof_O 	O 	0.7428	0.9669	0.7119	-0.452
Mof_O 	O 	0.767	0.8696	0.8686	-0.431
Mof_C 	C 	0.8011	0.822	0.6392	0.367
Mof_O 	O 	0.7544	0.843	0.5997	-0.443
Mof_O 	O 	0.6603	0.9484	0.6296	-0.419
Mof_C 	C 	0.8573	0.7872	0.6017	-0.116
Mof_C 	C 	0.5192	0.7909	0.6533	0.374
Mof_C 	C 	0.91	0.7663	0.644	0.063
Mof_C 	C 	0.8569	0.7758	0.5239	0.054
Mof_C 	C 	0.4609	0.7696	0.6102	-0.118
Mof_H 	H 	0.9118	0.776	0.6947	0.045
Mof_C 	C 	0.9072	0.7425	0.4904	-0.103
Mof_H 	H 	0.8219	0.7911	0.4953	0.042
Mof_C 	C 	0.4589	0.7817	0.5333	0.056
Mof_C 	C 	0.9088	0.7321	0.4077	0.324
Mof_H 	H 	0.4923	0.806	0.5108	0.038
Mof_O 	O 	0.9477	0.6922	0.3804	-0.304
Mof_Zn	Zn	0.24159	0.38243	0.26401	1.23
Mof_O 	O 	0.3059	0.3279	0.2101	-0.459
Mof_O 	O 	0.2428	0.4669	0.2119	-0.45
Mof_O 	O 	0.267	0.3696	0.3686	-0.436
Mof_C 	C 	0.3011	0.322	0.1392	0.357
Mof_O 	O 	0.2544	0.343	0.0997	-0.443
Mof_O 	O 	0.1603	0.4484	0.1296	-0.418
Mof_C 	C 	0.3573	0.2872	0.1017	-0.09
Mof_C 	C 	0.0192	0.2909	0.1533	0.366
Mof_C 	C 	0.41	0.2663	0.144	0.04
Mof_C 	C 	0.3569	0.2758	0.0239	-0.004
Mof_C 	C 	0.9609	0.2696	0.1102	-0.099
Mof_H 	H 	0.4118	0.276	0.1947	0.052
Mof_C 	C 	0.4072	0.2425	0.9904	-0.055
Mof_H 	H 	0.3219	0.2911	0.9953	0.069
Mof_C 	C 	0.9589	0.2817	0.0333	0.018
Mof_C 	C 	0.4088	0.2321	0.9077	0.308
Mof_H 	H 	0.9923	0.306	0.0108	0.047
Mof_O 	O 	0.4477	0.1922	0.8804	-0.297
Mof_Zn	Zn	0.88243	0.25841	0.76401	1.23
Mof_O 	O 	0.8279	0.1941	0.7101	-0.461
Mof_O 	O 	0.9669	0.2572	0.7119	-0.452
Mof_O 	O 	0.8696	0.233	0.8686	-0.431
Mof_C 	C 	0.822	0.1989	0.6392	0.367
Mof_O 	O 	0.843	0.2456	0.5997	-0.443
Mof_O 	O 	0.9484	0.3397	0.6296	-0.419
Mof_C 	C 	0.7872	0.1427	0.6017	-0.116
Mof_C 	C 	0.7909	0.4808	0.6533	0.374
Mof_C 	C 	0.7663	0.09	0.644	0.063
Mof_C 	C 	0.7758	0.1431	0.5239	0.054
Mof_C 	C 	0.7696	0.5391	0.6102	-0.118
Mof_H 	H 	0.776	0.0882	0.6947	0.045
Mof_C 	C 	0.7425	0.0928	0.4904	-0.103
Mof_H 	H 	0.7911	0.1781	0.4953	0.042
Mof_C 	C 	0.7817	0.5411	0.5333	0.056
Mof_C 	C 	0.7321	0.0912	0.4077	0.324
Mof_H 	H 	0.806	0.5077	0.5108	0.038
Mof_O 	O 	0.6922	0.0523	0.3804	-0.304
Mof_Zn	Zn	0.38243	0.75841	0.26401	1.23
Mof_O 	O 	0.3279	0.6941	0.2101	-0.459
Mof_O 	O 	0.4669	0.7572	0.2119	-0.45
Mof_O 	O 	0.3696	0.733	0.3686	-0.436
Mof_C 	C 	0.322	0.6989	0.1392	0.357
Mof_O 	O 	0.343	0.7456	0.0997	-0.443
Mof_O 	O 	0.4484	0.8397	0.1296	-0.418
Mof_C 	C 	0.2872	0.6427	0.1017	-0.09
Mof_C 	C 	0.2909	0.9808	0.1533	0.366
Mof_C 	C 	0.2663	0.59	0.144	0.04
Mof_C 	C 	0.2758	0.6431	0.0239	-0.004
Mof_C 	C 	0.2696	0.0391	0.1102	-0.099
Mof_H 	H 	0.276	0.5882	0.1947	0.052
Mof_C 	C 	0.2425	0.5928	0.9904	-0.055
Mof_H 	H 	0.2911	0.6781	0.9953	0.069
Mof_C 	C 	0.2817	0.0411	0.0333	0.018
Mof_C 	C 	0.2321	0.5912	0.9077	0.308
Mof_H 	H 	0.306	0.0077	0.0108	0.047
Mof_O 	O 	0.1922	0.5523	0.8804	-0.297
Mof_Zn	Zn	0.11757	0.74159	0.76401	1.23
Mof_O 	O 	0.1721	0.8059	0.7101	-0.461
Mof_O 	O 	0.0331	0.7428	0.7119	-0.452
Mof_O 	O 	0.1304	0.767	0.8686	-0.431
Mof_C 	C 	0.178	0.8011	0.6392	0.367
Mof_O 	O 	0.157	0.7544	0.5997	-0.443
Mof_O 	O 	0.0516	0.6603	0.6296	-0.419
Mof_C 	C 	0.2128	0.8573	0.6017	-0.116
Mof_C 	C 	0.2091	0.5192	0.6533	0.374
Mof_C 	C 	0.2337	0.91	0.644	0.063
Mof_C 	C 	0.2242	0.8569	0.5239	0.054
Mof_C 	C 	0.2304	0.4609	0.6102	-0.118
Mof_H 	H 	0.224	0.9118	0.6947	0.045
Mof_C 	C 	0.2575	0.9072	0.4904	-0.103
Mof_H 	H 	0.2089	0.8219	0.4953	0.042
Mof_C 	C 	0.2183	0.4589	0.5333	0.056
Mof_C 	C 	0.2679	0.9088	0.4077	0.324
Mof_H 	H 	0.194	0.4923	0.5108	0.038
Mof_O 	O 	0.3078	0.9477	0.3804	-0.304
Mof_Zn	Zn	0.61757	0.24159	0.26401	1.23
Mof_O 	O 	0.6721	0.3059	0.2101	-0.459
Mof_O 	O 	0.5331	0.2428	0.2119	-0.45
Mof_O 	O 	0.6304	0.267	0.3686	-0.436
Mof_C 	C 	0.678	0.3011	0.1392	0.357
Mof_O 	O 	0.657	0.2544	0.0997	-0.443
Mof_O 	O 	0.5516	0.1603	0.1296	-0.418
Mof_C 	C 	0.7128	0.3573	0.1017	-0.09
Mof_C 	C 	0.7091	0.0192	0.1533	0.366
Mof_C 	C 	0.7337	0.41	0.144	0.04
Mof_C 	C 	0.7242	0.3569	0.0239	-0.004
Mof_C 	C 	0.7304	0.9609	0.1102	-0.099
Mof_H 	H 	0.724	0.4118	0.1947	0.052
Mof_C 	C 	0.7575	0.4072	0.9904	-0.055
Mof_H 	H 	0.7089	0.3219	0.9953	0.069
Mof_C 	C 	0.7183	0.9589	0.0333	0.018
Mof_C 	C 	0.7679	0.4088	0.9077	0.308
Mof_H 	H 	0.694	0.9923	0.0108	0.047
Mof_O 	O 	0.8078	0.4477	0.8804	-0.297
Mof_Zn	Zn	0.25841	0.88243	0.26401	1.23
Mof_O 	O 	0.1941	0.8279	0.2101	-0.459
Mof_O 	O 	0.2572	0.9669	0.2119	-0.451
Mof_O 	O 	0.233	0.8696	0.3686	-0.436
Mof_C 	C 	0.1989	0.822	0.1392	0.357
Mof_O 	O 	0.2456	0.843	0.0997	-0.443
Mof_O 	O 	0.3397	0.9484	0.1296	-0.418
Mof_C 	C 	0.1427	0.7872	0.1017	-0.091
Mof_C 	C 	0.4808	0.7909	0.1533	0.366
Mof_C 	C 	0.09	0.7663	0.144	0.041
Mof_C 	C 	0.1431	0.7758	0.0239	-0.003
Mof_C 	C 	0.5391	0.7696	0.1102	-0.099
Mof_H 	H 	0.0882	0.776	0.1947	0.052
Mof_C 	C 	0.0928	0.7425	0.9904	-0.055
Mof_H 	H 	0.1781	0.7911	0.9953	0.068
Mof_C 	C 	0.5411	0.7817	0.0333	0.018
Mof_C 	C 	0.0912	0.7321	0.9077	0.308
Mof_H 	H 	0.5077	0.806	0.0108	0.048
Mof_O 	O 	0.0523	0.6922	0.8804	-0.297
Mof_Zn	Zn	0.75841	0.38243	0.76401	1.23
Mof_O 	O 	0.6941	0.3279	0.7101	-0.46
Mof_O 	O 	0.7572	0.4669	0.7119	-0.451
Mof_O 	O 	0.733	0.3696	0.8686	-0.431
Mof_C 	C 	0.6989	0.322	0.6392	0.367
Mof_O 	O 	0.7456	0.343	0.5997	-0.443
Mof_O 	O 	0.8397	0.4484	0.6296	-0.419
Mof_C 	C 	0.6427	0.2872	0.6017	-0.116
Mof_C 	C 	0.9808	0.2909	0.6533	0.374
Mof_C 	C 	0.59	0.2663	0.644	0.063
Mof_C 	C 	0.6431	0.2758	0.5239	0.054
Mof_C 	C 	0.0391	0.2696	0.6102	-0.119
Mof_H 	H 	0.5882	0.276	0.6947	0.045
Mof_C 	C 	0.5928	0.2425	0.4904	-0.103
Mof_H 	H 	0.6781	0.2911	0.4953	0.042
Mof_C 	C 	0.0411	0.2817	0.5333	0.056
Mof_C 	C 	0.5912	0.2321	0.4077	0.324
Mof_H 	H 	0.0077	0.306	0.5108	0.038
Mof_O 	O 	0.5523	0.1922	0.3804	-0.304
Mof_Zn	Zn	0.74159	0.11757	0.26401	1.23
Mof_O 	O 	0.8059	0.1721	0.2101	-0.459
Mof_O 	O 	0.7428	0.0331	0.2119	-0.451
Mof_O 	O 	0.767	0.1304	0.3686	-0.436
Mof_C 	C 	0.8011	0.178	0.1392	0.357
Mof_O 	O 	0.7544	0.157	0.0997	-0.443
Mof_O 	O 	0.6603	0.0516	0.1296	-0.418
Mof_C 	C 	0.8573	0.2128	0.1017	-0.091
Mof_C 	C 	0.5192	0.2091	0.1533	0.366
Mof_C 	C 	0.91	0.2337	0.144	0.041
Mof_C 	C 	0.8569	0.2242	0.0239	-0.003
Mof_C 	C 	0.4609	0.2304	0.1102	-0.099
Mof_H 	H 	0.9118	0.224	0.1947	0.052
Mof_C 	C 	0.9072	0.2575	0.9904	-0.055
Mof_H 	H 	0.8219	0.2089	0.9953	0.068
Mof_C 	C 	0.4589	0.2183	0.0333	0.018
Mof_C 	C 	0.9088	0.2679	0.9077	0.308
Mof_H 	H 	0.4923	0.194	0.0108	0.048
Mof_O 	O 	0.9477	0.3078	0.8804	-0.297
Mof_Zn	Zn	0.24159	0.61757	0.76401	1.23
Mof_O 	O 	0.3059	0.6721	0.7101	-0.46
Mof_O 	O 	0.2428	0.5331	0.7119	-0.451
Mof_O 	O 	0.267	0.6304	0.8686	-0.431
Mof_C 	C 	0.3011	0.678	0.6392	0.367
Mof_O 	O 	0.2544	0.657	0.5997	-0.443
Mof_O 	O 	0.1603	0.5516	0.6296	-0.419
Mof_C 	C 	0.3573	0.7128	0.6017	-0.116
Mof_C 	C 	0.0192	0.7091	0.6533	0.374
Mof_C 	C 	0.41	0.7337	0.644	0.063
Mof_C 	C 	0.3569	0.7242	0.5239	0.054
Mof_C 	C 	0.9609	0.7304	0.6102	-0.119
Mof_H 	H 	0.4118	0.724	0.6947	0.045
Mof_C 	C 	0.4072	0.7575	0.4904	-0.103
Mof_H 	H 	0.3219	0.7089	0.4953	0.042
Mof_C 	C 	0.9589	0.7183	0.5333	0.056
Mof_C 	C 	0.4088	0.7679	0.4077	0.324
Mof_H 	H 	0.9923	0.694	0.5108	0.038
Mof_O 	O 	0.4477	0.8078	0.3804	-0.304
Mof_Zn	Zn	0.88243	0.74159	0.26401	1.23
Mof_O 	O 	0.8279	0.8059	0.2101	-0.459
Mof_O 	O 	0.9669	0.7428	0.2119	-0.451
Mof_O 	O 	0.8696	0.767	0.3686	-0.436
Mof_C 	C 	0.822	0.8011	0.1392	0.357
Mof_O 	O 	0.843	0.7544	0.0997	-0.443
Mof_O 	O 	0.9484	0.6603	0.1296	-0.418
Mof_C 	C 	0.7872	0.8573	0.1017	-0.091
Mof_C 	C 	0.7909	0.5192	0.1533	0.366
Mof_C 	C 	0.7663	0.91	0.144	0.041
Mof_C 	C 	0.7758	0.8569	0.0239	-0.003
Mof_C 	C 	0.7696	0.4609	0.1102	-0.099
Mof_H 	H 	0.776	0.9118	0.1947	0.052
Mof_C 	C 	0.7425	0.9072	0.9904	-0.055
Mof_H 	H 	0.7911	0.8219	0.9953	0.068
Mof_C 	C 	0.7817	0.4589	0.0333	0.018
Mof_C 	C 	0.7321	0.9088	0.9077	0.308
Mof_H 	H 	0.806	0.4923	0.0108	0.048
Mof_O 	O 	0.6922	0.9477	0.8804	-0.297
Mof_Zn	Zn	0.38243	0.24159	0.76401	1.23
Mof_O 	O 	0.3279	0.3059	0.7101	-0.46
Mof_O 	O 	0.4669	0.2428	0.7119	-0.451
Mof_O 	O 	0.3696	0.267	0.8686	-0.431
Mof_C 	C 	0.322	0.3011	0.6392	0.367
Mof_O 	O 	0.343	0.2544	0.5997	-0.443
Mof_O 	O 	0.4484	0.1603	0.6296	-0.419
Mof_C 	C 	0.2872	0.3573	0.6017	-0.116
Mof_C 	C 	0.2909	0.0192	0.6533	0.374
Mof_C 	C 	0.2663	0.41	0.644	0.063
Mof_C 	C 	0.2758	0.3569	0.5239	0.054
Mof_C 	C 	0.2696	0.9609	0.6102	-0.119
Mof_H 	H 	0.276	0.4118	0.6947	0.045
Mof_C 	C 	0.2425	0.4072	0.4904	-0.103
Mof_H 	H 	0.2911	0.3219	0.4953	0.042
Mof_C 	C 	0.2817	0.9589	0.5333	0.056
Mof_C 	C 	0.2321	0.4088	0.4077	0.324
Mof_H 	H 	0.306	0.9923	0.5108	0.038
Mof_O 	O 	0.1922	0.4477	0.3804	-0.304
Mof_Zn	Zn	0.11757	0.25841	0.26401	1.23
Mof_O 	O 	0.1721	0.1941	0.2101	-0.459
Mof_O 	O 	0.0331	0.2572	0.2119	-0.451
Mof_O 	O 	0.1304	0.233	0.3686	-0.436
Mof_C 	C 	0.178	0.1989	0.1392	0.357
Mof_O 	O 	0.157	0.2456	0.0997	-0.443
Mof_O 	O 	0.0516	0.3397	0.1296	-0.418
Mof_C 	C 	0.2128	0.1427	0.1017	-0.091
Mof_C 	C 	0.2091	0.4808	0.1533	0.366
Mof_C 	C 	0.2337	0.09	0.144	0.041
Mof_C 	C 	0.2242	0.1431	0.0239	-0.003
Mof_C 	C 	0.2304	0.5391	0.1102	-0.099
Mof_H 	H 	0.224	0.0882	0.1947	0.052
Mof_C 	C 	0.2575	0.0928	0.9904	-0.055
Mof_H 	H 	0.2089	0.1781	0.9953	0.068
Mof_C 	C 	0.2183	0.5411	0.0333	0.018
Mof_C 	C 	0.2679	0.0912	0.9077	0.308
Mof_H 	H 	0.194	0.5077	0.0108	0.048
Mof_O 	O 	0.3078	0.0523	0.8804	-0.297
Mof_Zn	Zn	0.61757	0.75841	0.76401	1.23
Mof_O 	O 	0.6721	0.6941	0.7101	-0.46
Mof_O 	O 	0.5331	0.7572	0.7119	-0.451
Mof_O 	O 	0.6304	0.733	0.8686	-0.431
Mof_C 	C 	0.678	0.6989	0.6392	0.367
Mof_O 	O 	0.657	0.7456	0.5997	-0.443
Mof_O 	O 	0.5516	0.8397	0.6296	-0.419
Mof_C 	C 	0.7128	0.6427	0.6017	-0.116
Mof_C 	C 	0.7091	0.9808	0.6533	0.374
Mof_C 	C 	0.7337	0.59	0.644	0.063
Mof_C 	C 	0.7242	0.6431	0.5239	0.054
Mof_C 	C 	0.7304	0.0391	0.6102	-0.119
Mof_H 	H 	0.724	0.5882	0.6947	0.045
Mof_C 	C 	0.7575	0.5928	0.4904	-0.103
Mof_H 	H 	0.7089	0.6781	0.4953	0.042
Mof_C 	C 	0.7183	0.0411	0.5333	0.056
Mof_C 	C 	0.7679	0.5912	0.4077	0.324
Mof_H 	H 	0.694	0.0077	0.5108	0.038
Mof_O 	O 	0.8078	0.5523	0.3804	-0.304
Mof_O 	O 	0.3437	0.1563	0.737	-0.644
Mof_Co	Co	0.34706	0.15294	0.61906	1.159
Mof_O 	O 	0.6563	0.8437	0.737	-0.644
Mof_Co	Co	0.65294	0.84706	0.61906	1.159
Mof_O 	O 	0.1563	0.3437	0.237	-0.644
Mof_Co	Co	0.15294	0.34706	0.11906	1.158
Mof_O 	O 	0.8437	0.3437	0.737	-0.644
Mof_Co	Co	0.84706	0.34706	0.61906	1.159
Mof_O 	O 	0.1563	0.6563	0.737	-0.644
Mof_Co	Co	0.15294	0.65294	0.61906	1.159
Mof_O 	O 	0.3437	0.8437	0.237	-0.644
Mof_Co	Co	0.34706	0.84706	0.11906	1.158
Mof_O 	O 	0.6563	0.1563	0.237	-0.644
Mof_Co	Co	0.65294	0.15294	0.11906	1.158
Mof_O 	O 	0.8437	0.6563	0.237	-0.644
Mof_Co	Co	0.84706	0.65294	0.11906	1.158
_end
