data_functionalizedCrystal
_audit_creation_method	'EQeq! by Chris Wilmer'
_symmetry_space_group_name_H-M	'P1'
_symmetry_Int_Tables_number	1
_symmetry_cell_setting	triclinic
loop_
_symmetry_equiv_pos_as_xyz
  x,y,z
_cell_length_a	18.6061
_cell_length_b	18.6939
_cell_length_c	48.617
_cell_angle_alpha	90
_cell_angle_beta	90
_cell_angle_gamma	90
loop_
_atom_site_label
_atom_site_type_symbol
_atom_site_fract_x
_atom_site_fract_y
_atom_site_fract_z
_atom_site_charge
Mof_Ho	Ho	0.7997	0.42592	0.87844	2.416
Mof_Ho	Ho	0.63646	0.59639	0.87778	2.369
Mof_Ho	Ho	0.81187	0.48552	0.12451	2.189
Mof_Ho	Ho	0.2997	0.57408	0.62156	2.416
Mof_Ho	Ho	0.13646	0.40361	0.62222	2.368
Mof_Ho	Ho	0.31187	0.51448	0.37549	2.189
Mof_Ho	Ho	0.7003	0.92592	0.12156	2.412
Mof_Ho	Ho	0.86354	0.09639	0.12222	2.367
Mof_Ho	Ho	0.68813	0.98552	0.87549	2.185
Mof_Ho	Ho	0.2003	0.07408	0.37844	2.411
Mof_Ho	Ho	0.36354	0.90361	0.37778	2.37
Mof_Ho	Ho	0.18813	0.01448	0.62451	2.184
Mof_Ho	Ho	0.2003	0.57408	0.12156	2.417
Mof_Ho	Ho	0.36354	0.40361	0.12222	2.37
Mof_Ho	Ho	0.18813	0.51448	0.87549	2.19
Mof_Ho	Ho	0.7003	0.42592	0.37844	2.417
Mof_Ho	Ho	0.86354	0.59639	0.37778	2.369
Mof_Ho	Ho	0.68813	0.48552	0.62451	2.19
Mof_Ho	Ho	0.2997	0.07408	0.87844	2.413
Mof_Ho	Ho	0.13646	0.90361	0.87778	2.368
Mof_Ho	Ho	0.31187	0.01448	0.12451	2.186
Mof_Ho	Ho	0.7997	0.92592	0.62156	2.412
Mof_Ho	Ho	0.63646	0.09639	0.62222	2.37
Mof_Ho	Ho	0.81187	0.98552	0.37549	2.184
Mof_Co	Co	0.95861	0.11701	0.75435	1.131
Mof_Co	Co	0.89299	0.74716	0.00191	1.168
Mof_Co	Co	0.45861	0.88299	0.74565	1.131
Mof_Co	Co	0.39299	0.25284	0.49809	1.168
Mof_Co	Co	0.54139	0.61701	0.24565	1.131
Mof_Co	Co	0.60701	0.24716	0.99809	1.168
Mof_Co	Co	0.04139	0.38299	0.25435	1.13
Mof_Co	Co	0.10701	0.75284	0.50191	1.169
Mof_Co	Co	0.04139	0.88299	0.24565	1.131
Mof_Co	Co	0.10701	0.25284	0.99809	1.168
Mof_Co	Co	0.54139	0.11701	0.25435	1.131
Mof_Co	Co	0.60701	0.74716	0.50191	1.168
Mof_Co	Co	0.45861	0.38299	0.75435	1.131
Mof_Co	Co	0.39299	0.75284	0.00191	1.168
Mof_Co	Co	0.95861	0.61701	0.74565	1.13
Mof_Co	Co	0.89299	0.24716	0.49809	1.169
Mof_H 	H 	0.9471	0.2058	0.8095	-0.005
Mof_H 	H 	0.8089	0.3651	0.7969	0.02
Mof_H 	H 	0.7852	0.3173	0.7538	0.098
Mof_H 	H 	0.7699	0.2684	0.7144	0.1
Mof_H 	H 	0.7464	0.2046	0.675	-0.025
Mof_H 	H 	0.882	0.0535	0.701	-0.016
Mof_H 	H 	0.5348	0.454	0.8059	-0.019
Mof_H 	H 	0.688	0.32	0.8301	-0.029
Mof_H 	H 	0.6633	0.2499	0.7929	0.103
Mof_H 	H 	0.6492	0.1981	0.7536	0.089
Mof_H 	H 	0.6312	0.1499	0.7101	0.026
Mof_H 	H 	0.4788	0.2966	0.6979	-0.004
Mof_H 	H 	0.7966	0.6846	0.9553	-0.006
Mof_H 	H 	0.9123	0.5233	0.9258	0.007
Mof_H 	H 	0.9937	0.5406	0.9611	0.08
Mof_H 	H 	0.0616	0.5564	0.9967	0.091
Mof_H 	H 	0.1257	0.5793	0.036	0.028
Mof_H 	H 	0.9942	0.7426	0.0522	-0.007
Mof_H 	H 	0.865	0.8571	0.959	-0.003
Mof_H 	H 	0.6539	0.8644	0.9501	-0.007
Mof_H 	H 	0.6413	0.7854	0.9867	0.085
Mof_H 	H 	0.6458	0.7119	0.0252	0.076
Mof_H 	H 	0.6613	0.6419	0.0646	0.045
Mof_H 	H 	0.8724	0.6606	0.0542	0.002
Mof_H 	H 	0.9664	0.725	0.9454	-0.017
Mof_H 	H 	0.1283	0.866	0.9441	-0.02
Mof_H 	H 	0.0878	0.9094	0.9858	0.121
Mof_H 	H 	0.0369	0.9523	0.0237	0.114
Mof_H 	H 	0.971	0.9948	0.0605	-0.009
Mof_H 	H 	0.8341	0.8319	0.0498	-0.016
Mof_H 	H 	0.644	0.5798	0.1958	0.005
Mof_H 	H 	0.6358	0.3704	0.1841	0.028
Mof_H 	H 	0.5662	0.359	0.2235	0.076
Mof_H 	H 	0.5176	0.3587	0.2651	0.076
Mof_H 	H 	0.4543	0.3664	0.3063	0.029
Mof_H 	H 	0.4468	0.5786	0.2953	0.008
Mof_H 	H 	0.084	0.6682	0.918	0.284
Mof_H 	H 	0.4905	0.6172	0.8979	0.411
Mof_H 	H 	0.4868	0.5551	0.8829	0.415
Mof_H 	H 	0.7833	0.2692	0.8877	0.404
Mof_H 	H 	0.7195	0.2877	0.8755	0.387
Mof_H 	H 	0.9458	0.4442	0.8663	0.327
Mof_H 	H 	0.928	0.5147	0.8702	0.334
Mof_H 	H 	0.9504	0.4182	0.0987	0.39
Mof_H 	H 	0.9418	0.4911	0.0982	0.367
Mof_H 	H 	0.8587	0.3312	0.1216	0.394
Mof_H 	H 	0.7909	0.3283	0.1327	0.371
Mof_H 	H 	0.4471	0.7942	0.6905	-0.005
Mof_H 	H 	0.3089	0.6349	0.7031	0.02
Mof_H 	H 	0.2852	0.6827	0.7462	0.098
Mof_H 	H 	0.2699	0.7316	0.7856	0.1
Mof_H 	H 	0.2464	0.7954	0.825	-0.025
Mof_H 	H 	0.382	0.9465	0.799	-0.017
Mof_H 	H 	0.0348	0.546	0.6941	-0.018
Mof_H 	H 	0.188	0.68	0.6699	-0.029
Mof_H 	H 	0.1633	0.7501	0.7071	0.103
Mof_H 	H 	0.1492	0.8019	0.7464	0.09
Mof_H 	H 	0.1312	0.8501	0.7899	0.025
Mof_H 	H 	0.9788	0.7034	0.8021	-0.01
Mof_H 	H 	0.2966	0.3154	0.5447	-0.006
Mof_H 	H 	0.4123	0.4767	0.5742	0.007
Mof_H 	H 	0.4937	0.4594	0.5389	0.08
Mof_H 	H 	0.5616	0.4436	0.5033	0.091
Mof_H 	H 	0.6257	0.4207	0.464	0.028
Mof_H 	H 	0.4942	0.2574	0.4478	-0.005
Mof_H 	H 	0.365	0.1429	0.541	-0.003
Mof_H 	H 	0.1539	0.1356	0.5499	-0.007
Mof_H 	H 	0.1413	0.2146	0.5133	0.084
Mof_H 	H 	0.1458	0.2881	0.4748	0.076
Mof_H 	H 	0.1613	0.3581	0.4354	0.045
Mof_H 	H 	0.3724	0.3394	0.4458	0.002
Mof_H 	H 	0.4664	0.275	0.5546	-0.018
Mof_H 	H 	0.6283	0.134	0.5559	-0.02
Mof_H 	H 	0.5878	0.0906	0.5142	0.121
Mof_H 	H 	0.5369	0.0477	0.4763	0.108
Mof_H 	H 	0.471	0.0052	0.4395	-0.006
Mof_H 	H 	0.3341	0.1681	0.4502	-0.015
Mof_H 	H 	0.144	0.4202	0.3042	0.005
Mof_H 	H 	0.1358	0.6296	0.3159	0.028
Mof_H 	H 	0.0662	0.641	0.2765	0.075
Mof_H 	H 	0.0176	0.6413	0.2349	0.078
Mof_H 	H 	0.9543	0.6336	0.1937	0.027
Mof_H 	H 	0.9468	0.4214	0.2047	0.007
Mof_H 	H 	0.584	0.3318	0.582	0.284
Mof_H 	H 	0.9905	0.3828	0.6021	0.409
Mof_H 	H 	0.9868	0.4449	0.6171	0.413
Mof_H 	H 	0.2833	0.7308	0.6123	0.404
Mof_H 	H 	0.2195	0.7123	0.6245	0.388
Mof_H 	H 	0.4458	0.5558	0.6337	0.327
Mof_H 	H 	0.428	0.4853	0.6298	0.334
Mof_H 	H 	0.4504	0.5818	0.4013	0.39
Mof_H 	H 	0.4418	0.5089	0.4018	0.367
Mof_H 	H 	0.3587	0.6688	0.3784	0.394
Mof_H 	H 	0.2909	0.6717	0.3673	0.371
Mof_H 	H 	0.5529	0.7058	0.1905	-0.005
Mof_H 	H 	0.6911	0.8651	0.2031	0.02
Mof_H 	H 	0.7148	0.8173	0.2462	0.097
Mof_H 	H 	0.7301	0.7684	0.2856	0.1
Mof_H 	H 	0.7536	0.7046	0.325	-0.025
Mof_H 	H 	0.618	0.5535	0.299	-0.017
Mof_H 	H 	0.9652	0.954	0.1941	-0.019
Mof_H 	H 	0.812	0.82	0.1699	-0.029
Mof_H 	H 	0.8367	0.7499	0.2071	0.102
Mof_H 	H 	0.8508	0.6981	0.2464	0.089
Mof_H 	H 	0.8688	0.6499	0.2899	0.026
Mof_H 	H 	0.0212	0.7966	0.3021	-0.004
Mof_H 	H 	0.7034	0.1846	0.0447	-0.006
Mof_H 	H 	0.5877	0.0233	0.0742	0.008
Mof_H 	H 	0.5063	0.0406	0.0389	0.08
Mof_H 	H 	0.4384	0.0564	0.0033	0.091
Mof_H 	H 	0.3743	0.0793	0.964	0.028
Mof_H 	H 	0.5058	0.2426	0.9478	-0.005
Mof_H 	H 	0.635	0.3571	0.041	-0.003
Mof_H 	H 	0.8461	0.3644	0.0499	-0.007
Mof_H 	H 	0.8587	0.2854	0.0133	0.085
Mof_H 	H 	0.8542	0.2119	0.9748	0.076
Mof_H 	H 	0.8387	0.1419	0.9354	0.045
Mof_H 	H 	0.6276	0.1606	0.9458	0.002
Mof_H 	H 	0.5336	0.225	0.0546	-0.018
Mof_H 	H 	0.3717	0.366	0.0559	-0.02
Mof_H 	H 	0.4122	0.4094	0.0142	0.121
Mof_H 	H 	0.4631	0.4523	0.9763	0.108
Mof_H 	H 	0.529	0.4948	0.9395	-0.006
Mof_H 	H 	0.6659	0.3319	0.9502	-0.015
Mof_H 	H 	0.856	0.0798	0.8042	0.004
Mof_H 	H 	0.8642	0.8704	0.8159	0.028
Mof_H 	H 	0.9338	0.859	0.7765	0.075
Mof_H 	H 	0.9824	0.8587	0.7349	0.078
Mof_H 	H 	0.0457	0.8664	0.6937	0.027
Mof_H 	H 	0.0532	0.0786	0.7047	0.009
Mof_H 	H 	0.416	0.1682	0.082	0.284
Mof_H 	H 	0.0095	0.1172	0.1021	0.401
Mof_H 	H 	0.0132	0.0551	0.1171	0.405
Mof_H 	H 	0.7167	0.7692	0.1123	0.404
Mof_H 	H 	0.7805	0.7877	0.1245	0.387
Mof_H 	H 	0.5542	0.9442	0.1337	0.328
Mof_H 	H 	0.572	0.0147	0.1298	0.335
Mof_H 	H 	0.5496	0.9182	0.9013	0.39
Mof_H 	H 	0.5582	0.9911	0.9018	0.366
Mof_H 	H 	0.6413	0.8312	0.8784	0.394
Mof_H 	H 	0.7091	0.8283	0.8673	0.37
Mof_H 	H 	0.0529	0.2942	0.3095	-0.006
Mof_H 	H 	0.1911	0.1349	0.2969	0.02
Mof_H 	H 	0.2148	0.1827	0.2538	0.098
Mof_H 	H 	0.2301	0.2316	0.2144	0.1
Mof_H 	H 	0.2536	0.2954	0.175	-0.025
Mof_H 	H 	0.118	0.4465	0.201	-0.017
Mof_H 	H 	0.4652	0.046	0.3059	-0.019
Mof_H 	H 	0.312	0.18	0.3301	-0.029
Mof_H 	H 	0.3367	0.2501	0.2929	0.103
Mof_H 	H 	0.3508	0.3019	0.2536	0.089
Mof_H 	H 	0.3688	0.3501	0.2101	0.026
Mof_H 	H 	0.5212	0.2034	0.1979	-0.004
Mof_H 	H 	0.2034	0.8154	0.4553	-0.006
Mof_H 	H 	0.0877	0.9767	0.4258	0.009
Mof_H 	H 	0.0063	0.9594	0.4611	0.081
Mof_H 	H 	0.9384	0.9436	0.4967	0.092
Mof_H 	H 	0.8743	0.9207	0.536	0.027
Mof_H 	H 	0.0058	0.7574	0.5522	0
Mof_H 	H 	0.135	0.6429	0.459	-0.003
Mof_H 	H 	0.3461	0.6356	0.4501	-0.007
Mof_H 	H 	0.3587	0.7146	0.4867	0.085
Mof_H 	H 	0.3542	0.7881	0.5252	0.076
Mof_H 	H 	0.3387	0.8581	0.5646	0.045
Mof_H 	H 	0.1276	0.8394	0.5542	0.003
Mof_H 	H 	0.0336	0.775	0.4454	-0.018
Mof_H 	H 	0.8717	0.634	0.4441	-0.02
Mof_H 	H 	0.9122	0.5906	0.4858	0.12
Mof_H 	H 	0.9631	0.5477	0.5237	0.107
Mof_H 	H 	0.029	0.5052	0.5605	-0.006
Mof_H 	H 	0.1659	0.6681	0.5498	-0.015
Mof_H 	H 	0.356	0.9202	0.6958	0.005
Mof_H 	H 	0.3642	0.1296	0.6841	0.028
Mof_H 	H 	0.4338	0.141	0.7235	0.076
Mof_H 	H 	0.4824	0.1413	0.7651	0.076
Mof_H 	H 	0.5457	0.1336	0.8063	0.029
Mof_H 	H 	0.5532	0.9214	0.7953	0.008
Mof_H 	H 	0.916	0.8318	0.418	0.284
Mof_H 	H 	0.5095	0.8828	0.3979	0.411
Mof_H 	H 	0.5132	0.9449	0.3829	0.415
Mof_H 	H 	0.2167	0.2308	0.3877	0.404
Mof_H 	H 	0.2805	0.2123	0.3755	0.387
Mof_H 	H 	0.0542	0.0558	0.3663	0.328
Mof_H 	H 	0.072	0.9853	0.3702	0.339
Mof_H 	H 	0.0496	0.0818	0.5987	0.389
Mof_H 	H 	0.0582	0.0089	0.5982	0.365
Mof_H 	H 	0.1413	0.1688	0.6216	0.393
Mof_H 	H 	0.2091	0.1717	0.6327	0.37
Mof_H 	H 	0.0529	0.7942	0.1905	-0.005
Mof_H 	H 	0.1911	0.6349	0.2031	0.02
Mof_H 	H 	0.2148	0.6827	0.2462	0.098
Mof_H 	H 	0.2301	0.7316	0.2856	0.1
Mof_H 	H 	0.2536	0.7954	0.325	-0.025
Mof_H 	H 	0.118	0.9465	0.299	-0.016
Mof_H 	H 	0.4652	0.546	0.1941	-0.019
Mof_H 	H 	0.312	0.68	0.1699	-0.029
Mof_H 	H 	0.3367	0.7501	0.2071	0.103
Mof_H 	H 	0.3508	0.8019	0.2464	0.089
Mof_H 	H 	0.3688	0.8501	0.2899	0.026
Mof_H 	H 	0.5212	0.7034	0.3021	-0.004
Mof_H 	H 	0.2034	0.3154	0.0447	-0.006
Mof_H 	H 	0.0877	0.4767	0.0742	0.007
Mof_H 	H 	0.0063	0.4594	0.0389	0.08
Mof_H 	H 	0.9384	0.4436	0.0033	0.091
Mof_H 	H 	0.8743	0.4207	0.964	0.028
Mof_H 	H 	0.0058	0.2574	0.9478	-0.007
Mof_H 	H 	0.135	0.1429	0.041	-0.003
Mof_H 	H 	0.3461	0.1356	0.0499	-0.007
Mof_H 	H 	0.3587	0.2146	0.0133	0.085
Mof_H 	H 	0.3542	0.2881	0.9748	0.076
Mof_H 	H 	0.3387	0.3581	0.9354	0.045
Mof_H 	H 	0.1276	0.3394	0.9458	0.002
Mof_H 	H 	0.0336	0.275	0.0546	-0.017
Mof_H 	H 	0.8717	0.134	0.0559	-0.02
Mof_H 	H 	0.9122	0.0906	0.0142	0.121
Mof_H 	H 	0.9631	0.0477	0.9763	0.114
Mof_H 	H 	0.029	0.0052	0.9395	-0.009
Mof_H 	H 	0.1659	0.1681	0.9502	-0.016
Mof_H 	H 	0.356	0.4202	0.8042	0.005
Mof_H 	H 	0.3642	0.6296	0.8159	0.028
Mof_H 	H 	0.4338	0.641	0.7765	0.076
Mof_H 	H 	0.4824	0.6413	0.7349	0.076
Mof_H 	H 	0.5457	0.6336	0.6937	0.029
Mof_H 	H 	0.5532	0.4214	0.7047	0.008
Mof_H 	H 	0.916	0.3318	0.082	0.284
Mof_H 	H 	0.5095	0.3828	0.1021	0.411
Mof_H 	H 	0.5132	0.4449	0.1171	0.415
Mof_H 	H 	0.2167	0.7308	0.1123	0.404
Mof_H 	H 	0.2805	0.7123	0.1245	0.387
Mof_H 	H 	0.0542	0.5558	0.1337	0.327
Mof_H 	H 	0.072	0.4853	0.1298	0.334
Mof_H 	H 	0.0496	0.5818	0.9013	0.39
Mof_H 	H 	0.0582	0.5089	0.9018	0.367
Mof_H 	H 	0.1413	0.6688	0.8784	0.394
Mof_H 	H 	0.2091	0.6717	0.8673	0.371
Mof_H 	H 	0.5529	0.2058	0.3095	-0.005
Mof_H 	H 	0.6911	0.3651	0.2969	0.02
Mof_H 	H 	0.7148	0.3173	0.2538	0.098
Mof_H 	H 	0.7301	0.2684	0.2144	0.1
Mof_H 	H 	0.7536	0.2046	0.175	-0.025
Mof_H 	H 	0.618	0.0535	0.201	-0.017
Mof_H 	H 	0.9652	0.454	0.3059	-0.018
Mof_H 	H 	0.812	0.32	0.3301	-0.029
Mof_H 	H 	0.8367	0.2499	0.2929	0.103
Mof_H 	H 	0.8508	0.1981	0.2536	0.09
Mof_H 	H 	0.8688	0.1499	0.2101	0.025
Mof_H 	H 	0.0212	0.2966	0.1979	-0.01
Mof_H 	H 	0.7034	0.6846	0.4553	-0.006
Mof_H 	H 	0.5877	0.5233	0.4258	0.007
Mof_H 	H 	0.5063	0.5406	0.4611	0.08
Mof_H 	H 	0.4384	0.5564	0.4967	0.091
Mof_H 	H 	0.3743	0.5793	0.536	0.028
Mof_H 	H 	0.5058	0.7426	0.5522	-0.005
Mof_H 	H 	0.635	0.8571	0.459	-0.003
Mof_H 	H 	0.8461	0.8644	0.4501	-0.007
Mof_H 	H 	0.8587	0.7854	0.4867	0.084
Mof_H 	H 	0.8542	0.7119	0.5252	0.076
Mof_H 	H 	0.8387	0.6419	0.5646	0.045
Mof_H 	H 	0.6276	0.6606	0.5542	0.002
Mof_H 	H 	0.5336	0.725	0.4454	-0.018
Mof_H 	H 	0.3717	0.866	0.4441	-0.02
Mof_H 	H 	0.4122	0.9094	0.4858	0.121
Mof_H 	H 	0.4631	0.9523	0.5237	0.108
Mof_H 	H 	0.529	0.9948	0.5605	-0.006
Mof_H 	H 	0.6659	0.8319	0.5498	-0.015
Mof_H 	H 	0.856	0.5798	0.6958	0.005
Mof_H 	H 	0.8642	0.3704	0.6841	0.028
Mof_H 	H 	0.9338	0.359	0.7235	0.075
Mof_H 	H 	0.9824	0.3587	0.7651	0.078
Mof_H 	H 	0.0457	0.3664	0.8063	0.027
Mof_H 	H 	0.0532	0.5786	0.7953	0.007
Mof_H 	H 	0.416	0.6682	0.418	0.284
Mof_H 	H 	0.0095	0.6172	0.3979	0.409
Mof_H 	H 	0.0132	0.5551	0.3829	0.413
Mof_H 	H 	0.7167	0.2692	0.3877	0.404
Mof_H 	H 	0.7805	0.2877	0.3755	0.388
Mof_H 	H 	0.5542	0.4442	0.3663	0.327
Mof_H 	H 	0.572	0.5147	0.3702	0.334
Mof_H 	H 	0.5496	0.4182	0.5987	0.39
Mof_H 	H 	0.5582	0.4911	0.5982	0.367
Mof_H 	H 	0.6413	0.3312	0.6216	0.394
Mof_H 	H 	0.7091	0.3283	0.6327	0.371
Mof_H 	H 	0.4471	0.2942	0.8095	-0.005
Mof_H 	H 	0.3089	0.1349	0.7969	0.02
Mof_H 	H 	0.2852	0.1827	0.7538	0.097
Mof_H 	H 	0.2699	0.2316	0.7144	0.1
Mof_H 	H 	0.2464	0.2954	0.675	-0.025
Mof_H 	H 	0.382	0.4465	0.701	-0.017
Mof_H 	H 	0.0348	0.046	0.8059	-0.019
Mof_H 	H 	0.188	0.18	0.8301	-0.029
Mof_H 	H 	0.1633	0.2501	0.7929	0.102
Mof_H 	H 	0.1492	0.3019	0.7536	0.089
Mof_H 	H 	0.1312	0.3501	0.7101	0.026
Mof_H 	H 	0.9788	0.2034	0.6979	-0.004
Mof_H 	H 	0.2966	0.8154	0.9553	-0.006
Mof_H 	H 	0.4123	0.9767	0.9258	0.008
Mof_H 	H 	0.4937	0.9594	0.9611	0.08
Mof_H 	H 	0.5616	0.9436	0.9967	0.091
Mof_H 	H 	0.6257	0.9207	0.036	0.028
Mof_H 	H 	0.4942	0.7574	0.0522	-0.005
Mof_H 	H 	0.365	0.6429	0.959	-0.003
Mof_H 	H 	0.1539	0.6356	0.9501	-0.007
Mof_H 	H 	0.1413	0.7146	0.9867	0.085
Mof_H 	H 	0.1458	0.7881	0.0252	0.076
Mof_H 	H 	0.1613	0.8581	0.0646	0.045
Mof_H 	H 	0.3724	0.8394	0.0542	0.002
Mof_H 	H 	0.4664	0.775	0.9454	-0.018
Mof_H 	H 	0.6283	0.634	0.9441	-0.02
Mof_H 	H 	0.5878	0.5906	0.9858	0.121
Mof_H 	H 	0.5369	0.5477	0.0237	0.108
Mof_H 	H 	0.471	0.5052	0.0605	-0.006
Mof_H 	H 	0.3341	0.6681	0.0498	-0.015
Mof_H 	H 	0.144	0.9202	0.1958	0.004
Mof_H 	H 	0.1358	0.1296	0.1841	0.028
Mof_H 	H 	0.0662	0.141	0.2235	0.075
Mof_H 	H 	0.0176	0.1413	0.2651	0.078
Mof_H 	H 	0.9543	0.1336	0.3063	0.027
Mof_H 	H 	0.9468	0.9214	0.2953	0.009
Mof_H 	H 	0.584	0.8318	0.918	0.284
Mof_H 	H 	0.9905	0.8828	0.8979	0.401
Mof_H 	H 	0.9868	0.9449	0.8829	0.405
Mof_H 	H 	0.2833	0.2308	0.8877	0.404
Mof_H 	H 	0.2195	0.2123	0.8755	0.387
Mof_H 	H 	0.4458	0.0558	0.8663	0.328
Mof_H 	H 	0.428	0.9853	0.8702	0.335
Mof_H 	H 	0.4504	0.0818	0.0987	0.39
Mof_H 	H 	0.4418	0.0089	0.0982	0.366
Mof_H 	H 	0.3587	0.1688	0.1216	0.394
Mof_H 	H 	0.2909	0.1717	0.1327	0.37
Mof_H 	H 	0.9471	0.7058	0.6905	-0.006
Mof_H 	H 	0.8089	0.8651	0.7031	0.02
Mof_H 	H 	0.7852	0.8173	0.7462	0.098
Mof_H 	H 	0.7699	0.7684	0.7856	0.1
Mof_H 	H 	0.7464	0.7046	0.825	-0.025
Mof_H 	H 	0.882	0.5535	0.799	-0.017
Mof_H 	H 	0.5348	0.954	0.6941	-0.019
Mof_H 	H 	0.688	0.82	0.6699	-0.029
Mof_H 	H 	0.6633	0.7499	0.7071	0.103
Mof_H 	H 	0.6492	0.6981	0.7464	0.089
Mof_H 	H 	0.6312	0.6499	0.7899	0.026
Mof_H 	H 	0.4788	0.7966	0.8021	-0.004
Mof_H 	H 	0.7966	0.1846	0.5447	-0.006
Mof_H 	H 	0.9123	0.0233	0.5742	0.009
Mof_H 	H 	0.9937	0.0406	0.5389	0.081
Mof_H 	H 	0.0616	0.0564	0.5033	0.092
Mof_H 	H 	0.1257	0.0793	0.464	0.027
Mof_H 	H 	0.9942	0.2426	0.4478	0
Mof_H 	H 	0.865	0.3571	0.541	-0.003
Mof_H 	H 	0.6539	0.3644	0.5499	-0.007
Mof_H 	H 	0.6413	0.2854	0.5133	0.085
Mof_H 	H 	0.6458	0.2119	0.4748	0.076
Mof_H 	H 	0.6613	0.1419	0.4354	0.045
Mof_H 	H 	0.8724	0.1606	0.4458	0.003
Mof_H 	H 	0.9664	0.225	0.5546	-0.018
Mof_H 	H 	0.1283	0.366	0.5559	-0.02
Mof_H 	H 	0.0878	0.4094	0.5142	0.12
Mof_H 	H 	0.0369	0.4523	0.4763	0.107
Mof_H 	H 	0.971	0.4948	0.4395	-0.006
Mof_H 	H 	0.8341	0.3319	0.4502	-0.015
Mof_H 	H 	0.644	0.0798	0.3042	0.005
Mof_H 	H 	0.6358	0.8704	0.3159	0.028
Mof_H 	H 	0.5662	0.859	0.2765	0.076
Mof_H 	H 	0.5176	0.8587	0.2349	0.076
Mof_H 	H 	0.4543	0.8664	0.1937	0.029
Mof_H 	H 	0.4468	0.0786	0.2047	0.008
Mof_H 	H 	0.084	0.1682	0.582	0.284
Mof_H 	H 	0.4905	0.1172	0.6021	0.411
Mof_H 	H 	0.4868	0.0551	0.6171	0.415
Mof_H 	H 	0.7833	0.7692	0.6123	0.404
Mof_H 	H 	0.7195	0.7877	0.6245	0.387
Mof_H 	H 	0.9458	0.9442	0.6337	0.328
Mof_H 	H 	0.928	0.0147	0.6298	0.339
Mof_H 	H 	0.9504	0.9182	0.4013	0.389
Mof_H 	H 	0.9418	0.9911	0.4018	0.365
Mof_H 	H 	0.8587	0.8312	0.3784	0.393
Mof_H 	H 	0.7909	0.8283	0.3673	0.37
Mof_C 	C 	0.8971	0.3174	0.83636	0.478
Mof_C 	C 	0.9138	0.2287	0.7983	0.114
Mof_C 	C 	0.8799	0.2896	0.80858	-0.191
Mof_C 	C 	0.8319	0.3234	0.79129	0.101
Mof_C 	C 	0.8179	0.2949	0.76541	-0.142
Mof_C 	C 	0.8529	0.2326	0.75672	0.052
Mof_C 	C 	0.8389	0.1971	0.73043	0.081
Mof_C 	C 	0.7918	0.2243	0.71147	-0.185
Mof_C 	C 	0.7774	0.1863	0.6883	0.158
Mof_C 	C 	0.8094	0.1194	0.68458	-0.238
Mof_C 	C 	0.8587	0.0969	0.70388	0.16
Mof_C 	C 	0.7883	0.0724	0.66093	0.563
Mof_C 	C 	0.6395	0.4499	0.84342	0.573
Mof_C 	C 	0.5617	0.4127	0.80304	0.168
Mof_C 	C 	0.6159	0.3974	0.82117	-0.238
Mof_C 	C 	0.6531	0.3339	0.81748	0.167
Mof_C 	C 	0.6384	0.2925	0.79553	-0.188
Mof_C 	C 	0.5862	0.3133	0.77696	0.089
Mof_C 	C 	0.5744	0.2758	0.75037	0.051
Mof_C 	C 	0.6151	0.2179	0.74183	-0.132
Mof_C 	C 	0.6051	0.1896	0.71582	0.089
Mof_C 	C 	0.5565	0.2208	0.69877	-0.172
Mof_C 	C 	0.5142	0.2772	0.70916	0.106
Mof_C 	C 	0.5451	0.1949	0.6692	0.468
Mof_C 	C 	0.7869	0.5846	0.91566	0.521
Mof_C 	C 	0.8358	0.654	0.95679	0.133
Mof_C 	C 	0.8431	0.5992	0.93735	-0.196
Mof_C 	C 	0.9037	0.5584	0.93895	0.113
Mof_C 	C 	0.9527	0.569	0.96006	-0.153
Mof_C 	C 	0.9409	0.6209	0.97926	0.063
Mof_C 	C 	0.9889	0.6342	0.00286	0.059
Mof_C 	C 	0.0478	0.593	0.00848	-0.149
Mof_C 	C 	0.0856	0.6069	0.03172	0.093
Mof_C 	C 	0.065	0.6615	0.04899	-0.17
Mof_C 	C 	0.0072	0.704	0.04121	0.113
Mof_C 	C 	0.1053	0.6755	0.0758	0.453
Mof_C 	C 	0.7713	0.9216	0.9269	0.443
Mof_C 	C 	0.8195	0.8429	0.9647	0.118
Mof_C 	C 	0.7602	0.8717	0.9517	-0.153
Mof_C 	C 	0.6945	0.8483	0.9594	0.104
Mof_C 	C 	0.6867	0.8001	0.98116	-0.138
Mof_C 	C 	0.7484	0.7742	0.99447	0.069
Mof_C 	C 	0.7508	0.7274	0.01793	0.056
Mof_C 	C 	0.6917	0.7016	0.0316	-0.1
Mof_C 	C 	0.7009	0.6598	0.0552	0.055
Mof_C 	C 	0.7695	0.6455	0.0642	-0.115
Mof_C 	C 	0.8259	0.6718	0.04866	0.1
Mof_C 	C 	0.785	0.6006	0.08937	0.338
Mof_C 	C 	0.0761	0.7578	0.91363	0.564
Mof_C 	C 	0.9911	0.7626	0.95356	0.135
Mof_C 	C 	0.0507	0.7913	0.94008	-0.263
Mof_C 	C 	0.0879	0.8463	0.95239	0.155
Mof_C 	C 	0.0636	0.8717	0.97743	-0.185
Mof_C 	C 	0.0051	0.8426	0.99014	0.074
Mof_C 	C 	0.9709	0.8699	0.01514	0.077
Mof_C 	C 	0.9947	0.9295	0.02903	-0.181
Mof_C 	C 	0.9555	0.9549	0.05081	0.152
Mof_C 	C 	0.8933	0.9205	0.05804	-0.219
Mof_C 	C 	0.8747	0.8569	0.0442	0.159
Mof_C 	C 	0.845	0.948	0.08076	0.559
Mof_C 	C 	0.7001	0.4858	0.16213	0.352
Mof_C 	C 	0.6282	0.5349	0.20131	0.097
Mof_C 	C 	0.6498	0.4761	0.18619	-0.119
Mof_C 	C 	0.6244	0.4108	0.1944	0.061
Mof_C 	C 	0.5822	0.4037	0.21767	-0.114
Mof_C 	C 	0.5647	0.4651	0.23205	0.062
Mof_C 	C 	0.5217	0.4642	0.25731	0.068
Mof_C 	C 	0.5037	0.4032	0.27178	-0.113
Mof_C 	C 	0.4652	0.4073	0.29624	0.055
Mof_C 	C 	0.4437	0.4738	0.30499	-0.116
Mof_C 	C 	0.4623	0.5337	0.28953	0.092
Mof_C 	C 	0.4008	0.4834	0.33068	0.346
Mof_C 	C 	0.3971	0.6826	0.66364	0.479
Mof_C 	C 	0.4138	0.7713	0.7017	0.114
Mof_C 	C 	0.3799	0.7104	0.69142	-0.191
Mof_C 	C 	0.3319	0.6766	0.70871	0.101
Mof_C 	C 	0.3179	0.7051	0.73459	-0.142
Mof_C 	C 	0.3529	0.7674	0.74328	0.052
Mof_C 	C 	0.3389	0.8029	0.76957	0.081
Mof_C 	C 	0.2918	0.7757	0.78853	-0.185
Mof_C 	C 	0.2774	0.8137	0.8117	0.158
Mof_C 	C 	0.3094	0.8806	0.81542	-0.238
Mof_C 	C 	0.3587	0.9031	0.79612	0.16
Mof_C 	C 	0.2883	0.9276	0.83907	0.564
Mof_C 	C 	0.1395	0.5501	0.65658	0.573
Mof_C 	C 	0.0617	0.5873	0.69696	0.168
Mof_C 	C 	0.1159	0.6026	0.67883	-0.238
Mof_C 	C 	0.1531	0.6661	0.68252	0.167
Mof_C 	C 	0.1384	0.7075	0.70447	-0.187
Mof_C 	C 	0.0862	0.6867	0.72304	0.09
Mof_C 	C 	0.0744	0.7242	0.74963	0.053
Mof_C 	C 	0.1151	0.7821	0.75817	-0.135
Mof_C 	C 	0.1051	0.8104	0.78418	0.094
Mof_C 	C 	0.0565	0.7792	0.80123	-0.178
Mof_C 	C 	0.0142	0.7228	0.79084	0.117
Mof_C 	C 	0.0451	0.8051	0.8308	0.476
Mof_C 	C 	0.2869	0.4154	0.58434	0.521
Mof_C 	C 	0.3358	0.346	0.54321	0.133
Mof_C 	C 	0.3431	0.4008	0.56265	-0.196
Mof_C 	C 	0.4037	0.4416	0.56105	0.113
Mof_C 	C 	0.4527	0.431	0.53994	-0.152
Mof_C 	C 	0.4409	0.3791	0.52074	0.062
Mof_C 	C 	0.4889	0.3658	0.49714	0.06
Mof_C 	C 	0.5478	0.407	0.49152	-0.15
Mof_C 	C 	0.5856	0.3931	0.46828	0.093
Mof_C 	C 	0.565	0.3385	0.45101	-0.168
Mof_C 	C 	0.5072	0.296	0.45879	0.109
Mof_C 	C 	0.6053	0.3245	0.4242	0.453
Mof_C 	C 	0.2713	0.0784	0.5731	0.443
Mof_C 	C 	0.3195	0.1571	0.5353	0.117
Mof_C 	C 	0.2602	0.1283	0.5483	-0.153
Mof_C 	C 	0.1945	0.1517	0.5406	0.104
Mof_C 	C 	0.1867	0.1999	0.51884	-0.138
Mof_C 	C 	0.2484	0.2258	0.50553	0.069
Mof_C 	C 	0.2508	0.2726	0.48207	0.056
Mof_C 	C 	0.1917	0.2984	0.4684	-0.1
Mof_C 	C 	0.2009	0.3402	0.4448	0.055
Mof_C 	C 	0.2695	0.3545	0.4358	-0.115
Mof_C 	C 	0.3259	0.3282	0.45134	0.1
Mof_C 	C 	0.285	0.3994	0.41063	0.338
Mof_C 	C 	0.5761	0.2422	0.58637	0.565
Mof_C 	C 	0.4911	0.2374	0.54644	0.141
Mof_C 	C 	0.5507	0.2087	0.55992	-0.268
Mof_C 	C 	0.5879	0.1537	0.54761	0.156
Mof_C 	C 	0.5636	0.1283	0.52257	-0.185
Mof_C 	C 	0.5051	0.1574	0.50986	0.069
Mof_C 	C 	0.4709	0.1301	0.48486	0.077
Mof_C 	C 	0.4947	0.0705	0.47097	-0.172
Mof_C 	C 	0.4555	0.0451	0.44919	0.147
Mof_C 	C 	0.3933	0.0795	0.44196	-0.217
Mof_C 	C 	0.3747	0.1431	0.4558	0.158
Mof_C 	C 	0.345	0.052	0.41924	0.561
Mof_C 	C 	0.2001	0.5142	0.33787	0.352
Mof_C 	C 	0.1282	0.4651	0.29869	0.097
Mof_C 	C 	0.1498	0.5239	0.31381	-0.119
Mof_C 	C 	0.1244	0.5892	0.3056	0.061
Mof_C 	C 	0.0822	0.5963	0.28233	-0.114
Mof_C 	C 	0.0647	0.5349	0.26795	0.061
Mof_C 	C 	0.0217	0.5358	0.24269	0.069
Mof_C 	C 	0.0037	0.5968	0.22822	-0.118
Mof_C 	C 	0.9652	0.5927	0.20376	0.062
Mof_C 	C 	0.9437	0.5262	0.19501	-0.119
Mof_C 	C 	0.9623	0.4663	0.21047	0.097
Mof_C 	C 	0.9008	0.5166	0.16932	0.348
Mof_C 	C 	0.6029	0.8174	0.16364	0.478
Mof_C 	C 	0.5862	0.7287	0.2017	0.114
Mof_C 	C 	0.6201	0.7896	0.19142	-0.191
Mof_C 	C 	0.6681	0.8234	0.20871	0.101
Mof_C 	C 	0.6821	0.7949	0.23459	-0.142
Mof_C 	C 	0.6471	0.7326	0.24328	0.052
Mof_C 	C 	0.6611	0.6971	0.26957	0.081
Mof_C 	C 	0.7082	0.7243	0.28853	-0.185
Mof_C 	C 	0.7226	0.6863	0.3117	0.158
Mof_C 	C 	0.6906	0.6194	0.31542	-0.238
Mof_C 	C 	0.6413	0.5969	0.29612	0.16
Mof_C 	C 	0.7117	0.5724	0.33907	0.564
Mof_C 	C 	0.8605	0.9499	0.15658	0.567
Mof_C 	C 	0.9383	0.9127	0.19696	0.166
Mof_C 	C 	0.8841	0.8974	0.17883	-0.237
Mof_C 	C 	0.8469	0.8339	0.18252	0.166
Mof_C 	C 	0.8616	0.7925	0.20447	-0.187
Mof_C 	C 	0.9138	0.8133	0.22304	0.089
Mof_C 	C 	0.9256	0.7758	0.24963	0.052
Mof_C 	C 	0.8849	0.7179	0.25817	-0.133
Mof_C 	C 	0.8949	0.6896	0.28418	0.089
Mof_C 	C 	0.9435	0.7208	0.30123	-0.173
Mof_C 	C 	0.9858	0.7772	0.29084	0.106
Mof_C 	C 	0.9549	0.6949	0.3308	0.468
Mof_C 	C 	0.7131	0.0846	0.08434	0.521
Mof_C 	C 	0.6642	0.154	0.04321	0.133
Mof_C 	C 	0.6569	0.0992	0.06265	-0.196
Mof_C 	C 	0.5963	0.0584	0.06105	0.113
Mof_C 	C 	0.5473	0.069	0.03994	-0.152
Mof_C 	C 	0.5591	0.1209	0.02074	0.062
Mof_C 	C 	0.5111	0.1342	0.99714	0.06
Mof_C 	C 	0.4522	0.093	0.99152	-0.15
Mof_C 	C 	0.4144	0.1069	0.96828	0.093
Mof_C 	C 	0.435	0.1615	0.95101	-0.169
Mof_C 	C 	0.4928	0.204	0.95879	0.109
Mof_C 	C 	0.3947	0.1755	0.9242	0.452
Mof_C 	C 	0.7287	0.4216	0.0731	0.443
Mof_C 	C 	0.6805	0.3429	0.0353	0.117
Mof_C 	C 	0.7398	0.3717	0.0483	-0.152
Mof_C 	C 	0.8055	0.3483	0.0406	0.104
Mof_C 	C 	0.8133	0.3001	0.01884	-0.138
Mof_C 	C 	0.7516	0.2742	0.00553	0.069
Mof_C 	C 	0.7492	0.2274	0.98207	0.056
Mof_C 	C 	0.8083	0.2016	0.9684	-0.1
Mof_C 	C 	0.7991	0.1598	0.9448	0.055
Mof_C 	C 	0.7305	0.1455	0.9358	-0.115
Mof_C 	C 	0.6741	0.1718	0.95134	0.1
Mof_C 	C 	0.715	0.1006	0.91063	0.338
Mof_C 	C 	0.4239	0.2578	0.08637	0.565
Mof_C 	C 	0.5089	0.2626	0.04644	0.141
Mof_C 	C 	0.4493	0.2913	0.05992	-0.268
Mof_C 	C 	0.4121	0.3463	0.04761	0.156
Mof_C 	C 	0.4364	0.3717	0.02257	-0.185
Mof_C 	C 	0.4949	0.3426	0.00986	0.069
Mof_C 	C 	0.5291	0.3699	0.98486	0.077
Mof_C 	C 	0.5053	0.4295	0.97097	-0.172
Mof_C 	C 	0.5445	0.4549	0.94919	0.148
Mof_C 	C 	0.6067	0.4205	0.94196	-0.217
Mof_C 	C 	0.6253	0.3569	0.9558	0.158
Mof_C 	C 	0.655	0.448	0.91924	0.563
Mof_C 	C 	0.7999	0.9858	0.83787	0.35
Mof_C 	C 	0.8718	0.0349	0.79869	0.102
Mof_C 	C 	0.8502	0.9761	0.81381	-0.123
Mof_C 	C 	0.8756	0.9108	0.8056	0.061
Mof_C 	C 	0.9178	0.9037	0.78233	-0.114
Mof_C 	C 	0.9353	0.9651	0.76795	0.058
Mof_C 	C 	0.9783	0.9642	0.74269	0.067
Mof_C 	C 	0.9963	0.9032	0.72822	-0.124
Mof_C 	C 	0.0348	0.9073	0.70376	0.066
Mof_C 	C 	0.0563	0.9738	0.69501	-0.114
Mof_C 	C 	0.0377	0.0337	0.71047	0.087
Mof_C 	C 	0.0992	0.9834	0.66932	0.35
Mof_C 	C 	0.1029	0.1826	0.33636	0.478
Mof_C 	C 	0.0862	0.2713	0.2983	0.114
Mof_C 	C 	0.1201	0.2104	0.30858	-0.192
Mof_C 	C 	0.1681	0.1766	0.29129	0.101
Mof_C 	C 	0.1821	0.2051	0.26541	-0.142
Mof_C 	C 	0.1471	0.2674	0.25672	0.051
Mof_C 	C 	0.1611	0.3029	0.23043	0.081
Mof_C 	C 	0.2082	0.2757	0.21147	-0.185
Mof_C 	C 	0.2226	0.3137	0.1883	0.158
Mof_C 	C 	0.1906	0.3806	0.18458	-0.239
Mof_C 	C 	0.1413	0.4031	0.20388	0.16
Mof_C 	C 	0.2117	0.4276	0.16093	0.564
Mof_C 	C 	0.3605	0.0501	0.34342	0.571
Mof_C 	C 	0.4383	0.0873	0.30304	0.167
Mof_C 	C 	0.3841	0.1026	0.32117	-0.238
Mof_C 	C 	0.3469	0.1661	0.31748	0.166
Mof_C 	C 	0.3616	0.2075	0.29553	-0.188
Mof_C 	C 	0.4138	0.1867	0.27696	0.089
Mof_C 	C 	0.4256	0.2242	0.25037	0.051
Mof_C 	C 	0.3849	0.2821	0.24183	-0.133
Mof_C 	C 	0.3949	0.3104	0.21582	0.089
Mof_C 	C 	0.4435	0.2792	0.19877	-0.173
Mof_C 	C 	0.4858	0.2228	0.20916	0.106
Mof_C 	C 	0.4549	0.3051	0.1692	0.468
Mof_C 	C 	0.2131	0.9154	0.41566	0.52
Mof_C 	C 	0.1642	0.846	0.45679	0.132
Mof_C 	C 	0.1569	0.9008	0.43735	-0.195
Mof_C 	C 	0.0963	0.9416	0.43895	0.113
Mof_C 	C 	0.0473	0.931	0.46006	-0.15
Mof_C 	C 	0.0591	0.8791	0.47926	0.061
Mof_C 	C 	0.0111	0.8658	0.50286	0.066
Mof_C 	C 	0.9522	0.907	0.50848	-0.156
Mof_C 	C 	0.9144	0.8931	0.53172	0.094
Mof_C 	C 	0.935	0.8385	0.54899	-0.167
Mof_C 	C 	0.9928	0.796	0.54121	0.099
Mof_C 	C 	0.8947	0.8245	0.5758	0.451
Mof_C 	C 	0.2287	0.5784	0.4269	0.443
Mof_C 	C 	0.1805	0.6571	0.4647	0.117
Mof_C 	C 	0.2398	0.6283	0.4517	-0.152
Mof_C 	C 	0.3055	0.6517	0.4594	0.104
Mof_C 	C 	0.3133	0.6999	0.48116	-0.138
Mof_C 	C 	0.2516	0.7258	0.49447	0.069
Mof_C 	C 	0.2492	0.7726	0.51793	0.056
Mof_C 	C 	0.3083	0.7984	0.5316	-0.1
Mof_C 	C 	0.2991	0.8402	0.5552	0.055
Mof_C 	C 	0.2305	0.8545	0.5642	-0.114
Mof_C 	C 	0.1741	0.8282	0.54866	0.099
Mof_C 	C 	0.215	0.8994	0.58937	0.337
Mof_C 	C 	0.9239	0.7422	0.41363	0.565
Mof_C 	C 	0.0089	0.7374	0.45356	0.142
Mof_C 	C 	0.9493	0.7087	0.44008	-0.269
Mof_C 	C 	0.9121	0.6537	0.45239	0.156
Mof_C 	C 	0.9364	0.6283	0.47743	-0.184
Mof_C 	C 	0.9949	0.6574	0.49014	0.067
Mof_C 	C 	0.0291	0.6301	0.51514	0.079
Mof_C 	C 	0.0053	0.5705	0.52903	-0.171
Mof_C 	C 	0.0445	0.5451	0.55081	0.147
Mof_C 	C 	0.1067	0.5795	0.55804	-0.217
Mof_C 	C 	0.1253	0.6431	0.5442	0.158
Mof_C 	C 	0.155	0.552	0.58076	0.563
Mof_C 	C 	0.2999	0.0142	0.66213	0.349
Mof_C 	C 	0.3718	0.9651	0.70131	0.099
Mof_C 	C 	0.3502	0.0239	0.68619	-0.12
Mof_C 	C 	0.3756	0.0892	0.6944	0.061
Mof_C 	C 	0.4178	0.0963	0.71767	-0.115
Mof_C 	C 	0.4353	0.0349	0.73205	0.062
Mof_C 	C 	0.4783	0.0358	0.75731	0.068
Mof_C 	C 	0.4963	0.0968	0.77178	-0.113
Mof_C 	C 	0.5348	0.0927	0.79624	0.055
Mof_C 	C 	0.5563	0.0262	0.80499	-0.115
Mof_C 	C 	0.5377	0.9663	0.78953	0.091
Mof_C 	C 	0.5992	0.0166	0.83068	0.347
Mof_C 	C 	0.1029	0.6826	0.16364	0.478
Mof_C 	C 	0.0862	0.7713	0.2017	0.114
Mof_C 	C 	0.1201	0.7104	0.19142	-0.191
Mof_C 	C 	0.1681	0.6766	0.20871	0.101
Mof_C 	C 	0.1821	0.7051	0.23459	-0.142
Mof_C 	C 	0.1471	0.7674	0.24328	0.052
Mof_C 	C 	0.1611	0.8029	0.26957	0.081
Mof_C 	C 	0.2082	0.7757	0.28853	-0.185
Mof_C 	C 	0.2226	0.8137	0.3117	0.158
Mof_C 	C 	0.1906	0.8806	0.31542	-0.238
Mof_C 	C 	0.1413	0.9031	0.29612	0.16
Mof_C 	C 	0.2117	0.9276	0.33907	0.563
Mof_C 	C 	0.3605	0.5501	0.15658	0.573
Mof_C 	C 	0.4383	0.5873	0.19696	0.168
Mof_C 	C 	0.3841	0.6026	0.17883	-0.238
Mof_C 	C 	0.3469	0.6661	0.18252	0.167
Mof_C 	C 	0.3616	0.7075	0.20447	-0.188
Mof_C 	C 	0.4138	0.6867	0.22304	0.089
Mof_C 	C 	0.4256	0.7242	0.24963	0.051
Mof_C 	C 	0.3849	0.7821	0.25817	-0.132
Mof_C 	C 	0.3949	0.8104	0.28418	0.089
Mof_C 	C 	0.4435	0.7792	0.30123	-0.172
Mof_C 	C 	0.4858	0.7228	0.29084	0.106
Mof_C 	C 	0.4549	0.8051	0.3308	0.468
Mof_C 	C 	0.2131	0.4154	0.08434	0.521
Mof_C 	C 	0.1642	0.346	0.04321	0.133
Mof_C 	C 	0.1569	0.4008	0.06265	-0.196
Mof_C 	C 	0.0963	0.4416	0.06105	0.113
Mof_C 	C 	0.0473	0.431	0.03994	-0.153
Mof_C 	C 	0.0591	0.3791	0.02074	0.063
Mof_C 	C 	0.0111	0.3658	0.99714	0.059
Mof_C 	C 	0.9522	0.407	0.99152	-0.149
Mof_C 	C 	0.9144	0.3931	0.96828	0.093
Mof_C 	C 	0.935	0.3385	0.95101	-0.17
Mof_C 	C 	0.9928	0.296	0.95879	0.113
Mof_C 	C 	0.8947	0.3245	0.9242	0.453
Mof_C 	C 	0.2287	0.0784	0.0731	0.443
Mof_C 	C 	0.1805	0.1571	0.0353	0.118
Mof_C 	C 	0.2398	0.1283	0.0483	-0.153
Mof_C 	C 	0.3055	0.1517	0.0406	0.104
Mof_C 	C 	0.3133	0.1999	0.01884	-0.138
Mof_C 	C 	0.2516	0.2258	0.00553	0.069
Mof_C 	C 	0.2492	0.2726	0.98207	0.056
Mof_C 	C 	0.3083	0.2984	0.9684	-0.1
Mof_C 	C 	0.2991	0.3402	0.9448	0.055
Mof_C 	C 	0.2305	0.3545	0.9358	-0.115
Mof_C 	C 	0.1741	0.3282	0.95134	0.1
Mof_C 	C 	0.215	0.3994	0.91063	0.338
Mof_C 	C 	0.9239	0.2422	0.08637	0.564
Mof_C 	C 	0.0089	0.2374	0.04644	0.135
Mof_C 	C 	0.9493	0.2087	0.05992	-0.263
Mof_C 	C 	0.9121	0.1537	0.04761	0.155
Mof_C 	C 	0.9364	0.1283	0.02257	-0.185
Mof_C 	C 	0.9949	0.1574	0.00986	0.074
Mof_C 	C 	0.0291	0.1301	0.98486	0.077
Mof_C 	C 	0.0053	0.0705	0.97097	-0.181
Mof_C 	C 	0.0445	0.0451	0.94919	0.152
Mof_C 	C 	0.1067	0.0795	0.94196	-0.219
Mof_C 	C 	0.1253	0.1431	0.9558	0.159
Mof_C 	C 	0.155	0.052	0.91924	0.559
Mof_C 	C 	0.2999	0.5142	0.83787	0.352
Mof_C 	C 	0.3718	0.4651	0.79869	0.097
Mof_C 	C 	0.3502	0.5239	0.81381	-0.119
Mof_C 	C 	0.3756	0.5892	0.8056	0.061
Mof_C 	C 	0.4178	0.5963	0.78233	-0.114
Mof_C 	C 	0.4353	0.5349	0.76795	0.062
Mof_C 	C 	0.4783	0.5358	0.74269	0.068
Mof_C 	C 	0.4963	0.5968	0.72822	-0.113
Mof_C 	C 	0.5348	0.5927	0.70376	0.055
Mof_C 	C 	0.5563	0.5262	0.69501	-0.116
Mof_C 	C 	0.5377	0.4663	0.71047	0.092
Mof_C 	C 	0.5992	0.5166	0.66932	0.346
Mof_C 	C 	0.6029	0.3174	0.33636	0.479
Mof_C 	C 	0.5862	0.2287	0.2983	0.114
Mof_C 	C 	0.6201	0.2896	0.30858	-0.191
Mof_C 	C 	0.6681	0.3234	0.29129	0.101
Mof_C 	C 	0.6821	0.2949	0.26541	-0.142
Mof_C 	C 	0.6471	0.2326	0.25672	0.052
Mof_C 	C 	0.6611	0.1971	0.23043	0.081
Mof_C 	C 	0.7082	0.2243	0.21147	-0.185
Mof_C 	C 	0.7226	0.1863	0.1883	0.158
Mof_C 	C 	0.6906	0.1194	0.18458	-0.238
Mof_C 	C 	0.6413	0.0969	0.20388	0.16
Mof_C 	C 	0.7117	0.0724	0.16093	0.564
Mof_C 	C 	0.8605	0.4499	0.34342	0.573
Mof_C 	C 	0.9383	0.4127	0.30304	0.168
Mof_C 	C 	0.8841	0.3974	0.32117	-0.238
Mof_C 	C 	0.8469	0.3339	0.31748	0.167
Mof_C 	C 	0.8616	0.2925	0.29553	-0.187
Mof_C 	C 	0.9138	0.3133	0.27696	0.09
Mof_C 	C 	0.9256	0.2758	0.25037	0.053
Mof_C 	C 	0.8849	0.2179	0.24183	-0.135
Mof_C 	C 	0.8949	0.1896	0.21582	0.094
Mof_C 	C 	0.9435	0.2208	0.19877	-0.178
Mof_C 	C 	0.9858	0.2772	0.20916	0.117
Mof_C 	C 	0.9549	0.1949	0.1692	0.476
Mof_C 	C 	0.7131	0.5846	0.41566	0.521
Mof_C 	C 	0.6642	0.654	0.45679	0.133
Mof_C 	C 	0.6569	0.5992	0.43735	-0.196
Mof_C 	C 	0.5963	0.5584	0.43895	0.113
Mof_C 	C 	0.5473	0.569	0.46006	-0.152
Mof_C 	C 	0.5591	0.6209	0.47926	0.062
Mof_C 	C 	0.5111	0.6342	0.50286	0.06
Mof_C 	C 	0.4522	0.593	0.50848	-0.15
Mof_C 	C 	0.4144	0.6069	0.53172	0.093
Mof_C 	C 	0.435	0.6615	0.54899	-0.168
Mof_C 	C 	0.4928	0.704	0.54121	0.109
Mof_C 	C 	0.3947	0.6755	0.5758	0.453
Mof_C 	C 	0.7287	0.9216	0.4269	0.443
Mof_C 	C 	0.6805	0.8429	0.4647	0.117
Mof_C 	C 	0.7398	0.8717	0.4517	-0.153
Mof_C 	C 	0.8055	0.8483	0.4594	0.104
Mof_C 	C 	0.8133	0.8001	0.48116	-0.138
Mof_C 	C 	0.7516	0.7742	0.49447	0.069
Mof_C 	C 	0.7492	0.7274	0.51793	0.056
Mof_C 	C 	0.8083	0.7016	0.5316	-0.1
Mof_C 	C 	0.7991	0.6598	0.5552	0.055
Mof_C 	C 	0.7305	0.6455	0.5642	-0.115
Mof_C 	C 	0.6741	0.6718	0.54866	0.1
Mof_C 	C 	0.715	0.6006	0.58937	0.338
Mof_C 	C 	0.4239	0.7578	0.41363	0.565
Mof_C 	C 	0.5089	0.7626	0.45356	0.141
Mof_C 	C 	0.4493	0.7913	0.44008	-0.268
Mof_C 	C 	0.4121	0.8463	0.45239	0.156
Mof_C 	C 	0.4364	0.8717	0.47743	-0.185
Mof_C 	C 	0.4949	0.8426	0.49014	0.069
Mof_C 	C 	0.5291	0.8699	0.51514	0.077
Mof_C 	C 	0.5053	0.9295	0.52903	-0.172
Mof_C 	C 	0.5445	0.9549	0.55081	0.147
Mof_C 	C 	0.6067	0.9205	0.55804	-0.217
Mof_C 	C 	0.6253	0.8569	0.5442	0.158
Mof_C 	C 	0.655	0.948	0.58076	0.561
Mof_C 	C 	0.7999	0.4858	0.66213	0.352
Mof_C 	C 	0.8718	0.5349	0.70131	0.097
Mof_C 	C 	0.8502	0.4761	0.68619	-0.119
Mof_C 	C 	0.8756	0.4108	0.6944	0.061
Mof_C 	C 	0.9178	0.4037	0.71767	-0.114
Mof_C 	C 	0.9353	0.4651	0.73205	0.061
Mof_C 	C 	0.9783	0.4642	0.75731	0.069
Mof_C 	C 	0.9963	0.4032	0.77178	-0.118
Mof_C 	C 	0.0348	0.4073	0.79624	0.062
Mof_C 	C 	0.0563	0.4738	0.80499	-0.119
Mof_C 	C 	0.0377	0.5337	0.78953	0.097
Mof_C 	C 	0.0992	0.4834	0.83068	0.348
Mof_C 	C 	0.3971	0.1826	0.83636	0.478
Mof_C 	C 	0.4138	0.2713	0.7983	0.114
Mof_C 	C 	0.3799	0.2104	0.80858	-0.191
Mof_C 	C 	0.3319	0.1766	0.79129	0.101
Mof_C 	C 	0.3179	0.2051	0.76541	-0.142
Mof_C 	C 	0.3529	0.2674	0.75672	0.052
Mof_C 	C 	0.3389	0.3029	0.73043	0.081
Mof_C 	C 	0.2918	0.2757	0.71147	-0.185
Mof_C 	C 	0.2774	0.3137	0.6883	0.158
Mof_C 	C 	0.3094	0.3806	0.68458	-0.238
Mof_C 	C 	0.3587	0.4031	0.70388	0.16
Mof_C 	C 	0.2883	0.4276	0.66093	0.564
Mof_C 	C 	0.1395	0.0501	0.84342	0.567
Mof_C 	C 	0.0617	0.0873	0.80304	0.166
Mof_C 	C 	0.1159	0.1026	0.82117	-0.237
Mof_C 	C 	0.1531	0.1661	0.81748	0.166
Mof_C 	C 	0.1384	0.2075	0.79553	-0.187
Mof_C 	C 	0.0862	0.1867	0.77696	0.089
Mof_C 	C 	0.0744	0.2242	0.75037	0.052
Mof_C 	C 	0.1151	0.2821	0.74183	-0.133
Mof_C 	C 	0.1051	0.3104	0.71582	0.089
Mof_C 	C 	0.0565	0.2792	0.69877	-0.173
Mof_C 	C 	0.0142	0.2228	0.70916	0.106
Mof_C 	C 	0.0451	0.3051	0.6692	0.468
Mof_C 	C 	0.2869	0.9154	0.91566	0.521
Mof_C 	C 	0.3358	0.846	0.95679	0.133
Mof_C 	C 	0.3431	0.9008	0.93735	-0.196
Mof_C 	C 	0.4037	0.9416	0.93895	0.113
Mof_C 	C 	0.4527	0.931	0.96006	-0.152
Mof_C 	C 	0.4409	0.8791	0.97926	0.062
Mof_C 	C 	0.4889	0.8658	0.00286	0.06
Mof_C 	C 	0.5478	0.907	0.00848	-0.15
Mof_C 	C 	0.5856	0.8931	0.03172	0.093
Mof_C 	C 	0.565	0.8385	0.04899	-0.169
Mof_C 	C 	0.5072	0.796	0.04121	0.109
Mof_C 	C 	0.6053	0.8245	0.0758	0.452
Mof_C 	C 	0.2713	0.5784	0.9269	0.443
Mof_C 	C 	0.3195	0.6571	0.9647	0.117
Mof_C 	C 	0.2602	0.6283	0.9517	-0.152
Mof_C 	C 	0.1945	0.6517	0.9594	0.104
Mof_C 	C 	0.1867	0.6999	0.98116	-0.138
Mof_C 	C 	0.2484	0.7258	0.99447	0.069
Mof_C 	C 	0.2508	0.7726	0.01793	0.056
Mof_C 	C 	0.1917	0.7984	0.0316	-0.1
Mof_C 	C 	0.2009	0.8402	0.0552	0.055
Mof_C 	C 	0.2695	0.8545	0.0642	-0.115
Mof_C 	C 	0.3259	0.8282	0.04866	0.1
Mof_C 	C 	0.285	0.8994	0.08937	0.338
Mof_C 	C 	0.5761	0.7422	0.91363	0.565
Mof_C 	C 	0.4911	0.7374	0.95356	0.141
Mof_C 	C 	0.5507	0.7087	0.94008	-0.268
Mof_C 	C 	0.5879	0.6537	0.95239	0.156
Mof_C 	C 	0.5636	0.6283	0.97743	-0.185
Mof_C 	C 	0.5051	0.6574	0.99014	0.069
Mof_C 	C 	0.4709	0.6301	0.01514	0.077
Mof_C 	C 	0.4947	0.5705	0.02903	-0.172
Mof_C 	C 	0.4555	0.5451	0.05081	0.148
Mof_C 	C 	0.3933	0.5795	0.05804	-0.217
Mof_C 	C 	0.3747	0.6431	0.0442	0.158
Mof_C 	C 	0.345	0.552	0.08076	0.563
Mof_C 	C 	0.2001	0.0142	0.16213	0.35
Mof_C 	C 	0.1282	0.9651	0.20131	0.102
Mof_C 	C 	0.1498	0.0239	0.18619	-0.123
Mof_C 	C 	0.1244	0.0892	0.1944	0.061
Mof_C 	C 	0.0822	0.0963	0.21767	-0.114
Mof_C 	C 	0.0647	0.0349	0.23205	0.058
Mof_C 	C 	0.0217	0.0358	0.25731	0.067
Mof_C 	C 	0.0037	0.0968	0.27178	-0.124
Mof_C 	C 	0.9652	0.0927	0.29624	0.066
Mof_C 	C 	0.9437	0.0262	0.30499	-0.114
Mof_C 	C 	0.9623	0.9663	0.28953	0.087
Mof_C 	C 	0.9008	0.0166	0.33068	0.35
Mof_C 	C 	0.8971	0.8174	0.66364	0.478
Mof_C 	C 	0.9138	0.7287	0.7017	0.114
Mof_C 	C 	0.8799	0.7896	0.69142	-0.192
Mof_C 	C 	0.8319	0.8234	0.70871	0.101
Mof_C 	C 	0.8179	0.7949	0.73459	-0.142
Mof_C 	C 	0.8529	0.7326	0.74328	0.051
Mof_C 	C 	0.8389	0.6971	0.76957	0.081
Mof_C 	C 	0.7918	0.7243	0.78853	-0.185
Mof_C 	C 	0.7774	0.6863	0.8117	0.158
Mof_C 	C 	0.8094	0.6194	0.81542	-0.239
Mof_C 	C 	0.8587	0.5969	0.79612	0.16
Mof_C 	C 	0.7883	0.5724	0.83907	0.564
Mof_C 	C 	0.6395	0.9499	0.65658	0.571
Mof_C 	C 	0.5617	0.9127	0.69696	0.167
Mof_C 	C 	0.6159	0.8974	0.67883	-0.238
Mof_C 	C 	0.6531	0.8339	0.68252	0.166
Mof_C 	C 	0.6384	0.7925	0.70447	-0.188
Mof_C 	C 	0.5862	0.8133	0.72304	0.089
Mof_C 	C 	0.5744	0.7758	0.74963	0.051
Mof_C 	C 	0.6151	0.7179	0.75817	-0.133
Mof_C 	C 	0.6051	0.6896	0.78418	0.089
Mof_C 	C 	0.5565	0.7208	0.80123	-0.173
Mof_C 	C 	0.5142	0.7772	0.79084	0.106
Mof_C 	C 	0.5451	0.6949	0.8308	0.468
Mof_C 	C 	0.7869	0.0846	0.58434	0.52
Mof_C 	C 	0.8358	0.154	0.54321	0.132
Mof_C 	C 	0.8431	0.0992	0.56265	-0.195
Mof_C 	C 	0.9037	0.0584	0.56105	0.113
Mof_C 	C 	0.9527	0.069	0.53994	-0.15
Mof_C 	C 	0.9409	0.1209	0.52074	0.061
Mof_C 	C 	0.9889	0.1342	0.49714	0.066
Mof_C 	C 	0.0478	0.093	0.49152	-0.156
Mof_C 	C 	0.0856	0.1069	0.46828	0.094
Mof_C 	C 	0.065	0.1615	0.45101	-0.167
Mof_C 	C 	0.0072	0.204	0.45879	0.099
Mof_C 	C 	0.1053	0.1755	0.4242	0.451
Mof_C 	C 	0.7713	0.4216	0.5731	0.443
Mof_C 	C 	0.8195	0.3429	0.5353	0.117
Mof_C 	C 	0.7602	0.3717	0.5483	-0.152
Mof_C 	C 	0.6945	0.3483	0.5406	0.104
Mof_C 	C 	0.6867	0.3001	0.51884	-0.138
Mof_C 	C 	0.7484	0.2742	0.50553	0.069
Mof_C 	C 	0.7508	0.2274	0.48207	0.056
Mof_C 	C 	0.6917	0.2016	0.4684	-0.1
Mof_C 	C 	0.7009	0.1598	0.4448	0.055
Mof_C 	C 	0.7695	0.1455	0.4358	-0.114
Mof_C 	C 	0.8259	0.1718	0.45134	0.099
Mof_C 	C 	0.785	0.1006	0.41063	0.337
Mof_C 	C 	0.0761	0.2578	0.58637	0.565
Mof_C 	C 	0.9911	0.2626	0.54644	0.142
Mof_C 	C 	0.0507	0.2913	0.55992	-0.269
Mof_C 	C 	0.0879	0.3463	0.54761	0.156
Mof_C 	C 	0.0636	0.3717	0.52257	-0.184
Mof_C 	C 	0.0051	0.3426	0.50986	0.067
Mof_C 	C 	0.9709	0.3699	0.48486	0.079
Mof_C 	C 	0.9947	0.4295	0.47097	-0.171
Mof_C 	C 	0.9555	0.4549	0.44919	0.147
Mof_C 	C 	0.8933	0.4205	0.44196	-0.217
Mof_C 	C 	0.8747	0.3569	0.4558	0.158
Mof_C 	C 	0.845	0.448	0.41924	0.563
Mof_C 	C 	0.7001	0.9858	0.33787	0.349
Mof_C 	C 	0.6282	0.0349	0.29869	0.099
Mof_C 	C 	0.6498	0.9761	0.31381	-0.12
Mof_C 	C 	0.6244	0.9108	0.3056	0.061
Mof_C 	C 	0.5822	0.9037	0.28233	-0.115
Mof_C 	C 	0.5647	0.9651	0.26795	0.062
Mof_C 	C 	0.5217	0.9642	0.24269	0.068
Mof_C 	C 	0.5037	0.9032	0.22822	-0.113
Mof_C 	C 	0.4652	0.9073	0.20376	0.055
Mof_C 	C 	0.4437	0.9738	0.19501	-0.115
Mof_C 	C 	0.4623	0.0337	0.21047	0.091
Mof_C 	C 	0.4008	0.9834	0.16932	0.347
Mof_N 	N 	0.5456	0.3719	0.78163	-0.257
Mof_N 	N 	0.5224	0.304	0.73421	-0.24
Mof_N 	N 	0.8748	0.1342	0.7264	-0.255
Mof_N 	N 	0.9017	0.2011	0.7734	-0.245
Mof_N 	N 	0.8143	0.7954	0.98523	-0.265
Mof_N 	N 	0.818	0.7113	0.02657	-0.254
Mof_N 	N 	0.9683	0.7876	0.97792	-0.265
Mof_N 	N 	0.9128	0.832	0.02368	-0.272
Mof_N 	N 	0.9698	0.6908	0.01838	-0.264
Mof_N 	N 	0.8829	0.6647	0.97753	-0.259
Mof_N 	N 	0.5018	0.5284	0.26675	-0.241
Mof_N 	N 	0.5859	0.5306	0.22339	-0.237
Mof_N 	N 	0.0456	0.6281	0.71837	-0.256
Mof_N 	N 	0.0224	0.696	0.76579	-0.241
Mof_N 	N 	0.3748	0.8658	0.7736	-0.255
Mof_N 	N 	0.4017	0.7989	0.7266	-0.245
Mof_N 	N 	0.3143	0.2046	0.51477	-0.265
Mof_N 	N 	0.318	0.2887	0.47343	-0.254
Mof_N 	N 	0.4683	0.2124	0.52208	-0.264
Mof_N 	N 	0.4128	0.168	0.47632	-0.271
Mof_N 	N 	0.4698	0.3092	0.48162	-0.263
Mof_N 	N 	0.3829	0.3353	0.52247	-0.259
Mof_N 	N 	0.0018	0.4716	0.23325	-0.244
Mof_N 	N 	0.0859	0.4694	0.27661	-0.237
Mof_N 	N 	0.9544	0.8719	0.21837	-0.257
Mof_N 	N 	0.9776	0.804	0.26579	-0.24
Mof_N 	N 	0.6252	0.6342	0.2736	-0.255
Mof_N 	N 	0.5983	0.7011	0.2266	-0.245
Mof_N 	N 	0.6857	0.2954	0.01477	-0.265
Mof_N 	N 	0.682	0.2113	0.97343	-0.254
Mof_N 	N 	0.5317	0.2876	0.02208	-0.264
Mof_N 	N 	0.5872	0.332	0.97632	-0.271
Mof_N 	N 	0.5302	0.1908	0.98162	-0.263
Mof_N 	N 	0.6171	0.1647	0.02247	-0.259
Mof_N 	N 	0.9982	0.0284	0.73325	-0.238
Mof_N 	N 	0.9141	0.0306	0.77661	-0.236
Mof_N 	N 	0.4544	0.1281	0.28163	-0.257
Mof_N 	N 	0.4776	0.196	0.23421	-0.24
Mof_N 	N 	0.1252	0.3658	0.2264	-0.256
Mof_N 	N 	0.0983	0.2989	0.2734	-0.246
Mof_N 	N 	0.1857	0.7046	0.48523	-0.265
Mof_N 	N 	0.182	0.7887	0.52657	-0.254
Mof_N 	N 	0.0317	0.7124	0.47792	-0.264
Mof_N 	N 	0.0872	0.668	0.52368	-0.271
Mof_N 	N 	0.0302	0.8092	0.51838	-0.261
Mof_N 	N 	0.1171	0.8353	0.47753	-0.259
Mof_N 	N 	0.4982	0.9716	0.76675	-0.241
Mof_N 	N 	0.4141	0.9694	0.72339	-0.237
Mof_N 	N 	0.4544	0.6281	0.21837	-0.257
Mof_N 	N 	0.4776	0.696	0.26579	-0.24
Mof_N 	N 	0.1252	0.8658	0.2736	-0.255
Mof_N 	N 	0.0983	0.7989	0.2266	-0.245
Mof_N 	N 	0.1857	0.2046	0.01477	-0.265
Mof_N 	N 	0.182	0.2887	0.97343	-0.254
Mof_N 	N 	0.0317	0.2124	0.02208	-0.265
Mof_N 	N 	0.0872	0.168	0.97632	-0.272
Mof_N 	N 	0.0302	0.3092	0.98162	-0.264
Mof_N 	N 	0.1171	0.3353	0.02247	-0.259
Mof_N 	N 	0.4982	0.4716	0.73325	-0.241
Mof_N 	N 	0.4141	0.4694	0.77661	-0.237
Mof_N 	N 	0.9544	0.3719	0.28163	-0.256
Mof_N 	N 	0.9776	0.304	0.23421	-0.241
Mof_N 	N 	0.6252	0.1342	0.2264	-0.255
Mof_N 	N 	0.5983	0.2011	0.2734	-0.245
Mof_N 	N 	0.6857	0.7954	0.48523	-0.265
Mof_N 	N 	0.682	0.7113	0.52657	-0.254
Mof_N 	N 	0.5317	0.7876	0.47792	-0.264
Mof_N 	N 	0.5872	0.832	0.52368	-0.271
Mof_N 	N 	0.5302	0.6908	0.51838	-0.263
Mof_N 	N 	0.6171	0.6647	0.47753	-0.259
Mof_N 	N 	0.9982	0.5284	0.76675	-0.244
Mof_N 	N 	0.9141	0.5306	0.72339	-0.237
Mof_N 	N 	0.0456	0.1281	0.78163	-0.257
Mof_N 	N 	0.0224	0.196	0.73421	-0.24
Mof_N 	N 	0.3748	0.3658	0.7264	-0.255
Mof_N 	N 	0.4017	0.2989	0.7734	-0.245
Mof_N 	N 	0.3143	0.7046	0.98523	-0.265
Mof_N 	N 	0.318	0.7887	0.02657	-0.254
Mof_N 	N 	0.4683	0.7124	0.97792	-0.264
Mof_N 	N 	0.4128	0.668	0.02368	-0.271
Mof_N 	N 	0.4698	0.8092	0.01838	-0.263
Mof_N 	N 	0.3829	0.8353	0.97753	-0.259
Mof_N 	N 	0.0018	0.9716	0.26675	-0.238
Mof_N 	N 	0.0859	0.9694	0.22339	-0.236
Mof_N 	N 	0.5456	0.8719	0.71837	-0.257
Mof_N 	N 	0.5224	0.804	0.76579	-0.24
Mof_N 	N 	0.8748	0.6342	0.7736	-0.256
Mof_N 	N 	0.9017	0.7011	0.7266	-0.246
Mof_N 	N 	0.8143	0.2954	0.51477	-0.265
Mof_N 	N 	0.818	0.2113	0.47343	-0.254
Mof_N 	N 	0.9683	0.2876	0.52208	-0.264
Mof_N 	N 	0.9128	0.332	0.47632	-0.271
Mof_N 	N 	0.9698	0.1908	0.48162	-0.261
Mof_N 	N 	0.8829	0.1647	0.52247	-0.259
Mof_N 	N 	0.5018	0.0284	0.23325	-0.241
Mof_N 	N 	0.5859	0.0306	0.27661	-0.237
Mof_O 	O 	0.8606	0.3681	0.84484	-0.557
Mof_O 	O 	0.9459	0.2869	0.84915	-0.3
Mof_O 	O 	0.736	0.0946	0.64668	-0.63
Mof_O 	O 	0.8229	0.0164	0.6564	-0.527
Mof_O 	O 	0.6961	0.4354	0.85562	-0.634
Mof_O 	O 	0.6006	0.503	0.84807	-0.539
Mof_O 	O 	0.5931	0.1581	0.65911	-0.536
Mof_O 	O 	0.4895	0.2138	0.65745	-0.304
Mof_O 	O 	0.7969	0.5286	0.90256	-0.599
Mof_O 	O 	0.734	0.6273	0.91242	-0.463
Mof_O 	O 	0.1362	0.6211	0.08552	-0.511
Mof_O 	O 	0.1065	0.7357	0.08524	-0.312
Mof_O 	O 	0.0578	0.6953	0.90937	-0.603
Mof_O 	O 	0.1133	0.7962	0.89789	-0.583
Mof_O 	O 	0.8652	0.0052	0.09188	-0.59
Mof_O 	O 	0.7912	0.9121	0.08709	-0.516
Mof_O 	O 	0.8354	0.9422	0.92409	-0.297
Mof_O 	O 	0.716	0.9453	0.91735	-0.531
Mof_O 	O 	0.8478	0.58	0.09349	-0.433
Mof_O 	O 	0.7336	0.5837	0.10451	-0.39
Mof_O 	O 	0.7032	0.438	0.14419	-0.442
Mof_O 	O 	0.74	0.5386	0.16171	-0.414
Mof_O 	O 	0.392	0.4349	0.34764	-0.403
Mof_O 	O 	0.3745	0.5451	0.33485	-0.42
Mof_O 	O 	0.5153	0.5871	0.88883	-0.985
Mof_O 	O 	0.7614	0.3027	0.87938	-0.926
Mof_O 	O 	0.9314	0.4744	0.87812	-0.774
Mof_O 	O 	0.9283	0.4529	0.10617	-0.879
Mof_O 	O 	0.8233	0.3566	0.12693	-0.882
Mof_O 	O 	0.3606	0.6319	0.65516	-0.557
Mof_O 	O 	0.4459	0.7131	0.65085	-0.3
Mof_O 	O 	0.236	0.9054	0.85332	-0.63
Mof_O 	O 	0.3229	0.9836	0.8436	-0.527
Mof_O 	O 	0.1961	0.5646	0.64438	-0.634
Mof_O 	O 	0.1006	0.497	0.65193	-0.538
Mof_O 	O 	0.0931	0.8419	0.84089	-0.538
Mof_O 	O 	0.9895	0.7862	0.84255	-0.31
Mof_O 	O 	0.2969	0.4714	0.59744	-0.599
Mof_O 	O 	0.234	0.3727	0.58758	-0.463
Mof_O 	O 	0.6362	0.3789	0.41448	-0.511
Mof_O 	O 	0.6065	0.2643	0.41476	-0.313
Mof_O 	O 	0.5578	0.3047	0.59063	-0.605
Mof_O 	O 	0.6133	0.2038	0.60211	-0.584
Mof_O 	O 	0.3652	0.9948	0.40812	-0.592
Mof_O 	O 	0.2912	0.0879	0.41291	-0.516
Mof_O 	O 	0.3354	0.0578	0.57591	-0.296
Mof_O 	O 	0.216	0.0547	0.58265	-0.531
Mof_O 	O 	0.3478	0.42	0.40651	-0.433
Mof_O 	O 	0.2336	0.4163	0.39549	-0.39
Mof_O 	O 	0.2032	0.562	0.35581	-0.442
Mof_O 	O 	0.24	0.4614	0.33829	-0.414
Mof_O 	O 	0.892	0.5651	0.15236	-0.403
Mof_O 	O 	0.8745	0.4549	0.16515	-0.42
Mof_O 	O 	0.0153	0.4129	0.61117	-0.982
Mof_O 	O 	0.2614	0.6973	0.62062	-0.926
Mof_O 	O 	0.4314	0.5256	0.62188	-0.774
Mof_O 	O 	0.4283	0.5471	0.39383	-0.879
Mof_O 	O 	0.3233	0.6434	0.37307	-0.882
Mof_O 	O 	0.6394	0.8681	0.15516	-0.557
Mof_O 	O 	0.5541	0.7869	0.15085	-0.3
Mof_O 	O 	0.764	0.5946	0.35332	-0.631
Mof_O 	O 	0.6771	0.5164	0.3436	-0.529
Mof_O 	O 	0.8039	0.9354	0.14438	-0.633
Mof_O 	O 	0.8994	0.003	0.15193	-0.534
Mof_O 	O 	0.9069	0.6581	0.34089	-0.536
Mof_O 	O 	0.0105	0.7138	0.34255	-0.305
Mof_O 	O 	0.7031	0.0286	0.09744	-0.598
Mof_O 	O 	0.766	0.1273	0.08758	-0.463
Mof_O 	O 	0.3638	0.1211	0.91448	-0.51
Mof_O 	O 	0.3935	0.2357	0.91476	-0.313
Mof_O 	O 	0.4422	0.1953	0.09063	-0.605
Mof_O 	O 	0.3867	0.2962	0.10211	-0.584
Mof_O 	O 	0.6348	0.5052	0.90812	-0.593
Mof_O 	O 	0.7088	0.4121	0.91291	-0.517
Mof_O 	O 	0.6646	0.4422	0.07591	-0.296
Mof_O 	O 	0.784	0.4453	0.08265	-0.531
Mof_O 	O 	0.6522	0.08	0.90651	-0.432
Mof_O 	O 	0.7664	0.0837	0.89549	-0.389
Mof_O 	O 	0.7968	0.938	0.85581	-0.442
Mof_O 	O 	0.76	0.0386	0.83829	-0.411
Mof_O 	O 	0.108	0.9349	0.65236	-0.402
Mof_O 	O 	0.1255	0.0451	0.66515	-0.423
Mof_O 	O 	0.9847	0.0871	0.11117	-0.966
Mof_O 	O 	0.7386	0.8027	0.12062	-0.926
Mof_O 	O 	0.5686	0.9744	0.12188	-0.775
Mof_O 	O 	0.5717	0.9529	0.89383	-0.878
Mof_O 	O 	0.6767	0.8566	0.87307	-0.881
Mof_O 	O 	0.1394	0.1319	0.34484	-0.557
Mof_O 	O 	0.0541	0.2131	0.34915	-0.301
Mof_O 	O 	0.264	0.4054	0.14668	-0.631
Mof_O 	O 	0.1771	0.4836	0.1564	-0.529
Mof_O 	O 	0.3039	0.0646	0.35562	-0.634
Mof_O 	O 	0.3994	0.997	0.34807	-0.538
Mof_O 	O 	0.4069	0.3419	0.15911	-0.536
Mof_O 	O 	0.5105	0.2862	0.15745	-0.304
Mof_O 	O 	0.2031	0.9714	0.40256	-0.597
Mof_O 	O 	0.266	0.8727	0.41242	-0.463
Mof_O 	O 	0.8638	0.8789	0.58552	-0.511
Mof_O 	O 	0.8935	0.7643	0.58524	-0.313
Mof_O 	O 	0.9422	0.8047	0.40937	-0.605
Mof_O 	O 	0.8867	0.7038	0.39789	-0.584
Mof_O 	O 	0.1348	0.4948	0.59188	-0.593
Mof_O 	O 	0.2088	0.5879	0.58709	-0.517
Mof_O 	O 	0.1646	0.5578	0.42409	-0.296
Mof_O 	O 	0.284	0.5547	0.41735	-0.531
Mof_O 	O 	0.1522	0.92	0.59349	-0.43
Mof_O 	O 	0.2664	0.9163	0.60451	-0.389
Mof_O 	O 	0.2968	0.062	0.64419	-0.441
Mof_O 	O 	0.26	0.9614	0.66171	-0.411
Mof_O 	O 	0.608	0.0651	0.84764	-0.403
Mof_O 	O 	0.6255	0.9549	0.83485	-0.421
Mof_O 	O 	0.4847	0.9129	0.38883	-0.985
Mof_O 	O 	0.2386	0.1973	0.37938	-0.926
Mof_O 	O 	0.0686	0.0256	0.37812	-0.781
Mof_O 	O 	0.0717	0.0471	0.60617	-0.878
Mof_O 	O 	0.1767	0.1434	0.62693	-0.881
Mof_O 	O 	0.1394	0.6319	0.15516	-0.557
Mof_O 	O 	0.0541	0.7131	0.15085	-0.3
Mof_O 	O 	0.264	0.9054	0.35332	-0.63
Mof_O 	O 	0.1771	0.9836	0.3436	-0.527
Mof_O 	O 	0.3039	0.5646	0.14438	-0.634
Mof_O 	O 	0.3994	0.497	0.15193	-0.539
Mof_O 	O 	0.4069	0.8419	0.34089	-0.536
Mof_O 	O 	0.5105	0.7862	0.34255	-0.304
Mof_O 	O 	0.2031	0.4714	0.09744	-0.599
Mof_O 	O 	0.266	0.3727	0.08758	-0.463
Mof_O 	O 	0.8638	0.3789	0.91448	-0.511
Mof_O 	O 	0.8935	0.2643	0.91476	-0.312
Mof_O 	O 	0.9422	0.3047	0.09063	-0.603
Mof_O 	O 	0.8867	0.2038	0.10211	-0.583
Mof_O 	O 	0.1348	0.9948	0.90812	-0.59
Mof_O 	O 	0.2088	0.0879	0.91291	-0.516
Mof_O 	O 	0.1646	0.0578	0.07591	-0.297
Mof_O 	O 	0.284	0.0547	0.08265	-0.531
Mof_O 	O 	0.1522	0.42	0.90651	-0.433
Mof_O 	O 	0.2664	0.4163	0.89549	-0.39
Mof_O 	O 	0.2968	0.562	0.85581	-0.442
Mof_O 	O 	0.26	0.4614	0.83829	-0.414
Mof_O 	O 	0.608	0.5651	0.65236	-0.403
Mof_O 	O 	0.6255	0.4549	0.66515	-0.42
Mof_O 	O 	0.4847	0.4129	0.11117	-0.985
Mof_O 	O 	0.2386	0.6973	0.12062	-0.926
Mof_O 	O 	0.0686	0.5256	0.12188	-0.774
Mof_O 	O 	0.0717	0.5471	0.89383	-0.879
Mof_O 	O 	0.1767	0.6434	0.87307	-0.882
Mof_O 	O 	0.6394	0.3681	0.34484	-0.557
Mof_O 	O 	0.5541	0.2869	0.34915	-0.3
Mof_O 	O 	0.764	0.0946	0.14668	-0.63
Mof_O 	O 	0.6771	0.0164	0.1564	-0.527
Mof_O 	O 	0.8039	0.4354	0.35562	-0.634
Mof_O 	O 	0.8994	0.503	0.34807	-0.538
Mof_O 	O 	0.9069	0.1581	0.15911	-0.538
Mof_O 	O 	0.0105	0.2138	0.15745	-0.31
Mof_O 	O 	0.7031	0.5286	0.40256	-0.599
Mof_O 	O 	0.766	0.6273	0.41242	-0.463
Mof_O 	O 	0.3638	0.6211	0.58552	-0.511
Mof_O 	O 	0.3935	0.7357	0.58524	-0.313
Mof_O 	O 	0.4422	0.6953	0.40937	-0.605
Mof_O 	O 	0.3867	0.7962	0.39789	-0.584
Mof_O 	O 	0.6348	0.0052	0.59188	-0.592
Mof_O 	O 	0.7088	0.9121	0.58709	-0.516
Mof_O 	O 	0.6646	0.9422	0.42409	-0.296
Mof_O 	O 	0.784	0.9453	0.41735	-0.531
Mof_O 	O 	0.6522	0.58	0.59349	-0.433
Mof_O 	O 	0.7664	0.5837	0.60451	-0.39
Mof_O 	O 	0.7968	0.438	0.64419	-0.442
Mof_O 	O 	0.76	0.5386	0.66171	-0.414
Mof_O 	O 	0.108	0.4349	0.84764	-0.403
Mof_O 	O 	0.1255	0.5451	0.83485	-0.42
Mof_O 	O 	0.9847	0.5871	0.38883	-0.982
Mof_O 	O 	0.7386	0.3027	0.37938	-0.926
Mof_O 	O 	0.5686	0.4744	0.37812	-0.774
Mof_O 	O 	0.5717	0.4529	0.60617	-0.879
Mof_O 	O 	0.6767	0.3566	0.62693	-0.882
Mof_O 	O 	0.3606	0.1319	0.84484	-0.557
Mof_O 	O 	0.4459	0.2131	0.84915	-0.3
Mof_O 	O 	0.236	0.4054	0.64668	-0.631
Mof_O 	O 	0.3229	0.4836	0.6564	-0.529
Mof_O 	O 	0.1961	0.0646	0.85562	-0.633
Mof_O 	O 	0.1006	0.997	0.84807	-0.534
Mof_O 	O 	0.0931	0.3419	0.65911	-0.536
Mof_O 	O 	0.9895	0.2862	0.65745	-0.305
Mof_O 	O 	0.2969	0.9714	0.90256	-0.598
Mof_O 	O 	0.234	0.8727	0.91242	-0.463
Mof_O 	O 	0.6362	0.8789	0.08552	-0.51
Mof_O 	O 	0.6065	0.7643	0.08524	-0.313
Mof_O 	O 	0.5578	0.8047	0.90937	-0.605
Mof_O 	O 	0.6133	0.7038	0.89789	-0.584
Mof_O 	O 	0.3652	0.4948	0.09188	-0.593
Mof_O 	O 	0.2912	0.5879	0.08709	-0.517
Mof_O 	O 	0.3354	0.5578	0.92409	-0.296
Mof_O 	O 	0.216	0.5547	0.91735	-0.531
Mof_O 	O 	0.3478	0.92	0.09349	-0.432
Mof_O 	O 	0.2336	0.9163	0.10451	-0.389
Mof_O 	O 	0.2032	0.062	0.14419	-0.442
Mof_O 	O 	0.24	0.9614	0.16171	-0.411
Mof_O 	O 	0.892	0.0651	0.34764	-0.402
Mof_O 	O 	0.8745	0.9549	0.33485	-0.423
Mof_O 	O 	0.0153	0.9129	0.88883	-0.966
Mof_O 	O 	0.2614	0.1973	0.87938	-0.926
Mof_O 	O 	0.4314	0.0256	0.87812	-0.775
Mof_O 	O 	0.4283	0.0471	0.10617	-0.878
Mof_O 	O 	0.3233	0.1434	0.12693	-0.881
Mof_O 	O 	0.8606	0.8681	0.65516	-0.557
Mof_O 	O 	0.9459	0.7869	0.65085	-0.301
Mof_O 	O 	0.736	0.5946	0.85332	-0.631
Mof_O 	O 	0.8229	0.5164	0.8436	-0.529
Mof_O 	O 	0.6961	0.9354	0.64438	-0.634
Mof_O 	O 	0.6006	0.003	0.65193	-0.538
Mof_O 	O 	0.5931	0.6581	0.84089	-0.536
Mof_O 	O 	0.4895	0.7138	0.84255	-0.304
Mof_O 	O 	0.7969	0.0286	0.59744	-0.597
Mof_O 	O 	0.734	0.1273	0.58758	-0.463
Mof_O 	O 	0.1362	0.1211	0.41448	-0.511
Mof_O 	O 	0.1065	0.2357	0.41476	-0.313
Mof_O 	O 	0.0578	0.1953	0.59063	-0.605
Mof_O 	O 	0.1133	0.2962	0.60211	-0.584
Mof_O 	O 	0.8652	0.5052	0.40812	-0.593
Mof_O 	O 	0.7912	0.4121	0.41291	-0.517
Mof_O 	O 	0.8354	0.4422	0.57591	-0.296
Mof_O 	O 	0.716	0.4453	0.58265	-0.531
Mof_O 	O 	0.8478	0.08	0.40651	-0.43
Mof_O 	O 	0.7336	0.0837	0.39549	-0.389
Mof_O 	O 	0.7032	0.938	0.35581	-0.441
Mof_O 	O 	0.74	0.0386	0.33829	-0.411
Mof_O 	O 	0.392	0.9349	0.15236	-0.403
Mof_O 	O 	0.3745	0.0451	0.16515	-0.421
Mof_O 	O 	0.5153	0.0871	0.61117	-0.985
Mof_O 	O 	0.7614	0.8027	0.62062	-0.926
Mof_O 	O 	0.9314	0.9744	0.62188	-0.781
Mof_O 	O 	0.9283	0.9529	0.39383	-0.878
Mof_O 	O 	0.8233	0.8566	0.37307	-0.881
Mof_Cl	Cl	0.72515	0.5057	0.99342	-0.22
Mof_O 	O 	0.7757	0.5398	0.0091	-0.025
Mof_O 	O 	0.7519	0.4392	0.98543	-0.031
Mof_O 	O 	0.7106	0.5474	0.96971	-0.045
Mof_O 	O 	0.6594	0.4944	0.00791	-0.042
Mof_Cl	Cl	0.7873	0.4983	0.26075	-0.23
Mof_O 	O 	0.8081	0.4232	0.2529	-0.046
Mof_O 	O 	0.7191	0.4656	0.2598	-0.029
Mof_O 	O 	0.7315	0.5143	0.2424	-0.023
Mof_O 	O 	0.8526	0.5364	0.2596	-0.037
Mof_Cl	Cl	0.22515	0.4943	0.50658	-0.22
Mof_O 	O 	0.2757	0.4602	0.4909	-0.025
Mof_O 	O 	0.2519	0.5608	0.51457	-0.031
Mof_O 	O 	0.2106	0.4526	0.53029	-0.045
Mof_O 	O 	0.1594	0.5056	0.49209	-0.042
Mof_Cl	Cl	0.2873	0.5017	0.23925	-0.23
Mof_O 	O 	0.3081	0.5768	0.2471	-0.046
Mof_O 	O 	0.2191	0.5344	0.2402	-0.029
Mof_O 	O 	0.2315	0.4857	0.2576	-0.023
Mof_O 	O 	0.3526	0.4636	0.2404	-0.037
Mof_Cl	Cl	0.77485	0.0057	0.00658	-0.215
Mof_O 	O 	0.7243	0.0398	0.9909	-0.025
Mof_O 	O 	0.7481	0.9392	0.01457	-0.033
Mof_O 	O 	0.7894	0.0474	0.03029	-0.045
Mof_O 	O 	0.8406	0.9944	0.99209	-0.045
Mof_Cl	Cl	0.7127	0.9983	0.73925	-0.234
Mof_O 	O 	0.6919	0.9232	0.7471	-0.046
Mof_O 	O 	0.7809	0.9656	0.7402	-0.03
Mof_O 	O 	0.7685	0.0143	0.7576	-0.02
Mof_O 	O 	0.6474	0.0364	0.7404	-0.036
Mof_Cl	Cl	0.27485	0.9943	0.49342	-0.216
Mof_O 	O 	0.2243	0.9602	0.5091	-0.025
Mof_O 	O 	0.2481	0.0608	0.48543	-0.033
Mof_O 	O 	0.2894	0.9526	0.46971	-0.045
Mof_O 	O 	0.3406	0.0056	0.50791	-0.043
Mof_Cl	Cl	0.2127	0.0017	0.76075	-0.235
Mof_O 	O 	0.1919	0.0768	0.7529	-0.046
Mof_O 	O 	0.2809	0.0344	0.7598	-0.03
Mof_O 	O 	0.2685	0.9857	0.7424	-0.02
Mof_O 	O 	0.1474	0.9636	0.7596	-0.033
Mof_Cl	Cl	0.27485	0.4943	0.00658	-0.22
Mof_O 	O 	0.2243	0.4602	0.9909	-0.025
Mof_O 	O 	0.2481	0.5608	0.01457	-0.031
Mof_O 	O 	0.2894	0.4526	0.03029	-0.045
Mof_O 	O 	0.3406	0.5056	0.99209	-0.042
Mof_Cl	Cl	0.2127	0.5017	0.73925	-0.23
Mof_O 	O 	0.1919	0.5768	0.7471	-0.046
Mof_O 	O 	0.2809	0.5344	0.7402	-0.029
Mof_O 	O 	0.2685	0.4857	0.7576	-0.023
Mof_O 	O 	0.1474	0.4636	0.7404	-0.037
Mof_Cl	Cl	0.77485	0.5057	0.49342	-0.22
Mof_O 	O 	0.7243	0.5398	0.5091	-0.025
Mof_O 	O 	0.7481	0.4392	0.48543	-0.031
Mof_O 	O 	0.7894	0.5474	0.46971	-0.045
Mof_O 	O 	0.8406	0.4944	0.50791	-0.042
Mof_Cl	Cl	0.7127	0.4983	0.76075	-0.23
Mof_O 	O 	0.6919	0.4232	0.7529	-0.046
Mof_O 	O 	0.7809	0.4656	0.7598	-0.029
Mof_O 	O 	0.7685	0.5143	0.7424	-0.023
Mof_O 	O 	0.6474	0.5364	0.7596	-0.037
Mof_Cl	Cl	0.22515	0.9943	0.99342	-0.215
Mof_O 	O 	0.2757	0.9602	0.0091	-0.025
Mof_O 	O 	0.2519	0.0608	0.98543	-0.033
Mof_O 	O 	0.2106	0.9526	0.96971	-0.045
Mof_O 	O 	0.1594	0.0056	0.00791	-0.045
Mof_Cl	Cl	0.2873	0.0017	0.26075	-0.234
Mof_O 	O 	0.3081	0.0768	0.2529	-0.046
Mof_O 	O 	0.2191	0.0344	0.2598	-0.03
Mof_O 	O 	0.2315	0.9857	0.2424	-0.02
Mof_O 	O 	0.3526	0.9636	0.2596	-0.036
Mof_Cl	Cl	0.72515	0.0057	0.50658	-0.216
Mof_O 	O 	0.7757	0.0398	0.4909	-0.025
Mof_O 	O 	0.7519	0.9392	0.51457	-0.033
Mof_O 	O 	0.7106	0.0474	0.53029	-0.045
Mof_O 	O 	0.6594	0.9944	0.49209	-0.043
Mof_Cl	Cl	0.7873	0.9983	0.23925	-0.235
Mof_O 	O 	0.8081	0.9232	0.2471	-0.046
Mof_O 	O 	0.7191	0.9656	0.2402	-0.03
Mof_O 	O 	0.7315	0.0143	0.2576	-0.02
Mof_O 	O 	0.8526	0.0364	0.2404	-0.033
_end
