data_functionalizedCrystal
_audit_creation_method	'EQeq! by Chris Wilmer'
_symmetry_space_group_name_H-M	'P1'
_symmetry_Int_Tables_number	1
_symmetry_cell_setting	triclinic
loop_
_symmetry_equiv_pos_as_xyz
  x,y,z
_cell_length_a	11.5293
_cell_length_b	40.471
_cell_length_c	17.1304
_cell_angle_alpha	90
_cell_angle_beta	90
_cell_angle_gamma	90
loop_
_atom_site_label
_atom_site_type_symbol
_atom_site_fract_x
_atom_site_fract_y
_atom_site_fract_z
_atom_site_charge
Mof_Dy	Dy	0.22966	0.5146	0.74892	1.769
Mof_O 	O 	0.7936	0.34613	0.7861	-0.481
Mof_H 	H 	0.7543	0.3331	0.8136	0.292
Mof_C 	C 	0.0595	0.412	0.7477	-0.205
Mof_O 	O 	0.7137	0.44906	0.6507	-0.47
Mof_O 	O 	0.966	0.31529	0.5659	-0.402
Mof_C 	C 	0.2986	0.3512	0.6975	0.159
Mof_C 	C 	0.9672	0.3897	0.7595	0.122
Mof_H 	H 	0.8925	0.398	0.7725	0.024
Mof_O 	O 	0.9022	0.3026	0.7596	-0.315
Mof_C 	C 	0.984	0.3564	0.7523	-0.159
Mof_N 	N 	0.3899	0.3689	0.6738	-0.147
Mof_O 	O 	0.1329	0.46599	0.7679	-0.569
Mof_C 	C 	0.6653	0.3282	0.6101	0.03
Mof_H 	H 	0.639	0.306	0.6087	0.018
Mof_C 	C 	0.8595	0.3097	0.5611	0.338
Mof_O 	O 	0.8681	0.43823	0.5788	-0.311
Mof_O 	O 	0.9414	0.45916	0.7616	-0.56
Mof_C 	C 	0.4725	0.3456	0.6623	0.131
Mof_C 	C 	0.0921	0.3442	0.7298	0.07
Mof_H 	H 	0.1025	0.3211	0.7225	0.009
Mof_N 	N 	0.4354	0.3158	0.6779	-0.101
Mof_C 	C 	0.7764	0.4293	0.612	0.378
Mof_C 	C 	0.6277	0.3859	0.6355	0.031
Mof_H 	H 	0.5769	0.4029	0.6524	0.04
Mof_C 	C 	0.1849	0.3657	0.7178	-0.099
Mof_C 	C 	0.1683	0.3991	0.7259	0.093
Mof_H 	H 	0.2311	0.4138	0.7166	-0.001
Mof_C 	C 	0.7387	0.3938	0.6106	-0.104
Mof_C 	C 	0.8902	0.3323	0.7672	0.413
Mof_C 	C 	0.8137	0.3689	0.5873	0.039
Mof_H 	H 	0.8904	0.3741	0.5713	0.058
Mof_N 	N 	0.3214	0.3196	0.701	-0.179
Mof_H 	H 	0.2734	0.3039	0.7153	0.108
Mof_C 	C 	0.7765	0.336	0.5872	-0.09
Mof_C 	C 	0.0429	0.4485	0.7596	0.536
Mof_O 	O 	0.8207	0.28279	0.5368	-0.43
Mof_C 	C 	0.5908	0.3538	0.6358	-0.046
Mof_Dy	Dy	0.22966	0.0146	0.24892	1.802
Mof_O 	O 	0.7936	0.84613	0.2861	-0.483
Mof_H 	H 	0.7543	0.8331	0.3136	0.297
Mof_C 	C 	0.0595	0.912	0.2477	-0.205
Mof_O 	O 	0.7137	0.94906	0.1507	-0.461
Mof_O 	O 	0.966	0.81529	0.0659	-0.341
Mof_C 	C 	0.2986	0.8512	0.1975	0.163
Mof_C 	C 	0.9672	0.8897	0.2595	0.119
Mof_H 	H 	0.8925	0.898	0.2725	0.024
Mof_O 	O 	0.9022	0.8026	0.2596	-0.309
Mof_C 	C 	0.984	0.8564	0.2523	-0.16
Mof_N 	N 	0.3899	0.8689	0.1738	-0.14
Mof_O 	O 	0.1329	0.96599	0.2679	-0.568
Mof_C 	C 	0.6653	0.8282	0.1101	0.026
Mof_H 	H 	0.639	0.806	0.1087	0.039
Mof_C 	C 	0.8595	0.8097	0.0611	0.333
Mof_O 	O 	0.8681	0.93823	0.0788	-0.287
Mof_O 	O 	0.9414	0.95916	0.2616	-0.562
Mof_C 	C 	0.4725	0.8456	0.1623	0.141
Mof_C 	C 	0.0921	0.8442	0.2298	0.071
Mof_H 	H 	0.1025	0.8211	0.2225	0.014
Mof_N 	N 	0.4354	0.8158	0.1779	-0.093
Mof_C 	C 	0.7764	0.9293	0.112	0.383
Mof_C 	C 	0.6277	0.8859	0.1355	0.032
Mof_H 	H 	0.5769	0.9029	0.1524	0.051
Mof_C 	C 	0.1849	0.8657	0.2178	-0.098
Mof_C 	C 	0.1683	0.8991	0.2259	0.091
Mof_H 	H 	0.2311	0.9138	0.2166	0.002
Mof_C 	C 	0.7387	0.8938	0.1106	-0.081
Mof_C 	C 	0.8902	0.8323	0.2672	0.413
Mof_C 	C 	0.8137	0.8689	0.0873	0.039
Mof_H 	H 	0.8904	0.8741	0.0713	0.071
Mof_N 	N 	0.3214	0.8196	0.201	-0.178
Mof_H 	H 	0.2734	0.8039	0.2153	0.115
Mof_C 	C 	0.7765	0.836	0.0872	-0.062
Mof_C 	C 	0.0429	0.9485	0.2596	0.539
Mof_O 	O 	0.8207	0.78279	0.0368	-0.348
Mof_C 	C 	0.5908	0.8538	0.1358	-0.024
Mof_Dy	Dy	0.72966	0.5146	0.24892	1.802
Mof_O 	O 	0.2936	0.34613	0.2861	-0.483
Mof_H 	H 	0.2543	0.3331	0.3136	0.297
Mof_C 	C 	0.5595	0.412	0.2477	-0.205
Mof_O 	O 	0.2137	0.44906	0.1507	-0.461
Mof_O 	O 	0.466	0.31529	0.0659	-0.339
Mof_C 	C 	0.7986	0.3512	0.1975	0.163
Mof_C 	C 	0.4672	0.3897	0.2595	0.119
Mof_H 	H 	0.3925	0.398	0.2725	0.024
Mof_O 	O 	0.4022	0.3026	0.2596	-0.308
Mof_C 	C 	0.484	0.3564	0.2523	-0.159
Mof_N 	N 	0.8899	0.3689	0.1738	-0.14
Mof_O 	O 	0.6329	0.46599	0.2679	-0.568
Mof_C 	C 	0.1653	0.3282	0.1101	0.027
Mof_H 	H 	0.139	0.306	0.1087	0.038
Mof_C 	C 	0.3595	0.3097	0.0611	0.333
Mof_O 	O 	0.3681	0.43823	0.0788	-0.287
Mof_O 	O 	0.4414	0.45916	0.2616	-0.562
Mof_C 	C 	0.9725	0.3456	0.1623	0.142
Mof_C 	C 	0.5921	0.3442	0.2298	0.069
Mof_H 	H 	0.6025	0.3211	0.2225	0.015
Mof_N 	N 	0.9354	0.3158	0.1779	-0.093
Mof_C 	C 	0.2764	0.4293	0.112	0.383
Mof_C 	C 	0.1277	0.3859	0.1355	0.033
Mof_H 	H 	0.0769	0.4029	0.1524	0.05
Mof_C 	C 	0.6849	0.3657	0.2178	-0.097
Mof_C 	C 	0.6683	0.3991	0.2259	0.091
Mof_H 	H 	0.7311	0.4138	0.2166	0.002
Mof_C 	C 	0.2387	0.3938	0.1106	-0.082
Mof_C 	C 	0.3902	0.3323	0.2672	0.412
Mof_C 	C 	0.3137	0.3689	0.0873	0.039
Mof_H 	H 	0.3904	0.3741	0.0713	0.071
Mof_N 	N 	0.8214	0.3196	0.201	-0.178
Mof_H 	H 	0.7734	0.3039	0.2153	0.115
Mof_C 	C 	0.2765	0.336	0.0872	-0.062
Mof_C 	C 	0.5429	0.4485	0.2596	0.539
Mof_O 	O 	0.3207	0.28279	0.0368	-0.347
Mof_C 	C 	0.0908	0.3538	0.1358	-0.026
Mof_Dy	Dy	0.72966	0.0146	0.74892	1.768
Mof_O 	O 	0.2936	0.84613	0.7861	-0.482
Mof_H 	H 	0.2543	0.8331	0.8136	0.291
Mof_C 	C 	0.5595	0.912	0.7477	-0.205
Mof_O 	O 	0.2137	0.94906	0.6507	-0.471
Mof_O 	O 	0.466	0.81529	0.5659	-0.404
Mof_C 	C 	0.7986	0.8512	0.6975	0.159
Mof_C 	C 	0.4672	0.8897	0.7595	0.121
Mof_H 	H 	0.3925	0.898	0.7725	0.024
Mof_O 	O 	0.4022	0.8026	0.7596	-0.315
Mof_C 	C 	0.484	0.8564	0.7523	-0.161
Mof_N 	N 	0.8899	0.8689	0.6738	-0.147
Mof_O 	O 	0.6329	0.96599	0.7679	-0.569
Mof_C 	C 	0.1653	0.8282	0.6101	0.029
Mof_H 	H 	0.139	0.806	0.6087	0.018
Mof_C 	C 	0.3595	0.8097	0.5611	0.339
Mof_O 	O 	0.3681	0.93823	0.5788	-0.312
Mof_O 	O 	0.4414	0.95916	0.7616	-0.56
Mof_C 	C 	0.9725	0.8456	0.6623	0.13
Mof_C 	C 	0.5921	0.8442	0.7298	0.071
Mof_H 	H 	0.6025	0.8211	0.7225	0.009
Mof_N 	N 	0.9354	0.8158	0.6779	-0.101
Mof_C 	C 	0.2764	0.9293	0.612	0.378
Mof_C 	C 	0.1277	0.8859	0.6355	0.031
Mof_H 	H 	0.0769	0.9029	0.6524	0.04
Mof_C 	C 	0.6849	0.8657	0.7178	-0.1
Mof_C 	C 	0.6683	0.8991	0.7259	0.094
Mof_H 	H 	0.7311	0.9138	0.7166	-0.001
Mof_C 	C 	0.2387	0.8938	0.6106	-0.104
Mof_C 	C 	0.3902	0.8323	0.7672	0.413
Mof_C 	C 	0.3137	0.8689	0.5873	0.038
Mof_H 	H 	0.3904	0.8741	0.5713	0.058
Mof_N 	N 	0.8214	0.8196	0.701	-0.179
Mof_H 	H 	0.7734	0.8039	0.7153	0.108
Mof_C 	C 	0.2765	0.836	0.5872	-0.09
Mof_C 	C 	0.5429	0.9485	0.7596	0.536
Mof_O 	O 	0.3207	0.78279	0.5368	-0.431
Mof_C 	C 	0.0908	0.8538	0.6358	-0.044
Mof_Dy	Dy	0.77034	0.4854	0.74892	1.768
Mof_O 	O 	0.2064	0.65387	0.7861	-0.482
Mof_H 	H 	0.2457	0.6669	0.8136	0.291
Mof_C 	C 	0.9405	0.588	0.7477	-0.206
Mof_O 	O 	0.2863	0.55094	0.6507	-0.471
Mof_O 	O 	0.034	0.68471	0.5659	-0.403
Mof_C 	C 	0.7014	0.6488	0.6975	0.159
Mof_C 	C 	0.0328	0.6103	0.7595	0.122
Mof_H 	H 	0.1075	0.602	0.7725	0.024
Mof_O 	O 	0.0978	0.6974	0.7596	-0.315
Mof_C 	C 	0.016	0.6436	0.7523	-0.159
Mof_N 	N 	0.6101	0.6311	0.6738	-0.147
Mof_O 	O 	0.8671	0.53401	0.7679	-0.569
Mof_C 	C 	0.3347	0.6718	0.6101	0.03
Mof_H 	H 	0.361	0.694	0.6087	0.018
Mof_C 	C 	0.1405	0.6903	0.5611	0.338
Mof_O 	O 	0.1319	0.56177	0.5788	-0.311
Mof_O 	O 	0.0586	0.54084	0.7616	-0.56
Mof_C 	C 	0.5275	0.6544	0.6623	0.131
Mof_C 	C 	0.9079	0.6558	0.7298	0.07
Mof_H 	H 	0.8975	0.6789	0.7225	0.009
Mof_N 	N 	0.5646	0.6842	0.6779	-0.101
Mof_C 	C 	0.2236	0.5707	0.612	0.378
Mof_C 	C 	0.3723	0.6141	0.6355	0.031
Mof_H 	H 	0.4231	0.5971	0.6524	0.04
Mof_C 	C 	0.8151	0.6343	0.7178	-0.099
Mof_C 	C 	0.8317	0.6009	0.7259	0.093
Mof_H 	H 	0.7689	0.5862	0.7166	-0.001
Mof_C 	C 	0.2613	0.6062	0.6106	-0.104
Mof_C 	C 	0.1098	0.6677	0.7672	0.413
Mof_C 	C 	0.1863	0.6311	0.5873	0.039
Mof_H 	H 	0.1096	0.6259	0.5713	0.058
Mof_N 	N 	0.6786	0.6804	0.701	-0.179
Mof_H 	H 	0.7266	0.6961	0.7153	0.108
Mof_C 	C 	0.2235	0.664	0.5872	-0.09
Mof_C 	C 	0.9571	0.5515	0.7596	0.536
Mof_O 	O 	0.1793	0.71721	0.5368	-0.43
Mof_C 	C 	0.4092	0.6462	0.6358	-0.046
Mof_Dy	Dy	0.77034	0.9854	0.24892	1.802
Mof_O 	O 	0.2064	0.15387	0.2861	-0.483
Mof_H 	H 	0.2457	0.1669	0.3136	0.297
Mof_C 	C 	0.9405	0.088	0.2477	-0.205
Mof_O 	O 	0.2863	0.05094	0.1507	-0.461
Mof_O 	O 	0.034	0.18471	0.0659	-0.341
Mof_C 	C 	0.7014	0.1488	0.1975	0.163
Mof_C 	C 	0.0328	0.1103	0.2595	0.119
Mof_H 	H 	0.1075	0.102	0.2725	0.024
Mof_O 	O 	0.0978	0.1974	0.2596	-0.309
Mof_C 	C 	0.016	0.1436	0.2523	-0.16
Mof_N 	N 	0.6101	0.1311	0.1738	-0.14
Mof_O 	O 	0.8671	0.03401	0.2679	-0.568
Mof_C 	C 	0.3347	0.1718	0.1101	0.026
Mof_H 	H 	0.361	0.194	0.1087	0.039
Mof_C 	C 	0.1405	0.1903	0.0611	0.333
Mof_O 	O 	0.1319	0.06177	0.0788	-0.287
Mof_O 	O 	0.0586	0.04084	0.2616	-0.562
Mof_C 	C 	0.5275	0.1544	0.1623	0.141
Mof_C 	C 	0.9079	0.1558	0.2298	0.071
Mof_H 	H 	0.8975	0.1789	0.2225	0.014
Mof_N 	N 	0.5646	0.1842	0.1779	-0.093
Mof_C 	C 	0.2236	0.0707	0.112	0.383
Mof_C 	C 	0.3723	0.1141	0.1355	0.032
Mof_H 	H 	0.4231	0.0971	0.1524	0.051
Mof_C 	C 	0.8151	0.1343	0.2178	-0.098
Mof_C 	C 	0.8317	0.1009	0.2259	0.091
Mof_H 	H 	0.7689	0.0862	0.2166	0.002
Mof_C 	C 	0.2613	0.1062	0.1106	-0.081
Mof_C 	C 	0.1098	0.1677	0.2672	0.413
Mof_C 	C 	0.1863	0.1311	0.0873	0.039
Mof_H 	H 	0.1096	0.1259	0.0713	0.071
Mof_N 	N 	0.6786	0.1804	0.201	-0.178
Mof_H 	H 	0.7266	0.1961	0.2153	0.115
Mof_C 	C 	0.2235	0.164	0.0872	-0.062
Mof_C 	C 	0.9571	0.0515	0.2596	0.539
Mof_O 	O 	0.1793	0.21721	0.0368	-0.348
Mof_C 	C 	0.4092	0.1462	0.1358	-0.024
Mof_Dy	Dy	0.27034	0.4854	0.24892	1.802
Mof_O 	O 	0.7064	0.65387	0.2861	-0.483
Mof_H 	H 	0.7457	0.6669	0.3136	0.297
Mof_C 	C 	0.4405	0.588	0.2477	-0.205
Mof_O 	O 	0.7863	0.55094	0.1507	-0.461
Mof_O 	O 	0.534	0.68471	0.0659	-0.339
Mof_C 	C 	0.2014	0.6488	0.1975	0.163
Mof_C 	C 	0.5328	0.6103	0.2595	0.119
Mof_H 	H 	0.6075	0.602	0.2725	0.024
Mof_O 	O 	0.5978	0.6974	0.2596	-0.308
Mof_C 	C 	0.516	0.6436	0.2523	-0.159
Mof_N 	N 	0.1101	0.6311	0.1738	-0.14
Mof_O 	O 	0.3671	0.53401	0.2679	-0.568
Mof_C 	C 	0.8347	0.6718	0.1101	0.027
Mof_H 	H 	0.861	0.694	0.1087	0.038
Mof_C 	C 	0.6405	0.6903	0.0611	0.333
Mof_O 	O 	0.6319	0.56177	0.0788	-0.287
Mof_O 	O 	0.5586	0.54084	0.2616	-0.562
Mof_C 	C 	0.0275	0.6544	0.1623	0.142
Mof_C 	C 	0.4079	0.6558	0.2298	0.069
Mof_H 	H 	0.3975	0.6789	0.2225	0.015
Mof_N 	N 	0.0646	0.6842	0.1779	-0.093
Mof_C 	C 	0.7236	0.5707	0.112	0.383
Mof_C 	C 	0.8723	0.6141	0.1355	0.033
Mof_H 	H 	0.9231	0.5971	0.1524	0.05
Mof_C 	C 	0.3151	0.6343	0.2178	-0.097
Mof_C 	C 	0.3317	0.6009	0.2259	0.091
Mof_H 	H 	0.2689	0.5862	0.2166	0.002
Mof_C 	C 	0.7613	0.6062	0.1106	-0.082
Mof_C 	C 	0.6098	0.6677	0.2672	0.412
Mof_C 	C 	0.6863	0.6311	0.0873	0.039
Mof_H 	H 	0.6096	0.6259	0.0713	0.071
Mof_N 	N 	0.1786	0.6804	0.201	-0.178
Mof_H 	H 	0.2266	0.6961	0.2153	0.115
Mof_C 	C 	0.7235	0.664	0.0872	-0.062
Mof_C 	C 	0.4571	0.5515	0.2596	0.539
Mof_O 	O 	0.6793	0.71721	0.0368	-0.347
Mof_C 	C 	0.9092	0.6462	0.1358	-0.026
Mof_Dy	Dy	0.27034	0.9854	0.74892	1.768
Mof_O 	O 	0.7064	0.15387	0.7861	-0.482
Mof_H 	H 	0.7457	0.1669	0.8136	0.291
Mof_C 	C 	0.4405	0.088	0.7477	-0.205
Mof_O 	O 	0.7863	0.05094	0.6507	-0.471
Mof_O 	O 	0.534	0.18471	0.5659	-0.404
Mof_C 	C 	0.2014	0.1488	0.6975	0.159
Mof_C 	C 	0.5328	0.1103	0.7595	0.121
Mof_H 	H 	0.6075	0.102	0.7725	0.024
Mof_O 	O 	0.5978	0.1974	0.7596	-0.315
Mof_C 	C 	0.516	0.1436	0.7523	-0.161
Mof_N 	N 	0.1101	0.1311	0.6738	-0.147
Mof_O 	O 	0.3671	0.03401	0.7679	-0.569
Mof_C 	C 	0.8347	0.1718	0.6101	0.029
Mof_H 	H 	0.861	0.194	0.6087	0.018
Mof_C 	C 	0.6405	0.1903	0.5611	0.339
Mof_O 	O 	0.6319	0.06177	0.5788	-0.312
Mof_O 	O 	0.5586	0.04084	0.7616	-0.56
Mof_C 	C 	0.0275	0.1544	0.6623	0.13
Mof_C 	C 	0.4079	0.1558	0.7298	0.071
Mof_H 	H 	0.3975	0.1789	0.7225	0.009
Mof_N 	N 	0.0646	0.1842	0.6779	-0.101
Mof_C 	C 	0.7236	0.0707	0.612	0.378
Mof_C 	C 	0.8723	0.1141	0.6355	0.031
Mof_H 	H 	0.9231	0.0971	0.6524	0.04
Mof_C 	C 	0.3151	0.1343	0.7178	-0.1
Mof_C 	C 	0.3317	0.1009	0.7259	0.094
Mof_H 	H 	0.2689	0.0862	0.7166	-0.001
Mof_C 	C 	0.7613	0.1062	0.6106	-0.104
Mof_C 	C 	0.6098	0.1677	0.7672	0.413
Mof_C 	C 	0.6863	0.1311	0.5873	0.038
Mof_H 	H 	0.6096	0.1259	0.5713	0.058
Mof_N 	N 	0.1786	0.1804	0.701	-0.179
Mof_H 	H 	0.2266	0.1961	0.7153	0.108
Mof_C 	C 	0.7235	0.164	0.5872	-0.09
Mof_C 	C 	0.4571	0.0515	0.7596	0.536
Mof_O 	O 	0.6793	0.21721	0.5368	-0.431
Mof_C 	C 	0.9092	0.1462	0.6358	-0.044
Mof_Dy	Dy	0.47966	0.7354	0.99892	1.442
Mof_O 	O 	0.0436	0.90387	0.0361	-0.453
Mof_H 	H 	0.0043	0.9169	0.0636	0.293
Mof_C 	C 	0.3095	0.838	0.9977	-0.437
Mof_O 	O 	0.9637	0.80094	0.9007	-0.466
Mof_O 	O 	0.216	0.93471	0.8159	-0.413
Mof_C 	C 	0.5486	0.8988	0.9475	0.138
Mof_C 	C 	0.2172	0.8603	0.0095	0.288
Mof_H 	H 	0.1425	0.852	0.0225	-0.008
Mof_O 	O 	0.1522	0.9474	0.0096	-0.26
Mof_C 	C 	0.234	0.8936	0.0023	-0.077
Mof_N 	N 	0.6399	0.8811	0.9238	-0.157
Mof_O 	O 	0.3829	0.78401	0.0179	-0.49
Mof_C 	C 	0.9153	0.9218	0.8601	0.023
Mof_H 	H 	0.889	0.944	0.8587	0.007
Mof_C 	C 	0.1095	0.9403	0.8111	0.333
Mof_O 	O 	0.1181	0.81177	0.8288	-0.314
Mof_O 	O 	0.1914	0.79084	0.0116	-0.491
Mof_C 	C 	0.7225	0.9044	0.9123	0.115
Mof_C 	C 	0.3421	0.9058	0.9798	-0.053
Mof_H 	H 	0.3525	0.9289	0.9725	0.021
Mof_N 	N 	0.6854	0.9342	0.9279	-0.119
Mof_C 	C 	0.0264	0.8207	0.862	0.367
Mof_C 	C 	0.8777	0.8641	0.8855	0.026
Mof_H 	H 	0.8269	0.8471	0.9024	0.022
Mof_C 	C 	0.4349	0.8843	0.9678	-0.112
Mof_C 	C 	0.4183	0.8509	0.9759	0.15
Mof_H 	H 	0.4811	0.8362	0.9666	-0.047
Mof_C 	C 	0.9887	0.8562	0.8606	-0.12
Mof_C 	C 	0.1402	0.9177	0.0172	0.405
Mof_C 	C 	0.0637	0.8811	0.8373	0.033
Mof_H 	H 	0.1404	0.8759	0.8213	0.053
Mof_N 	N 	0.5714	0.9304	0.951	-0.18
Mof_H 	H 	0.5234	0.9461	0.9653	0.086
Mof_C 	C 	0.0265	0.914	0.8372	-0.105
Mof_C 	C 	0.2929	0.8015	0.0096	0.644
Mof_O 	O 	0.0707	0.96721	0.7868	-0.436
Mof_C 	C 	0.8408	0.8962	0.8858	-0.064
Mof_Dy	Dy	0.47966	0.2354	0.49892	1.786
Mof_O 	O 	0.0436	0.40387	0.5361	-0.483
Mof_H 	H 	0.0043	0.4169	0.5636	0.297
Mof_C 	C 	0.3095	0.338	0.4977	-0.206
Mof_O 	O 	0.9637	0.30094	0.4007	-0.471
Mof_O 	O 	0.216	0.43471	0.3159	-0.406
Mof_C 	C 	0.5486	0.3988	0.4475	0.159
Mof_C 	C 	0.2172	0.3603	0.5095	0.121
Mof_H 	H 	0.1425	0.352	0.5225	0.024
Mof_O 	O 	0.1522	0.4474	0.5096	-0.314
Mof_C 	C 	0.234	0.3936	0.5023	-0.161
Mof_N 	N 	0.6399	0.3811	0.4238	-0.148
Mof_O 	O 	0.3829	0.28401	0.5179	-0.568
Mof_C 	C 	0.9153	0.4218	0.3601	0.031
Mof_H 	H 	0.889	0.444	0.3587	0.018
Mof_C 	C 	0.1095	0.4403	0.3111	0.338
Mof_O 	O 	0.1181	0.31177	0.3288	-0.31
Mof_O 	O 	0.1914	0.29084	0.5116	-0.56
Mof_C 	C 	0.7225	0.4044	0.4123	0.131
Mof_C 	C 	0.3421	0.4058	0.4798	0.073
Mof_H 	H 	0.3525	0.4289	0.4725	0.009
Mof_N 	N 	0.6854	0.4342	0.4279	-0.101
Mof_C 	C 	0.0264	0.3207	0.362	0.375
Mof_C 	C 	0.8777	0.3641	0.3855	0.03
Mof_H 	H 	0.8269	0.3471	0.4024	0.04
Mof_C 	C 	0.4349	0.3843	0.4678	-0.1
Mof_C 	C 	0.4183	0.3509	0.4759	0.093
Mof_H 	H 	0.4811	0.3362	0.4666	-0.002
Mof_C 	C 	0.9887	0.3562	0.3606	-0.101
Mof_C 	C 	0.1402	0.4177	0.5172	0.415
Mof_C 	C 	0.0637	0.3811	0.3373	0.036
Mof_H 	H 	0.1404	0.3759	0.3213	0.058
Mof_N 	N 	0.5714	0.4304	0.451	-0.179
Mof_H 	H 	0.5234	0.4461	0.4653	0.109
Mof_C 	C 	0.0265	0.414	0.3372	-0.09
Mof_C 	C 	0.2929	0.3015	0.5096	0.537
Mof_O 	O 	0.0707	0.46721	0.2868	-0.428
Mof_C 	C 	0.8408	0.3962	0.3858	-0.046
Mof_Dy	Dy	0.97966	0.7354	0.49892	1.783
Mof_O 	O 	0.5436	0.90387	0.5361	-0.482
Mof_H 	H 	0.5043	0.9169	0.5636	0.297
Mof_C 	C 	0.8095	0.838	0.4977	-0.207
Mof_O 	O 	0.4637	0.80094	0.4007	-0.473
Mof_O 	O 	0.716	0.93471	0.3159	-0.406
Mof_C 	C 	0.0486	0.8988	0.4475	0.159
Mof_C 	C 	0.7172	0.8603	0.5095	0.121
Mof_H 	H 	0.6425	0.852	0.5225	0.024
Mof_O 	O 	0.6522	0.9474	0.5096	-0.314
Mof_C 	C 	0.734	0.8936	0.5023	-0.161
Mof_N 	N 	0.1399	0.8811	0.4238	-0.148
Mof_O 	O 	0.8829	0.78401	0.5179	-0.568
Mof_C 	C 	0.4153	0.9218	0.3601	0.03
Mof_H 	H 	0.389	0.944	0.3587	0.018
Mof_C 	C 	0.6095	0.9403	0.3111	0.338
Mof_O 	O 	0.6181	0.81177	0.3288	-0.311
Mof_O 	O 	0.6914	0.79084	0.5116	-0.56
Mof_C 	C 	0.2225	0.9044	0.4123	0.131
Mof_C 	C 	0.8421	0.9058	0.4798	0.073
Mof_H 	H 	0.8525	0.9289	0.4725	0.009
Mof_N 	N 	0.1854	0.9342	0.4279	-0.101
Mof_C 	C 	0.5264	0.8207	0.362	0.379
Mof_C 	C 	0.3777	0.8641	0.3855	0.032
Mof_H 	H 	0.3269	0.8471	0.4024	0.039
Mof_C 	C 	0.9349	0.8843	0.4678	-0.101
Mof_C 	C 	0.9183	0.8509	0.4759	0.094
Mof_H 	H 	0.9811	0.8362	0.4666	-0.003
Mof_C 	C 	0.4887	0.8562	0.3606	-0.105
Mof_C 	C 	0.6402	0.9177	0.5172	0.415
Mof_C 	C 	0.5637	0.8811	0.3373	0.039
Mof_H 	H 	0.6404	0.8759	0.3213	0.057
Mof_N 	N 	0.0714	0.9304	0.451	-0.179
Mof_H 	H 	0.0234	0.9461	0.4653	0.109
Mof_C 	C 	0.5265	0.914	0.3372	-0.089
Mof_C 	C 	0.7929	0.8015	0.5096	0.537
Mof_O 	O 	0.5707	0.96721	0.2868	-0.428
Mof_C 	C 	0.3408	0.8962	0.3858	-0.046
Mof_Dy	Dy	0.97966	0.2354	0.99892	1.449
Mof_O 	O 	0.5436	0.40387	0.0361	-0.453
Mof_H 	H 	0.5043	0.4169	0.0636	0.293
Mof_C 	C 	0.8095	0.338	0.9977	-0.436
Mof_O 	O 	0.4637	0.30094	0.9007	-0.464
Mof_O 	O 	0.716	0.43471	0.8159	-0.413
Mof_C 	C 	0.0486	0.3988	0.9475	0.137
Mof_C 	C 	0.7172	0.3603	0.0095	0.287
Mof_H 	H 	0.6425	0.352	0.0225	-0.007
Mof_O 	O 	0.6522	0.4474	0.0096	-0.259
Mof_C 	C 	0.734	0.3936	0.0023	-0.076
Mof_N 	N 	0.1399	0.3811	0.9238	-0.157
Mof_O 	O 	0.8829	0.28401	0.0179	-0.491
Mof_C 	C 	0.4153	0.4218	0.8601	0.023
Mof_H 	H 	0.389	0.444	0.8587	0.006
Mof_C 	C 	0.6095	0.4403	0.8111	0.333
Mof_O 	O 	0.6181	0.31177	0.8288	-0.314
Mof_O 	O 	0.6914	0.29084	0.0116	-0.489
Mof_C 	C 	0.2225	0.4044	0.9123	0.115
Mof_C 	C 	0.8421	0.4058	0.9798	-0.054
Mof_H 	H 	0.8525	0.4289	0.9725	0.021
Mof_N 	N 	0.1854	0.4342	0.9279	-0.119
Mof_C 	C 	0.5264	0.3207	0.862	0.364
Mof_C 	C 	0.3777	0.3641	0.8855	0.024
Mof_H 	H 	0.3269	0.3471	0.9024	0.023
Mof_C 	C 	0.9349	0.3843	0.9678	-0.11
Mof_C 	C 	0.9183	0.3509	0.9759	0.149
Mof_H 	H 	0.9811	0.3362	0.9666	-0.046
Mof_C 	C 	0.4887	0.3562	0.8606	-0.118
Mof_C 	C 	0.6402	0.4177	0.0172	0.405
Mof_C 	C 	0.5637	0.3811	0.8373	0.031
Mof_H 	H 	0.6404	0.3759	0.8213	0.053
Mof_N 	N 	0.0714	0.4304	0.951	-0.18
Mof_H 	H 	0.0234	0.4461	0.9653	0.086
Mof_C 	C 	0.5265	0.414	0.8372	-0.105
Mof_C 	C 	0.7929	0.3015	0.0096	0.644
Mof_O 	O 	0.5707	0.46721	0.7868	-0.437
Mof_C 	C 	0.3408	0.3962	0.8858	-0.064
Mof_Dy	Dy	0.02034	0.7646	0.99892	1.449
Mof_O 	O 	0.4564	0.59613	0.0361	-0.453
Mof_H 	H 	0.4957	0.5831	0.0636	0.293
Mof_C 	C 	0.1905	0.662	0.9977	-0.436
Mof_O 	O 	0.5363	0.69906	0.9007	-0.464
Mof_O 	O 	0.284	0.56529	0.8159	-0.413
Mof_C 	C 	0.9514	0.6012	0.9475	0.137
Mof_C 	C 	0.2828	0.6397	0.0095	0.287
Mof_H 	H 	0.3575	0.648	0.0225	-0.007
Mof_O 	O 	0.3478	0.5526	0.0096	-0.259
Mof_C 	C 	0.266	0.6064	0.0023	-0.076
Mof_N 	N 	0.8601	0.6189	0.9238	-0.157
Mof_O 	O 	0.1171	0.71599	0.0179	-0.491
Mof_C 	C 	0.5847	0.5782	0.8601	0.023
Mof_H 	H 	0.611	0.556	0.8587	0.006
Mof_C 	C 	0.3905	0.5597	0.8111	0.333
Mof_O 	O 	0.3819	0.68823	0.8288	-0.314
Mof_O 	O 	0.3086	0.70916	0.0116	-0.489
Mof_C 	C 	0.7775	0.5956	0.9123	0.115
Mof_C 	C 	0.1579	0.5942	0.9798	-0.054
Mof_H 	H 	0.1475	0.5711	0.9725	0.021
Mof_N 	N 	0.8146	0.5658	0.9279	-0.119
Mof_C 	C 	0.4736	0.6793	0.862	0.364
Mof_C 	C 	0.6223	0.6359	0.8855	0.024
Mof_H 	H 	0.6731	0.6529	0.9024	0.023
Mof_C 	C 	0.0651	0.6157	0.9678	-0.11
Mof_C 	C 	0.0817	0.6491	0.9759	0.149
Mof_H 	H 	0.0189	0.6638	0.9666	-0.046
Mof_C 	C 	0.5113	0.6438	0.8606	-0.118
Mof_C 	C 	0.3598	0.5823	0.0172	0.405
Mof_C 	C 	0.4363	0.6189	0.8373	0.031
Mof_H 	H 	0.3596	0.6241	0.8213	0.053
Mof_N 	N 	0.9286	0.5696	0.951	-0.18
Mof_H 	H 	0.9766	0.5539	0.9653	0.086
Mof_C 	C 	0.4735	0.586	0.8372	-0.105
Mof_C 	C 	0.2071	0.6985	0.0096	0.644
Mof_O 	O 	0.4293	0.53279	0.7868	-0.437
Mof_C 	C 	0.6592	0.6038	0.8858	-0.064
Mof_Dy	Dy	0.02034	0.2646	0.49892	1.783
Mof_O 	O 	0.4564	0.09613	0.5361	-0.482
Mof_H 	H 	0.4957	0.0831	0.5636	0.297
Mof_C 	C 	0.1905	0.162	0.4977	-0.207
Mof_O 	O 	0.5363	0.19906	0.4007	-0.473
Mof_O 	O 	0.284	0.06529	0.3159	-0.406
Mof_C 	C 	0.9514	0.1012	0.4475	0.159
Mof_C 	C 	0.2828	0.1397	0.5095	0.121
Mof_H 	H 	0.3575	0.148	0.5225	0.024
Mof_O 	O 	0.3478	0.0526	0.5096	-0.314
Mof_C 	C 	0.266	0.1064	0.5023	-0.161
Mof_N 	N 	0.8601	0.1189	0.4238	-0.148
Mof_O 	O 	0.1171	0.21599	0.5179	-0.568
Mof_C 	C 	0.5847	0.0782	0.3601	0.03
Mof_H 	H 	0.611	0.056	0.3587	0.018
Mof_C 	C 	0.3905	0.0597	0.3111	0.338
Mof_O 	O 	0.3819	0.18823	0.3288	-0.311
Mof_O 	O 	0.3086	0.20916	0.5116	-0.56
Mof_C 	C 	0.7775	0.0956	0.4123	0.131
Mof_C 	C 	0.1579	0.0942	0.4798	0.073
Mof_H 	H 	0.1475	0.0711	0.4725	0.009
Mof_N 	N 	0.8146	0.0658	0.4279	-0.101
Mof_C 	C 	0.4736	0.1793	0.362	0.379
Mof_C 	C 	0.6223	0.1359	0.3855	0.032
Mof_H 	H 	0.6731	0.1529	0.4024	0.039
Mof_C 	C 	0.0651	0.1157	0.4678	-0.101
Mof_C 	C 	0.0817	0.1491	0.4759	0.094
Mof_H 	H 	0.0189	0.1638	0.4666	-0.003
Mof_C 	C 	0.5113	0.1438	0.3606	-0.105
Mof_C 	C 	0.3598	0.0823	0.5172	0.415
Mof_C 	C 	0.4363	0.1189	0.3373	0.039
Mof_H 	H 	0.3596	0.1241	0.3213	0.057
Mof_N 	N 	0.9286	0.0696	0.451	-0.179
Mof_H 	H 	0.9766	0.0539	0.4653	0.109
Mof_C 	C 	0.4735	0.086	0.3372	-0.089
Mof_C 	C 	0.2071	0.1985	0.5096	0.537
Mof_O 	O 	0.4293	0.03279	0.2868	-0.428
Mof_C 	C 	0.6592	0.1038	0.3858	-0.046
Mof_Dy	Dy	0.52034	0.7646	0.49892	1.786
Mof_O 	O 	0.9564	0.59613	0.5361	-0.483
Mof_H 	H 	0.9957	0.5831	0.5636	0.297
Mof_C 	C 	0.6905	0.662	0.4977	-0.206
Mof_O 	O 	0.0363	0.69906	0.4007	-0.471
Mof_O 	O 	0.784	0.56529	0.3159	-0.406
Mof_C 	C 	0.4514	0.6012	0.4475	0.159
Mof_C 	C 	0.7828	0.6397	0.5095	0.121
Mof_H 	H 	0.8575	0.648	0.5225	0.024
Mof_O 	O 	0.8478	0.5526	0.5096	-0.314
Mof_C 	C 	0.766	0.6064	0.5023	-0.161
Mof_N 	N 	0.3601	0.6189	0.4238	-0.148
Mof_O 	O 	0.6171	0.71599	0.5179	-0.568
Mof_C 	C 	0.0847	0.5782	0.3601	0.031
Mof_H 	H 	0.111	0.556	0.3587	0.018
Mof_C 	C 	0.8905	0.5597	0.3111	0.338
Mof_O 	O 	0.8819	0.68823	0.3288	-0.31
Mof_O 	O 	0.8086	0.70916	0.5116	-0.56
Mof_C 	C 	0.2775	0.5956	0.4123	0.131
Mof_C 	C 	0.6579	0.5942	0.4798	0.073
Mof_H 	H 	0.6475	0.5711	0.4725	0.009
Mof_N 	N 	0.3146	0.5658	0.4279	-0.101
Mof_C 	C 	0.9736	0.6793	0.362	0.375
Mof_C 	C 	0.1223	0.6359	0.3855	0.03
Mof_H 	H 	0.1731	0.6529	0.4024	0.04
Mof_C 	C 	0.5651	0.6157	0.4678	-0.1
Mof_C 	C 	0.5817	0.6491	0.4759	0.093
Mof_H 	H 	0.5189	0.6638	0.4666	-0.002
Mof_C 	C 	0.0113	0.6438	0.3606	-0.101
Mof_C 	C 	0.8598	0.5823	0.5172	0.415
Mof_C 	C 	0.9363	0.6189	0.3373	0.036
Mof_H 	H 	0.8596	0.6241	0.3213	0.058
Mof_N 	N 	0.4286	0.5696	0.451	-0.179
Mof_H 	H 	0.4766	0.5539	0.4653	0.109
Mof_C 	C 	0.9735	0.586	0.3372	-0.09
Mof_C 	C 	0.7071	0.6985	0.5096	0.537
Mof_O 	O 	0.9293	0.53279	0.2868	-0.428
Mof_C 	C 	0.1592	0.6038	0.3858	-0.046
Mof_Dy	Dy	0.52034	0.2646	0.99892	1.442
Mof_O 	O 	0.9564	0.09613	0.0361	-0.453
Mof_H 	H 	0.9957	0.0831	0.0636	0.293
Mof_C 	C 	0.6905	0.162	0.9977	-0.437
Mof_O 	O 	0.0363	0.19906	0.9007	-0.466
Mof_O 	O 	0.784	0.06529	0.8159	-0.413
Mof_C 	C 	0.4514	0.1012	0.9475	0.138
Mof_C 	C 	0.7828	0.1397	0.0095	0.288
Mof_H 	H 	0.8575	0.148	0.0225	-0.008
Mof_O 	O 	0.8478	0.0526	0.0096	-0.26
Mof_C 	C 	0.766	0.1064	0.0023	-0.077
Mof_N 	N 	0.3601	0.1189	0.9238	-0.157
Mof_O 	O 	0.6171	0.21599	0.0179	-0.49
Mof_C 	C 	0.0847	0.0782	0.8601	0.023
Mof_H 	H 	0.111	0.056	0.8587	0.007
Mof_C 	C 	0.8905	0.0597	0.8111	0.333
Mof_O 	O 	0.8819	0.18823	0.8288	-0.314
Mof_O 	O 	0.8086	0.20916	0.0116	-0.491
Mof_C 	C 	0.2775	0.0956	0.9123	0.115
Mof_C 	C 	0.6579	0.0942	0.9798	-0.053
Mof_H 	H 	0.6475	0.0711	0.9725	0.021
Mof_N 	N 	0.3146	0.0658	0.9279	-0.119
Mof_C 	C 	0.9736	0.1793	0.862	0.367
Mof_C 	C 	0.1223	0.1359	0.8855	0.026
Mof_H 	H 	0.1731	0.1529	0.9024	0.022
Mof_C 	C 	0.5651	0.1157	0.9678	-0.112
Mof_C 	C 	0.5817	0.1491	0.9759	0.15
Mof_H 	H 	0.5189	0.1638	0.9666	-0.047
Mof_C 	C 	0.0113	0.1438	0.8606	-0.12
Mof_C 	C 	0.8598	0.0823	0.0172	0.405
Mof_C 	C 	0.9363	0.1189	0.8373	0.033
Mof_H 	H 	0.8596	0.1241	0.8213	0.053
Mof_N 	N 	0.4286	0.0696	0.951	-0.18
Mof_H 	H 	0.4766	0.0539	0.9653	0.086
Mof_C 	C 	0.9735	0.086	0.8372	-0.105
Mof_C 	C 	0.7071	0.1985	0.0096	0.644
Mof_O 	O 	0.9293	0.03279	0.7868	-0.436
Mof_C 	C 	0.1592	0.1038	0.8858	-0.064
_end
