# CIF file generated by openbabel 3.1.0, see https://openbabel.org
data_I
_chemical_name_common 'image0'
_cell_length_a 14.0652
_cell_length_b 5.8601
_cell_length_c 21.268
_cell_angle_alpha 90
_cell_angle_beta 95.213
_cell_angle_gamma 90
_space_group_name_H-M_alt 'P 1'
_space_group_name_Hall 'P 1'
loop_
    _symmetry_equiv_pos_as_xyz
    x,y,z
loop_
    _atom_site_label
    _atom_site_type_symbol
    _atom_site_fract_x
    _atom_site_fract_y
    _atom_site_fract_z
    _atom_site_occupancy
    Ba1      Ba       0.12166    0.23277    0.75397    1.000
    S1       S        0.58164    0.96610    0.87830    1.000
    O1       O        0.97700    0.51160    0.77900    1.000
    O2       O        0.70630    0.93710    0.19030    1.000
    O3       O        0.51030    0.80410    0.85370    1.000
    O4       O        0.02420    0.87660    0.78700    1.000
    O5       O        0.69060    0.56490    0.17150    1.000
    O6       O        0.56650    0.20600    0.86990    1.000
    C1       C        0.96400    0.71810    0.78960    1.000
    C2       C        0.86710    0.78120    0.81010    1.000
    C3       C        0.85140    0.99660    0.83380    1.000
    H1       H        0.90060    0.10310    0.83610    1.000
    C4       C        0.76470    0.05710    0.85400    1.000
    H2       H        0.75460    0.20100    0.87060    1.000
    C5       C        0.79360    0.62610    0.80480    1.000
    H3       H        0.80390    0.48210    0.78840    1.000
    C6       C        0.70690    0.67840    0.82300    1.000
    H4       H        0.65730    0.57300    0.81850    1.000
    C7       C        0.69270    0.89340    0.84860    1.000
    C8       C        0.68280    0.76590    0.15490    1.000
    C9       C        0.65220    0.82190    0.08600    1.000
    C10      C        0.66470    0.03910    0.06240    1.000
    H5       H        0.68900    0.15470    0.08920    1.000
    C11      C        0.64130    0.08400    0.00000    1.000
    H6       H        0.65040    0.22940    0.98400    1.000
    C12      C        0.60400    0.91110    0.96020    1.000
    C13      C        0.59000    0.69360    0.98260    1.000
    H7       H        0.56550    0.57830    0.95580    1.000
    C14      C        0.61400    0.65250    0.04670    1.000
    H8       H        0.60400    0.50830    0.06310    1.000
    Ba2      Ba       0.37834    0.73277    0.74603    1.000
    S2       S        0.91836    0.46610    0.62170    1.000
    O7       O        0.52300    0.01160    0.72100    1.000
    O8       O        0.79370    0.43710    0.30970    1.000
    O9       O        0.98970    0.30410    0.64630    1.000
    O10      O        0.47580    0.37660    0.71300    1.000
    O11      O        0.80940    0.06490    0.32850    1.000
    O12      O        0.93350    0.70600    0.63010    1.000
    C15      C        0.53600    0.21810    0.71040    1.000
    C16      C        0.63290    0.28120    0.68990    1.000
    C17      C        0.64860    0.49660    0.66620    1.000
    H9       H        0.59940    0.60310    0.66390    1.000
    C18      C        0.73530    0.55710    0.64600    1.000
    H10      H        0.74540    0.70100    0.62940    1.000
    C19      C        0.70640    0.12610    0.69520    1.000
    H11      H        0.69610    0.98210    0.71160    1.000
    C20      C        0.79310    0.17840    0.67700    1.000
    H12      H        0.84270    0.07300    0.68150    1.000
    C21      C        0.80730    0.39340    0.65140    1.000
    C22      C        0.81720    0.26590    0.34510    1.000
    C23      C        0.84780    0.32190    0.41400    1.000
    C24      C        0.83530    0.53910    0.43760    1.000
    H13      H        0.81100    0.65470    0.41080    1.000
    C25      C        0.85870    0.58400    0.50000    1.000
    H14      H        0.84960    0.72940    0.51600    1.000
    C26      C        0.89600    0.41110    0.53980    1.000
    C27      C        0.91000    0.19360    0.51740    1.000
    H15      H        0.93450    0.07830    0.54420    1.000
    C28      C        0.88600    0.15250    0.45330    1.000
    H16      H        0.89600    0.00830    0.43690    1.000
    Ba3      Ba       0.87834    0.76723    0.24603    1.000
    S3       S        0.41836    0.03390    0.12170    1.000
    O13      O        0.02300    0.48840    0.22100    1.000
    O14      O        0.29370    0.06290    0.80970    1.000
    O15      O        0.48970    0.19590    0.14630    1.000
    O16      O        0.97580    0.12340    0.21300    1.000
    O17      O        0.30940    0.43510    0.82850    1.000
    O18      O        0.43350    0.79400    0.13010    1.000
    C29      C        0.03600    0.28190    0.21040    1.000
    C30      C        0.13290    0.21880    0.18990    1.000
    C31      C        0.14860    0.00340    0.16620    1.000
    H17      H        0.09940    0.89690    0.16390    1.000
    C32      C        0.23530    0.94290    0.14600    1.000
    H18      H        0.24540    0.79900    0.12940    1.000
    C33      C        0.20640    0.37390    0.19520    1.000
    H19      H        0.19610    0.51790    0.21160    1.000
    C34      C        0.29310    0.32160    0.17700    1.000
    H20      H        0.34270    0.42700    0.18150    1.000
    C35      C        0.30730    0.10660    0.15140    1.000
    C36      C        0.31720    0.23410    0.84510    1.000
    C37      C        0.34780    0.17810    0.91400    1.000
    C38      C        0.33530    0.96090    0.93760    1.000
    H21      H        0.31100    0.84530    0.91080    1.000
    C39      C        0.35870    0.91600    0.00000    1.000
    H22      H        0.34960    0.77060    0.01600    1.000
    C40      C        0.39600    0.08890    0.03980    1.000
    C41      C        0.41000    0.30640    0.01740    1.000
    H23      H        0.43450    0.42170    0.04420    1.000
    C42      C        0.38600    0.34750    0.95330    1.000
    H24      H        0.39600    0.49170    0.93690    1.000
    Ba4      Ba       0.62166    0.26723    0.25397    1.000
    S4       S        0.08164    0.53390    0.37830    1.000
    O19      O        0.47700    0.98840    0.27900    1.000
    O20      O        0.20630    0.56290    0.69030    1.000
    O21      O        0.01030    0.69590    0.35370    1.000
    O22      O        0.52420    0.62340    0.28700    1.000
    O23      O        0.19060    0.93510    0.67150    1.000
    O24      O        0.06650    0.29400    0.36990    1.000
    C43      C        0.46400    0.78190    0.28960    1.000
    C44      C        0.36710    0.71880    0.31010    1.000
    C45      C        0.35140    0.50340    0.33380    1.000
    H25      H        0.40060    0.39690    0.33610    1.000
    C46      C        0.26470    0.44290    0.35400    1.000
    H26      H        0.25460    0.29900    0.37060    1.000
    C47      C        0.29360    0.87390    0.30480    1.000
    H27      H        0.30390    0.01790    0.28840    1.000
    C48      C        0.20690    0.82160    0.32300    1.000
    H28      H        0.15730    0.92700    0.31850    1.000
    C49      C        0.19270    0.60660    0.34860    1.000
    C50      C        0.18280    0.73410    0.65490    1.000
    C51      C        0.15220    0.67810    0.58600    1.000
    C52      C        0.16470    0.46090    0.56240    1.000
    H29      H        0.18900    0.34530    0.58920    1.000
    C53      C        0.14130    0.41600    0.50000    1.000
    H30      H        0.15040    0.27060    0.48400    1.000
    C54      C        0.10400    0.58890    0.46020    1.000
    C55      C        0.09000    0.80640    0.48260    1.000
    H31      H        0.06550    0.92170    0.45580    1.000
    C56      C        0.11400    0.84750    0.54670    1.000
    H32      H        0.10400    0.99170    0.56310    1.000
