# CIF file generated by openbabel 3.1.0, see https://openbabel.org
data_I
_chemical_name_common 'image0'
_cell_length_a 11.6017
_cell_length_b 16.2188
_cell_length_c 12.0231
_cell_angle_alpha 90
_cell_angle_beta 112.571
_cell_angle_gamma 90
_space_group_name_H-M_alt 'P 1'
_space_group_name_Hall 'P 1'
loop_
    _symmetry_equiv_pos_as_xyz
    x,y,z
loop_
    _atom_site_label
    _atom_site_type_symbol
    _atom_site_fract_x
    _atom_site_fract_y
    _atom_site_fract_z
    _atom_site_occupancy
    Tb1      Tb       0.19438    0.02751    0.07881    1.000
    S1       S        0.05305    0.21923    0.71255    1.000
    S2       S        0.49007    0.28327    0.25105    1.000
    O1       O        0.13060    0.07680    0.87950    1.000
    O2       O        0.93830    0.03050    0.84370    1.000
    O3       O        0.05680    0.36430    0.56920    1.000
    O4       O        0.85890    0.40110    0.52470    1.000
    O5       O        0.27510    0.10410    0.28010    1.000
    O6       O        0.33730    0.14030    0.13530    1.000
    O7       O        0.64830    0.43370    0.29270    1.000
    O8       O        0.62360    0.47690    0.45740    1.000
    C1       C        0.95780    0.15250    0.74940    1.000
    C2       C        0.83610    0.17800    0.70040    1.000
    H1       H        0.77120    0.15010    0.71130    1.000
    C3       C        0.81940    0.24980    0.63270    1.000
    H2       H        0.74230    0.27510    0.59380    1.000
    C4       C        0.92830    0.27910    0.62940    1.000
    C5       C        0.01300    0.08180    0.82900    1.000
    C6       C        0.95000    0.35450    0.56950    1.000
    C7       C        0.39340    0.22840    0.30220    1.000
    C8       C        0.38280    0.26510    0.40000    1.000
    H3       H        0.33460    0.24430    0.44000    1.000
    C9       C        0.45330    0.33830    0.43360    1.000
    H4       H        0.45530    0.37170    0.49720    1.000
    C10      C        0.51780    0.35500    0.36310    1.000
    C11      C        0.33150    0.15290    0.23610    1.000
    C12      C        0.60000    0.42630    0.37110    1.000
    Tb2      Tb       0.80562    0.52751    0.42119    1.000
    S3       S        0.94695    0.71923    0.78745    1.000
    S4       S        0.50993    0.78327    0.24895    1.000
    O9       O        0.86940    0.57680    0.62050    1.000
    O10      O        0.06170    0.53050    0.65630    1.000
    O11      O        0.94320    0.86430    0.93080    1.000
    O12      O        0.14110    0.90110    0.97530    1.000
    O13      O        0.72490    0.60410    0.21990    1.000
    O14      O        0.66270    0.64030    0.36470    1.000
    O15      O        0.35170    0.93370    0.20730    1.000
    O16      O        0.37640    0.97690    0.04260    1.000
    C13      C        0.04220    0.65250    0.75060    1.000
    C14      C        0.16390    0.67800    0.79960    1.000
    H5       H        0.22880    0.65010    0.78870    1.000
    C15      C        0.18060    0.74980    0.86730    1.000
    H6       H        0.25770    0.77510    0.90620    1.000
    C16      C        0.07170    0.77910    0.87060    1.000
    C17      C        0.98700    0.58180    0.67100    1.000
    C18      C        0.05000    0.85450    0.93050    1.000
    C19      C        0.60660    0.72840    0.19780    1.000
    C20      C        0.61720    0.76510    0.10000    1.000
    H7       H        0.66540    0.74430    0.06000    1.000
    C21      C        0.54670    0.83830    0.06640    1.000
    H8       H        0.54470    0.87170    0.00280    1.000
    C22      C        0.48220    0.85500    0.13690    1.000
    C23      C        0.66850    0.65290    0.26390    1.000
    C24      C        0.40000    0.92630    0.12890    1.000
    Tb3      Tb       0.80562    0.97249    0.92119    1.000
    S5       S        0.94695    0.78077    0.28745    1.000
    S6       S        0.50993    0.71673    0.74895    1.000
    O17      O        0.86940    0.92320    0.12050    1.000
    O18      O        0.06170    0.96950    0.15630    1.000
    O19      O        0.94320    0.63570    0.43080    1.000
    O20      O        0.14110    0.59890    0.47530    1.000
    O21      O        0.72490    0.89590    0.71990    1.000
    O22      O        0.66270    0.85970    0.86470    1.000
    O23      O        0.35170    0.56630    0.70730    1.000
    O24      O        0.37640    0.52310    0.54260    1.000
    C25      C        0.04220    0.84750    0.25060    1.000
    C26      C        0.16390    0.82200    0.29960    1.000
    H9       H        0.22880    0.84990    0.28870    1.000
    C27      C        0.18060    0.75020    0.36730    1.000
    H10      H        0.25770    0.72490    0.40620    1.000
    C28      C        0.07170    0.72090    0.37060    1.000
    C29      C        0.98700    0.91820    0.17100    1.000
    C30      C        0.05000    0.64550    0.43050    1.000
    C31      C        0.60660    0.77160    0.69780    1.000
    C32      C        0.61720    0.73490    0.60000    1.000
    H11      H        0.66540    0.75570    0.56000    1.000
    C33      C        0.54670    0.66170    0.56640    1.000
    H12      H        0.54470    0.62830    0.50280    1.000
    C34      C        0.48220    0.64500    0.63690    1.000
    C35      C        0.66850    0.84710    0.76390    1.000
    C36      C        0.40000    0.57370    0.62890    1.000
    Tb4      Tb       0.19438    0.47249    0.57881    1.000
    S7       S        0.05305    0.28077    0.21255    1.000
    S8       S        0.49007    0.21673    0.75105    1.000
    O25      O        0.13060    0.42320    0.37950    1.000
    O26      O        0.93830    0.46950    0.34370    1.000
    O27      O        0.05680    0.13570    0.06920    1.000
    O28      O        0.85890    0.09890    0.02470    1.000
    O29      O        0.27510    0.39590    0.78010    1.000
    O30      O        0.33730    0.35970    0.63530    1.000
    O31      O        0.64830    0.06630    0.79270    1.000
    O32      O        0.62360    0.02310    0.95740    1.000
    C37      C        0.95780    0.34750    0.24940    1.000
    C38      C        0.83610    0.32200    0.20040    1.000
    H13      H        0.77120    0.34990    0.21130    1.000
    C39      C        0.81940    0.25020    0.13270    1.000
    H14      H        0.74230    0.22490    0.09380    1.000
    C40      C        0.92830    0.22090    0.12940    1.000
    C41      C        0.01300    0.41820    0.32900    1.000
    C42      C        0.95000    0.14550    0.06950    1.000
    C43      C        0.39340    0.27160    0.80220    1.000
    C44      C        0.38280    0.23490    0.90000    1.000
    H15      H        0.33460    0.25570    0.94000    1.000
    C45      C        0.45330    0.16170    0.93360    1.000
    H16      H        0.45530    0.12830    0.99720    1.000
    C46      C        0.51780    0.14500    0.86310    1.000
    C47      C        0.33150    0.34710    0.73610    1.000
    C48      C        0.60000    0.07370    0.87110    1.000
