data_functionalizedCrystal
_audit_creation_method	'EQeq! by Chris Wilmer'
_symmetry_space_group_name_H-M	'P1'
_symmetry_Int_Tables_number	1
_symmetry_cell_setting	triclinic
loop_
_symmetry_equiv_pos_as_xyz
  x,y,z
_cell_length_a	13.809
_cell_length_b	13.809
_cell_length_c	30.004
_cell_angle_alpha	90
_cell_angle_beta	90
_cell_angle_gamma	120
loop_
_atom_site_label
_atom_site_type_symbol
_atom_site_fract_x
_atom_site_fract_y
_atom_site_fract_z
_atom_site_charge
Mof_Co	Co	0.64226	0.0978	0.46295	1.179
Mof_P 	P 	0.47785	0.15884	0.50138	0.538
Mof_O 	O 	0.5675	0.1895	0.46468	-0.577
Mof_O 	O 	0.7008	0.2334	0.38245	-0.428
Mof_O 	O 	0.6297	0.0543	0.40001	-0.434
Mof_C 	C 	0.6382	0.0999	0.32393	-0.071
Mof_O 	O 	0.4009	0.0327	0.5005	-0.436
Mof_C 	C 	0.6577	0.1326	0.37229	0.363
Mof_O 	O 	0.4083	0.2138	0.49064	-0.422
Mof_C 	C 	0.5805	0.9904	0.31176	-0.042
Mof_H 	H 	0.5523	0.9356	0.3337	0.079
Mof_O 	O 	0.5353	0.1965	0.54655	-0.459
Mof_C 	C 	0.6797	0.1843	0.2908	0.02
Mof_H 	H 	0.7195	0.2592	0.299	0.042
Mof_C 	C 	0.5624	0.9581	0.26668	0.039
Mof_C 	C 	0.6614	0.1558	0.2468	-0.097
Mof_H 	H 	0.6866	0.2118	0.2253	0.09
Mof_Co	Co	0.9022	0.54446	0.46295	1.178
Mof_P 	P 	0.84116	0.31901	0.50138	0.537
Mof_O 	O 	0.8105	0.378	0.46468	-0.578
Mof_O 	O 	0.7666	0.4674	0.38245	-0.429
Mof_O 	O 	0.9457	0.5754	0.40001	-0.435
Mof_C 	C 	0.9001	0.5383	0.32393	-0.072
Mof_O 	O 	0.9673	0.3682	0.5005	-0.436
Mof_C 	C 	0.8674	0.5251	0.37229	0.363
Mof_O 	O 	0.7862	0.1945	0.49064	-0.422
Mof_C 	C 	0.0096	0.5901	0.31176	-0.042
Mof_H 	H 	0.0644	0.6167	0.3337	0.079
Mof_O 	O 	0.8035	0.3388	0.54655	-0.46
Mof_C 	C 	0.8157	0.4954	0.2908	0.02
Mof_H 	H 	0.7408	0.4603	0.299	0.042
Mof_C 	C 	0.0419	0.6043	0.26668	0.039
Mof_C 	C 	0.8442	0.5056	0.2468	-0.097
Mof_H 	H 	0.7882	0.4748	0.2253	0.09
Mof_Co	Co	0.45554	0.35774	0.46295	1.178
Mof_P 	P 	0.68099	0.52215	0.50138	0.537
Mof_O 	O 	0.622	0.4325	0.46468	-0.577
Mof_O 	O 	0.5326	0.2992	0.38245	-0.429
Mof_O 	O 	0.4246	0.3703	0.40001	-0.435
Mof_C 	C 	0.4617	0.3618	0.32393	-0.072
Mof_O 	O 	0.6318	0.5991	0.5005	-0.436
Mof_C 	C 	0.4749	0.3423	0.37229	0.363
Mof_O 	O 	0.8055	0.5917	0.49064	-0.422
Mof_C 	C 	0.4099	0.4195	0.31176	-0.042
Mof_H 	H 	0.3833	0.4477	0.3337	0.079
Mof_O 	O 	0.6612	0.4647	0.54655	-0.459
Mof_C 	C 	0.5046	0.3203	0.2908	0.02
Mof_H 	H 	0.5397	0.2805	0.299	0.042
Mof_C 	C 	0.3957	0.4376	0.26668	0.039
Mof_C 	C 	0.4944	0.3386	0.2468	-0.097
Mof_H 	H 	0.5252	0.3134	0.2253	0.09
Mof_Co	Co	0.0978	0.64226	0.03705	1.178
Mof_P 	P 	0.15884	0.47785	0.99862	0.537
Mof_O 	O 	0.1895	0.5675	0.03532	-0.578
Mof_O 	O 	0.2334	0.7008	0.11755	-0.429
Mof_O 	O 	0.0543	0.6297	0.09999	-0.435
Mof_C 	C 	0.0999	0.6382	0.17607	-0.072
Mof_O 	O 	0.0327	0.4009	0.9995	-0.436
Mof_C 	C 	0.1326	0.6577	0.12771	0.363
Mof_O 	O 	0.2138	0.4083	0.00936	-0.422
Mof_C 	C 	0.9904	0.5805	0.18824	-0.042
Mof_H 	H 	0.9356	0.5523	0.1663	0.078
Mof_O 	O 	0.1965	0.5353	0.95345	-0.459
Mof_C 	C 	0.1843	0.6797	0.2092	0.02
Mof_H 	H 	0.2592	0.7195	0.201	0.042
Mof_C 	C 	0.9581	0.5624	0.23332	0.039
Mof_C 	C 	0.1558	0.6614	0.2532	-0.097
Mof_H 	H 	0.2118	0.6866	0.2747	0.09
Mof_Co	Co	0.54446	0.9022	0.03705	1.178
Mof_P 	P 	0.31901	0.84116	0.99862	0.537
Mof_O 	O 	0.378	0.8105	0.03532	-0.578
Mof_O 	O 	0.4674	0.7666	0.11755	-0.429
Mof_O 	O 	0.5754	0.9457	0.09999	-0.435
Mof_C 	C 	0.5383	0.9001	0.17607	-0.072
Mof_O 	O 	0.3682	0.9673	0.9995	-0.436
Mof_C 	C 	0.5251	0.8674	0.12771	0.363
Mof_O 	O 	0.1945	0.7862	0.00936	-0.422
Mof_C 	C 	0.5901	0.0096	0.18824	-0.042
Mof_H 	H 	0.6167	0.0644	0.1663	0.079
Mof_O 	O 	0.3388	0.8035	0.95345	-0.459
Mof_C 	C 	0.4954	0.8157	0.2092	0.02
Mof_H 	H 	0.4603	0.7408	0.201	0.042
Mof_C 	C 	0.6043	0.0419	0.23332	0.039
Mof_C 	C 	0.5056	0.8442	0.2532	-0.097
Mof_H 	H 	0.4748	0.7882	0.2747	0.09
Mof_Co	Co	0.35774	0.45554	0.03705	1.178
Mof_P 	P 	0.52215	0.68099	0.99862	0.537
Mof_O 	O 	0.4325	0.622	0.03532	-0.578
Mof_O 	O 	0.2992	0.5326	0.11755	-0.429
Mof_O 	O 	0.3703	0.4246	0.09999	-0.435
Mof_C 	C 	0.3618	0.4617	0.17607	-0.072
Mof_O 	O 	0.5991	0.6318	0.9995	-0.436
Mof_C 	C 	0.3423	0.4749	0.12771	0.363
Mof_O 	O 	0.5917	0.8055	0.00936	-0.422
Mof_C 	C 	0.4195	0.4099	0.18824	-0.042
Mof_H 	H 	0.4477	0.3833	0.1663	0.079
Mof_O 	O 	0.4647	0.6612	0.95345	-0.459
Mof_C 	C 	0.3203	0.5046	0.2092	0.02
Mof_H 	H 	0.2805	0.5397	0.201	0.042
Mof_C 	C 	0.4376	0.3957	0.23332	0.039
Mof_C 	C 	0.3386	0.4944	0.2532	-0.097
Mof_H 	H 	0.3134	0.5252	0.2747	0.09
Mof_Co	Co	0.35774	0.9022	0.53705	1.178
Mof_P 	P 	0.52215	0.84116	0.49862	0.537
Mof_O 	O 	0.4325	0.8105	0.53532	-0.578
Mof_O 	O 	0.2992	0.7666	0.61755	-0.429
Mof_O 	O 	0.3703	0.9457	0.59999	-0.435
Mof_C 	C 	0.3618	0.9001	0.67607	-0.072
Mof_O 	O 	0.5991	0.9673	0.4995	-0.436
Mof_C 	C 	0.3423	0.8674	0.62771	0.363
Mof_O 	O 	0.5917	0.7862	0.50936	-0.422
Mof_C 	C 	0.4195	0.0096	0.68824	-0.042
Mof_H 	H 	0.4477	0.0644	0.6663	0.079
Mof_O 	O 	0.4647	0.8035	0.45345	-0.459
Mof_C 	C 	0.3203	0.8157	0.7092	0.02
Mof_H 	H 	0.2805	0.7408	0.701	0.042
Mof_C 	C 	0.4376	0.0419	0.73332	0.039
Mof_C 	C 	0.3386	0.8442	0.7532	-0.097
Mof_H 	H 	0.3134	0.7882	0.7747	0.09
Mof_Co	Co	0.0978	0.45554	0.53705	1.178
Mof_P 	P 	0.15884	0.68099	0.49862	0.537
Mof_O 	O 	0.1895	0.622	0.53532	-0.578
Mof_O 	O 	0.2334	0.5326	0.61755	-0.429
Mof_O 	O 	0.0543	0.4246	0.59999	-0.435
Mof_C 	C 	0.0999	0.4617	0.67607	-0.072
Mof_O 	O 	0.0327	0.6318	0.4995	-0.436
Mof_C 	C 	0.1326	0.4749	0.62771	0.363
Mof_O 	O 	0.2138	0.8055	0.50936	-0.422
Mof_C 	C 	0.9904	0.4099	0.68824	-0.042
Mof_H 	H 	0.9356	0.3833	0.6663	0.079
Mof_O 	O 	0.1965	0.6612	0.45345	-0.46
Mof_C 	C 	0.1843	0.5046	0.7092	0.02
Mof_H 	H 	0.2592	0.5397	0.701	0.042
Mof_C 	C 	0.9581	0.3957	0.73332	0.039
Mof_C 	C 	0.1558	0.4944	0.7532	-0.097
Mof_H 	H 	0.2118	0.5252	0.7747	0.09
Mof_Co	Co	0.54446	0.64226	0.53705	1.178
Mof_P 	P 	0.31901	0.47785	0.49862	0.537
Mof_O 	O 	0.378	0.5675	0.53532	-0.577
Mof_O 	O 	0.4674	0.7008	0.61755	-0.429
Mof_O 	O 	0.5754	0.6297	0.59999	-0.435
Mof_C 	C 	0.5383	0.6382	0.67607	-0.072
Mof_O 	O 	0.3682	0.4009	0.4995	-0.436
Mof_C 	C 	0.5251	0.6577	0.62771	0.363
Mof_O 	O 	0.1945	0.4083	0.50936	-0.422
Mof_C 	C 	0.5901	0.5805	0.68824	-0.042
Mof_H 	H 	0.6167	0.5523	0.6663	0.079
Mof_O 	O 	0.3388	0.5353	0.45345	-0.459
Mof_C 	C 	0.4954	0.6797	0.7092	0.02
Mof_H 	H 	0.4603	0.7195	0.701	0.042
Mof_C 	C 	0.6043	0.5624	0.73332	0.039
Mof_C 	C 	0.5056	0.6614	0.7532	-0.097
Mof_H 	H 	0.4748	0.6866	0.7747	0.09
Mof_Co	Co	0.9022	0.35774	0.96295	1.178
Mof_P 	P 	0.84116	0.52215	0.00138	0.537
Mof_O 	O 	0.8105	0.4325	0.96468	-0.578
Mof_O 	O 	0.7666	0.2992	0.88245	-0.429
Mof_O 	O 	0.9457	0.3703	0.90001	-0.435
Mof_C 	C 	0.9001	0.3618	0.82393	-0.072
Mof_O 	O 	0.9673	0.5991	0.0005	-0.436
Mof_C 	C 	0.8674	0.3423	0.87229	0.363
Mof_O 	O 	0.7862	0.5917	0.99064	-0.422
Mof_C 	C 	0.0096	0.4195	0.81176	-0.042
Mof_H 	H 	0.0644	0.4477	0.8337	0.078
Mof_O 	O 	0.8035	0.4647	0.04655	-0.459
Mof_C 	C 	0.8157	0.3203	0.7908	0.02
Mof_H 	H 	0.7408	0.2805	0.799	0.042
Mof_C 	C 	0.0419	0.4376	0.76668	0.039
Mof_C 	C 	0.8442	0.3386	0.7468	-0.097
Mof_H 	H 	0.7882	0.3134	0.7253	0.09
Mof_Co	Co	0.45554	0.0978	0.96295	1.178
Mof_P 	P 	0.68099	0.15884	0.00138	0.537
Mof_O 	O 	0.622	0.1895	0.96468	-0.578
Mof_O 	O 	0.5326	0.2334	0.88245	-0.429
Mof_O 	O 	0.4246	0.0543	0.90001	-0.435
Mof_C 	C 	0.4617	0.0999	0.82393	-0.072
Mof_O 	O 	0.6318	0.0327	0.0005	-0.436
Mof_C 	C 	0.4749	0.1326	0.87229	0.363
Mof_O 	O 	0.8055	0.2138	0.99064	-0.422
Mof_C 	C 	0.4099	0.9904	0.81176	-0.042
Mof_H 	H 	0.3833	0.9356	0.8337	0.079
Mof_O 	O 	0.6612	0.1965	0.04655	-0.459
Mof_C 	C 	0.5046	0.1843	0.7908	0.02
Mof_H 	H 	0.5397	0.2592	0.799	0.042
Mof_C 	C 	0.3957	0.9581	0.76668	0.039
Mof_C 	C 	0.4944	0.1558	0.7468	-0.097
Mof_H 	H 	0.5252	0.2118	0.7253	0.09
Mof_Co	Co	0.64226	0.54446	0.96295	1.178
Mof_P 	P 	0.47785	0.31901	0.00138	0.537
Mof_O 	O 	0.5675	0.378	0.96468	-0.578
Mof_O 	O 	0.7008	0.4674	0.88245	-0.429
Mof_O 	O 	0.6297	0.5754	0.90001	-0.435
Mof_C 	C 	0.6382	0.5383	0.82393	-0.072
Mof_O 	O 	0.4009	0.3682	0.0005	-0.436
Mof_C 	C 	0.6577	0.5251	0.87229	0.363
Mof_O 	O 	0.4083	0.1945	0.99064	-0.422
Mof_C 	C 	0.5805	0.5901	0.81176	-0.042
Mof_H 	H 	0.5523	0.6167	0.8337	0.079
Mof_O 	O 	0.5353	0.3388	0.04655	-0.459
Mof_C 	C 	0.6797	0.4954	0.7908	0.02
Mof_H 	H 	0.7195	0.4603	0.799	0.042
Mof_C 	C 	0.5624	0.6043	0.76668	0.039
Mof_C 	C 	0.6614	0.5056	0.7468	-0.097
Mof_H 	H 	0.6866	0.4748	0.7253	0.09
Mof_Co	Co	0.66667	0.33333	0.42564	1.171
Mof_Co	Co	0.66667	0.33333	0.56486	1.183
Mof_Cl	Cl	0.66667	0.33333	0.64154	-0.489
Mof_Co	Co	0.33333	0.66667	0.07436	1.171
Mof_Co	Co	0.33333	0.66667	0.93514	1.183
Mof_Cl	Cl	0.33333	0.66667	0.85846	-0.489
Mof_Co	Co	0.33333	0.66667	0.57436	1.171
Mof_Co	Co	0.33333	0.66667	0.43514	1.183
Mof_Cl	Cl	0.33333	0.66667	0.35846	-0.489
Mof_Co	Co	0.66667	0.33333	0.92564	1.171
Mof_Co	Co	0.66667	0.33333	0.06486	1.183
Mof_Cl	Cl	0.66667	0.33333	0.14154	-0.489
_end
