data_functionalizedCrystal
_audit_creation_method	'EQeq! by Chris Wilmer'
_symmetry_space_group_name_H-M	'P1'
_symmetry_Int_Tables_number	1
_symmetry_cell_setting	triclinic
loop_
_symmetry_equiv_pos_as_xyz
  x,y,z
_cell_length_a	10.25
_cell_length_b	11.683
_cell_length_c	15.154
_cell_angle_alpha	91.86
_cell_angle_beta	90
_cell_angle_gamma	90
loop_
_atom_site_label
_atom_site_type_symbol
_atom_site_fract_x
_atom_site_fract_y
_atom_site_fract_z
_atom_site_charge
Mof_Mn	Mn	0.92343	0.24391	0.86866	1.115
Mof_Mn	Mn	0.6124	0.23947	0.80907	1.03
Mof_Mn	Mn	0.42343	0.25609	0.63134	1.012
Mof_Mn	Mn	0.1124	0.26053	0.69093	0.993
Mof_Mn	Mn	0.07657	0.75609	0.13134	0.913
Mof_Mn	Mn	0.3876	0.76053	0.19093	1.05
Mof_Mn	Mn	0.57657	0.74391	0.36866	1.028
Mof_Mn	Mn	0.8876	0.73947	0.30907	1.088
Mof_Mn	Mn	-0	0	-0	0.767
Mof_Mn	Mn	0.5	0.5	0.5	1.068
Mof_Mn	Mn	6.95895e-33	0.5	-0	0.823
Mof_Mn	Mn	0.5	0	0.5	1
Mof_H 	H 	0.7137	0.9922	0.9642	-0.013
Mof_H 	H 	0.6276	0.444	0.9492	-0.099
Mof_H 	H 	0.2118	0.0372	0.7846	-0.117
Mof_H 	H 	0.151	0.3018	0.0721	-0.091
Mof_H 	H 	0.7654	0.1495	0.6335	-0.134
Mof_H 	H 	0.0414	0.5204	0.7431	-0.136
Mof_H 	H 	0.2137	0.5078	0.5358	-0.131
Mof_H 	H 	0.1276	0.056	0.5508	-0.16
Mof_H 	H 	0.7118	0.4628	0.7154	-0.131
Mof_H 	H 	0.651	0.1982	0.4279	-0.13
Mof_H 	H 	0.2654	0.3505	0.8665	-0.112
Mof_H 	H 	0.5414	0.9796	0.7569	-0.026
Mof_H 	H 	0.2863	0.0078	0.0358	-0.196
Mof_H 	H 	0.3724	0.556	0.0508	-0.143
Mof_H 	H 	0.7882	0.9628	0.2154	-0.148
Mof_H 	H 	0.849	0.6982	0.9279	-0.115
Mof_H 	H 	0.2346	0.8505	0.3665	-0.132
Mof_H 	H 	0.9586	0.4796	0.2569	-0.111
Mof_H 	H 	0.7863	0.4922	0.4642	-0.112
Mof_H 	H 	0.8724	0.944	0.4492	-0.094
Mof_H 	H 	0.2882	0.5372	0.2846	-0.16
Mof_H 	H 	0.349	0.8018	0.5721	-0.12
Mof_H 	H 	0.7346	0.6495	0.1335	-0.147
Mof_H 	H 	0.4586	0.0204	0.2431	-0.231
Mof_C 	C 	0.72867	0.05784	0.93264	0.405
Mof_C 	C 	0.71528	0.424	0.94509	0.519
Mof_C 	C 	0.1452	0.0593	0.82316	0.442
Mof_C 	C 	0.09652	0.25904	0.03471	0.376
Mof_C 	C 	0.83239	0.177	0.66971	0.53
Mof_C 	C 	0.0216	0.48092	0.79371	0.551
Mof_C 	C 	0.22867	0.44216	0.56736	0.541
Mof_C 	C 	0.21528	0.076	0.55491	0.55
Mof_C 	C 	0.6452	0.4407	0.67684	0.551
Mof_C 	C 	0.59652	0.24096	0.46529	0.552
Mof_C 	C 	0.33239	0.323	0.83029	0.525
Mof_C 	C 	0.5216	0.01908	0.70629	0.361
Mof_C 	C 	0.27133	0.94216	0.06736	0.619
Mof_C 	C 	0.28472	0.576	0.05491	0.536
Mof_C 	C 	0.8548	0.9407	0.17684	0.598
Mof_C 	C 	0.90348	0.74096	0.96529	0.61
Mof_C 	C 	0.16761	0.823	0.33029	0.54
Mof_C 	C 	0.9784	0.51908	0.20629	0.533
Mof_C 	C 	0.77133	0.55784	0.43264	0.534
Mof_C 	C 	0.78472	0.924	0.44509	0.533
Mof_C 	C 	0.3548	0.5593	0.32316	0.558
Mof_C 	C 	0.40348	0.75904	0.53471	0.544
Mof_C 	C 	0.66761	0.677	0.16971	0.543
Mof_C 	C 	0.4784	0.98092	0.29371	0.746
Mof_O 	O 	0.6337	0.09939	0.89533	-0.382
Mof_O 	O 	0.0955	0.15501	0.04309	-0.41
Mof_O 	O 	0.79132	0.4776	0.99301	-0.333
Mof_O 	O 	0.01194	0.37342	0.78509	-0.536
Mof_O 	O 	0.08443	0.15021	0.80581	-0.507
Mof_O 	O 	0.84441	0.09538	0.93236	-0.414
Mof_O 	O 	0.80512	0.19586	0.75006	-0.494
Mof_O 	O 	0.02952	0.31353	0.97931	-0.415
Mof_O 	O 	0.74472	0.34366	0.89028	-0.492
Mof_O 	O 	0.93984	0.19158	0.63438	-0.383
Mof_O 	O 	0.12505	0.99757	0.88553	-0.302
Mof_O 	O 	0.0076	0.53799	0.86155	-0.406
Mof_O 	O 	0.1337	0.40061	0.60467	-0.434
Mof_O 	O 	0.5955	0.34499	0.45691	-0.433
Mof_O 	O 	0.29132	0.0224	0.50699	-0.445
Mof_O 	O 	0.51194	0.12658	0.71491	-0.463
Mof_O 	O 	0.58443	0.34979	0.69419	-0.509
Mof_O 	O 	0.34441	0.40462	0.56764	-0.508
Mof_O 	O 	0.30512	0.30414	0.74994	-0.489
Mof_O 	O 	0.52952	0.18647	0.52069	-0.51
Mof_O 	O 	0.24472	0.15634	0.60972	-0.52
Mof_O 	O 	0.43984	0.30842	0.86562	-0.405
Mof_O 	O 	0.62505	0.50243	0.61447	-0.42
Mof_O 	O 	0.5076	0.96201	0.63845	-0.328
Mof_O 	O 	0.3663	0.90061	0.10467	-0.442
Mof_O 	O 	0.9045	0.84499	0.95691	-0.338
Mof_O 	O 	0.20868	0.5224	0.00699	-0.442
Mof_O 	O 	0.98806	0.62658	0.21491	-0.463
Mof_O 	O 	0.91557	0.84979	0.19419	-0.484
Mof_O 	O 	0.15559	0.90462	0.06764	-0.512
Mof_O 	O 	0.19488	0.80414	0.24994	-0.504
Mof_O 	O 	0.97048	0.68647	0.02069	-0.491
Mof_O 	O 	0.25528	0.65634	0.10972	-0.517
Mof_O 	O 	0.06016	0.80842	0.36562	-0.466
Mof_O 	O 	0.87495	0.00243	0.11447	-0.434
Mof_O 	O 	0.9924	0.46201	0.13845	-0.37
Mof_O 	O 	0.8663	0.59939	0.39533	-0.406
Mof_O 	O 	0.4045	0.65501	0.54309	-0.43
Mof_O 	O 	0.70868	0.9776	0.49301	-0.383
Mof_O 	O 	0.48806	0.87342	0.28509	-0.555
Mof_O 	O 	0.41557	0.65021	0.30581	-0.517
Mof_O 	O 	0.65559	0.59538	0.43236	-0.506
Mof_O 	O 	0.69488	0.69586	0.25006	-0.507
Mof_O 	O 	0.47048	0.81353	0.47931	-0.496
Mof_O 	O 	0.75528	0.84366	0.39028	-0.502
Mof_O 	O 	0.56016	0.69158	0.13438	-0.44
Mof_O 	O 	0.37495	0.49757	0.38553	-0.439
Mof_O 	O 	0.4924	0.03799	0.36155	-0.513
_end
