data_functionalizedCrystal
_audit_creation_method	'EQeq! by Chris Wilmer'
_symmetry_space_group_name_H-M	'P1'
_symmetry_Int_Tables_number	1
_symmetry_cell_setting	triclinic
loop_
_symmetry_equiv_pos_as_xyz
  x,y,z
_cell_length_a	45.5646
_cell_length_b	45.5646
_cell_length_c	45.5646
_cell_angle_alpha	94.9421
_cell_angle_beta	94.9421
_cell_angle_gamma	145.863
loop_
_atom_site_label
_atom_site_type_symbol
_atom_site_fract_x
_atom_site_fract_y
_atom_site_fract_z
_atom_site_charge
Mof_Ag	Ag	0.00757	0.52443	0.06614	0.414
Mof_Ag	Ag	0.02841	0.48058	0.02171	0.339
Mof_Ag	Ag	0.56518	0.58113	0.98827	0.345
Mof_Ag	Ag	0.09756	0.23329	0.33403	0.353
Mof_Ag	Ag	0.11934	0.18804	0.29598	0.328
Mof_Ag	Ag	0.99075	0.10843	0.27848	0.428
Mof_Ag	Ag	0.27595	0.01468	0.91693	0.353
Mof_Ag	Ag	0.22419	0.00422	0.85033	0.327
Mof_Ag	Ag	0.1542	0.94757	0.90347	0.422
Mof_Ag	Ag	0.46812	0.35627	0.66289	0.331
Mof_Ag	Ag	0.43828	0.27139	0.68935	0.35
Mof_Ag	Ag	0.36615	0.22551	0.6149	0.426
Mof_Ag	Ag	0.96615	0.35206	0.19565	0.34
Mof_Ag	Ag	0.8521	0.29314	0.17856	0.346
Mof_Ag	Ag	0.90108	0.31838	0.25252	0.427
Mof_Ag	Ag	0.87793	0.83773	0.15328	0.401
Mof_Ag	Ag	0.92588	0.85334	0.22276	0.374
Mof_Ag	Ag	0.8227	0.729	0.17248	0.307
Mof_Ag	Ag	0.70746	0.53566	0.38324	0.314
Mof_Ag	Ag	0.78683	0.59948	0.33637	0.384
Mof_Ag	Ag	0.76088	0.64492	0.36526	0.387
Mof_Ag	Ag	0.60237	0.20866	0.23141	0.351
Mof_Ag	Ag	0.58071	0.25392	0.26731	0.356
Mof_Ag	Ag	0.7133	0.3397	0.28278	0.373
Mof_Ag	Ag	0.14117	0.835	0.07591	0.359
Mof_Ag	Ag	0.25108	0.96696	0.11228	0.374
Mof_Ag	Ag	0.21862	0.87859	0.14547	0.38
Mof_Ag	Ag	0.51518	0.47488	0.49482	0.312
Mof_Ag	Ag	0.46818	0.47702	0.43512	0.382
Mof_Ag	Ag	0.38588	0.39273	0.47989	0.394
Mof_N 	N 	0.97548	0.457	0.07028	-0.203
Mof_N 	N 	0.9878	0.4425	0.0543	-0.203
Mof_N 	N 	0.5843	0.5777	0.0516	-0.211
Mof_N 	N 	0.60837	0.60038	0.02835	-0.207
Mof_N 	N 	0.07076	0.6201	0.04406	-0.203
Mof_N 	N 	0.04772	0.5972	0.06752	-0.202
Mof_N 	N 	0.172	0.27538	0.34838	-0.205
Mof_N 	N 	0.18176	0.25905	0.33141	-0.208
Mof_N 	N 	0.05471	0.11156	0.26467	-0.196
Mof_N 	N 	0.00388	0.08024	0.25572	-0.194
Mof_N 	N 	0.16932	0.47649	0.34501	-0.205
Mof_N 	N 	0.19529	0.52025	0.33534	-0.2
Mof_N 	N 	0.31729	0.04595	0.88384	-0.211
Mof_N 	N 	0.29603	0.04197	0.8576	-0.21
Mof_N 	N 	0.45959	0.11875	0.81174	-0.198
Mof_N 	N 	0.4345	0.07253	0.81523	-0.203
Mof_N 	N 	0.1836	0.95217	0.94317	-0.209
Mof_N 	N 	0.2336	0.9812	0.949	-0.202
Mof_N 	N 	0.50645	0.38268	0.70793	-0.213
Mof_N 	N 	0.49598	0.34775	0.71853	-0.209
Mof_N 	N 	0.69546	0.53417	0.81303	-0.204
Mof_N 	N 	0.67433	0.54176	0.82369	-0.203
Mof_N 	N 	0.39347	0.28445	0.59812	-0.19
Mof_N 	N 	0.43455	0.3345	0.61765	-0.197
Mof_N 	N 	0.94128	0.34676	0.15284	-0.207
Mof_N 	N 	0.8918	0.31861	0.14501	-0.205
Mof_N 	N 	0.81628	0.28076	0.21084	-0.2
Mof_N 	N 	0.83676	0.29359	0.24175	-0.198
Mof_N 	N 	0.97177	0.35307	0.26264	-0.2
Mof_N 	N 	0.99609	0.36551	0.2394	-0.205
Mof_N 	N 	0.93722	0.91236	0.18618	-0.198
Mof_N 	N 	0.95861	0.91889	0.2137	-0.2
Mof_N 	N 	0.88552	0.78778	0.2385	-0.197
Mof_N 	N 	0.8454	0.738	0.2176	-0.203
Mof_N 	N 	0.78994	0.71695	0.12949	-0.203
Mof_N 	N 	0.8088	0.75948	0.12348	-0.203
Mof_N 	N 	0.72074	0.50594	0.36328	-0.202
Mof_N 	N 	0.7502	0.53102	0.34202	-0.203
Mof_N 	N 	0.81611	0.66055	0.32206	-0.208
Mof_N 	N 	0.80398	0.67839	0.33257	-0.206
Mof_N 	N 	0.70816	0.60274	0.3923	-0.2
Mof_N 	N 	0.68851	0.56057	0.39948	-0.204
Mof_N 	N 	0.524	0.1596	0.2208	-0.202
Mof_N 	N 	0.517	0.17997	0.23517	-0.205
Mof_N 	N 	0.64347	0.33023	0.2973	-0.21
Mof_N 	N 	0.6964	0.36498	0.30418	-0.205
Mof_N 	N 	0.72561	0.3111	0.25911	-0.207
Mof_N 	N 	0.68097	0.25853	0.2415	-0.205
Mof_N 	N 	0.16946	0.88837	0.05243	-0.202
Mof_N 	N 	0.2112	0.9419	0.0675	-0.204
Mof_N 	N 	0.30005	0.99513	0.15258	-0.208
Mof_N 	N 	0.29102	0.96318	0.166	-0.205
Mof_N 	N 	0.15508	0.79825	0.11933	-0.203
Mof_N 	N 	0.1222	0.7817	0.0935	-0.209
Mof_N 	N 	0.56569	0.52507	0.46856	-0.207
Mof_N 	N 	0.54524	0.52266	0.4423	-0.197
Mof_N 	N 	0.38729	0.42252	0.42381	-0.2
Mof_N 	N 	0.3557	0.39227	0.44257	-0.202
Mof_N 	N 	0.41105	0.38282	0.51167	-0.197
Mof_N 	N 	0.46256	0.41577	0.51733	-0.201
Mof_C 	C 	0.9398	0.4424	0.1134	-0.471
Mof_C 	C 	0.9548	0.4315	0.0917	0.171
Mof_C 	C 	0.9545	0.4014	0.0919	-0.129
Mof_C 	C 	0.9737	0.4065	0.0668	0.181
Mof_C 	C 	0.9818	0.3837	0.0553	-0.517
Mof_C 	C 	0.6084	0.585	0.104	-0.491
Mof_C 	C 	0.623	0.6017	0.0759	0.174
Mof_C 	C 	0.673	0.6411	0.0693	-0.124
Mof_C 	C 	0.6613	0.6387	0.0392	0.159
Mof_C 	C 	0.6983	0.67	0.0183	-0.475
Mof_C 	C 	0.1245	0.7015	0.0284	-0.491
Mof_C 	C 	0.0946	0.6675	0.0495	0.168
Mof_C 	C 	0.0873	0.6751	0.0758	-0.115
Mof_C 	C 	0.0584	0.6304	0.0866	0.157
Mof_C 	C 	0.0381	0.616	0.1151	-0.462
Mof_C 	C 	0.2154	0.34198	0.39498	-0.521
Mof_C 	C 	0.21457	0.31537	0.37394	0.189
Mof_C 	C 	0.2525	0.32459	0.37409	-0.124
Mof_C 	C 	0.22918	0.2875	0.34708	0.147
Mof_C 	C 	0.2502	0.2766	0.3346	-0.47
Mof_C 	C 	0.1039	0.1063	0.2586	-0.476
Mof_C 	C 	0.0537	0.08228	0.25238	0.156
Mof_C 	C 	0.00081	0.0306	0.23541	-0.108
Mof_C 	C 	0.9705	0.0311	0.2378	0.155
Mof_C 	C 	0.9115	0.9881	0.225	-0.454
Mof_C 	C 	0.079	0.3769	0.3333	-0.498
Mof_C 	C 	0.1172	0.4304	0.328	0.173
Mof_C 	C 	0.108	0.44441	0.30701	-0.121
Mof_C 	C 	0.15618	0.4994	0.31218	0.165
Mof_C 	C 	0.1702	0.5366	0.2976	-0.477
Mof_C 	C 	0.3869	0.0693	0.9052	-0.515
Mof_C 	C 	0.3566	0.0614	0.88	0.192
Mof_C 	C 	0.3643	0.07	0.8517	-0.134
Mof_C 	C 	0.3251	0.0568	0.8379	0.152
Mof_C 	C 	0.3117	0.0568	0.8067	-0.467
Mof_C 	C 	0.4588	0.1716	0.8238	-0.473
Mof_C 	C 	0.4398	0.12519	0.82459	0.162
Mof_C 	C 	0.3999	0.08194	0.83684	-0.112
Mof_C 	C 	0.3989	0.0505	0.8306	0.171
Mof_C 	C 	0.3618	0.9978	0.8372	-0.478
Mof_C 	C 	0.1082	0.8947	0.9665	-0.513
Mof_C 	C 	0.1631	0.9308	0.9661	0.177
Mof_C 	C 	0.2004	0.9458	0.9884	-0.112
Mof_C 	C 	0.2446	0.9785	0.9759	0.16
Mof_C 	C 	0.2954	0.0044	0.9888	-0.48
Mof_C 	C 	0.5704	0.4784	0.7238	-0.485
Mof_C 	C 	0.54824	0.43076	0.729	0.16
Mof_C 	C 	0.5656	0.4282	0.7536	-0.128
Mof_C 	C 	0.5307	0.3742	0.7461	0.18
Mof_C 	C 	0.5288	0.3467	0.7629	-0.504
Mof_C 	C 	0.6712	0.4761	0.7691	-0.478
Mof_C 	C 	0.6587	0.4921	0.787	0.161
Mof_C 	C 	0.6133	0.4726	0.7803	-0.113
Mof_C 	C 	0.62435	0.5046	0.80415	0.167
Mof_C 	C 	0.5912	0.5021	0.8093	-0.491
Mof_C 	C 	0.3332	0.2329	0.5451	-0.468
Mof_C 	C 	0.3807	0.2848	0.5701	0.156
Mof_C 	C 	0.4175	0.3388	0.5721	-0.102
Mof_C 	C 	0.4489	0.3675	0.6026	0.145
Mof_C 	C 	0.494	0.4274	0.6176	-0.447
Mof_C 	C 	0.0277	0.4156	0.1375	-0.46
Mof_C 	C 	0.9707	0.3786	0.1339	0.143
Mof_C 	C 	0.9375	0.3692	0.1131	-0.11
Mof_C 	C 	0.8884	0.3313	0.1209	0.169
Mof_C 	C 	0.8383	0.3064	0.1077	-0.487
Mof_C 	C 	0.7582	0.2671	0.1777	-0.45
Mof_C 	C 	0.7863	0.2795	0.209	0.153
Mof_C 	C 	0.7847	0.2908	0.2373	-0.108
Mof_C 	C 	0.81861	0.30082	0.25803	0.157
Mof_C 	C 	0.8344	0.3165	0.2921	-0.483
Mof_C 	C 	0.9908	0.3699	0.3185	-0.476
Mof_C 	C 	0.007	0.3777	0.2897	0.162
Mof_C 	C 	0.05608	0.40746	0.28414	-0.115
Mof_C 	C 	0.0461	0.3978	0.2531	0.165
Mof_C 	C 	0.0834	0.4196	0.2338	-0.483
Mof_C 	C 	0.9335	0.9574	0.1635	-0.487
Mof_C 	C 	0.9504	0.9529	0.1897	0.16
Mof_C 	C 	0.9792	0.9844	0.2204	-0.112
Mof_C 	C 	0.9841	0.9621	0.2342	0.158
Mof_C 	C 	0.0089	0.9771	0.2672	-0.469
Mof_C 	C 	0.9256	0.8316	0.2936	-0.468
Mof_C 	C 	0.88395	0.78111	0.26586	0.167
Mof_C 	C 	0.8436	0.7274	0.2646	-0.108
Mof_C 	C 	0.8189	0.7005	0.233	0.153
Mof_C 	C 	0.7722	0.6415	0.2175	-0.464
Mof_C 	C 	0.7091	0.6166	0.1117	-0.475
Mof_C 	C 	0.74	0.6698	0.1104	0.158
Mof_C 	C 	0.7268	0.6815	0.0917	-0.121
Mof_C 	C 	0.771	0.7375	0.1009	0.178
Mof_C 	C 	0.7809	0.7743	0.089	-0.478
Mof_C 	C 	0.6646	0.4248	0.3808	-0.483
Mof_C 	C 	0.6995	0.4603	0.3616	0.161
Mof_C 	C 	0.7136	0.4549	0.3383	-0.114
Mof_C 	C 	0.7456	0.5006	0.3276	0.172
Mof_C 	C 	0.7704	0.5152	0.3014	-0.479
Mof_C 	C 	0.8478	0.6631	0.2809	-0.488
Mof_C 	C 	0.8316	0.6766	0.2972	0.18
Mof_C 	C 	0.83096	0.7044	0.29056	-0.129
Mof_C 	C 	0.8125	0.7045	0.314	0.178
Mof_C 	C 	0.8011	0.7268	0.3183	-0.499
Mof_C 	C 	0.7041	0.6528	0.4039	-0.479
Mof_C 	C 	0.6867	0.60733	0.40583	0.17
Mof_C 	C 	0.65077	0.56754	0.42031	-0.111
Mof_C 	C 	0.65299	0.5385	0.41589	0.136
Mof_C 	C 	0.6223	0.4885	0.4248	-0.444
Mof_C 	C 	0.4699	0.0759	0.1822	-0.456
Mof_C 	C 	0.476	0.1098	0.2022	0.143
Mof_C 	C 	0.4348	0.096	0.2042	-0.101
Mof_C 	C 	0.464	0.1427	0.2259	0.16
Mof_C 	C 	0.444	0.154	0.2378	-0.476
Mof_C 	C 	0.5905	0.3303	0.3052	-0.459
Mof_C 	C 	0.6432	0.3574	0.31	0.154
Mof_C 	C 	0.696	0.4106	0.3254	-0.119
Mof_C 	C 	0.7277	0.4131	0.321	0.177
Mof_C 	C 	0.7874	0.4581	0.3325	-0.495
Mof_C 	C 	0.825	0.3886	0.2762	-0.496
Mof_C 	C 	0.7698	0.3308	0.2608	0.171
Mof_C 	C 	0.7536	0.2906	0.244	-0.122
Mof_C 	C 	0.6969	0.24546	0.23196	0.159
Mof_C 	C 	0.6545	0.1884	0.2115	-0.478
Mof_C 	C 	0.1133	0.827	0.9989	-0.47
Mof_C 	C 	0.1586	0.8824	0.0224	0.166
Mof_C 	C 	0.194	0.9317	0.0177	-0.124
Mof_C 	C 	0.2277	0.9692	0.0463	0.17
Mof_C 	C 	0.2746	0.0296	0.0556	-0.49
Mof_C 	C 	0.3771	0.0925	0.1566	-0.532
Mof_C 	C 	0.3536	0.0478	0.166	0.193
Mof_C 	C 	0.3772	0.0475	0.1871	-0.134
Mof_C 	C 	0.3358	0.993	0.1864	0.173
Mof_C 	C 	0.3378	0.9684	0.204	-0.485
Mof_C 	C 	0.1759	0.7693	0.1428	-0.494
Mof_C 	C 	0.1453	0.7618	0.1177	0.178
Mof_C 	C 	0.1075	0.7212	0.0899	-0.122
Mof_C 	C 	0.0934	0.7352	0.0756	0.165
Mof_C 	C 	0.0533	0.706	0.0455	-0.484
Mof_C 	C 	0.6385	0.5507	0.4888	-0.456
Mof_C 	C 	0.6074	0.5432	0.4644	0.15
Mof_C 	C 	0.61508	0.55391	0.43579	-0.116
Mof_C 	C 	0.5755	0.54046	0.42336	0.17
Mof_C 	C 	0.5621	0.5422	0.3929	-0.476
Mof_C 	C 	0.3765	0.4266	0.3705	-0.487
Mof_C 	C 	0.3552	0.4031	0.3969	0.16
Mof_C 	C 	0.30076	0.35916	0.39892	-0.109
Mof_C 	C 	0.3046	0.355	0.4282	0.162
Mof_C 	C 	0.2596	0.3144	0.4432	-0.477
Mof_C 	C 	0.3303	0.3103	0.5302	-0.489
Mof_C 	C 	0.3866	0.3493	0.5299	0.174
Mof_C 	C 	0.424	0.3619	0.5479	-0.121
Mof_C 	C 	0.4704	0.40365	0.53925	0.154
Mof_C 	C 	0.5246	0.4334	0.549	-0.464
Mof_H 	H 	0.9451	0.4664	0.1071	0.118
Mof_H 	H 	0.963	0.4601	0.1343	0.131
Mof_H 	H 	0.9016	0.4079	0.1129	0.131
Mof_H 	H 	0.9968	0.3968	0.0378	0.133
Mof_H 	H 	0.9468	0.3438	0.0486	0.143
Mof_H 	H 	0.0073	0.395	0.0715	0.144
Mof_H 	H 	0.5693	0.5556	0.1007	0.128
Mof_H 	H 	0.6291	0.6163	0.1208	0.136
Mof_H 	H 	0.6171	0.5721	0.1096	0.14
Mof_H 	H 	0.6772	0.6584	0.9982	0.123
Mof_H 	H 	0.7128	0.6624	0.0156	0.142
Mof_H 	H 	0.7283	0.709	0.0273	0.134
Mof_H 	H 	0.1216	0.6834	0.0118	0.124
Mof_H 	H 	0.1629	0.7369	0.0396	0.139
Mof_H 	H 	0.1089	0.7066	0.0197	0.137
Mof_H 	H 	0.0189	0.5817	0.116	0.117
Mof_H 	H 	0.0133	0.6119	0.1142	0.135
Mof_H 	H 	0.0693	0.6452	0.1335	0.13
Mof_H 	H 	0.182	0.3254	0.3876	0.136
Mof_H 	H 	0.2472	0.3808	0.3962	0.157
Mof_H 	H 	0.2176	0.3378	0.4154	0.146
Mof_H 	H 	0.2249	0.2486	0.3149	0.123
Mof_H 	H 	0.253	0.264	0.3492	0.133
Mof_H 	H 	0.2861	0.3102	0.3319	0.134
Mof_H 	H 	0.1347	0.144	0.2717	0.118
Mof_H 	H 	0.1115	0.1061	0.2392	0.137
Mof_H 	H 	0.0989	0.085	0.2691	0.134
Mof_H 	H 	0.9042	0.0025	0.2311	0.114
Mof_H 	H 	0.8897	0.9566	0.2327	0.127
Mof_H 	H 	0.9014	0.9766	0.2024	0.126
Mof_H 	H 	0.0984	0.3809	0.3495	0.125
Mof_H 	H 	0.0634	0.3514	0.3144	0.145
Mof_H 	H 	0.0497	0.363	0.3397	0.138
Mof_H 	H 	0.2087	0.574	0.3067	0.12
Mof_H 	H 	0.1477	0.5347	0.301	0.133
Mof_H 	H 	0.1633	0.5256	0.2755	0.133
Mof_H 	H 	0.3715	0.0597	0.9226	0.137
Mof_H 	H 	0.384	0.0459	0.8979	0.145
Mof_H 	H 	0.4253	0.1075	0.9116	0.156
Mof_H 	H 	0.2817	0.0457	0.8044	0.12
Mof_H 	H 	0.3439	0.0935	0.8042	0.133
Mof_H 	H 	0.3009	0.0312	0.7909	0.131
Mof_H 	H 	0.4873	0.195	0.8133	0.117
Mof_H 	H 	0.4281	0.1576	0.8129	0.132
Mof_H 	H 	0.4735	0.1928	0.8449	0.125
Mof_H 	H 	0.3709	0.9855	0.8304	0.119
Mof_H 	H 	0.3659	0.0026	0.8593	0.134
Mof_H 	H 	0.3239	0.9704	0.8261	0.133
Mof_H 	H 	0.0918	0.8913	0.9483	0.133
Mof_H 	H 	0.0856	0.8585	0.9665	0.145
Mof_H 	H 	0.1106	0.9099	0.9849	0.147
Mof_H 	H 	0.3189	0.0243	0.9752	0.124
Mof_H 	H 	0.3147	0.0298	0.0091	0.135
Mof_H 	H 	0.286	0.9761	0.9907	0.137
Mof_H 	H 	0.5487	0.4667	0.7042	0.127
Mof_H 	H 	0.5685	0.4915	0.7404	0.14
Mof_H 	H 	0.6084	0.5078	0.7236	0.135
Mof_H 	H 	0.499	0.3086	0.751	0.135
Mof_H 	H 	0.5635	0.3651	0.7662	0.139
Mof_H 	H 	0.523	0.3482	0.7828	0.151
Mof_H 	H 	0.7066	0.4978	0.78	0.119
Mof_H 	H 	0.6429	0.4374	0.7665	0.134
Mof_H 	H 	0.6726	0.4825	0.7489	0.136
Mof_H 	H 	0.6109	0.5305	0.828	0.125
Mof_H 	H 	0.5838	0.5078	0.7918	0.14
Mof_H 	H 	0.5567	0.4662	0.8117	0.131
Mof_H 	H 	0.317	0.203	0.5522	0.121
Mof_H 	H 	0.306	0.2256	0.5394	0.134
Mof_H 	H 	0.3453	0.236	0.5271	0.132
Mof_H 	H 	0.509	0.4365	0.6393	0.107
Mof_H 	H 	0.5228	0.4493	0.6073	0.122
Mof_H 	H 	0.4793	0.4351	0.616	0.12
Mof_H 	H 	0.0378	0.411	0.1542	0.118
Mof_H 	H 	0.0529	0.4535	0.1424	0.129
Mof_H 	H 	0.0299	0.4066	0.1183	0.127
Mof_H 	H 	0.8117	0.2814	0.1191	0.13
Mof_H 	H 	0.8226	0.2863	0.0861	0.148
Mof_H 	H 	0.8476	0.3352	0.1092	0.134
Mof_H 	H 	0.7654	0.2594	0.1614	0.11
Mof_H 	H 	0.7723	0.2985	0.1766	0.127
Mof_H 	H 	0.7188	0.2351	0.1749	0.128
Mof_H 	H 	0.8582	0.32	0.2996	0.124
Mof_H 	H 	0.8015	0.2883	0.299	0.137
Mof_H 	H 	0.8537	0.3513	0.3	0.134
Mof_H 	H 	0.9537	0.3468	0.3137	0.118
Mof_H 	H 	0.0161	0.4053	0.3326	0.132
Mof_H 	H 	0.9916	0.3522	0.3282	0.135
Mof_H 	H 	0.0642	0.4051	0.2121	0.123
Mof_H 	H 	0.0945	0.4085	0.237	0.14
Mof_H 	H 	0.1157	0.4594	0.2397	0.136
Mof_H 	H 	0.9137	0.9287	0.145	0.126
Mof_H 	H 	0.9659	0.9931	0.16	0.142
Mof_H 	H 	0.9098	0.9533	0.1681	0.137
Mof_H 	H 	0.0054	0.9531	0.2695	0.117
Mof_H 	H 	0.9901	0.9729	0.2802	0.132
Mof_H 	H 	0.0476	0.015	0.2734	0.132
Mof_H 	H 	0.9489	0.8639	0.2864	0.123
Mof_H 	H 	0.9481	0.8357	0.3058	0.139
Mof_H 	H 	0.9065	0.8274	0.3063	0.13
Mof_H 	H 	0.7648	0.6354	0.1952	0.119
Mof_H 	H 	0.7399	0.6213	0.2236	0.13
Mof_H 	H 	0.781	0.6287	0.2235	0.127
Mof_H 	H 	0.7308	0.6232	0.1278	0.122
Mof_H 	H 	0.7013	0.5983	0.0918	0.131
Mof_H 	H 	0.6746	0.5932	0.116	0.132
Mof_H 	H 	0.817	0.8123	0.1005	0.121
Mof_H 	H 	0.753	0.7653	0.0915	0.133
Mof_H 	H 	0.779	0.7692	0.0672	0.136
Mof_H 	H 	0.6629	0.4408	0.3947	0.123
Mof_H 	H 	0.6279	0.3889	0.3678	0.136
Mof_H 	H 	0.6799	0.421	0.3929	0.134
Mof_H 	H 	0.7911	0.5499	0.2996	0.122
Mof_H 	H 	0.7949	0.5189	0.3054	0.137
Mof_H 	H 	0.7415	0.4866	0.2823	0.136
Mof_H 	H 	0.8445	0.6431	0.2918	0.123
Mof_H 	H 	0.8237	0.6404	0.2599	0.134
Mof_H 	H 	0.8855	0.6968	0.2803	0.139
Mof_H 	H 	0.789	0.7206	0.3368	0.129
Mof_H 	H 	0.8344	0.766	0.3204	0.141
Mof_H 	H 	0.7725	0.7085	0.3004	0.141
Mof_H 	H 	0.73	0.6742	0.3916	0.125
Mof_H 	H 	0.6721	0.6375	0.3942	0.135
Mof_H 	H 	0.7215	0.6765	0.4246	0.143
Mof_H 	H 	0.6341	0.4792	0.4175	0.109
Mof_H 	H 	0.6296	0.4959	0.4471	0.124
Mof_H 	H 	0.583	0.4578	0.4152	0.125
Mof_H 	H 	0.5055	0.0961	0.1856	0.118
Mof_H 	H 	0.4444	0.0416	0.1876	0.127
Mof_H 	H 	0.4558	0.068	0.1606	0.13
Mof_H 	H 	0.4747	0.1907	0.2522	0.123
Mof_H 	H 	0.4272	0.1519	0.2207	0.132
Mof_H 	H 	0.4169	0.1271	0.2484	0.141
Mof_H 	H 	0.5599	0.292	0.2935	0.115
Mof_H 	H 	0.5853	0.3327	0.3252	0.129
Mof_H 	H 	0.5923	0.3489	0.2938	0.127
Mof_H 	H 	0.7962	0.4458	0.325	0.132
Mof_H 	H 	0.807	0.4893	0.3251	0.14
Mof_H 	H 	0.7985	0.4691	0.355	0.146
Mof_H 	H 	0.8226	0.4063	0.2861	0.128
Mof_H 	H 	0.8439	0.3913	0.2916	0.14
Mof_H 	H 	0.8453	0.4066	0.2609	0.141
Mof_H 	H 	0.6183	0.1669	0.208	0.124
Mof_H 	H 	0.6626	0.1907	0.1919	0.134
Mof_H 	H 	0.6552	0.1709	0.2217	0.145
Mof_H 	H 	0.0949	0.7991	0.0094	0.125
Mof_H 	H 	0.1288	0.8277	0.9847	0.132
Mof_H 	H 	0.0869	0.8186	0.9873	0.135
Mof_H 	H 	0.289	0.0436	0.078	0.129
Mof_H 	H 	0.2623	0.0386	0.0483	0.14
Mof_H 	H 	0.3033	0.0463	0.0466	0.138
Mof_H 	H 	0.3492	0.0784	0.1408	0.141
Mof_H 	H 	0.4071	0.111	0.1483	0.151
Mof_H 	H 	0.391	0.1184	0.1744	0.154
Mof_H 	H 	0.3016	0.9287	0.1981	0.123
Mof_H 	H 	0.3484	0.9834	0.226	0.137
Mof_H 	H 	0.3644	0.9766	0.1992	0.133
Mof_H 	H 	0.2	0.8022	0.1592	0.131
Mof_H 	H 	0.1978	0.7729	0.1345	0.137
Mof_H 	H 	0.15	0.7376	0.1508	0.143
Mof_H 	H 	0.0528	0.7265	0.0417	0.124
Mof_H 	H 	0.017	0.6696	0.046	0.139
Mof_H 	H 	0.0638	0.7029	0.0291	0.133
Mof_H 	H 	0.623	0.5399	0.5063	0.115
Mof_H 	H 	0.6768	0.5891	0.4957	0.124
Mof_H 	H 	0.6362	0.528	0.4806	0.124
Mof_H 	H 	0.5312	0.5298	0.3912	0.121
Mof_H 	H 	0.5523	0.5182	0.3763	0.134
Mof_H 	H 	0.5937	0.5795	0.3912	0.137
Mof_H 	H 	0.416	0.4571	0.3763	0.125
Mof_H 	H 	0.3678	0.4395	0.3651	0.135
Mof_H 	H 	0.3594	0.3985	0.3529	0.134
Mof_H 	H 	0.2753	0.3221	0.4642	0.121
Mof_H 	H 	0.2337	0.2775	0.4314	0.134
Mof_H 	H 	0.2407	0.3174	0.4437	0.134
Mof_H 	H 	0.3153	0.3113	0.5144	0.128
Mof_H 	H 	0.331	0.3205	0.5505	0.144
Mof_H 	H 	0.3076	0.2735	0.5261	0.138
Mof_H 	H 	0.5494	0.4613	0.5383	0.118
Mof_H 	H 	0.5189	0.4074	0.5441	0.134
Mof_H 	H 	0.5407	0.451	0.5713	0.127
Mof_Ag	Ag	0.95829	0.94143	0.43386	0.416
Mof_Ag	Ag	0.95887	0.0067	0.47829	0.339
Mof_Ag	Ag	0.09286	0.57691	0.51173	0.346
Mof_Ag	Ag	0.39926	0.76353	0.16597	0.354
Mof_Ag	Ag	0.39206	0.82336	0.20402	0.328
Mof_Ag	Ag	0.32995	0.71227	0.22152	0.43
Mof_Ag	Ag	0.59775	0.35902	0.58307	0.353
Mof_Ag	Ag	0.65389	0.37386	0.64967	0.326
Mof_Ag	Ag	0.5441	0.25073	0.59653	0.422
Mof_Ag	Ag	0.19338	0.80523	0.83711	0.331
Mof_Ag	Ag	0.08204	0.74893	0.81065	0.349
Mof_Ag	Ag	0.11061	0.75125	0.8851	0.426
Mof_Ag	Ag	0.65641	0.7705	0.30435	0.34
Mof_Ag	Ag	0.61458	0.67354	0.32144	0.346
Mof_Ag	Ag	0.56586	0.64856	0.24748	0.427
Mof_Ag	Ag	0.18445	0.72465	0.34672	0.401
Mof_Ag	Ag	0.13058	0.70312	0.27724	0.374
Mof_Ag	Ag	0.05652	0.65022	0.32752	0.307
Mof_Ag	Ag	0.65242	0.32422	0.11676	0.314
Mof_Ag	Ag	0.76311	0.45046	0.16363	0.384
Mof_Ag	Ag	0.77966	0.39562	0.13474	0.387
Mof_Ag	Ag	0.47725	0.37096	0.26859	0.351
Mof_Ag	Ag	0.48661	0.3134	0.23269	0.356
Mof_Ag	Ag	0.55692	0.43052	0.21722	0.373
Mof_Ag	Ag	0.25909	0.06526	0.42409	0.36
Mof_Ag	Ag	0.35468	0.1388	0.38772	0.374
Mof_Ag	Ag	0.23312	0.07315	0.35453	0.38
Mof_Ag	Ag	0.48006	0.02036	0.00518	0.312
Mof_Ag	Ag	0.5419	0.03306	0.06488	0.382
Mof_Ag	Ag	0.41284	0.90599	0.02011	0.394
Mof_N 	N 	0.88672	0.9052	0.42972	-0.203
Mof_N 	N 	0.8882	0.9335	0.4457	-0.203
Mof_N 	N 	0.0261	0.5327	0.4484	-0.211
Mof_N 	N 	0.07203	0.58002	0.47165	-0.207
Mof_N 	N 	0.07604	0.0267	0.45594	-0.203
Mof_N 	N 	0.02968	0.9802	0.43248	-0.202
Mof_N 	N 	0.427	0.82362	0.15162	-0.205
Mof_N 	N 	0.42764	0.85035	0.16859	-0.208
Mof_N 	N 	0.34689	0.79004	0.23533	-0.197
Mof_N 	N 	0.32452	0.74816	0.24428	-0.195
Mof_N 	N 	0.63148	0.82431	0.15499	-0.205
Mof_N 	N 	0.68491	0.85995	0.16466	-0.2
Mof_N 	N 	0.66211	0.43345	0.61616	-0.211
Mof_N 	N 	0.68437	0.43843	0.6424	-0.21
Mof_N 	N 	0.80701	0.64785	0.68826	-0.198
Mof_N 	N 	0.7573	0.61927	0.68477	-0.203
Mof_N 	N 	0.509	0.24043	0.55683	-0.209
Mof_N 	N 	0.5322	0.2846	0.551	-0.202
Mof_N 	N 	0.17475	0.79852	0.79207	-0.213
Mof_N 	N 	0.12922	0.77745	0.78147	-0.209
Mof_N 	N 	0.22114	0.88243	0.68697	-0.204
Mof_N 	N 	0.21807	0.85064	0.67631	-0.203
Mof_N 	N 	0.18633	0.79535	0.90188	-0.19
Mof_N 	N 	0.21685	0.8169	0.88235	-0.197
Mof_N 	N 	0.69392	0.78844	0.34716	-0.207
Mof_N 	N 	0.6736	0.74679	0.35499	-0.205
Mof_N 	N 	0.56992	0.60544	0.28916	-0.2
Mof_N 	N 	0.55184	0.59501	0.25825	-0.198
Mof_N 	N 	0.59043	0.70913	0.23736	-0.199
Mof_N 	N 	0.62611	0.75669	0.2606	-0.205
Mof_N 	N 	0.22618	0.75104	0.31382	-0.197
Mof_N 	N 	0.20519	0.74491	0.2863	-0.2
Mof_N 	N 	0.04928	0.64702	0.2615	-0.197
Mof_N 	N 	0.0204	0.6278	0.2824	-0.204
Mof_N 	N 	0.08746	0.66045	0.37051	-0.203
Mof_N 	N 	0.136	0.68532	0.37652	-0.203
Mof_N 	N 	0.64266	0.35746	0.13672	-0.202
Mof_N 	N 	0.689	0.40818	0.15798	-0.203
Mof_N 	N 	0.83849	0.49405	0.17794	-0.208
Mof_N 	N 	0.84582	0.47141	0.16743	-0.206
Mof_N 	N 	0.71044	0.31586	0.1077	-0.2
Mof_N 	N 	0.66109	0.28903	0.10052	-0.204
Mof_N 	N 	0.4388	0.3032	0.2792	-0.202
Mof_N 	N 	0.4448	0.28183	0.26483	-0.205
Mof_N 	N 	0.53293	0.34617	0.2027	-0.21
Mof_N 	N 	0.5608	0.39222	0.19582	-0.205
Mof_N 	N 	0.55199	0.4665	0.24089	-0.207
Mof_N 	N 	0.51703	0.43947	0.2585	-0.205
Mof_N 	N 	0.33594	0.11703	0.44757	-0.202
Mof_N 	N 	0.3744	0.1437	0.4325	-0.204
Mof_N 	N 	0.34255	0.14747	0.34742	-0.208
Mof_N 	N 	0.29718	0.12502	0.334	-0.205
Mof_N 	N 	0.17892	0.03575	0.38067	-0.203
Mof_N 	N 	0.1882	0.0287	0.4065	-0.209
Mof_N 	N 	0.55651	0.09713	0.03144	-0.207
Mof_N 	N 	0.58036	0.10294	0.0577	-0.197
Mof_N 	N 	0.49871	0.96348	0.07619	-0.2
Mof_N 	N 	0.4497	0.91313	0.05743	-0.202
Mof_N 	N 	0.37115	0.89938	0.98833	-0.197
Mof_N 	N 	0.39844	0.94523	0.98267	-0.201
Mof_C 	C 	0.829	0.8264	0.3866	-0.471
Mof_C 	C 	0.8398	0.8631	0.4083	0.171
Mof_C 	C 	0.8095	0.8626	0.4081	-0.129
Mof_C 	C 	0.8397	0.9069	0.4332	0.181
Mof_C 	C 	0.8284	0.9265	0.4447	-0.517
Mof_C 	C 	0.981	0.5044	0.396	-0.49
Mof_C 	C 	0.0258	0.5471	0.4241	0.174
Mof_C 	C 	0.0718	0.6037	0.4307	-0.123
Mof_C 	C 	0.0995	0.6221	0.4608	0.159
Mof_C 	C 	0.1517	0.68	0.4817	-0.475
Mof_C 	C 	0.1731	0.0961	0.4716	-0.491
Mof_C 	C 	0.118	0.0451	0.4505	0.168
Mof_C 	C 	0.0993	0.0115	0.4242	-0.115
Mof_C 	C 	0.0438	0.9718	0.4134	0.157
Mof_C 	C 	0.0009	0.923	0.3849	-0.465
Mof_C 	C 	0.447	0.82042	0.10502	-0.521
Mof_C 	C 	0.44143	0.84063	0.12606	0.189
Mof_C 	C 	0.4505	0.87841	0.12591	-0.124
Mof_C 	C 	0.44042	0.8821	0.15292	0.147
Mof_C 	C 	0.442	0.9156	0.1654	-0.47
Mof_C 	C 	0.3477	0.8453	0.2414	-0.477
Mof_C 	C 	0.3299	0.80132	0.24762	0.157
Mof_C 	C 	0.29519	0.7654	0.26459	-0.109
Mof_C 	C 	0.2933	0.7327	0.2622	0.156
Mof_C 	C 	0.2631	0.6865	0.275	-0.457
Mof_C 	C 	0.5436	0.7457	0.1667	-0.498
Mof_C 	C 	0.6024	0.7892	0.172	0.173
Mof_C 	C 	0.6374	0.80099	0.19299	-0.121
Mof_C 	C 	0.68722	0.844	0.18782	0.165
Mof_C 	C 	0.739	0.8726	0.2024	-0.478
Mof_C 	C 	0.6641	0.4817	0.5948	-0.515
Mof_C 	C 	0.6814	0.4766	0.62	0.192
Mof_C 	C 	0.7183	0.5126	0.6483	-0.134
Mof_C 	C 	0.7189	0.4872	0.6621	0.152
Mof_C 	C 	0.7501	0.505	0.6933	-0.467
Mof_C 	C 	0.8478	0.635	0.6762	-0.473
Mof_C 	C 	0.8006	0.61521	0.67541	0.162
Mof_C 	C 	0.7451	0.56306	0.66316	-0.112
Mof_C 	C 	0.7199	0.5683	0.6694	0.171
Mof_C 	C 	0.6606	0.5246	0.6628	-0.478
Mof_C 	C 	0.4282	0.1417	0.5335	-0.513
Mof_C 	C 	0.4647	0.197	0.5339	0.177
Mof_C 	C 	0.4574	0.212	0.5116	-0.112
Mof_C 	C 	0.5026	0.2687	0.5241	0.161
Mof_C 	C 	0.5156	0.3066	0.5112	-0.482
Mof_C 	C 	0.2546	0.8466	0.7762	-0.485
Mof_C 	C 	0.20176	0.81924	0.771	0.16
Mof_C 	C 	0.1746	0.812	0.7464	-0.128
Mof_C 	C 	0.1281	0.7846	0.7539	0.18
Mof_C 	C 	0.0838	0.7659	0.7371	-0.504
Mof_C 	C 	0.207	0.9021	0.7309	-0.478
Mof_C 	C 	0.2051	0.8717	0.713	0.161
Mof_C 	C 	0.1923	0.833	0.7197	-0.113
Mof_C 	C 	0.20045	0.8202	0.69585	0.167
Mof_C 	C 	0.1928	0.7819	0.6907	-0.491
Mof_C 	C 	0.1878	0.7881	0.9549	-0.468
Mof_C 	C 	0.2147	0.8106	0.9299	0.156
Mof_C 	C 	0.2667	0.8454	0.9279	-0.102
Mof_C 	C 	0.2649	0.8463	0.8974	0.145
Mof_C 	C 	0.3098	0.8764	0.8824	-0.447
Mof_C 	C 	0.7781	0.8902	0.3625	-0.46
Mof_C 	C 	0.7447	0.8368	0.3661	0.143
Mof_C 	C 	0.7561	0.8244	0.3869	-0.11
Mof_C 	C 	0.7104	0.7675	0.3791	0.169
Mof_C 	C 	0.6987	0.7306	0.3923	-0.487
Mof_C 	C 	0.5894	0.5805	0.3223	-0.45
Mof_C 	C 	0.5705	0.5773	0.291	0.153
Mof_C 	C 	0.5535	0.5474	0.2627	-0.108
Mof_C 	C 	0.54279	0.56058	0.24197	0.157
Mof_C 	C 	0.5244	0.5423	0.2079	-0.483
Mof_C 	C 	0.5514	0.6723	0.1815	-0.476
Mof_C 	C 	0.588	0.7173	0.2103	0.161
Mof_C 	C 	0.62332	0.77194	0.21586	-0.115
Mof_C 	C 	0.6447	0.793	0.2469	0.165
Mof_C 	C 	0.6858	0.8496	0.2662	-0.483
Mof_C 	C 	0.2939	0.77	0.3365	-0.486
Mof_C 	C 	0.2632	0.7607	0.3103	0.16
Mof_C 	C 	0.264	0.7588	0.2796	-0.111
Mof_C 	C 	0.2279	0.7499	0.2658	0.157
Mof_C 	C 	0.2099	0.7417	0.2328	-0.464
Mof_C 	C 	0.038	0.632	0.2064	-0.468
Mof_C 	C 	0.01525	0.61809	0.23414	0.166
Mof_C 	C 	0.9628	0.579	0.2354	-0.108
Mof_C 	C 	0.9675	0.5859	0.267	0.153
Mof_C 	C 	0.924	0.5547	0.2825	-0.464
Mof_C 	C 	0.0049	0.5974	0.3883	-0.476
Mof_C 	C 	0.0594	0.6296	0.3896	0.158
Mof_C 	C 	0.0898	0.6351	0.4083	-0.121
Mof_C 	C 	0.1366	0.6701	0.3991	0.178
Mof_C 	C 	0.1853	0.6919	0.411	-0.478
Mof_C 	C 	0.544	0.2838	0.1192	-0.483
Mof_C 	C 	0.5987	0.3379	0.1384	0.161
Mof_C 	C 	0.6166	0.3753	0.1617	-0.114
Mof_C 	C 	0.673	0.418	0.1724	0.172
Mof_C 	C 	0.7138	0.469	0.1986	-0.479
Mof_C 	C 	0.8822	0.5669	0.2191	-0.488
Mof_C 	C 	0.8794	0.5344	0.2028	0.18
Mof_C 	C 	0.91384	0.5404	0.20944	-0.129
Mof_C 	C 	0.8905	0.4985	0.186	0.178
Mof_C 	C 	0.9085	0.4828	0.1817	-0.499
Mof_C 	C 	0.7489	0.3002	0.0961	-0.479
Mof_C 	C 	0.7015	0.28087	0.09417	0.17
Mof_C 	C 	0.64723	0.23046	0.07969	-0.111
Mof_C 	C 	0.62261	0.2371	0.08411	0.136
Mof_C 	C 	0.5637	0.1975	0.0752	-0.445
Mof_C 	C 	0.3937	0.2877	0.3178	-0.456
Mof_C 	C 	0.4076	0.2738	0.2978	0.143
Mof_C 	C 	0.3918	0.2306	0.2958	-0.101
Mof_C 	C 	0.4168	0.2381	0.2741	0.16
Mof_C 	C 	0.4162	0.2062	0.2622	-0.476
Mof_C 	C 	0.5251	0.2853	0.1948	-0.459
Mof_C 	C 	0.5474	0.3332	0.19	0.154
Mof_C 	C 	0.5852	0.3706	0.1746	-0.119
Mof_C 	C 	0.5921	0.4067	0.179	0.177
Mof_C 	C 	0.6256	0.4549	0.1675	-0.495
Mof_C 	C 	0.6124	0.5488	0.2238	-0.496
Mof_C 	C 	0.57	0.509	0.2392	0.171
Mof_C 	C 	0.5466	0.5096	0.256	-0.122
Mof_C 	C 	0.5135	0.46494	0.26804	0.159
Mof_C 	C 	0.4769	0.443	0.2885	-0.478
Mof_C 	C 	0.3281	0.1144	0.5011	-0.471
Mof_C 	C 	0.36	0.1362	0.4776	0.166
Mof_C 	C 	0.414	0.1763	0.4823	-0.124
Mof_C 	C 	0.4229	0.1814	0.4537	0.17
Mof_C 	C 	0.474	0.219	0.4444	-0.491
Mof_C 	C 	0.4359	0.2205	0.3434	-0.532
Mof_C 	C 	0.3818	0.1876	0.334	0.193
Mof_C 	C 	0.3604	0.1901	0.3129	-0.134
Mof_C 	C 	0.3066	0.1494	0.3136	0.173
Mof_C 	C 	0.2644	0.1338	0.296	-0.485
Mof_C 	C 	0.1265	0.0331	0.3572	-0.493
Mof_C 	C 	0.1441	0.0276	0.3823	0.178
Mof_C 	C 	0.1313	0.0176	0.4101	-0.121
Mof_C 	C 	0.1596	0.0178	0.4244	0.165
Mof_C 	C 	0.1605	0.0078	0.4545	-0.483
Mof_C 	C 	0.5619	0.1497	0.0112	-0.456
Mof_C 	C 	0.5788	0.143	0.0356	0.15
Mof_C 	C 	0.61812	0.17929	0.06421	-0.116
Mof_C 	C 	0.6171	0.15214	0.07664	0.17
Mof_C 	C 	0.6493	0.1692	0.1071	-0.476
Mof_C 	C 	0.5561	0.006	0.1295	-0.487
Mof_C 	C 	0.5062	0.9583	0.1031	0.16
Mof_C 	C 	0.46024	0.90184	0.10108	-0.109
Mof_C 	C 	0.4268	0.8764	0.0718	0.162
Mof_C 	C 	0.3712	0.8164	0.0568	-0.477
Mof_C 	C 	0.2801	0.8001	0.9698	-0.489
Mof_C 	C 	0.3194	0.8567	0.9701	0.174
Mof_C 	C 	0.314	0.8761	0.9521	-0.121
Mof_C 	C 	0.3644	0.93115	0.96075	0.154
Mof_C 	C 	0.3844	0.9756	0.951	-0.464
Mof_H 	H 	0.8593	0.838	0.3929	0.118
Mof_H 	H 	0.8258	0.8287	0.3657	0.131
Mof_H 	H 	0.795	0.7887	0.3871	0.131
Mof_H 	H 	0.859	0.959	0.4622	0.133
Mof_H 	H 	0.7952	0.8982	0.4514	0.143
Mof_H 	H 	0.8235	0.9358	0.4285	0.144
Mof_H 	H 	0.9549	0.4686	0.3993	0.128
Mof_H 	H 	0.9955	0.5083	0.3792	0.136
Mof_H 	H 	0.9625	0.5075	0.3904	0.14
Mof_H 	H 	0.1602	0.679	0.5018	0.123
Mof_H 	H 	0.1468	0.6972	0.4844	0.142
Mof_H 	H 	0.1817	0.701	0.4727	0.134
Mof_H 	H 	0.1716	0.1098	0.4882	0.124
Mof_H 	H 	0.1973	0.1233	0.4604	0.139
Mof_H 	H 	0.1869	0.0892	0.4803	0.137
Mof_H 	H 	0.9657	0.9029	0.384	0.118
Mof_H 	H 	0.9977	0.8991	0.3858	0.136
Mof_H 	H 	0.0117	0.9358	0.3665	0.13
Mof_H 	H 	0.4378	0.7944	0.1124	0.136
Mof_H 	H 	0.4846	0.851	0.1038	0.157
Mof_H 	H 	0.4224	0.8022	0.0846	0.146
Mof_H 	H 	0.4337	0.91	0.1851	0.123
Mof_H 	H 	0.4148	0.9038	0.1508	0.133
Mof_H 	H 	0.4783	0.9542	0.1681	0.134
Mof_H 	H 	0.3723	0.863	0.2283	0.118
Mof_H 	H 	0.3669	0.8723	0.2608	0.137
Mof_H 	H 	0.3159	0.8298	0.2309	0.134
Mof_H 	H 	0.2714	0.6731	0.2689	0.115
Mof_H 	H 	0.2239	0.657	0.2673	0.128
Mof_H 	H 	0.2742	0.699	0.2976	0.126
Mof_H 	H 	0.5314	0.7489	0.1505	0.125
Mof_H 	H 	0.537	0.749	0.1856	0.145
Mof_H 	H 	0.5233	0.71	0.1603	0.138
Mof_H 	H 	0.7673	0.902	0.1933	0.12
Mof_H 	H 	0.7337	0.8467	0.199	0.133
Mof_H 	H 	0.7501	0.8878	0.2245	0.133
Mof_H 	H 	0.6371	0.4489	0.5774	0.137
Mof_H 	H 	0.648	0.4861	0.6021	0.145
Mof_H 	H 	0.6959	0.5137	0.5884	0.156
Mof_H 	H 	0.7413	0.4773	0.6956	0.119
Mof_H 	H 	0.7893	0.5397	0.6958	0.133
Mof_H 	H 	0.7403	0.51	0.7091	0.131
Mof_H 	H 	0.8817	0.674	0.6867	0.117
Mof_H 	H 	0.8447	0.6152	0.6871	0.132
Mof_H 	H 	0.8479	0.6286	0.6551	0.125
Mof_H 	H 	0.6551	0.5405	0.6696	0.119
Mof_H 	H 	0.6433	0.5066	0.6407	0.134
Mof_H 	H 	0.6443	0.4978	0.6739	0.133
Mof_H 	H 	0.443	0.1435	0.5517	0.133
Mof_H 	H 	0.392	0.1191	0.5335	0.145
Mof_H 	H 	0.425	0.1257	0.5151	0.147
Mof_H 	H 	0.5491	0.3437	0.5248	0.124
Mof_H 	H 	0.5207	0.3056	0.4909	0.136
Mof_H 	H 	0.4854	0.2953	0.5093	0.138
Mof_H 	H 	0.2625	0.8445	0.7958	0.127
Mof_H 	H 	0.2511	0.8281	0.7596	0.14
Mof_H 	H 	0.2842	0.8848	0.7764	0.135
Mof_H 	H 	0.0576	0.748	0.749	0.135
Mof_H 	H 	0.0989	0.7973	0.7338	0.139
Mof_H 	H 	0.0654	0.7402	0.7172	0.151
Mof_H 	H 	0.2178	0.9266	0.72	0.119
Mof_H 	H 	0.1709	0.8764	0.7335	0.134
Mof_H 	H 	0.2336	0.9237	0.7511	0.136
Mof_H 	H 	0.2025	0.7829	0.672	0.125
Mof_H 	H 	0.216	0.792	0.7082	0.14
Mof_H 	H 	0.1545	0.745	0.6883	0.131
Mof_H 	H 	0.1508	0.7648	0.9478	0.121
Mof_H 	H 	0.1862	0.7666	0.9606	0.134
Mof_H 	H 	0.2089	0.8182	0.9729	0.132
Mof_H 	H 	0.2972	0.8697	0.8607	0.107
Mof_H 	H 	0.342	0.9155	0.8927	0.122
Mof_H 	H 	0.3191	0.8633	0.884	0.12
Mof_H 	H 	0.7568	0.8836	0.3458	0.119
Mof_H 	H 	0.8111	0.9105	0.3576	0.129
Mof_H 	H 	0.7883	0.9116	0.3817	0.127
Mof_H 	H 	0.6623	0.6926	0.3809	0.13
Mof_H 	H 	0.7002	0.7365	0.4139	0.148
Mof_H 	H 	0.726	0.7384	0.3908	0.134
Mof_H 	H 	0.598	0.604	0.3386	0.11
Mof_H 	H 	0.6219	0.5957	0.3234	0.127
Mof_H 	H 	0.5602	0.5439	0.3251	0.128
Mof_H 	H 	0.5204	0.5586	0.2004	0.124
Mof_H 	H 	0.4893	0.5025	0.201	0.137
Mof_H 	H 	0.5513	0.5537	0.2	0.134
Mof_H 	H 	0.5331	0.64	0.1863	0.118
Mof_H 	H 	0.5727	0.6835	0.1674	0.132
Mof_H 	H 	0.524	0.6634	0.1718	0.135
Mof_H 	H 	0.693	0.8521	0.2879	0.123
Mof_H 	H 	0.6715	0.8575	0.263	0.14
Mof_H 	H 	0.7197	0.876	0.2603	0.136
Mof_H 	H 	0.2837	0.7687	0.355	0.126
Mof_H 	H 	0.3331	0.8059	0.34	0.142
Mof_H 	H 	0.2852	0.7417	0.3319	0.137
Mof_H 	H 	0.1836	0.7359	0.2305	0.116
Mof_H 	H 	0.1927	0.7099	0.2198	0.131
Mof_H 	H 	0.2416	0.7742	0.2266	0.13
Mof_H 	H 	0.0775	0.6625	0.2136	0.123
Mof_H 	H 	0.0299	0.6423	0.1942	0.139
Mof_H 	H 	0.0211	0.6002	0.1937	0.13
Mof_H 	H 	0.9402	0.5696	0.3048	0.119
Mof_H 	H 	0.8977	0.5163	0.2764	0.13
Mof_H 	H 	0.9052	0.5575	0.2765	0.127
Mof_H 	H 	0.9954	0.603	0.3722	0.123
Mof_H 	H 	0.0065	0.6095	0.4082	0.131
Mof_H 	H 	0.9772	0.5586	0.384	0.132
Mof_H 	H 	0.2118	0.7165	0.3995	0.121
Mof_H 	H 	0.1738	0.6615	0.4085	0.133
Mof_H 	H 	0.202	0.7118	0.4328	0.136
Mof_H 	H 	0.5461	0.2682	0.1053	0.123
Mof_H 	H 	0.5211	0.2601	0.1322	0.136
Mof_H 	H 	0.5281	0.287	0.1071	0.134
Mof_H 	H 	0.7503	0.4915	0.2004	0.122
Mof_H 	H 	0.7135	0.4895	0.1946	0.137
Mof_H 	H 	0.7043	0.4592	0.2177	0.136
Mof_H 	H 	0.8513	0.5527	0.2082	0.123
Mof_H 	H 	0.8805	0.5638	0.2401	0.134
Mof_H 	H 	0.9165	0.6052	0.2197	0.14
Mof_H 	H 	0.8838	0.4522	0.1632	0.129
Mof_H 	H 	0.9456	0.514	0.1796	0.141
Mof_H 	H 	0.9081	0.4721	0.1996	0.141
Mof_H 	H 	0.7826	0.3384	0.1084	0.125
Mof_H 	H 	0.7433	0.2779	0.1058	0.135
Mof_H 	H 	0.7519	0.2969	0.0754	0.143
Mof_H 	H 	0.5617	0.2166	0.0825	0.109
Mof_H 	H 	0.5488	0.1825	0.0529	0.124
Mof_H 	H 	0.5426	0.1678	0.0848	0.125
Mof_H 	H 	0.4105	0.3199	0.3144	0.118
Mof_H 	H 	0.354	0.2568	0.3124	0.127
Mof_H 	H 	0.4074	0.2952	0.3394	0.13
Mof_H 	H 	0.4385	0.2225	0.2478	0.123
Mof_H 	H 	0.4312	0.2065	0.2793	0.132
Mof_H 	H 	0.3787	0.1685	0.2516	0.141
Mof_H 	H 	0.4985	0.2664	0.2065	0.115
Mof_H 	H 	0.5075	0.2601	0.1748	0.129
Mof_H 	H 	0.5551	0.2985	0.2062	0.127
Mof_H 	H 	0.6208	0.4712	0.175	0.132
Mof_H 	H 	0.6642	0.4819	0.1749	0.14
Mof_H 	H 	0.6141	0.4435	0.145	0.146
Mof_H 	H 	0.6202	0.5365	0.2139	0.128
Mof_H 	H 	0.5997	0.5523	0.2084	0.14
Mof_H 	H 	0.6457	0.5844	0.2391	0.141
Mof_H 	H 	0.4589	0.4103	0.292	0.124
Mof_H 	H 	0.4988	0.4707	0.3081	0.134
Mof_H 	H 	0.4492	0.4335	0.2783	0.145
Mof_H 	H 	0.2897	0.0855	0.4906	0.126
Mof_H 	H 	0.343	0.1441	0.5153	0.132
Mof_H 	H 	0.3313	0.0996	0.5127	0.136
Mof_H 	H 	0.4656	0.211	0.422	0.129
Mof_H 	H 	0.4903	0.214	0.4517	0.14
Mof_H 	H 	0.4997	0.2567	0.4534	0.138
Mof_H 	H 	0.4376	0.2084	0.3592	0.141
Mof_H 	H 	0.4627	0.2588	0.3517	0.151
Mof_H 	H 	0.444	0.2166	0.3256	0.154
Mof_H 	H 	0.2306	0.1035	0.3019	0.123
Mof_H 	H 	0.2574	0.1224	0.274	0.137
Mof_H 	H 	0.2774	0.1652	0.3008	0.133
Mof_H 	H 	0.143	0.0408	0.3408	0.13
Mof_H 	H 	0.1384	0.0633	0.3655	0.137
Mof_H 	H 	0.0868	0.9992	0.3492	0.142
Mof_H 	H 	0.1848	0.0111	0.4583	0.124
Mof_H 	H 	0.1236	0.971	0.454	0.138
Mof_H 	H 	0.1738	0.0347	0.4709	0.133
Mof_H 	H 	0.5336	0.1167	0.9937	0.115
Mof_H 	H 	0.5934	0.1811	0.0043	0.124
Mof_H 	H 	0.5474	0.1556	0.0194	0.124
Mof_H 	H 	0.6386	0.14	0.1088	0.121
Mof_H 	H 	0.6419	0.176	0.1237	0.134
Mof_H 	H 	0.6883	0.2025	0.1088	0.137
Mof_H 	H 	0.5808	0.0397	0.1237	0.125
Mof_H 	H 	0.5744	0.0027	0.1349	0.135
Mof_H 	H 	0.5456	0.0065	0.1471	0.134
Mof_H 	H 	0.3579	0.8111	0.0358	0.121
Mof_H 	H 	0.3461	0.8023	0.0686	0.134
Mof_H 	H 	0.3737	0.797	0.0563	0.134
Mof_H 	H 	0.2969	0.8009	0.9856	0.128
Mof_H 	H 	0.27	0.7805	0.9495	0.144
Mof_H 	H 	0.2474	0.7815	0.9739	0.138
Mof_H 	H 	0.423	0.0111	0.9617	0.118
Mof_H 	H 	0.3633	0.9748	0.9559	0.134
Mof_H 	H 	0.3797	0.9694	0.9287	0.127
Mof_Ag	Ag	0.02443	0.45829	0.51686	0.416
Mof_Ag	Ag	0.98058	0.45887	0.45217	0.34
Mof_Ag	Ag	0.08113	0.59286	0.01595	0.345
Mof_Ag	Ag	0.73329	0.89926	0.13573	0.354
Mof_Ag	Ag	0.68804	0.89206	0.0687	0.328
Mof_Ag	Ag	0.60843	0.82995	0.11768	0.43
Mof_Ag	Ag	0.51468	0.09775	0.73873	0.353
Mof_Ag	Ag	0.50422	0.15389	0.78003	0.326
Mof_Ag	Ag	0.44757	0.0441	0.79337	0.422
Mof_Ag	Ag	0.85627	0.69338	0.88815	0.331
Mof_Ag	Ag	0.77139	0.58204	0.83311	0.35
Mof_Ag	Ag	0.72551	0.61061	0.85936	0.426
Mof_Ag	Ag	0.85206	0.15641	0.38591	0.34
Mof_Ag	Ag	0.79314	0.11458	0.44104	0.346
Mof_Ag	Ag	0.81838	0.06586	0.4173	0.427
Mof_Ag	Ag	0.33773	0.68445	0.9598	0.401
Mof_Ag	Ag	0.35334	0.63058	0.92746	0.374
Mof_Ag	Ag	0.229	0.55652	0.9063	0.307
Mof_Ag	Ag	0.03566	0.15242	0.8282	0.314
Mof_Ag	Ag	0.09948	0.26311	0.81265	0.384
Mof_Ag	Ag	0.14492	0.27966	0.88404	0.387
Mof_Ag	Ag	0.70866	0.97725	0.60629	0.352
Mof_Ag	Ag	0.75392	0.98661	0.67321	0.357
Mof_Ag	Ag	0.8397	0.05692	0.6264	0.373
Mof_Ag	Ag	0.335	0.75909	0.69383	0.359
Mof_Ag	Ag	0.46696	0.85468	0.71588	0.374
Mof_Ag	Ag	0.37859	0.73312	0.65997	0.38
Mof_Ag	Ag	0.97488	0.98006	0.9597	0.312
Mof_Ag	Ag	0.97702	0.0419	0.00884	0.381
Mof_Ag	Ag	0.89273	0.91284	0.00685	0.394
Mof_N 	N 	0.957	0.38672	0.48152	-0.203
Mof_N 	N 	0.9425	0.3882	0.4547	-0.203
Mof_N 	N 	0.0777	0.5261	0.9934	-0.211
Mof_N 	N 	0.10038	0.57203	0.99201	-0.207
Mof_N 	N 	0.1201	0.57604	0.54934	-0.203
Mof_N 	N 	0.0972	0.52968	0.54948	-0.202
Mof_N 	N 	0.77538	0.927	0.10338	-0.205
Mof_N 	N 	0.75905	0.92764	0.07729	-0.208
Mof_N 	N 	0.61156	0.84689	0.05685	-0.197
Mof_N 	N 	0.58024	0.82452	0.07636	-0.195
Mof_N 	N 	0.97649	0.13148	0.30717	-0.205
Mof_N 	N 	0.02025	0.18491	0.32496	-0.199
Mof_N 	N 	0.54595	0.16211	0.72866	-0.211
Mof_N 	N 	0.54197	0.18437	0.74594	-0.21
Mof_N 	N 	0.61875	0.30701	0.65916	-0.198
Mof_N 	N 	0.57253	0.2573	0.63803	-0.203
Mof_N 	N 	0.45217	0.009	0.76857	-0.209
Mof_N 	N 	0.4812	0.0322	0.7476	-0.202
Mof_N 	N 	0.88268	0.67475	0.87623	-0.213
Mof_N 	N 	0.84775	0.62922	0.85177	-0.209
Mof_N 	N 	0.03417	0.72114	0.83871	-0.204
Mof_N 	N 	0.04176	0.71807	0.86743	-0.203
Mof_N 	N 	0.78445	0.68633	0.89098	-0.19
Mof_N 	N 	0.8345	0.71685	0.89995	-0.197
Mof_N 	N 	0.84676	0.19392	0.40548	-0.207
Mof_N 	N 	0.81861	0.1736	0.42681	-0.205
Mof_N 	N 	0.78076	0.06992	0.46448	-0.2
Mof_N 	N 	0.79359	0.05184	0.45683	-0.198
Mof_N 	N 	0.85307	0.09043	0.3813	-0.199
Mof_N 	N 	0.86551	0.12611	0.36942	-0.205
Mof_N 	N 	0.41236	0.72618	0.97514	-0.197
Mof_N 	N 	0.41889	0.70519	0.96028	-0.2
Mof_N 	N 	0.28778	0.54928	0.90226	-0.197
Mof_N 	N 	0.238	0.5204	0.8926	-0.203
Mof_N 	N 	0.21695	0.58746	0.92701	-0.203
Mof_N 	N 	0.25948	0.636	0.95068	-0.203
Mof_N 	N 	0.00594	0.14266	0.7852	-0.202
Mof_N 	N 	0.03102	0.189	0.78082	-0.203
Mof_N 	N 	0.16055	0.33849	0.84444	-0.208
Mof_N 	N 	0.17839	0.34582	0.87441	-0.206
Mof_N 	N 	0.10274	0.21044	0.89458	-0.2
Mof_N 	N 	0.06057	0.16109	0.87206	-0.204
Mof_N 	N 	0.6596	0.9388	0.6356	-0.202
Mof_N 	N 	0.67997	0.9448	0.66297	-0.205
Mof_N 	N 	0.83023	0.03293	0.68676	-0.21
Mof_N 	N 	0.86498	0.0608	0.66858	-0.205
Mof_N 	N 	0.8111	0.05199	0.58549	-0.207
Mof_N 	N 	0.75853	0.01703	0.57756	-0.205
Mof_N 	N 	0.38837	0.83594	0.71891	-0.202
Mof_N 	N 	0.4419	0.8744	0.7307	-0.204
Mof_N 	N 	0.49513	0.84255	0.69508	-0.208
Mof_N 	N 	0.46318	0.79718	0.67216	-0.205
Mof_N 	N 	0.29825	0.67892	0.64317	-0.203
Mof_N 	N 	0.2817	0.6882	0.6595	-0.209
Mof_N 	N 	0.02507	0.05651	0.95938	-0.207
Mof_N 	N 	0.02266	0.08036	0.97742	-0.197
Mof_N 	N 	0.92252	0.99871	0.03523	-0.2
Mof_N 	N 	0.89227	0.9497	0.03657	-0.202
Mof_N 	N 	0.88282	0.87115	0.97177	-0.197
Mof_N 	N 	0.91577	0.89844	0.95321	-0.201
Mof_C 	C 	0.9424	0.329	0.5026	-0.471
Mof_C 	C 	0.9315	0.3398	0.4767	0.171
Mof_C 	C 	0.9014	0.3095	0.4469	-0.129
Mof_C 	C 	0.9065	0.3397	0.4328	0.181
Mof_C 	C 	0.8837	0.3284	0.4019	-0.517
Mof_C 	C 	0.085	0.481	0.9766	-0.491
Mof_C 	C 	0.1017	0.5258	0.9787	0.174
Mof_C 	C 	0.1411	0.5718	0.9681	-0.124
Mof_C 	C 	0.1387	0.5995	0.9774	0.159
Mof_C 	C 	0.17	0.6517	0.9717	-0.475
Mof_C 	C 	0.2015	0.6731	0.577	-0.491
Mof_C 	C 	0.1675	0.618	0.5729	0.168
Mof_C 	C 	0.1751	0.5993	0.5878	-0.115
Mof_C 	C 	0.1304	0.5438	0.572	0.157
Mof_C 	C 	0.116	0.5009	0.5779	-0.463
Mof_C 	C 	0.84198	0.947	0.12658	-0.522
Mof_C 	C 	0.81537	0.94143	0.1008	0.19
Mof_C 	C 	0.82459	0.9505	0.07209	-0.124
Mof_C 	C 	0.7875	0.94042	0.05832	0.147
Mof_C 	C 	0.7766	0.942	0.0264	-0.47
Mof_C 	C 	0.6063	0.8477	0.0024	-0.477
Mof_C 	C 	0.58228	0.8299	0.02858	0.157
Mof_C 	C 	0.5306	0.79519	0.02979	-0.109
Mof_C 	C 	0.5311	0.7933	0.0606	0.156
Mof_C 	C 	0.4881	0.7631	0.0766	-0.457
Mof_C 	C 	0.8769	0.0436	0.2979	-0.497
Mof_C 	C 	0.9304	0.1024	0.3132	0.173
Mof_C 	C 	0.94441	0.1374	0.33641	-0.121
Mof_C 	C 	0.9994	0.18722	0.34322	0.164
Mof_C 	C 	0.0366	0.239	0.3664	-0.477
Mof_C 	C 	0.5693	0.1641	0.6824	-0.515
Mof_C 	C 	0.5614	0.1814	0.7048	0.192
Mof_C 	C 	0.57	0.2183	0.7057	-0.134
Mof_C 	C 	0.5568	0.2189	0.7317	0.152
Mof_C 	C 	0.5568	0.2501	0.7451	-0.467
Mof_C 	C 	0.6716	0.3478	0.7128	-0.473
Mof_C 	C 	0.62519	0.3006	0.68539	0.162
Mof_C 	C 	0.58194	0.2451	0.68204	-0.112
Mof_C 	C 	0.5505	0.2199	0.6516	0.171
Mof_C 	C 	0.4978	0.1606	0.636	-0.478
Mof_C 	C 	0.3947	0.9282	0.7865	-0.513
Mof_C 	C 	0.4308	0.9647	0.7677	0.178
Mof_C 	C 	0.4458	0.9574	0.7454	-0.112
Mof_C 	C 	0.4785	0.0026	0.7339	0.161
Mof_C 	C 	0.5044	0.0156	0.709	-0.482
Mof_C 	C 	0.9784	0.7546	0.908	-0.484
Mof_C 	C 	0.93076	0.70176	0.88252	0.16
Mof_C 	C 	0.9282	0.6746	0.8626	-0.128
Mof_C 	C 	0.8742	0.6281	0.8435	0.18
Mof_C 	C 	0.8467	0.5838	0.8179	-0.504
Mof_C 	C 	0.9761	0.707	0.8049	-0.478
Mof_C 	C 	0.9921	0.7051	0.8334	0.161
Mof_C 	C 	0.9726	0.6923	0.8593	-0.113
Mof_C 	C 	0.0046	0.70045	0.88025	0.167
Mof_C 	C 	0.0021	0.6928	0.9109	-0.491
Mof_C 	C 	0.7329	0.6878	0.8997	-0.468
Mof_C 	C 	0.7848	0.7147	0.9041	0.156
Mof_C 	C 	0.8388	0.7667	0.9213	-0.102
Mof_C 	C 	0.8675	0.7649	0.9186	0.145
Mof_C 	C 	0.9274	0.8098	0.9334	-0.447
Mof_C 	C 	0.9156	0.2781	0.3879	-0.46
Mof_C 	C 	0.8786	0.2447	0.4079	0.143
Mof_C 	C 	0.8692	0.2561	0.4317	-0.11
Mof_C 	C 	0.8313	0.2104	0.4429	0.169
Mof_C 	C 	0.8064	0.1987	0.4681	-0.487
Mof_C 	C 	0.7671	0.0894	0.5089	-0.45
Mof_C 	C 	0.7795	0.0705	0.4932	0.153
Mof_C 	C 	0.7908	0.0535	0.5061	-0.108
Mof_C 	C 	0.80082	0.04279	0.48221	0.158
Mof_C 	C 	0.8165	0.0244	0.4821	-0.484
Mof_C 	C 	0.8699	0.0514	0.3791	-0.476
Mof_C 	C 	0.8777	0.088	0.3707	0.161
Mof_C 	C 	0.90746	0.12332	0.35138	-0.115
Mof_C 	C 	0.8978	0.1447	0.3517	0.165
Mof_C 	C 	0.9196	0.1858	0.3362	-0.483
Mof_C 	C 	0.4574	0.7939	0.0239	-0.486
Mof_C 	C 	0.4529	0.7632	0.0025	0.16
Mof_C 	C 	0.4844	0.764	0.0052	-0.112
Mof_C 	C 	0.4621	0.7279	0.978	0.157
Mof_C 	C 	0.4771	0.7099	0.9682	-0.464
Mof_C 	C 	0.3316	0.538	0.906	-0.468
Mof_C 	C 	0.28111	0.51525	0.89716	0.166
Mof_C 	C 	0.2274	0.4628	0.8838	-0.108
Mof_C 	C 	0.2005	0.4675	0.8816	0.153
Mof_C 	C 	0.1415	0.424	0.8693	-0.464
Mof_C 	C 	0.1166	0.5049	0.9075	-0.475
Mof_C 	C 	0.1698	0.5594	0.9298	0.158
Mof_C 	C 	0.1815	0.5898	0.9547	-0.121
Mof_C 	C 	0.2375	0.6366	0.9665	0.178
Mof_C 	C 	0.2743	0.6853	0.9934	-0.477
Mof_C 	C 	0.9248	0.044	0.7602	-0.483
Mof_C 	C 	0.9603	0.0987	0.7608	0.16
Mof_C 	C 	0.9549	0.1166	0.7413	-0.114
Mof_C 	C 	0.0006	0.173	0.755	0.172
Mof_C 	C 	0.0152	0.2138	0.7448	-0.478
Mof_C 	C 	0.1631	0.3822	0.8153	-0.488
Mof_C 	C 	0.1766	0.3794	0.845	0.18
Mof_C 	C 	0.2044	0.41384	0.87344	-0.129
Mof_C 	C 	0.2045	0.3905	0.892	0.178
Mof_C 	C 	0.2268	0.4085	0.9257	-0.499
Mof_C 	C 	0.1528	0.2489	0.9487	-0.479
Mof_C 	C 	0.10733	0.2015	0.92063	0.17
Mof_C 	C 	0.06754	0.14723	0.91677	-0.112
Mof_C 	C 	0.0385	0.12261	0.88551	0.136
Mof_C 	C 	0.9885	0.0637	0.8662	-0.445
Mof_C 	C 	0.5759	0.8937	0.606	-0.456
Mof_C 	C 	0.6098	0.9076	0.6338	0.143
Mof_C 	C 	0.596	0.8918	0.6612	-0.101
Mof_C 	C 	0.6427	0.9168	0.6787	0.16
Mof_C 	C 	0.654	0.9162	0.71	-0.476
Mof_C 	C 	0.8303	0.0251	0.7398	-0.461
Mof_C 	C 	0.8574	0.0474	0.7142	0.154
Mof_C 	C 	0.9106	0.0852	0.7146	-0.119
Mof_C 	C 	0.9131	0.0921	0.6854	0.177
Mof_C 	C 	0.9581	0.1256	0.6707	-0.495
Mof_C 	C 	0.8886	0.1124	0.5636	-0.496
Mof_C 	C 	0.8308	0.07	0.561	0.17
Mof_C 	C 	0.7906	0.0466	0.537	-0.122
Mof_C 	C 	0.74546	0.0135	0.54856	0.159
Mof_C 	C 	0.6884	0.9769	0.5339	-0.477
Mof_C 	C 	0.327	0.8281	0.7137	-0.471
Mof_C 	C 	0.3824	0.86	0.7238	0.166
Mof_C 	C 	0.4317	0.914	0.7377	-0.124
Mof_C 	C 	0.4692	0.9229	0.7415	0.17
Mof_C 	C 	0.5296	0.974	0.755	-0.491
Mof_C 	C 	0.5925	0.9359	0.7154	-0.532
Mof_C 	C 	0.5478	0.8818	0.6942	0.193
Mof_C 	C 	0.5475	0.8604	0.6703	-0.134
Mof_C 	C 	0.493	0.8066	0.6572	0.173
Mof_C 	C 	0.4684	0.7644	0.6306	-0.485
Mof_C 	C 	0.2693	0.6265	0.5934	-0.494
Mof_C 	C 	0.2618	0.6441	0.6165	0.178
Mof_C 	C 	0.2212	0.6313	0.6137	-0.122
Mof_C 	C 	0.2352	0.6596	0.6418	0.165
Mof_C 	C 	0.206	0.6605	0.6527	-0.484
Mof_C 	C 	0.0507	0.0619	0.9122	-0.456
Mof_C 	C 	0.0432	0.0788	0.9358	0.15
Mof_C 	C 	0.05391	0.11812	0.93883	-0.116
Mof_C 	C 	0.04046	0.1171	0.96496	0.17
Mof_C 	C 	0.0422	0.1493	0.9801	-0.477
Mof_C 	C 	0.9266	0.0561	0.0501	-0.486
Mof_C 	C 	0.9031	0.0062	0.0479	0.159
Mof_C 	C 	0.85916	0.96024	0.0584	-0.108
Mof_C 	C 	0.855	0.9268	0.0504	0.162
Mof_C 	C 	0.8144	0.8712	0.0548	-0.477
Mof_C 	C 	0.8103	0.7801	0.98	-0.489
Mof_C 	C 	0.8493	0.8194	0.9627	0.174
Mof_C 	C 	0.8619	0.814	0.9379	-0.121
Mof_C 	C 	0.90365	0.8644	0.93325	0.154
Mof_C 	C 	0.9334	0.8844	0.9088	-0.464
Mof_H 	H 	0.9664	0.3593	0.5213	0.118
Mof_H 	H 	0.9601	0.3258	0.4971	0.131
Mof_H 	H 	0.9079	0.295	0.5063	0.131
Mof_H 	H 	0.8968	0.359	0.4	0.133
Mof_H 	H 	0.8438	0.2952	0.397	0.143
Mof_H 	H 	0.895	0.3235	0.3877	0.144
Mof_H 	H 	0.0556	0.4549	0.9863	0.128
Mof_H 	H 	0.1163	0.4955	0.9872	0.136
Mof_H 	H 	0.0721	0.4625	0.955	0.14
Mof_H 	H 	0.1584	0.6602	0.9812	0.123
Mof_H 	H 	0.1624	0.6468	0.9496	0.142
Mof_H 	H 	0.209	0.6817	0.9807	0.134
Mof_H 	H 	0.1834	0.6716	0.5618	0.124
Mof_H 	H 	0.2369	0.6973	0.574	0.139
Mof_H 	H 	0.2066	0.6869	0.5977	0.137
Mof_H 	H 	0.0817	0.4657	0.5628	0.117
Mof_H 	H 	0.1119	0.4977	0.5986	0.135
Mof_H 	H 	0.1452	0.5117	0.5759	0.13
Mof_H 	H 	0.8254	0.9378	0.1434	0.136
Mof_H 	H 	0.8808	0.9846	0.1336	0.157
Mof_H 	H 	0.8378	0.9224	0.1202	0.146
Mof_H 	H 	0.7486	0.9337	0.0237	0.123
Mof_H 	H 	0.764	0.9148	0.011	0.133
Mof_H 	H 	0.8102	0.9783	0.0241	0.135
Mof_H 	H 	0.644	0.8723	0.0093	0.118
Mof_H 	H 	0.6061	0.8669	0.9946	0.137
Mof_H 	H 	0.585	0.8159	0.9861	0.134
Mof_H 	H 	0.5025	0.7714	0.0983	0.115
Mof_H 	H 	0.4566	0.7239	0.0669	0.128
Mof_H 	H 	0.4766	0.7742	0.0752	0.126
Mof_H 	H 	0.8809	0.0314	0.2825	0.125
Mof_H 	H 	0.8514	0.037	0.288	0.145
Mof_H 	H 	0.863	0.0233	0.3133	0.138
Mof_H 	H 	0.074	0.2673	0.3653	0.12
Mof_H 	H 	0.0347	0.2337	0.387	0.132
Mof_H 	H 	0.0256	0.2501	0.3623	0.133
Mof_H 	H 	0.5597	0.1371	0.6882	0.137
Mof_H 	H 	0.5459	0.148	0.6619	0.145
Mof_H 	H 	0.6075	0.1959	0.6822	0.156
Mof_H 	H 	0.5457	0.2413	0.764	0.119
Mof_H 	H 	0.5935	0.2893	0.7496	0.133
Mof_H 	H 	0.5312	0.2403	0.7303	0.131
Mof_H 	H 	0.695	0.3817	0.7077	0.117
Mof_H 	H 	0.6576	0.3447	0.7295	0.132
Mof_H 	H 	0.6928	0.3479	0.7193	0.125
Mof_H 	H 	0.4855	0.1551	0.6146	0.119
Mof_H 	H 	0.5026	0.1433	0.6367	0.134
Mof_H 	H 	0.4704	0.1443	0.6465	0.133
Mof_H 	H 	0.3913	0.943	0.7995	0.133
Mof_H 	H 	0.3585	0.892	0.7729	0.145
Mof_H 	H 	0.4099	0.925	0.7993	0.147
Mof_H 	H 	0.5243	0.0491	0.7054	0.124
Mof_H 	H 	0.5298	0.0207	0.7151	0.136
Mof_H 	H 	0.4761	0.9854	0.6901	0.138
Mof_H 	H 	0.9667	0.7625	0.918	0.126
Mof_H 	H 	0.9915	0.7511	0.923	0.14
Mof_H 	H 	0.0078	0.7842	0.8994	0.134
Mof_H 	H 	0.8086	0.5576	0.8096	0.135
Mof_H 	H 	0.8651	0.5989	0.8016	0.139
Mof_H 	H 	0.8482	0.5654	0.8252	0.151
Mof_H 	H 	0.9978	0.7178	0.7912	0.119
Mof_H 	H 	0.9374	0.6709	0.7945	0.134
Mof_H 	H 	0.9825	0.7336	0.8099	0.136
Mof_H 	H 	0.0305	0.7025	0.9196	0.125
Mof_H 	H 	0.0078	0.716	0.924	0.14
Mof_H 	H 	0.9662	0.6545	0.9095	0.131
Mof_H 	H 	0.703	0.6508	0.886	0.121
Mof_H 	H 	0.7256	0.6862	0.9196	0.134
Mof_H 	H 	0.736	0.7089	0.8907	0.132
Mof_H 	H 	0.9365	0.7972	0.9275	0.107
Mof_H 	H 	0.9493	0.842	0.9265	0.122
Mof_H 	H 	0.9351	0.8191	0.9558	0.12
Mof_H 	H 	0.911	0.2568	0.3732	0.118
Mof_H 	H 	0.9535	0.3111	0.4006	0.129
Mof_H 	H 	0.9066	0.2883	0.3767	0.127
Mof_H 	H 	0.7814	0.1623	0.4697	0.13
Mof_H 	H 	0.7863	0.2002	0.4637	0.148
Mof_H 	H 	0.8352	0.226	0.4876	0.134
Mof_H 	H 	0.7594	0.098	0.494	0.11
Mof_H 	H 	0.7985	0.1219	0.5262	0.127
Mof_H 	H 	0.7351	0.0602	0.5163	0.128
Mof_H 	H 	0.82	0.0204	0.4618	0.124
Mof_H 	H 	0.7883	0.9893	0.4868	0.138
Mof_H 	H 	0.8513	0.0513	0.4976	0.134
Mof_H 	H 	0.8468	0.0331	0.3931	0.118
Mof_H 	H 	0.9053	0.0727	0.3892	0.132
Mof_H 	H 	0.8522	0.024	0.3606	0.135
Mof_H 	H 	0.9051	0.193	0.3409	0.123
Mof_H 	H 	0.9085	0.1715	0.314	0.14
Mof_H 	H 	0.9594	0.2197	0.3437	0.136
Mof_H 	H 	0.4287	0.7837	0.015	0.126
Mof_H 	H 	0.4931	0.8331	0.0272	0.142
Mof_H 	H 	0.4533	0.7852	0.0435	0.137
Mof_H 	H 	0.4531	0.6836	0.9477	0.116
Mof_H 	H 	0.4729	0.6927	0.9828	0.131
Mof_H 	H 	0.515	0.7416	0.9674	0.13
Mof_H 	H 	0.3639	0.5775	0.915	0.123
Mof_H 	H 	0.3357	0.5299	0.8876	0.139
Mof_H 	H 	0.3274	0.5211	0.9209	0.13
Mof_H 	H 	0.1354	0.4402	0.8706	0.119
Mof_H 	H 	0.1213	0.3977	0.8814	0.13
Mof_H 	H 	0.1287	0.4052	0.8477	0.127
Mof_H 	H 	0.1232	0.4954	0.8924	0.122
Mof_H 	H 	0.0983	0.5065	0.897	0.131
Mof_H 	H 	0.0932	0.4772	0.9186	0.132
Mof_H 	H 	0.3123	0.7118	0.9953	0.121
Mof_H 	H 	0.2653	0.6738	0.0123	0.133
Mof_H 	H 	0.2692	0.702	0.9902	0.135
Mof_H 	H 	0.9408	0.0461	0.7779	0.123
Mof_H 	H 	0.8889	0.0211	0.761	0.135
Mof_H 	H 	0.921	0.0281	0.7411	0.133
Mof_H 	H 	0.0499	0.2503	0.7588	0.122
Mof_H 	H 	0.0189	0.2135	0.724	0.137
Mof_H 	H 	0.9866	0.2043	0.7451	0.135
Mof_H 	H 	0.1431	0.3513	0.7986	0.123
Mof_H 	H 	0.1404	0.3805	0.8167	0.134
Mof_H 	H 	0.1968	0.4165	0.8113	0.139
Mof_H 	H 	0.2206	0.3838	0.9316	0.129
Mof_H 	H 	0.266	0.4456	0.9316	0.141
Mof_H 	H 	0.2085	0.4081	0.936	0.141
Mof_H 	H 	0.1742	0.2826	0.9442	0.125
Mof_H 	H 	0.1375	0.2433	0.9654	0.135
Mof_H 	H 	0.1765	0.2519	0.955	0.143
Mof_H 	H 	0.9792	0.0617	0.8451	0.109
Mof_H 	H 	0.9959	0.0488	0.8663	0.124
Mof_H 	H 	0.9578	0.0426	0.8748	0.125
Mof_H 	H 	0.5961	0.9105	0.5906	0.118
Mof_H 	H 	0.5416	0.854	0.5972	0.127
Mof_H 	H 	0.568	0.9074	0.6122	0.13
Mof_H 	H 	0.6907	0.9385	0.716	0.123
Mof_H 	H 	0.6519	0.9312	0.7247	0.132
Mof_H 	H 	0.6271	0.8787	0.7102	0.141
Mof_H 	H 	0.792	0.9985	0.7321	0.116
Mof_H 	H 	0.8327	0.0075	0.7474	0.129
Mof_H 	H 	0.8489	0.0551	0.7566	0.127
Mof_H 	H 	0.9458	0.1208	0.6496	0.131
Mof_H 	H 	0.9893	0.1642	0.6823	0.14
Mof_H 	H 	0.9691	0.1141	0.6706	0.146
Mof_H 	H 	0.9063	0.1202	0.5837	0.128
Mof_H 	H 	0.8913	0.0997	0.5474	0.14
Mof_H 	H 	0.9066	0.1457	0.5613	0.141
Mof_H 	H 	0.6669	0.9589	0.5486	0.124
Mof_H 	H 	0.6907	0.9988	0.5281	0.134
Mof_H 	H 	0.6709	0.9492	0.5157	0.145
Mof_H 	H 	0.2991	0.7897	0.7042	0.126
Mof_H 	H 	0.3277	0.843	0.6989	0.132
Mof_H 	H 	0.3186	0.8313	0.7317	0.136
Mof_H 	H 	0.5436	0.9656	0.7546	0.129
Mof_H 	H 	0.5386	0.9903	0.7763	0.141
Mof_H 	H 	0.5463	0.9997	0.743	0.138
Mof_H 	H 	0.5784	0.9376	0.7292	0.141
Mof_H 	H 	0.611	0.9627	0.7039	0.151
Mof_H 	H 	0.6184	0.944	0.7274	0.154
Mof_H 	H 	0.4287	0.7306	0.6271	0.123
Mof_H 	H 	0.4834	0.7574	0.635	0.137
Mof_H 	H 	0.4766	0.7774	0.6122	0.133
Mof_H 	H 	0.3022	0.643	0.6022	0.131
Mof_H 	H 	0.2729	0.6384	0.5751	0.137
Mof_H 	H 	0.2376	0.5868	0.5876	0.143
Mof_H 	H 	0.2265	0.6848	0.6737	0.124
Mof_H 	H 	0.1696	0.6236	0.6526	0.139
Mof_H 	H 	0.2029	0.6738	0.6391	0.133
Mof_H 	H 	0.0399	0.0336	0.9169	0.116
Mof_H 	H 	0.0891	0.0934	0.9123	0.124
Mof_H 	H 	0.028	0.0474	0.8918	0.125
Mof_H 	H 	0.0298	0.1386	0.9986	0.122
Mof_H 	H 	0.0182	0.1419	0.9659	0.135
Mof_H 	H 	0.0795	0.1883	0.9858	0.137
Mof_H 	H 	0.9571	0.0808	0.0411	0.125
Mof_H 	H 	0.9395	0.0744	0.0717	0.135
Mof_H 	H 	0.8985	0.0456	0.0391	0.134
Mof_H 	H 	0.8221	0.8579	0.0468	0.121
Mof_H 	H 	0.7775	0.8461	0.0438	0.134
Mof_H 	H 	0.8174	0.8737	0.0767	0.134
Mof_H 	H 	0.8113	0.7969	0.996	0.128
Mof_H 	H 	0.8205	0.77	0.9895	0.144
Mof_H 	H 	0.7735	0.7474	0.9659	0.138
Mof_H 	H 	0.9613	0.923	0.9119	0.118
Mof_H 	H 	0.9074	0.8633	0.8885	0.134
Mof_H 	H 	0.951	0.8797	0.9103	0.127
Mof_Ag	Ag	0.44143	0.50757	0.98314	0.416
Mof_Ag	Ag	0.5067	0.52841	0.04783	0.34
Mof_Ag	Ag	0.07691	0.06518	0.48405	0.346
Mof_Ag	Ag	0.26353	0.59756	0.36427	0.354
Mof_Ag	Ag	0.32336	0.61934	0.4313	0.328
Mof_Ag	Ag	0.21227	0.49075	0.38232	0.43
Mof_Ag	Ag	0.85902	0.77595	0.76127	0.353
Mof_Ag	Ag	0.87386	0.72419	0.71997	0.326
Mof_Ag	Ag	0.75073	0.6542	0.70663	0.422
Mof_Ag	Ag	0.30523	0.96812	0.61185	0.331
Mof_Ag	Ag	0.24893	0.93828	0.66689	0.35
Mof_Ag	Ag	0.25125	0.86615	0.64064	0.426
Mof_Ag	Ag	0.2705	0.46615	0.11409	0.34
Mof_Ag	Ag	0.17354	0.3521	0.05896	0.346
Mof_Ag	Ag	0.14856	0.40108	0.0827	0.427
Mof_Ag	Ag	0.22465	0.37793	0.5402	0.401
Mof_Ag	Ag	0.20312	0.42588	0.57254	0.374
Mof_Ag	Ag	0.15022	0.3227	0.5937	0.307
Mof_Ag	Ag	0.82422	0.20746	0.6718	0.314
Mof_Ag	Ag	0.95046	0.28683	0.68735	0.384
Mof_Ag	Ag	0.89562	0.26088	0.61596	0.387
Mof_Ag	Ag	0.87096	0.10237	0.89371	0.351
Mof_Ag	Ag	0.8134	0.08071	0.82679	0.356
Mof_Ag	Ag	0.93052	0.2133	0.8736	0.373
Mof_Ag	Ag	0.56526	0.64117	0.80617	0.359
Mof_Ag	Ag	0.6388	0.75108	0.78412	0.374
Mof_Ag	Ag	0.57315	0.71862	0.84003	0.38
Mof_Ag	Ag	0.52036	0.01518	0.5403	0.312
Mof_Ag	Ag	0.53306	0.96818	0.49116	0.382
Mof_Ag	Ag	0.40599	0.88588	0.49315	0.394
Mof_N 	N 	0.4052	0.47548	0.01848	-0.203
Mof_N 	N 	0.4335	0.4878	0.0453	-0.203
Mof_N 	N 	0.0327	0.0843	0.5066	-0.211
Mof_N 	N 	0.08002	0.10837	0.50799	-0.207
Mof_N 	N 	0.5267	0.57076	0.95066	-0.203
Mof_N 	N 	0.4802	0.54772	0.95052	-0.202
Mof_N 	N 	0.32362	0.672	0.39662	-0.205
Mof_N 	N 	0.35035	0.68176	0.42271	-0.208
Mof_N 	N 	0.29004	0.55471	0.44315	-0.197
Mof_N 	N 	0.24816	0.50388	0.42364	-0.195
Mof_N 	N 	0.32431	0.66932	0.19283	-0.205
Mof_N 	N 	0.35995	0.69529	0.17504	-0.2
Mof_N 	N 	0.93345	0.81729	0.77134	-0.211
Mof_N 	N 	0.93843	0.79603	0.75406	-0.21
Mof_N 	N 	0.14785	0.95959	0.84084	-0.198
Mof_N 	N 	0.11927	0.9345	0.86197	-0.203
Mof_N 	N 	0.74043	0.6836	0.73143	-0.209
Mof_N 	N 	0.7846	0.7336	0.7524	-0.202
Mof_N 	N 	0.29852	0.00645	0.62377	-0.212
Mof_N 	N 	0.27745	0.99598	0.64823	-0.21
Mof_N 	N 	0.38243	0.19546	0.66129	-0.204
Mof_N 	N 	0.35064	0.17433	0.63257	-0.203
Mof_N 	N 	0.29535	0.89347	0.60902	-0.19
Mof_N 	N 	0.3169	0.93455	0.60005	-0.197
Mof_N 	N 	0.28844	0.44128	0.09452	-0.207
Mof_N 	N 	0.24679	0.3918	0.07319	-0.205
Mof_N 	N 	0.10544	0.31628	0.03552	-0.2
Mof_N 	N 	0.09501	0.33676	0.04317	-0.198
Mof_N 	N 	0.20913	0.47177	0.1187	-0.199
Mof_N 	N 	0.25669	0.49609	0.13058	-0.205
Mof_N 	N 	0.25104	0.43722	0.52486	-0.197
Mof_N 	N 	0.24491	0.45861	0.53972	-0.2
Mof_N 	N 	0.14702	0.38552	0.59774	-0.197
Mof_N 	N 	0.1278	0.3454	0.6074	-0.203
Mof_N 	N 	0.16045	0.28994	0.57299	-0.203
Mof_N 	N 	0.18532	0.3088	0.54932	-0.203
Mof_N 	N 	0.85746	0.22074	0.7148	-0.202
Mof_N 	N 	0.90818	0.2502	0.71918	-0.203
Mof_N 	N 	0.99405	0.31611	0.65556	-0.208
Mof_N 	N 	0.97141	0.30398	0.62559	-0.206
Mof_N 	N 	0.81586	0.20816	0.60542	-0.2
Mof_N 	N 	0.78903	0.18851	0.62794	-0.204
Mof_N 	N 	0.8032	0.024	0.8644	-0.202
Mof_N 	N 	0.78183	0.017	0.83703	-0.205
Mof_N 	N 	0.84617	0.14347	0.81324	-0.21
Mof_N 	N 	0.89222	0.1964	0.83142	-0.205
Mof_N 	N 	0.9665	0.22561	0.91451	-0.207
Mof_N 	N 	0.93947	0.18097	0.92244	-0.205
Mof_N 	N 	0.61703	0.66946	0.78109	-0.202
Mof_N 	N 	0.6437	0.7112	0.7693	-0.204
Mof_N 	N 	0.64747	0.80005	0.80492	-0.208
Mof_N 	N 	0.62502	0.79102	0.82784	-0.205
Mof_N 	N 	0.53575	0.65508	0.85683	-0.203
Mof_N 	N 	0.5287	0.6222	0.8405	-0.209
Mof_N 	N 	0.59713	0.06569	0.54062	-0.207
Mof_N 	N 	0.60294	0.04524	0.52258	-0.197
Mof_N 	N 	0.46348	0.88729	0.46477	-0.2
Mof_N 	N 	0.41313	0.8557	0.46343	-0.202
Mof_N 	N 	0.39938	0.91105	0.52823	-0.197
Mof_N 	N 	0.44523	0.96256	0.54679	-0.201
Mof_C 	C 	0.3264	0.4398	0.9974	-0.471
Mof_C 	C 	0.3631	0.4548	0.0233	0.171
Mof_C 	C 	0.3626	0.4545	0.0531	-0.129
Mof_C 	C 	0.4069	0.4737	0.0672	0.181
Mof_C 	C 	0.4265	0.4818	0.0981	-0.517
Mof_C 	C 	0.0044	0.1084	0.5234	-0.489
Mof_C 	C 	0.0471	0.123	0.5213	0.174
Mof_C 	C 	0.1037	0.173	0.5319	-0.123
Mof_C 	C 	0.1221	0.1613	0.5226	0.159
Mof_C 	C 	0.18	0.1983	0.5283	-0.475
Mof_C 	C 	0.5961	0.6245	0.923	-0.491
Mof_C 	C 	0.5451	0.5946	0.9271	0.168
Mof_C 	C 	0.5115	0.5873	0.9122	-0.115
Mof_C 	C 	0.4718	0.5584	0.928	0.157
Mof_C 	C 	0.423	0.5381	0.9221	-0.463
Mof_C 	C 	0.32042	0.7154	0.37342	-0.521
Mof_C 	C 	0.34063	0.71457	0.3992	0.189
Mof_C 	C 	0.37841	0.7525	0.42791	-0.124
Mof_C 	C 	0.3821	0.72918	0.44168	0.147
Mof_C 	C 	0.4156	0.7502	0.4736	-0.47
Mof_C 	C 	0.3453	0.6039	0.4976	-0.477
Mof_C 	C 	0.30132	0.5537	0.47142	0.157
Mof_C 	C 	0.2654	0.50081	0.47021	-0.109
Mof_C 	C 	0.2327	0.4705	0.4394	0.156
Mof_C 	C 	0.1865	0.4115	0.4234	-0.457
Mof_C 	C 	0.2457	0.579	0.2021	-0.497
Mof_C 	C 	0.2892	0.6172	0.1868	0.173
Mof_C 	C 	0.30099	0.608	0.16359	-0.121
Mof_C 	C 	0.344	0.65618	0.15678	0.165
Mof_C 	C 	0.3726	0.6702	0.1336	-0.477
Mof_C 	C 	0.9817	0.8869	0.8176	-0.515
Mof_C 	C 	0.9766	0.8566	0.7952	0.192
Mof_C 	C 	0.0126	0.8643	0.7943	-0.135
Mof_C 	C 	0.9872	0.8251	0.7683	0.153
Mof_C 	C 	0.005	0.8117	0.7549	-0.469
Mof_C 	C 	0.135	0.9588	0.7872	-0.473
Mof_C 	C 	0.11521	0.9398	0.81461	0.162
Mof_C 	C 	0.06306	0.8999	0.81796	-0.112
Mof_C 	C 	0.0683	0.8989	0.8484	0.171
Mof_C 	C 	0.0246	0.8618	0.864	-0.478
Mof_C 	C 	0.6417	0.6082	0.7135	-0.513
Mof_C 	C 	0.697	0.6631	0.7323	0.177
Mof_C 	C 	0.712	0.7004	0.7546	-0.112
Mof_C 	C 	0.7687	0.7446	0.7661	0.161
Mof_C 	C 	0.8066	0.7954	0.791	-0.482
Mof_C 	C 	0.3466	0.0704	0.592	-0.485
Mof_C 	C 	0.31924	0.04824	0.61748	0.16
Mof_C 	C 	0.312	0.0656	0.6374	-0.128
Mof_C 	C 	0.2846	0.0307	0.6565	0.18
Mof_C 	C 	0.2659	0.0288	0.6821	-0.503
Mof_C 	C 	0.4021	0.1712	0.6951	-0.478
Mof_C 	C 	0.3717	0.1587	0.6666	0.161
Mof_C 	C 	0.333	0.1133	0.6407	-0.113
Mof_C 	C 	0.3202	0.12435	0.61975	0.167
Mof_C 	C 	0.2819	0.0912	0.5891	-0.491
Mof_C 	C 	0.2881	0.8332	0.6003	-0.468
Mof_C 	C 	0.3106	0.8807	0.5959	0.156
Mof_C 	C 	0.3454	0.9175	0.5787	-0.102
Mof_C 	C 	0.3463	0.9489	0.5814	0.145
Mof_C 	C 	0.3764	0.994	0.5666	-0.448
Mof_C 	C 	0.3902	0.5277	0.1121	-0.46
Mof_C 	C 	0.3368	0.4707	0.0921	0.143
Mof_C 	C 	0.3244	0.4375	0.0683	-0.11
Mof_C 	C 	0.2675	0.3884	0.0571	0.169
Mof_C 	C 	0.2306	0.3383	0.0319	-0.487
Mof_C 	C 	0.0805	0.2582	0.9911	-0.449
Mof_C 	C 	0.0773	0.2863	0.0068	0.152
Mof_C 	C 	0.0474	0.2847	0.9939	-0.107
Mof_C 	C 	0.06058	0.31861	0.01779	0.157
Mof_C 	C 	0.0423	0.3344	0.0179	-0.483
Mof_C 	C 	0.1723	0.4908	0.1209	-0.476
Mof_C 	C 	0.2173	0.507	0.1293	0.161
Mof_C 	C 	0.27194	0.55608	0.14862	-0.115
Mof_C 	C 	0.293	0.5461	0.1483	0.165
Mof_C 	C 	0.3496	0.5834	0.1638	-0.483
Mof_C 	C 	0.27	0.4335	0.4761	-0.486
Mof_C 	C 	0.2607	0.4504	0.4975	0.16
Mof_C 	C 	0.2588	0.4792	0.4948	-0.111
Mof_C 	C 	0.2499	0.4841	0.522	0.157
Mof_C 	C 	0.2417	0.5089	0.5318	-0.464
Mof_C 	C 	0.132	0.4256	0.594	-0.468
Mof_C 	C 	0.11809	0.38395	0.60284	0.166
Mof_C 	C 	0.079	0.3436	0.6162	-0.108
Mof_C 	C 	0.0859	0.3189	0.6184	0.153
Mof_C 	C 	0.0547	0.2722	0.6307	-0.464
Mof_C 	C 	0.0974	0.2091	0.5925	-0.475
Mof_C 	C 	0.1296	0.24	0.5702	0.158
Mof_C 	C 	0.1351	0.2268	0.5453	-0.121
Mof_C 	C 	0.1701	0.271	0.5335	0.178
Mof_C 	C 	0.1919	0.2809	0.5066	-0.478
Mof_C 	C 	0.7838	0.1646	0.7398	-0.483
Mof_C 	C 	0.8379	0.1995	0.7392	0.161
Mof_C 	C 	0.8753	0.2136	0.7587	-0.114
Mof_C 	C 	0.918	0.2456	0.745	0.172
Mof_C 	C 	0.969	0.2704	0.7552	-0.479
Mof_C 	C 	0.0669	0.3478	0.6847	-0.488
Mof_C 	C 	0.0344	0.3316	0.655	0.18
Mof_C 	C 	0.0404	0.33096	0.62656	-0.129
Mof_C 	C 	0.9985	0.3125	0.608	0.177
Mof_C 	C 	0.9828	0.3011	0.5743	-0.499
Mof_C 	C 	0.8002	0.2041	0.5513	-0.479
Mof_C 	C 	0.78087	0.1867	0.57937	0.17
Mof_C 	C 	0.73046	0.15077	0.58323	-0.111
Mof_C 	C 	0.7371	0.15299	0.61449	0.136
Mof_C 	C 	0.6975	0.1223	0.6338	-0.444
Mof_C 	C 	0.7877	0.9699	0.894	-0.455
Mof_C 	C 	0.7738	0.976	0.8662	0.143
Mof_C 	C 	0.7306	0.9348	0.8388	-0.101
Mof_C 	C 	0.7381	0.964	0.8213	0.161
Mof_C 	C 	0.7062	0.944	0.79	-0.476
Mof_C 	C 	0.7853	0.0905	0.7602	-0.459
Mof_C 	C 	0.8332	0.1432	0.7858	0.154
Mof_C 	C 	0.8706	0.196	0.7854	-0.119
Mof_C 	C 	0.9067	0.2277	0.8146	0.177
Mof_C 	C 	0.9549	0.2874	0.8293	-0.495
Mof_C 	C 	0.0488	0.325	0.9364	-0.497
Mof_C 	C 	0.009	0.2698	0.939	0.171
Mof_C 	C 	0.0096	0.2536	0.963	-0.121
Mof_C 	C 	0.96494	0.1969	0.95144	0.159
Mof_C 	C 	0.943	0.1545	0.9661	-0.477
Mof_C 	C 	0.6144	0.6133	0.7863	-0.471
Mof_C 	C 	0.6362	0.6586	0.7762	0.166
Mof_C 	C 	0.6763	0.694	0.7623	-0.124
Mof_C 	C 	0.6814	0.7277	0.7585	0.17
Mof_C 	C 	0.719	0.7746	0.745	-0.491
Mof_C 	C 	0.7205	0.8771	0.7846	-0.532
Mof_C 	C 	0.6876	0.8536	0.8058	0.193
Mof_C 	C 	0.6901	0.8772	0.8297	-0.134
Mof_C 	C 	0.6494	0.8358	0.8428	0.173
Mof_C 	C 	0.6338	0.8378	0.8694	-0.485
Mof_C 	C 	0.5331	0.6759	0.9066	-0.494
Mof_C 	C 	0.5276	0.6453	0.8835	0.178
Mof_C 	C 	0.5176	0.6075	0.8863	-0.122
Mof_C 	C 	0.5178	0.5934	0.8582	0.165
Mof_C 	C 	0.5078	0.5533	0.8473	-0.484
Mof_C 	C 	0.6497	0.1385	0.5878	-0.456
Mof_C 	C 	0.643	0.1074	0.5642	0.15
Mof_C 	C 	0.67929	0.11508	0.56117	-0.116
Mof_C 	C 	0.65214	0.0755	0.53504	0.17
Mof_C 	C 	0.6692	0.0621	0.5199	-0.476
Mof_C 	C 	0.506	0.8765	0.4499	-0.487
Mof_C 	C 	0.4583	0.8552	0.4521	0.16
Mof_C 	C 	0.40184	0.80076	0.4416	-0.109
Mof_C 	C 	0.3764	0.8046	0.4496	0.162
Mof_C 	C 	0.3164	0.7596	0.4452	-0.477
Mof_C 	C 	0.3001	0.8303	0.52	-0.489
Mof_C 	C 	0.3567	0.8866	0.5373	0.174
Mof_C 	C 	0.3761	0.924	0.5621	-0.121
Mof_C 	C 	0.43115	0.9704	0.56675	0.154
Mof_C 	C 	0.4756	0.0246	0.5912	-0.464
Mof_H 	H 	0.338	0.4451	0.9787	0.118
Mof_H 	H 	0.3287	0.463	0.0029	0.131
Mof_H 	H 	0.2887	0.4016	0.9937	0.131
Mof_H 	H 	0.459	0.4968	0.1	0.133
Mof_H 	H 	0.3982	0.4468	0.103	0.143
Mof_H 	H 	0.4358	0.5073	0.1123	0.144
Mof_H 	H 	0.9686	0.0693	0.5137	0.127
Mof_H 	H 	0.0083	0.1291	0.5128	0.136
Mof_H 	H 	0.0075	0.1171	0.545	0.14
Mof_H 	H 	0.179	0.1772	0.5188	0.123
Mof_H 	H 	0.1972	0.2128	0.5504	0.142
Mof_H 	H 	0.201	0.2283	0.5193	0.134
Mof_H 	H 	0.6098	0.6216	0.9382	0.124
Mof_H 	H 	0.6233	0.6629	0.926	0.139
Mof_H 	H 	0.5892	0.6089	0.9023	0.137
Mof_H 	H 	0.4029	0.5189	0.9372	0.117
Mof_H 	H 	0.3991	0.5133	0.9014	0.135
Mof_H 	H 	0.4358	0.5693	0.9241	0.13
Mof_H 	H 	0.2944	0.682	0.3566	0.136
Mof_H 	H 	0.351	0.7472	0.3664	0.157
Mof_H 	H 	0.3022	0.7176	0.3798	0.146
Mof_H 	H 	0.41	0.7249	0.4763	0.123
Mof_H 	H 	0.4038	0.753	0.489	0.133
Mof_H 	H 	0.4542	0.7861	0.4759	0.134
Mof_H 	H 	0.363	0.6347	0.4907	0.118
Mof_H 	H 	0.3723	0.6115	0.5054	0.137
Mof_H 	H 	0.3298	0.5989	0.5139	0.134
Mof_H 	H 	0.1731	0.4042	0.4017	0.115
Mof_H 	H 	0.157	0.3897	0.4331	0.128
Mof_H 	H 	0.199	0.4014	0.4248	0.126
Mof_H 	H 	0.2489	0.5984	0.2175	0.125
Mof_H 	H 	0.249	0.5634	0.212	0.145
Mof_H 	H 	0.21	0.5497	0.1867	0.138
Mof_H 	H 	0.402	0.7087	0.1347	0.12
Mof_H 	H 	0.3467	0.6477	0.113	0.133
Mof_H 	H 	0.3878	0.6633	0.1377	0.133
Mof_H 	H 	0.9489	0.8715	0.8118	0.137
Mof_H 	H 	0.9861	0.884	0.8381	0.145
Mof_H 	H 	0.0137	0.9253	0.8178	0.156
Mof_H 	H 	0.9773	0.7817	0.736	0.12
Mof_H 	H 	0.0397	0.8439	0.7504	0.133
Mof_H 	H 	0.01	0.8009	0.7697	0.132
Mof_H 	H 	0.174	0.9873	0.7923	0.117
Mof_H 	H 	0.1152	0.9281	0.7705	0.132
Mof_H 	H 	0.1286	0.9735	0.7807	0.125
Mof_H 	H 	0.0405	0.8709	0.8854	0.119
Mof_H 	H 	0.0066	0.8659	0.8633	0.134
Mof_H 	H 	0.9978	0.8239	0.8535	0.134
Mof_H 	H 	0.6435	0.5918	0.7005	0.133
Mof_H 	H 	0.6191	0.5856	0.7271	0.145
Mof_H 	H 	0.6257	0.6106	0.7007	0.147
Mof_H 	H 	0.8437	0.8189	0.7946	0.124
Mof_H 	H 	0.8056	0.8147	0.7849	0.136
Mof_H 	H 	0.7953	0.786	0.8099	0.138
Mof_H 	H 	0.3445	0.0487	0.582	0.127
Mof_H 	H 	0.3281	0.0685	0.577	0.14
Mof_H 	H 	0.3848	0.1084	0.6006	0.135
Mof_H 	H 	0.248	0.999	0.6904	0.134
Mof_H 	H 	0.2973	0.0635	0.6984	0.139
Mof_H 	H 	0.2402	0.023	0.6748	0.151
Mof_H 	H 	0.4266	0.2066	0.7088	0.119
Mof_H 	H 	0.3764	0.1429	0.7055	0.134
Mof_H 	H 	0.4237	0.1726	0.6901	0.136
Mof_H 	H 	0.2829	0.1109	0.5804	0.125
Mof_H 	H 	0.292	0.0838	0.576	0.14
Mof_H 	H 	0.245	0.0567	0.5905	0.131
Mof_H 	H 	0.2648	0.817	0.614	0.121
Mof_H 	H 	0.2666	0.806	0.5804	0.134
Mof_H 	H 	0.3182	0.8453	0.6093	0.132
Mof_H 	H 	0.3697	0.009	0.5725	0.107
Mof_H 	H 	0.4155	0.0228	0.5735	0.122
Mof_H 	H 	0.3633	0.9793	0.5442	0.12
Mof_H 	H 	0.3836	0.5378	0.1268	0.118
Mof_H 	H 	0.4105	0.5529	0.0994	0.129
Mof_H 	H 	0.4116	0.5299	0.1233	0.127
Mof_H 	H 	0.1926	0.3117	0.0303	0.13
Mof_H 	H 	0.2365	0.3226	0.0363	0.148
Mof_H 	H 	0.2384	0.3476	0.0124	0.134
Mof_H 	H 	0.104	0.2654	0.006	0.11
Mof_H 	H 	0.0957	0.2723	0.9738	0.127
Mof_H 	H 	0.0439	0.2188	0.9837	0.128
Mof_H 	H 	0.0586	0.3582	0.0382	0.124
Mof_H 	H 	0.0025	0.3015	0.0132	0.137
Mof_H 	H 	0.0537	0.3537	0.0024	0.134
Mof_H 	H 	0.14	0.4537	0.1069	0.118
Mof_H 	H 	0.1835	0.5161	0.1108	0.132
Mof_H 	H 	0.1634	0.4916	0.1394	0.135
Mof_H 	H 	0.3521	0.5642	0.1591	0.123
Mof_H 	H 	0.3575	0.5945	0.186	0.14
Mof_H 	H 	0.376	0.6157	0.1563	0.136
Mof_H 	H 	0.2687	0.4137	0.485	0.126
Mof_H 	H 	0.3059	0.4659	0.4728	0.142
Mof_H 	H 	0.2417	0.4098	0.4565	0.137
Mof_H 	H 	0.2359	0.5054	0.5523	0.116
Mof_H 	H 	0.2099	0.4901	0.5172	0.131
Mof_H 	H 	0.2742	0.5476	0.5326	0.13
Mof_H 	H 	0.1625	0.4489	0.585	0.123
Mof_H 	H 	0.1423	0.4481	0.6124	0.139
Mof_H 	H 	0.1002	0.4065	0.5791	0.13
Mof_H 	H 	0.0696	0.2648	0.6294	0.119
Mof_H 	H 	0.0163	0.2399	0.6186	0.13
Mof_H 	H 	0.0575	0.281	0.6523	0.127
Mof_H 	H 	0.103	0.2308	0.6076	0.122
Mof_H 	H 	0.1095	0.2013	0.603	0.131
Mof_H 	H 	0.0586	0.1746	0.5814	0.132
Mof_H 	H 	0.2165	0.317	0.5047	0.121
Mof_H 	H 	0.1615	0.253	0.4877	0.133
Mof_H 	H 	0.2118	0.279	0.5098	0.136
Mof_H 	H 	0.7682	0.1629	0.7221	0.123
Mof_H 	H 	0.7601	0.1279	0.739	0.136
Mof_H 	H 	0.787	0.1799	0.7589	0.134
Mof_H 	H 	0.9915	0.2911	0.7412	0.122
Mof_H 	H 	0.9895	0.2949	0.776	0.137
Mof_H 	H 	0.9592	0.2415	0.7549	0.136
Mof_H 	H 	0.0527	0.3445	0.7014	0.123
Mof_H 	H 	0.0638	0.3237	0.6833	0.134
Mof_H 	H 	0.1052	0.3855	0.6887	0.14
Mof_H 	H 	0.9522	0.289	0.5684	0.129
Mof_H 	H 	0.014	0.3344	0.5684	0.141
Mof_H 	H 	0.9721	0.2725	0.564	0.141
Mof_H 	H 	0.8384	0.23	0.5558	0.125
Mof_H 	H 	0.7779	0.1721	0.5346	0.135
Mof_H 	H 	0.7969	0.2215	0.545	0.143
Mof_H 	H 	0.7166	0.1341	0.6549	0.109
Mof_H 	H 	0.6825	0.1296	0.6337	0.124
Mof_H 	H 	0.6678	0.083	0.6252	0.125
Mof_H 	H 	0.8199	0.0055	0.9094	0.118
Mof_H 	H 	0.7568	0.9444	0.9028	0.127
Mof_H 	H 	0.7952	0.9558	0.8878	0.13
Mof_H 	H 	0.7225	0.9747	0.784	0.124
Mof_H 	H 	0.7065	0.9272	0.7753	0.132
Mof_H 	H 	0.6685	0.9169	0.7898	0.141
Mof_H 	H 	0.7664	0.0599	0.7679	0.115
Mof_H 	H 	0.7601	0.0853	0.7526	0.128
Mof_H 	H 	0.7985	0.0923	0.7434	0.127
Mof_H 	H 	0.9712	0.2962	0.8504	0.131
Mof_H 	H 	0.9819	0.307	0.8177	0.14
Mof_H 	H 	0.9435	0.2985	0.8294	0.146
Mof_H 	H 	0.0365	0.3226	0.9163	0.128
Mof_H 	H 	0.0523	0.3439	0.9526	0.14
Mof_H 	H 	0.0844	0.3453	0.9387	0.141
Mof_H 	H 	0.9103	0.1183	0.9514	0.124
Mof_H 	H 	0.9707	0.1626	0.9719	0.133
Mof_H 	H 	0.9335	0.1552	0.9843	0.145
Mof_H 	H 	0.5855	0.5949	0.7958	0.126
Mof_H 	H 	0.6441	0.6288	0.8011	0.132
Mof_H 	H 	0.5996	0.5869	0.7683	0.136
Mof_H 	H 	0.711	0.789	0.7454	0.129
Mof_H 	H 	0.714	0.7623	0.7237	0.14
Mof_H 	H 	0.7567	0.8033	0.757	0.138
Mof_H 	H 	0.7084	0.8492	0.7708	0.141
Mof_H 	H 	0.7588	0.9071	0.7961	0.151
Mof_H 	H 	0.7166	0.891	0.7726	0.154
Mof_H 	H 	0.6035	0.8016	0.8729	0.123
Mof_H 	H 	0.6224	0.8484	0.865	0.137
Mof_H 	H 	0.6652	0.8644	0.8878	0.133
Mof_H 	H 	0.5408	0.7	0.8978	0.131
Mof_H 	H 	0.5633	0.6978	0.9249	0.137
Mof_H 	H 	0.4992	0.65	0.9124	0.143
Mof_H 	H 	0.5111	0.5528	0.8263	0.124
Mof_H 	H 	0.471	0.517	0.8474	0.139
Mof_H 	H 	0.5347	0.5638	0.8609	0.133
Mof_H 	H 	0.6167	0.123	0.5831	0.115
Mof_H 	H 	0.6811	0.1768	0.5877	0.124
Mof_H 	H 	0.6556	0.1362	0.6082	0.125
Mof_H 	H 	0.64	0.0312	0.5014	0.121
Mof_H 	H 	0.676	0.0523	0.5341	0.134
Mof_H 	H 	0.7025	0.0937	0.5142	0.137
Mof_H 	H 	0.5397	0.916	0.4589	0.125
Mof_H 	H 	0.5027	0.8678	0.4283	0.135
Mof_H 	H 	0.5065	0.8594	0.4609	0.134
Mof_H 	H 	0.3111	0.7753	0.4532	0.121
Mof_H 	H 	0.3023	0.7337	0.4562	0.134
Mof_H 	H 	0.297	0.7407	0.4233	0.134
Mof_H 	H 	0.3009	0.8153	0.504	0.128
Mof_H 	H 	0.2805	0.831	0.5105	0.144
Mof_H 	H 	0.2815	0.8076	0.5341	0.138
Mof_H 	H 	0.5111	0.0494	0.5881	0.118
Mof_H 	H 	0.4748	0.0189	0.6115	0.134
Mof_H 	H 	0.4694	0.0407	0.5897	0.127
Mof_Ag	Ag	0.99243	0.47557	0.93386	0.415
Mof_Ag	Ag	0.97159	0.51942	0.97829	0.34
Mof_Ag	Ag	0.43482	0.41887	0.01173	0.346
Mof_Ag	Ag	0.90244	0.76671	0.66597	0.354
Mof_Ag	Ag	0.88066	0.81196	0.70402	0.329
Mof_Ag	Ag	0.00925	0.89157	0.72152	0.429
Mof_Ag	Ag	0.72405	0.98532	0.08307	0.353
Mof_Ag	Ag	0.77581	0.99578	0.14967	0.327
Mof_Ag	Ag	0.8458	0.05243	0.09653	0.422
Mof_Ag	Ag	0.53188	0.64373	0.33711	0.331
Mof_Ag	Ag	0.56172	0.72861	0.31065	0.35
Mof_Ag	Ag	0.63385	0.77449	0.3851	0.426
Mof_Ag	Ag	0.03385	0.64794	0.80435	0.34
Mof_Ag	Ag	0.1479	0.70686	0.82144	0.346
Mof_Ag	Ag	0.09892	0.68162	0.74748	0.427
Mof_Ag	Ag	0.12207	0.16227	0.84672	0.401
Mof_Ag	Ag	0.07412	0.14666	0.77724	0.374
Mof_Ag	Ag	0.1773	0.271	0.82752	0.307
Mof_Ag	Ag	0.29254	0.46434	0.61676	0.314
Mof_Ag	Ag	0.21317	0.40052	0.66363	0.384
Mof_Ag	Ag	0.23912	0.35508	0.63474	0.387
Mof_Ag	Ag	0.39763	0.79134	0.76859	0.351
Mof_Ag	Ag	0.41929	0.74608	0.73269	0.356
Mof_Ag	Ag	0.2867	0.6603	0.71722	0.373
Mof_Ag	Ag	0.85883	0.165	0.92409	0.359
Mof_Ag	Ag	0.74892	0.03304	0.88772	0.374
Mof_Ag	Ag	0.78138	0.12141	0.85453	0.38
Mof_Ag	Ag	0.48482	0.52512	0.50518	0.312
Mof_Ag	Ag	0.53182	0.52298	0.56488	0.382
Mof_Ag	Ag	0.61412	0.60727	0.52011	0.394
Mof_N 	N 	0.02452	0.543	0.92972	-0.203
Mof_N 	N 	0.0122	0.5575	0.9457	-0.203
Mof_N 	N 	0.4157	0.4223	0.9484	-0.211
Mof_N 	N 	0.39163	0.39962	0.97165	-0.207
Mof_N 	N 	0.92924	0.3799	0.95594	-0.203
Mof_N 	N 	0.95228	0.4028	0.93248	-0.202
Mof_N 	N 	0.828	0.72462	0.65162	-0.205
Mof_N 	N 	0.81824	0.74095	0.66859	-0.208
Mof_N 	N 	0.94529	0.88844	0.73533	-0.196
Mof_N 	N 	0.99612	0.91976	0.74428	-0.194
Mof_N 	N 	0.83068	0.52351	0.65499	-0.205
Mof_N 	N 	0.80471	0.47975	0.66466	-0.2
Mof_N 	N 	0.68271	0.95405	0.11616	-0.211
Mof_N 	N 	0.70397	0.95803	0.1424	-0.21
Mof_N 	N 	0.54041	0.88125	0.18826	-0.198
Mof_N 	N 	0.5655	0.92747	0.18477	-0.203
Mof_N 	N 	0.8164	0.04783	0.05683	-0.209
Mof_N 	N 	0.7664	0.0188	0.051	-0.202
Mof_N 	N 	0.49355	0.61732	0.29207	-0.213
Mof_N 	N 	0.50402	0.65225	0.28147	-0.209
Mof_N 	N 	0.30454	0.46583	0.18697	-0.204
Mof_N 	N 	0.32567	0.45824	0.17631	-0.203
Mof_N 	N 	0.60653	0.71555	0.40188	-0.19
Mof_N 	N 	0.56545	0.6655	0.38235	-0.197
Mof_N 	N 	0.05872	0.65324	0.84716	-0.207
Mof_N 	N 	0.1082	0.68139	0.85499	-0.205
Mof_N 	N 	0.18372	0.71924	0.78916	-0.2
Mof_N 	N 	0.16324	0.70641	0.75825	-0.198
Mof_N 	N 	0.02823	0.64693	0.73736	-0.2
Mof_N 	N 	0.00391	0.63449	0.7606	-0.205
Mof_N 	N 	0.06278	0.08764	0.81382	-0.198
Mof_N 	N 	0.04139	0.08111	0.7863	-0.2
Mof_N 	N 	0.11448	0.21222	0.7615	-0.197
Mof_N 	N 	0.1546	0.262	0.7824	-0.203
Mof_N 	N 	0.21006	0.28305	0.87051	-0.203
Mof_N 	N 	0.1912	0.24052	0.87652	-0.203
Mof_N 	N 	0.27926	0.49406	0.63672	-0.202
Mof_N 	N 	0.2498	0.46898	0.65798	-0.203
Mof_N 	N 	0.18389	0.33945	0.67794	-0.208
Mof_N 	N 	0.19602	0.32161	0.66743	-0.206
Mof_N 	N 	0.29184	0.39726	0.6077	-0.2
Mof_N 	N 	0.31149	0.43943	0.60052	-0.204
Mof_N 	N 	0.476	0.8404	0.7792	-0.202
Mof_N 	N 	0.483	0.82003	0.76483	-0.205
Mof_N 	N 	0.35653	0.66977	0.7027	-0.21
Mof_N 	N 	0.3036	0.63502	0.69582	-0.205
Mof_N 	N 	0.27439	0.6889	0.74089	-0.207
Mof_N 	N 	0.31903	0.74147	0.7585	-0.205
Mof_N 	N 	0.83054	0.11163	0.94757	-0.202
Mof_N 	N 	0.7888	0.0581	0.9325	-0.204
Mof_N 	N 	0.69995	0.00487	0.84742	-0.208
Mof_N 	N 	0.70898	0.03682	0.834	-0.205
Mof_N 	N 	0.84492	0.20175	0.88067	-0.203
Mof_N 	N 	0.8778	0.2183	0.9065	-0.209
Mof_N 	N 	0.43431	0.47493	0.53144	-0.207
Mof_N 	N 	0.45476	0.47734	0.5577	-0.197
Mof_N 	N 	0.61271	0.57748	0.57619	-0.2
Mof_N 	N 	0.6443	0.60773	0.55743	-0.202
Mof_N 	N 	0.58895	0.61718	0.48833	-0.197
Mof_N 	N 	0.53744	0.58423	0.48267	-0.201
Mof_C 	C 	0.0602	0.5576	0.8866	-0.471
Mof_C 	C 	0.0452	0.5685	0.9083	0.171
Mof_C 	C 	0.0455	0.5986	0.9081	-0.129
Mof_C 	C 	0.0263	0.5935	0.9332	0.181
Mof_C 	C 	0.0182	0.6163	0.9447	-0.517
Mof_C 	C 	0.3916	0.415	0.896	-0.491
Mof_C 	C 	0.377	0.3983	0.9241	0.174
Mof_C 	C 	0.327	0.3589	0.9307	-0.124
Mof_C 	C 	0.3387	0.3613	0.9608	0.159
Mof_C 	C 	0.3017	0.33	0.9817	-0.475
Mof_C 	C 	0.8755	0.2985	0.9716	-0.491
Mof_C 	C 	0.9054	0.3325	0.9505	0.168
Mof_C 	C 	0.9127	0.3249	0.9242	-0.115
Mof_C 	C 	0.9416	0.3696	0.9134	0.157
Mof_C 	C 	0.9619	0.384	0.8849	-0.462
Mof_C 	C 	0.7846	0.65802	0.60502	-0.521
Mof_C 	C 	0.78543	0.68463	0.62606	0.189
Mof_C 	C 	0.7475	0.67541	0.62591	-0.124
Mof_C 	C 	0.77082	0.7125	0.65292	0.147
Mof_C 	C 	0.7498	0.7234	0.6654	-0.47
Mof_C 	C 	0.8961	0.8937	0.7414	-0.476
Mof_C 	C 	0.9463	0.91772	0.74762	0.156
Mof_C 	C 	0.99919	0.9694	0.76459	-0.108
Mof_C 	C 	0.0295	0.9689	0.7622	0.155
Mof_C 	C 	0.0885	0.0119	0.775	-0.454
Mof_C 	C 	0.921	0.6231	0.6667	-0.498
Mof_C 	C 	0.8828	0.5696	0.672	0.173
Mof_C 	C 	0.892	0.55559	0.69299	-0.121
Mof_C 	C 	0.84382	0.5006	0.68782	0.165
Mof_C 	C 	0.8298	0.4634	0.7024	-0.477
Mof_C 	C 	0.6131	0.9307	0.0948	-0.515
Mof_C 	C 	0.6434	0.9386	0.12	0.192
Mof_C 	C 	0.6357	0.93	0.1483	-0.134
Mof_C 	C 	0.6749	0.9432	0.1621	0.152
Mof_C 	C 	0.6883	0.9432	0.1933	-0.467
Mof_C 	C 	0.5412	0.8284	0.1762	-0.473
Mof_C 	C 	0.5602	0.87481	0.17541	0.162
Mof_C 	C 	0.6001	0.91806	0.16316	-0.112
Mof_C 	C 	0.6011	0.9495	0.1694	0.171
Mof_C 	C 	0.6382	0.0022	0.1628	-0.478
Mof_C 	C 	0.8918	0.1053	0.0335	-0.513
Mof_C 	C 	0.8369	0.0692	0.0339	0.177
Mof_C 	C 	0.7996	0.0542	0.0116	-0.112
Mof_C 	C 	0.7554	0.0215	0.0241	0.16
Mof_C 	C 	0.7046	0.9956	0.0112	-0.48
Mof_C 	C 	0.4296	0.5216	0.2762	-0.485
Mof_C 	C 	0.45176	0.56924	0.271	0.16
Mof_C 	C 	0.4344	0.5718	0.2464	-0.128
Mof_C 	C 	0.4693	0.6258	0.2539	0.18
Mof_C 	C 	0.4712	0.6533	0.2371	-0.504
Mof_C 	C 	0.3288	0.5239	0.2309	-0.478
Mof_C 	C 	0.3413	0.5079	0.213	0.161
Mof_C 	C 	0.3867	0.5274	0.2197	-0.113
Mof_C 	C 	0.37565	0.4954	0.19585	0.167
Mof_C 	C 	0.4088	0.4979	0.1907	-0.491
Mof_C 	C 	0.6668	0.7671	0.4549	-0.468
Mof_C 	C 	0.6193	0.7152	0.4299	0.156
Mof_C 	C 	0.5825	0.6612	0.4279	-0.102
Mof_C 	C 	0.5511	0.6325	0.3974	0.145
Mof_C 	C 	0.506	0.5726	0.3824	-0.447
Mof_C 	C 	0.9723	0.5844	0.8625	-0.46
Mof_C 	C 	0.0293	0.6214	0.8661	0.143
Mof_C 	C 	0.0625	0.6308	0.8869	-0.11
Mof_C 	C 	0.1116	0.6687	0.8791	0.169
Mof_C 	C 	0.1617	0.6936	0.8923	-0.487
Mof_C 	C 	0.2418	0.7329	0.8223	-0.45
Mof_C 	C 	0.2137	0.7205	0.791	0.153
Mof_C 	C 	0.2153	0.7092	0.7627	-0.108
Mof_C 	C 	0.18139	0.69918	0.74197	0.157
Mof_C 	C 	0.1656	0.6835	0.7079	-0.483
Mof_C 	C 	0.0092	0.6301	0.6815	-0.476
Mof_C 	C 	0.993	0.6223	0.7103	0.162
Mof_C 	C 	0.94392	0.59254	0.71586	-0.115
Mof_C 	C 	0.9539	0.6022	0.7469	0.165
Mof_C 	C 	0.9166	0.5804	0.7662	-0.483
Mof_C 	C 	0.0665	0.0426	0.8365	-0.487
Mof_C 	C 	0.0496	0.0471	0.8103	0.16
Mof_C 	C 	0.0208	0.0156	0.7796	-0.112
Mof_C 	C 	0.0159	0.0379	0.7658	0.158
Mof_C 	C 	0.9911	0.0229	0.7328	-0.469
Mof_C 	C 	0.0744	0.1684	0.7064	-0.468
Mof_C 	C 	0.11605	0.21889	0.73414	0.167
Mof_C 	C 	0.1564	0.2726	0.7354	-0.108
Mof_C 	C 	0.1811	0.2995	0.767	0.153
Mof_C 	C 	0.2278	0.3585	0.7825	-0.464
Mof_C 	C 	0.2909	0.3834	0.8883	-0.475
Mof_C 	C 	0.26	0.3302	0.8896	0.158
Mof_C 	C 	0.2732	0.3185	0.9083	-0.121
Mof_C 	C 	0.229	0.2625	0.8991	0.178
Mof_C 	C 	0.2191	0.2257	0.911	-0.478
Mof_C 	C 	0.3354	0.5752	0.6192	-0.483
Mof_C 	C 	0.3005	0.5397	0.6384	0.161
Mof_C 	C 	0.2864	0.5451	0.6617	-0.114
Mof_C 	C 	0.2544	0.4994	0.6724	0.172
Mof_C 	C 	0.2296	0.4848	0.6986	-0.479
Mof_C 	C 	0.1522	0.3369	0.7191	-0.488
Mof_C 	C 	0.1684	0.3234	0.7028	0.18
Mof_C 	C 	0.16904	0.2956	0.70944	-0.129
Mof_C 	C 	0.1875	0.2955	0.686	0.178
Mof_C 	C 	0.1989	0.2732	0.6817	-0.499
Mof_C 	C 	0.2959	0.3472	0.5961	-0.479
Mof_C 	C 	0.3133	0.39267	0.59417	0.17
Mof_C 	C 	0.34923	0.43246	0.57969	-0.111
Mof_C 	C 	0.34701	0.4615	0.58411	0.136
Mof_C 	C 	0.3777	0.5115	0.5752	-0.444
Mof_C 	C 	0.5301	0.9241	0.8178	-0.456
Mof_C 	C 	0.524	0.8902	0.7978	0.143
Mof_C 	C 	0.5652	0.904	0.7958	-0.101
Mof_C 	C 	0.536	0.8573	0.7741	0.16
Mof_C 	C 	0.556	0.846	0.7622	-0.476
Mof_C 	C 	0.4095	0.6697	0.6948	-0.459
Mof_C 	C 	0.3568	0.6426	0.69	0.154
Mof_C 	C 	0.304	0.5894	0.6746	-0.119
Mof_C 	C 	0.2723	0.5869	0.679	0.177
Mof_C 	C 	0.2126	0.5419	0.6675	-0.495
Mof_C 	C 	0.175	0.6114	0.7238	-0.496
Mof_C 	C 	0.2302	0.6692	0.7392	0.171
Mof_C 	C 	0.2464	0.7094	0.756	-0.122
Mof_C 	C 	0.3031	0.75454	0.76804	0.159
Mof_C 	C 	0.3455	0.8116	0.7885	-0.478
Mof_C 	C 	0.8867	0.173	0.0011	-0.47
Mof_C 	C 	0.8414	0.1176	0.9776	0.166
Mof_C 	C 	0.806	0.0683	0.9823	-0.124
Mof_C 	C 	0.7723	0.0308	0.9537	0.17
Mof_C 	C 	0.7254	0.9704	0.9444	-0.49
Mof_C 	C 	0.6229	0.9075	0.8434	-0.532
Mof_C 	C 	0.6464	0.9522	0.834	0.193
Mof_C 	C 	0.6228	0.9525	0.8129	-0.134
Mof_C 	C 	0.6642	0.007	0.8136	0.173
Mof_C 	C 	0.6622	0.0316	0.796	-0.485
Mof_C 	C 	0.8241	0.2307	0.8572	-0.494
Mof_C 	C 	0.8547	0.2382	0.8823	0.178
Mof_C 	C 	0.8925	0.2788	0.9101	-0.122
Mof_C 	C 	0.9066	0.2648	0.9244	0.165
Mof_C 	C 	0.9467	0.294	0.9545	-0.484
Mof_C 	C 	0.3615	0.4493	0.5112	-0.456
Mof_C 	C 	0.3926	0.4568	0.5356	0.15
Mof_C 	C 	0.38492	0.44609	0.56421	-0.116
Mof_C 	C 	0.4245	0.45954	0.57664	0.17
Mof_C 	C 	0.4379	0.4578	0.6071	-0.476
Mof_C 	C 	0.6235	0.5734	0.6295	-0.487
Mof_C 	C 	0.6448	0.5969	0.6031	0.16
Mof_C 	C 	0.69924	0.64084	0.60108	-0.109
Mof_C 	C 	0.6954	0.645	0.5718	0.162
Mof_C 	C 	0.7404	0.6856	0.5568	-0.477
Mof_C 	C 	0.6697	0.6897	0.4698	-0.489
Mof_C 	C 	0.6134	0.6507	0.4701	0.174
Mof_C 	C 	0.576	0.6381	0.4521	-0.121
Mof_C 	C 	0.5296	0.59635	0.46075	0.154
Mof_C 	C 	0.4754	0.5666	0.451	-0.464
Mof_H 	H 	0.0549	0.5336	0.8929	0.118
Mof_H 	H 	0.037	0.5399	0.8657	0.131
Mof_H 	H 	0.0984	0.5921	0.8871	0.131
Mof_H 	H 	0.0032	0.6032	0.9622	0.133
Mof_H 	H 	0.0532	0.6562	0.9514	0.143
Mof_H 	H 	0.9927	0.605	0.9285	0.144
Mof_H 	H 	0.4307	0.4444	0.8993	0.128
Mof_H 	H 	0.3709	0.3837	0.8792	0.136
Mof_H 	H 	0.3829	0.4279	0.8904	0.14
Mof_H 	H 	0.3228	0.3416	0.0018	0.123
Mof_H 	H 	0.2872	0.3376	0.9844	0.142
Mof_H 	H 	0.2717	0.291	0.9727	0.134
Mof_H 	H 	0.8784	0.3166	0.9882	0.124
Mof_H 	H 	0.8371	0.2631	0.9604	0.139
Mof_H 	H 	0.8911	0.2934	0.9803	0.137
Mof_H 	H 	0.9811	0.4183	0.884	0.117
Mof_H 	H 	0.9867	0.3881	0.8858	0.135
Mof_H 	H 	0.9307	0.3548	0.8665	0.13
Mof_H 	H 	0.818	0.6746	0.6124	0.136
Mof_H 	H 	0.7528	0.6192	0.6038	0.157
Mof_H 	H 	0.7824	0.6622	0.5846	0.146
Mof_H 	H 	0.7751	0.7514	0.6851	0.123
Mof_H 	H 	0.747	0.736	0.6508	0.133
Mof_H 	H 	0.7139	0.6898	0.6681	0.134
Mof_H 	H 	0.8653	0.856	0.7283	0.118
Mof_H 	H 	0.8885	0.8939	0.7608	0.137
Mof_H 	H 	0.9011	0.915	0.7309	0.134
Mof_H 	H 	0.0958	0.9975	0.7689	0.114
Mof_H 	H 	0.1103	0.0434	0.7673	0.127
Mof_H 	H 	0.0986	0.0234	0.7976	0.126
Mof_H 	H 	0.9016	0.6191	0.6505	0.125
Mof_H 	H 	0.9366	0.6486	0.6856	0.145
Mof_H 	H 	0.9503	0.637	0.6603	0.138
Mof_H 	H 	0.7913	0.426	0.6933	0.12
Mof_H 	H 	0.8523	0.4653	0.699	0.133
Mof_H 	H 	0.8367	0.4744	0.7245	0.133
Mof_H 	H 	0.6285	0.9403	0.0774	0.137
Mof_H 	H 	0.616	0.9541	0.1021	0.145
Mof_H 	H 	0.5747	0.8925	0.0884	0.156
Mof_H 	H 	0.7183	0.9543	0.1956	0.12
Mof_H 	H 	0.6561	0.9065	0.1958	0.133
Mof_H 	H 	0.6991	0.9688	0.2091	0.131
Mof_H 	H 	0.5127	0.805	0.1867	0.117
Mof_H 	H 	0.5719	0.8424	0.1871	0.132
Mof_H 	H 	0.5265	0.8072	0.1551	0.125
Mof_H 	H 	0.6291	0.0145	0.1696	0.119
Mof_H 	H 	0.6341	0.9974	0.1407	0.134
Mof_H 	H 	0.6761	0.0296	0.1739	0.133
Mof_H 	H 	0.9082	0.1087	0.0517	0.133
Mof_H 	H 	0.9144	0.1415	0.0335	0.145
Mof_H 	H 	0.8894	0.0901	0.0151	0.147
Mof_H 	H 	0.6811	0.9757	0.0248	0.124
Mof_H 	H 	0.6853	0.9702	0.9909	0.135
Mof_H 	H 	0.714	0.0239	0.0093	0.137
Mof_H 	H 	0.4513	0.5333	0.2958	0.127
Mof_H 	H 	0.4315	0.5085	0.2596	0.14
Mof_H 	H 	0.3916	0.4922	0.2764	0.135
Mof_H 	H 	0.501	0.6914	0.249	0.135
Mof_H 	H 	0.4365	0.6349	0.2338	0.139
Mof_H 	H 	0.477	0.6518	0.2172	0.151
Mof_H 	H 	0.2934	0.5022	0.22	0.119
Mof_H 	H 	0.3571	0.5626	0.2335	0.134
Mof_H 	H 	0.3274	0.5175	0.2511	0.136
Mof_H 	H 	0.3891	0.4695	0.172	0.125
Mof_H 	H 	0.4162	0.4922	0.2082	0.14
Mof_H 	H 	0.4433	0.5338	0.1883	0.131
Mof_H 	H 	0.683	0.797	0.4478	0.121
Mof_H 	H 	0.694	0.7744	0.4606	0.134
Mof_H 	H 	0.6547	0.764	0.4729	0.132
Mof_H 	H 	0.491	0.5635	0.3607	0.107
Mof_H 	H 	0.4772	0.5507	0.3927	0.122
Mof_H 	H 	0.5207	0.5649	0.384	0.12
Mof_H 	H 	0.9622	0.589	0.8458	0.118
Mof_H 	H 	0.9471	0.5465	0.8576	0.129
Mof_H 	H 	0.9701	0.5934	0.8817	0.127
Mof_H 	H 	0.1883	0.7186	0.8809	0.13
Mof_H 	H 	0.1774	0.7137	0.9139	0.148
Mof_H 	H 	0.1524	0.6648	0.8908	0.134
Mof_H 	H 	0.2346	0.7406	0.8386	0.11
Mof_H 	H 	0.2277	0.7015	0.8234	0.127
Mof_H 	H 	0.2812	0.7649	0.8251	0.128
Mof_H 	H 	0.1418	0.68	0.7004	0.124
Mof_H 	H 	0.1985	0.7117	0.701	0.137
Mof_H 	H 	0.1463	0.6487	0.7	0.134
Mof_H 	H 	0.0463	0.6532	0.6863	0.118
Mof_H 	H 	0.9839	0.5947	0.6674	0.132
Mof_H 	H 	0.0084	0.6478	0.6718	0.135
Mof_H 	H 	0.9358	0.5949	0.7879	0.123
Mof_H 	H 	0.9055	0.5915	0.763	0.14
Mof_H 	H 	0.8843	0.5406	0.7603	0.136
Mof_H 	H 	0.0863	0.0713	0.855	0.126
Mof_H 	H 	0.0341	0.0069	0.84	0.142
Mof_H 	H 	0.0902	0.0467	0.8319	0.137
Mof_H 	H 	0.9946	0.0469	0.7305	0.117
Mof_H 	H 	0.0099	0.0271	0.7198	0.132
Mof_H 	H 	0.9524	0.985	0.7266	0.132
Mof_H 	H 	0.0511	0.1361	0.7136	0.123
Mof_H 	H 	0.0519	0.1643	0.6942	0.139
Mof_H 	H 	0.0935	0.1726	0.6937	0.13
Mof_H 	H 	0.2352	0.3646	0.8048	0.119
Mof_H 	H 	0.2601	0.3787	0.7764	0.13
Mof_H 	H 	0.219	0.3713	0.7765	0.127
Mof_H 	H 	0.2692	0.3768	0.8722	0.122
Mof_H 	H 	0.2987	0.4017	0.9082	0.131
Mof_H 	H 	0.3254	0.4068	0.884	0.132
Mof_H 	H 	0.183	0.1877	0.8995	0.121
Mof_H 	H 	0.247	0.2347	0.9085	0.133
Mof_H 	H 	0.221	0.2308	0.9328	0.136
Mof_H 	H 	0.3371	0.5592	0.6053	0.123
Mof_H 	H 	0.3721	0.6111	0.6322	0.136
Mof_H 	H 	0.3201	0.579	0.6071	0.134
Mof_H 	H 	0.2089	0.4501	0.7004	0.122
Mof_H 	H 	0.2051	0.4811	0.6946	0.137
Mof_H 	H 	0.2585	0.5134	0.7177	0.136
Mof_H 	H 	0.1555	0.3569	0.7082	0.123
Mof_H 	H 	0.1763	0.3596	0.7401	0.134
Mof_H 	H 	0.1145	0.3032	0.7197	0.139
Mof_H 	H 	0.211	0.2794	0.6632	0.129
Mof_H 	H 	0.1656	0.234	0.6796	0.141
Mof_H 	H 	0.2275	0.2915	0.6996	0.141
Mof_H 	H 	0.27	0.3258	0.6084	0.125
Mof_H 	H 	0.3279	0.3625	0.6058	0.135
Mof_H 	H 	0.2785	0.3235	0.5754	0.143
Mof_H 	H 	0.3659	0.5208	0.5825	0.109
Mof_H 	H 	0.3704	0.5041	0.5529	0.124
Mof_H 	H 	0.417	0.5422	0.5848	0.125
Mof_H 	H 	0.4945	0.9039	0.8144	0.118
Mof_H 	H 	0.5556	0.9584	0.8124	0.127
Mof_H 	H 	0.5442	0.932	0.8394	0.13
Mof_H 	H 	0.5253	0.8093	0.7478	0.123
Mof_H 	H 	0.5728	0.8481	0.7793	0.132
Mof_H 	H 	0.5831	0.8729	0.7516	0.141
Mof_H 	H 	0.4401	0.708	0.7065	0.115
Mof_H 	H 	0.4147	0.6673	0.6748	0.129
Mof_H 	H 	0.4077	0.6511	0.7062	0.127
Mof_H 	H 	0.2038	0.5542	0.675	0.132
Mof_H 	H 	0.193	0.5107	0.6749	0.14
Mof_H 	H 	0.2015	0.5309	0.645	0.146
Mof_H 	H 	0.1774	0.5937	0.7139	0.128
Mof_H 	H 	0.1561	0.6087	0.7084	0.14
Mof_H 	H 	0.1547	0.5934	0.7391	0.141
Mof_H 	H 	0.3817	0.8331	0.792	0.124
Mof_H 	H 	0.3374	0.8093	0.8081	0.134
Mof_H 	H 	0.3448	0.8291	0.7783	0.145
Mof_H 	H 	0.9051	0.2009	0.9906	0.125
Mof_H 	H 	0.8712	0.1723	0.0153	0.132
Mof_H 	H 	0.9131	0.1814	0.0127	0.135
Mof_H 	H 	0.711	0.9564	0.922	0.129
Mof_H 	H 	0.7377	0.9614	0.9517	0.14
Mof_H 	H 	0.6967	0.9537	0.9534	0.138
Mof_H 	H 	0.6508	0.9216	0.8592	0.141
Mof_H 	H 	0.5929	0.889	0.8517	0.151
Mof_H 	H 	0.609	0.8816	0.8256	0.154
Mof_H 	H 	0.6984	0.0713	0.8019	0.123
Mof_H 	H 	0.6516	0.0166	0.774	0.137
Mof_H 	H 	0.6356	0.0234	0.8008	0.133
Mof_H 	H 	0.8	0.1978	0.8408	0.131
Mof_H 	H 	0.8022	0.2271	0.8655	0.137
Mof_H 	H 	0.85	0.2624	0.8492	0.143
Mof_H 	H 	0.9472	0.2735	0.9583	0.124
Mof_H 	H 	0.983	0.3304	0.954	0.139
Mof_H 	H 	0.9362	0.2971	0.9709	0.133
Mof_H 	H 	0.377	0.4601	0.4937	0.115
Mof_H 	H 	0.3232	0.4109	0.5043	0.124
Mof_H 	H 	0.3638	0.472	0.5194	0.124
Mof_H 	H 	0.4688	0.4702	0.6088	0.121
Mof_H 	H 	0.4477	0.4818	0.6237	0.134
Mof_H 	H 	0.4063	0.4205	0.6088	0.137
Mof_H 	H 	0.584	0.5429	0.6237	0.125
Mof_H 	H 	0.6322	0.5605	0.6349	0.135
Mof_H 	H 	0.6406	0.6015	0.6471	0.134
Mof_H 	H 	0.7247	0.6779	0.5358	0.121
Mof_H 	H 	0.7663	0.7225	0.5686	0.134
Mof_H 	H 	0.7593	0.6826	0.5563	0.134
Mof_H 	H 	0.6847	0.6887	0.4856	0.128
Mof_H 	H 	0.669	0.6795	0.4495	0.144
Mof_H 	H 	0.6924	0.7265	0.4739	0.138
Mof_H 	H 	0.4506	0.5387	0.4617	0.118
Mof_H 	H 	0.4811	0.5926	0.4559	0.134
Mof_H 	H 	0.4593	0.549	0.4287	0.127
Mof_Ag	Ag	0.04171	0.05857	0.56614	0.416
Mof_Ag	Ag	0.04113	0.9933	0.52171	0.339
Mof_Ag	Ag	0.90714	0.42309	0.48827	0.346
Mof_Ag	Ag	0.60074	0.23647	0.83403	0.354
Mof_Ag	Ag	0.60794	0.17664	0.79598	0.328
Mof_Ag	Ag	0.67005	0.28773	0.77848	0.43
Mof_Ag	Ag	0.40225	0.64098	0.41693	0.353
Mof_Ag	Ag	0.34611	0.62614	0.35033	0.326
Mof_Ag	Ag	0.4559	0.74927	0.40347	0.422
Mof_Ag	Ag	0.80662	0.19477	0.16289	0.331
Mof_Ag	Ag	0.91796	0.25107	0.18935	0.349
Mof_Ag	Ag	0.88939	0.24875	0.1149	0.426
Mof_Ag	Ag	0.34359	0.2295	0.69565	0.34
Mof_Ag	Ag	0.38542	0.32646	0.67856	0.346
Mof_Ag	Ag	0.43414	0.35144	0.75252	0.427
Mof_Ag	Ag	0.81555	0.27535	0.65328	0.401
Mof_Ag	Ag	0.86942	0.29688	0.72276	0.374
Mof_Ag	Ag	0.94348	0.34978	0.67248	0.307
Mof_Ag	Ag	0.34758	0.67578	0.88324	0.314
Mof_Ag	Ag	0.23689	0.54954	0.83637	0.384
Mof_Ag	Ag	0.22034	0.60438	0.86526	0.387
Mof_Ag	Ag	0.52275	0.62904	0.73141	0.351
Mof_Ag	Ag	0.51339	0.6866	0.76731	0.356
Mof_Ag	Ag	0.44308	0.56948	0.78278	0.373
Mof_Ag	Ag	0.74091	0.93474	0.57591	0.36
Mof_Ag	Ag	0.64532	0.8612	0.61228	0.374
Mof_Ag	Ag	0.76688	0.92685	0.64547	0.38
Mof_Ag	Ag	0.51994	0.97964	0.99482	0.312
Mof_Ag	Ag	0.4581	0.96694	0.93512	0.382
Mof_Ag	Ag	0.58716	0.09401	0.97989	0.394
Mof_N 	N 	0.11328	0.0948	0.57028	-0.203
Mof_N 	N 	0.1118	0.0665	0.5543	-0.203
Mof_N 	N 	0.9739	0.4673	0.5516	-0.211
Mof_N 	N 	0.92797	0.41998	0.52835	-0.207
Mof_N 	N 	0.92396	0.9733	0.54406	-0.203
Mof_N 	N 	0.97032	0.0198	0.56752	-0.202
Mof_N 	N 	0.573	0.17638	0.84838	-0.205
Mof_N 	N 	0.57236	0.14965	0.83141	-0.208
Mof_N 	N 	0.65311	0.20996	0.76467	-0.197
Mof_N 	N 	0.67548	0.25184	0.75572	-0.195
Mof_N 	N 	0.36852	0.17569	0.84501	-0.205
Mof_N 	N 	0.31509	0.14005	0.83534	-0.2
Mof_N 	N 	0.33789	0.56655	0.38384	-0.211
Mof_N 	N 	0.31563	0.56157	0.3576	-0.21
Mof_N 	N 	0.19299	0.35215	0.31174	-0.198
Mof_N 	N 	0.2427	0.38073	0.31523	-0.203
Mof_N 	N 	0.491	0.75957	0.44317	-0.209
Mof_N 	N 	0.4678	0.7154	0.449	-0.202
Mof_N 	N 	0.82525	0.20148	0.20793	-0.213
Mof_N 	N 	0.87078	0.22255	0.21853	-0.209
Mof_N 	N 	0.77886	0.11757	0.31303	-0.204
Mof_N 	N 	0.78193	0.14936	0.32369	-0.203
Mof_N 	N 	0.81367	0.20465	0.09812	-0.19
Mof_N 	N 	0.78315	0.1831	0.11765	-0.197
Mof_N 	N 	0.30608	0.21156	0.65284	-0.207
Mof_N 	N 	0.3264	0.25321	0.64501	-0.205
Mof_N 	N 	0.43008	0.39456	0.71084	-0.2
Mof_N 	N 	0.44816	0.40499	0.74175	-0.198
Mof_N 	N 	0.40957	0.29087	0.76264	-0.199
Mof_N 	N 	0.37389	0.24331	0.7394	-0.205
Mof_N 	N 	0.77382	0.24896	0.68618	-0.197
Mof_N 	N 	0.79481	0.25509	0.7137	-0.2
Mof_N 	N 	0.95072	0.35298	0.7385	-0.197
Mof_N 	N 	0.9796	0.3722	0.7176	-0.204
Mof_N 	N 	0.91254	0.33955	0.62949	-0.203
Mof_N 	N 	0.864	0.31468	0.62348	-0.203
Mof_N 	N 	0.35734	0.64254	0.86328	-0.202
Mof_N 	N 	0.311	0.59182	0.84202	-0.203
Mof_N 	N 	0.16151	0.50595	0.82206	-0.208
Mof_N 	N 	0.15418	0.52859	0.83257	-0.206
Mof_N 	N 	0.28956	0.68414	0.8923	-0.2
Mof_N 	N 	0.33891	0.71097	0.89948	-0.204
Mof_N 	N 	0.5612	0.6968	0.7208	-0.202
Mof_N 	N 	0.5552	0.71817	0.73517	-0.205
Mof_N 	N 	0.46707	0.65383	0.7973	-0.21
Mof_N 	N 	0.4392	0.60778	0.80418	-0.205
Mof_N 	N 	0.44801	0.5335	0.75911	-0.207
Mof_N 	N 	0.48297	0.56053	0.7415	-0.205
Mof_N 	N 	0.66406	0.88297	0.55243	-0.202
Mof_N 	N 	0.6256	0.8563	0.5675	-0.204
Mof_N 	N 	0.65745	0.85253	0.65258	-0.208
Mof_N 	N 	0.70282	0.87498	0.666	-0.205
Mof_N 	N 	0.82108	0.96425	0.61933	-0.203
Mof_N 	N 	0.8118	0.9713	0.5935	-0.209
Mof_N 	N 	0.44349	0.90287	0.96856	-0.207
Mof_N 	N 	0.41964	0.89706	0.9423	-0.197
Mof_N 	N 	0.50129	0.03652	0.92381	-0.2
Mof_N 	N 	0.5503	0.08687	0.94257	-0.202
Mof_N 	N 	0.62885	0.10062	0.01167	-0.197
Mof_N 	N 	0.60156	0.05477	0.01733	-0.201
Mof_C 	C 	0.171	0.1736	0.6134	-0.471
Mof_C 	C 	0.1602	0.1369	0.5917	0.171
Mof_C 	C 	0.1905	0.1374	0.5919	-0.129
Mof_C 	C 	0.1603	0.0931	0.5668	0.181
Mof_C 	C 	0.1716	0.0735	0.5553	-0.517
Mof_C 	C 	0.019	0.4956	0.604	-0.49
Mof_C 	C 	0.9742	0.4529	0.5759	0.174
Mof_C 	C 	0.9282	0.3963	0.5693	-0.123
Mof_C 	C 	0.9005	0.3779	0.5392	0.159
Mof_C 	C 	0.8483	0.32	0.5183	-0.475
Mof_C 	C 	0.8269	0.9039	0.5284	-0.491
Mof_C 	C 	0.882	0.9549	0.5495	0.168
Mof_C 	C 	0.9007	0.9885	0.5758	-0.115
Mof_C 	C 	0.9562	0.0282	0.5866	0.157
Mof_C 	C 	0.9991	0.077	0.6151	-0.465
Mof_C 	C 	0.553	0.17958	0.89498	-0.521
Mof_C 	C 	0.55857	0.15937	0.87394	0.189
Mof_C 	C 	0.5495	0.12159	0.87409	-0.124
Mof_C 	C 	0.55958	0.1179	0.84708	0.147
Mof_C 	C 	0.558	0.0844	0.8346	-0.47
Mof_C 	C 	0.6523	0.1547	0.7586	-0.477
Mof_C 	C 	0.6701	0.19868	0.75238	0.157
Mof_C 	C 	0.70481	0.2346	0.73541	-0.109
Mof_C 	C 	0.7067	0.2673	0.7378	0.156
Mof_C 	C 	0.7369	0.3135	0.725	-0.457
Mof_C 	C 	0.4564	0.2543	0.8333	-0.498
Mof_C 	C 	0.3976	0.2108	0.828	0.173
Mof_C 	C 	0.3626	0.19901	0.80701	-0.121
Mof_C 	C 	0.31278	0.156	0.81218	0.165
Mof_C 	C 	0.261	0.1274	0.7976	-0.478
Mof_C 	C 	0.3359	0.5183	0.4052	-0.515
Mof_C 	C 	0.3186	0.5234	0.38	0.192
Mof_C 	C 	0.2817	0.4874	0.3517	-0.134
Mof_C 	C 	0.2811	0.5128	0.3379	0.152
Mof_C 	C 	0.2499	0.495	0.3067	-0.467
Mof_C 	C 	0.1522	0.365	0.3238	-0.473
Mof_C 	C 	0.1994	0.38479	0.32459	0.162
Mof_C 	C 	0.2549	0.43694	0.33684	-0.112
Mof_C 	C 	0.2801	0.4317	0.3306	0.171
Mof_C 	C 	0.3394	0.4754	0.3372	-0.478
Mof_C 	C 	0.5718	0.8583	0.4665	-0.513
Mof_C 	C 	0.5353	0.803	0.4661	0.177
Mof_C 	C 	0.5426	0.788	0.4884	-0.112
Mof_C 	C 	0.4974	0.7313	0.4759	0.161
Mof_C 	C 	0.4844	0.6934	0.4888	-0.482
Mof_C 	C 	0.7454	0.1534	0.2238	-0.485
Mof_C 	C 	0.79824	0.18076	0.229	0.16
Mof_C 	C 	0.8254	0.188	0.2536	-0.128
Mof_C 	C 	0.8719	0.2154	0.2461	0.18
Mof_C 	C 	0.9162	0.2341	0.2629	-0.504
Mof_C 	C 	0.793	0.0979	0.2691	-0.478
Mof_C 	C 	0.7949	0.1283	0.287	0.161
Mof_C 	C 	0.8077	0.167	0.2803	-0.113
Mof_C 	C 	0.79955	0.1798	0.30415	0.167
Mof_C 	C 	0.8072	0.2181	0.3093	-0.491
Mof_C 	C 	0.8122	0.2119	0.0451	-0.468
Mof_C 	C 	0.7853	0.1894	0.0701	0.156
Mof_C 	C 	0.7333	0.1546	0.0721	-0.102
Mof_C 	C 	0.7351	0.1537	0.1026	0.145
Mof_C 	C 	0.6902	0.1236	0.1176	-0.447
Mof_C 	C 	0.2219	0.1098	0.6375	-0.46
Mof_C 	C 	0.2553	0.1632	0.6339	0.143
Mof_C 	C 	0.2439	0.1756	0.6131	-0.11
Mof_C 	C 	0.2896	0.2325	0.6209	0.169
Mof_C 	C 	0.3013	0.2694	0.6077	-0.487
Mof_C 	C 	0.4106	0.4195	0.6777	-0.45
Mof_C 	C 	0.4295	0.4227	0.709	0.153
Mof_C 	C 	0.4465	0.4526	0.7373	-0.108
Mof_C 	C 	0.45721	0.43942	0.75803	0.157
Mof_C 	C 	0.4756	0.4577	0.7921	-0.483
Mof_C 	C 	0.4486	0.3277	0.8185	-0.476
Mof_C 	C 	0.412	0.2827	0.7897	0.161
Mof_C 	C 	0.37668	0.22806	0.78414	-0.115
Mof_C 	C 	0.3553	0.207	0.7531	0.165
Mof_C 	C 	0.3142	0.1504	0.7338	-0.483
Mof_C 	C 	0.7061	0.23	0.6635	-0.486
Mof_C 	C 	0.7368	0.2393	0.6897	0.16
Mof_C 	C 	0.736	0.2412	0.7204	-0.111
Mof_C 	C 	0.7721	0.2501	0.7342	0.157
Mof_C 	C 	0.7901	0.2583	0.7672	-0.464
Mof_C 	C 	0.962	0.368	0.7936	-0.468
Mof_C 	C 	0.98475	0.38191	0.76586	0.166
Mof_C 	C 	0.0372	0.421	0.7646	-0.108
Mof_C 	C 	0.0325	0.4141	0.733	0.153
Mof_C 	C 	0.076	0.4453	0.7175	-0.464
Mof_C 	C 	0.9951	0.4026	0.6117	-0.476
Mof_C 	C 	0.9406	0.3704	0.6104	0.158
Mof_C 	C 	0.9102	0.3649	0.5917	-0.121
Mof_C 	C 	0.8634	0.3299	0.6009	0.178
Mof_C 	C 	0.8147	0.3081	0.589	-0.478
Mof_C 	C 	0.456	0.7162	0.8808	-0.483
Mof_C 	C 	0.4013	0.6621	0.8616	0.161
Mof_C 	C 	0.3834	0.6247	0.8383	-0.114
Mof_C 	C 	0.327	0.582	0.8276	0.172
Mof_C 	C 	0.2862	0.531	0.8014	-0.479
Mof_C 	C 	0.1178	0.4331	0.7809	-0.488
Mof_C 	C 	0.1206	0.4656	0.7972	0.18
Mof_C 	C 	0.08616	0.4596	0.79056	-0.129
Mof_C 	C 	0.1095	0.5015	0.814	0.178
Mof_C 	C 	0.0915	0.5172	0.8183	-0.499
Mof_C 	C 	0.2511	0.6998	0.9039	-0.479
Mof_C 	C 	0.2985	0.71913	0.90583	0.17
Mof_C 	C 	0.35277	0.76954	0.92031	-0.111
Mof_C 	C 	0.37739	0.7629	0.91589	0.136
Mof_C 	C 	0.4363	0.8025	0.9248	-0.445
Mof_C 	C 	0.6063	0.7123	0.6822	-0.456
Mof_C 	C 	0.5924	0.7262	0.7022	0.143
Mof_C 	C 	0.6082	0.7694	0.7042	-0.101
Mof_C 	C 	0.5832	0.7619	0.7259	0.16
Mof_C 	C 	0.5838	0.7938	0.7378	-0.476
Mof_C 	C 	0.4749	0.7147	0.8052	-0.459
Mof_C 	C 	0.4526	0.6668	0.81	0.154
Mof_C 	C 	0.4148	0.6294	0.8254	-0.119
Mof_C 	C 	0.4079	0.5933	0.821	0.177
Mof_C 	C 	0.3744	0.5451	0.8325	-0.495
Mof_C 	C 	0.3876	0.4512	0.7762	-0.496
Mof_C 	C 	0.43	0.491	0.7608	0.171
Mof_C 	C 	0.4534	0.4904	0.744	-0.122
Mof_C 	C 	0.4865	0.53506	0.73196	0.159
Mof_C 	C 	0.5231	0.557	0.7115	-0.478
Mof_C 	C 	0.6719	0.8856	0.4989	-0.471
Mof_C 	C 	0.64	0.8638	0.5224	0.166
Mof_C 	C 	0.586	0.8237	0.5177	-0.124
Mof_C 	C 	0.5771	0.8186	0.5463	0.17
Mof_C 	C 	0.526	0.781	0.5556	-0.491
Mof_C 	C 	0.5641	0.7795	0.6566	-0.532
Mof_C 	C 	0.6182	0.8124	0.666	0.193
Mof_C 	C 	0.6396	0.8099	0.6871	-0.134
Mof_C 	C 	0.6934	0.8506	0.6864	0.173
Mof_C 	C 	0.7356	0.8662	0.704	-0.485
Mof_C 	C 	0.8735	0.9669	0.6428	-0.493
Mof_C 	C 	0.8559	0.9724	0.6177	0.178
Mof_C 	C 	0.8687	0.9824	0.5899	-0.121
Mof_C 	C 	0.8404	0.9822	0.5756	0.165
Mof_C 	C 	0.8395	0.9922	0.5455	-0.483
Mof_C 	C 	0.4381	0.8503	0.9888	-0.456
Mof_C 	C 	0.4212	0.857	0.9644	0.15
Mof_C 	C 	0.38188	0.82071	0.93579	-0.116
Mof_C 	C 	0.3829	0.84786	0.92336	0.17
Mof_C 	C 	0.3507	0.8308	0.8929	-0.476
Mof_C 	C 	0.4439	0.994	0.8705	-0.487
Mof_C 	C 	0.4938	0.0417	0.8969	0.16
Mof_C 	C 	0.53976	0.09816	0.89892	-0.109
Mof_C 	C 	0.5732	0.1236	0.9282	0.162
Mof_C 	C 	0.6288	0.1836	0.9432	-0.477
Mof_C 	C 	0.7199	0.1999	0.0302	-0.489
Mof_C 	C 	0.6806	0.1433	0.0299	0.174
Mof_C 	C 	0.686	0.1239	0.0479	-0.121
Mof_C 	C 	0.6356	0.06885	0.03925	0.154
Mof_C 	C 	0.6156	0.0244	0.049	-0.464
Mof_H 	H 	0.1407	0.162	0.6071	0.118
Mof_H 	H 	0.1742	0.1713	0.6343	0.131
Mof_H 	H 	0.205	0.2113	0.6129	0.131
Mof_H 	H 	0.141	0.041	0.5378	0.133
Mof_H 	H 	0.2048	0.1018	0.5486	0.143
Mof_H 	H 	0.1765	0.0642	0.5715	0.144
Mof_H 	H 	0.0451	0.5314	0.6007	0.128
Mof_H 	H 	0.0045	0.4917	0.6208	0.136
Mof_H 	H 	0.0375	0.4925	0.6096	0.14
Mof_H 	H 	0.8398	0.321	0.4982	0.123
Mof_H 	H 	0.8532	0.3028	0.5156	0.142
Mof_H 	H 	0.8183	0.299	0.5273	0.134
Mof_H 	H 	0.8284	0.8902	0.5118	0.124
Mof_H 	H 	0.8027	0.8767	0.5396	0.139
Mof_H 	H 	0.8131	0.9108	0.5197	0.137
Mof_H 	H 	0.0343	0.0971	0.616	0.118
Mof_H 	H 	0.0023	0.1009	0.6142	0.136
Mof_H 	H 	0.9883	0.0642	0.6335	0.13
Mof_H 	H 	0.5622	0.2056	0.8876	0.136
Mof_H 	H 	0.5154	0.149	0.8962	0.157
Mof_H 	H 	0.5776	0.1978	0.9154	0.146
Mof_H 	H 	0.5663	0.09	0.8149	0.123
Mof_H 	H 	0.5852	0.0962	0.8492	0.133
Mof_H 	H 	0.5217	0.0458	0.8319	0.134
Mof_H 	H 	0.6277	0.137	0.7717	0.118
Mof_H 	H 	0.6331	0.1277	0.7392	0.137
Mof_H 	H 	0.6841	0.1702	0.7691	0.134
Mof_H 	H 	0.7286	0.3269	0.7311	0.115
Mof_H 	H 	0.7761	0.343	0.7327	0.128
Mof_H 	H 	0.7258	0.301	0.7024	0.126
Mof_H 	H 	0.4686	0.2511	0.8495	0.125
Mof_H 	H 	0.463	0.251	0.8144	0.145
Mof_H 	H 	0.4767	0.29	0.8397	0.138
Mof_H 	H 	0.2327	0.098	0.8067	0.12
Mof_H 	H 	0.2663	0.1533	0.801	0.133
Mof_H 	H 	0.2499	0.1122	0.7755	0.133
Mof_H 	H 	0.3629	0.5511	0.4226	0.137
Mof_H 	H 	0.352	0.5139	0.3979	0.145
Mof_H 	H 	0.3041	0.4863	0.4116	0.156
Mof_H 	H 	0.2587	0.5227	0.3044	0.119
Mof_H 	H 	0.2107	0.4603	0.3042	0.133
Mof_H 	H 	0.2597	0.49	0.2909	0.131
Mof_H 	H 	0.1183	0.326	0.3133	0.117
Mof_H 	H 	0.1553	0.3848	0.3129	0.132
Mof_H 	H 	0.1521	0.3714	0.3449	0.125
Mof_H 	H 	0.3449	0.4595	0.3304	0.119
Mof_H 	H 	0.3567	0.4934	0.3593	0.134
Mof_H 	H 	0.3557	0.5022	0.3261	0.133
Mof_H 	H 	0.557	0.8565	0.4483	0.133
Mof_H 	H 	0.608	0.8809	0.4665	0.145
Mof_H 	H 	0.575	0.8743	0.4849	0.147
Mof_H 	H 	0.4509	0.6563	0.4752	0.124
Mof_H 	H 	0.4793	0.6944	0.5091	0.136
Mof_H 	H 	0.5146	0.7047	0.4907	0.138
Mof_H 	H 	0.7375	0.1555	0.2042	0.127
Mof_H 	H 	0.7489	0.1719	0.2404	0.14
Mof_H 	H 	0.7158	0.1152	0.2236	0.135
Mof_H 	H 	0.9424	0.252	0.251	0.135
Mof_H 	H 	0.9011	0.2027	0.2662	0.139
Mof_H 	H 	0.9346	0.2598	0.2828	0.151
Mof_H 	H 	0.7822	0.0734	0.28	0.119
Mof_H 	H 	0.8291	0.1236	0.2665	0.134
Mof_H 	H 	0.7664	0.0763	0.2489	0.136
Mof_H 	H 	0.7975	0.2171	0.328	0.125
Mof_H 	H 	0.784	0.208	0.2918	0.14
Mof_H 	H 	0.8455	0.255	0.3117	0.131
Mof_H 	H 	0.8492	0.2352	0.0522	0.121
Mof_H 	H 	0.8138	0.2334	0.0394	0.134
Mof_H 	H 	0.7911	0.1818	0.0271	0.132
Mof_H 	H 	0.7028	0.1303	0.1393	0.107
Mof_H 	H 	0.658	0.0845	0.1073	0.122
Mof_H 	H 	0.6809	0.1367	0.116	0.12
Mof_H 	H 	0.2432	0.1164	0.6542	0.119
Mof_H 	H 	0.1889	0.0895	0.6424	0.129
Mof_H 	H 	0.2117	0.0884	0.6183	0.127
Mof_H 	H 	0.3377	0.3074	0.6191	0.13
Mof_H 	H 	0.2998	0.2635	0.5861	0.148
Mof_H 	H 	0.274	0.2616	0.6092	0.134
Mof_H 	H 	0.402	0.396	0.6614	0.11
Mof_H 	H 	0.3781	0.4043	0.6766	0.127
Mof_H 	H 	0.4398	0.4561	0.6749	0.128
Mof_H 	H 	0.4796	0.4414	0.7996	0.124
Mof_H 	H 	0.5107	0.4975	0.799	0.137
Mof_H 	H 	0.4487	0.4463	0.8	0.134
Mof_H 	H 	0.4669	0.36	0.8137	0.118
Mof_H 	H 	0.4273	0.3165	0.8326	0.132
Mof_H 	H 	0.476	0.3366	0.8282	0.135
Mof_H 	H 	0.307	0.1479	0.7121	0.123
Mof_H 	H 	0.3285	0.1425	0.737	0.14
Mof_H 	H 	0.2803	0.124	0.7397	0.136
Mof_H 	H 	0.7163	0.2313	0.645	0.126
Mof_H 	H 	0.6669	0.1941	0.66	0.142
Mof_H 	H 	0.7148	0.2583	0.6681	0.137
Mof_H 	H 	0.8164	0.2641	0.7695	0.116
Mof_H 	H 	0.8073	0.2901	0.7802	0.131
Mof_H 	H 	0.7584	0.2258	0.7734	0.13
Mof_H 	H 	0.9225	0.3375	0.7864	0.123
Mof_H 	H 	0.9701	0.3577	0.8058	0.139
Mof_H 	H 	0.9789	0.3998	0.8063	0.13
Mof_H 	H 	0.0598	0.4304	0.6952	0.119
Mof_H 	H 	0.1023	0.4837	0.7236	0.13
Mof_H 	H 	0.0948	0.4425	0.7235	0.127
Mof_H 	H 	0.0046	0.397	0.6278	0.123
Mof_H 	H 	0.9935	0.3905	0.5918	0.131
Mof_H 	H 	0.0228	0.4414	0.616	0.132
Mof_H 	H 	0.7882	0.2835	0.6005	0.121
Mof_H 	H 	0.8262	0.3385	0.5915	0.133
Mof_H 	H 	0.798	0.2882	0.5672	0.136
Mof_H 	H 	0.4539	0.7318	0.8947	0.123
Mof_H 	H 	0.4789	0.7399	0.8678	0.136
Mof_H 	H 	0.4719	0.713	0.8929	0.134
Mof_H 	H 	0.2497	0.5085	0.7996	0.122
Mof_H 	H 	0.2865	0.5105	0.8054	0.137
Mof_H 	H 	0.2957	0.5408	0.7823	0.136
Mof_H 	H 	0.1487	0.4473	0.7918	0.123
Mof_H 	H 	0.1195	0.4362	0.7599	0.134
Mof_H 	H 	0.0835	0.3948	0.7803	0.14
Mof_H 	H 	0.1162	0.5478	0.8368	0.129
Mof_H 	H 	0.0544	0.486	0.8204	0.141
Mof_H 	H 	0.0919	0.5279	0.8004	0.141
Mof_H 	H 	0.2174	0.6616	0.8916	0.125
Mof_H 	H 	0.2567	0.7221	0.8942	0.135
Mof_H 	H 	0.2481	0.7031	0.9246	0.143
Mof_H 	H 	0.4383	0.7834	0.9175	0.109
Mof_H 	H 	0.4512	0.8175	0.9471	0.124
Mof_H 	H 	0.4574	0.8322	0.9152	0.125
Mof_H 	H 	0.5895	0.6801	0.6856	0.118
Mof_H 	H 	0.646	0.7432	0.6876	0.127
Mof_H 	H 	0.5926	0.7048	0.6606	0.13
Mof_H 	H 	0.5615	0.7775	0.7522	0.123
Mof_H 	H 	0.5688	0.7935	0.7207	0.132
Mof_H 	H 	0.6213	0.8315	0.7484	0.141
Mof_H 	H 	0.5015	0.7336	0.7935	0.115
Mof_H 	H 	0.4925	0.7399	0.8252	0.129
Mof_H 	H 	0.4449	0.7015	0.7938	0.127
Mof_H 	H 	0.3792	0.5288	0.825	0.132
Mof_H 	H 	0.3358	0.5181	0.8251	0.14
Mof_H 	H 	0.3859	0.5565	0.855	0.146
Mof_H 	H 	0.3798	0.4635	0.7861	0.128
Mof_H 	H 	0.4003	0.4477	0.7916	0.14
Mof_H 	H 	0.3543	0.4156	0.7609	0.141
Mof_H 	H 	0.5411	0.5897	0.708	0.124
Mof_H 	H 	0.5012	0.5293	0.6919	0.134
Mof_H 	H 	0.5508	0.5665	0.7217	0.145
Mof_H 	H 	0.7103	0.9145	0.5094	0.126
Mof_H 	H 	0.657	0.8559	0.4847	0.132
Mof_H 	H 	0.6687	0.9004	0.4873	0.136
Mof_H 	H 	0.5344	0.789	0.578	0.129
Mof_H 	H 	0.5097	0.786	0.5483	0.14
Mof_H 	H 	0.5003	0.7433	0.5466	0.138
Mof_H 	H 	0.5624	0.7916	0.6408	0.141
Mof_H 	H 	0.5373	0.7412	0.6483	0.151
Mof_H 	H 	0.556	0.7834	0.6744	0.154
Mof_H 	H 	0.7694	0.8965	0.6981	0.123
Mof_H 	H 	0.7426	0.8776	0.726	0.137
Mof_H 	H 	0.7226	0.8348	0.6992	0.133
Mof_H 	H 	0.857	0.9592	0.6592	0.13
Mof_H 	H 	0.8616	0.9367	0.6345	0.137
Mof_H 	H 	0.9132	0.0008	0.6508	0.142
Mof_H 	H 	0.8152	0.9889	0.5417	0.124
Mof_H 	H 	0.8764	0.029	0.546	0.138
Mof_H 	H 	0.8262	0.9653	0.5291	0.133
Mof_H 	H 	0.4664	0.8833	0.0063	0.115
Mof_H 	H 	0.4066	0.8189	0.9957	0.124
Mof_H 	H 	0.4526	0.8444	0.9806	0.124
Mof_H 	H 	0.3614	0.86	0.8912	0.121
Mof_H 	H 	0.3581	0.824	0.8763	0.134
Mof_H 	H 	0.3117	0.7975	0.8912	0.137
Mof_H 	H 	0.4192	0.9603	0.8763	0.125
Mof_H 	H 	0.4256	0.9973	0.8651	0.135
Mof_H 	H 	0.4544	0.9935	0.8529	0.134
Mof_H 	H 	0.6421	0.1889	0.9642	0.121
Mof_H 	H 	0.6539	0.1977	0.9314	0.134
Mof_H 	H 	0.6263	0.203	0.9437	0.134
Mof_H 	H 	0.7031	0.1991	0.0144	0.128
Mof_H 	H 	0.73	0.2195	0.0505	0.144
Mof_H 	H 	0.7526	0.2185	0.0261	0.138
Mof_H 	H 	0.577	0.9889	0.0383	0.118
Mof_H 	H 	0.6367	0.0252	0.0441	0.134
Mof_H 	H 	0.6203	0.0306	0.0713	0.127
Mof_Ag	Ag	0.97557	0.54171	0.48314	0.416
Mof_Ag	Ag	0.01942	0.54113	0.54783	0.34
Mof_Ag	Ag	0.91887	0.40714	0.98405	0.345
Mof_Ag	Ag	0.26671	0.10074	0.86427	0.354
Mof_Ag	Ag	0.31196	0.10794	0.9313	0.328
Mof_Ag	Ag	0.39157	0.17005	0.88232	0.43
Mof_Ag	Ag	0.48532	0.90225	0.26127	0.353
Mof_Ag	Ag	0.49578	0.84611	0.21997	0.326
Mof_Ag	Ag	0.55243	0.9559	0.20663	0.422
Mof_Ag	Ag	0.14373	0.30662	0.11185	0.331
Mof_Ag	Ag	0.22861	0.41796	0.16689	0.35
Mof_Ag	Ag	0.27449	0.38939	0.14064	0.426
Mof_Ag	Ag	0.14794	0.84359	0.61409	0.34
Mof_Ag	Ag	0.20686	0.88542	0.55896	0.346
Mof_Ag	Ag	0.18162	0.93414	0.5827	0.427
Mof_Ag	Ag	0.66227	0.31555	0.0402	0.401
Mof_Ag	Ag	0.64666	0.36942	0.07254	0.374
Mof_Ag	Ag	0.771	0.44348	0.0937	0.307
Mof_Ag	Ag	0.96434	0.84758	0.1718	0.314
Mof_Ag	Ag	0.90052	0.73689	0.18735	0.384
Mof_Ag	Ag	0.85508	0.72034	0.11596	0.387
Mof_Ag	Ag	0.29134	0.02275	0.39371	0.352
Mof_Ag	Ag	0.24608	0.01339	0.32679	0.357
Mof_Ag	Ag	0.1603	0.94308	0.3736	0.373
Mof_Ag	Ag	0.665	0.24091	0.30617	0.359
Mof_Ag	Ag	0.53304	0.14532	0.28412	0.374
Mof_Ag	Ag	0.62141	0.26688	0.34003	0.38
Mof_Ag	Ag	0.02512	0.01994	0.0403	0.312
Mof_Ag	Ag	0.02298	0.9581	0.99116	0.381
Mof_Ag	Ag	0.10727	0.08716	0.99315	0.394
Mof_N 	N 	0.043	0.61328	0.51848	-0.203
Mof_N 	N 	0.0575	0.6118	0.5453	-0.203
Mof_N 	N 	0.9223	0.4739	0.0066	-0.211
Mof_N 	N 	0.89962	0.42797	0.00799	-0.207
Mof_N 	N 	0.8799	0.42396	0.45066	-0.203
Mof_N 	N 	0.9028	0.47032	0.45052	-0.202
Mof_N 	N 	0.22462	0.073	0.89662	-0.205
Mof_N 	N 	0.24095	0.07236	0.92271	-0.208
Mof_N 	N 	0.38844	0.15311	0.94315	-0.197
Mof_N 	N 	0.41976	0.17548	0.92364	-0.195
Mof_N 	N 	0.02351	0.86852	0.69283	-0.205
Mof_N 	N 	0.97975	0.81509	0.67504	-0.199
Mof_N 	N 	0.45405	0.83789	0.27134	-0.211
Mof_N 	N 	0.45803	0.81563	0.25406	-0.21
Mof_N 	N 	0.38125	0.69299	0.34084	-0.198
Mof_N 	N 	0.42747	0.7427	0.36197	-0.203
Mof_N 	N 	0.54783	0.991	0.23143	-0.209
Mof_N 	N 	0.5188	0.9678	0.2524	-0.202
Mof_N 	N 	0.11732	0.32525	0.12377	-0.213
Mof_N 	N 	0.15225	0.37078	0.14823	-0.209
Mof_N 	N 	0.96583	0.27886	0.16129	-0.204
Mof_N 	N 	0.95824	0.28193	0.13257	-0.203
Mof_N 	N 	0.21555	0.31367	0.10902	-0.19
Mof_N 	N 	0.1655	0.28315	0.10005	-0.197
Mof_N 	N 	0.15324	0.80608	0.59452	-0.207
Mof_N 	N 	0.18139	0.8264	0.57319	-0.205
Mof_N 	N 	0.21924	0.93008	0.53552	-0.2
Mof_N 	N 	0.20641	0.94816	0.54317	-0.198
Mof_N 	N 	0.14693	0.90957	0.6187	-0.199
Mof_N 	N 	0.13449	0.87389	0.63058	-0.205
Mof_N 	N 	0.58764	0.27382	0.02486	-0.197
Mof_N 	N 	0.58111	0.29481	0.03972	-0.2
Mof_N 	N 	0.71222	0.45072	0.09774	-0.197
Mof_N 	N 	0.762	0.4796	0.1074	-0.203
Mof_N 	N 	0.78305	0.41254	0.07299	-0.203
Mof_N 	N 	0.74052	0.364	0.04932	-0.203
Mof_N 	N 	0.99406	0.85734	0.2148	-0.202
Mof_N 	N 	0.96898	0.811	0.21918	-0.203
Mof_N 	N 	0.83945	0.66151	0.15556	-0.208
Mof_N 	N 	0.82161	0.65418	0.12559	-0.206
Mof_N 	N 	0.89726	0.78956	0.10542	-0.2
Mof_N 	N 	0.93943	0.83891	0.12794	-0.204
Mof_N 	N 	0.3404	0.0612	0.3644	-0.202
Mof_N 	N 	0.32003	0.0552	0.33703	-0.205
Mof_N 	N 	0.16977	0.96707	0.31324	-0.21
Mof_N 	N 	0.13502	0.9392	0.33142	-0.205
Mof_N 	N 	0.1889	0.94801	0.41451	-0.207
Mof_N 	N 	0.24147	0.98297	0.42244	-0.205
Mof_N 	N 	0.61163	0.16406	0.28109	-0.202
Mof_N 	N 	0.5581	0.1256	0.2693	-0.204
Mof_N 	N 	0.50487	0.15745	0.30492	-0.208
Mof_N 	N 	0.53682	0.20282	0.32784	-0.205
Mof_N 	N 	0.70175	0.32108	0.35683	-0.203
Mof_N 	N 	0.7183	0.3118	0.3405	-0.209
Mof_N 	N 	0.97493	0.94349	0.04062	-0.207
Mof_N 	N 	0.97734	0.91964	0.02258	-0.197
Mof_N 	N 	0.07748	0.00129	0.96477	-0.2
Mof_N 	N 	0.10773	0.0503	0.96343	-0.202
Mof_N 	N 	0.11718	0.12885	0.02823	-0.197
Mof_N 	N 	0.08423	0.10156	0.04679	-0.201
Mof_C 	C 	0.0576	0.671	0.4974	-0.471
Mof_C 	C 	0.0685	0.6602	0.5233	0.171
Mof_C 	C 	0.0986	0.6905	0.5531	-0.129
Mof_C 	C 	0.0935	0.6603	0.5672	0.181
Mof_C 	C 	0.1163	0.6716	0.5981	-0.517
Mof_C 	C 	0.915	0.519	0.0234	-0.491
Mof_C 	C 	0.8983	0.4742	0.0213	0.174
Mof_C 	C 	0.8589	0.4282	0.0319	-0.124
Mof_C 	C 	0.8613	0.4005	0.0226	0.159
Mof_C 	C 	0.83	0.3483	0.0283	-0.475
Mof_C 	C 	0.7985	0.3269	0.423	-0.491
Mof_C 	C 	0.8325	0.382	0.4271	0.168
Mof_C 	C 	0.8249	0.4007	0.4122	-0.115
Mof_C 	C 	0.8696	0.4562	0.428	0.157
Mof_C 	C 	0.884	0.4991	0.4221	-0.463
Mof_C 	C 	0.15802	0.053	0.87342	-0.522
Mof_C 	C 	0.18463	0.05857	0.8992	0.19
Mof_C 	C 	0.17541	0.0495	0.92791	-0.124
Mof_C 	C 	0.2125	0.05958	0.94168	0.147
Mof_C 	C 	0.2234	0.058	0.9736	-0.47
Mof_C 	C 	0.3937	0.1523	0.9976	-0.477
Mof_C 	C 	0.41772	0.1701	0.97142	0.157
Mof_C 	C 	0.4694	0.20481	0.97021	-0.109
Mof_C 	C 	0.4689	0.2067	0.9394	0.156
Mof_C 	C 	0.5119	0.2369	0.9234	-0.457
Mof_C 	C 	0.1231	0.9564	0.7021	-0.497
Mof_C 	C 	0.0696	0.8976	0.6868	0.173
Mof_C 	C 	0.05559	0.8626	0.66359	-0.121
Mof_C 	C 	0.0006	0.81278	0.65678	0.164
Mof_C 	C 	0.9634	0.761	0.6336	-0.477
Mof_C 	C 	0.4307	0.8359	0.3176	-0.515
Mof_C 	C 	0.4386	0.8186	0.2952	0.192
Mof_C 	C 	0.43	0.7817	0.2943	-0.134
Mof_C 	C 	0.4432	0.7811	0.2683	0.152
Mof_C 	C 	0.4432	0.7499	0.2549	-0.467
Mof_C 	C 	0.3284	0.6522	0.2872	-0.473
Mof_C 	C 	0.37481	0.6994	0.31461	0.162
Mof_C 	C 	0.41806	0.7549	0.31796	-0.112
Mof_C 	C 	0.4495	0.7801	0.3484	0.171
Mof_C 	C 	0.5022	0.8394	0.364	-0.478
Mof_C 	C 	0.6053	0.0718	0.2135	-0.513
Mof_C 	C 	0.5692	0.0353	0.2323	0.178
Mof_C 	C 	0.5542	0.0426	0.2546	-0.112
Mof_C 	C 	0.5215	0.9974	0.2661	0.161
Mof_C 	C 	0.4956	0.9844	0.291	-0.482
Mof_C 	C 	0.0216	0.2454	0.092	-0.484
Mof_C 	C 	0.06924	0.29824	0.11748	0.16
Mof_C 	C 	0.0718	0.3254	0.1374	-0.128
Mof_C 	C 	0.1258	0.3719	0.1565	0.18
Mof_C 	C 	0.1533	0.4162	0.1821	-0.504
Mof_C 	C 	0.0239	0.293	0.1951	-0.478
Mof_C 	C 	0.0079	0.2949	0.1666	0.161
Mof_C 	C 	0.0274	0.3077	0.1407	-0.113
Mof_C 	C 	0.9954	0.29955	0.11975	0.167
Mof_C 	C 	0.9979	0.3072	0.0891	-0.491
Mof_C 	C 	0.2671	0.3122	0.1003	-0.468
Mof_C 	C 	0.2152	0.2853	0.0959	0.156
Mof_C 	C 	0.1612	0.2333	0.0787	-0.102
Mof_C 	C 	0.1325	0.2351	0.0814	0.145
Mof_C 	C 	0.0726	0.1902	0.0666	-0.447
Mof_C 	C 	0.0844	0.7219	0.6121	-0.46
Mof_C 	C 	0.1214	0.7553	0.5921	0.143
Mof_C 	C 	0.1308	0.7439	0.5683	-0.11
Mof_C 	C 	0.1687	0.7896	0.5571	0.169
Mof_C 	C 	0.1936	0.8013	0.5319	-0.487
Mof_C 	C 	0.2329	0.9106	0.4911	-0.45
Mof_C 	C 	0.2205	0.9295	0.5068	0.153
Mof_C 	C 	0.2092	0.9465	0.4939	-0.108
Mof_C 	C 	0.19918	0.95721	0.51779	0.158
Mof_C 	C 	0.1835	0.9756	0.5179	-0.484
Mof_C 	C 	0.1301	0.9486	0.6209	-0.476
Mof_C 	C 	0.1223	0.912	0.6293	0.161
Mof_C 	C 	0.09254	0.87668	0.64862	-0.115
Mof_C 	C 	0.1022	0.8553	0.6483	0.165
Mof_C 	C 	0.0804	0.8142	0.6638	-0.483
Mof_C 	C 	0.5426	0.2061	0.9761	-0.486
Mof_C 	C 	0.5471	0.2368	0.9975	0.16
Mof_C 	C 	0.5156	0.236	0.9948	-0.112
Mof_C 	C 	0.5379	0.2721	0.022	0.157
Mof_C 	C 	0.5229	0.2901	0.0318	-0.464
Mof_C 	C 	0.6684	0.462	0.094	-0.468
Mof_C 	C 	0.71889	0.48475	0.10284	0.166
Mof_C 	C 	0.7726	0.5372	0.1162	-0.108
Mof_C 	C 	0.7995	0.5325	0.1184	0.153
Mof_C 	C 	0.8585	0.576	0.1307	-0.464
Mof_C 	C 	0.8834	0.4951	0.0925	-0.475
Mof_C 	C 	0.8302	0.4406	0.0702	0.158
Mof_C 	C 	0.8185	0.4102	0.0453	-0.121
Mof_C 	C 	0.7625	0.3634	0.0335	0.178
Mof_C 	C 	0.7257	0.3147	0.0066	-0.477
Mof_C 	C 	0.0752	0.956	0.2398	-0.483
Mof_C 	C 	0.0397	0.9013	0.2392	0.16
Mof_C 	C 	0.0451	0.8834	0.2587	-0.114
Mof_C 	C 	0.9994	0.827	0.245	0.172
Mof_C 	C 	0.9848	0.7862	0.2552	-0.478
Mof_C 	C 	0.8369	0.6178	0.1847	-0.488
Mof_C 	C 	0.8234	0.6206	0.155	0.18
Mof_C 	C 	0.7956	0.58616	0.12656	-0.129
Mof_C 	C 	0.7955	0.6095	0.108	0.178
Mof_C 	C 	0.7732	0.5915	0.0743	-0.499
Mof_C 	C 	0.8472	0.7511	0.0513	-0.479
Mof_C 	C 	0.89267	0.7985	0.07937	0.17
Mof_C 	C 	0.93246	0.85277	0.08323	-0.112
Mof_C 	C 	0.9615	0.87739	0.11449	0.136
Mof_C 	C 	0.0115	0.9363	0.1338	-0.445
Mof_C 	C 	0.4241	0.1063	0.394	-0.456
Mof_C 	C 	0.3902	0.0924	0.3662	0.143
Mof_C 	C 	0.404	0.1082	0.3388	-0.101
Mof_C 	C 	0.3573	0.0832	0.3213	0.16
Mof_C 	C 	0.346	0.0838	0.29	-0.476
Mof_C 	C 	0.1697	0.9749	0.2602	-0.461
Mof_C 	C 	0.1426	0.9526	0.2858	0.154
Mof_C 	C 	0.0894	0.9148	0.2854	-0.119
Mof_C 	C 	0.0869	0.9079	0.3146	0.177
Mof_C 	C 	0.0419	0.8744	0.3293	-0.495
Mof_C 	C 	0.1114	0.8876	0.4364	-0.496
Mof_C 	C 	0.1692	0.93	0.439	0.17
Mof_C 	C 	0.2094	0.9534	0.463	-0.122
Mof_C 	C 	0.25454	0.9865	0.45144	0.159
Mof_C 	C 	0.3116	0.0231	0.4661	-0.477
Mof_C 	C 	0.673	0.1719	0.2863	-0.471
Mof_C 	C 	0.6176	0.14	0.2762	0.166
Mof_C 	C 	0.5683	0.086	0.2623	-0.124
Mof_C 	C 	0.5308	0.0771	0.2585	0.17
Mof_C 	C 	0.4704	0.026	0.245	-0.491
Mof_C 	C 	0.4075	0.0641	0.2846	-0.532
Mof_C 	C 	0.4522	0.1182	0.3058	0.193
Mof_C 	C 	0.4525	0.1396	0.3297	-0.134
Mof_C 	C 	0.507	0.1934	0.3428	0.173
Mof_C 	C 	0.5316	0.2356	0.3694	-0.485
Mof_C 	C 	0.7307	0.3735	0.4066	-0.494
Mof_C 	C 	0.7382	0.3559	0.3835	0.178
Mof_C 	C 	0.7788	0.3687	0.3863	-0.122
Mof_C 	C 	0.7648	0.3404	0.3582	0.165
Mof_C 	C 	0.794	0.3395	0.3473	-0.484
Mof_C 	C 	0.9493	0.9381	0.0878	-0.456
Mof_C 	C 	0.9568	0.9212	0.0642	0.15
Mof_C 	C 	0.94609	0.88188	0.06117	-0.116
Mof_C 	C 	0.95954	0.8829	0.03504	0.17
Mof_C 	C 	0.9578	0.8507	0.0199	-0.477
Mof_C 	C 	0.0734	0.9439	0.9499	-0.486
Mof_C 	C 	0.0969	0.9938	0.9521	0.159
Mof_C 	C 	0.14084	0.03976	0.9416	-0.108
Mof_C 	C 	0.145	0.0732	0.9496	0.162
Mof_C 	C 	0.1856	0.1288	0.9452	-0.477
Mof_C 	C 	0.1897	0.2199	0.02	-0.489
Mof_C 	C 	0.1507	0.1806	0.0373	0.174
Mof_C 	C 	0.1381	0.186	0.0621	-0.121
Mof_C 	C 	0.09635	0.1356	0.06675	0.154
Mof_C 	C 	0.0666	0.1156	0.0912	-0.464
Mof_H 	H 	0.0336	0.6407	0.4787	0.118
Mof_H 	H 	0.0399	0.6742	0.5029	0.131
Mof_H 	H 	0.0921	0.705	0.4937	0.131
Mof_H 	H 	0.1032	0.641	0.6	0.133
Mof_H 	H 	0.1562	0.7048	0.603	0.143
Mof_H 	H 	0.105	0.6765	0.6123	0.144
Mof_H 	H 	0.9444	0.5451	0.0137	0.128
Mof_H 	H 	0.8837	0.5045	0.0128	0.136
Mof_H 	H 	0.9279	0.5375	0.045	0.14
Mof_H 	H 	0.8416	0.3398	0.0188	0.123
Mof_H 	H 	0.8376	0.3532	0.0504	0.142
Mof_H 	H 	0.791	0.3183	0.0193	0.134
Mof_H 	H 	0.8166	0.3284	0.4382	0.124
Mof_H 	H 	0.7631	0.3027	0.426	0.139
Mof_H 	H 	0.7934	0.3131	0.4023	0.137
Mof_H 	H 	0.9183	0.5343	0.4372	0.117
Mof_H 	H 	0.8881	0.5023	0.4014	0.135
Mof_H 	H 	0.8548	0.4883	0.4241	0.13
Mof_H 	H 	0.1746	0.0622	0.8566	0.136
Mof_H 	H 	0.1192	0.0154	0.8664	0.157
Mof_H 	H 	0.1622	0.0776	0.8798	0.146
Mof_H 	H 	0.2514	0.0663	0.9763	0.123
Mof_H 	H 	0.236	0.0852	0.989	0.133
Mof_H 	H 	0.1898	0.0217	0.9759	0.135
Mof_H 	H 	0.356	0.1277	0.9907	0.118
Mof_H 	H 	0.3939	0.1331	0.0054	0.137
Mof_H 	H 	0.415	0.1841	0.0139	0.134
Mof_H 	H 	0.4975	0.2286	0.9017	0.115
Mof_H 	H 	0.5434	0.2761	0.9331	0.128
Mof_H 	H 	0.5234	0.2258	0.9248	0.126
Mof_H 	H 	0.1191	0.9686	0.7175	0.125
Mof_H 	H 	0.1486	0.963	0.712	0.145
Mof_H 	H 	0.137	0.9767	0.6867	0.138
Mof_H 	H 	0.926	0.7327	0.6347	0.12
Mof_H 	H 	0.9653	0.7663	0.613	0.132
Mof_H 	H 	0.9744	0.7499	0.6377	0.133
Mof_H 	H 	0.4403	0.8629	0.3118	0.137
Mof_H 	H 	0.4541	0.852	0.3381	0.145
Mof_H 	H 	0.3925	0.8041	0.3178	0.156
Mof_H 	H 	0.4543	0.7587	0.236	0.119
Mof_H 	H 	0.4065	0.7107	0.2504	0.133
Mof_H 	H 	0.4688	0.7597	0.2697	0.131
Mof_H 	H 	0.305	0.6183	0.2923	0.117
Mof_H 	H 	0.3424	0.6553	0.2705	0.132
Mof_H 	H 	0.3072	0.6521	0.2807	0.125
Mof_H 	H 	0.5145	0.8449	0.3854	0.119
Mof_H 	H 	0.4974	0.8567	0.3633	0.134
Mof_H 	H 	0.5296	0.8557	0.3535	0.133
Mof_H 	H 	0.6087	0.057	0.2005	0.133
Mof_H 	H 	0.6415	0.108	0.2271	0.145
Mof_H 	H 	0.5901	0.075	0.2007	0.147
Mof_H 	H 	0.4757	0.9509	0.2946	0.124
Mof_H 	H 	0.4702	0.9793	0.2849	0.136
Mof_H 	H 	0.5239	0.0146	0.3099	0.138
Mof_H 	H 	0.0333	0.2375	0.082	0.126
Mof_H 	H 	0.0085	0.2489	0.077	0.14
Mof_H 	H 	0.9922	0.2158	0.1006	0.134
Mof_H 	H 	0.1914	0.4424	0.1904	0.135
Mof_H 	H 	0.1349	0.4011	0.1984	0.139
Mof_H 	H 	0.1518	0.4346	0.1748	0.151
Mof_H 	H 	0.0022	0.2822	0.2088	0.119
Mof_H 	H 	0.0626	0.3291	0.2055	0.134
Mof_H 	H 	0.0175	0.2664	0.1901	0.136
Mof_H 	H 	0.9695	0.2975	0.0804	0.125
Mof_H 	H 	0.9922	0.284	0.076	0.14
Mof_H 	H 	0.0338	0.3455	0.0905	0.131
Mof_H 	H 	0.297	0.3492	0.114	0.121
Mof_H 	H 	0.2744	0.3138	0.0804	0.134
Mof_H 	H 	0.264	0.2911	0.1093	0.132
Mof_H 	H 	0.0635	0.2028	0.0725	0.107
Mof_H 	H 	0.0507	0.158	0.0735	0.122
Mof_H 	H 	0.0649	0.1809	0.0442	0.12
Mof_H 	H 	0.089	0.7432	0.6268	0.118
Mof_H 	H 	0.0465	0.6889	0.5994	0.129
Mof_H 	H 	0.0934	0.7117	0.6233	0.127
Mof_H 	H 	0.2186	0.8377	0.5303	0.13
Mof_H 	H 	0.2137	0.7998	0.5363	0.148
Mof_H 	H 	0.1648	0.774	0.5124	0.134
Mof_H 	H 	0.2406	0.902	0.506	0.11
Mof_H 	H 	0.2015	0.8781	0.4738	0.127
Mof_H 	H 	0.2649	0.9398	0.4837	0.128
Mof_H 	H 	0.18	0.9796	0.5382	0.124
Mof_H 	H 	0.2117	0.0107	0.5132	0.138
Mof_H 	H 	0.1487	0.9487	0.5024	0.134
Mof_H 	H 	0.1532	0.9669	0.6069	0.118
Mof_H 	H 	0.0947	0.9273	0.6108	0.132
Mof_H 	H 	0.1478	0.976	0.6394	0.135
Mof_H 	H 	0.0949	0.807	0.6591	0.123
Mof_H 	H 	0.0915	0.8285	0.686	0.14
Mof_H 	H 	0.0406	0.7803	0.6563	0.136
Mof_H 	H 	0.5713	0.2163	0.985	0.126
Mof_H 	H 	0.5069	0.1669	0.9728	0.142
Mof_H 	H 	0.5467	0.2148	0.9565	0.137
Mof_H 	H 	0.5469	0.3164	0.0523	0.116
Mof_H 	H 	0.5271	0.3073	0.0172	0.131
Mof_H 	H 	0.485	0.2584	0.0326	0.13
Mof_H 	H 	0.6361	0.4225	0.085	0.123
Mof_H 	H 	0.6643	0.4701	0.1124	0.139
Mof_H 	H 	0.6726	0.4789	0.0791	0.13
Mof_H 	H 	0.8646	0.5598	0.1294	0.119
Mof_H 	H 	0.8787	0.6023	0.1186	0.13
Mof_H 	H 	0.8713	0.5948	0.1523	0.127
Mof_H 	H 	0.8768	0.5046	0.1076	0.122
Mof_H 	H 	0.9017	0.4935	0.103	0.131
Mof_H 	H 	0.9068	0.5228	0.0814	0.132
Mof_H 	H 	0.6877	0.2882	0.0047	0.121
Mof_H 	H 	0.7347	0.3262	0.9877	0.133
Mof_H 	H 	0.7308	0.298	0.0098	0.135
Mof_H 	H 	0.0592	0.9539	0.2221	0.123
Mof_H 	H 	0.1111	0.9789	0.239	0.135
Mof_H 	H 	0.079	0.9719	0.2589	0.133
Mof_H 	H 	0.9501	0.7497	0.2412	0.122
Mof_H 	H 	0.9811	0.7865	0.276	0.137
Mof_H 	H 	0.0134	0.7957	0.2549	0.135
Mof_H 	H 	0.8569	0.6487	0.2014	0.123
Mof_H 	H 	0.8596	0.6195	0.1833	0.134
Mof_H 	H 	0.8032	0.5835	0.1887	0.139
Mof_H 	H 	0.7794	0.6162	0.0684	0.129
Mof_H 	H 	0.734	0.5544	0.0684	0.141
Mof_H 	H 	0.7915	0.5919	0.064	0.141
Mof_H 	H 	0.8258	0.7174	0.0558	0.125
Mof_H 	H 	0.8625	0.7567	0.0346	0.135
Mof_H 	H 	0.8235	0.7481	0.045	0.143
Mof_H 	H 	0.0208	0.9383	0.1549	0.109
Mof_H 	H 	0.0041	0.9512	0.1337	0.124
Mof_H 	H 	0.0422	0.9574	0.1252	0.125
Mof_H 	H 	0.4039	0.0895	0.4094	0.118
Mof_H 	H 	0.4584	0.146	0.4028	0.127
Mof_H 	H 	0.432	0.0926	0.3878	0.13
Mof_H 	H 	0.3093	0.0615	0.284	0.123
Mof_H 	H 	0.3481	0.0688	0.2753	0.132
Mof_H 	H 	0.3729	0.1213	0.2898	0.141
Mof_H 	H 	0.208	0.0015	0.2679	0.116
Mof_H 	H 	0.1673	0.9925	0.2526	0.129
Mof_H 	H 	0.1511	0.9449	0.2434	0.127
Mof_H 	H 	0.0542	0.8792	0.3504	0.131
Mof_H 	H 	0.0107	0.8358	0.3177	0.14
Mof_H 	H 	0.0309	0.8859	0.3294	0.146
Mof_H 	H 	0.0937	0.8798	0.4163	0.128
Mof_H 	H 	0.1087	0.9003	0.4526	0.14
Mof_H 	H 	0.0934	0.8543	0.4387	0.141
Mof_H 	H 	0.3331	0.0411	0.4514	0.124
Mof_H 	H 	0.3093	0.0012	0.4719	0.134
Mof_H 	H 	0.3291	0.0508	0.4843	0.145
Mof_H 	H 	0.7009	0.2103	0.2958	0.126
Mof_H 	H 	0.6723	0.157	0.3011	0.132
Mof_H 	H 	0.6814	0.1687	0.2683	0.136
Mof_H 	H 	0.4564	0.0344	0.2454	0.129
Mof_H 	H 	0.4614	0.0097	0.2237	0.141
Mof_H 	H 	0.4537	0.0003	0.257	0.138
Mof_H 	H 	0.4216	0.0624	0.2708	0.141
Mof_H 	H 	0.389	0.0373	0.2961	0.151
Mof_H 	H 	0.3816	0.056	0.2726	0.154
Mof_H 	H 	0.5713	0.2694	0.3729	0.123
Mof_H 	H 	0.5166	0.2426	0.365	0.137
Mof_H 	H 	0.5234	0.2226	0.3878	0.133
Mof_H 	H 	0.6978	0.357	0.3978	0.131
Mof_H 	H 	0.7271	0.3616	0.4249	0.137
Mof_H 	H 	0.7624	0.4132	0.4124	0.143
Mof_H 	H 	0.7735	0.3152	0.3263	0.124
Mof_H 	H 	0.8304	0.3764	0.3474	0.139
Mof_H 	H 	0.7971	0.3262	0.3609	0.133
Mof_H 	H 	0.9601	0.9664	0.0831	0.116
Mof_H 	H 	0.9109	0.9066	0.0877	0.124
Mof_H 	H 	0.972	0.9526	0.1082	0.125
Mof_H 	H 	0.9702	0.8614	0.0014	0.122
Mof_H 	H 	0.9818	0.8581	0.0341	0.135
Mof_H 	H 	0.9205	0.8117	0.0142	0.137
Mof_H 	H 	0.0429	0.9192	0.9589	0.125
Mof_H 	H 	0.0605	0.9256	0.9283	0.135
Mof_H 	H 	0.1015	0.9544	0.9609	0.134
Mof_H 	H 	0.1779	0.1421	0.9532	0.121
Mof_H 	H 	0.2225	0.1539	0.9562	0.134
Mof_H 	H 	0.1826	0.1263	0.9233	0.134
Mof_H 	H 	0.1887	0.2031	0.004	0.128
Mof_H 	H 	0.1795	0.23	0.0105	0.144
Mof_H 	H 	0.2265	0.2526	0.0341	0.138
Mof_H 	H 	0.0387	0.077	0.0881	0.118
Mof_H 	H 	0.0926	0.1367	0.1115	0.134
Mof_H 	H 	0.049	0.1203	0.0897	0.127
Mof_Ag	Ag	0.55857	0.49243	0.01686	0.416
Mof_Ag	Ag	0.4933	0.47159	0.95217	0.34
Mof_Ag	Ag	0.92309	0.93482	0.51595	0.346
Mof_Ag	Ag	0.73647	0.40244	0.63573	0.354
Mof_Ag	Ag	0.67664	0.38066	0.5687	0.328
Mof_Ag	Ag	0.78773	0.50925	0.61768	0.43
Mof_Ag	Ag	0.14098	0.22405	0.23873	0.353
Mof_Ag	Ag	0.12614	0.27581	0.28003	0.326
Mof_Ag	Ag	0.24927	0.3458	0.29337	0.422
Mof_Ag	Ag	0.69477	0.03188	0.38815	0.331
Mof_Ag	Ag	0.75107	0.06172	0.33311	0.35
Mof_Ag	Ag	0.74875	0.13385	0.35936	0.426
Mof_Ag	Ag	0.7295	0.53385	0.88591	0.34
Mof_Ag	Ag	0.82646	0.6479	0.94104	0.346
Mof_Ag	Ag	0.85144	0.59892	0.9173	0.427
Mof_Ag	Ag	0.77535	0.62207	0.4598	0.401
Mof_Ag	Ag	0.79688	0.57412	0.42746	0.374
Mof_Ag	Ag	0.84978	0.6773	0.4063	0.307
Mof_Ag	Ag	0.17578	0.79254	0.3282	0.314
Mof_Ag	Ag	0.04954	0.71317	0.31265	0.384
Mof_Ag	Ag	0.10438	0.73912	0.38404	0.387
Mof_Ag	Ag	0.12904	0.89763	0.10629	0.351
Mof_Ag	Ag	0.1866	0.91929	0.17321	0.356
Mof_Ag	Ag	0.06948	0.7867	0.1264	0.373
Mof_Ag	Ag	0.43474	0.35883	0.19383	0.359
Mof_Ag	Ag	0.3612	0.24892	0.21588	0.374
Mof_Ag	Ag	0.42685	0.28138	0.15997	0.38
Mof_Ag	Ag	0.47964	0.98482	0.4597	0.312
Mof_Ag	Ag	0.46694	0.03182	0.50884	0.382
Mof_Ag	Ag	0.59401	0.11412	0.50685	0.394
Mof_N 	N 	0.5948	0.52452	0.98152	-0.203
Mof_N 	N 	0.5665	0.5122	0.9547	-0.203
Mof_N 	N 	0.9673	0.9157	0.4934	-0.211
Mof_N 	N 	0.91998	0.89163	0.49201	-0.207
Mof_N 	N 	0.4733	0.42924	0.04934	-0.203
Mof_N 	N 	0.5198	0.45228	0.04948	-0.202
Mof_N 	N 	0.67638	0.328	0.60338	-0.205
Mof_N 	N 	0.64965	0.31824	0.57729	-0.208
Mof_N 	N 	0.70996	0.44529	0.55685	-0.197
Mof_N 	N 	0.75184	0.49612	0.57636	-0.195
Mof_N 	N 	0.67569	0.33068	0.80717	-0.205
Mof_N 	N 	0.64005	0.30471	0.82496	-0.2
Mof_N 	N 	0.06655	0.18271	0.22866	-0.211
Mof_N 	N 	0.06157	0.20397	0.24594	-0.21
Mof_N 	N 	0.85215	0.04041	0.15916	-0.198
Mof_N 	N 	0.88073	0.0655	0.13803	-0.203
Mof_N 	N 	0.25957	0.3164	0.26857	-0.209
Mof_N 	N 	0.2154	0.2664	0.2476	-0.202
Mof_N 	N 	0.70148	0.99355	0.37623	-0.212
Mof_N 	N 	0.72255	0.00402	0.35177	-0.21
Mof_N 	N 	0.61757	0.80454	0.33871	-0.204
Mof_N 	N 	0.64936	0.82567	0.36743	-0.203
Mof_N 	N 	0.70465	0.10653	0.39098	-0.19
Mof_N 	N 	0.6831	0.06545	0.39995	-0.197
Mof_N 	N 	0.71156	0.55872	0.90548	-0.207
Mof_N 	N 	0.75321	0.6082	0.92681	-0.205
Mof_N 	N 	0.89456	0.68372	0.96448	-0.2
Mof_N 	N 	0.90499	0.66324	0.95683	-0.198
Mof_N 	N 	0.79087	0.52823	0.8813	-0.199
Mof_N 	N 	0.74331	0.50391	0.86942	-0.205
Mof_N 	N 	0.74896	0.56278	0.47514	-0.197
Mof_N 	N 	0.75509	0.54139	0.46028	-0.2
Mof_N 	N 	0.85298	0.61448	0.40226	-0.197
Mof_N 	N 	0.8722	0.6546	0.3926	-0.203
Mof_N 	N 	0.83955	0.71006	0.42701	-0.203
Mof_N 	N 	0.81468	0.6912	0.45068	-0.203
Mof_N 	N 	0.14254	0.77926	0.2852	-0.202
Mof_N 	N 	0.09182	0.7498	0.28082	-0.203
Mof_N 	N 	0.00595	0.68389	0.34444	-0.208
Mof_N 	N 	0.02859	0.69602	0.37441	-0.206
Mof_N 	N 	0.18414	0.79184	0.39458	-0.2
Mof_N 	N 	0.21097	0.81149	0.37206	-0.204
Mof_N 	N 	0.1968	0.976	0.1356	-0.202
Mof_N 	N 	0.21817	0.983	0.16297	-0.205
Mof_N 	N 	0.15383	0.85653	0.18676	-0.21
Mof_N 	N 	0.10778	0.8036	0.16858	-0.205
Mof_N 	N 	0.0335	0.77439	0.08549	-0.207
Mof_N 	N 	0.06053	0.81903	0.07756	-0.205
Mof_N 	N 	0.38297	0.33054	0.21891	-0.202
Mof_N 	N 	0.3563	0.2888	0.2307	-0.204
Mof_N 	N 	0.35253	0.19995	0.19508	-0.208
Mof_N 	N 	0.37498	0.20898	0.17216	-0.205
Mof_N 	N 	0.46425	0.34492	0.14317	-0.203
Mof_N 	N 	0.4713	0.3778	0.1595	-0.209
Mof_N 	N 	0.40287	0.93431	0.45938	-0.207
Mof_N 	N 	0.39706	0.95476	0.47742	-0.197
Mof_N 	N 	0.53652	0.11271	0.53523	-0.2
Mof_N 	N 	0.58687	0.1443	0.53657	-0.202
Mof_N 	N 	0.60062	0.08895	0.47177	-0.197
Mof_N 	N 	0.55477	0.03744	0.45321	-0.201
Mof_C 	C 	0.6736	0.5602	0.0026	-0.471
Mof_C 	C 	0.6369	0.5452	0.9767	0.171
Mof_C 	C 	0.6374	0.5455	0.9469	-0.129
Mof_C 	C 	0.5931	0.5263	0.9328	0.181
Mof_C 	C 	0.5735	0.5182	0.9019	-0.517
Mof_C 	C 	0.9956	0.8916	0.4766	-0.489
Mof_C 	C 	0.9529	0.877	0.4787	0.174
Mof_C 	C 	0.8963	0.827	0.4681	-0.123
Mof_C 	C 	0.8779	0.8387	0.4774	0.159
Mof_C 	C 	0.82	0.8017	0.4717	-0.475
Mof_C 	C 	0.4039	0.3755	0.077	-0.491
Mof_C 	C 	0.4549	0.4054	0.0729	0.168
Mof_C 	C 	0.4885	0.4127	0.0878	-0.115
Mof_C 	C 	0.5282	0.4416	0.072	0.157
Mof_C 	C 	0.577	0.4619	0.0779	-0.463
Mof_C 	C 	0.67958	0.2846	0.62658	-0.521
Mof_C 	C 	0.65937	0.28543	0.6008	0.189
Mof_C 	C 	0.62159	0.2475	0.57209	-0.124
Mof_C 	C 	0.6179	0.27082	0.55832	0.147
Mof_C 	C 	0.5844	0.2498	0.5264	-0.47
Mof_C 	C 	0.6547	0.3961	0.5024	-0.477
Mof_C 	C 	0.69868	0.4463	0.52858	0.157
Mof_C 	C 	0.7346	0.49919	0.52979	-0.109
Mof_C 	C 	0.7673	0.5295	0.5606	0.156
Mof_C 	C 	0.8135	0.5885	0.5766	-0.457
Mof_C 	C 	0.7543	0.421	0.7979	-0.497
Mof_C 	C 	0.7108	0.3828	0.8132	0.173
Mof_C 	C 	0.69901	0.392	0.83641	-0.121
Mof_C 	C 	0.656	0.34382	0.84322	0.165
Mof_C 	C 	0.6274	0.3298	0.8664	-0.477
Mof_C 	C 	0.0183	0.1131	0.1824	-0.515
Mof_C 	C 	0.0234	0.1434	0.2048	0.192
Mof_C 	C 	0.9874	0.1357	0.2057	-0.135
Mof_C 	C 	0.0128	0.1749	0.2317	0.153
Mof_C 	C 	0.995	0.1883	0.2451	-0.469
Mof_C 	C 	0.865	0.0412	0.2128	-0.473
Mof_C 	C 	0.88479	0.0602	0.18539	0.162
Mof_C 	C 	0.93694	0.1001	0.18204	-0.112
Mof_C 	C 	0.9317	0.1011	0.1516	0.171
Mof_C 	C 	0.9754	0.1382	0.136	-0.478
Mof_C 	C 	0.3583	0.3918	0.2865	-0.513
Mof_C 	C 	0.303	0.3369	0.2677	0.177
Mof_C 	C 	0.288	0.2996	0.2454	-0.112
Mof_C 	C 	0.2313	0.2554	0.2339	0.161
Mof_C 	C 	0.1934	0.2046	0.209	-0.482
Mof_C 	C 	0.6534	0.9296	0.408	-0.485
Mof_C 	C 	0.68076	0.95176	0.38252	0.16
Mof_C 	C 	0.688	0.9344	0.3626	-0.128
Mof_C 	C 	0.7154	0.9693	0.3435	0.18
Mof_C 	C 	0.7341	0.9712	0.3179	-0.503
Mof_C 	C 	0.5979	0.8288	0.3049	-0.478
Mof_C 	C 	0.6283	0.8413	0.3334	0.161
Mof_C 	C 	0.667	0.8867	0.3593	-0.113
Mof_C 	C 	0.6798	0.87565	0.38025	0.167
Mof_C 	C 	0.7181	0.9088	0.4109	-0.491
Mof_C 	C 	0.7119	0.1668	0.3997	-0.468
Mof_C 	C 	0.6894	0.1193	0.4041	0.156
Mof_C 	C 	0.6546	0.0825	0.4213	-0.102
Mof_C 	C 	0.6537	0.0511	0.4186	0.145
Mof_C 	C 	0.6236	0.006	0.4334	-0.448
Mof_C 	C 	0.6098	0.4723	0.8879	-0.46
Mof_C 	C 	0.6632	0.5293	0.9079	0.143
Mof_C 	C 	0.6756	0.5625	0.9317	-0.11
Mof_C 	C 	0.7325	0.6116	0.9429	0.169
Mof_C 	C 	0.7694	0.6617	0.9681	-0.487
Mof_C 	C 	0.9195	0.7418	0.0089	-0.449
Mof_C 	C 	0.9227	0.7137	0.9932	0.152
Mof_C 	C 	0.9526	0.7153	0.0061	-0.107
Mof_C 	C 	0.93942	0.68139	0.98221	0.157
Mof_C 	C 	0.9577	0.6656	0.9821	-0.483
Mof_C 	C 	0.8277	0.5092	0.8791	-0.476
Mof_C 	C 	0.7827	0.493	0.8707	0.161
Mof_C 	C 	0.72806	0.44392	0.85138	-0.115
Mof_C 	C 	0.707	0.4539	0.8517	0.165
Mof_C 	C 	0.6504	0.4166	0.8362	-0.483
Mof_C 	C 	0.73	0.5665	0.5239	-0.486
Mof_C 	C 	0.7393	0.5496	0.5025	0.16
Mof_C 	C 	0.7412	0.5208	0.5052	-0.111
Mof_C 	C 	0.7501	0.5159	0.478	0.157
Mof_C 	C 	0.7583	0.4911	0.4682	-0.464
Mof_C 	C 	0.868	0.5744	0.406	-0.468
Mof_C 	C 	0.88191	0.61605	0.39716	0.166
Mof_C 	C 	0.921	0.6564	0.3838	-0.108
Mof_C 	C 	0.9141	0.6811	0.3816	0.153
Mof_C 	C 	0.9453	0.7278	0.3693	-0.464
Mof_C 	C 	0.9026	0.7909	0.4075	-0.475
Mof_C 	C 	0.8704	0.76	0.4298	0.158
Mof_C 	C 	0.8649	0.7732	0.4547	-0.121
Mof_C 	C 	0.8299	0.729	0.4665	0.178
Mof_C 	C 	0.8081	0.7191	0.4934	-0.478
Mof_C 	C 	0.2162	0.8354	0.2602	-0.483
Mof_C 	C 	0.1621	0.8005	0.2608	0.161
Mof_C 	C 	0.1247	0.7864	0.2413	-0.114
Mof_C 	C 	0.082	0.7544	0.255	0.172
Mof_C 	C 	0.031	0.7296	0.2448	-0.479
Mof_C 	C 	0.9331	0.6522	0.3153	-0.488
Mof_C 	C 	0.9656	0.6684	0.345	0.18
Mof_C 	C 	0.9596	0.66904	0.37344	-0.129
Mof_C 	C 	0.0015	0.6875	0.392	0.177
Mof_C 	C 	0.0172	0.6989	0.4257	-0.499
Mof_C 	C 	0.1998	0.7959	0.4487	-0.479
Mof_C 	C 	0.21913	0.8133	0.42063	0.17
Mof_C 	C 	0.26954	0.84923	0.41677	-0.111
Mof_C 	C 	0.2629	0.84701	0.38551	0.136
Mof_C 	C 	0.3025	0.8777	0.3662	-0.444
Mof_C 	C 	0.2123	0.0301	0.106	-0.455
Mof_C 	C 	0.2262	0.024	0.1338	0.143
Mof_C 	C 	0.2694	0.0652	0.1612	-0.101
Mof_C 	C 	0.2619	0.036	0.1787	0.161
Mof_C 	C 	0.2938	0.056	0.21	-0.476
Mof_C 	C 	0.2147	0.9095	0.2398	-0.459
Mof_C 	C 	0.1668	0.8568	0.2142	0.154
Mof_C 	C 	0.1294	0.804	0.2146	-0.119
Mof_C 	C 	0.0933	0.7723	0.1854	0.177
Mof_C 	C 	0.0451	0.7126	0.1707	-0.495
Mof_C 	C 	0.9512	0.675	0.0636	-0.497
Mof_C 	C 	0.991	0.7302	0.061	0.171
Mof_C 	C 	0.9904	0.7464	0.037	-0.121
Mof_C 	C 	0.03506	0.8031	0.04856	0.159
Mof_C 	C 	0.057	0.8455	0.0339	-0.477
Mof_C 	C 	0.3856	0.3867	0.2137	-0.471
Mof_C 	C 	0.3638	0.3414	0.2238	0.166
Mof_C 	C 	0.3237	0.306	0.2377	-0.124
Mof_C 	C 	0.3186	0.2723	0.2415	0.17
Mof_C 	C 	0.281	0.2254	0.255	-0.491
Mof_C 	C 	0.2795	0.1229	0.2154	-0.532
Mof_C 	C 	0.3124	0.1464	0.1942	0.193
Mof_C 	C 	0.3099	0.1228	0.1703	-0.134
Mof_C 	C 	0.3506	0.1642	0.1572	0.173
Mof_C 	C 	0.3662	0.1622	0.1306	-0.485
Mof_C 	C 	0.4669	0.3241	0.0934	-0.494
Mof_C 	C 	0.4724	0.3547	0.1165	0.178
Mof_C 	C 	0.4824	0.3925	0.1137	-0.122
Mof_C 	C 	0.4822	0.4066	0.1418	0.165
Mof_C 	C 	0.4922	0.4467	0.1527	-0.484
Mof_C 	C 	0.3503	0.8615	0.4122	-0.456
Mof_C 	C 	0.357	0.8926	0.4358	0.15
Mof_C 	C 	0.32071	0.88492	0.43883	-0.116
Mof_C 	C 	0.34786	0.9245	0.46496	0.17
Mof_C 	C 	0.3308	0.9379	0.4801	-0.476
Mof_C 	C 	0.494	0.1235	0.5501	-0.487
Mof_C 	C 	0.5417	0.1448	0.5479	0.16
Mof_C 	C 	0.59816	0.19924	0.5584	-0.109
Mof_C 	C 	0.6236	0.1954	0.5504	0.162
Mof_C 	C 	0.6836	0.2404	0.5548	-0.477
Mof_C 	C 	0.6999	0.1697	0.48	-0.489
Mof_C 	C 	0.6433	0.1134	0.4627	0.174
Mof_C 	C 	0.6239	0.076	0.4379	-0.121
Mof_C 	C 	0.56885	0.0296	0.43325	0.154
Mof_C 	C 	0.5244	0.9754	0.4088	-0.464
Mof_H 	H 	0.662	0.5549	0.0213	0.118
Mof_H 	H 	0.6713	0.537	0.9971	0.131
Mof_H 	H 	0.7113	0.5984	0.0063	0.131
Mof_H 	H 	0.541	0.5032	0.9	0.133
Mof_H 	H 	0.6018	0.5532	0.897	0.143
Mof_H 	H 	0.5642	0.4927	0.8877	0.144
Mof_H 	H 	0.0314	0.9307	0.4863	0.127
Mof_H 	H 	0.9917	0.8709	0.4872	0.136
Mof_H 	H 	0.9925	0.8829	0.455	0.14
Mof_H 	H 	0.821	0.8228	0.4812	0.123
Mof_H 	H 	0.8028	0.7872	0.4496	0.142
Mof_H 	H 	0.799	0.7717	0.4807	0.134
Mof_H 	H 	0.3902	0.3784	0.0618	0.124
Mof_H 	H 	0.3767	0.3371	0.074	0.139
Mof_H 	H 	0.4108	0.3911	0.0977	0.137
Mof_H 	H 	0.5971	0.4811	0.0628	0.117
Mof_H 	H 	0.6009	0.4867	0.0986	0.135
Mof_H 	H 	0.5642	0.4307	0.0759	0.13
Mof_H 	H 	0.7056	0.318	0.6434	0.136
Mof_H 	H 	0.649	0.2528	0.6336	0.157
Mof_H 	H 	0.6978	0.2824	0.6202	0.146
Mof_H 	H 	0.59	0.2751	0.5237	0.123
Mof_H 	H 	0.5962	0.247	0.511	0.133
Mof_H 	H 	0.5458	0.2139	0.5241	0.134
Mof_H 	H 	0.637	0.3653	0.5093	0.118
Mof_H 	H 	0.6277	0.3885	0.4946	0.137
Mof_H 	H 	0.6702	0.4011	0.4861	0.134
Mof_H 	H 	0.8269	0.5958	0.5983	0.115
Mof_H 	H 	0.843	0.6103	0.5669	0.128
Mof_H 	H 	0.801	0.5986	0.5752	0.126
Mof_H 	H 	0.7511	0.4016	0.7825	0.125
Mof_H 	H 	0.751	0.4366	0.788	0.145
Mof_H 	H 	0.79	0.4503	0.8133	0.138
Mof_H 	H 	0.598	0.2913	0.8653	0.12
Mof_H 	H 	0.6533	0.3523	0.887	0.133
Mof_H 	H 	0.6122	0.3367	0.8623	0.133
Mof_H 	H 	0.0511	0.1285	0.1882	0.137
Mof_H 	H 	0.0139	0.116	0.1619	0.145
Mof_H 	H 	0.9863	0.0747	0.1822	0.156
Mof_H 	H 	0.0227	0.2183	0.264	0.12
Mof_H 	H 	0.9603	0.1561	0.2496	0.133
Mof_H 	H 	0.99	0.1991	0.2303	0.132
Mof_H 	H 	0.826	0.0127	0.2077	0.117
Mof_H 	H 	0.8848	0.0719	0.2295	0.132
Mof_H 	H 	0.8714	0.0265	0.2193	0.125
Mof_H 	H 	0.9595	0.1291	0.1146	0.119
Mof_H 	H 	0.9934	0.1341	0.1367	0.134
Mof_H 	H 	0.0022	0.1761	0.1465	0.134
Mof_H 	H 	0.3565	0.4082	0.2995	0.133
Mof_H 	H 	0.3809	0.4144	0.2729	0.145
Mof_H 	H 	0.3743	0.3894	0.2993	0.147
Mof_H 	H 	0.1563	0.1811	0.2054	0.124
Mof_H 	H 	0.1944	0.1853	0.2151	0.136
Mof_H 	H 	0.2047	0.214	0.1901	0.138
Mof_H 	H 	0.6555	0.9513	0.418	0.127
Mof_H 	H 	0.6719	0.9315	0.423	0.14
Mof_H 	H 	0.6152	0.8916	0.3994	0.135
Mof_H 	H 	0.752	0.001	0.3096	0.134
Mof_H 	H 	0.7027	0.9365	0.3016	0.139
Mof_H 	H 	0.7598	0.977	0.3252	0.151
Mof_H 	H 	0.5734	0.7934	0.2912	0.119
Mof_H 	H 	0.6236	0.8571	0.2945	0.134
Mof_H 	H 	0.5763	0.8274	0.3099	0.136
Mof_H 	H 	0.7171	0.8891	0.4196	0.125
Mof_H 	H 	0.708	0.9162	0.424	0.14
Mof_H 	H 	0.755	0.9433	0.4095	0.131
Mof_H 	H 	0.7352	0.183	0.386	0.121
Mof_H 	H 	0.7334	0.194	0.4196	0.134
Mof_H 	H 	0.6818	0.1547	0.3907	0.132
Mof_H 	H 	0.6303	0.991	0.4275	0.107
Mof_H 	H 	0.5845	0.9772	0.4265	0.122
Mof_H 	H 	0.6367	0.0207	0.4558	0.12
Mof_H 	H 	0.6164	0.4622	0.8732	0.118
Mof_H 	H 	0.5895	0.4471	0.9006	0.129
Mof_H 	H 	0.5884	0.4701	0.8767	0.127
Mof_H 	H 	0.8074	0.6883	0.9697	0.13
Mof_H 	H 	0.7635	0.6774	0.9637	0.148
Mof_H 	H 	0.7616	0.6524	0.9876	0.134
Mof_H 	H 	0.896	0.7346	0.994	0.11
Mof_H 	H 	0.9043	0.7277	0.0262	0.127
Mof_H 	H 	0.9561	0.7812	0.0163	0.128
Mof_H 	H 	0.9414	0.6418	0.9618	0.124
Mof_H 	H 	0.9975	0.6985	0.9868	0.137
Mof_H 	H 	0.9463	0.6463	0.9976	0.134
Mof_H 	H 	0.86	0.5463	0.8931	0.118
Mof_H 	H 	0.8165	0.4839	0.8892	0.132
Mof_H 	H 	0.8366	0.5084	0.8606	0.135
Mof_H 	H 	0.6479	0.4358	0.8409	0.123
Mof_H 	H 	0.6425	0.4055	0.814	0.14
Mof_H 	H 	0.624	0.3843	0.8437	0.136
Mof_H 	H 	0.7313	0.5863	0.515	0.126
Mof_H 	H 	0.6941	0.5341	0.5272	0.142
Mof_H 	H 	0.7583	0.5902	0.5435	0.137
Mof_H 	H 	0.7641	0.4946	0.4477	0.116
Mof_H 	H 	0.7901	0.5099	0.4828	0.131
Mof_H 	H 	0.7258	0.4524	0.4674	0.13
Mof_H 	H 	0.8375	0.5511	0.415	0.123
Mof_H 	H 	0.8577	0.5519	0.3876	0.139
Mof_H 	H 	0.8998	0.5935	0.4209	0.13
Mof_H 	H 	0.9304	0.7352	0.3706	0.119
Mof_H 	H 	0.9837	0.7601	0.3814	0.13
Mof_H 	H 	0.9425	0.719	0.3477	0.127
Mof_H 	H 	0.897	0.7692	0.3924	0.122
Mof_H 	H 	0.8905	0.7987	0.397	0.131
Mof_H 	H 	0.9414	0.8254	0.4186	0.132
Mof_H 	H 	0.7835	0.683	0.4953	0.121
Mof_H 	H 	0.8385	0.747	0.5123	0.133
Mof_H 	H 	0.7882	0.721	0.4902	0.136
Mof_H 	H 	0.2318	0.8371	0.2779	0.123
Mof_H 	H 	0.2399	0.8721	0.261	0.136
Mof_H 	H 	0.213	0.8201	0.2411	0.134
Mof_H 	H 	0.0085	0.7089	0.2588	0.122
Mof_H 	H 	0.0105	0.7051	0.224	0.137
Mof_H 	H 	0.0408	0.7585	0.2451	0.136
Mof_H 	H 	0.9473	0.6555	0.2986	0.123
Mof_H 	H 	0.9362	0.6763	0.3167	0.134
Mof_H 	H 	0.8948	0.6145	0.3113	0.14
Mof_H 	H 	0.0478	0.711	0.4316	0.129
Mof_H 	H 	0.986	0.6656	0.4316	0.141
Mof_H 	H 	0.0279	0.7275	0.436	0.141
Mof_H 	H 	0.1616	0.77	0.4442	0.125
Mof_H 	H 	0.2221	0.8279	0.4654	0.135
Mof_H 	H 	0.2031	0.7785	0.455	0.143
Mof_H 	H 	0.2834	0.8659	0.3451	0.109
Mof_H 	H 	0.3175	0.8704	0.3663	0.124
Mof_H 	H 	0.3322	0.917	0.3748	0.125
Mof_H 	H 	0.1801	0.9945	0.0906	0.118
Mof_H 	H 	0.2432	0.0556	0.0972	0.127
Mof_H 	H 	0.2048	0.0442	0.1122	0.13
Mof_H 	H 	0.2775	0.0253	0.216	0.124
Mof_H 	H 	0.2935	0.0728	0.2247	0.132
Mof_H 	H 	0.3315	0.0831	0.2102	0.141
Mof_H 	H 	0.2336	0.9401	0.2321	0.115
Mof_H 	H 	0.2399	0.9147	0.2474	0.128
Mof_H 	H 	0.2015	0.9077	0.2566	0.127
Mof_H 	H 	0.0288	0.7038	0.1496	0.131
Mof_H 	H 	0.0181	0.693	0.1823	0.14
Mof_H 	H 	0.0565	0.7015	0.1706	0.146
Mof_H 	H 	0.9635	0.6774	0.0837	0.128
Mof_H 	H 	0.9477	0.6561	0.0474	0.14
Mof_H 	H 	0.9156	0.6547	0.0613	0.141
Mof_H 	H 	0.0897	0.8817	0.0486	0.124
Mof_H 	H 	0.0293	0.8374	0.0281	0.133
Mof_H 	H 	0.0665	0.8448	0.0157	0.145
Mof_H 	H 	0.4145	0.4051	0.2042	0.126
Mof_H 	H 	0.3559	0.3712	0.1989	0.132
Mof_H 	H 	0.4004	0.4131	0.2317	0.136
Mof_H 	H 	0.289	0.211	0.2546	0.129
Mof_H 	H 	0.286	0.2377	0.2763	0.14
Mof_H 	H 	0.2433	0.1967	0.243	0.138
Mof_H 	H 	0.2916	0.1508	0.2292	0.141
Mof_H 	H 	0.2412	0.0929	0.2039	0.151
Mof_H 	H 	0.2834	0.109	0.2274	0.154
Mof_H 	H 	0.3965	0.1984	0.1271	0.123
Mof_H 	H 	0.3776	0.1516	0.135	0.137
Mof_H 	H 	0.3348	0.1356	0.1122	0.133
Mof_H 	H 	0.4592	0.3	0.1022	0.131
Mof_H 	H 	0.4367	0.3022	0.0751	0.137
Mof_H 	H 	0.5008	0.35	0.0876	0.143
Mof_H 	H 	0.4889	0.4472	0.1737	0.124
Mof_H 	H 	0.529	0.483	0.1526	0.139
Mof_H 	H 	0.4653	0.4362	0.1391	0.133
Mof_H 	H 	0.3833	0.877	0.4169	0.115
Mof_H 	H 	0.3189	0.8232	0.4123	0.124
Mof_H 	H 	0.3444	0.8638	0.3918	0.125
Mof_H 	H 	0.36	0.9688	0.4986	0.121
Mof_H 	H 	0.324	0.9477	0.4659	0.134
Mof_H 	H 	0.2975	0.9063	0.4858	0.137
Mof_H 	H 	0.4603	0.084	0.5411	0.125
Mof_H 	H 	0.4973	0.1322	0.5717	0.135
Mof_H 	H 	0.4935	0.1406	0.5391	0.134
Mof_H 	H 	0.6889	0.2247	0.5468	0.121
Mof_H 	H 	0.6977	0.2663	0.5438	0.134
Mof_H 	H 	0.703	0.2593	0.5767	0.134
Mof_H 	H 	0.6991	0.1847	0.496	0.128
Mof_H 	H 	0.7195	0.169	0.4895	0.144
Mof_H 	H 	0.7185	0.1924	0.4659	0.138
Mof_H 	H 	0.4889	0.9506	0.4119	0.118
Mof_H 	H 	0.5252	0.9811	0.3885	0.134
Mof_H 	H 	0.5306	0.9593	0.4103	0.127
_end
