# CIF file generated by openbabel 3.1.0, see https://openbabel.org
data_I
_chemical_name_common 'image0'
_cell_length_a 18.947
_cell_length_b 6.915
_cell_length_c 11.295
_cell_angle_alpha 90
_cell_angle_beta 90.45
_cell_angle_gamma 90
_space_group_name_H-M_alt 'P 1'
_space_group_name_Hall 'P 1'
loop_
    _symmetry_equiv_pos_as_xyz
    x,y,z
loop_
    _atom_site_label
    _atom_site_type_symbol
    _atom_site_fract_x
    _atom_site_fract_y
    _atom_site_fract_z
    _atom_site_occupancy
    O1       O        0.32200    0.17500    0.62000    1.000
    O2       O        0.31400    0.16200    0.36500    1.000
    C1       C        0.46900    0.17600    0.45500    1.000
    N1       N        0.24800    0.15400    0.88500    1.000
    C2       C        0.31700    0.20100    0.94600    1.000
    C3       C        0.18600    0.14200    0.96600    1.000
    O3       O        0.82200    0.67500    0.62000    1.000
    O4       O        0.81400    0.66200    0.36500    1.000
    C4       C        0.96900    0.67600    0.45500    1.000
    N2       N        0.74800    0.65400    0.88500    1.000
    C5       C        0.81700    0.70100    0.94600    1.000
    C6       C        0.68600    0.64200    0.96600    1.000
    O5       O        0.67800    0.17500    0.38000    1.000
    O6       O        0.68600    0.16200    0.63500    1.000
    C7       C        0.53100    0.17600    0.54500    1.000
    N3       N        0.75200    0.15400    0.11500    1.000
    C8       C        0.68300    0.20100    0.05400    1.000
    C9       C        0.81400    0.14200    0.03400    1.000
    O7       O        0.17800    0.67500    0.38000    1.000
    O8       O        0.18600    0.66200    0.63500    1.000
    C10      C        0.03100    0.67600    0.54500    1.000
    N4       N        0.25200    0.65400    0.11500    1.000
    C11      C        0.18300    0.70100    0.05400    1.000
    C12      C        0.31400    0.64200    0.03400    1.000
    O9       O        0.67800    0.82500    0.38000    1.000
    O10      O        0.68600    0.83800    0.63500    1.000
    C13      C        0.53100    0.82400    0.54500    1.000
    N5       N        0.75200    0.84600    0.11500    1.000
    C14      C        0.68300    0.79900    0.05400    1.000
    C15      C        0.81400    0.85800    0.03400    1.000
    O11      O        0.17800    0.32500    0.38000    1.000
    O12      O        0.18600    0.33800    0.63500    1.000
    C16      C        0.03100    0.32400    0.54500    1.000
    N6       N        0.25200    0.34600    0.11500    1.000
    C17      C        0.18300    0.29900    0.05400    1.000
    C18      C        0.31400    0.35800    0.03400    1.000
    O13      O        0.32200    0.82500    0.62000    1.000
    O14      O        0.31400    0.83800    0.36500    1.000
    C19      C        0.46900    0.82400    0.45500    1.000
    N7       N        0.24800    0.84600    0.88500    1.000
    C20      C        0.31700    0.79900    0.94600    1.000
    C21      C        0.18600    0.85800    0.96600    1.000
    O15      O        0.82200    0.32500    0.62000    1.000
    O16      O        0.81400    0.33800    0.36500    1.000
    C22      C        0.96900    0.32400    0.45500    1.000
    N8       N        0.74800    0.34600    0.88500    1.000
    C23      C        0.81700    0.29900    0.94600    1.000
    C24      C        0.68600    0.35800    0.96600    1.000
    P1       P        0.33200    0.00000    0.70500    1.000
    P2       P        0.34000    0.00000    0.30500    1.000
    O17      O        0.21500    0.00000    0.54100    1.000
    O18      O        0.41100    0.00000    0.73000    1.000
    O19      O        0.30000    0.00000    0.19300    1.000
    N9       N        0.47400    0.00000    0.37800    1.000
    C25      C        0.43100    0.00000    0.26200    1.000
    C26      C        0.25100    0.00000    0.79400    1.000
    P3       P        0.83200    0.50000    0.70500    1.000
    P4       P        0.84000    0.50000    0.30500    1.000
    O20      O        0.71500    0.50000    0.54100    1.000
    O21      O        0.91100    0.50000    0.73000    1.000
    O22      O        0.80000    0.50000    0.19300    1.000
    N10      N        0.97400    0.50000    0.37800    1.000
    C27      C        0.93100    0.50000    0.26200    1.000
    C28      C        0.75100    0.50000    0.79400    1.000
    P5       P        0.66800    0.00000    0.29500    1.000
    P6       P        0.66000    0.00000    0.69500    1.000
    O23      O        0.78500    0.00000    0.45900    1.000
    O24      O        0.58900    0.00000    0.27000    1.000
    O25      O        0.70000    0.00000    0.80700    1.000
    N11      N        0.52600    0.00000    0.62200    1.000
    C29      C        0.56900    0.00000    0.73800    1.000
    C30      C        0.74900    0.00000    0.20600    1.000
    P7       P        0.16800    0.50000    0.29500    1.000
    P8       P        0.16000    0.50000    0.69500    1.000
    O26      O        0.28500    0.50000    0.45900    1.000
    O27      O        0.08900    0.50000    0.27000    1.000
    O28      O        0.20000    0.50000    0.80700    1.000
    N12      N        0.02600    0.50000    0.62200    1.000
    C31      C        0.06900    0.50000    0.73800    1.000
    C32      C        0.24900    0.50000    0.20600    1.000
    Al1      Al       0.25000    0.25000    0.50000    1.000
    Al2      Al       0.75000    0.25000    0.50000    1.000
    Al3      Al       0.75000    0.75000    0.50000    1.000
    Al4      Al       0.25000    0.75000    0.50000    1.000
