data_functionalizedCrystal
_audit_creation_method	'EQeq! by Chris Wilmer'
_symmetry_space_group_name_H-M	'P1'
_symmetry_Int_Tables_number	1
_symmetry_cell_setting	triclinic
loop_
_symmetry_equiv_pos_as_xyz
  x,y,z
_cell_length_a	20.342
_cell_length_b	13.566
_cell_length_c	9.877
_cell_angle_alpha	90
_cell_angle_beta	90
_cell_angle_gamma	90
loop_
_atom_site_label
_atom_site_type_symbol
_atom_site_fract_x
_atom_site_fract_y
_atom_site_fract_z
_atom_site_charge
Mof_Cu	Cu	0.1035	0.09024	0.5606	0.818
Mof_Cu	Cu	0.22224	0.38658	0.82543	0.8
Mof_S 	S 	0.11327	0.1138	0.7946	-0.545
Mof_N 	N 	0.183	0.0148	0.4799	-0.201
Mof_C 	C 	0.2205	0.9737	0.4183	-0.253
Mof_N 	N 	0.9771	0.9789	0.4868	-0.214
Mof_C 	C 	0.0229	0.0211	0.5132	-0.207
Mof_Cu	Cu	0.3965	0.90976	0.0606	0.816
Mof_Cu	Cu	0.27776	0.61342	0.32543	0.799
Mof_S 	S 	0.38673	0.8862	0.2946	-0.545
Mof_N 	N 	0.317	0.9852	0.9799	-0.197
Mof_C 	C 	0.2795	0.0263	0.9183	-0.257
Mof_N 	N 	0.5229	0.0211	0.9868	-0.214
Mof_C 	C 	0.4771	0.9789	0.0132	-0.208
Mof_Cu	Cu	0.8965	0.59024	0.4394	0.817
Mof_Cu	Cu	0.77776	0.88658	0.17457	0.799
Mof_S 	S 	0.88673	0.6138	0.2054	-0.544
Mof_N 	N 	0.817	0.5148	0.5201	-0.201
Mof_C 	C 	0.7795	0.4737	0.5817	-0.253
Mof_N 	N 	0.0229	0.4789	0.5132	-0.214
Mof_C 	C 	0.9771	0.5211	0.4868	-0.207
Mof_Cu	Cu	0.6035	0.40976	0.9394	0.817
Mof_Cu	Cu	0.72224	0.11342	0.67457	0.799
Mof_S 	S 	0.61327	0.3862	0.7054	-0.544
Mof_N 	N 	0.683	0.4852	0.0201	-0.201
Mof_C 	C 	0.7205	0.5263	0.0817	-0.253
Mof_N 	N 	0.4771	0.5211	0.0132	-0.214
Mof_C 	C 	0.5229	0.4789	0.9868	-0.207
Mof_Cu	Cu	0.8965	0.90976	0.4394	0.819
Mof_Cu	Cu	0.77776	0.61342	0.17457	0.799
Mof_S 	S 	0.88673	0.8862	0.2054	-0.545
Mof_N 	N 	0.817	0.9852	0.5201	-0.201
Mof_C 	C 	0.7795	0.0263	0.5817	-0.254
Mof_Cu	Cu	0.6035	0.09024	0.9394	0.817
Mof_Cu	Cu	0.72224	0.38658	0.67457	0.799
Mof_S 	S 	0.61327	0.1138	0.7054	-0.544
Mof_N 	N 	0.683	0.0148	0.0201	-0.197
Mof_C 	C 	0.7205	0.9737	0.0817	-0.257
Mof_Cu	Cu	0.1035	0.40976	0.5606	0.819
Mof_Cu	Cu	0.22224	0.11342	0.82543	0.799
Mof_S 	S 	0.11327	0.3862	0.7946	-0.544
Mof_N 	N 	0.183	0.4852	0.4799	-0.201
Mof_C 	C 	0.2205	0.5263	0.4183	-0.253
Mof_Cu	Cu	0.3965	0.59024	0.0606	0.818
Mof_Cu	Cu	0.27776	0.88658	0.32543	0.799
Mof_S 	S 	0.38673	0.6138	0.2946	-0.543
Mof_N 	N 	0.317	0.5148	0.9799	-0.201
Mof_C 	C 	0.2795	0.4737	0.9183	-0.253
Mof_W 	W 	0.15276	0.25	0.6961	0.276
Mof_S 	S 	0.26186	0.25	0.7228	-0.575
Mof_S 	S 	0.1248	0.25	0.4809	-0.517
Mof_W 	W 	0.34724	0.75	0.1961	0.274
Mof_S 	S 	0.23814	0.75	0.2228	-0.576
Mof_S 	S 	0.3752	0.75	0.9809	-0.513
Mof_W 	W 	0.84724	0.75	0.3039	0.276
Mof_S 	S 	0.73814	0.75	0.2772	-0.575
Mof_S 	S 	0.8752	0.75	0.5191	-0.517
Mof_W 	W 	0.65276	0.25	0.8039	0.274
Mof_S 	S 	0.76186	0.25	0.7772	-0.576
Mof_S 	S 	0.6248	0.25	0.0191	-0.513
_end
