# CIF file generated by openbabel 3.1.0, see https://openbabel.org
data_I
_chemical_name_common 'image0'
_cell_length_a 41.604
_cell_length_b 41.604
_cell_length_c 40.246
_cell_angle_alpha 90
_cell_angle_beta 90
_cell_angle_gamma 120
_space_group_name_H-M_alt 'P 1'
_space_group_name_Hall 'P 1'
loop_
    _symmetry_equiv_pos_as_xyz
    x,y,z
loop_
    _atom_site_label
    _atom_site_type_symbol
    _atom_site_fract_x
    _atom_site_fract_y
    _atom_site_fract_z
    _atom_site_occupancy
    Eu1      Eu       0.62701    0.09120    0.78837    1.000
    In1      In       0.86088    0.30441    0.13661    1.000
    O1       O        0.65686    0.14908    0.77182    1.000
    O2       O        0.61173    0.13110    0.80662    1.000
    O3       O        0.61558    0.07164    0.83896    1.000
    O4       O        0.67040    0.11149    0.82791    1.000
    O5       O        0.62496    0.92422    0.11118    1.000
    O6       O        0.57227    0.90914    0.08900    1.000
    O7       O        0.59380    0.08110    0.74241    1.000
    O8       O        0.56830    0.05378    0.78780    1.000
    O9       O        0.84110    0.25520    0.11800    1.000
    O10      O        0.82480    0.28360    0.08870    1.000
    O11      O        0.33480    0.88940    0.51790    1.000
    O12      O        0.38970    0.92940    0.50780    1.000
    O13      O        0.24870    0.98870    0.78440    1.000
    O14      O        0.24360    0.01440    0.74030    1.000
    C1       C        0.63710    0.15560    0.79030    1.000
    C2       C        0.64370    0.19229    0.79150    1.000
    C3       C        0.62090    0.20040    0.80960    1.000
    H1       H        0.60130    0.18220    0.82190    1.000
    C4       C        0.62770    0.23630    0.80920    1.000
    H2       H        0.61290    0.24230    0.82210    1.000
    C5       C        0.65520    0.26340    0.79070    1.000
    C6       C        0.67770    0.25400    0.77280    1.000
    H3       H        0.69730    0.27210    0.76040    1.000
    C7       C        0.67180    0.21890    0.77310    1.000
    H4       H        0.68690    0.21290    0.76070    1.000
    C8       C        0.66040    0.29830    0.79050    1.000
    C9       C        0.63350    0.30480    0.79090    1.000
    H5       H        0.60950    0.28460    0.79160    1.000
    C10      C        0.64550    0.09080    0.84830    1.000
    C11      C        0.65710    0.09460    0.88050    1.000
    C12      C        0.69230    0.11780    0.89090    1.000
    H6       H        0.71090    0.13190    0.87570    1.000
    C13      C        0.70050    0.12030    0.92560    1.000
    H7       H        0.72450    0.13590    0.93300    1.000
    C14      C        0.67350    0.10010    0.94740    1.000
    C15      C        0.63670    0.07720    0.93710    1.000
    H8       H        0.61810    0.06380    0.95250    1.000
    C16      C        0.62850    0.07490    0.90340    1.000
    H9       H        0.60410    0.06040    0.89610    1.000
    C17      C        0.68170    0.10030    0.98130    1.000
    C18      C        0.70460    0.13030    0.99680    1.000
    H10      H        0.71300    0.15290    0.98610    1.000
    C19      C        0.71650    0.13000    0.02760    1.000
    C20      C        0.69890    0.09940    0.04390    1.000
    H11      H        0.70470    0.09960    0.06630    1.000
    C21      C        0.67220    0.06690    0.03030    1.000
    C22      C        0.66390    0.06820    0.99790    1.000
    H12      H        0.64590    0.04690    0.98730    1.000
    C23      C        0.65620    0.03250    0.04750    1.000
    C24      C        0.67420    0.02380    0.06840    1.000
    H13      H        0.69880    0.04140    0.07280    1.000
    C25      C        0.65970    0.99120    0.08430    1.000
    H14      H        0.67350    0.98540    0.09880    1.000
    C26      C        0.62270    0.96670    0.07740    1.000
    C27      C        0.60390    0.97470    0.05770    1.000
    H15      H        0.57870    0.95800    0.05480    1.000
    C28      C        0.61960    0.00630    0.04130    1.000
    H16      H        0.60620    0.01110    0.02550    1.000
    C29      C        0.60550    0.93110    0.09460    1.000
    C30      C        0.74190    0.16160    0.04250    1.000
    C31      C        0.74910    0.19660    0.03210    1.000
    H17      H        0.73840    0.19930    0.01270    1.000
    C32      C        0.77280    0.22790    0.05140    1.000
    H18      H        0.77440    0.25060    0.04710    1.000
    C33      C        0.79370    0.22520    0.07660    1.000
    C34      C        0.78870    0.19030    0.08550    1.000
    H19      H        0.80180    0.18800    0.10330    1.000
    C35      C        0.76400    0.15900    0.06730    1.000
    H20      H        0.76220    0.13620    0.07170    1.000
    C36      C        0.82230    0.25730    0.09620    1.000
    C37      C        0.56590    0.06040    0.75910    1.000
    C38      C        0.53070    0.04270    0.74390    1.000
    C39      C        0.49930    0.02270    0.76080    1.000
    H21      H        0.50090    0.01970    0.78350    1.000
    C40      C        0.46770    0.00780    0.74780    1.000
    H22      H        0.44700    0.99500    0.76140    1.000
    C41      C        0.46280    0.00980    0.71460    1.000
    C42      C        0.49390    0.03140    0.69630    1.000
    H23      H        0.49180    0.03550    0.67380    1.000
    C43      C        0.52740    0.04690    0.71080    1.000
    H24      H        0.54860    0.06060    0.69800    1.000
    C44      C        0.42780    0.99410    0.69870    1.000
    C45      C        0.39950    0.99780    0.71570    1.000
    H25      H        0.40340    0.00890    0.73660    1.000
    C46      C        0.36770    0.98440    0.69970    1.000
    C47      C        0.36220    0.97080    0.67120    1.000
    H26      H        0.33940    0.96340    0.66130    1.000
    C48      C        0.38730    0.96600    0.65370    1.000
    C49      C        0.42250    0.97920    0.66840    1.000
    H27      H        0.44130    0.97750    0.65740    1.000
    C50      C        0.38070    0.95000    0.62210    1.000
    C51      C        0.34910    0.92710    0.61110    1.000
    H28      H        0.32860    0.91950    0.62500    1.000
    C52      C        0.34350    0.91340    0.58040    1.000
    H29      H        0.32010    0.89400    0.57480    1.000
    C53      C        0.36870    0.92560    0.55890    1.000
    C54      C        0.40290    0.95270    0.56870    1.000
    H30      H        0.42300    0.96250    0.55420    1.000
    C55      C        0.40630    0.96440    0.60000    1.000
    H31      H        0.42890    0.98460    0.60630    1.000
    C56      C        0.36300    0.91350    0.52750    1.000
    C57      C        0.32880    0.97760    0.74650    1.000
    H32      H        0.34130    0.96790    0.75820    1.000
    C58      C        0.33680    0.98700    0.71330    1.000
    C59      C        0.31810    0.00070    0.69480    1.000
    H33      H        0.32460    0.00790    0.67280    1.000
    C60      C        0.28860    0.00330    0.71030    1.000
    H34      H        0.27420    0.01020    0.69800    1.000
    C61      C        0.28180    0.99530    0.74390    1.000
    C62      C        0.30120    0.98280    0.76250    1.000
    H35      H        0.29640    0.97790    0.78500    1.000
    C63      C        0.25630    0.00030    0.75910    1.000
    Eu2      Eu       0.29368    0.42453    0.12171    1.000
    In2      In       0.52755    0.63774    0.46994    1.000
    O15      O        0.32353    0.48241    0.10515    1.000
    O16      O        0.27840    0.46443    0.13995    1.000
    O17      O        0.28225    0.40497    0.17229    1.000
    O18      O        0.33707    0.44482    0.16124    1.000
    O19      O        0.29163    0.25755    0.44451    1.000
    O20      O        0.23894    0.24247    0.42233    1.000
    O21      O        0.26047    0.41443    0.07574    1.000
    O22      O        0.23497    0.38711    0.12113    1.000
    O23      O        0.50777    0.58853    0.45133    1.000
    O24      O        0.49147    0.61693    0.42203    1.000
    O25      O        0.00147    0.22273    0.85123    1.000
    O26      O        0.05637    0.26273    0.84113    1.000
    O27      O        0.91537    0.32203    0.11773    1.000
    O28      O        0.91027    0.34773    0.07363    1.000
    C64      C        0.30377    0.48893    0.12363    1.000
    C65      C        0.31037    0.52562    0.12483    1.000
    C66      C        0.28757    0.53373    0.14293    1.000
    H36      H        0.26797    0.51553    0.15523    1.000
    C67      C        0.29437    0.56963    0.14253    1.000
    H37      H        0.27957    0.57563    0.15543    1.000
    C68      C        0.32187    0.59673    0.12403    1.000
    C69      C        0.34437    0.58733    0.10613    1.000
    H38      H        0.36397    0.60543    0.09373    1.000
    C70      C        0.33847    0.55223    0.10643    1.000
    H39      H        0.35357    0.54623    0.09403    1.000
    C71      C        0.32707    0.63163    0.12383    1.000
    C72      C        0.30017    0.63813    0.12423    1.000
    H40      H        0.27617    0.61793    0.12493    1.000
    C73      C        0.31217    0.42413    0.18163    1.000
    C74      C        0.32377    0.42793    0.21383    1.000
    C75      C        0.35897    0.45113    0.22423    1.000
    H41      H        0.37757    0.46523    0.20903    1.000
    C76      C        0.36717    0.45363    0.25893    1.000
    H42      H        0.39117    0.46923    0.26633    1.000
    C77      C        0.34017    0.43343    0.28073    1.000
    C78      C        0.30337    0.41053    0.27043    1.000
    H43      H        0.28477    0.39713    0.28583    1.000
    C79      C        0.29517    0.40823    0.23673    1.000
    H44      H        0.27077    0.39373    0.22943    1.000
    C80      C        0.34837    0.43363    0.31463    1.000
    C81      C        0.37127    0.46363    0.33013    1.000
    H45      H        0.37967    0.48623    0.31943    1.000
    C82      C        0.38317    0.46333    0.36093    1.000
    C83      C        0.36557    0.43273    0.37723    1.000
    H46      H        0.37137    0.43293    0.39963    1.000
    C84      C        0.33887    0.40023    0.36363    1.000
    C85      C        0.33057    0.40153    0.33123    1.000
    H47      H        0.31257    0.38023    0.32063    1.000
    C86      C        0.32287    0.36583    0.38083    1.000
    C87      C        0.34087    0.35713    0.40173    1.000
    H48      H        0.36547    0.37473    0.40613    1.000
    C88      C        0.32637    0.32453    0.41763    1.000
    H49      H        0.34017    0.31873    0.43213    1.000
    C89      C        0.28937    0.30003    0.41073    1.000
    C90      C        0.27057    0.30803    0.39103    1.000
    H50      H        0.24537    0.29133    0.38813    1.000
    C91      C        0.28627    0.33963    0.37463    1.000
    H51      H        0.27287    0.34443    0.35883    1.000
    C92      C        0.27217    0.26443    0.42793    1.000
    C93      C        0.40857    0.49493    0.37583    1.000
    C94      C        0.41577    0.52993    0.36543    1.000
    H52      H        0.40507    0.53263    0.34603    1.000
    C95      C        0.43947    0.56123    0.38473    1.000
    H53      H        0.44107    0.58393    0.38043    1.000
    C96      C        0.46037    0.55853    0.40993    1.000
    C97      C        0.45537    0.52363    0.41883    1.000
    H54      H        0.46847    0.52133    0.43663    1.000
    C98      C        0.43067    0.49233    0.40063    1.000
    H55      H        0.42887    0.46953    0.40503    1.000
    C99      C        0.48897    0.59063    0.42953    1.000
    C100     C        0.23257    0.39373    0.09243    1.000
    C101     C        0.19737    0.37603    0.07723    1.000
    C102     C        0.16597    0.35603    0.09413    1.000
    H56      H        0.16757    0.35303    0.11683    1.000
    C103     C        0.13437    0.34113    0.08113    1.000
    H57      H        0.11367    0.32833    0.09473    1.000
    C104     C        0.12947    0.34313    0.04793    1.000
    C105     C        0.16057    0.36473    0.02963    1.000
    H58      H        0.15847    0.36883    0.00713    1.000
    C106     C        0.19407    0.38023    0.04413    1.000
    H59      H        0.21527    0.39393    0.03133    1.000
    C107     C        0.09447    0.32743    0.03203    1.000
    C108     C        0.06617    0.33113    0.04903    1.000
    H60      H        0.07007    0.34223    0.06993    1.000
    C109     C        0.03437    0.31773    0.03303    1.000
    C110     C        0.02887    0.30413    0.00453    1.000
    H61      H        0.00607    0.29673    0.99463    1.000
    C111     C        0.05397    0.29933    0.98703    1.000
    C112     C        0.08917    0.31253    0.00173    1.000
    H62      H        0.10797    0.31083    0.99073    1.000
    C113     C        0.04737    0.28333    0.95543    1.000
    C114     C        0.01577    0.26043    0.94443    1.000
    H63      H        0.99527    0.25283    0.95833    1.000
    C115     C        0.01017    0.24673    0.91373    1.000
    H64      H        0.98677    0.22733    0.90813    1.000
    C116     C        0.03537    0.25893    0.89223    1.000
    C117     C        0.06957    0.28603    0.90203    1.000
    H65      H        0.08967    0.29583    0.88753    1.000
    C118     C        0.07297    0.29773    0.93333    1.000
    H66      H        0.09557    0.31793    0.93963    1.000
    C119     C        0.02967    0.24683    0.86083    1.000
    C120     C        0.99547    0.31093    0.07983    1.000
    H67      H        0.00797    0.30123    0.09153    1.000
    C121     C        0.00347    0.32033    0.04663    1.000
    C122     C        0.98477    0.33403    0.02813    1.000
    H68      H        0.99127    0.34123    0.00613    1.000
    C123     C        0.95527    0.33663    0.04363    1.000
    H69      H        0.94087    0.34353    0.03133    1.000
    C124     C        0.94847    0.32863    0.07723    1.000
    C125     C        0.96787    0.31613    0.09583    1.000
    H70      H        0.96307    0.31123    0.11833    1.000
    C126     C        0.92297    0.33363    0.09243    1.000
    Eu3      Eu       0.96034    0.75786    0.45504    1.000
    In3      In       0.19421    0.97108    0.80328    1.000
    O29      O        0.99019    0.81575    0.43849    1.000
    O30      O        0.94506    0.79777    0.47329    1.000
    O31      O        0.94891    0.73831    0.50563    1.000
    O32      O        0.00373    0.77816    0.49458    1.000
    O33      O        0.95829    0.59089    0.77785    1.000
    O34      O        0.90560    0.57581    0.75567    1.000
    O35      O        0.92713    0.74777    0.40908    1.000
    O36      O        0.90163    0.72045    0.45447    1.000
    O37      O        0.17443    0.92187    0.78467    1.000
    O38      O        0.15813    0.95027    0.75537    1.000
    O39      O        0.66813    0.55607    0.18457    1.000
    O40      O        0.72303    0.59607    0.17447    1.000
    O41      O        0.58203    0.65537    0.45107    1.000
    O42      O        0.57693    0.68107    0.40697    1.000
    C127     C        0.97043    0.82227    0.45697    1.000
    C128     C        0.97703    0.85896    0.45817    1.000
    C129     C        0.95423    0.86707    0.47627    1.000
    H71      H        0.93463    0.84887    0.48857    1.000
    C130     C        0.96103    0.90297    0.47587    1.000
    H72      H        0.94623    0.90897    0.48877    1.000
    C131     C        0.98853    0.93007    0.45737    1.000
    C132     C        0.01103    0.92067    0.43947    1.000
    H73      H        0.03063    0.93877    0.42707    1.000
    C133     C        0.00513    0.88557    0.43977    1.000
    H74      H        0.02023    0.87957    0.42737    1.000
    C134     C        0.99373    0.96497    0.45717    1.000
    C135     C        0.96683    0.97147    0.45757    1.000
    H75      H        0.94283    0.95127    0.45827    1.000
    C136     C        0.97883    0.75747    0.51497    1.000
    C137     C        0.99043    0.76127    0.54717    1.000
    C138     C        0.02563    0.78447    0.55757    1.000
    H76      H        0.04423    0.79857    0.54237    1.000
    C139     C        0.03383    0.78697    0.59227    1.000
    H77      H        0.05783    0.80257    0.59967    1.000
    C140     C        0.00683    0.76677    0.61407    1.000
    C141     C        0.97003    0.74387    0.60377    1.000
    H78      H        0.95143    0.73047    0.61917    1.000
    C142     C        0.96183    0.74157    0.57007    1.000
    H79      H        0.93743    0.72707    0.56277    1.000
    C143     C        0.01503    0.76697    0.64797    1.000
    C144     C        0.03793    0.79697    0.66347    1.000
    H80      H        0.04633    0.81957    0.65277    1.000
    C145     C        0.04983    0.79667    0.69427    1.000
    C146     C        0.03223    0.76607    0.71057    1.000
    H81      H        0.03803    0.76627    0.73297    1.000
    C147     C        0.00553    0.73357    0.69697    1.000
    C148     C        0.99723    0.73487    0.66457    1.000
    H82      H        0.97923    0.71357    0.65397    1.000
    C149     C        0.98953    0.69917    0.71417    1.000
    C150     C        0.00753    0.69047    0.73507    1.000
    H83      H        0.03213    0.70807    0.73947    1.000
    C151     C        0.99303    0.65787    0.75097    1.000
    H84      H        0.00683    0.65207    0.76547    1.000
    C152     C        0.95603    0.63337    0.74407    1.000
    C153     C        0.93723    0.64137    0.72437    1.000
    H85      H        0.91203    0.62467    0.72147    1.000
    C154     C        0.95293    0.67297    0.70797    1.000
    H86      H        0.93953    0.67777    0.69217    1.000
    C155     C        0.93883    0.59777    0.76127    1.000
    C156     C        0.07523    0.82827    0.70917    1.000
    C157     C        0.08243    0.86327    0.69877    1.000
    H87      H        0.07173    0.86597    0.67937    1.000
    C158     C        0.10613    0.89457    0.71807    1.000
    H88      H        0.10773    0.91727    0.71377    1.000
    C159     C        0.12703    0.89187    0.74327    1.000
    C160     C        0.12203    0.85697    0.75217    1.000
    H89      H        0.13513    0.85467    0.76997    1.000
    C161     C        0.09733    0.82567    0.73397    1.000
    H90      H        0.09553    0.80287    0.73837    1.000
    C162     C        0.15563    0.92397    0.76287    1.000
    C163     C        0.89923    0.72707    0.42577    1.000
    C164     C        0.86403    0.70937    0.41057    1.000
    C165     C        0.83263    0.68937    0.42747    1.000
    H91      H        0.83423    0.68637    0.45017    1.000
    C166     C        0.80103    0.67447    0.41447    1.000
    H92      H        0.78033    0.66167    0.42807    1.000
    C167     C        0.79613    0.67647    0.38127    1.000
    C168     C        0.82723    0.69807    0.36297    1.000
    H93      H        0.82513    0.70217    0.34047    1.000
    C169     C        0.86073    0.71357    0.37747    1.000
    H94      H        0.88193    0.72727    0.36467    1.000
    C170     C        0.76113    0.66077    0.36537    1.000
    C171     C        0.73283    0.66447    0.38237    1.000
    H95      H        0.73673    0.67557    0.40327    1.000
    C172     C        0.70103    0.65107    0.36637    1.000
    C173     C        0.69553    0.63747    0.33787    1.000
    H96      H        0.67273    0.63007    0.32797    1.000
    C174     C        0.72063    0.63267    0.32037    1.000
    C175     C        0.75583    0.64587    0.33507    1.000
    H97      H        0.77463    0.64417    0.32407    1.000
    C176     C        0.71403    0.61667    0.28877    1.000
    C177     C        0.68243    0.59377    0.27777    1.000
    H98      H        0.66193    0.58617    0.29167    1.000
    C178     C        0.67683    0.58007    0.24707    1.000
    H99      H        0.65343    0.56067    0.24147    1.000
    C179     C        0.70203    0.59227    0.22557    1.000
    C180     C        0.73623    0.61937    0.23537    1.000
    H100     H        0.75633    0.62917    0.22087    1.000
    C181     C        0.73963    0.63107    0.26667    1.000
    H101     H        0.76223    0.65127    0.27297    1.000
    C182     C        0.69633    0.58017    0.19417    1.000
    C183     C        0.66213    0.64427    0.41317    1.000
    H102     H        0.67463    0.63457    0.42487    1.000
    C184     C        0.67013    0.65367    0.37997    1.000
    C185     C        0.65143    0.66737    0.36147    1.000
    H103     H        0.65793    0.67457    0.33947    1.000
    C186     C        0.62193    0.66997    0.37697    1.000
    H104     H        0.60753    0.67687    0.36467    1.000
    C187     C        0.61513    0.66197    0.41057    1.000
    C188     C        0.63453    0.64947    0.42917    1.000
    H105     H        0.62973    0.64457    0.45167    1.000
    C189     C        0.58963    0.66697    0.42577    1.000
    Eu4      Eu       0.90880    0.53582    0.78837    1.000
    In4      In       0.69559    0.55647    0.13661    1.000
    O43      O        0.85092    0.50778    0.77182    1.000
    O44      O        0.86890    0.48063    0.80662    1.000
    O45      O        0.92836    0.54394    0.83896    1.000
    O46      O        0.88851    0.55891    0.82791    1.000
    O47      O        0.07578    0.70074    0.11118    1.000
    O48      O        0.09086    0.66313    0.08900    1.000
    O49      O        0.91890    0.51270    0.74241    1.000
    O50      O        0.94622    0.51452    0.78780    1.000
    O51      O        0.74480    0.58590    0.11800    1.000
    O52      O        0.71640    0.54120    0.08870    1.000
    O53      O        0.11060    0.44540    0.51790    1.000
    O54      O        0.07060    0.46030    0.50780    1.000
    O55      O        0.01130    0.26000    0.78440    1.000
    O56      O        0.98560    0.22920    0.74030    1.000
    C190     C        0.84440    0.48150    0.79030    1.000
    C191     C        0.80771    0.45141    0.79150    1.000
    C192     C        0.79960    0.42050    0.80960    1.000
    H106     H        0.81780    0.41910    0.82190    1.000
    C193     C        0.76370    0.39140    0.80920    1.000
    H107     H        0.75770    0.37060    0.82210    1.000
    C194     C        0.73660    0.39180    0.79070    1.000
    C195     C        0.74600    0.42370    0.77280    1.000
    H108     H        0.72790    0.42520    0.76040    1.000
    C196     C        0.78110    0.45290    0.77310    1.000
    H109     H        0.78710    0.47400    0.76070    1.000
    C197     C        0.70170    0.36210    0.79050    1.000
    C198     C        0.69520    0.32870    0.79090    1.000
    H110     H        0.71540    0.32490    0.79160    1.000
    C199     C        0.90920    0.55470    0.84830    1.000
    C200     C        0.90540    0.56250    0.88050    1.000
    C201     C        0.88220    0.57450    0.89090    1.000
    H111     H        0.86810    0.57900    0.87570    1.000
    C202     C        0.87970    0.58020    0.92560    1.000
    H112     H        0.86410    0.58860    0.93300    1.000
    C203     C        0.89990    0.57340    0.94740    1.000
    C204     C        0.92280    0.55950    0.93710    1.000
    H113     H        0.93620    0.55430    0.95250    1.000
    C205     C        0.92510    0.55360    0.90340    1.000
    H114     H        0.93960    0.54370    0.89610    1.000
    C206     C        0.89970    0.58140    0.98130    1.000
    C207     C        0.86970    0.57430    0.99680    1.000
    H115     H        0.84710    0.56010    0.98610    1.000
    C208     C        0.87000    0.58650    0.02760    1.000
    C209     C        0.90060    0.59950    0.04390    1.000
    H116     H        0.90040    0.60510    0.06630    1.000
    C210     C        0.93310    0.60530    0.03030    1.000
    C211     C        0.93180    0.59570    0.99790    1.000
    H117     H        0.95310    0.59900    0.98730    1.000
    C212     C        0.96750    0.62370    0.04750    1.000
    C213     C        0.97620    0.65040    0.06840    1.000
    H118     H        0.95860    0.65740    0.07280    1.000
    C214     C        0.00880    0.66850    0.08430    1.000
    H119     H        0.01460    0.68810    0.09880    1.000
    C215     C        0.03330    0.65600    0.07740    1.000
    C216     C        0.02530    0.62920    0.05770    1.000
    H120     H        0.04200    0.62070    0.05480    1.000
    C217     C        0.99370    0.61330    0.04130    1.000
    H121     H        0.98890    0.59510    0.02550    1.000
    C218     C        0.06890    0.67440    0.09460    1.000
    C219     C        0.83840    0.58030    0.04250    1.000
    C220     C        0.80340    0.55250    0.03210    1.000
    H122     H        0.80070    0.53910    0.01270    1.000
    C221     C        0.77210    0.54490    0.05140    1.000
    H123     H        0.74940    0.52380    0.04710    1.000
    C222     C        0.77480    0.56850    0.07660    1.000
    C223     C        0.80970    0.59840    0.08550    1.000
    H124     H        0.81200    0.61380    0.10330    1.000
    C224     C        0.84100    0.60500    0.06730    1.000
    H125     H        0.86380    0.62600    0.07170    1.000
    C225     C        0.74270    0.56500    0.09620    1.000
    C226     C        0.93960    0.50550    0.75910    1.000
    C227     C        0.95730    0.48800    0.74390    1.000
    C228     C        0.97730    0.47660    0.76080    1.000
    H126     H        0.98030    0.48120    0.78350    1.000
    C229     C        0.99220    0.45990    0.74780    1.000
    H127     H        0.00500    0.45200    0.76140    1.000
    C230     C        0.99020    0.45300    0.71460    1.000
    C231     C        0.96860    0.46250    0.69630    1.000
    H128     H        0.96450    0.45630    0.67380    1.000
    C232     C        0.95310    0.48050    0.71080    1.000
    H129     H        0.93940    0.48800    0.69800    1.000
    C233     C        0.00590    0.43370    0.69870    1.000
    C234     C        0.00220    0.40170    0.71570    1.000
    H130     H        0.99110    0.39450    0.73660    1.000
    C235     C        0.01560    0.38330    0.69970    1.000
    C236     C        0.02920    0.39140    0.67120    1.000
    H131     H        0.03660    0.37600    0.66130    1.000
    C237     C        0.03400    0.42130    0.65370    1.000
    C238     C        0.02080    0.44330    0.66840    1.000
    H132     H        0.02250    0.46380    0.65740    1.000
    C239     C        0.05000    0.43070    0.62210    1.000
    C240     C        0.07290    0.42200    0.61110    1.000
    H133     H        0.08050    0.40910    0.62500    1.000
    C241     C        0.08660    0.43010    0.58040    1.000
    H134     H        0.10600    0.42610    0.57480    1.000
    C242     C        0.07440    0.44310    0.55890    1.000
    C243     C        0.04730    0.45020    0.56870    1.000
    H135     H        0.03750    0.46050    0.55420    1.000
    C244     C        0.03560    0.44190    0.60000    1.000
    H136     H        0.01540    0.44430    0.60630    1.000
    C245     C        0.08650    0.44950    0.52750    1.000
    C246     C        0.02240    0.35120    0.74650    1.000
    H137     H        0.03210    0.37340    0.75820    1.000
    C247     C        0.01300    0.34980    0.71330    1.000
    C248     C        0.99930    0.31740    0.69480    1.000
    H138     H        0.99210    0.31670    0.67280    1.000
    C249     C        0.99670    0.28530    0.71030    1.000
    H139     H        0.98980    0.26400    0.69800    1.000
    C250     C        0.00470    0.28650    0.74390    1.000
    C251     C        0.01720    0.31840    0.76250    1.000
    H140     H        0.02210    0.31850    0.78500    1.000
    C252     C        0.99970    0.25600    0.75910    1.000
    Eu5      Eu       0.57547    0.86915    0.12171    1.000
    In5      In       0.36226    0.88980    0.46994    1.000
    O57      O        0.51759    0.84111    0.10515    1.000
    O58      O        0.53557    0.81396    0.13995    1.000
    O59      O        0.59503    0.87727    0.17229    1.000
    O60      O        0.55518    0.89224    0.16124    1.000
    O61      O        0.74245    0.03407    0.44451    1.000
    O62      O        0.75753    0.99646    0.42233    1.000
    O63      O        0.58557    0.84603    0.07574    1.000
    O64      O        0.61289    0.84785    0.12113    1.000
    O65      O        0.41147    0.91923    0.45133    1.000
    O66      O        0.38307    0.87453    0.42203    1.000
    O67      O        0.77727    0.77873    0.85123    1.000
    O68      O        0.73727    0.79363    0.84113    1.000
    O69      O        0.67797    0.59333    0.11773    1.000
    O70      O        0.65227    0.56253    0.07363    1.000
    C253     C        0.51107    0.81483    0.12363    1.000
    C254     C        0.47438    0.78474    0.12483    1.000
    C255     C        0.46627    0.75383    0.14293    1.000
    H141     H        0.48447    0.75243    0.15523    1.000
    C256     C        0.43037    0.72473    0.14253    1.000
    H142     H        0.42437    0.70393    0.15543    1.000
    C257     C        0.40327    0.72513    0.12403    1.000
    C258     C        0.41267    0.75703    0.10613    1.000
    H143     H        0.39457    0.75853    0.09373    1.000
    C259     C        0.44777    0.78623    0.10643    1.000
    H144     H        0.45377    0.80733    0.09403    1.000
    C260     C        0.36837    0.69543    0.12383    1.000
    C261     C        0.36187    0.66203    0.12423    1.000
    H145     H        0.38207    0.65823    0.12493    1.000
    C262     C        0.57587    0.88803    0.18163    1.000
    C263     C        0.57207    0.89583    0.21383    1.000
    C264     C        0.54887    0.90783    0.22423    1.000
    H146     H        0.53477    0.91233    0.20903    1.000
    C265     C        0.54637    0.91353    0.25893    1.000
    H147     H        0.53077    0.92193    0.26633    1.000
    C266     C        0.56657    0.90673    0.28073    1.000
    C267     C        0.58947    0.89283    0.27043    1.000
    H148     H        0.60287    0.88763    0.28583    1.000
    C268     C        0.59177    0.88693    0.23673    1.000
    H149     H        0.60627    0.87703    0.22943    1.000
    C269     C        0.56637    0.91473    0.31463    1.000
    C270     C        0.53637    0.90763    0.33013    1.000
    H150     H        0.51377    0.89343    0.31943    1.000
    C271     C        0.53667    0.91983    0.36093    1.000
    C272     C        0.56727    0.93283    0.37723    1.000
    H151     H        0.56707    0.93843    0.39963    1.000
    C273     C        0.59977    0.93863    0.36363    1.000
    C274     C        0.59847    0.92903    0.33123    1.000
    H152     H        0.61977    0.93233    0.32063    1.000
    C275     C        0.63417    0.95703    0.38083    1.000
    C276     C        0.64287    0.98373    0.40173    1.000
    H153     H        0.62527    0.99073    0.40613    1.000
    C277     C        0.67547    0.00183    0.41763    1.000
    H154     H        0.68127    0.02143    0.43213    1.000
    C278     C        0.69997    0.98933    0.41073    1.000
    C279     C        0.69197    0.96253    0.39103    1.000
    H155     H        0.70867    0.95403    0.38813    1.000
    C280     C        0.66037    0.94663    0.37463    1.000
    H156     H        0.65557    0.92843    0.35883    1.000
    C281     C        0.73557    0.00773    0.42793    1.000
    C282     C        0.50507    0.91363    0.37583    1.000
    C283     C        0.47007    0.88583    0.36543    1.000
    H157     H        0.46737    0.87243    0.34603    1.000
    C284     C        0.43877    0.87823    0.38473    1.000
    H158     H        0.41607    0.85713    0.38043    1.000
    C285     C        0.44147    0.90183    0.40993    1.000
    C286     C        0.47637    0.93173    0.41883    1.000
    H159     H        0.47867    0.94713    0.43663    1.000
    C287     C        0.50767    0.93833    0.40063    1.000
    H160     H        0.53047    0.95933    0.40503    1.000
    C288     C        0.40937    0.89833    0.42953    1.000
    C289     C        0.60627    0.83883    0.09243    1.000
    C290     C        0.62397    0.82133    0.07723    1.000
    C291     C        0.64397    0.80993    0.09413    1.000
    H161     H        0.64697    0.81453    0.11683    1.000
    C292     C        0.65887    0.79323    0.08113    1.000
    H162     H        0.67167    0.78533    0.09473    1.000
    C293     C        0.65687    0.78633    0.04793    1.000
    C294     C        0.63527    0.79583    0.02963    1.000
    H163     H        0.63117    0.78963    0.00713    1.000
    C295     C        0.61977    0.81383    0.04413    1.000
    H164     H        0.60607    0.82133    0.03133    1.000
    C296     C        0.67257    0.76703    0.03203    1.000
    C297     C        0.66887    0.73503    0.04903    1.000
    H165     H        0.65777    0.72783    0.06993    1.000
    C298     C        0.68227    0.71663    0.03303    1.000
    C299     C        0.69587    0.72473    0.00453    1.000
    H166     H        0.70327    0.70933    0.99463    1.000
    C300     C        0.70067    0.75463    0.98703    1.000
    C301     C        0.68747    0.77663    0.00173    1.000
    H167     H        0.68917    0.79713    0.99073    1.000
    C302     C        0.71667    0.76403    0.95543    1.000
    C303     C        0.73957    0.75533    0.94443    1.000
    H168     H        0.74717    0.74243    0.95833    1.000
    C304     C        0.75327    0.76343    0.91373    1.000
    H169     H        0.77267    0.75943    0.90813    1.000
    C305     C        0.74107    0.77643    0.89223    1.000
    C306     C        0.71397    0.78353    0.90203    1.000
    H170     H        0.70417    0.79383    0.88753    1.000
    C307     C        0.70227    0.77523    0.93333    1.000
    H171     H        0.68207    0.77763    0.93963    1.000
    C308     C        0.75317    0.78283    0.86083    1.000
    C309     C        0.68907    0.68453    0.07983    1.000
    H172     H        0.69877    0.70673    0.09153    1.000
    C310     C        0.67967    0.68313    0.04663    1.000
    C311     C        0.66597    0.65073    0.02813    1.000
    H173     H        0.65877    0.65003    0.00613    1.000
    C312     C        0.66337    0.61863    0.04363    1.000
    H174     H        0.65647    0.59733    0.03133    1.000
    C313     C        0.67137    0.61983    0.07723    1.000
    C314     C        0.68387    0.65173    0.09583    1.000
    H175     H        0.68877    0.65183    0.11833    1.000
    C315     C        0.66637    0.58933    0.09243    1.000
    Eu6      Eu       0.24214    0.20248    0.45504    1.000
    In6      In       0.02892    0.22314    0.80328    1.000
    O71      O        0.18425    0.17445    0.43849    1.000
    O72      O        0.20223    0.14730    0.47329    1.000
    O73      O        0.26169    0.21061    0.50563    1.000
    O74      O        0.22184    0.22558    0.49458    1.000
    O75      O        0.40911    0.36741    0.77785    1.000
    O76      O        0.42419    0.32980    0.75567    1.000
    O77      O        0.25223    0.17937    0.40908    1.000
    O78      O        0.27955    0.18119    0.45447    1.000
    O79      O        0.07813    0.25257    0.78467    1.000
    O80      O        0.04973    0.20787    0.75537    1.000
    O81      O        0.44393    0.11207    0.18457    1.000
    O82      O        0.40393    0.12697    0.17447    1.000
    O83      O        0.34463    0.92667    0.45107    1.000
    O84      O        0.31893    0.89587    0.40697    1.000
    C316     C        0.17773    0.14817    0.45697    1.000
    C317     C        0.14104    0.11808    0.45817    1.000
    C318     C        0.13293    0.08717    0.47627    1.000
    H176     H        0.15113    0.08577    0.48857    1.000
    C319     C        0.09703    0.05807    0.47587    1.000
    H177     H        0.09103    0.03727    0.48877    1.000
    C320     C        0.06993    0.05847    0.45737    1.000
    C321     C        0.07933    0.09037    0.43947    1.000
    H178     H        0.06123    0.09187    0.42707    1.000
    C322     C        0.11443    0.11957    0.43977    1.000
    H179     H        0.12043    0.14067    0.42737    1.000
    C323     C        0.03503    0.02877    0.45717    1.000
    C324     C        0.02853    0.99537    0.45757    1.000
    H180     H        0.04873    0.99157    0.45827    1.000
    C325     C        0.24253    0.22137    0.51497    1.000
    C326     C        0.23873    0.22917    0.54717    1.000
    C327     C        0.21553    0.24117    0.55757    1.000
    H181     H        0.20143    0.24567    0.54237    1.000
    C328     C        0.21303    0.24687    0.59227    1.000
    H182     H        0.19743    0.25527    0.59967    1.000
    C329     C        0.23323    0.24007    0.61407    1.000
    C330     C        0.25613    0.22617    0.60377    1.000
    H183     H        0.26953    0.22097    0.61917    1.000
    C331     C        0.25843    0.22027    0.57007    1.000
    H184     H        0.27293    0.21037    0.56277    1.000
    C332     C        0.23303    0.24807    0.64797    1.000
    C333     C        0.20303    0.24097    0.66347    1.000
    H185     H        0.18043    0.22677    0.65277    1.000
    C334     C        0.20333    0.25317    0.69427    1.000
    C335     C        0.23393    0.26617    0.71057    1.000
    H186     H        0.23373    0.27177    0.73297    1.000
    C336     C        0.26643    0.27197    0.69697    1.000
    C337     C        0.26513    0.26237    0.66457    1.000
    H187     H        0.28643    0.26567    0.65397    1.000
    C338     C        0.30083    0.29037    0.71417    1.000
    C339     C        0.30953    0.31707    0.73507    1.000
    H188     H        0.29193    0.32407    0.73947    1.000
    C340     C        0.34213    0.33517    0.75097    1.000
    H189     H        0.34793    0.35477    0.76547    1.000
    C341     C        0.36663    0.32267    0.74407    1.000
    C342     C        0.35863    0.29587    0.72437    1.000
    H190     H        0.37533    0.28737    0.72147    1.000
    C343     C        0.32703    0.27997    0.70797    1.000
    H191     H        0.32223    0.26177    0.69217    1.000
    C344     C        0.40223    0.34107    0.76127    1.000
    C345     C        0.17173    0.24697    0.70917    1.000
    C346     C        0.13673    0.21917    0.69877    1.000
    H192     H        0.13403    0.20577    0.67937    1.000
    C347     C        0.10543    0.21157    0.71807    1.000
    H193     H        0.08273    0.19047    0.71377    1.000
    C348     C        0.10813    0.23517    0.74327    1.000
    C349     C        0.14303    0.26507    0.75217    1.000
    H194     H        0.14533    0.28047    0.76997    1.000
    C350     C        0.17433    0.27167    0.73397    1.000
    H195     H        0.19713    0.29267    0.73837    1.000
    C351     C        0.07603    0.23167    0.76287    1.000
    C352     C        0.27293    0.17217    0.42577    1.000
    C353     C        0.29063    0.15467    0.41057    1.000
    C354     C        0.31063    0.14327    0.42747    1.000
    H196     H        0.31363    0.14787    0.45017    1.000
    C355     C        0.32553    0.12657    0.41447    1.000
    H197     H        0.33833    0.11867    0.42807    1.000
    C356     C        0.32353    0.11967    0.38127    1.000
    C357     C        0.30193    0.12917    0.36297    1.000
    H198     H        0.29783    0.12297    0.34047    1.000
    C358     C        0.28643    0.14717    0.37747    1.000
    H199     H        0.27273    0.15467    0.36467    1.000
    C359     C        0.33923    0.10037    0.36537    1.000
    C360     C        0.33553    0.06837    0.38237    1.000
    H200     H        0.32443    0.06117    0.40327    1.000
    C361     C        0.34893    0.04997    0.36637    1.000
    C362     C        0.36253    0.05807    0.33787    1.000
    H201     H        0.36993    0.04267    0.32797    1.000
    C363     C        0.36733    0.08797    0.32037    1.000
    C364     C        0.35413    0.10997    0.33507    1.000
    H202     H        0.35583    0.13047    0.32407    1.000
    C365     C        0.38333    0.09737    0.28877    1.000
    C366     C        0.40623    0.08867    0.27777    1.000
    H203     H        0.41383    0.07577    0.29167    1.000
    C367     C        0.41993    0.09677    0.24707    1.000
    H204     H        0.43933    0.09277    0.24147    1.000
    C368     C        0.40773    0.10977    0.22557    1.000
    C369     C        0.38063    0.11687    0.23537    1.000
    H205     H        0.37083    0.12717    0.22087    1.000
    C370     C        0.36893    0.10857    0.26667    1.000
    H206     H        0.34873    0.11097    0.27297    1.000
    C371     C        0.41983    0.11617    0.19417    1.000
    C372     C        0.35573    0.01787    0.41317    1.000
    H207     H        0.36543    0.04007    0.42487    1.000
    C373     C        0.34633    0.01647    0.37997    1.000
    C374     C        0.33263    0.98407    0.36147    1.000
    H208     H        0.32543    0.98337    0.33947    1.000
    C375     C        0.33003    0.95197    0.37697    1.000
    H209     H        0.32313    0.93067    0.36467    1.000
    C376     C        0.33803    0.95317    0.41057    1.000
    C377     C        0.35053    0.98507    0.42917    1.000
    H210     H        0.35543    0.98517    0.45167    1.000
    C378     C        0.33303    0.92267    0.42577    1.000
    Eu7      Eu       0.46418    0.37299    0.78837    1.000
    In7      In       0.44353    0.13912    0.13661    1.000
    O85      O        0.49222    0.34314    0.77182    1.000
    O86      O        0.51937    0.38827    0.80662    1.000
    O87      O        0.45606    0.38442    0.83896    1.000
    O88      O        0.44109    0.32960    0.82791    1.000
    O89      O        0.29926    0.37504    0.11118    1.000
    O90      O        0.33687    0.42773    0.08900    1.000
    O91      O        0.48730    0.40620    0.74241    1.000
    O92      O        0.48548    0.43170    0.78780    1.000
    O93      O        0.41410    0.15890    0.11800    1.000
    O94      O        0.45880    0.17520    0.08870    1.000
    O95      O        0.55460    0.66520    0.51790    1.000
    O96      O        0.53970    0.61030    0.50780    1.000
    O97      O        0.74000    0.75130    0.78440    1.000
    O98      O        0.77080    0.75640    0.74030    1.000
    C379     C        0.51850    0.36290    0.79030    1.000
    C380     C        0.54859    0.35630    0.79150    1.000
    C381     C        0.57950    0.37910    0.80960    1.000
    H211     H        0.58090    0.39870    0.82190    1.000
    C382     C        0.60860    0.37230    0.80920    1.000
    H212     H        0.62940    0.38710    0.82210    1.000
    C383     C        0.60820    0.34480    0.79070    1.000
    C384     C        0.57630    0.32230    0.77280    1.000
    H213     H        0.57480    0.30270    0.76040    1.000
    C385     C        0.54710    0.32820    0.77310    1.000
    H214     H        0.52600    0.31310    0.76070    1.000
    C386     C        0.63790    0.33960    0.79050    1.000
    C387     C        0.67130    0.36650    0.79090    1.000
    H215     H        0.67510    0.39050    0.79160    1.000
    C388     C        0.44530    0.35450    0.84830    1.000
    C389     C        0.43750    0.34290    0.88050    1.000
    C390     C        0.42550    0.30770    0.89090    1.000
    H216     H        0.42100    0.28910    0.87570    1.000
    C391     C        0.41980    0.29950    0.92560    1.000
    H217     H        0.41140    0.27550    0.93300    1.000
    C392     C        0.42660    0.32650    0.94740    1.000
    C393     C        0.44050    0.36330    0.93710    1.000
    H218     H        0.44570    0.38190    0.95250    1.000
    C394     C        0.44640    0.37150    0.90340    1.000
    H219     H        0.45630    0.39590    0.89610    1.000
    C395     C        0.41860    0.31830    0.98130    1.000
    C396     C        0.42570    0.29540    0.99680    1.000
    H220     H        0.43990    0.28700    0.98610    1.000
    C397     C        0.41350    0.28350    0.02760    1.000
    C398     C        0.40050    0.30110    0.04390    1.000
    H221     H        0.39490    0.29530    0.06630    1.000
    C399     C        0.39470    0.32780    0.03030    1.000
    C400     C        0.40430    0.33610    0.99790    1.000
    H222     H        0.40100    0.35410    0.98730    1.000
    C401     C        0.37630    0.34380    0.04750    1.000
    C402     C        0.34960    0.32580    0.06840    1.000
    H223     H        0.34260    0.30120    0.07280    1.000
    C403     C        0.33150    0.34030    0.08430    1.000
    H224     H        0.31190    0.32650    0.09880    1.000
    C404     C        0.34400    0.37730    0.07740    1.000
    C405     C        0.37080    0.39610    0.05770    1.000
    H225     H        0.37930    0.42130    0.05480    1.000
    C406     C        0.38670    0.38040    0.04130    1.000
    H226     H        0.40490    0.39380    0.02550    1.000
    C407     C        0.32560    0.39450    0.09460    1.000
    C408     C        0.41970    0.25810    0.04250    1.000
    C409     C        0.44750    0.25090    0.03210    1.000
    H227     H        0.46090    0.26160    0.01270    1.000
    C410     C        0.45510    0.22720    0.05140    1.000
    H228     H        0.47620    0.22560    0.04710    1.000
    C411     C        0.43150    0.20630    0.07660    1.000
    C412     C        0.40160    0.21130    0.08550    1.000
    H229     H        0.38620    0.19820    0.10330    1.000
    C413     C        0.39500    0.23600    0.06730    1.000
    H230     H        0.37400    0.23780    0.07170    1.000
    C414     C        0.43500    0.17770    0.09620    1.000
    C415     C        0.49450    0.43410    0.75910    1.000
    C416     C        0.51200    0.46930    0.74390    1.000
    C417     C        0.52340    0.50070    0.76080    1.000
    H231     H        0.51880    0.49910    0.78350    1.000
    C418     C        0.54010    0.53230    0.74780    1.000
    H232     H        0.54800    0.55300    0.76140    1.000
    C419     C        0.54700    0.53720    0.71460    1.000
    C420     C        0.53750    0.50610    0.69630    1.000
    H233     H        0.54370    0.50820    0.67380    1.000
    C421     C        0.51950    0.47260    0.71080    1.000
    H234     H        0.51200    0.45140    0.69800    1.000
    C422     C        0.56630    0.57220    0.69870    1.000
    C423     C        0.59830    0.60050    0.71570    1.000
    H235     H        0.60550    0.59660    0.73660    1.000
    C424     C        0.61670    0.63230    0.69970    1.000
    C425     C        0.60860    0.63780    0.67120    1.000
    H236     H        0.62400    0.66060    0.66130    1.000
    C426     C        0.57870    0.61270    0.65370    1.000
    C427     C        0.55670    0.57750    0.66840    1.000
    H237     H        0.53620    0.55870    0.65740    1.000
    C428     C        0.56930    0.61930    0.62210    1.000
    C429     C        0.57800    0.65090    0.61110    1.000
    H238     H        0.59090    0.67140    0.62500    1.000
    C430     C        0.56990    0.65650    0.58040    1.000
    H239     H        0.57390    0.67990    0.57480    1.000
    C431     C        0.55690    0.63130    0.55890    1.000
    C432     C        0.54980    0.59710    0.56870    1.000
    H240     H        0.53950    0.57700    0.55420    1.000
    C433     C        0.55810    0.59370    0.60000    1.000
    H241     H        0.55570    0.57110    0.60630    1.000
    C434     C        0.55050    0.63700    0.52750    1.000
    C435     C        0.64880    0.67120    0.74650    1.000
    H242     H        0.62660    0.65870    0.75820    1.000
    C436     C        0.65020    0.66320    0.71330    1.000
    C437     C        0.68260    0.68190    0.69480    1.000
    H243     H        0.68330    0.67540    0.67280    1.000
    C438     C        0.71470    0.71140    0.71030    1.000
    H244     H        0.73600    0.72580    0.69800    1.000
    C439     C        0.71350    0.71820    0.74390    1.000
    C440     C        0.68160    0.69880    0.76250    1.000
    H245     H        0.68150    0.70360    0.78500    1.000
    C441     C        0.74400    0.74370    0.75910    1.000
    Eu8      Eu       0.13085    0.70632    0.12171    1.000
    In8      In       0.11020    0.47245    0.46994    1.000
    O99      O        0.15889    0.67647    0.10515    1.000
    O100     O        0.18604    0.72160    0.13995    1.000
    O101     O        0.12273    0.71775    0.17229    1.000
    O102     O        0.10776    0.66293    0.16124    1.000
    O103     O        0.96593    0.70837    0.44451    1.000
    O104     O        0.00354    0.76106    0.42233    1.000
    O105     O        0.15397    0.73953    0.07574    1.000
    O106     O        0.15215    0.76503    0.12113    1.000
    O107     O        0.08077    0.49223    0.45133    1.000
    O108     O        0.12547    0.50853    0.42203    1.000
    O109     O        0.22127    0.99853    0.85123    1.000
    O110     O        0.20637    0.94363    0.84113    1.000
    O111     O        0.40667    0.08463    0.11773    1.000
    O112     O        0.43747    0.08973    0.07363    1.000
    C442     C        0.18517    0.69623    0.12363    1.000
    C443     C        0.21526    0.68963    0.12483    1.000
    C444     C        0.24617    0.71243    0.14293    1.000
    H246     H        0.24757    0.73203    0.15523    1.000
    C445     C        0.27527    0.70563    0.14253    1.000
    H247     H        0.29607    0.72043    0.15543    1.000
    C446     C        0.27487    0.67813    0.12403    1.000
    C447     C        0.24297    0.65563    0.10613    1.000
    H248     H        0.24147    0.63603    0.09373    1.000
    C448     C        0.21377    0.66153    0.10643    1.000
    H249     H        0.19267    0.64643    0.09403    1.000
    C449     C        0.30457    0.67293    0.12383    1.000
    C450     C        0.33797    0.69983    0.12423    1.000
    H250     H        0.34177    0.72383    0.12493    1.000
    C451     C        0.11197    0.68783    0.18163    1.000
    C452     C        0.10417    0.67623    0.21383    1.000
    C453     C        0.09217    0.64103    0.22423    1.000
    H251     H        0.08767    0.62243    0.20903    1.000
    C454     C        0.08647    0.63283    0.25893    1.000
    H252     H        0.07807    0.60883    0.26633    1.000
    C455     C        0.09327    0.65983    0.28073    1.000
    C456     C        0.10717    0.69663    0.27043    1.000
    H253     H        0.11237    0.71523    0.28583    1.000
    C457     C        0.11307    0.70483    0.23673    1.000
    H254     H        0.12297    0.72923    0.22943    1.000
    C458     C        0.08527    0.65163    0.31463    1.000
    C459     C        0.09237    0.62873    0.33013    1.000
    H255     H        0.10657    0.62033    0.31943    1.000
    C460     C        0.08017    0.61683    0.36093    1.000
    C461     C        0.06717    0.63443    0.37723    1.000
    H256     H        0.06157    0.62863    0.39963    1.000
    C462     C        0.06137    0.66113    0.36363    1.000
    C463     C        0.07097    0.66943    0.33123    1.000
    H257     H        0.06767    0.68743    0.32063    1.000
    C464     C        0.04297    0.67713    0.38083    1.000
    C465     C        0.01627    0.65913    0.40173    1.000
    H258     H        0.00927    0.63453    0.40613    1.000
    C466     C        0.99817    0.67363    0.41763    1.000
    H259     H        0.97857    0.65983    0.43213    1.000
    C467     C        0.01067    0.71063    0.41073    1.000
    C468     C        0.03747    0.72943    0.39103    1.000
    H260     H        0.04597    0.75463    0.38813    1.000
    C469     C        0.05337    0.71373    0.37463    1.000
    H261     H        0.07157    0.72713    0.35883    1.000
    C470     C        0.99227    0.72783    0.42793    1.000
    C471     C        0.08637    0.59143    0.37583    1.000
    C472     C        0.11417    0.58423    0.36543    1.000
    H262     H        0.12757    0.59493    0.34603    1.000
    C473     C        0.12177    0.56053    0.38473    1.000
    H263     H        0.14287    0.55893    0.38043    1.000
    C474     C        0.09817    0.53963    0.40993    1.000
    C475     C        0.06827    0.54463    0.41883    1.000
    H264     H        0.05287    0.53153    0.43663    1.000
    C476     C        0.06167    0.56933    0.40063    1.000
    H265     H        0.04067    0.57113    0.40503    1.000
    C477     C        0.10167    0.51103    0.42953    1.000
    C478     C        0.16117    0.76743    0.09243    1.000
    C479     C        0.17867    0.80263    0.07723    1.000
    C480     C        0.19007    0.83403    0.09413    1.000
    H266     H        0.18547    0.83243    0.11683    1.000
    C481     C        0.20677    0.86563    0.08113    1.000
    H267     H        0.21467    0.88633    0.09473    1.000
    C482     C        0.21367    0.87053    0.04793    1.000
    C483     C        0.20417    0.83943    0.02963    1.000
    H268     H        0.21037    0.84153    0.00713    1.000
    C484     C        0.18617    0.80593    0.04413    1.000
    H269     H        0.17867    0.78473    0.03133    1.000
    C485     C        0.23297    0.90553    0.03203    1.000
    C486     C        0.26497    0.93383    0.04903    1.000
    H270     H        0.27217    0.92993    0.06993    1.000
    C487     C        0.28337    0.96563    0.03303    1.000
    C488     C        0.27527    0.97113    0.00453    1.000
    H271     H        0.29067    0.99393    0.99463    1.000
    C489     C        0.24537    0.94603    0.98703    1.000
    C490     C        0.22337    0.91083    0.00173    1.000
    H272     H        0.20287    0.89203    0.99073    1.000
    C491     C        0.23597    0.95263    0.95543    1.000
    C492     C        0.24467    0.98423    0.94443    1.000
    H273     H        0.25757    0.00473    0.95833    1.000
    C493     C        0.23657    0.98983    0.91373    1.000
    H274     H        0.24057    0.01323    0.90813    1.000
    C494     C        0.22357    0.96463    0.89223    1.000
    C495     C        0.21647    0.93043    0.90203    1.000
    H275     H        0.20617    0.91033    0.88753    1.000
    C496     C        0.22477    0.92703    0.93333    1.000
    H276     H        0.22237    0.90443    0.93963    1.000
    C497     C        0.21717    0.97033    0.86083    1.000
    C498     C        0.31547    0.00453    0.07983    1.000
    H277     H        0.29327    0.99203    0.09153    1.000
    C499     C        0.31687    0.99653    0.04663    1.000
    C500     C        0.34927    0.01523    0.02813    1.000
    H278     H        0.34997    0.00873    0.00613    1.000
    C501     C        0.38137    0.04473    0.04363    1.000
    H279     H        0.40267    0.05913    0.03133    1.000
    C502     C        0.38017    0.05153    0.07723    1.000
    C503     C        0.34827    0.03213    0.09583    1.000
    H280     H        0.34817    0.03693    0.11833    1.000
    C504     C        0.41067    0.07703    0.09243    1.000
    Eu9      Eu       0.79752    0.03966    0.45504    1.000
    In9      In       0.77686    0.80579    0.80328    1.000
    O113     O        0.82555    0.00981    0.43849    1.000
    O114     O        0.85270    0.05494    0.47329    1.000
    O115     O        0.78939    0.05109    0.50563    1.000
    O116     O        0.77442    0.99627    0.49458    1.000
    O117     O        0.63259    0.04171    0.77785    1.000
    O118     O        0.67020    0.09440    0.75567    1.000
    O119     O        0.82063    0.07287    0.40908    1.000
    O120     O        0.81881    0.09837    0.45447    1.000
    O121     O        0.74743    0.82557    0.78467    1.000
    O122     O        0.79213    0.84187    0.75537    1.000
    O123     O        0.88793    0.33187    0.18457    1.000
    O124     O        0.87303    0.27697    0.17447    1.000
    O125     O        0.07333    0.41797    0.45107    1.000
    O126     O        0.10413    0.42307    0.40697    1.000
    C505     C        0.85183    0.02957    0.45697    1.000
    C506     C        0.88192    0.02297    0.45817    1.000
    C507     C        0.91283    0.04577    0.47627    1.000
    H281     H        0.91423    0.06537    0.48857    1.000
    C508     C        0.94193    0.03897    0.47587    1.000
    H282     H        0.96273    0.05377    0.48877    1.000
    C509     C        0.94153    0.01147    0.45737    1.000
    C510     C        0.90963    0.98897    0.43947    1.000
    H283     H        0.90813    0.96937    0.42707    1.000
    C511     C        0.88043    0.99487    0.43977    1.000
    H284     H        0.85933    0.97977    0.42737    1.000
    C512     C        0.97123    0.00627    0.45717    1.000
    C513     C        0.00463    0.03317    0.45757    1.000
    H285     H        0.00843    0.05717    0.45827    1.000
    C514     C        0.77863    0.02117    0.51497    1.000
    C515     C        0.77083    0.00957    0.54717    1.000
    C516     C        0.75883    0.97437    0.55757    1.000
    H286     H        0.75433    0.95577    0.54237    1.000
    C517     C        0.75313    0.96617    0.59227    1.000
    H287     H        0.74473    0.94217    0.59967    1.000
    C518     C        0.75993    0.99317    0.61407    1.000
    C519     C        0.77383    0.02997    0.60377    1.000
    H288     H        0.77903    0.04857    0.61917    1.000
    C520     C        0.77973    0.03817    0.57007    1.000
    H289     H        0.78963    0.06257    0.56277    1.000
    C521     C        0.75193    0.98497    0.64797    1.000
    C522     C        0.75903    0.96207    0.66347    1.000
    H290     H        0.77323    0.95367    0.65277    1.000
    C523     C        0.74683    0.95017    0.69427    1.000
    C524     C        0.73383    0.96777    0.71057    1.000
    H291     H        0.72823    0.96197    0.73297    1.000
    C525     C        0.72803    0.99447    0.69697    1.000
    C526     C        0.73763    0.00277    0.66457    1.000
    H292     H        0.73433    0.02077    0.65397    1.000
    C527     C        0.70963    0.01047    0.71417    1.000
    C528     C        0.68293    0.99247    0.73507    1.000
    H293     H        0.67593    0.96787    0.73947    1.000
    C529     C        0.66483    0.00697    0.75097    1.000
    H294     H        0.64523    0.99317    0.76547    1.000
    C530     C        0.67733    0.04397    0.74407    1.000
    C531     C        0.70413    0.06277    0.72437    1.000
    H295     H        0.71263    0.08797    0.72147    1.000
    C532     C        0.72003    0.04707    0.70797    1.000
    H296     H        0.73823    0.06047    0.69217    1.000
    C533     C        0.65893    0.06117    0.76127    1.000
    C534     C        0.75303    0.92477    0.70917    1.000
    C535     C        0.78083    0.91757    0.69877    1.000
    H297     H        0.79423    0.92827    0.67937    1.000
    C536     C        0.78843    0.89387    0.71807    1.000
    H298     H        0.80953    0.89227    0.71377    1.000
    C537     C        0.76483    0.87297    0.74327    1.000
    C538     C        0.73493    0.87797    0.75217    1.000
    H299     H        0.71953    0.86487    0.76997    1.000
    C539     C        0.72833    0.90267    0.73397    1.000
    H300     H        0.70733    0.90447    0.73837    1.000
    C540     C        0.76833    0.84437    0.76287    1.000
    C541     C        0.82783    0.10077    0.42577    1.000
    C542     C        0.84533    0.13597    0.41057    1.000
    C543     C        0.85673    0.16737    0.42747    1.000
    H301     H        0.85213    0.16577    0.45017    1.000
    C544     C        0.87343    0.19897    0.41447    1.000
    H302     H        0.88133    0.21967    0.42807    1.000
    C545     C        0.88033    0.20387    0.38127    1.000
    C546     C        0.87083    0.17277    0.36297    1.000
    H303     H        0.87703    0.17487    0.34047    1.000
    C547     C        0.85283    0.13927    0.37747    1.000
    H304     H        0.84533    0.11807    0.36467    1.000
    C548     C        0.89963    0.23887    0.36537    1.000
    C549     C        0.93163    0.26717    0.38237    1.000
    H305     H        0.93883    0.26327    0.40327    1.000
    C550     C        0.95003    0.29897    0.36637    1.000
    C551     C        0.94193    0.30447    0.33787    1.000
    H306     H        0.95733    0.32727    0.32797    1.000
    C552     C        0.91203    0.27937    0.32037    1.000
    C553     C        0.89003    0.24417    0.33507    1.000
    H307     H        0.86953    0.22537    0.32407    1.000
    C554     C        0.90263    0.28597    0.28877    1.000
    C555     C        0.91133    0.31757    0.27777    1.000
    H308     H        0.92423    0.33807    0.29167    1.000
    C556     C        0.90323    0.32317    0.24707    1.000
    H309     H        0.90723    0.34657    0.24147    1.000
    C557     C        0.89023    0.29797    0.22557    1.000
    C558     C        0.88313    0.26377    0.23537    1.000
    H310     H        0.87283    0.24367    0.22087    1.000
    C559     C        0.89143    0.26037    0.26667    1.000
    H311     H        0.88903    0.23777    0.27297    1.000
    C560     C        0.88383    0.30367    0.19417    1.000
    C561     C        0.98213    0.33787    0.41317    1.000
    H312     H        0.95993    0.32537    0.42487    1.000
    C562     C        0.98353    0.32987    0.37997    1.000
    C563     C        0.01593    0.34857    0.36147    1.000
    H313     H        0.01663    0.34207    0.33947    1.000
    C564     C        0.04803    0.37807    0.37697    1.000
    H314     H        0.06933    0.39247    0.36467    1.000
    C565     C        0.04683    0.38487    0.41057    1.000
    C566     C        0.01493    0.36547    0.42917    1.000
    H315     H        0.01483    0.37027    0.45167    1.000
    C567     C        0.07733    0.41037    0.42577    1.000
    Eu10     Eu       0.37299    0.90881    0.21163    1.000
    In10     In       0.13912    0.69559    0.86339    1.000
    O127     O        0.34314    0.85092    0.22818    1.000
    O128     O        0.38827    0.86890    0.19338    1.000
    O129     O        0.38442    0.92836    0.16104    1.000
    O130     O        0.32960    0.88851    0.17209    1.000
    O131     O        0.37504    0.07578    0.88882    1.000
    O132     O        0.42773    0.09086    0.91100    1.000
    O133     O        0.40620    0.91890    0.25759    1.000
    O134     O        0.43170    0.94622    0.21220    1.000
    O135     O        0.15890    0.74480    0.88200    1.000
    O136     O        0.17520    0.71640    0.91130    1.000
    O137     O        0.66520    0.11060    0.48210    1.000
    O138     O        0.61030    0.07060    0.49220    1.000
    O139     O        0.75130    0.01130    0.21560    1.000
    O140     O        0.75640    0.98560    0.25970    1.000
    C568     C        0.36290    0.84440    0.20970    1.000
    C569     C        0.35630    0.80771    0.20850    1.000
    C570     C        0.37910    0.79960    0.19040    1.000
    H316     H        0.39870    0.81780    0.17810    1.000
    C571     C        0.37230    0.76370    0.19080    1.000
    H317     H        0.38710    0.75770    0.17790    1.000
    C572     C        0.34480    0.73660    0.20930    1.000
    C573     C        0.32230    0.74600    0.22720    1.000
    H318     H        0.30270    0.72790    0.23960    1.000
    C574     C        0.32820    0.78110    0.22690    1.000
    H319     H        0.31310    0.78710    0.23930    1.000
    C575     C        0.33960    0.70170    0.20950    1.000
    C576     C        0.36650    0.69520    0.20910    1.000
    H320     H        0.39050    0.71540    0.20840    1.000
    C577     C        0.35450    0.90920    0.15170    1.000
    C578     C        0.34290    0.90540    0.11950    1.000
    C579     C        0.30770    0.88220    0.10910    1.000
    H321     H        0.28910    0.86810    0.12430    1.000
    C580     C        0.29950    0.87970    0.07440    1.000
    H322     H        0.27550    0.86410    0.06700    1.000
    C581     C        0.32650    0.89990    0.05260    1.000
    C582     C        0.36330    0.92280    0.06290    1.000
    H323     H        0.38190    0.93620    0.04750    1.000
    C583     C        0.37150    0.92510    0.09660    1.000
    H324     H        0.39590    0.93960    0.10390    1.000
    C584     C        0.31830    0.89970    0.01870    1.000
    C585     C        0.29540    0.86970    0.00320    1.000
    H325     H        0.28700    0.84710    0.01390    1.000
    C586     C        0.28350    0.87000    0.97240    1.000
    C587     C        0.30110    0.90060    0.95610    1.000
    H326     H        0.29530    0.90040    0.93370    1.000
    C588     C        0.32780    0.93310    0.96970    1.000
    C589     C        0.33610    0.93180    0.00210    1.000
    H327     H        0.35410    0.95310    0.01270    1.000
    C590     C        0.34380    0.96750    0.95250    1.000
    C591     C        0.32580    0.97620    0.93160    1.000
    H328     H        0.30120    0.95860    0.92720    1.000
    C592     C        0.34030    0.00880    0.91570    1.000
    H329     H        0.32650    0.01460    0.90120    1.000
    C593     C        0.37730    0.03330    0.92260    1.000
    C594     C        0.39610    0.02530    0.94230    1.000
    H330     H        0.42130    0.04200    0.94520    1.000
    C595     C        0.38040    0.99370    0.95870    1.000
    H331     H        0.39380    0.98890    0.97450    1.000
    C596     C        0.39450    0.06890    0.90540    1.000
    C597     C        0.25810    0.83840    0.95750    1.000
    C598     C        0.25090    0.80340    0.96790    1.000
    H332     H        0.26160    0.80070    0.98730    1.000
    C599     C        0.22720    0.77210    0.94860    1.000
    H333     H        0.22560    0.74940    0.95290    1.000
    C600     C        0.20630    0.77480    0.92340    1.000
    C601     C        0.21130    0.80970    0.91450    1.000
    H334     H        0.19820    0.81200    0.89670    1.000
    C602     C        0.23600    0.84100    0.93270    1.000
    H335     H        0.23780    0.86380    0.92830    1.000
    C603     C        0.17770    0.74270    0.90380    1.000
    C604     C        0.43410    0.93960    0.24090    1.000
    C605     C        0.46930    0.95730    0.25610    1.000
    C606     C        0.50070    0.97730    0.23920    1.000
    H336     H        0.49910    0.98030    0.21650    1.000
    C607     C        0.53230    0.99220    0.25220    1.000
    H337     H        0.55300    0.00500    0.23860    1.000
    C608     C        0.53720    0.99020    0.28540    1.000
    C609     C        0.50610    0.96860    0.30370    1.000
    H338     H        0.50820    0.96450    0.32620    1.000
    C610     C        0.47260    0.95310    0.28920    1.000
    H339     H        0.45140    0.93940    0.30200    1.000
    C611     C        0.57220    0.00590    0.30130    1.000
    C612     C        0.60050    0.00220    0.28430    1.000
    H340     H        0.59660    0.99110    0.26340    1.000
    C613     C        0.63230    0.01560    0.30030    1.000
    C614     C        0.63780    0.02920    0.32880    1.000
    H341     H        0.66060    0.03660    0.33870    1.000
    C615     C        0.61270    0.03400    0.34630    1.000
    C616     C        0.57750    0.02080    0.33160    1.000
    H342     H        0.55870    0.02250    0.34260    1.000
    C617     C        0.61930    0.05000    0.37790    1.000
    C618     C        0.65090    0.07290    0.38890    1.000
    H343     H        0.67140    0.08050    0.37500    1.000
    C619     C        0.65650    0.08660    0.41960    1.000
    H344     H        0.67990    0.10600    0.42520    1.000
    C620     C        0.63130    0.07440    0.44110    1.000
    C621     C        0.59710    0.04730    0.43130    1.000
    H345     H        0.57700    0.03750    0.44580    1.000
    C622     C        0.59370    0.03560    0.40000    1.000
    H346     H        0.57110    0.01540    0.39370    1.000
    C623     C        0.63700    0.08650    0.47250    1.000
    C624     C        0.67120    0.02240    0.25350    1.000
    H347     H        0.65870    0.03210    0.24180    1.000
    C625     C        0.66320    0.01300    0.28670    1.000
    C626     C        0.68190    0.99930    0.30520    1.000
    H348     H        0.67540    0.99210    0.32720    1.000
    C627     C        0.71140    0.99670    0.28970    1.000
    H349     H        0.72580    0.98980    0.30200    1.000
    C628     C        0.71820    0.00470    0.25610    1.000
    C629     C        0.69880    0.01720    0.23750    1.000
    H350     H        0.70360    0.02210    0.21500    1.000
    C630     C        0.74370    0.99970    0.24090    1.000
    Eu11     Eu       0.03966    0.24214    0.54496    1.000
    In11     In       0.80579    0.02892    0.19672    1.000
    O141     O        0.00981    0.18425    0.56151    1.000
    O142     O        0.05494    0.20223    0.52671    1.000
    O143     O        0.05109    0.26169    0.49437    1.000
    O144     O        0.99627    0.22184    0.50542    1.000
    O145     O        0.04171    0.40911    0.22215    1.000
    O146     O        0.09440    0.42419    0.24433    1.000
    O147     O        0.07287    0.25223    0.59092    1.000
    O148     O        0.09837    0.27955    0.54553    1.000
    O149     O        0.82557    0.07813    0.21533    1.000
    O150     O        0.84187    0.04973    0.24463    1.000
    O151     O        0.33187    0.44393    0.81543    1.000
    O152     O        0.27697    0.40393    0.82553    1.000
    O153     O        0.41797    0.34463    0.54893    1.000
    O154     O        0.42307    0.31893    0.59303    1.000
    C631     C        0.02957    0.17773    0.54303    1.000
    C632     C        0.02297    0.14104    0.54183    1.000
    C633     C        0.04577    0.13293    0.52373    1.000
    H351     H        0.06537    0.15113    0.51143    1.000
    C634     C        0.03897    0.09703    0.52413    1.000
    H352     H        0.05377    0.09103    0.51123    1.000
    C635     C        0.01147    0.06993    0.54263    1.000
    C636     C        0.98897    0.07933    0.56053    1.000
    H353     H        0.96937    0.06123    0.57293    1.000
    C637     C        0.99487    0.11443    0.56023    1.000
    H354     H        0.97977    0.12043    0.57263    1.000
    C638     C        0.00627    0.03503    0.54283    1.000
    C639     C        0.03317    0.02853    0.54243    1.000
    H355     H        0.05717    0.04873    0.54173    1.000
    C640     C        0.02117    0.24253    0.48503    1.000
    C641     C        0.00957    0.23873    0.45283    1.000
    C642     C        0.97437    0.21553    0.44243    1.000
    H356     H        0.95577    0.20143    0.45763    1.000
    C643     C        0.96617    0.21303    0.40773    1.000
    H357     H        0.94217    0.19743    0.40033    1.000
    C644     C        0.99317    0.23323    0.38593    1.000
    C645     C        0.02997    0.25613    0.39623    1.000
    H358     H        0.04857    0.26953    0.38083    1.000
    C646     C        0.03817    0.25843    0.42993    1.000
    H359     H        0.06257    0.27293    0.43723    1.000
    C647     C        0.98497    0.23303    0.35203    1.000
    C648     C        0.96207    0.20303    0.33653    1.000
    H360     H        0.95367    0.18043    0.34723    1.000
    C649     C        0.95017    0.20333    0.30573    1.000
    C650     C        0.96777    0.23393    0.28943    1.000
    H361     H        0.96197    0.23373    0.26703    1.000
    C651     C        0.99447    0.26643    0.30303    1.000
    C652     C        0.00277    0.26513    0.33543    1.000
    H362     H        0.02077    0.28643    0.34603    1.000
    C653     C        0.01047    0.30083    0.28583    1.000
    C654     C        0.99247    0.30953    0.26493    1.000
    H363     H        0.96787    0.29193    0.26053    1.000
    C655     C        0.00697    0.34213    0.24903    1.000
    H364     H        0.99317    0.34793    0.23453    1.000
    C656     C        0.04397    0.36663    0.25593    1.000
    C657     C        0.06277    0.35863    0.27563    1.000
    H365     H        0.08797    0.37533    0.27853    1.000
    C658     C        0.04707    0.32703    0.29203    1.000
    H366     H        0.06047    0.32223    0.30783    1.000
    C659     C        0.06117    0.40223    0.23873    1.000
    C660     C        0.92477    0.17173    0.29083    1.000
    C661     C        0.91757    0.13673    0.30123    1.000
    H367     H        0.92827    0.13403    0.32063    1.000
    C662     C        0.89387    0.10543    0.28193    1.000
    H368     H        0.89227    0.08273    0.28623    1.000
    C663     C        0.87297    0.10813    0.25673    1.000
    C664     C        0.87797    0.14303    0.24783    1.000
    H369     H        0.86487    0.14533    0.23003    1.000
    C665     C        0.90267    0.17433    0.26603    1.000
    H370     H        0.90447    0.19713    0.26163    1.000
    C666     C        0.84437    0.07603    0.23713    1.000
    C667     C        0.10077    0.27293    0.57423    1.000
    C668     C        0.13597    0.29063    0.58943    1.000
    C669     C        0.16737    0.31063    0.57253    1.000
    H371     H        0.16577    0.31363    0.54983    1.000
    C670     C        0.19897    0.32553    0.58553    1.000
    H372     H        0.21967    0.33833    0.57193    1.000
    C671     C        0.20387    0.32353    0.61873    1.000
    C672     C        0.17277    0.30193    0.63703    1.000
    H373     H        0.17487    0.29783    0.65953    1.000
    C673     C        0.13927    0.28643    0.62253    1.000
    H374     H        0.11807    0.27273    0.63533    1.000
    C674     C        0.23887    0.33923    0.63463    1.000
    C675     C        0.26717    0.33553    0.61763    1.000
    H375     H        0.26327    0.32443    0.59673    1.000
    C676     C        0.29897    0.34893    0.63363    1.000
    C677     C        0.30447    0.36253    0.66213    1.000
    H376     H        0.32727    0.36993    0.67203    1.000
    C678     C        0.27937    0.36733    0.67963    1.000
    C679     C        0.24417    0.35413    0.66493    1.000
    H377     H        0.22537    0.35583    0.67593    1.000
    C680     C        0.28597    0.38333    0.71123    1.000
    C681     C        0.31757    0.40623    0.72223    1.000
    H378     H        0.33807    0.41383    0.70833    1.000
    C682     C        0.32317    0.41993    0.75293    1.000
    H379     H        0.34657    0.43933    0.75853    1.000
    C683     C        0.29797    0.40773    0.77443    1.000
    C684     C        0.26377    0.38063    0.76463    1.000
    H380     H        0.24367    0.37083    0.77913    1.000
    C685     C        0.26037    0.36893    0.73333    1.000
    H381     H        0.23777    0.34873    0.72703    1.000
    C686     C        0.30367    0.41983    0.80583    1.000
    C687     C        0.33787    0.35573    0.58683    1.000
    H382     H        0.32537    0.36543    0.57513    1.000
    C688     C        0.32987    0.34633    0.62003    1.000
    C689     C        0.34857    0.33263    0.63853    1.000
    H383     H        0.34207    0.32543    0.66053    1.000
    C690     C        0.37807    0.33003    0.62303    1.000
    H384     H        0.39247    0.32313    0.63533    1.000
    C691     C        0.38487    0.33803    0.58943    1.000
    C692     C        0.36547    0.35053    0.57083    1.000
    H385     H        0.37027    0.35543    0.54833    1.000
    C693     C        0.41037    0.33303    0.57423    1.000
    Eu12     Eu       0.70632    0.57547    0.87829    1.000
    In12     In       0.47245    0.36226    0.53006    1.000
    O155     O        0.67647    0.51759    0.89485    1.000
    O156     O        0.72160    0.53557    0.86005    1.000
    O157     O        0.71775    0.59503    0.82771    1.000
    O158     O        0.66293    0.55518    0.83876    1.000
    O159     O        0.70837    0.74245    0.55549    1.000
    O160     O        0.76106    0.75753    0.57767    1.000
    O161     O        0.73953    0.58557    0.92426    1.000
    O162     O        0.76503    0.61289    0.87887    1.000
    O163     O        0.49223    0.41147    0.54867    1.000
    O164     O        0.50853    0.38307    0.57797    1.000
    O165     O        0.99853    0.77727    0.14877    1.000
    O166     O        0.94363    0.73727    0.15887    1.000
    O167     O        0.08463    0.67797    0.88227    1.000
    O168     O        0.08973    0.65227    0.92637    1.000
    C694     C        0.69623    0.51107    0.87637    1.000
    C695     C        0.68963    0.47438    0.87517    1.000
    C696     C        0.71243    0.46627    0.85707    1.000
    H386     H        0.73203    0.48447    0.84477    1.000
    C697     C        0.70563    0.43037    0.85747    1.000
    H387     H        0.72043    0.42437    0.84457    1.000
    C698     C        0.67813    0.40327    0.87597    1.000
    C699     C        0.65563    0.41267    0.89387    1.000
    H388     H        0.63603    0.39457    0.90627    1.000
    C700     C        0.66153    0.44777    0.89357    1.000
    H389     H        0.64643    0.45377    0.90597    1.000
    C701     C        0.67293    0.36837    0.87617    1.000
    C702     C        0.69983    0.36187    0.87577    1.000
    H390     H        0.72383    0.38207    0.87507    1.000
    C703     C        0.68783    0.57587    0.81837    1.000
    C704     C        0.67623    0.57207    0.78617    1.000
    C705     C        0.64103    0.54887    0.77577    1.000
    H391     H        0.62243    0.53477    0.79097    1.000
    C706     C        0.63283    0.54637    0.74107    1.000
    H392     H        0.60883    0.53077    0.73367    1.000
    C707     C        0.65983    0.56657    0.71927    1.000
    C708     C        0.69663    0.58947    0.72957    1.000
    H393     H        0.71523    0.60287    0.71417    1.000
    C709     C        0.70483    0.59177    0.76327    1.000
    H394     H        0.72923    0.60627    0.77057    1.000
    C710     C        0.65163    0.56637    0.68537    1.000
    C711     C        0.62873    0.53637    0.66987    1.000
    H395     H        0.62033    0.51377    0.68057    1.000
    C712     C        0.61683    0.53667    0.63907    1.000
    C713     C        0.63443    0.56727    0.62277    1.000
    H396     H        0.62863    0.56707    0.60037    1.000
    C714     C        0.66113    0.59977    0.63637    1.000
    C715     C        0.66943    0.59847    0.66877    1.000
    H397     H        0.68743    0.61977    0.67937    1.000
    C716     C        0.67713    0.63417    0.61917    1.000
    C717     C        0.65913    0.64287    0.59827    1.000
    H398     H        0.63453    0.62527    0.59387    1.000
    C718     C        0.67363    0.67547    0.58237    1.000
    H399     H        0.65983    0.68127    0.56787    1.000
    C719     C        0.71063    0.69997    0.58927    1.000
    C720     C        0.72943    0.69197    0.60897    1.000
    H400     H        0.75463    0.70867    0.61187    1.000
    C721     C        0.71373    0.66037    0.62537    1.000
    H401     H        0.72713    0.65557    0.64117    1.000
    C722     C        0.72783    0.73557    0.57207    1.000
    C723     C        0.59143    0.50507    0.62417    1.000
    C724     C        0.58423    0.47007    0.63457    1.000
    H402     H        0.59493    0.46737    0.65397    1.000
    C725     C        0.56053    0.43877    0.61527    1.000
    H403     H        0.55893    0.41607    0.61957    1.000
    C726     C        0.53963    0.44147    0.59007    1.000
    C727     C        0.54463    0.47637    0.58117    1.000
    H404     H        0.53153    0.47867    0.56337    1.000
    C728     C        0.56933    0.50767    0.59937    1.000
    H405     H        0.57113    0.53047    0.59497    1.000
    C729     C        0.51103    0.40937    0.57047    1.000
    C730     C        0.76743    0.60627    0.90757    1.000
    C731     C        0.80263    0.62397    0.92277    1.000
    C732     C        0.83403    0.64397    0.90587    1.000
    H406     H        0.83243    0.64697    0.88317    1.000
    C733     C        0.86563    0.65887    0.91887    1.000
    H407     H        0.88633    0.67167    0.90527    1.000
    C734     C        0.87053    0.65687    0.95207    1.000
    C735     C        0.83943    0.63527    0.97037    1.000
    H408     H        0.84153    0.63117    0.99287    1.000
    C736     C        0.80593    0.61977    0.95587    1.000
    H409     H        0.78473    0.60607    0.96867    1.000
    C737     C        0.90553    0.67257    0.96797    1.000
    C738     C        0.93383    0.66887    0.95097    1.000
    H410     H        0.92993    0.65777    0.93007    1.000
    C739     C        0.96563    0.68227    0.96697    1.000
    C740     C        0.97113    0.69587    0.99547    1.000
    H411     H        0.99393    0.70327    0.00537    1.000
    C741     C        0.94603    0.70067    0.01297    1.000
    C742     C        0.91083    0.68747    0.99827    1.000
    H412     H        0.89203    0.68917    0.00927    1.000
    C743     C        0.95263    0.71667    0.04457    1.000
    C744     C        0.98423    0.73957    0.05557    1.000
    H413     H        0.00473    0.74717    0.04167    1.000
    C745     C        0.98983    0.75327    0.08627    1.000
    H414     H        0.01323    0.77267    0.09187    1.000
    C746     C        0.96463    0.74107    0.10777    1.000
    C747     C        0.93043    0.71397    0.09797    1.000
    H415     H        0.91033    0.70417    0.11247    1.000
    C748     C        0.92703    0.70227    0.06667    1.000
    H416     H        0.90443    0.68207    0.06037    1.000
    C749     C        0.97033    0.75317    0.13917    1.000
    C750     C        0.00453    0.68907    0.92017    1.000
    H417     H        0.99203    0.69877    0.90847    1.000
    C751     C        0.99653    0.67967    0.95337    1.000
    C752     C        0.01523    0.66597    0.97187    1.000
    H418     H        0.00873    0.65877    0.99387    1.000
    C753     C        0.04473    0.66337    0.95637    1.000
    H419     H        0.05913    0.65647    0.96867    1.000
    C754     C        0.05153    0.67137    0.92277    1.000
    C755     C        0.03213    0.68387    0.90417    1.000
    H420     H        0.03693    0.68877    0.88167    1.000
    C756     C        0.07703    0.66637    0.90757    1.000
    Eu13     Eu       0.09120    0.46418    0.21163    1.000
    In13     In       0.30441    0.44353    0.86339    1.000
    O169     O        0.14908    0.49222    0.22818    1.000
    O170     O        0.13110    0.51937    0.19338    1.000
    O171     O        0.07164    0.45606    0.16104    1.000
    O172     O        0.11149    0.44109    0.17209    1.000
    O173     O        0.92422    0.29926    0.88882    1.000
    O174     O        0.90914    0.33687    0.91100    1.000
    O175     O        0.08110    0.48730    0.25759    1.000
    O176     O        0.05378    0.48548    0.21220    1.000
    O177     O        0.25520    0.41410    0.88200    1.000
    O178     O        0.28360    0.45880    0.91130    1.000
    O179     O        0.88940    0.55460    0.48210    1.000
    O180     O        0.92940    0.53970    0.49220    1.000
    O181     O        0.98870    0.74000    0.21560    1.000
    O182     O        0.01440    0.77080    0.25970    1.000
    C757     C        0.15560    0.51850    0.20970    1.000
    C758     C        0.19229    0.54859    0.20850    1.000
    C759     C        0.20040    0.57950    0.19040    1.000
    H421     H        0.18220    0.58090    0.17810    1.000
    C760     C        0.23630    0.60860    0.19080    1.000
    H422     H        0.24230    0.62940    0.17790    1.000
    C761     C        0.26340    0.60820    0.20930    1.000
    C762     C        0.25400    0.57630    0.22720    1.000
    H423     H        0.27210    0.57480    0.23960    1.000
    C763     C        0.21890    0.54710    0.22690    1.000
    H424     H        0.21290    0.52600    0.23930    1.000
    C764     C        0.29830    0.63790    0.20950    1.000
    C765     C        0.30480    0.67130    0.20910    1.000
    H425     H        0.28460    0.67510    0.20840    1.000
    C766     C        0.09080    0.44530    0.15170    1.000
    C767     C        0.09460    0.43750    0.11950    1.000
    C768     C        0.11780    0.42550    0.10910    1.000
    H426     H        0.13190    0.42100    0.12430    1.000
    C769     C        0.12030    0.41980    0.07440    1.000
    H427     H        0.13590    0.41140    0.06700    1.000
    C770     C        0.10010    0.42660    0.05260    1.000
    C771     C        0.07720    0.44050    0.06290    1.000
    H428     H        0.06380    0.44570    0.04750    1.000
    C772     C        0.07490    0.44640    0.09660    1.000
    H429     H        0.06040    0.45630    0.10390    1.000
    C773     C        0.10030    0.41860    0.01870    1.000
    C774     C        0.13030    0.42570    0.00320    1.000
    H430     H        0.15290    0.43990    0.01390    1.000
    C775     C        0.13000    0.41350    0.97240    1.000
    C776     C        0.09940    0.40050    0.95610    1.000
    H431     H        0.09960    0.39490    0.93370    1.000
    C777     C        0.06690    0.39470    0.96970    1.000
    C778     C        0.06820    0.40430    0.00210    1.000
    H432     H        0.04690    0.40100    0.01270    1.000
    C779     C        0.03250    0.37630    0.95250    1.000
    C780     C        0.02380    0.34960    0.93160    1.000
    H433     H        0.04140    0.34260    0.92720    1.000
    C781     C        0.99120    0.33150    0.91570    1.000
    H434     H        0.98540    0.31190    0.90120    1.000
    C782     C        0.96670    0.34400    0.92260    1.000
    C783     C        0.97470    0.37080    0.94230    1.000
    H435     H        0.95800    0.37930    0.94520    1.000
    C784     C        0.00630    0.38670    0.95870    1.000
    H436     H        0.01110    0.40490    0.97450    1.000
    C785     C        0.93110    0.32560    0.90540    1.000
    C786     C        0.16160    0.41970    0.95750    1.000
    C787     C        0.19660    0.44750    0.96790    1.000
    H437     H        0.19930    0.46090    0.98730    1.000
    C788     C        0.22790    0.45510    0.94860    1.000
    H438     H        0.25060    0.47620    0.95290    1.000
    C789     C        0.22520    0.43150    0.92340    1.000
    C790     C        0.19030    0.40160    0.91450    1.000
    H439     H        0.18800    0.38620    0.89670    1.000
    C791     C        0.15900    0.39500    0.93270    1.000
    H440     H        0.13620    0.37400    0.92830    1.000
    C792     C        0.25730    0.43500    0.90380    1.000
    C793     C        0.06040    0.49450    0.24090    1.000
    C794     C        0.04270    0.51200    0.25610    1.000
    C795     C        0.02270    0.52340    0.23920    1.000
    H441     H        0.01970    0.51880    0.21650    1.000
    C796     C        0.00780    0.54010    0.25220    1.000
    H442     H        0.99500    0.54800    0.23860    1.000
    C797     C        0.00980    0.54700    0.28540    1.000
    C798     C        0.03140    0.53750    0.30370    1.000
    H443     H        0.03550    0.54370    0.32620    1.000
    C799     C        0.04690    0.51950    0.28920    1.000
    H444     H        0.06060    0.51200    0.30200    1.000
    C800     C        0.99410    0.56630    0.30130    1.000
    C801     C        0.99780    0.59830    0.28430    1.000
    H445     H        0.00890    0.60550    0.26340    1.000
    C802     C        0.98440    0.61670    0.30030    1.000
    C803     C        0.97080    0.60860    0.32880    1.000
    H446     H        0.96340    0.62400    0.33870    1.000
    C804     C        0.96600    0.57870    0.34630    1.000
    C805     C        0.97920    0.55670    0.33160    1.000
    H447     H        0.97750    0.53620    0.34260    1.000
    C806     C        0.95000    0.56930    0.37790    1.000
    C807     C        0.92710    0.57800    0.38890    1.000
    H448     H        0.91950    0.59090    0.37500    1.000
    C808     C        0.91340    0.56990    0.41960    1.000
    H449     H        0.89400    0.57390    0.42520    1.000
    C809     C        0.92560    0.55690    0.44110    1.000
    C810     C        0.95270    0.54980    0.43130    1.000
    H450     H        0.96250    0.53950    0.44580    1.000
    C811     C        0.96440    0.55810    0.40000    1.000
    H451     H        0.98460    0.55570    0.39370    1.000
    C812     C        0.91350    0.55050    0.47250    1.000
    C813     C        0.97760    0.64880    0.25350    1.000
    H452     H        0.96790    0.62660    0.24180    1.000
    C814     C        0.98700    0.65020    0.28670    1.000
    C815     C        0.00070    0.68260    0.30520    1.000
    H453     H        0.00790    0.68330    0.32720    1.000
    C816     C        0.00330    0.71470    0.28970    1.000
    H454     H        0.01020    0.73600    0.30200    1.000
    C817     C        0.99530    0.71350    0.25610    1.000
    C818     C        0.98280    0.68160    0.23750    1.000
    H455     H        0.97790    0.68150    0.21500    1.000
    C819     C        0.00030    0.74400    0.24090    1.000
    Eu14     Eu       0.75786    0.79752    0.54496    1.000
    In14     In       0.97108    0.77686    0.19672    1.000
    O183     O        0.81575    0.82555    0.56151    1.000
    O184     O        0.79777    0.85270    0.52671    1.000
    O185     O        0.73831    0.78939    0.49437    1.000
    O186     O        0.77816    0.77442    0.50542    1.000
    O187     O        0.59089    0.63259    0.22215    1.000
    O188     O        0.57581    0.67020    0.24433    1.000
    O189     O        0.74777    0.82063    0.59092    1.000
    O190     O        0.72045    0.81881    0.54553    1.000
    O191     O        0.92187    0.74743    0.21533    1.000
    O192     O        0.95027    0.79213    0.24463    1.000
    O193     O        0.55607    0.88793    0.81543    1.000
    O194     O        0.59607    0.87303    0.82553    1.000
    O195     O        0.65537    0.07333    0.54893    1.000
    O196     O        0.68107    0.10413    0.59303    1.000
    C820     C        0.82227    0.85183    0.54303    1.000
    C821     C        0.85896    0.88192    0.54183    1.000
    C822     C        0.86707    0.91283    0.52373    1.000
    H456     H        0.84887    0.91423    0.51143    1.000
    C823     C        0.90297    0.94193    0.52413    1.000
    H457     H        0.90897    0.96273    0.51123    1.000
    C824     C        0.93007    0.94153    0.54263    1.000
    C825     C        0.92067    0.90963    0.56053    1.000
    H458     H        0.93877    0.90813    0.57293    1.000
    C826     C        0.88557    0.88043    0.56023    1.000
    H459     H        0.87957    0.85933    0.57263    1.000
    C827     C        0.96497    0.97123    0.54283    1.000
    C828     C        0.97147    0.00463    0.54243    1.000
    H460     H        0.95127    0.00843    0.54173    1.000
    C829     C        0.75747    0.77863    0.48503    1.000
    C830     C        0.76127    0.77083    0.45283    1.000
    C831     C        0.78447    0.75883    0.44243    1.000
    H461     H        0.79857    0.75433    0.45763    1.000
    C832     C        0.78697    0.75313    0.40773    1.000
    H462     H        0.80257    0.74473    0.40033    1.000
    C833     C        0.76677    0.75993    0.38593    1.000
    C834     C        0.74387    0.77383    0.39623    1.000
    H463     H        0.73047    0.77903    0.38083    1.000
    C835     C        0.74157    0.77973    0.42993    1.000
    H464     H        0.72707    0.78963    0.43723    1.000
    C836     C        0.76697    0.75193    0.35203    1.000
    C837     C        0.79697    0.75903    0.33653    1.000
    H465     H        0.81957    0.77323    0.34723    1.000
    C838     C        0.79667    0.74683    0.30573    1.000
    C839     C        0.76607    0.73383    0.28943    1.000
    H466     H        0.76627    0.72823    0.26703    1.000
    C840     C        0.73357    0.72803    0.30303    1.000
    C841     C        0.73487    0.73763    0.33543    1.000
    H467     H        0.71357    0.73433    0.34603    1.000
    C842     C        0.69917    0.70963    0.28583    1.000
    C843     C        0.69047    0.68293    0.26493    1.000
    H468     H        0.70807    0.67593    0.26053    1.000
    C844     C        0.65787    0.66483    0.24903    1.000
    H469     H        0.65207    0.64523    0.23453    1.000
    C845     C        0.63337    0.67733    0.25593    1.000
    C846     C        0.64137    0.70413    0.27563    1.000
    H470     H        0.62467    0.71263    0.27853    1.000
    C847     C        0.67297    0.72003    0.29203    1.000
    H471     H        0.67777    0.73823    0.30783    1.000
    C848     C        0.59777    0.65893    0.23873    1.000
    C849     C        0.82827    0.75303    0.29083    1.000
    C850     C        0.86327    0.78083    0.30123    1.000
    H472     H        0.86597    0.79423    0.32063    1.000
    C851     C        0.89457    0.78843    0.28193    1.000
    H473     H        0.91727    0.80953    0.28623    1.000
    C852     C        0.89187    0.76483    0.25673    1.000
    C853     C        0.85697    0.73493    0.24783    1.000
    H474     H        0.85467    0.71953    0.23003    1.000
    C854     C        0.82567    0.72833    0.26603    1.000
    H475     H        0.80287    0.70733    0.26163    1.000
    C855     C        0.92397    0.76833    0.23713    1.000
    C856     C        0.72707    0.82783    0.57423    1.000
    C857     C        0.70937    0.84533    0.58943    1.000
    C858     C        0.68937    0.85673    0.57253    1.000
    H476     H        0.68637    0.85213    0.54983    1.000
    C859     C        0.67447    0.87343    0.58553    1.000
    H477     H        0.66167    0.88133    0.57193    1.000
    C860     C        0.67647    0.88033    0.61873    1.000
    C861     C        0.69807    0.87083    0.63703    1.000
    H478     H        0.70217    0.87703    0.65953    1.000
    C862     C        0.71357    0.85283    0.62253    1.000
    H479     H        0.72727    0.84533    0.63533    1.000
    C863     C        0.66077    0.89963    0.63463    1.000
    C864     C        0.66447    0.93163    0.61763    1.000
    H480     H        0.67557    0.93883    0.59673    1.000
    C865     C        0.65107    0.95003    0.63363    1.000
    C866     C        0.63747    0.94193    0.66213    1.000
    H481     H        0.63007    0.95733    0.67203    1.000
    C867     C        0.63267    0.91203    0.67963    1.000
    C868     C        0.64587    0.89003    0.66493    1.000
    H482     H        0.64417    0.86953    0.67593    1.000
    C869     C        0.61667    0.90263    0.71123    1.000
    C870     C        0.59377    0.91133    0.72223    1.000
    H483     H        0.58617    0.92423    0.70833    1.000
    C871     C        0.58007    0.90323    0.75293    1.000
    H484     H        0.56067    0.90723    0.75853    1.000
    C872     C        0.59227    0.89023    0.77443    1.000
    C873     C        0.61937    0.88313    0.76463    1.000
    H485     H        0.62917    0.87283    0.77913    1.000
    C874     C        0.63107    0.89143    0.73333    1.000
    H486     H        0.65127    0.88903    0.72703    1.000
    C875     C        0.58017    0.88383    0.80583    1.000
    C876     C        0.64427    0.98213    0.58683    1.000
    H487     H        0.63457    0.95993    0.57513    1.000
    C877     C        0.65367    0.98353    0.62003    1.000
    C878     C        0.66737    0.01593    0.63853    1.000
    H488     H        0.67457    0.01663    0.66053    1.000
    C879     C        0.66997    0.04803    0.62303    1.000
    H489     H        0.67687    0.06933    0.63533    1.000
    C880     C        0.66197    0.04683    0.58943    1.000
    C881     C        0.64947    0.01493    0.57083    1.000
    H490     H        0.64457    0.01483    0.54833    1.000
    C882     C        0.66697    0.07733    0.57423    1.000
    Eu15     Eu       0.42453    0.13085    0.87829    1.000
    In15     In       0.63774    0.11020    0.53006    1.000
    O197     O        0.48241    0.15889    0.89485    1.000
    O198     O        0.46443    0.18604    0.86005    1.000
    O199     O        0.40497    0.12273    0.82771    1.000
    O200     O        0.44482    0.10776    0.83876    1.000
    O201     O        0.25755    0.96593    0.55549    1.000
    O202     O        0.24247    0.00354    0.57767    1.000
    O203     O        0.41443    0.15397    0.92426    1.000
    O204     O        0.38711    0.15215    0.87887    1.000
    O205     O        0.58853    0.08077    0.54867    1.000
    O206     O        0.61693    0.12547    0.57797    1.000
    O207     O        0.22273    0.22127    0.14877    1.000
    O208     O        0.26273    0.20637    0.15887    1.000
    O209     O        0.32203    0.40667    0.88227    1.000
    O210     O        0.34773    0.43747    0.92637    1.000
    C883     C        0.48893    0.18517    0.87637    1.000
    C884     C        0.52562    0.21526    0.87517    1.000
    C885     C        0.53373    0.24617    0.85707    1.000
    H491     H        0.51553    0.24757    0.84477    1.000
    C886     C        0.56963    0.27527    0.85747    1.000
    H492     H        0.57563    0.29607    0.84457    1.000
    C887     C        0.59673    0.27487    0.87597    1.000
    C888     C        0.58733    0.24297    0.89387    1.000
    H493     H        0.60543    0.24147    0.90627    1.000
    C889     C        0.55223    0.21377    0.89357    1.000
    H494     H        0.54623    0.19267    0.90597    1.000
    C890     C        0.63163    0.30457    0.87617    1.000
    C891     C        0.63813    0.33797    0.87577    1.000
    H495     H        0.61793    0.34177    0.87507    1.000
    C892     C        0.42413    0.11197    0.81837    1.000
    C893     C        0.42793    0.10417    0.78617    1.000
    C894     C        0.45113    0.09217    0.77577    1.000
    H496     H        0.46523    0.08767    0.79097    1.000
    C895     C        0.45363    0.08647    0.74107    1.000
    H497     H        0.46923    0.07807    0.73367    1.000
    C896     C        0.43343    0.09327    0.71927    1.000
    C897     C        0.41053    0.10717    0.72957    1.000
    H498     H        0.39713    0.11237    0.71417    1.000
    C898     C        0.40823    0.11307    0.76327    1.000
    H499     H        0.39373    0.12297    0.77057    1.000
    C899     C        0.43363    0.08527    0.68537    1.000
    C900     C        0.46363    0.09237    0.66987    1.000
    H500     H        0.48623    0.10657    0.68057    1.000
    C901     C        0.46333    0.08017    0.63907    1.000
    C902     C        0.43273    0.06717    0.62277    1.000
    H501     H        0.43293    0.06157    0.60037    1.000
    C903     C        0.40023    0.06137    0.63637    1.000
    C904     C        0.40153    0.07097    0.66877    1.000
    H502     H        0.38023    0.06767    0.67937    1.000
    C905     C        0.36583    0.04297    0.61917    1.000
    C906     C        0.35713    0.01627    0.59827    1.000
    H503     H        0.37473    0.00927    0.59387    1.000
    C907     C        0.32453    0.99817    0.58237    1.000
    H504     H        0.31873    0.97857    0.56787    1.000
    C908     C        0.30003    0.01067    0.58927    1.000
    C909     C        0.30803    0.03747    0.60897    1.000
    H505     H        0.29133    0.04597    0.61187    1.000
    C910     C        0.33963    0.05337    0.62537    1.000
    H506     H        0.34443    0.07157    0.64117    1.000
    C911     C        0.26443    0.99227    0.57207    1.000
    C912     C        0.49493    0.08637    0.62417    1.000
    C913     C        0.52993    0.11417    0.63457    1.000
    H507     H        0.53263    0.12757    0.65397    1.000
    C914     C        0.56123    0.12177    0.61527    1.000
    H508     H        0.58393    0.14287    0.61957    1.000
    C915     C        0.55853    0.09817    0.59007    1.000
    C916     C        0.52363    0.06827    0.58117    1.000
    H509     H        0.52133    0.05287    0.56337    1.000
    C917     C        0.49233    0.06167    0.59937    1.000
    H510     H        0.46953    0.04067    0.59497    1.000
    C918     C        0.59063    0.10167    0.57047    1.000
    C919     C        0.39373    0.16117    0.90757    1.000
    C920     C        0.37603    0.17867    0.92277    1.000
    C921     C        0.35603    0.19007    0.90587    1.000
    H511     H        0.35303    0.18547    0.88317    1.000
    C922     C        0.34113    0.20677    0.91887    1.000
    H512     H        0.32833    0.21467    0.90527    1.000
    C923     C        0.34313    0.21367    0.95207    1.000
    C924     C        0.36473    0.20417    0.97037    1.000
    H513     H        0.36883    0.21037    0.99287    1.000
    C925     C        0.38023    0.18617    0.95587    1.000
    H514     H        0.39393    0.17867    0.96867    1.000
    C926     C        0.32743    0.23297    0.96797    1.000
    C927     C        0.33113    0.26497    0.95097    1.000
    H515     H        0.34223    0.27217    0.93007    1.000
    C928     C        0.31773    0.28337    0.96697    1.000
    C929     C        0.30413    0.27527    0.99547    1.000
    H516     H        0.29673    0.29067    0.00537    1.000
    C930     C        0.29933    0.24537    0.01297    1.000
    C931     C        0.31253    0.22337    0.99827    1.000
    H517     H        0.31083    0.20287    0.00927    1.000
    C932     C        0.28333    0.23597    0.04457    1.000
    C933     C        0.26043    0.24467    0.05557    1.000
    H518     H        0.25283    0.25757    0.04167    1.000
    C934     C        0.24673    0.23657    0.08627    1.000
    H519     H        0.22733    0.24057    0.09187    1.000
    C935     C        0.25893    0.22357    0.10777    1.000
    C936     C        0.28603    0.21647    0.09797    1.000
    H520     H        0.29583    0.20617    0.11247    1.000
    C937     C        0.29773    0.22477    0.06667    1.000
    H521     H        0.31793    0.22237    0.06037    1.000
    C938     C        0.24683    0.21717    0.13917    1.000
    C939     C        0.31093    0.31547    0.92017    1.000
    H522     H        0.30123    0.29327    0.90847    1.000
    C940     C        0.32033    0.31687    0.95337    1.000
    C941     C        0.33403    0.34927    0.97187    1.000
    H523     H        0.34123    0.34997    0.99387    1.000
    C942     C        0.33663    0.38137    0.95637    1.000
    H524     H        0.34353    0.40267    0.96867    1.000
    C943     C        0.32863    0.38017    0.92277    1.000
    C944     C        0.31613    0.34827    0.90417    1.000
    H525     H        0.31123    0.34817    0.88167    1.000
    C945     C        0.33363    0.41067    0.90757    1.000
    Eu16     Eu       0.53582    0.62701    0.21163    1.000
    In16     In       0.55647    0.86088    0.86339    1.000
    O211     O        0.50778    0.65686    0.22818    1.000
    O212     O        0.48063    0.61173    0.19338    1.000
    O213     O        0.54394    0.61558    0.16104    1.000
    O214     O        0.55891    0.67040    0.17209    1.000
    O215     O        0.70074    0.62496    0.88882    1.000
    O216     O        0.66313    0.57227    0.91100    1.000
    O217     O        0.51270    0.59380    0.25759    1.000
    O218     O        0.51452    0.56830    0.21220    1.000
    O219     O        0.58590    0.84110    0.88200    1.000
    O220     O        0.54120    0.82480    0.91130    1.000
    O221     O        0.44540    0.33480    0.48210    1.000
    O222     O        0.46030    0.38970    0.49220    1.000
    O223     O        0.26000    0.24870    0.21560    1.000
    O224     O        0.22920    0.24360    0.25970    1.000
    C946     C        0.48150    0.63710    0.20970    1.000
    C947     C        0.45141    0.64370    0.20850    1.000
    C948     C        0.42050    0.62090    0.19040    1.000
    H526     H        0.41910    0.60130    0.17810    1.000
    C949     C        0.39140    0.62770    0.19080    1.000
    H527     H        0.37060    0.61290    0.17790    1.000
    C950     C        0.39180    0.65520    0.20930    1.000
    C951     C        0.42370    0.67770    0.22720    1.000
    H528     H        0.42520    0.69730    0.23960    1.000
    C952     C        0.45290    0.67180    0.22690    1.000
    H529     H        0.47400    0.68690    0.23930    1.000
    C953     C        0.36210    0.66040    0.20950    1.000
    C954     C        0.32870    0.63350    0.20910    1.000
    H530     H        0.32490    0.60950    0.20840    1.000
    C955     C        0.55470    0.64550    0.15170    1.000
    C956     C        0.56250    0.65710    0.11950    1.000
    C957     C        0.57450    0.69230    0.10910    1.000
    H531     H        0.57900    0.71090    0.12430    1.000
    C958     C        0.58020    0.70050    0.07440    1.000
    H532     H        0.58860    0.72450    0.06700    1.000
    C959     C        0.57340    0.67350    0.05260    1.000
    C960     C        0.55950    0.63670    0.06290    1.000
    H533     H        0.55430    0.61810    0.04750    1.000
    C961     C        0.55360    0.62850    0.09660    1.000
    H534     H        0.54370    0.60410    0.10390    1.000
    C962     C        0.58140    0.68170    0.01870    1.000
    C963     C        0.57430    0.70460    0.00320    1.000
    H535     H        0.56010    0.71300    0.01390    1.000
    C964     C        0.58650    0.71650    0.97240    1.000
    C965     C        0.59950    0.69890    0.95610    1.000
    H536     H        0.60510    0.70470    0.93370    1.000
    C966     C        0.60530    0.67220    0.96970    1.000
    C967     C        0.59570    0.66390    0.00210    1.000
    H537     H        0.59900    0.64590    0.01270    1.000
    C968     C        0.62370    0.65620    0.95250    1.000
    C969     C        0.65040    0.67420    0.93160    1.000
    H538     H        0.65740    0.69880    0.92720    1.000
    C970     C        0.66850    0.65970    0.91570    1.000
    H539     H        0.68810    0.67350    0.90120    1.000
    C971     C        0.65600    0.62270    0.92260    1.000
    C972     C        0.62920    0.60390    0.94230    1.000
    H540     H        0.62070    0.57870    0.94520    1.000
    C973     C        0.61330    0.61960    0.95870    1.000
    H541     H        0.59510    0.60620    0.97450    1.000
    C974     C        0.67440    0.60550    0.90540    1.000
    C975     C        0.58030    0.74190    0.95750    1.000
    C976     C        0.55250    0.74910    0.96790    1.000
    H542     H        0.53910    0.73840    0.98730    1.000
    C977     C        0.54490    0.77280    0.94860    1.000
    H543     H        0.52380    0.77440    0.95290    1.000
    C978     C        0.56850    0.79370    0.92340    1.000
    C979     C        0.59840    0.78870    0.91450    1.000
    H544     H        0.61380    0.80180    0.89670    1.000
    C980     C        0.60500    0.76400    0.93270    1.000
    H545     H        0.62600    0.76220    0.92830    1.000
    C981     C        0.56500    0.82230    0.90380    1.000
    C982     C        0.50550    0.56590    0.24090    1.000
    C983     C        0.48800    0.53070    0.25610    1.000
    C984     C        0.47660    0.49930    0.23920    1.000
    H546     H        0.48120    0.50090    0.21650    1.000
    C985     C        0.45990    0.46770    0.25220    1.000
    H547     H        0.45200    0.44700    0.23860    1.000
    C986     C        0.45300    0.46280    0.28540    1.000
    C987     C        0.46250    0.49390    0.30370    1.000
    H548     H        0.45630    0.49180    0.32620    1.000
    C988     C        0.48050    0.52740    0.28920    1.000
    H549     H        0.48800    0.54860    0.30200    1.000
    C989     C        0.43370    0.42780    0.30130    1.000
    C990     C        0.40170    0.39950    0.28430    1.000
    H550     H        0.39450    0.40340    0.26340    1.000
    C991     C        0.38330    0.36770    0.30030    1.000
    C992     C        0.39140    0.36220    0.32880    1.000
    H551     H        0.37600    0.33940    0.33870    1.000
    C993     C        0.42130    0.38730    0.34630    1.000
    C994     C        0.44330    0.42250    0.33160    1.000
    H552     H        0.46380    0.44130    0.34260    1.000
    C995     C        0.43070    0.38070    0.37790    1.000
    C996     C        0.42200    0.34910    0.38890    1.000
    H553     H        0.40910    0.32860    0.37500    1.000
    C997     C        0.43010    0.34350    0.41960    1.000
    H554     H        0.42610    0.32010    0.42520    1.000
    C998     C        0.44310    0.36870    0.44110    1.000
    C999     C        0.45020    0.40290    0.43130    1.000
    H555     H        0.46050    0.42300    0.44580    1.000
    C1000    C        0.44190    0.40630    0.40000    1.000
    H556     H        0.44430    0.42890    0.39370    1.000
    C1001    C        0.44950    0.36300    0.47250    1.000
    C1002    C        0.35120    0.32880    0.25350    1.000
    H557     H        0.37340    0.34130    0.24180    1.000
    C1003    C        0.34980    0.33680    0.28670    1.000
    C1004    C        0.31740    0.31810    0.30520    1.000
    H558     H        0.31670    0.32460    0.32720    1.000
    C1005    C        0.28530    0.28860    0.28970    1.000
    H559     H        0.26400    0.27420    0.30200    1.000
    C1006    C        0.28650    0.28180    0.25610    1.000
    C1007    C        0.31840    0.30120    0.23750    1.000
    H560     H        0.31850    0.29640    0.21500    1.000
    C1008    C        0.25600    0.25630    0.24090    1.000
    Eu17     Eu       0.20248    0.96034    0.54496    1.000
    In17     In       0.22314    0.19421    0.19672    1.000
    O225     O        0.17445    0.99019    0.56151    1.000
    O226     O        0.14730    0.94506    0.52671    1.000
    O227     O        0.21061    0.94891    0.49437    1.000
    O228     O        0.22558    0.00373    0.50542    1.000
    O229     O        0.36741    0.95829    0.22215    1.000
    O230     O        0.32980    0.90560    0.24433    1.000
    O231     O        0.17937    0.92713    0.59092    1.000
    O232     O        0.18119    0.90163    0.54553    1.000
    O233     O        0.25257    0.17443    0.21533    1.000
    O234     O        0.20787    0.15813    0.24463    1.000
    O235     O        0.11207    0.66813    0.81543    1.000
    O236     O        0.12697    0.72303    0.82553    1.000
    O237     O        0.92667    0.58203    0.54893    1.000
    O238     O        0.89587    0.57693    0.59303    1.000
    C1009    C        0.14817    0.97043    0.54303    1.000
    C1010    C        0.11808    0.97703    0.54183    1.000
    C1011    C        0.08717    0.95423    0.52373    1.000
    H561     H        0.08577    0.93463    0.51143    1.000
    C1012    C        0.05807    0.96103    0.52413    1.000
    H562     H        0.03727    0.94623    0.51123    1.000
    C1013    C        0.05847    0.98853    0.54263    1.000
    C1014    C        0.09037    0.01103    0.56053    1.000
    H563     H        0.09187    0.03063    0.57293    1.000
    C1015    C        0.11957    0.00513    0.56023    1.000
    H564     H        0.14067    0.02023    0.57263    1.000
    C1016    C        0.02877    0.99373    0.54283    1.000
    C1017    C        0.99537    0.96683    0.54243    1.000
    H565     H        0.99157    0.94283    0.54173    1.000
    C1018    C        0.22137    0.97883    0.48503    1.000
    C1019    C        0.22917    0.99043    0.45283    1.000
    C1020    C        0.24117    0.02563    0.44243    1.000
    H566     H        0.24567    0.04423    0.45763    1.000
    C1021    C        0.24687    0.03383    0.40773    1.000
    H567     H        0.25527    0.05783    0.40033    1.000
    C1022    C        0.24007    0.00683    0.38593    1.000
    C1023    C        0.22617    0.97003    0.39623    1.000
    H568     H        0.22097    0.95143    0.38083    1.000
    C1024    C        0.22027    0.96183    0.42993    1.000
    H569     H        0.21037    0.93743    0.43723    1.000
    C1025    C        0.24807    0.01503    0.35203    1.000
    C1026    C        0.24097    0.03793    0.33653    1.000
    H570     H        0.22677    0.04633    0.34723    1.000
    C1027    C        0.25317    0.04983    0.30573    1.000
    C1028    C        0.26617    0.03223    0.28943    1.000
    H571     H        0.27177    0.03803    0.26703    1.000
    C1029    C        0.27197    0.00553    0.30303    1.000
    C1030    C        0.26237    0.99723    0.33543    1.000
    H572     H        0.26567    0.97923    0.34603    1.000
    C1031    C        0.29037    0.98953    0.28583    1.000
    C1032    C        0.31707    0.00753    0.26493    1.000
    H573     H        0.32407    0.03213    0.26053    1.000
    C1033    C        0.33517    0.99303    0.24903    1.000
    H574     H        0.35477    0.00683    0.23453    1.000
    C1034    C        0.32267    0.95603    0.25593    1.000
    C1035    C        0.29587    0.93723    0.27563    1.000
    H575     H        0.28737    0.91203    0.27853    1.000
    C1036    C        0.27997    0.95293    0.29203    1.000
    H576     H        0.26177    0.93953    0.30783    1.000
    C1037    C        0.34107    0.93883    0.23873    1.000
    C1038    C        0.24697    0.07523    0.29083    1.000
    C1039    C        0.21917    0.08243    0.30123    1.000
    H577     H        0.20577    0.07173    0.32063    1.000
    C1040    C        0.21157    0.10613    0.28193    1.000
    H578     H        0.19047    0.10773    0.28623    1.000
    C1041    C        0.23517    0.12703    0.25673    1.000
    C1042    C        0.26507    0.12203    0.24783    1.000
    H579     H        0.28047    0.13513    0.23003    1.000
    C1043    C        0.27167    0.09733    0.26603    1.000
    H580     H        0.29267    0.09553    0.26163    1.000
    C1044    C        0.23167    0.15563    0.23713    1.000
    C1045    C        0.17217    0.89923    0.57423    1.000
    C1046    C        0.15467    0.86403    0.58943    1.000
    C1047    C        0.14327    0.83263    0.57253    1.000
    H581     H        0.14787    0.83423    0.54983    1.000
    C1048    C        0.12657    0.80103    0.58553    1.000
    H582     H        0.11867    0.78033    0.57193    1.000
    C1049    C        0.11967    0.79613    0.61873    1.000
    C1050    C        0.12917    0.82723    0.63703    1.000
    H583     H        0.12297    0.82513    0.65953    1.000
    C1051    C        0.14717    0.86073    0.62253    1.000
    H584     H        0.15467    0.88193    0.63533    1.000
    C1052    C        0.10037    0.76113    0.63463    1.000
    C1053    C        0.06837    0.73283    0.61763    1.000
    H585     H        0.06117    0.73673    0.59673    1.000
    C1054    C        0.04997    0.70103    0.63363    1.000
    C1055    C        0.05807    0.69553    0.66213    1.000
    H586     H        0.04267    0.67273    0.67203    1.000
    C1056    C        0.08797    0.72063    0.67963    1.000
    C1057    C        0.10997    0.75583    0.66493    1.000
    H587     H        0.13047    0.77463    0.67593    1.000
    C1058    C        0.09737    0.71403    0.71123    1.000
    C1059    C        0.08867    0.68243    0.72223    1.000
    H588     H        0.07577    0.66193    0.70833    1.000
    C1060    C        0.09677    0.67683    0.75293    1.000
    H589     H        0.09277    0.65343    0.75853    1.000
    C1061    C        0.10977    0.70203    0.77443    1.000
    C1062    C        0.11687    0.73623    0.76463    1.000
    H590     H        0.12717    0.75633    0.77913    1.000
    C1063    C        0.10857    0.73963    0.73333    1.000
    H591     H        0.11097    0.76223    0.72703    1.000
    C1064    C        0.11617    0.69633    0.80583    1.000
    C1065    C        0.01787    0.66213    0.58683    1.000
    H592     H        0.04007    0.67463    0.57513    1.000
    C1066    C        0.01647    0.67013    0.62003    1.000
    C1067    C        0.98407    0.65143    0.63853    1.000
    H593     H        0.98337    0.65793    0.66053    1.000
    C1068    C        0.95197    0.62193    0.62303    1.000
    H594     H        0.93067    0.60753    0.63533    1.000
    C1069    C        0.95317    0.61513    0.58943    1.000
    C1070    C        0.98507    0.63453    0.57083    1.000
    H595     H        0.98517    0.62973    0.54833    1.000
    C1071    C        0.92267    0.58963    0.57423    1.000
    Eu18     Eu       0.86915    0.29368    0.87829    1.000
    In18     In       0.88980    0.52755    0.53006    1.000
    O239     O        0.84111    0.32353    0.89485    1.000
    O240     O        0.81396    0.27840    0.86005    1.000
    O241     O        0.87727    0.28225    0.82771    1.000
    O242     O        0.89224    0.33707    0.83876    1.000
    O243     O        0.03407    0.29163    0.55549    1.000
    O244     O        0.99646    0.23894    0.57767    1.000
    O245     O        0.84603    0.26047    0.92426    1.000
    O246     O        0.84785    0.23497    0.87887    1.000
    O247     O        0.91923    0.50777    0.54867    1.000
    O248     O        0.87453    0.49147    0.57797    1.000
    O249     O        0.77873    0.00147    0.14877    1.000
    O250     O        0.79363    0.05637    0.15887    1.000
    O251     O        0.59333    0.91537    0.88227    1.000
    O252     O        0.56253    0.91027    0.92637    1.000
    C1072    C        0.81483    0.30377    0.87637    1.000
    C1073    C        0.78474    0.31037    0.87517    1.000
    C1074    C        0.75383    0.28757    0.85707    1.000
    H596     H        0.75243    0.26797    0.84477    1.000
    C1075    C        0.72473    0.29437    0.85747    1.000
    H597     H        0.70393    0.27957    0.84457    1.000
    C1076    C        0.72513    0.32187    0.87597    1.000
    C1077    C        0.75703    0.34437    0.89387    1.000
    H598     H        0.75853    0.36397    0.90627    1.000
    C1078    C        0.78623    0.33847    0.89357    1.000
    H599     H        0.80733    0.35357    0.90597    1.000
    C1079    C        0.69543    0.32707    0.87617    1.000
    C1080    C        0.66203    0.30017    0.87577    1.000
    H600     H        0.65823    0.27617    0.87507    1.000
    C1081    C        0.88803    0.31217    0.81837    1.000
    C1082    C        0.89583    0.32377    0.78617    1.000
    C1083    C        0.90783    0.35897    0.77577    1.000
    H601     H        0.91233    0.37757    0.79097    1.000
    C1084    C        0.91353    0.36717    0.74107    1.000
    H602     H        0.92193    0.39117    0.73367    1.000
    C1085    C        0.90673    0.34017    0.71927    1.000
    C1086    C        0.89283    0.30337    0.72957    1.000
    H603     H        0.88763    0.28477    0.71417    1.000
    C1087    C        0.88693    0.29517    0.76327    1.000
    H604     H        0.87703    0.27077    0.77057    1.000
    C1088    C        0.91473    0.34837    0.68537    1.000
    C1089    C        0.90763    0.37127    0.66987    1.000
    H605     H        0.89343    0.37967    0.68057    1.000
    C1090    C        0.91983    0.38317    0.63907    1.000
    C1091    C        0.93283    0.36557    0.62277    1.000
    H606     H        0.93843    0.37137    0.60037    1.000
    C1092    C        0.93863    0.33887    0.63637    1.000
    C1093    C        0.92903    0.33057    0.66877    1.000
    H607     H        0.93233    0.31257    0.67937    1.000
    C1094    C        0.95703    0.32287    0.61917    1.000
    C1095    C        0.98373    0.34087    0.59827    1.000
    H608     H        0.99073    0.36547    0.59387    1.000
    C1096    C        0.00183    0.32637    0.58237    1.000
    H609     H        0.02143    0.34017    0.56787    1.000
    C1097    C        0.98933    0.28937    0.58927    1.000
    C1098    C        0.96253    0.27057    0.60897    1.000
    H610     H        0.95403    0.24537    0.61187    1.000
    C1099    C        0.94663    0.28627    0.62537    1.000
    H611     H        0.92843    0.27287    0.64117    1.000
    C1100    C        0.00773    0.27217    0.57207    1.000
    C1101    C        0.91363    0.40857    0.62417    1.000
    C1102    C        0.88583    0.41577    0.63457    1.000
    H612     H        0.87243    0.40507    0.65397    1.000
    C1103    C        0.87823    0.43947    0.61527    1.000
    H613     H        0.85713    0.44107    0.61957    1.000
    C1104    C        0.90183    0.46037    0.59007    1.000
    C1105    C        0.93173    0.45537    0.58117    1.000
    H614     H        0.94713    0.46847    0.56337    1.000
    C1106    C        0.93833    0.43067    0.59937    1.000
    H615     H        0.95933    0.42887    0.59497    1.000
    C1107    C        0.89833    0.48897    0.57047    1.000
    C1108    C        0.83883    0.23257    0.90757    1.000
    C1109    C        0.82133    0.19737    0.92277    1.000
    C1110    C        0.80993    0.16597    0.90587    1.000
    H616     H        0.81453    0.16757    0.88317    1.000
    C1111    C        0.79323    0.13437    0.91887    1.000
    H617     H        0.78533    0.11367    0.90527    1.000
    C1112    C        0.78633    0.12947    0.95207    1.000
    C1113    C        0.79583    0.16057    0.97037    1.000
    H618     H        0.78963    0.15847    0.99287    1.000
    C1114    C        0.81383    0.19407    0.95587    1.000
    H619     H        0.82133    0.21527    0.96867    1.000
    C1115    C        0.76703    0.09447    0.96797    1.000
    C1116    C        0.73503    0.06617    0.95097    1.000
    H620     H        0.72783    0.07007    0.93007    1.000
    C1117    C        0.71663    0.03437    0.96697    1.000
    C1118    C        0.72473    0.02887    0.99547    1.000
    H621     H        0.70933    0.00607    0.00537    1.000
    C1119    C        0.75463    0.05397    0.01297    1.000
    C1120    C        0.77663    0.08917    0.99827    1.000
    H622     H        0.79713    0.10797    0.00927    1.000
    C1121    C        0.76403    0.04737    0.04457    1.000
    C1122    C        0.75533    0.01577    0.05557    1.000
    H623     H        0.74243    0.99527    0.04167    1.000
    C1123    C        0.76343    0.01017    0.08627    1.000
    H624     H        0.75943    0.98677    0.09187    1.000
    C1124    C        0.77643    0.03537    0.10777    1.000
    C1125    C        0.78353    0.06957    0.09797    1.000
    H625     H        0.79383    0.08967    0.11247    1.000
    C1126    C        0.77523    0.07297    0.06667    1.000
    H626     H        0.77763    0.09557    0.06037    1.000
    C1127    C        0.78283    0.02967    0.13917    1.000
    C1128    C        0.68453    0.99547    0.92017    1.000
    H627     H        0.70673    0.00797    0.90847    1.000
    C1129    C        0.68313    0.00347    0.95337    1.000
    C1130    C        0.65073    0.98477    0.97187    1.000
    H628     H        0.65003    0.99127    0.99387    1.000
    C1131    C        0.61863    0.95527    0.95637    1.000
    H629     H        0.59733    0.94087    0.96867    1.000
    C1132    C        0.61983    0.94847    0.92277    1.000
    C1133    C        0.65173    0.96787    0.90417    1.000
    H630     H        0.65183    0.96307    0.88167    1.000
    C1134    C        0.58933    0.92297    0.90757    1.000
