data_functionalizedCrystal
_audit_creation_method	'EQeq! by Chris Wilmer'
_symmetry_space_group_name_H-M	'P1'
_symmetry_Int_Tables_number	1
_symmetry_cell_setting	triclinic
loop_
_symmetry_equiv_pos_as_xyz
  x,y,z
_cell_length_a	8.94
_cell_length_b	12.48
_cell_length_c	14.02
_cell_angle_alpha	90
_cell_angle_beta	90
_cell_angle_gamma	91.73
loop_
_atom_site_label
_atom_site_type_symbol
_atom_site_fract_x
_atom_site_fract_y
_atom_site_fract_z
_atom_site_charge
Mof_Zn	Zn	0.75	0.25	0.32633	1.242
Mof_Zn	Zn	0.75	0.25	0.83874	1.244
Mof_Zn	Zn	0.25	0.75	0.67367	1.242
Mof_Zn	Zn	0.25	0.75	0.16126	1.244
Mof_H 	H 	0.441	0.4646	0.1525	0.137
Mof_H 	H 	0.4511	0.3557	0.0939	0.142
Mof_H 	H 	0.6222	0.5468	0.0556	0.081
Mof_H 	H 	0.0258	0.4976	0.6622	0.141
Mof_H 	H 	0.0648	0.3807	0.6247	0.15
Mof_H 	H 	0.8491	0.5087	0.5326	0.089
Mof_H 	H 	0.059	0.0354	0.1525	0.13
Mof_H 	H 	0.0489	0.1443	0.0939	0.135
Mof_H 	H 	0.8778	0.9532	0.0556	0.077
Mof_H 	H 	0.4742	0.0024	0.6622	0.141
Mof_H 	H 	0.4352	0.1193	0.6247	0.15
Mof_H 	H 	0.6509	0.9913	0.5326	0.088
Mof_H 	H 	0.559	0.5354	0.8475	0.137
Mof_H 	H 	0.5489	0.6443	0.9061	0.142
Mof_H 	H 	0.3778	0.4532	0.9444	0.081
Mof_H 	H 	0.9742	0.5024	0.3378	0.141
Mof_H 	H 	0.9352	0.6193	0.3753	0.15
Mof_H 	H 	0.1509	0.4913	0.4674	0.089
Mof_H 	H 	0.941	0.9646	0.8475	0.13
Mof_H 	H 	0.9511	0.8557	0.9061	0.135
Mof_H 	H 	0.1222	0.0468	0.9444	0.077
Mof_H 	H 	0.5258	0.9976	0.3378	0.141
Mof_H 	H 	0.5648	0.8807	0.3753	0.15
Mof_H 	H 	0.3491	0.0087	0.4674	0.088
Mof_C 	C 	0.6243	0.3783	0.1883	0.359
Mof_C 	C 	0.5105	0.4185	0.1175	-0.282
Mof_C 	C 	0.5682	0.481	0.0313	-0.039
Mof_C 	C 	0.6812	0.4168	0.9733	0.294
Mof_C 	C 	0.8539	0.3849	0.6872	0.372
Mof_C 	C 	0.9846	0.4336	0.6284	-0.28
Mof_C 	C 	0.9416	0.4658	0.5277	-0.052
Mof_C 	C 	0.9042	0.3705	0.4672	0.302
Mof_C 	C 	0.8757	0.1217	0.1883	0.355
Mof_C 	C 	0.9895	0.0815	0.1175	-0.267
Mof_C 	C 	0.9318	0.019	0.0313	-0.037
Mof_C 	C 	0.8188	0.0832	0.9733	0.294
Mof_C 	C 	0.6461	0.1151	0.6872	0.372
Mof_C 	C 	0.5154	0.0664	0.6284	-0.281
Mof_C 	C 	0.5584	0.0342	0.5277	-0.051
Mof_C 	C 	0.5958	0.1295	0.4672	0.301
Mof_C 	C 	0.3757	0.6217	0.8117	0.359
Mof_C 	C 	0.4895	0.5815	0.8825	-0.282
Mof_C 	C 	0.4318	0.519	0.9687	-0.039
Mof_C 	C 	0.3188	0.5832	0.0267	0.294
Mof_C 	C 	0.1461	0.6151	0.3128	0.372
Mof_C 	C 	0.0154	0.5664	0.3716	-0.28
Mof_C 	C 	0.0584	0.5342	0.4723	-0.052
Mof_C 	C 	0.0958	0.6295	0.5328	0.302
Mof_C 	C 	0.1243	0.8783	0.8117	0.355
Mof_C 	C 	0.0105	0.9185	0.8825	-0.267
Mof_C 	C 	0.0682	0.981	0.9687	-0.037
Mof_C 	C 	0.1812	0.9168	0.0267	0.294
Mof_C 	C 	0.3539	0.8849	0.3128	0.372
Mof_C 	C 	0.4846	0.9336	0.3716	-0.281
Mof_C 	C 	0.4416	0.9658	0.4723	-0.051
Mof_C 	C 	0.4042	0.8705	0.5328	0.301
Mof_O 	O 	0.5848	0.3031	0.2454	-0.413
Mof_O 	O 	0.8142	0.4394	0.9737	-0.241
Mof_O 	O 	0.6227	0.3366	0.9223	-0.396
Mof_O 	O 	0.8996	0.3353	0.7692	-0.403
Mof_O 	O 	0.7266	0.3932	0.6683	-0.293
Mof_O 	O 	0.7845	0.372	0.4146	-0.39
Mof_O 	O 	0.9888	0.2934	0.4625	-0.254
Mof_O 	O 	0.755	0.4252	0.1934	-0.266
Mof_O 	O 	0.9152	0.1969	0.2454	-0.411
Mof_O 	O 	0.6858	0.0606	0.9737	-0.241
Mof_O 	O 	0.8773	0.1634	0.9223	-0.395
Mof_O 	O 	0.6004	0.1647	0.7692	-0.404
Mof_O 	O 	0.7734	0.1068	0.6683	-0.292
Mof_O 	O 	0.7155	0.128	0.4146	-0.389
Mof_O 	O 	0.5112	0.2066	0.4625	-0.255
Mof_O 	O 	0.745	0.0748	0.1934	-0.264
Mof_O 	O 	0.4152	0.6969	0.7546	-0.413
Mof_O 	O 	0.1858	0.5606	0.0263	-0.241
Mof_O 	O 	0.3773	0.6634	0.0777	-0.396
Mof_O 	O 	0.1004	0.6647	0.2308	-0.403
Mof_O 	O 	0.2734	0.6068	0.3317	-0.293
Mof_O 	O 	0.2155	0.628	0.5854	-0.39
Mof_O 	O 	0.0112	0.7066	0.5375	-0.254
Mof_O 	O 	0.245	0.5748	0.8066	-0.266
Mof_O 	O 	0.0848	0.8031	0.7546	-0.411
Mof_O 	O 	0.3142	0.9394	0.0263	-0.241
Mof_O 	O 	0.1227	0.8366	0.0777	-0.395
Mof_O 	O 	0.3996	0.8353	0.2308	-0.404
Mof_O 	O 	0.2266	0.8932	0.3317	-0.292
Mof_O 	O 	0.2845	0.872	0.5854	-0.389
Mof_O 	O 	0.4888	0.7934	0.5375	-0.255
Mof_O 	O 	0.255	0.9252	0.8066	-0.264
_end
