data_functionalizedCrystal
_audit_creation_method	'EQeq! by Chris Wilmer'
_symmetry_space_group_name_H-M	'P1'
_symmetry_Int_Tables_number	1
_symmetry_cell_setting	triclinic
loop_
_symmetry_equiv_pos_as_xyz
  x,y,z
_cell_length_a	18.7698
_cell_length_b	18.7698
_cell_length_c	18.7698
_cell_angle_alpha	109.471
_cell_angle_beta	109.471
_cell_angle_gamma	109.471
loop_
_atom_site_label
_atom_site_type_symbol
_atom_site_fract_x
_atom_site_fract_y
_atom_site_fract_z
_atom_site_charge
Mof_Ni	Ni	0.53524	0.64825	0.64825	1.131
Mof_Ni	Ni	-3.34997e-17	0.88699	0.35175	1.125
Mof_Ni	Ni	-4.46663e-17	0.35175	0.88699	1.125
Mof_Ni	Ni	0.46476	0.11301	0.11301	1.128
Mof_Ni	Ni	0.88699	0	0.35175	1.125
Mof_Ni	Ni	0.11301	0.46476	0.11301	1.128
Mof_Ni	Ni	0.64825	0.53524	0.64825	1.132
Mof_Ni	Ni	0.35175	0	0.88699	1.125
Mof_Ni	Ni	0.88699	0.35175	-0	1.125
Mof_Ni	Ni	0.64825	0.64825	0.53524	1.132
Mof_Ni	Ni	0.11301	0.11301	0.46476	1.128
Mof_Ni	Ni	0.35175	0.88699	-0	1.125
Mof_H 	H 	0.6284	0.9227	0.7583	0.025
Mof_H 	H 	0.3045	0.4362	0.5973	0.066
Mof_H 	H 	0.1809	0.3073	0.5468	0.019
Mof_H 	H 	0.1644	0.8701	0.2417	0.042
Mof_H 	H 	0.8389	0.7072	0.4027	0.073
Mof_H 	H 	0.7605	0.6341	0.4532	0.022
Mof_H 	H 	0.8356	0.0773	0.7057	0.087
Mof_H 	H 	0.1611	0.5638	0.8683	0.054
Mof_H 	H 	0.2395	0.6927	0.8736	0.014
Mof_H 	H 	0.3716	0.1299	0.2943	0.05
Mof_H 	H 	0.6955	0.2928	0.1317	0.063
Mof_H 	H 	0.8191	0.3659	0.1264	0.028
Mof_H 	H 	0.7057	0.8356	0.0773	0.087
Mof_H 	H 	0.8683	0.1611	0.5638	0.054
Mof_H 	H 	0.8736	0.2395	0.6927	0.014
Mof_H 	H 	0.2943	0.3716	0.1299	0.05
Mof_H 	H 	0.1317	0.6955	0.2928	0.063
Mof_H 	H 	0.1264	0.8191	0.3659	0.028
Mof_H 	H 	0.7583	0.6284	0.9227	0.025
Mof_H 	H 	0.5973	0.3045	0.4362	0.066
Mof_H 	H 	0.5468	0.1809	0.3073	0.019
Mof_H 	H 	0.2417	0.1644	0.8701	0.042
Mof_H 	H 	0.4027	0.8389	0.7072	0.073
Mof_H 	H 	0.4532	0.7605	0.6341	0.022
Mof_H 	H 	0.8701	0.2417	0.1644	0.042
Mof_H 	H 	0.7072	0.4027	0.8389	0.073
Mof_H 	H 	0.6341	0.4532	0.7605	0.022
Mof_H 	H 	0.9227	0.7583	0.6284	0.025
Mof_H 	H 	0.4362	0.5973	0.3045	0.066
Mof_H 	H 	0.3073	0.5468	0.1809	0.019
Mof_H 	H 	0.1299	0.2943	0.3716	0.05
Mof_H 	H 	0.2928	0.1317	0.6955	0.063
Mof_H 	H 	0.3659	0.1264	0.8191	0.028
Mof_H 	H 	0.0773	0.7057	0.8356	0.087
Mof_H 	H 	0.5638	0.8683	0.1611	0.054
Mof_H 	H 	0.6927	0.8736	0.2395	0.014
Mof_H 	H 	0.8701	0.1644	0.2417	0.042
Mof_H 	H 	0.7072	0.8389	0.4027	0.073
Mof_H 	H 	0.6341	0.7605	0.4532	0.022
Mof_H 	H 	0.9227	0.6284	0.7583	0.025
Mof_H 	H 	0.4362	0.3045	0.5973	0.066
Mof_H 	H 	0.3073	0.1809	0.5468	0.019
Mof_H 	H 	0.1299	0.3716	0.2943	0.05
Mof_H 	H 	0.2928	0.6955	0.1317	0.063
Mof_H 	H 	0.3659	0.8191	0.1264	0.028
Mof_H 	H 	0.0773	0.8356	0.7057	0.087
Mof_H 	H 	0.5638	0.1611	0.8683	0.054
Mof_H 	H 	0.6927	0.2395	0.8736	0.014
Mof_H 	H 	0.6284	0.7583	0.9227	0.025
Mof_H 	H 	0.3045	0.5973	0.4362	0.066
Mof_H 	H 	0.1809	0.5468	0.3073	0.019
Mof_H 	H 	0.1644	0.2417	0.8701	0.042
Mof_H 	H 	0.8389	0.4027	0.7072	0.073
Mof_H 	H 	0.7605	0.4532	0.6341	0.022
Mof_H 	H 	0.8356	0.7057	0.0773	0.087
Mof_H 	H 	0.1611	0.8683	0.5638	0.054
Mof_H 	H 	0.2395	0.8736	0.6927	0.014
Mof_H 	H 	0.3716	0.2943	0.1299	0.05
Mof_H 	H 	0.6955	0.1317	0.2928	0.063
Mof_H 	H 	0.8191	0.1264	0.3659	0.028
Mof_H 	H 	0.7057	0.0773	0.8356	0.087
Mof_H 	H 	0.8683	0.5638	0.1611	0.054
Mof_H 	H 	0.8736	0.6927	0.2395	0.014
Mof_H 	H 	0.2943	0.1299	0.3716	0.05
Mof_H 	H 	0.1317	0.2928	0.6955	0.063
Mof_H 	H 	0.1264	0.3659	0.8191	0.028
Mof_H 	H 	0.7583	0.9227	0.6284	0.025
Mof_H 	H 	0.5973	0.4362	0.3045	0.066
Mof_H 	H 	0.5468	0.3073	0.1809	0.019
Mof_H 	H 	0.2417	0.8701	0.1644	0.042
Mof_H 	H 	0.4027	0.7072	0.8389	0.073
Mof_H 	H 	0.4532	0.6341	0.7605	0.022
Mof_H 	H 	0.554	0.554	0.554	0.106
Mof_H 	H 	1.11666e-17	4.46663e-17	0.446	0.091
Mof_H 	H 	-0	0.446	-0	0.091
Mof_H 	H 	0.446	0	-0	0.091
Mof_C 	C 	0.6771	0.9537	0.7542	0.106
Mof_C 	C 	0.3068	0.3839	0.5851	-0.062
Mof_C 	C 	0.2333	0.3064	0.5553	0.055
Mof_C 	C 	0.1995	0.9229	0.2458	0.02
Mof_C 	C 	0.7988	0.7217	0.4149	-0.064
Mof_C 	C 	0.7511	0.678	0.4447	0.059
Mof_C 	C 	0.8005	0.0463	0.7234	-0.125
Mof_C 	C 	0.2012	0.6161	0.9229	-0.021
Mof_C 	C 	0.2489	0.6936	0.9269	0.077
Mof_C 	C 	0.3229	0.0771	0.2766	-0.011
Mof_C 	C 	0.6932	0.2783	0.0771	-0.05
Mof_C 	C 	0.7667	0.322	0.0731	0.04
Mof_C 	C 	0.7234	0.8005	0.0463	-0.125
Mof_C 	C 	0.9229	0.2012	0.6161	-0.021
Mof_C 	C 	0.9269	0.2489	0.6936	0.077
Mof_C 	C 	0.2766	0.3229	0.0771	-0.011
Mof_C 	C 	0.0771	0.6932	0.2783	-0.05
Mof_C 	C 	0.0731	0.7667	0.322	0.04
Mof_C 	C 	0.7542	0.6771	0.9537	0.106
Mof_C 	C 	0.5851	0.3068	0.3839	-0.062
Mof_C 	C 	0.5553	0.2333	0.3064	0.055
Mof_C 	C 	0.2458	0.1995	0.9229	0.02
Mof_C 	C 	0.4149	0.7988	0.7217	-0.064
Mof_C 	C 	0.4447	0.7511	0.678	0.059
Mof_C 	C 	0.9229	0.2458	0.1995	0.02
Mof_C 	C 	0.7217	0.4149	0.7988	-0.064
Mof_C 	C 	0.678	0.4447	0.7511	0.059
Mof_C 	C 	0.9537	0.7542	0.6771	0.106
Mof_C 	C 	0.3839	0.5851	0.3068	-0.062
Mof_C 	C 	0.3064	0.5553	0.2333	0.055
Mof_C 	C 	0.0771	0.2766	0.3229	-0.011
Mof_C 	C 	0.2783	0.0771	0.6932	-0.05
Mof_C 	C 	0.322	0.0731	0.7667	0.04
Mof_C 	C 	0.0463	0.7234	0.8005	-0.125
Mof_C 	C 	0.6161	0.9229	0.2012	-0.021
Mof_C 	C 	0.6936	0.9269	0.2489	0.077
Mof_C 	C 	0.9229	0.1995	0.2458	0.02
Mof_C 	C 	0.7217	0.7988	0.4149	-0.064
Mof_C 	C 	0.678	0.7511	0.4447	0.059
Mof_C 	C 	0.9537	0.6771	0.7542	0.106
Mof_C 	C 	0.3839	0.3068	0.5851	-0.062
Mof_C 	C 	0.3064	0.2333	0.5553	0.055
Mof_C 	C 	0.0771	0.3229	0.2766	-0.011
Mof_C 	C 	0.2783	0.6932	0.0771	-0.05
Mof_C 	C 	0.322	0.7667	0.0731	0.04
Mof_C 	C 	0.0463	0.8005	0.7234	-0.125
Mof_C 	C 	0.6161	0.2012	0.9229	-0.021
Mof_C 	C 	0.6936	0.2489	0.9269	0.077
Mof_C 	C 	0.6771	0.7542	0.9537	0.106
Mof_C 	C 	0.3068	0.5851	0.3839	-0.062
Mof_C 	C 	0.2333	0.5553	0.3064	0.055
Mof_C 	C 	0.1995	0.2458	0.9229	0.02
Mof_C 	C 	0.7988	0.4149	0.7217	-0.064
Mof_C 	C 	0.7511	0.4447	0.678	0.059
Mof_C 	C 	0.8005	0.7234	0.0463	-0.125
Mof_C 	C 	0.2012	0.9229	0.6161	-0.021
Mof_C 	C 	0.2489	0.9269	0.6936	0.077
Mof_C 	C 	0.3229	0.2766	0.0771	-0.011
Mof_C 	C 	0.6932	0.0771	0.2783	-0.05
Mof_C 	C 	0.7667	0.0731	0.322	0.04
Mof_C 	C 	0.7234	0.0463	0.8005	-0.125
Mof_C 	C 	0.9229	0.6161	0.2012	-0.021
Mof_C 	C 	0.9269	0.6936	0.2489	0.077
Mof_C 	C 	0.2766	0.0771	0.3229	-0.011
Mof_C 	C 	0.0771	0.2783	0.6932	-0.05
Mof_C 	C 	0.0731	0.322	0.7667	0.04
Mof_C 	C 	0.7542	0.9537	0.6771	0.106
Mof_C 	C 	0.5851	0.3839	0.3068	-0.062
Mof_C 	C 	0.5553	0.3064	0.2333	0.055
Mof_C 	C 	0.2458	0.9229	0.1995	0.02
Mof_C 	C 	0.4149	0.7217	0.7988	-0.064
Mof_C 	C 	0.4447	0.678	0.7511	0.059
Mof_C 	C 	0.4611	0.4611	0.6154	0.353
Mof_C 	C 	0.3832	0.3832	0.5966	-0.035
Mof_C 	C 	0.8457	0.8457	0.3846	0.349
Mof_C 	C 	0.7866	0.7866	0.4034	-0.027
Mof_C 	C 	0.1543	0.5389	-0	0.319
Mof_C 	C 	0.2134	0.6168	-0	-0.076
Mof_C 	C 	0.5389	0.1543	-0	0.319
Mof_C 	C 	0.6168	0.2134	-0	-0.076
Mof_C 	C 	-1.11666e-17	0.1543	0.5389	0.319
Mof_C 	C 	-0	0.2134	0.6168	-0.076
Mof_C 	C 	-0	0.5389	0.1543	0.319
Mof_C 	C 	-1.11666e-17	0.6168	0.2134	-0.076
Mof_C 	C 	0.6154	0.4611	0.4611	0.353
Mof_C 	C 	0.5966	0.3832	0.3832	-0.035
Mof_C 	C 	0.3846	0.8457	0.8457	0.349
Mof_C 	C 	0.4034	0.7866	0.7866	-0.027
Mof_C 	C 	0.8457	0.3846	0.8457	0.349
Mof_C 	C 	0.7866	0.4034	0.7866	-0.027
Mof_C 	C 	0.4611	0.6154	0.4611	0.353
Mof_C 	C 	0.3832	0.5966	0.3832	-0.035
Mof_C 	C 	0.1543	0	0.5389	0.319
Mof_C 	C 	0.2134	4.46663e-17	0.6168	-0.076
Mof_C 	C 	0.5389	1.11666e-17	0.1543	0.319
Mof_C 	C 	0.6168	0	0.2134	-0.076
Mof_C 	C 	0.6609	0.811	0.6609	0.423
Mof_C 	C 	0.7028	0.9084	0.7028	-0.145
Mof_C 	C 	0.1501	0	0.3391	0.356
Mof_C 	C 	0.2056	0	0.2972	-0.114
Mof_C 	C 	0.8499	0.189	0.8499	0.362
Mof_C 	C 	0.7944	0.0916	0.7944	-0.002
Mof_C 	C 	0.3391	1.11666e-17	0.1501	0.356
Mof_C 	C 	0.2972	0	0.2056	-0.114
Mof_C 	C 	0.8499	0.8499	0.189	0.362
Mof_C 	C 	0.7944	0.7944	0.0916	-0.002
Mof_C 	C 	0.1501	0.3391	-0	0.356
Mof_C 	C 	0.2056	0.2972	-0	-0.114
Mof_C 	C 	0.6609	0.6609	0.811	0.423
Mof_C 	C 	0.7028	0.7028	0.9084	-0.145
Mof_C 	C 	0.3391	0.1501	-0	0.356
Mof_C 	C 	0.2972	0.2056	-0	-0.114
Mof_C 	C 	-3.34997e-17	0.3391	0.1501	0.356
Mof_C 	C 	-1.11666e-17	0.2972	0.2056	-0.114
Mof_C 	C 	0.811	0.6609	0.6609	0.423
Mof_C 	C 	0.9084	0.7028	0.7028	-0.145
Mof_C 	C 	-2.23331e-17	0.1501	0.3391	0.356
Mof_C 	C 	-2.23331e-17	0.2056	0.2972	-0.114
Mof_C 	C 	0.189	0.8499	0.8499	0.362
Mof_C 	C 	0.0916	0.7944	0.7944	-0.002
Mof_N 	N 	0.2321	0.2321	0.5384	-0.198
Mof_N 	N 	0.6937	0.6937	0.4616	-0.197
Mof_N 	N 	0.3063	0.7679	-0	-0.217
Mof_N 	N 	0.7679	0.3063	-0	-0.217
Mof_N 	N 	-4.46663e-17	0.3063	0.7679	-0.217
Mof_N 	N 	-2.23331e-17	0.7679	0.3063	-0.217
Mof_N 	N 	0.5384	0.2321	0.2321	-0.198
Mof_N 	N 	0.4616	0.6937	0.6937	-0.197
Mof_N 	N 	0.6937	0.4616	0.6937	-0.197
Mof_N 	N 	0.2321	0.5384	0.2321	-0.198
Mof_N 	N 	0.3063	0	0.7679	-0.217
Mof_N 	N 	0.7679	2.23331e-17	0.3063	-0.217
Mof_O 	O 	0.6092	0.77505	0.68145	-0.416
Mof_O 	O 	0.45192	0.52543	0.62051	-0.404
Mof_O 	O 	0.0936	0.92775	0.31855	-0.387
Mof_O 	O 	0.90492	0.83141	0.37949	-0.381
Mof_O 	O 	0.9064	0.22495	0.83415	-0.386
Mof_O 	O 	0.09508	0.47457	0.92649	-0.376
Mof_O 	O 	0.3908	0.07225	0.16585	-0.411
Mof_O 	O 	0.54808	0.16859	0.07351	-0.4
Mof_O 	O 	0.83415	0.9064	0.22495	-0.386
Mof_O 	O 	0.92649	0.09508	0.47457	-0.376
Mof_O 	O 	0.16585	0.3908	0.07225	-0.411
Mof_O 	O 	0.07351	0.54808	0.16859	-0.4
Mof_O 	O 	0.68145	0.6092	0.77505	-0.416
Mof_O 	O 	0.62051	0.45192	0.52543	-0.404
Mof_O 	O 	0.31855	0.0936	0.92775	-0.387
Mof_O 	O 	0.37949	0.90492	0.83141	-0.381
Mof_O 	O 	0.92775	0.31855	0.0936	-0.387
Mof_O 	O 	0.83141	0.37949	0.90492	-0.381
Mof_O 	O 	0.77505	0.68145	0.6092	-0.416
Mof_O 	O 	0.52543	0.62051	0.45192	-0.404
Mof_O 	O 	0.07225	0.16585	0.3908	-0.411
Mof_O 	O 	0.16859	0.07351	0.54808	-0.4
Mof_O 	O 	0.22495	0.83415	0.9064	-0.386
Mof_O 	O 	0.47457	0.92649	0.09508	-0.376
Mof_O 	O 	0.92775	0.0936	0.31855	-0.387
Mof_O 	O 	0.83141	0.90492	0.37949	-0.381
Mof_O 	O 	0.77505	0.6092	0.68145	-0.416
Mof_O 	O 	0.52543	0.45192	0.62051	-0.404
Mof_O 	O 	0.07225	0.3908	0.16585	-0.411
Mof_O 	O 	0.16859	0.54808	0.07351	-0.4
Mof_O 	O 	0.22495	0.9064	0.83415	-0.386
Mof_O 	O 	0.47457	0.09508	0.92649	-0.376
Mof_O 	O 	0.6092	0.68145	0.77505	-0.416
Mof_O 	O 	0.45192	0.62051	0.52543	-0.404
Mof_O 	O 	0.0936	0.31855	0.92775	-0.387
Mof_O 	O 	0.90492	0.37949	0.83141	-0.381
Mof_O 	O 	0.9064	0.83415	0.22495	-0.386
Mof_O 	O 	0.09508	0.92649	0.47457	-0.376
Mof_O 	O 	0.3908	0.16585	0.07225	-0.411
Mof_O 	O 	0.54808	0.07351	0.16859	-0.4
Mof_O 	O 	0.83415	0.22495	0.9064	-0.386
Mof_O 	O 	0.92649	0.47457	0.09508	-0.376
Mof_O 	O 	0.16585	0.07225	0.3908	-0.411
Mof_O 	O 	0.07351	0.16859	0.54808	-0.4
Mof_O 	O 	0.68145	0.77505	0.6092	-0.416
Mof_O 	O 	0.62051	0.52543	0.45192	-0.404
Mof_O 	O 	0.31855	0.92775	0.0936	-0.387
Mof_O 	O 	0.37949	0.83141	0.90492	-0.381
Mof_O 	O 	0.6072	0.6072	0.6072	-0.627
Mof_O 	O 	1.11666e-17	2.23331e-17	0.3928	-0.658
Mof_O 	O 	-0	0.3928	-0	-0.658
Mof_O 	O 	0.3928	0	-0	-0.658
_end
