data_functionalizedCrystal
_audit_creation_method	'EQeq! by Chris Wilmer'
_symmetry_space_group_name_H-M	'P1'
_symmetry_Int_Tables_number	1
_symmetry_cell_setting	triclinic
loop_
_symmetry_equiv_pos_as_xyz
  x,y,z
_cell_length_a	11.6425
_cell_length_b	13.8569
_cell_length_c	15.5738
_cell_angle_alpha	90
_cell_angle_beta	90
_cell_angle_gamma	90
loop_
_atom_site_label
_atom_site_type_symbol
_atom_site_fract_x
_atom_site_fract_y
_atom_site_fract_z
_atom_site_charge
Mof_O 	O 	0.3926	0.07934	0.08222	-0.494
Mof_C 	C 	0.16545	0.08675	0.29965	-0.067
Mof_H 	H 	0.14007	0.15484	0.3276	0.049
Mof_C 	C 	0.23574	0.08682	0.22595	0.029
Mof_H 	H 	0.26245	0.15531	0.19953	0.031
Mof_O 	O 	0.6074	0.92066	0.08222	-0.463
Mof_C 	C 	0.83455	0.91325	0.29965	-0.032
Mof_H 	H 	0.85993	0.84516	0.3276	0.049
Mof_C 	C 	0.76426	0.91318	0.22595	0.063
Mof_H 	H 	0.73755	0.84469	0.19953	0.029
Mof_O 	O 	0.6074	0.07934	0.91778	-0.408
Mof_C 	C 	0.83455	0.08675	0.70035	-0.055
Mof_H 	H 	0.85993	0.15484	0.6724	0.054
Mof_C 	C 	0.76426	0.08682	0.77405	0.028
Mof_H 	H 	0.73755	0.15531	0.80047	0.056
Mof_O 	O 	0.3926	0.92066	0.91778	-0.376
Mof_C 	C 	0.16545	0.91325	0.70035	-0.02
Mof_H 	H 	0.14007	0.84516	0.6724	0.055
Mof_C 	C 	0.23574	0.91318	0.77405	0.062
Mof_H 	H 	0.26245	0.84469	0.80047	0.054
Mof_O 	O 	0.6074	0.92066	0.91778	-0.376
Mof_C 	C 	0.83455	0.91325	0.70035	-0.02
Mof_H 	H 	0.85993	0.84516	0.6724	0.055
Mof_C 	C 	0.76426	0.91318	0.77405	0.062
Mof_H 	H 	0.73755	0.84469	0.80047	0.054
Mof_O 	O 	0.3926	0.07934	0.91778	-0.408
Mof_C 	C 	0.16545	0.08675	0.70035	-0.055
Mof_H 	H 	0.14007	0.15484	0.6724	0.054
Mof_C 	C 	0.23574	0.08682	0.77405	0.028
Mof_H 	H 	0.26245	0.15531	0.80047	0.056
Mof_O 	O 	0.3926	0.92066	0.08222	-0.463
Mof_C 	C 	0.16545	0.91325	0.29965	-0.032
Mof_H 	H 	0.14007	0.84516	0.3276	0.049
Mof_C 	C 	0.23574	0.91318	0.22595	0.063
Mof_H 	H 	0.26245	0.84469	0.19953	0.029
Mof_O 	O 	0.6074	0.07934	0.08222	-0.495
Mof_C 	C 	0.83455	0.08675	0.29965	-0.068
Mof_H 	H 	0.85993	0.15484	0.3276	0.048
Mof_C 	C 	0.76426	0.08682	0.22595	0.028
Mof_H 	H 	0.73755	0.15531	0.19953	0.03
Mof_Zn	Zn	0.5	0.11118	-0	1.239
Mof_N 	N 	0.5	0.2448	-0	-0.272
Mof_C 	C 	0.5	0.44568	-0	0.019
Mof_Zn	Zn	0.5	0.88882	-0	1.242
Mof_N 	N 	0.5	0.7552	-0	-0.272
Mof_C 	C 	0.5	0.55432	-0	0.019
Mof_C 	C 	0.11963	-5.02358e-33	0.5	-0.054
Mof_H 	H 	0.78739	-5.02358e-33	0.5	0.043
Mof_C 	C 	0.88037	-5.02358e-33	0.5	-0.054
Mof_H 	H 	0.21261	-5.02358e-33	0.5	0.043
Mof_C 	C 	0.06111	0	0.42009	-0.005
Mof_C 	C 	0.12996	0	0.33805	-0.006
Mof_C 	C 	0.2733	0	0.18797	-0.153
Mof_C 	C 	0.35595	0	0.11291	0.367
Mof_C 	C 	0.93889	0	0.42009	-0.005
Mof_C 	C 	0.87004	0	0.33805	-0.006
Mof_C 	C 	0.7267	0	0.18797	-0.153
Mof_C 	C 	0.64405	0	0.11291	0.367
Mof_C 	C 	0.93889	-5.02358e-33	0.57991	-0.003
Mof_C 	C 	0.87004	0	0.66195	-0.008
Mof_C 	C 	0.7267	0	0.81203	-0.121
Mof_C 	C 	0.64405	0	0.88709	0.355
Mof_C 	C 	0.06111	-5.02358e-33	0.57991	-0.003
Mof_C 	C 	0.12996	0	0.66195	-0.008
Mof_C 	C 	0.2733	0	0.81203	-0.121
Mof_C 	C 	0.35595	0	0.88709	0.355
Mof_C 	C 	0.39855	0.29229	-0	0.029
Mof_H 	H 	0.31902	0.25206	-0	-0.008
Mof_C 	C 	0.39638	0.39249	-0	-0.08
Mof_H 	H 	0.31285	0.42543	-0	0.034
Mof_C 	C 	0.60145	0.70771	-0	0.03
Mof_H 	H 	0.68098	0.74794	-0	-0.005
Mof_C 	C 	0.60362	0.60751	-0	-0.079
Mof_H 	H 	0.68715	0.57457	-0	0.035
Mof_C 	C 	0.60145	0.29229	-0	0.029
Mof_H 	H 	0.68098	0.25206	-0	-0.008
Mof_C 	C 	0.60362	0.39249	-0	-0.08
Mof_H 	H 	0.68715	0.42543	-0	0.034
Mof_C 	C 	0.39855	0.70771	-0	0.03
Mof_H 	H 	0.31902	0.74794	-0	-0.005
Mof_C 	C 	0.39638	0.60751	-0	-0.079
Mof_H 	H 	0.31285	0.57457	-0	0.035
_end
