data_functionalizedCrystal
_audit_creation_method	'EQeq! by Chris Wilmer'
_symmetry_space_group_name_H-M	'P1'
_symmetry_Int_Tables_number	1
_symmetry_cell_setting	triclinic
loop_
_symmetry_equiv_pos_as_xyz
  x,y,z
_cell_length_a	7.6957
_cell_length_b	10.2182
_cell_length_c	15.9408
_cell_angle_alpha	86.945
_cell_angle_beta	86.035
_cell_angle_gamma	76.831
loop_
_atom_site_label
_atom_site_type_symbol
_atom_site_fract_x
_atom_site_fract_y
_atom_site_fract_z
_atom_site_charge
Mof_Tb	Tb	0.35401	0.33674	0.06341	2.04
Mof_Tb	Tb	0.61275	0.87052	0.32443	2.025
Mof_O 	O 	0.2102	0.296	0.7769	-0.281
Mof_O 	O 	0.1049	0.071	0.7058	-0.313
Mof_O 	O 	0.4894	0.3548	0.6515	-0.393
Mof_O 	O 	0.6386	0.186	0.7286	-0.432
Mof_O 	O 	0.7542	0.444	0.8825	-0.518
Mof_O 	O 	0.5885	0.3366	0.9686	-0.594
Mof_O 	O 	0.785	0.5162	0.0474	-0.443
Mof_O 	O 	0.0391	0.3712	0.0782	-0.443
Mof_O 	O 	0.3388	0.9694	0.5768	-0.407
Mof_O 	O 	0.4065	0.8905	0.4468	-0.413
Mof_O 	O 	0.3964	0.0905	0.2999	-0.374
Mof_O 	O 	0.6136	0.9544	0.1816	-0.418
Mof_O 	O 	0.2908	0.2518	0.2025	-0.429
Mof_O 	O 	0.4991	0.107	0.0832	-0.458
Mof_C 	C 	0.0601	0.488	0.7052	0.05
Mof_H 	H 	0.162	0.5257	0.7058	0.027
Mof_C 	C 	0.9112	0.5574	0.6648	-0.102
Mof_H 	H 	0.9087	0.6442	0.6397	0.078
Mof_C 	C 	0.7663	0.4997	0.6614	0.033
Mof_H 	H 	0.6662	0.5443	0.6311	0.031
Mof_C 	C 	0.7674	0.3765	0.7022	-0.1
Mof_C 	C 	0.9145	0.3142	0.7468	0.066
Mof_C 	C 	0.621	0.3013	0.6943	0.327
Mof_C 	C 	0.0232	0.9628	0.8281	0.08
Mof_H 	H 	0.0959	0.8803	0.8094	0.013
Mof_C 	C 	0.9231	0.966	0.9033	-0.13
Mof_H 	H 	0.9237	0.8856	0.9363	0.056
Mof_C 	C 	0.8221	0.0875	0.93	0.09
Mof_H 	H 	0.7527	0.0907	0.9818	0.007
Mof_C 	C 	0.8203	0.2042	0.8826	-0.187
Mof_C 	C 	0.9188	0.1977	0.8059	0.126
Mof_C 	C 	0.7121	0.34	0.9121	0.511
Mof_C 	C 	0.95	0.4669	0.0362	0.272
Mof_C 	C 	0.4273	0.9588	0.5065	0.254
Mof_C 	C 	0.5105	0.0608	0.1584	0.264
Mof_C 	C 	0.3883	0.1427	0.2265	0.243
Mof_N 	N 	0.0615	0.3677	0.7435	-0.086
Mof_N 	N 	0.0176	0.0773	0.7813	-0.071
Mof_Tb	Tb	0.64599	0.66326	0.93659	2.039
Mof_Tb	Tb	0.38725	0.12948	0.67557	2.024
Mof_O 	O 	0.7898	0.704	0.2231	-0.281
Mof_O 	O 	0.8951	0.929	0.2942	-0.313
Mof_O 	O 	0.5106	0.6452	0.3485	-0.393
Mof_O 	O 	0.3614	0.814	0.2714	-0.432
Mof_O 	O 	0.2458	0.556	0.1175	-0.518
Mof_O 	O 	0.4115	0.6634	0.0314	-0.594
Mof_O 	O 	0.215	0.4838	0.9526	-0.443
Mof_O 	O 	0.9609	0.6288	0.9218	-0.443
Mof_O 	O 	0.6612	0.0306	0.4232	-0.407
Mof_O 	O 	0.5935	0.1095	0.5532	-0.413
Mof_O 	O 	0.6036	0.9095	0.7001	-0.374
Mof_O 	O 	0.3864	0.0456	0.8184	-0.418
Mof_O 	O 	0.7092	0.7482	0.7975	-0.429
Mof_O 	O 	0.5009	0.893	0.9168	-0.458
Mof_C 	C 	0.9399	0.512	0.2948	0.05
Mof_H 	H 	0.838	0.4743	0.2942	0.027
Mof_C 	C 	0.0888	0.4426	0.3352	-0.102
Mof_H 	H 	0.0913	0.3558	0.3603	0.078
Mof_C 	C 	0.2337	0.5003	0.3386	0.033
Mof_H 	H 	0.3338	0.4557	0.3689	0.031
Mof_C 	C 	0.2326	0.6235	0.2978	-0.1
Mof_C 	C 	0.0855	0.6858	0.2532	0.066
Mof_C 	C 	0.379	0.6987	0.3057	0.327
Mof_C 	C 	0.9768	0.0372	0.1719	0.08
Mof_H 	H 	0.9041	0.1197	0.1906	0.013
Mof_C 	C 	0.0769	0.034	0.0967	-0.13
Mof_H 	H 	0.0763	0.1144	0.0637	0.056
Mof_C 	C 	0.1779	0.9125	0.07	0.09
Mof_H 	H 	0.2473	0.9093	0.0182	0.007
Mof_C 	C 	0.1797	0.7958	0.1174	-0.187
Mof_C 	C 	0.0812	0.8023	0.1941	0.126
Mof_C 	C 	0.2879	0.66	0.0879	0.511
Mof_C 	C 	0.05	0.5331	0.9638	0.272
Mof_C 	C 	0.5727	0.0412	0.4935	0.254
Mof_C 	C 	0.4895	0.9392	0.8416	0.264
Mof_C 	C 	0.6117	0.8573	0.7735	0.243
Mof_N 	N 	0.9385	0.6323	0.2565	-0.086
Mof_N 	N 	0.9824	0.9227	0.2187	-0.071
_end
