data_functionalizedCrystal
_audit_creation_method	'EQeq! by Chris Wilmer'
_symmetry_space_group_name_H-M	'P1'
_symmetry_Int_Tables_number	1
_symmetry_cell_setting	triclinic
loop_
_symmetry_equiv_pos_as_xyz
  x,y,z
_cell_length_a	8.494
_cell_length_b	12.987
_cell_length_c	15.187
_cell_angle_alpha	91.213
_cell_angle_beta	94.185
_cell_angle_gamma	108.525
loop_
_atom_site_label
_atom_site_type_symbol
_atom_site_fract_x
_atom_site_fract_y
_atom_site_fract_z
_atom_site_charge
Mof_C 	C 	0.938	0.7237	0.6418	0.095
Mof_H 	H 	0.971	0.6861	0.5978	-0.03
Mof_C 	C 	0.795	0.7678	0.739	0.009
Mof_H 	H 	0.7091	0.7654	0.7745	0.006
Mof_C 	C 	0.941	0.8518	0.741	-0.008
Mof_H 	H 	0.9727	0.9153	0.7767	0.03
Mof_C 	C 	0.194	0.8856	0.6597	0.11
Mof_C 	C 	0.235	0.995	0.667	-0.095
Mof_H 	H 	0.1534	0.0268	0.6778	0.062
Mof_C 	C 	0.401	0.062	0.659	-0.069
Mof_H 	H 	0.4342	0.136	0.6729	0.053
Mof_C 	C 	0.511	0.0153	0.6297	0.078
Mof_C 	C 	0.467	0.9042	0.6166	-0.055
Mof_H 	H 	0.5426	0.8714	0.5988	0.057
Mof_C 	C 	0.3	0.8406	0.6311	-0.113
Mof_H 	H 	0.2654	0.7657	0.62	0.088
Mof_C 	C 	0.731	0.1884	0.6114	0.108
Mof_H 	H 	0.6623	0.2311	0.6158	-0.022
Mof_C 	C 	0.94	0.143	0.586	0.013
Mof_H 	H 	0.0415	0.1438	0.5668	0.012
Mof_C 	C 	0.808	0.052	0.603	0.003
Mof_H 	H 	0.8107	0.9818	0.6072	0.03
Mof_C 	C 	0.452	0.5091	0.8201	0.104
Mof_H 	H 	0.492	0.5811	0.8415	-0.022
Mof_C 	C 	0.404	0.366	0.7391	-0.008
Mof_H 	H 	0.4052	0.3186	0.6926	0.015
Mof_C 	C 	0.317	0.336	0.8115	-0.002
Mof_H 	H 	0.248	0.2671	0.8228	0.024
Mof_C 	C 	0.28	0.4373	0.9436	0.093
Mof_C 	C 	0.191	0.3462	0.983	-0.081
Mof_H 	H 	0.1787	0.2778	0.9583	0.057
Mof_C 	C 	0.118	0.3561	0.0591	-0.08
Mof_H 	H 	0.0569	0.2938	0.0856	0.058
Mof_C 	C 	0.135	0.4546	0.0963	0.08
Mof_C 	C 	0.231	0.5499	0.059	-0.068
Mof_H 	H 	0.2435	0.6183	0.0842	0.057
Mof_C 	C 	0.306	0.5377	0.983	-0.079
Mof_H 	H 	0.3744	0.599	0.9583	0.061
Mof_C 	C 	0.106	0.543	0.2404	0.071
Mof_H 	H 	0.2069	0.5996	0.244	-0.019
Mof_C 	C 	0.866	0.4346	0.2727	0.005
Mof_H 	H 	0.7707	0.4049	0.302	0.015
Mof_C 	C 	0.9	0.3919	0.194	-0.005
Mof_H 	H 	0.8361	0.3288	0.162	0.033
Mof_N 	N 	0.7904	0.6876	0.6784	-0.272
Mof_N 	N 	0.03	0.822	0.6784	-0.14
Mof_N 	N 	0.6779	0.084	0.6136	-0.141
Mof_N 	N 	0.8923	0.2297	0.6025	-0.269
Mof_N 	N 	0.488	0.475	0.7438	-0.266
Mof_N 	N 	0.3529	0.4278	0.8635	-0.14
Mof_N 	N 	0.0538	0.4664	0.174	-0.135
Mof_N 	N 	0.9935	0.5265	0.3005	-0.269
Mof_O 	O 	0.8517	0.3994	0.4824	-0.497
Mof_O 	O 	0.6614	0.4532	0.577	-0.509
Mof_O 	O 	0.5665	0.3871	0.4189	-0.459
Mof_O 	O 	0.7817	0.5704	0.4528	-0.504
Mof_Zn	Zn	0.5961	0.55776	0.64106	1.208
Mof_Zn	Zn	0.9941	0.39041	0.58485	1.205
Mof_P 	P 	0.7141	0.4526	0.4838	0.517
Mof_C 	C 	0.062	0.2763	0.3582	0.095
Mof_H 	H 	0.029	0.3139	0.4022	-0.03
Mof_C 	C 	0.205	0.2322	0.261	0.009
Mof_H 	H 	0.2909	0.2346	0.2255	0.006
Mof_C 	C 	0.059	0.1482	0.259	-0.008
Mof_H 	H 	0.0273	0.0847	0.2233	0.03
Mof_C 	C 	0.806	0.1144	0.3403	0.11
Mof_C 	C 	0.765	0.005	0.333	-0.095
Mof_H 	H 	0.8466	0.9732	0.3222	0.062
Mof_C 	C 	0.599	0.938	0.341	-0.069
Mof_H 	H 	0.5658	0.864	0.3271	0.053
Mof_C 	C 	0.489	0.9847	0.3703	0.078
Mof_C 	C 	0.533	0.0958	0.3834	-0.055
Mof_H 	H 	0.4574	0.1286	0.4012	0.057
Mof_C 	C 	0.7	0.1594	0.3689	-0.113
Mof_H 	H 	0.7346	0.2343	0.38	0.088
Mof_C 	C 	0.269	0.8116	0.3886	0.108
Mof_H 	H 	0.3377	0.7689	0.3842	-0.022
Mof_C 	C 	0.06	0.857	0.414	0.013
Mof_H 	H 	0.9585	0.8562	0.4332	0.012
Mof_C 	C 	0.192	0.948	0.397	0.003
Mof_H 	H 	0.1893	0.0182	0.3928	0.03
Mof_C 	C 	0.548	0.4909	0.1799	0.104
Mof_H 	H 	0.508	0.4189	0.1585	-0.022
Mof_C 	C 	0.596	0.634	0.2609	-0.008
Mof_H 	H 	0.5948	0.6814	0.3074	0.015
Mof_C 	C 	0.683	0.664	0.1885	-0.002
Mof_H 	H 	0.752	0.7329	0.1772	0.024
Mof_C 	C 	0.72	0.5627	0.0564	0.093
Mof_C 	C 	0.809	0.6538	0.017	-0.081
Mof_H 	H 	0.8213	0.7222	0.0417	0.057
Mof_C 	C 	0.882	0.6439	0.9409	-0.08
Mof_H 	H 	0.9431	0.7062	0.9144	0.058
Mof_C 	C 	0.865	0.5454	0.9037	0.08
Mof_C 	C 	0.769	0.4501	0.941	-0.068
Mof_H 	H 	0.7565	0.3817	0.9158	0.057
Mof_C 	C 	0.694	0.4623	0.017	-0.079
Mof_H 	H 	0.6256	0.401	0.0417	0.061
Mof_C 	C 	0.894	0.457	0.7596	0.071
Mof_H 	H 	0.7931	0.4004	0.756	-0.019
Mof_C 	C 	0.134	0.5654	0.7273	0.005
Mof_H 	H 	0.2293	0.5951	0.698	0.015
Mof_C 	C 	0.1	0.6081	0.806	-0.005
Mof_H 	H 	0.1639	0.6712	0.838	0.033
Mof_N 	N 	0.2096	0.3124	0.3216	-0.272
Mof_N 	N 	0.97	0.178	0.3216	-0.14
Mof_N 	N 	0.3221	0.916	0.3864	-0.141
Mof_N 	N 	0.1077	0.7703	0.3975	-0.269
Mof_N 	N 	0.512	0.525	0.2562	-0.266
Mof_N 	N 	0.6471	0.5722	0.1365	-0.14
Mof_N 	N 	0.9462	0.5336	0.826	-0.135
Mof_N 	N 	0.0065	0.4735	0.6995	-0.269
Mof_O 	O 	0.1483	0.6006	0.5176	-0.497
Mof_O 	O 	0.3386	0.5468	0.423	-0.509
Mof_O 	O 	0.4335	0.6129	0.5811	-0.459
Mof_O 	O 	0.2183	0.4296	0.5472	-0.504
Mof_Zn	Zn	0.4039	0.44224	0.35894	1.208
Mof_Zn	Zn	0.0059	0.60959	0.41515	1.205
Mof_P 	P 	0.2859	0.5474	0.5162	0.517
_end
