data_functionalizedCrystal
_audit_creation_method	'EQeq! by Chris Wilmer'
_symmetry_space_group_name_H-M	'P1'
_symmetry_Int_Tables_number	1
_symmetry_cell_setting	triclinic
loop_
_symmetry_equiv_pos_as_xyz
  x,y,z
_cell_length_a	21.4393
_cell_length_b	21.4393
_cell_length_c	21.4393
_cell_angle_alpha	109.471
_cell_angle_beta	109.471
_cell_angle_gamma	109.471
loop_
_atom_site_label
_atom_site_type_symbol
_atom_site_fract_x
_atom_site_fract_y
_atom_site_fract_z
_atom_site_charge
Mof_Cd	Cd	-0	0	-0	0.352
Mof_Cd	Cd	0.5	0	0.5	0.37
Mof_Cd	Cd	-1.49864e-17	0.5	0.5	0.37
Mof_Cd	Cd	0.5	0.5	-0	0.369
Mof_H 	H 	0.9164	0.8404	0.998	0.005
Mof_H 	H 	0.8637	0.7826	0.0545	0.14
Mof_H 	H 	0.8944	0.9876	0.185	0.14
Mof_H 	H 	0.94	0.0328	0.1198	-0.02
Mof_H 	H 	0.8357	0.713	0.2369	0.025
Mof_H 	H 	0.8384	0.8853	0.2025	0.139
Mof_H 	H 	0.3424	0.9184	0.502	-0.009
Mof_H 	H 	0.2281	0.8092	0.4455	0.145
Mof_H 	H 	0.3026	0.7094	0.315	0.133
Mof_H 	H 	0.413	0.8202	0.3802	-0.009
Mof_H 	H 	0.9761	0.5988	0.2631	0.014
Mof_H 	H 	0.1828	0.6359	0.2975	0.138
Mof_H 	H 	0.1576	0.6596	0.576	-0.012
Mof_H 	H 	0.2719	0.7174	0.5811	0.145
Mof_H 	H 	0.1974	0.5124	0.4068	0.134
Mof_H 	H 	0.087	0.4672	0.4072	-0.011
Mof_H 	H 	0.5239	0.787	0.6227	0.025
Mof_H 	H 	0.3172	0.6147	0.4531	0.138
Mof_H 	H 	0.5836	0.5816	0.924	-0.012
Mof_H 	H 	0.6363	0.6908	0.9189	0.142
Mof_H 	H 	0.6056	0.7906	0.0932	0.132
Mof_H 	H 	0.56	0.6798	0.0928	-0.008
Mof_H 	H 	0.6643	0.9012	0.8773	0.024
Mof_H 	H 	0.6616	0.8641	0.0469	0.138
Mof_H 	H 	0.076	0.1576	0.1596	-0.01
Mof_H 	H 	0.0811	0.2719	0.2174	0.145
Mof_H 	H 	0.9068	0.1974	0.0124	0.127
Mof_H 	H 	0.9072	0.087	0.9672	0.004
Mof_H 	H 	0.1227	0.5239	0.287	0.015
Mof_H 	H 	0.9531	0.3172	0.1147	0.138
Mof_H 	H 	0.424	0.5836	0.0816	-0.015
Mof_H 	H 	0.4189	0.6363	0.1908	0.144
Mof_H 	H 	0.5932	0.6056	0.2906	0.134
Mof_H 	H 	0.5928	0.56	0.1798	-0.01
Mof_H 	H 	0.3773	0.6643	0.4012	0.024
Mof_H 	H 	0.5469	0.6616	0.3641	0.138
Mof_H 	H 	0.498	0.9164	0.3404	-0.01
Mof_H 	H 	0.5545	0.8637	0.2826	0.145
Mof_H 	H 	0.685	0.8944	0.4876	0.135
Mof_H 	H 	0.6198	0.94	0.5328	-0.007
Mof_H 	H 	0.7369	0.8357	0.213	0.025
Mof_H 	H 	0.7025	0.8384	0.3853	0.139
Mof_H 	H 	0.002	0.3424	0.4184	-0.026
Mof_H 	H 	0.9455	0.2281	0.3092	0.151
Mof_H 	H 	0.815	0.3026	0.2094	0.134
Mof_H 	H 	0.8802	0.413	0.3202	-0.01
Mof_H 	H 	0.7631	0.9761	0.0988	0.026
Mof_H 	H 	0.7975	0.1828	0.1359	0.137
Mof_H 	H 	0.9184	0.002	0.8424	-0.021
Mof_H 	H 	0.8092	0.9455	0.7281	0.152
Mof_H 	H 	0.7094	0.815	0.8026	0.135
Mof_H 	H 	0.8202	0.8802	0.913	-0.006
Mof_H 	H 	0.5988	0.7631	0.4761	0.025
Mof_H 	H 	0.6359	0.7975	0.6828	0.138
Mof_H 	H 	0.8404	0.498	0.4164	-0.012
Mof_H 	H 	0.7826	0.5545	0.3637	0.146
Mof_H 	H 	0.9876	0.685	0.3944	0.142
Mof_H 	H 	0.0328	0.6198	0.44	-0.023
Mof_H 	H 	0.713	0.7369	0.3357	0.025
Mof_H 	H 	0.8853	0.7025	0.3384	0.14
Mof_H 	H 	0.5816	0.424	0.0836	-0.014
Mof_H 	H 	0.6908	0.4189	0.1363	0.144
Mof_H 	H 	0.7906	0.5932	0.1056	0.134
Mof_H 	H 	0.6798	0.5928	0.06	-0.011
Mof_H 	H 	0.9012	0.3773	0.1643	0.013
Mof_H 	H 	0.8641	0.5469	0.1616	0.139
Mof_H 	H 	0.6596	0.076	0.6576	-0.011
Mof_H 	H 	0.7174	0.0811	0.7719	0.148
Mof_H 	H 	0.5124	0.9068	0.6974	0.136
Mof_H 	H 	0.4672	0.9072	0.587	-0.01
Mof_H 	H 	0.787	0.1227	0.0239	0.027
Mof_H 	H 	0.6147	0.9531	0.8172	0.139
Mof_H 	H 	0.0836	0.1596	0.002	-0.028
Mof_H 	H 	0.1363	0.2174	0.9455	0.149
Mof_H 	H 	0.1056	0.0124	0.815	0.126
Mof_H 	H 	0.06	0.9672	0.8802	0.006
Mof_H 	H 	0.1643	0.287	0.7631	0.024
Mof_H 	H 	0.1616	0.1147	0.7975	0.136
Mof_H 	H 	0.6576	0.0816	0.498	-0.014
Mof_H 	H 	0.7719	0.1908	0.5545	0.145
Mof_H 	H 	0.6974	0.2906	0.685	0.134
Mof_H 	H 	0.587	0.1798	0.6198	-0.009
Mof_H 	H 	0.0239	0.4012	0.7369	0.035
Mof_H 	H 	0.8172	0.3641	0.7025	0.138
Mof_H 	H 	0.8424	0.3404	0.424	-0.012
Mof_H 	H 	0.7281	0.2826	0.4189	0.144
Mof_H 	H 	0.8026	0.4876	0.5932	0.134
Mof_H 	H 	0.913	0.5328	0.5928	-0.007
Mof_H 	H 	0.4761	0.213	0.3773	0.024
Mof_H 	H 	0.6828	0.3853	0.5469	0.138
Mof_H 	H 	0.4164	0.4184	0.076	-0.011
Mof_H 	H 	0.3637	0.3092	0.0811	0.147
Mof_H 	H 	0.3944	0.2094	0.9068	0.136
Mof_H 	H 	0.44	0.3202	0.9072	-0.01
Mof_H 	H 	0.3357	0.0988	0.1227	0.027
Mof_H 	H 	0.3384	0.1359	0.9531	0.138
Mof_H 	H 	0.924	0.8424	0.8404	-0.011
Mof_H 	H 	0.9189	0.7281	0.7826	0.144
Mof_H 	H 	0.0932	0.8026	0.9876	0.14
Mof_H 	H 	0.0928	0.913	0.0328	-0.021
Mof_H 	H 	0.8773	0.4761	0.713	0.035
Mof_H 	H 	0.0469	0.6828	0.8853	0.137
Mof_H 	H 	0.576	0.4164	0.9184	-0.009
Mof_H 	H 	0.5811	0.3637	0.8092	0.146
Mof_H 	H 	0.4068	0.3944	0.7094	0.133
Mof_H 	H 	0.4072	0.44	0.8202	-0.009
Mof_H 	H 	0.6227	0.3357	0.5988	0.025
Mof_H 	H 	0.4531	0.3384	0.6359	0.138
Mof_H 	H 	0.502	0.0836	0.6596	-0.013
Mof_H 	H 	0.4455	0.1363	0.7174	0.144
Mof_H 	H 	0.315	0.1056	0.5124	0.132
Mof_H 	H 	0.3802	0.06	0.4672	-0.011
Mof_H 	H 	0.2631	0.1643	0.787	0.024
Mof_H 	H 	0.2975	0.1616	0.6147	0.137
Mof_H 	H 	0.998	0.6576	0.5816	0.002
Mof_H 	H 	0.0545	0.7719	0.6908	0.14
Mof_H 	H 	0.185	0.6974	0.7906	0.133
Mof_H 	H 	0.1198	0.587	0.6798	-0.009
Mof_H 	H 	0.2369	0.0239	0.9012	0.024
Mof_H 	H 	0.2025	0.8172	0.8641	0.139
Mof_H 	H 	0.0816	0.998	0.1576	0.003
Mof_H 	H 	0.1908	0.0545	0.2719	0.136
Mof_H 	H 	0.2906	0.185	0.1974	0.131
Mof_H 	H 	0.1798	0.1198	0.087	-0.01
Mof_H 	H 	0.4012	0.2369	0.5239	0.024
Mof_H 	H 	0.3641	0.2025	0.3172	0.137
Mof_H 	H 	0.1596	0.502	0.5836	-0.011
Mof_H 	H 	0.2174	0.4455	0.6363	0.143
Mof_H 	H 	0.0124	0.315	0.6056	0.125
Mof_H 	H 	0.9672	0.3802	0.56	0.005
Mof_H 	H 	0.287	0.2631	0.6643	0.024
Mof_H 	H 	0.1147	0.2975	0.6616	0.136
Mof_H 	H 	0.4184	0.576	0.9164	-0.009
Mof_H 	H 	0.3092	0.5811	0.8637	0.145
Mof_H 	H 	0.2094	0.4068	0.8944	0.134
Mof_H 	H 	0.3202	0.4072	0.94	-0.007
Mof_H 	H 	0.0988	0.6227	0.8357	0.036
Mof_H 	H 	0.1359	0.4531	0.8384	0.137
Mof_H 	H 	0.3404	0.924	0.3424	-0.013
Mof_H 	H 	0.2826	0.9189	0.2281	0.141
Mof_H 	H 	0.4876	0.0932	0.3026	0.13
Mof_H 	H 	0.5328	0.0928	0.413	-0.008
Mof_H 	H 	0.213	0.8773	0.9761	0.023
Mof_H 	H 	0.3853	0.0469	0.1828	0.136
Mof_C 	C 	0.9113	0.8706	0.0365	0.128
Mof_C 	C 	0.8797	0.8338	0.0695	-0.237
Mof_C 	C 	0.8726	0.8795	0.1275	0.234
Mof_C 	C 	0.8978	0.9556	0.146	-0.269
Mof_C 	C 	0.9254	0.9823	0.1071	0.176
Mof_C 	C 	0.8216	0.7853	0.1657	0.251
Mof_C 	C 	0.7915	0.7758	0.2181	-0.097
Mof_C 	C 	0.8054	0.7329	0.2467	0.034
Mof_C 	C 	0.3341	0.8748	0.4635	0.149
Mof_C 	C 	0.2643	0.8102	0.4305	-0.246
Mof_C 	C 	0.252	0.7451	0.3725	0.233
Mof_C 	C 	0.3096	0.7518	0.354	-0.26
Mof_C 	C 	0.3752	0.8183	0.3929	0.156
Mof_C 	C 	0.1196	0.6559	0.3343	0.26
Mof_C 	C 	0.0577	0.5734	0.2819	-0.13
Mof_C 	C 	0.9862	0.5587	0.2533	0.072
Mof_C 	C 	0.1659	0.6294	0.5407	0.15
Mof_C 	C 	0.2357	0.6662	0.5459	-0.247
Mof_C 	C 	0.248	0.6205	0.4931	0.234
Mof_C 	C 	0.1904	0.5444	0.4422	-0.261
Mof_C 	C 	0.1248	0.5177	0.4431	0.157
Mof_C 	C 	0.3804	0.7147	0.5363	0.25
Mof_C 	C 	0.4423	0.7242	0.5157	-0.097
Mof_C 	C 	0.5138	0.7671	0.5725	0.033
Mof_C 	C 	0.5887	0.6252	0.9593	0.157
Mof_C 	C 	0.6203	0.6898	0.9541	-0.234
Mof_C 	C 	0.6274	0.7549	0.0069	0.22
Mof_C 	C 	0.6022	0.7482	0.0578	-0.256
Mof_C 	C 	0.5746	0.6817	0.0569	0.151
Mof_C 	C 	0.6784	0.8441	0.9637	0.258
Mof_C 	C 	0.7085	0.9266	0.9843	-0.089
Mof_C 	C 	0.6946	0.9413	0.9275	0.039
Mof_C 	C 	0.0407	0.1659	0.1294	0.139
Mof_C 	C 	0.0459	0.2357	0.1662	-0.254
Mof_C 	C 	0.9931	0.248	0.1205	0.239
Mof_C 	C 	0.9422	0.1904	0.0444	-0.25
Mof_C 	C 	0.9431	0.1248	0.0177	0.135
Mof_C 	C 	0.0363	0.3804	0.2147	0.251
Mof_C 	C 	0.0157	0.4423	0.2242	-0.129
Mof_C 	C 	0.0725	0.5138	0.2671	0.061
Mof_C 	C 	0.4593	0.5887	0.1252	0.15
Mof_C 	C 	0.4541	0.6203	0.1898	-0.248
Mof_C 	C 	0.5069	0.6274	0.2549	0.233
Mof_C 	C 	0.5578	0.6022	0.2482	-0.261
Mof_C 	C 	0.5569	0.5746	0.1817	0.156
Mof_C 	C 	0.4637	0.6784	0.3441	0.25
Mof_C 	C 	0.4843	0.7085	0.4266	-0.098
Mof_C 	C 	0.4275	0.6946	0.4413	0.034
Mof_C 	C 	0.5365	0.9113	0.3706	0.151
Mof_C 	C 	0.5695	0.8797	0.3338	-0.246
Mof_C 	C 	0.6275	0.8726	0.3795	0.234
Mof_C 	C 	0.646	0.8978	0.4556	-0.26
Mof_C 	C 	0.6071	0.9254	0.4823	0.157
Mof_C 	C 	0.6657	0.8216	0.2853	0.251
Mof_C 	C 	0.7181	0.7915	0.2758	-0.097
Mof_C 	C 	0.7467	0.8054	0.2329	0.034
Mof_C 	C 	0.9635	0.3341	0.3748	0.173
Mof_C 	C 	0.9305	0.2643	0.3102	-0.258
Mof_C 	C 	0.8725	0.252	0.2451	0.238
Mof_C 	C 	0.854	0.3096	0.2518	-0.264
Mof_C 	C 	0.8929	0.3752	0.3183	0.16
Mof_C 	C 	0.8343	0.1196	0.1559	0.25
Mof_C 	C 	0.7819	0.0577	0.0734	-0.102
Mof_C 	C 	0.7533	0.9862	0.0587	0.033
Mof_C 	C 	0.8748	0.9635	0.8341	0.171
Mof_C 	C 	0.8102	0.9305	0.7643	-0.256
Mof_C 	C 	0.7451	0.8725	0.752	0.239
Mof_C 	C 	0.7518	0.854	0.8096	-0.263
Mof_C 	C 	0.8183	0.8929	0.8752	0.159
Mof_C 	C 	0.6559	0.8343	0.6196	0.251
Mof_C 	C 	0.5734	0.7819	0.5577	-0.097
Mof_C 	C 	0.5587	0.7533	0.4862	0.033
Mof_C 	C 	0.8706	0.5365	0.4113	0.153
Mof_C 	C 	0.8338	0.5695	0.3797	-0.251
Mof_C 	C 	0.8795	0.6275	0.3726	0.24
Mof_C 	C 	0.9556	0.646	0.3978	-0.274
Mof_C 	C 	0.9823	0.6071	0.4254	0.18
Mof_C 	C 	0.7853	0.6657	0.3216	0.251
Mof_C 	C 	0.7758	0.7181	0.2915	-0.097
Mof_C 	C 	0.7329	0.7467	0.3054	0.034
Mof_C 	C 	0.6252	0.4593	0.0887	0.149
Mof_C 	C 	0.6898	0.4541	0.1203	-0.248
Mof_C 	C 	0.7549	0.5069	0.1274	0.233
Mof_C 	C 	0.7482	0.5578	0.1022	-0.262
Mof_C 	C 	0.6817	0.5569	0.0746	0.156
Mof_C 	C 	0.8441	0.4637	0.1784	0.259
Mof_C 	C 	0.9266	0.4843	0.2085	-0.124
Mof_C 	C 	0.9413	0.4275	0.1946	0.07
Mof_C 	C 	0.6294	0.0407	0.6659	0.143
Mof_C 	C 	0.6662	0.0459	0.7357	-0.259
Mof_C 	C 	0.6205	0.9931	0.748	0.247
Mof_C 	C 	0.5444	0.9422	0.6904	-0.265
Mof_C 	C 	0.5177	0.9431	0.6248	0.161
Mof_C 	C 	0.7147	0.0363	0.8804	0.241
Mof_C 	C 	0.7242	0.0157	0.9423	-0.092
Mof_C 	C 	0.7671	0.0725	0.0138	0.019
Mof_C 	C 	0.0887	0.1294	0.9635	0.172
Mof_C 	C 	0.1203	0.1662	0.9305	-0.255
Mof_C 	C 	0.1274	0.1205	0.8725	0.231
Mof_C 	C 	0.1022	0.0444	0.854	-0.249
Mof_C 	C 	0.0746	0.0177	0.8929	0.132
Mof_C 	C 	0.1784	0.2147	0.8343	0.249
Mof_C 	C 	0.2085	0.2242	0.7819	-0.098
Mof_C 	C 	0.1946	0.2671	0.7533	0.033
Mof_C 	C 	0.6659	0.1252	0.5365	0.15
Mof_C 	C 	0.7357	0.1898	0.5695	-0.247
Mof_C 	C 	0.748	0.2549	0.6275	0.234
Mof_C 	C 	0.6904	0.2482	0.646	-0.261
Mof_C 	C 	0.6248	0.1817	0.6071	0.156
Mof_C 	C 	0.8804	0.3441	0.6657	0.241
Mof_C 	C 	0.9423	0.4266	0.7181	-0.065
Mof_C 	C 	0.0138	0.4413	0.7467	-0.004
Mof_C 	C 	0.8341	0.3706	0.4593	0.149
Mof_C 	C 	0.7643	0.3338	0.4541	-0.246
Mof_C 	C 	0.752	0.3795	0.5069	0.233
Mof_C 	C 	0.8096	0.4556	0.5578	-0.26
Mof_C 	C 	0.8752	0.4823	0.5569	0.156
Mof_C 	C 	0.6196	0.2853	0.4637	0.25
Mof_C 	C 	0.5577	0.2758	0.4843	-0.098
Mof_C 	C 	0.4862	0.2329	0.4275	0.034
Mof_C 	C 	0.4113	0.3748	0.0407	0.142
Mof_C 	C 	0.3797	0.3102	0.0459	-0.26
Mof_C 	C 	0.3726	0.2451	0.9931	0.247
Mof_C 	C 	0.3978	0.2518	0.9422	-0.265
Mof_C 	C 	0.4254	0.3183	0.9431	0.161
Mof_C 	C 	0.3216	0.1559	0.0363	0.242
Mof_C 	C 	0.2915	0.0734	0.0157	-0.103
Mof_C 	C 	0.3054	0.0587	0.0725	0.023
Mof_C 	C 	0.9593	0.8341	0.8706	0.157
Mof_C 	C 	0.9541	0.7643	0.8338	-0.239
Mof_C 	C 	0.0069	0.752	0.8795	0.228
Mof_C 	C 	0.0578	0.8096	0.9556	-0.27
Mof_C 	C 	0.0569	0.8752	0.9823	0.177
Mof_C 	C 	0.9637	0.6196	0.7853	0.249
Mof_C 	C 	0.9843	0.5577	0.7758	-0.067
Mof_C 	C 	0.9275	0.4862	0.7329	0.006
Mof_C 	C 	0.5407	0.4113	0.8748	0.15
Mof_C 	C 	0.5459	0.3797	0.8102	-0.246
Mof_C 	C 	0.4931	0.3726	0.7451	0.233
Mof_C 	C 	0.4422	0.3978	0.7518	-0.26
Mof_C 	C 	0.4431	0.4254	0.8183	0.156
Mof_C 	C 	0.5363	0.3216	0.6559	0.25
Mof_C 	C 	0.5157	0.2915	0.5734	-0.098
Mof_C 	C 	0.5725	0.3054	0.5587	0.034
Mof_C 	C 	0.4635	0.0887	0.6294	0.149
Mof_C 	C 	0.4305	0.1203	0.6662	-0.247
Mof_C 	C 	0.3725	0.1274	0.6205	0.232
Mof_C 	C 	0.354	0.1022	0.5444	-0.261
Mof_C 	C 	0.3929	0.0746	0.5177	0.155
Mof_C 	C 	0.3343	0.1784	0.7147	0.249
Mof_C 	C 	0.2819	0.2085	0.7242	-0.098
Mof_C 	C 	0.2533	0.1946	0.7671	0.033
Mof_C 	C 	0.0365	0.6659	0.6252	0.129
Mof_C 	C 	0.0695	0.7357	0.6898	-0.236
Mof_C 	C 	0.1275	0.748	0.7549	0.229
Mof_C 	C 	0.146	0.6904	0.7482	-0.257
Mof_C 	C 	0.1071	0.6248	0.6817	0.153
Mof_C 	C 	0.1657	0.8804	0.8441	0.249
Mof_C 	C 	0.2181	0.9423	0.9266	-0.089
Mof_C 	C 	0.2467	0.0138	0.9413	0.032
Mof_C 	C 	0.1252	0.0365	0.1659	0.122
Mof_C 	C 	0.1898	0.0695	0.2357	-0.233
Mof_C 	C 	0.2549	0.1275	0.248	0.226
Mof_C 	C 	0.2482	0.146	0.1904	-0.256
Mof_C 	C 	0.1817	0.1071	0.1248	0.152
Mof_C 	C 	0.3441	0.1657	0.3804	0.25
Mof_C 	C 	0.4266	0.2181	0.4423	-0.098
Mof_C 	C 	0.4413	0.2467	0.5138	0.034
Mof_C 	C 	0.1294	0.4635	0.5887	0.147
Mof_C 	C 	0.1662	0.4305	0.6203	-0.242
Mof_C 	C 	0.1205	0.3725	0.6274	0.226
Mof_C 	C 	0.0444	0.354	0.6022	-0.246
Mof_C 	C 	0.0177	0.3929	0.5746	0.132
Mof_C 	C 	0.2147	0.3343	0.6784	0.249
Mof_C 	C 	0.2242	0.2819	0.7085	-0.098
Mof_C 	C 	0.2671	0.2533	0.6946	0.033
Mof_C 	C 	0.3748	0.5407	0.9113	0.15
Mof_C 	C 	0.3102	0.5459	0.8797	-0.245
Mof_C 	C 	0.2451	0.4931	0.8726	0.233
Mof_C 	C 	0.2518	0.4422	0.8978	-0.259
Mof_C 	C 	0.3183	0.4431	0.9254	0.157
Mof_C 	C 	0.1559	0.5363	0.8216	0.241
Mof_C 	C 	0.0734	0.5157	0.7915	-0.071
Mof_C 	C 	0.0587	0.5725	0.8054	-0.002
Mof_C 	C 	0.3706	0.9593	0.3341	0.157
Mof_C 	C 	0.3338	0.9541	0.2643	-0.233
Mof_C 	C 	0.3795	0.0069	0.252	0.218
Mof_C 	C 	0.4556	0.0578	0.3096	-0.255
Mof_C 	C 	0.4823	0.0569	0.3752	0.15
Mof_C 	C 	0.2853	0.9637	0.1196	0.259
Mof_C 	C 	0.2758	0.9843	0.0577	-0.098
Mof_C 	C 	0.2329	0.9275	0.9862	0.045
Mof_N 	N 	0.935	0.9412	0.0526	-0.182
Mof_N 	N 	0.8425	0.8531	0.1694	-0.266
Mof_N 	N 	0.3886	0.8824	0.4474	-0.183
Mof_N 	N 	0.1837	0.6731	0.3306	-0.268
Mof_N 	N 	0.1114	0.5588	0.4938	-0.186
Mof_N 	N 	0.3163	0.6469	0.4894	-0.266
Mof_N 	N 	0.565	0.6176	0.0062	-0.191
Mof_N 	N 	0.6575	0.8269	0.0106	-0.27
Mof_N 	N 	0.9938	0.1114	0.0588	-0.175
Mof_N 	N 	0.9894	0.3163	0.1469	-0.264
Mof_N 	N 	0.5062	0.565	0.1176	-0.186
Mof_N 	N 	0.5106	0.6575	0.3269	-0.266
Mof_N 	N 	0.5526	0.935	0.4412	-0.183
Mof_N 	N 	0.6694	0.8425	0.3531	-0.266
Mof_N 	N 	0.9474	0.3886	0.3824	-0.188
Mof_N 	N 	0.8306	0.1837	0.1731	-0.267
Mof_N 	N 	0.8824	0.9474	0.8886	-0.183
Mof_N 	N 	0.6731	0.8306	0.6837	-0.267
Mof_N 	N 	0.9412	0.5526	0.435	-0.188
Mof_N 	N 	0.8531	0.6694	0.3425	-0.268
Mof_N 	N 	0.6176	0.5062	0.065	-0.187
Mof_N 	N 	0.8269	0.5106	0.1575	-0.269
Mof_N 	N 	0.5588	0.9938	0.6114	-0.179
Mof_N 	N 	0.6469	0.9894	0.8163	-0.262
Mof_N 	N 	0.065	0.0588	0.9474	-0.184
Mof_N 	N 	0.1575	0.1469	0.8306	-0.266
Mof_N 	N 	0.6114	0.1176	0.5526	-0.186
Mof_N 	N 	0.8163	0.3269	0.6694	-0.264
Mof_N 	N 	0.8886	0.4412	0.5062	-0.184
Mof_N 	N 	0.6837	0.3531	0.5106	-0.266
Mof_N 	N 	0.435	0.3824	0.9938	-0.179
Mof_N 	N 	0.3425	0.1731	0.9894	-0.262
Mof_N 	N 	0.0062	0.8886	0.9412	-0.189
Mof_N 	N 	0.0106	0.6837	0.8531	-0.269
Mof_N 	N 	0.4938	0.435	0.8824	-0.183
Mof_N 	N 	0.4894	0.3425	0.6731	-0.266
Mof_N 	N 	0.4474	0.065	0.5588	-0.187
Mof_N 	N 	0.3306	0.1575	0.6469	-0.266
Mof_N 	N 	0.0526	0.6114	0.6176	-0.183
Mof_N 	N 	0.1694	0.8163	0.8269	-0.265
Mof_N 	N 	0.1176	0.0526	0.1114	-0.183
Mof_N 	N 	0.3269	0.1694	0.3163	-0.265
Mof_N 	N 	0.0588	0.4474	0.565	-0.182
Mof_N 	N 	0.1469	0.3306	0.6575	-0.265
Mof_N 	N 	0.3824	0.4938	0.935	-0.183
Mof_N 	N 	0.1731	0.4894	0.8425	-0.264
Mof_N 	N 	0.4412	0.0062	0.3886	-0.191
Mof_N 	N 	0.3531	0.0106	0.1837	-0.27
Mof_O 	O 	0.8254	0.7347	0.1225	-0.25
Mof_O 	O 	0.1122	0.7029	0.3775	-0.254
Mof_O 	O 	0.3878	0.7653	0.5907	-0.248
Mof_O 	O 	0.6746	0.7971	0.9093	-0.248
Mof_O 	O 	0.0907	0.3878	0.2653	-0.252
Mof_O 	O 	0.4093	0.6746	0.2971	-0.25
Mof_O 	O 	0.6225	0.8254	0.2347	-0.249
Mof_O 	O 	0.8775	0.1122	0.2029	-0.251
Mof_O 	O 	0.7029	0.8775	0.6122	-0.247
Mof_O 	O 	0.7347	0.6225	0.3254	-0.249
Mof_O 	O 	0.7971	0.4093	0.1746	-0.253
Mof_O 	O 	0.7653	0.0907	0.8878	-0.245
Mof_O 	O 	0.1746	0.2653	0.8775	-0.248
Mof_O 	O 	0.8878	0.2971	0.6225	-0.244
Mof_O 	O 	0.6122	0.2347	0.4093	-0.25
Mof_O 	O 	0.3254	0.2029	0.0907	-0.249
Mof_O 	O 	0.9093	0.6122	0.7347	-0.246
Mof_O 	O 	0.5907	0.3254	0.7029	-0.248
Mof_O 	O 	0.3775	0.1746	0.7653	-0.249
Mof_O 	O 	0.1225	0.8878	0.7971	-0.246
Mof_O 	O 	0.2971	0.1225	0.3878	-0.251
Mof_O 	O 	0.2653	0.3775	0.6746	-0.249
Mof_O 	O 	0.2029	0.5907	0.8254	-0.245
Mof_O 	O 	0.2347	0.9093	0.1122	-0.253
_end
