data_functionalizedCrystal
_audit_creation_method	'EQeq! by Chris Wilmer'
_symmetry_space_group_name_H-M	'P1'
_symmetry_Int_Tables_number	1
_symmetry_cell_setting	triclinic
loop_
_symmetry_equiv_pos_as_xyz
  x,y,z
_cell_length_a	18.852
_cell_length_b	18.852
_cell_length_c	27.417
_cell_angle_alpha	90
_cell_angle_beta	90
_cell_angle_gamma	90
loop_
_atom_site_label
_atom_site_type_symbol
_atom_site_fract_x
_atom_site_fract_y
_atom_site_fract_z
_atom_site_charge
Mof_O 	O 	0.1882	0.7118	0.81439	-0.414
Mof_O 	O 	0.1322	0.7635	0.75122	-0.401
Mof_C 	C 	0.1346	0.736	0.7939	0.358
Mof_C 	C 	0.0641	0.7286	0.8188	-0.087
Mof_C 	C 	0.0629	0.7175	0.8687	-0.019
Mof_H 	H 	0.1063	0.713	0.8859	0.054
Mof_C 	C 	0.972	0.6563	0.9744	-0.03
Mof_C 	C 	0.9434	0.5917	0.9513	-0.075
Mof_C 	C 	0.9132	0.5284	0.9747	0.248
Mof_C 	C 	0.0285	0.7766	0.9706	0.01
Mof_C 	C 	0.0451	0.8429	0.9507	-0.059
Mof_C 	C 	0.0735	0.9007	0.9752	0.152
Mof_O 	O 	0.6882	0.2118	0.31439	-0.412
Mof_O 	O 	0.6322	0.2635	0.25122	-0.4
Mof_C 	C 	0.6346	0.236	0.2939	0.352
Mof_C 	C 	0.5641	0.2286	0.3188	-0.076
Mof_C 	C 	0.5629	0.2175	0.3687	-0.03
Mof_H 	H 	0.6063	0.213	0.3859	0.058
Mof_C 	C 	0.472	0.1563	0.4744	0.02
Mof_C 	C 	0.4434	0.0917	0.4513	-0.088
Mof_C 	C 	0.4132	0.0284	0.4747	0.317
Mof_C 	C 	0.5285	0.2766	0.4706	0.001
Mof_C 	C 	0.5451	0.3429	0.4507	-0.004
Mof_C 	C 	0.5735	0.4007	0.4752	0.002
Mof_O 	O 	0.8118	0.2882	0.81439	-0.416
Mof_O 	O 	0.8678	0.2365	0.75122	-0.406
Mof_C 	C 	0.8654	0.264	0.7939	0.359
Mof_C 	C 	0.9359	0.2714	0.8188	-0.101
Mof_C 	C 	0.9371	0.2825	0.8687	-0.032
Mof_H 	H 	0.8937	0.287	0.8859	0.055
Mof_C 	C 	0.028	0.3437	0.9744	-0.002
Mof_C 	C 	0.0566	0.4083	0.9513	-0.069
Mof_C 	C 	0.0868	0.4716	0.9747	0.246
Mof_C 	C 	0.9715	0.2234	0.9706	-0.068
Mof_C 	C 	0.9549	0.1571	0.9507	0.066
Mof_C 	C 	0.9265	0.0993	0.9752	-0.19
Mof_O 	O 	0.3118	0.7882	0.31439	-0.414
Mof_O 	O 	0.3678	0.7365	0.25122	-0.401
Mof_C 	C 	0.3654	0.764	0.2939	0.352
Mof_C 	C 	0.4359	0.7714	0.3188	-0.079
Mof_C 	C 	0.4371	0.7825	0.3687	-0.029
Mof_H 	H 	0.3937	0.787	0.3859	0.057
Mof_C 	C 	0.528	0.8437	0.4744	0.018
Mof_C 	C 	0.5566	0.9083	0.4513	-0.081
Mof_C 	C 	0.5868	0.9716	0.4747	0.268
Mof_C 	C 	0.4715	0.7234	0.4706	0.001
Mof_C 	C 	0.4549	0.6571	0.4507	-0.003
Mof_C 	C 	0.4265	0.5993	0.4752	-0.002
Mof_O 	O 	0.2882	0.1882	0.81439	-0.415
Mof_O 	O 	0.2365	0.1322	0.75122	-0.4
Mof_C 	C 	0.264	0.1346	0.7939	0.357
Mof_C 	C 	0.2714	0.0641	0.8188	-0.089
Mof_C 	C 	0.2825	0.0629	0.8687	-0.018
Mof_H 	H 	0.287	0.1063	0.8859	0.051
Mof_C 	C 	0.3437	0.972	0.9744	-0.032
Mof_C 	C 	0.4083	0.9434	0.9513	-0.075
Mof_C 	C 	0.4716	0.9132	0.9747	0.248
Mof_C 	C 	0.2234	0.0285	0.9706	-0.001
Mof_C 	C 	0.1571	0.0451	0.9507	-0.003
Mof_C 	C 	0.0993	0.0735	0.9752	-0.012
Mof_O 	O 	0.7882	0.6882	0.31439	-0.415
Mof_O 	O 	0.7365	0.6322	0.25122	-0.401
Mof_C 	C 	0.764	0.6346	0.2939	0.352
Mof_C 	C 	0.7714	0.5641	0.3188	-0.079
Mof_C 	C 	0.7825	0.5629	0.3687	-0.029
Mof_H 	H 	0.787	0.6063	0.3859	0.056
Mof_C 	C 	0.8437	0.472	0.4744	0.019
Mof_C 	C 	0.9083	0.4434	0.4513	-0.081
Mof_C 	C 	0.9716	0.4132	0.4747	0.27
Mof_C 	C 	0.7234	0.5285	0.4706	0.001
Mof_C 	C 	0.6571	0.5451	0.4507	-0.004
Mof_C 	C 	0.5993	0.5735	0.4752	-0
Mof_O 	O 	0.7118	0.8118	0.81439	-0.416
Mof_O 	O 	0.7635	0.8678	0.75122	-0.408
Mof_C 	C 	0.736	0.8654	0.7939	0.358
Mof_C 	C 	0.7286	0.9359	0.8188	-0.101
Mof_C 	C 	0.7175	0.9371	0.8687	-0.034
Mof_H 	H 	0.713	0.8937	0.8859	0.057
Mof_C 	C 	0.6563	0.028	0.9744	-0.001
Mof_C 	C 	0.5917	0.0566	0.9513	-0.07
Mof_C 	C 	0.5284	0.0868	0.9747	0.246
Mof_C 	C 	0.7766	0.9715	0.9706	-0.056
Mof_C 	C 	0.8429	0.9549	0.9507	0.011
Mof_C 	C 	0.9007	0.9265	0.9752	-0.026
Mof_O 	O 	0.2118	0.3118	0.31439	-0.411
Mof_O 	O 	0.2635	0.3678	0.25122	-0.4
Mof_C 	C 	0.236	0.3654	0.2939	0.352
Mof_C 	C 	0.2286	0.4359	0.3188	-0.076
Mof_C 	C 	0.2175	0.4371	0.3687	-0.03
Mof_H 	H 	0.213	0.3937	0.3859	0.059
Mof_C 	C 	0.1563	0.528	0.4744	0.02
Mof_C 	C 	0.0917	0.5566	0.4513	-0.088
Mof_C 	C 	0.0284	0.5868	0.4747	0.315
Mof_C 	C 	0.2766	0.4715	0.4706	0.001
Mof_C 	C 	0.3429	0.4549	0.4507	-0.003
Mof_C 	C 	0.4007	0.4265	0.4752	-0
Mof_O 	O 	0.8118	0.7118	0.18561	-0.412
Mof_O 	O 	0.8678	0.7635	0.24878	-0.407
Mof_C 	C 	0.8654	0.736	0.2061	0.354
Mof_C 	C 	0.9359	0.7286	0.1812	-0.089
Mof_C 	C 	0.9371	0.7175	0.1313	-0.053
Mof_H 	H 	0.8937	0.713	0.1141	0.067
Mof_C 	C 	0.028	0.6563	0.0256	0.059
Mof_C 	C 	0.0566	0.5917	0.0487	-0.08
Mof_C 	C 	0.0868	0.5284	0.0253	0.291
Mof_C 	C 	0.9715	0.7766	0.0294	-0.006
Mof_C 	C 	0.9549	0.8429	0.0493	-0.002
Mof_C 	C 	0.9265	0.9007	0.0248	0.011
Mof_O 	O 	0.3118	0.2118	0.68561	-0.411
Mof_O 	O 	0.3678	0.2635	0.74878	-0.402
Mof_C 	C 	0.3654	0.236	0.7061	0.352
Mof_C 	C 	0.4359	0.2286	0.6812	-0.077
Mof_C 	C 	0.4371	0.2175	0.6313	-0.029
Mof_H 	H 	0.3937	0.213	0.6141	0.059
Mof_C 	C 	0.528	0.1563	0.5256	0.02
Mof_C 	C 	0.5566	0.0917	0.5487	-0.088
Mof_C 	C 	0.5868	0.0284	0.5253	0.315
Mof_C 	C 	0.4715	0.2766	0.5294	0.001
Mof_C 	C 	0.4549	0.3429	0.5493	-0.003
Mof_C 	C 	0.4265	0.4007	0.5248	-0
Mof_O 	O 	0.1882	0.2882	0.18561	-0.411
Mof_O 	O 	0.1322	0.2365	0.24878	-0.399
Mof_C 	C 	0.1346	0.264	0.2061	0.353
Mof_C 	C 	0.0641	0.2714	0.1812	-0.077
Mof_C 	C 	0.0629	0.2825	0.1313	-0.037
Mof_H 	H 	0.1063	0.287	0.1141	0.062
Mof_C 	C 	0.972	0.3437	0.0256	0.027
Mof_C 	C 	0.9434	0.4083	0.0487	-0.085
Mof_C 	C 	0.9132	0.4716	0.0253	0.293
Mof_C 	C 	0.0285	0.2234	0.0294	0.049
Mof_C 	C 	0.0451	0.1571	0.0493	-0.017
Mof_C 	C 	0.0735	0.0993	0.0248	0.025
Mof_O 	O 	0.6882	0.7882	0.68561	-0.415
Mof_O 	O 	0.6322	0.7365	0.74878	-0.403
Mof_C 	C 	0.6346	0.764	0.7061	0.353
Mof_C 	C 	0.5641	0.7714	0.6812	-0.08
Mof_C 	C 	0.5629	0.7825	0.6313	-0.028
Mof_H 	H 	0.6063	0.787	0.6141	0.056
Mof_C 	C 	0.472	0.8437	0.5256	0.019
Mof_C 	C 	0.4434	0.9083	0.5487	-0.081
Mof_C 	C 	0.4132	0.9716	0.5253	0.271
Mof_C 	C 	0.5285	0.7234	0.5294	0.001
Mof_C 	C 	0.5451	0.6571	0.5493	-0.004
Mof_C 	C 	0.5735	0.5993	0.5248	-0
Mof_O 	O 	0.7118	0.1882	0.18561	-0.411
Mof_O 	O 	0.7635	0.1322	0.24878	-0.401
Mof_C 	C 	0.736	0.1346	0.2061	0.353
Mof_C 	C 	0.7286	0.0641	0.1812	-0.077
Mof_C 	C 	0.7175	0.0629	0.1313	-0.039
Mof_H 	H 	0.713	0.1063	0.1141	0.063
Mof_C 	C 	0.6563	0.972	0.0256	0.028
Mof_C 	C 	0.5917	0.9434	0.0487	-0.086
Mof_C 	C 	0.5284	0.9132	0.0253	0.293
Mof_C 	C 	0.7766	0.0285	0.0294	0.06
Mof_C 	C 	0.8429	0.0451	0.0493	-0.072
Mof_C 	C 	0.9007	0.0735	0.0248	0.189
Mof_O 	O 	0.2118	0.6882	0.68561	-0.412
Mof_O 	O 	0.2635	0.6322	0.74878	-0.402
Mof_C 	C 	0.236	0.6346	0.7061	0.353
Mof_C 	C 	0.2286	0.5641	0.6812	-0.077
Mof_C 	C 	0.2175	0.5629	0.6313	-0.029
Mof_H 	H 	0.213	0.6063	0.6141	0.058
Mof_C 	C 	0.1563	0.472	0.5256	0.02
Mof_C 	C 	0.0917	0.4434	0.5487	-0.088
Mof_C 	C 	0.0284	0.4132	0.5253	0.317
Mof_C 	C 	0.2766	0.5285	0.5294	0.001
Mof_C 	C 	0.3429	0.5451	0.5493	-0.004
Mof_C 	C 	0.4007	0.5735	0.5248	0.002
Mof_O 	O 	0.2882	0.8118	0.18561	-0.412
Mof_O 	O 	0.2365	0.8678	0.24878	-0.405
Mof_C 	C 	0.264	0.8654	0.2061	0.354
Mof_C 	C 	0.2714	0.9359	0.1812	-0.089
Mof_C 	C 	0.2825	0.9371	0.1313	-0.051
Mof_H 	H 	0.287	0.8937	0.1141	0.066
Mof_C 	C 	0.3437	0.028	0.0256	0.058
Mof_C 	C 	0.4083	0.0566	0.0487	-0.08
Mof_C 	C 	0.4716	0.0868	0.0253	0.291
Mof_C 	C 	0.2234	0.9715	0.0294	-0.018
Mof_C 	C 	0.1571	0.9549	0.0493	0.053
Mof_C 	C 	0.0993	0.9265	0.0248	-0.153
Mof_O 	O 	0.7882	0.3118	0.68561	-0.414
Mof_O 	O 	0.7365	0.3678	0.74878	-0.403
Mof_C 	C 	0.764	0.3654	0.7061	0.353
Mof_C 	C 	0.7714	0.4359	0.6812	-0.08
Mof_C 	C 	0.7825	0.4371	0.6313	-0.028
Mof_H 	H 	0.787	0.3937	0.6141	0.057
Mof_C 	C 	0.8437	0.528	0.5256	0.018
Mof_C 	C 	0.9083	0.5566	0.5487	-0.081
Mof_C 	C 	0.9716	0.5868	0.5253	0.269
Mof_C 	C 	0.7234	0.4715	0.5294	0.001
Mof_C 	C 	0.6571	0.4549	0.5493	-0.003
Mof_C 	C 	0.5993	0.4265	0.5248	-0.002
Mof_O 	O 	0.8118	0.2882	0.18561	-0.412
Mof_O 	O 	0.8678	0.2365	0.24878	-0.405
Mof_C 	C 	0.8654	0.264	0.2061	0.354
Mof_C 	C 	0.9359	0.2714	0.1812	-0.089
Mof_C 	C 	0.9371	0.2825	0.1313	-0.051
Mof_H 	H 	0.8937	0.287	0.1141	0.066
Mof_C 	C 	0.028	0.3437	0.0256	0.058
Mof_C 	C 	0.0566	0.4083	0.0487	-0.08
Mof_C 	C 	0.0868	0.4716	0.0253	0.291
Mof_C 	C 	0.9715	0.2234	0.0294	-0.018
Mof_C 	C 	0.9549	0.1571	0.0493	0.053
Mof_C 	C 	0.9265	0.0993	0.0248	-0.153
Mof_O 	O 	0.3118	0.7882	0.68561	-0.414
Mof_O 	O 	0.3678	0.7365	0.74878	-0.403
Mof_C 	C 	0.3654	0.764	0.7061	0.353
Mof_C 	C 	0.4359	0.7714	0.6812	-0.08
Mof_C 	C 	0.4371	0.7825	0.6313	-0.028
Mof_H 	H 	0.3937	0.787	0.6141	0.057
Mof_C 	C 	0.528	0.8437	0.5256	0.018
Mof_C 	C 	0.5566	0.9083	0.5487	-0.081
Mof_C 	C 	0.5868	0.9716	0.5253	0.269
Mof_C 	C 	0.4715	0.7234	0.5294	0.001
Mof_C 	C 	0.4549	0.6571	0.5493	-0.003
Mof_C 	C 	0.4265	0.5993	0.5248	-0.002
Mof_O 	O 	0.1882	0.7118	0.18561	-0.411
Mof_O 	O 	0.1322	0.7635	0.24878	-0.401
Mof_C 	C 	0.1346	0.736	0.2061	0.353
Mof_C 	C 	0.0641	0.7286	0.1812	-0.077
Mof_C 	C 	0.0629	0.7175	0.1313	-0.039
Mof_H 	H 	0.1063	0.713	0.1141	0.063
Mof_C 	C 	0.972	0.6563	0.0256	0.028
Mof_C 	C 	0.9434	0.5917	0.0487	-0.086
Mof_C 	C 	0.9132	0.5284	0.0253	0.293
Mof_C 	C 	0.0285	0.7766	0.0294	0.06
Mof_C 	C 	0.0451	0.8429	0.0493	-0.072
Mof_C 	C 	0.0735	0.9007	0.0248	0.189
Mof_O 	O 	0.6882	0.2118	0.68561	-0.412
Mof_O 	O 	0.6322	0.2635	0.74878	-0.402
Mof_C 	C 	0.6346	0.236	0.7061	0.353
Mof_C 	C 	0.5641	0.2286	0.6812	-0.077
Mof_C 	C 	0.5629	0.2175	0.6313	-0.029
Mof_H 	H 	0.6063	0.213	0.6141	0.058
Mof_C 	C 	0.472	0.1563	0.5256	0.02
Mof_C 	C 	0.4434	0.0917	0.5487	-0.088
Mof_C 	C 	0.4132	0.0284	0.5253	0.317
Mof_C 	C 	0.5285	0.2766	0.5294	0.001
Mof_C 	C 	0.5451	0.3429	0.5493	-0.004
Mof_C 	C 	0.5735	0.4007	0.5248	0.002
Mof_O 	O 	0.7118	0.8118	0.18561	-0.412
Mof_O 	O 	0.7635	0.8678	0.24878	-0.407
Mof_C 	C 	0.736	0.8654	0.2061	0.354
Mof_C 	C 	0.7286	0.9359	0.1812	-0.089
Mof_C 	C 	0.7175	0.9371	0.1313	-0.053
Mof_H 	H 	0.713	0.8937	0.1141	0.067
Mof_C 	C 	0.6563	0.028	0.0256	0.059
Mof_C 	C 	0.5917	0.0566	0.0487	-0.08
Mof_C 	C 	0.5284	0.0868	0.0253	0.291
Mof_C 	C 	0.7766	0.9715	0.0294	-0.006
Mof_C 	C 	0.8429	0.9549	0.0493	-0.002
Mof_C 	C 	0.9007	0.9265	0.0248	0.011
Mof_O 	O 	0.2118	0.3118	0.68561	-0.411
Mof_O 	O 	0.2635	0.3678	0.74878	-0.402
Mof_C 	C 	0.236	0.3654	0.7061	0.352
Mof_C 	C 	0.2286	0.4359	0.6812	-0.077
Mof_C 	C 	0.2175	0.4371	0.6313	-0.029
Mof_H 	H 	0.213	0.3937	0.6141	0.059
Mof_C 	C 	0.1563	0.528	0.5256	0.02
Mof_C 	C 	0.0917	0.5566	0.5487	-0.088
Mof_C 	C 	0.0284	0.5868	0.5253	0.315
Mof_C 	C 	0.2766	0.4715	0.5294	0.001
Mof_C 	C 	0.3429	0.4549	0.5493	-0.003
Mof_C 	C 	0.4007	0.4265	0.5248	-0
Mof_O 	O 	0.2882	0.1882	0.18561	-0.411
Mof_O 	O 	0.2365	0.1322	0.24878	-0.399
Mof_C 	C 	0.264	0.1346	0.2061	0.353
Mof_C 	C 	0.2714	0.0641	0.1812	-0.077
Mof_C 	C 	0.2825	0.0629	0.1313	-0.037
Mof_H 	H 	0.287	0.1063	0.1141	0.062
Mof_C 	C 	0.3437	0.972	0.0256	0.027
Mof_C 	C 	0.4083	0.9434	0.0487	-0.085
Mof_C 	C 	0.4716	0.9132	0.0253	0.293
Mof_C 	C 	0.2234	0.0285	0.0294	0.049
Mof_C 	C 	0.1571	0.0451	0.0493	-0.017
Mof_C 	C 	0.0993	0.0735	0.0248	0.025
Mof_O 	O 	0.7882	0.6882	0.68561	-0.415
Mof_O 	O 	0.7365	0.6322	0.74878	-0.403
Mof_C 	C 	0.764	0.6346	0.7061	0.353
Mof_C 	C 	0.7714	0.5641	0.6812	-0.08
Mof_C 	C 	0.7825	0.5629	0.6313	-0.028
Mof_H 	H 	0.787	0.6063	0.6141	0.056
Mof_C 	C 	0.8437	0.472	0.5256	0.019
Mof_C 	C 	0.9083	0.4434	0.5487	-0.081
Mof_C 	C 	0.9716	0.4132	0.5253	0.271
Mof_C 	C 	0.7234	0.5285	0.5294	0.001
Mof_C 	C 	0.6571	0.5451	0.5493	-0.004
Mof_C 	C 	0.5993	0.5735	0.5248	-0
Mof_O 	O 	0.1882	0.2882	0.81439	-0.415
Mof_O 	O 	0.1322	0.2365	0.75122	-0.4
Mof_C 	C 	0.1346	0.264	0.7939	0.357
Mof_C 	C 	0.0641	0.2714	0.8188	-0.089
Mof_C 	C 	0.0629	0.2825	0.8687	-0.018
Mof_H 	H 	0.1063	0.287	0.8859	0.051
Mof_C 	C 	0.972	0.3437	0.9744	-0.032
Mof_C 	C 	0.9434	0.4083	0.9513	-0.075
Mof_C 	C 	0.9132	0.4716	0.9747	0.248
Mof_C 	C 	0.0285	0.2234	0.9706	-0.001
Mof_C 	C 	0.0451	0.1571	0.9507	-0.003
Mof_C 	C 	0.0735	0.0993	0.9752	-0.012
Mof_O 	O 	0.6882	0.7882	0.31439	-0.415
Mof_O 	O 	0.6322	0.7365	0.25122	-0.401
Mof_C 	C 	0.6346	0.764	0.2939	0.352
Mof_C 	C 	0.5641	0.7714	0.3188	-0.079
Mof_C 	C 	0.5629	0.7825	0.3687	-0.029
Mof_H 	H 	0.6063	0.787	0.3859	0.056
Mof_C 	C 	0.472	0.8437	0.4744	0.019
Mof_C 	C 	0.4434	0.9083	0.4513	-0.081
Mof_C 	C 	0.4132	0.9716	0.4747	0.27
Mof_C 	C 	0.5285	0.7234	0.4706	0.001
Mof_C 	C 	0.5451	0.6571	0.4507	-0.004
Mof_C 	C 	0.5735	0.5993	0.4752	-0
Mof_O 	O 	0.8118	0.7118	0.81439	-0.416
Mof_O 	O 	0.8678	0.7635	0.75122	-0.408
Mof_C 	C 	0.8654	0.736	0.7939	0.358
Mof_C 	C 	0.9359	0.7286	0.8188	-0.101
Mof_C 	C 	0.9371	0.7175	0.8687	-0.034
Mof_H 	H 	0.8937	0.713	0.8859	0.057
Mof_C 	C 	0.028	0.6563	0.9744	-0.001
Mof_C 	C 	0.0566	0.5917	0.9513	-0.07
Mof_C 	C 	0.0868	0.5284	0.9747	0.246
Mof_C 	C 	0.9715	0.7766	0.9706	-0.056
Mof_C 	C 	0.9549	0.8429	0.9507	0.011
Mof_C 	C 	0.9265	0.9007	0.9752	-0.026
Mof_O 	O 	0.3118	0.2118	0.31439	-0.411
Mof_O 	O 	0.3678	0.2635	0.25122	-0.4
Mof_C 	C 	0.3654	0.236	0.2939	0.352
Mof_C 	C 	0.4359	0.2286	0.3188	-0.076
Mof_C 	C 	0.4371	0.2175	0.3687	-0.03
Mof_H 	H 	0.3937	0.213	0.3859	0.059
Mof_C 	C 	0.528	0.1563	0.4744	0.02
Mof_C 	C 	0.5566	0.0917	0.4513	-0.088
Mof_C 	C 	0.5868	0.0284	0.4747	0.315
Mof_C 	C 	0.4715	0.2766	0.4706	0.001
Mof_C 	C 	0.4549	0.3429	0.4507	-0.003
Mof_C 	C 	0.4265	0.4007	0.4752	-0
Mof_O 	O 	0.2882	0.8118	0.81439	-0.416
Mof_O 	O 	0.2365	0.8678	0.75122	-0.406
Mof_C 	C 	0.264	0.8654	0.7939	0.359
Mof_C 	C 	0.2714	0.9359	0.8188	-0.101
Mof_C 	C 	0.2825	0.9371	0.8687	-0.032
Mof_H 	H 	0.287	0.8937	0.8859	0.055
Mof_C 	C 	0.3437	0.028	0.9744	-0.002
Mof_C 	C 	0.4083	0.0566	0.9513	-0.069
Mof_C 	C 	0.4716	0.0868	0.9747	0.246
Mof_C 	C 	0.2234	0.9715	0.9706	-0.068
Mof_C 	C 	0.1571	0.9549	0.9507	0.066
Mof_C 	C 	0.0993	0.9265	0.9752	-0.19
Mof_O 	O 	0.7882	0.3118	0.31439	-0.414
Mof_O 	O 	0.7365	0.3678	0.25122	-0.401
Mof_C 	C 	0.764	0.3654	0.2939	0.352
Mof_C 	C 	0.7714	0.4359	0.3188	-0.079
Mof_C 	C 	0.7825	0.4371	0.3687	-0.029
Mof_H 	H 	0.787	0.3937	0.3859	0.057
Mof_C 	C 	0.8437	0.528	0.4744	0.018
Mof_C 	C 	0.9083	0.5566	0.4513	-0.081
Mof_C 	C 	0.9716	0.5868	0.4747	0.268
Mof_C 	C 	0.7234	0.4715	0.4706	0.001
Mof_C 	C 	0.6571	0.4549	0.4507	-0.003
Mof_C 	C 	0.5993	0.4265	0.4752	-0.002
Mof_O 	O 	0.7118	0.1882	0.81439	-0.415
Mof_O 	O 	0.7635	0.1322	0.75122	-0.402
Mof_C 	C 	0.736	0.1346	0.7939	0.357
Mof_C 	C 	0.7286	0.0641	0.8188	-0.088
Mof_C 	C 	0.7175	0.0629	0.8687	-0.02
Mof_H 	H 	0.713	0.1063	0.8859	0.053
Mof_C 	C 	0.6563	0.972	0.9744	-0.031
Mof_C 	C 	0.5917	0.9434	0.9513	-0.076
Mof_C 	C 	0.5284	0.9132	0.9747	0.248
Mof_C 	C 	0.7766	0.0285	0.9706	0.01
Mof_C 	C 	0.8429	0.0451	0.9507	-0.059
Mof_C 	C 	0.9007	0.0735	0.9752	0.152
Mof_O 	O 	0.2118	0.6882	0.31439	-0.412
Mof_O 	O 	0.2635	0.6322	0.25122	-0.4
Mof_C 	C 	0.236	0.6346	0.2939	0.352
Mof_C 	C 	0.2286	0.5641	0.3188	-0.076
Mof_C 	C 	0.2175	0.5629	0.3687	-0.03
Mof_H 	H 	0.213	0.6063	0.3859	0.058
Mof_C 	C 	0.1563	0.472	0.4744	0.02
Mof_C 	C 	0.0917	0.4434	0.4513	-0.088
Mof_C 	C 	0.0284	0.4132	0.4747	0.317
Mof_C 	C 	0.2766	0.5285	0.4706	0.001
Mof_C 	C 	0.3429	0.5451	0.4507	-0.004
Mof_C 	C 	0.4007	0.5735	0.4752	0.002
Mof_Cu	Cu	0.2824	0.7176	0.78688	0.907
Mof_Cu	Cu	0.7824	0.2176	0.28688	0.907
Mof_Cu	Cu	0.7176	0.2824	0.78688	0.907
Mof_Cu	Cu	0.2176	0.7824	0.28688	0.907
Mof_Cu	Cu	0.2824	0.2824	0.78688	0.907
Mof_Cu	Cu	0.7824	0.7824	0.28688	0.906
Mof_Cu	Cu	0.7176	0.7176	0.78688	0.907
Mof_Cu	Cu	0.2176	0.2176	0.28688	0.909
Mof_Cu	Cu	0.7176	0.7176	0.21312	0.909
Mof_Cu	Cu	0.2176	0.2176	0.71312	0.909
Mof_Cu	Cu	0.2824	0.2824	0.21312	0.908
Mof_Cu	Cu	0.7824	0.7824	0.71312	0.907
Mof_Cu	Cu	0.7176	0.2824	0.21312	0.908
Mof_Cu	Cu	0.2176	0.7824	0.71312	0.908
Mof_Cu	Cu	0.2824	0.7176	0.21312	0.908
Mof_Cu	Cu	0.7824	0.2176	0.71312	0.908
Mof_C 	C 	1.47021e-32	0.7354	0.7958	0.058
Mof_H 	H 	4.15399e-33	0.7453	0.7618	0.045
Mof_C 	C 	4.87267e-33	0.7128	0.8936	0.028
Mof_C 	C 	1.55457e-32	0.715	0.9505	0.015
Mof_C 	C 	0.5	0.2354	0.2958	0.028
Mof_H 	H 	0.5	0.2453	0.2618	0.051
Mof_C 	C 	0.5	0.2128	0.3936	0.028
Mof_C 	C 	0.5	0.215	0.4505	-0.029
Mof_C 	C 	1.47021e-32	0.2646	0.7958	0.059
Mof_H 	H 	4.15399e-33	0.2547	0.7618	0.046
Mof_C 	C 	4.87267e-33	0.2872	0.8936	0.022
Mof_C 	C 	5.18294e-33	0.285	0.9505	0.024
Mof_C 	C 	0.5	0.7646	0.2958	0.029
Mof_H 	H 	0.5	0.7547	0.2618	0.05
Mof_C 	C 	0.5	0.7872	0.3936	0.025
Mof_C 	C 	0.5	0.785	0.4505	-0.028
Mof_C 	C 	0.2646	1.03628e-32	0.7958	0.059
Mof_H 	H 	0.2547	1.03628e-32	0.7618	0.046
Mof_C 	C 	0.2872	1.03628e-32	0.8936	0.022
Mof_C 	C 	0.285	1.03628e-32	0.9505	0.024
Mof_C 	C 	0.7646	0.5	0.2958	0.029
Mof_H 	H 	0.7547	0.5	0.2618	0.05
Mof_C 	C 	0.7872	0.5	0.3936	0.025
Mof_C 	C 	0.785	0.5	0.4505	-0.028
Mof_C 	C 	0.7354	1.03628e-32	0.7958	0.058
Mof_H 	H 	0.7453	1.03628e-32	0.7618	0.045
Mof_C 	C 	0.7128	1.03628e-32	0.8936	0.028
Mof_C 	C 	0.715	1.03628e-32	0.9505	0.015
Mof_C 	C 	0.2354	0.5	0.2958	0.028
Mof_H 	H 	0.2453	0.5	0.2618	0.051
Mof_C 	C 	0.2128	0.5	0.3936	0.028
Mof_C 	C 	0.215	0.5	0.4505	-0.029
Mof_C 	C 	3.70416e-33	0.7354	0.2042	0.047
Mof_H 	H 	9.07094e-33	0.7453	0.2382	0.048
Mof_C 	C 	9.6476e-33	0.7128	0.1064	0.055
Mof_C 	C 	4.80363e-33	0.715	0.0495	-0.046
Mof_C 	C 	0.5	0.2354	0.7042	0.029
Mof_H 	H 	0.5	0.2453	0.7382	0.05
Mof_C 	C 	0.5	0.2128	0.6064	0.028
Mof_C 	C 	0.5	0.215	0.5495	-0.029
Mof_C 	C 	3.70416e-33	0.2646	0.2042	0.048
Mof_H 	H 	6.48025e-33	0.2547	0.2382	0.049
Mof_C 	C 	4.46622e-33	0.2872	0.1064	0.05
Mof_C 	C 	2.21293e-33	0.285	0.0495	-0.037
Mof_C 	C 	0.5	0.7646	0.7042	0.03
Mof_H 	H 	0.5	0.7547	0.7382	0.048
Mof_C 	C 	0.5	0.7872	0.6064	0.024
Mof_C 	C 	0.5	0.785	0.5495	-0.028
Mof_C 	C 	0.7354	2.59069e-33	0.2042	0.047
Mof_H 	H 	0.7453	2.59069e-33	0.2382	0.048
Mof_C 	C 	0.7128	0	0.1064	0.055
Mof_C 	C 	0.715	6.47673e-34	0.0495	-0.046
Mof_C 	C 	0.2354	0.5	0.7042	0.029
Mof_H 	H 	0.2453	0.5	0.7382	0.05
Mof_C 	C 	0.2128	0.5	0.6064	0.028
Mof_C 	C 	0.215	0.5	0.5495	-0.029
Mof_C 	C 	0.2646	2.59069e-33	0.2042	0.048
Mof_H 	H 	0.2547	2.59069e-33	0.2382	0.049
Mof_C 	C 	0.2872	0	0.1064	0.05
Mof_C 	C 	0.285	6.47673e-34	0.0495	-0.037
Mof_C 	C 	0.7646	0.5	0.7042	0.03
Mof_H 	H 	0.7547	0.5	0.7382	0.048
Mof_C 	C 	0.7872	0.5	0.6064	0.024
Mof_C 	C 	0.785	0.5	0.5495	-0.028
Mof_O 	O 	0.9328	0.5	-0	-0.764
Mof_O 	O 	0.4328	5.18138e-33	0.5	-0.825
Mof_O 	O 	0.0672	0.5	-0	-0.751
Mof_O 	O 	0.5672	5.18138e-33	0.5	-0.821
Mof_O 	O 	0.5	0.9328	-0	-0.764
Mof_O 	O 	1.30892e-32	0.4328	0.5	-0.825
Mof_O 	O 	0.5	0.0672	-0	-0.751
Mof_O 	O 	7.90781e-33	0.5672	0.5	-0.821
_end
