# CIF file generated by openbabel 3.1.0, see https://openbabel.org
data_I
_chemical_name_common 'image0'
_cell_length_a 9.8767
_cell_length_b 17.4389
_cell_length_c 12.0177
_cell_angle_alpha 90
_cell_angle_beta 97.458
_cell_angle_gamma 90
_space_group_name_H-M_alt 'P 1'
_space_group_name_Hall 'P 1'
loop_
    _symmetry_equiv_pos_as_xyz
    x,y,z
loop_
    _atom_site_label
    _atom_site_type_symbol
    _atom_site_fract_x
    _atom_site_fract_y
    _atom_site_fract_z
    _atom_site_occupancy
    C1       C        0.32310    0.08230    0.18360    1.000
    C2       C        0.83180    0.12250    0.21080    1.000
    C3       C        0.57750    0.10485    0.19880    1.000
    H1       H        0.58620    0.05770    0.16080    1.000
    C4       C        0.44960    0.12876    0.22170    1.000
    C5       C        0.69260    0.14930    0.23110    1.000
    C6       C        0.43630    0.19772    0.27760    1.000
    H2       H        0.34990    0.21400    0.29550    1.000
    C7       C        0.67900    0.21985    0.28390    1.000
    H3       H        0.75610    0.25190    0.30390    1.000
    C8       C        0.55110    0.24191    0.30650    1.000
    C9       C        0.61930    0.26460    0.55650    1.000
    H4       H        0.71880    0.26260    0.55850    1.000
    H5       H        0.57990    0.21490    0.53180    1.000
    H6       H        0.59660    0.27630    0.63160    1.000
    C10      C        0.56290    0.32505    0.47720    1.000
    C11      C        0.48880    0.38188    0.32050    1.000
    C12      C        0.44440    0.40343    0.20310    1.000
    C13      C        0.38360    0.37600    0.02060    1.000
    H7       H        0.37620    0.34090    0.95960    1.000
    C14      C        0.34190    0.45040    0.00070    1.000
    H8       H        0.30160    0.46640    0.92830    1.000
    C15      C        0.36070    0.50110    0.08980    1.000
    H9       H        0.33450    0.55320    0.07810    1.000
    N1       N        0.53530    0.31382    0.36380    1.000
    N2       N        0.53370    0.39649    0.50080    1.000
    N3       N        0.48660    0.43232    0.40090    1.000
    N4       N        0.43450    0.35075    0.12350    1.000
    N5       N        0.41520    0.47831    0.19200    1.000
    O1       O        0.32900    0.02858    0.11650    1.000
    O2       O        0.21570    0.10252    0.22140    1.000
    O3       O        0.84390    0.05596    0.17390    1.000
    O4       O        0.93210    0.16220    0.23510    1.000
    Co1      Co       0.45150    0.54625    0.34492    1.000
    C16      C        0.17690    0.58230    0.31640    1.000
    C17      C        0.66820    0.62250    0.28920    1.000
    C18      C        0.92250    0.60485    0.30120    1.000
    H10      H        0.91380    0.55770    0.33920    1.000
    C19      C        0.05040    0.62876    0.27830    1.000
    C20      C        0.80740    0.64930    0.26890    1.000
    C21      C        0.06370    0.69772    0.22240    1.000
    H11      H        0.15010    0.71400    0.20450    1.000
    C22      C        0.82100    0.71985    0.21610    1.000
    H12      H        0.74390    0.75190    0.19610    1.000
    C23      C        0.94890    0.74191    0.19350    1.000
    C24      C        0.88070    0.76460    0.94350    1.000
    H13      H        0.78120    0.76260    0.94150    1.000
    H14      H        0.92010    0.71490    0.96820    1.000
    H15      H        0.90340    0.77630    0.86840    1.000
    C25      C        0.93710    0.82505    0.02280    1.000
    C26      C        0.01120    0.88188    0.17950    1.000
    C27      C        0.05560    0.90343    0.29690    1.000
    C28      C        0.11640    0.87600    0.47940    1.000
    H16      H        0.12380    0.84090    0.54040    1.000
    C29      C        0.15810    0.95040    0.49930    1.000
    H17      H        0.19840    0.96640    0.57170    1.000
    C30      C        0.13930    0.00110    0.41020    1.000
    H18      H        0.16550    0.05320    0.42190    1.000
    N6       N        0.96470    0.81382    0.13620    1.000
    N7       N        0.96630    0.89649    0.99920    1.000
    N8       N        0.01340    0.93232    0.09910    1.000
    N9       N        0.06550    0.85075    0.37650    1.000
    N10      N        0.08480    0.97831    0.30800    1.000
    O5       O        0.17100    0.52858    0.38350    1.000
    O6       O        0.28430    0.60252    0.27860    1.000
    O7       O        0.65610    0.55596    0.32610    1.000
    O8       O        0.56790    0.66220    0.26490    1.000
    Co2      Co       0.04850    0.04625    0.15508    1.000
    C31      C        0.67690    0.91770    0.81640    1.000
    C32      C        0.16820    0.87750    0.78920    1.000
    C33      C        0.42250    0.89515    0.80120    1.000
    H19      H        0.41380    0.94230    0.83920    1.000
    C34      C        0.55040    0.87124    0.77830    1.000
    C35      C        0.30740    0.85070    0.76890    1.000
    C36      C        0.56370    0.80228    0.72240    1.000
    H20      H        0.65010    0.78600    0.70450    1.000
    C37      C        0.32100    0.78015    0.71610    1.000
    H21      H        0.24390    0.74810    0.69610    1.000
    C38      C        0.44890    0.75809    0.69350    1.000
    C39      C        0.38070    0.73540    0.44350    1.000
    H22      H        0.28120    0.73740    0.44150    1.000
    H23      H        0.42010    0.78510    0.46820    1.000
    H24      H        0.40340    0.72370    0.36840    1.000
    C40      C        0.43710    0.67495    0.52280    1.000
    C41      C        0.51120    0.61812    0.67950    1.000
    C42      C        0.55560    0.59657    0.79690    1.000
    C43      C        0.61640    0.62400    0.97940    1.000
    H25      H        0.62380    0.65910    0.04040    1.000
    C44      C        0.65810    0.54960    0.99930    1.000
    H26      H        0.69840    0.53360    0.07170    1.000
    C45      C        0.63930    0.49890    0.91020    1.000
    H27      H        0.66550    0.44680    0.92190    1.000
    N11      N        0.46470    0.68618    0.63620    1.000
    N12      N        0.46630    0.60351    0.49920    1.000
    N13      N        0.51340    0.56768    0.59910    1.000
    N14      N        0.56550    0.64925    0.87650    1.000
    N15      N        0.58480    0.52169    0.80800    1.000
    O9       O        0.67100    0.97142    0.88350    1.000
    O10      O        0.78430    0.89748    0.77860    1.000
    O11      O        0.15610    0.94404    0.82610    1.000
    O12      O        0.06790    0.83780    0.76490    1.000
    Co3      Co       0.54850    0.45375    0.65508    1.000
    C46      C        0.82310    0.41770    0.68360    1.000
    C47      C        0.33180    0.37750    0.71080    1.000
    C48      C        0.07750    0.39515    0.69880    1.000
    H28      H        0.08620    0.44230    0.66080    1.000
    C49      C        0.94960    0.37124    0.72170    1.000
    C50      C        0.19260    0.35070    0.73110    1.000
    C51      C        0.93630    0.30228    0.77760    1.000
    H29      H        0.84990    0.28600    0.79550    1.000
    C52      C        0.17900    0.28015    0.78390    1.000
    H30      H        0.25610    0.24810    0.80390    1.000
    C53      C        0.05110    0.25809    0.80650    1.000
    C54      C        0.11930    0.23540    0.05650    1.000
    H31      H        0.21880    0.23740    0.05850    1.000
    H32      H        0.07990    0.28510    0.03180    1.000
    H33      H        0.09660    0.22370    0.13160    1.000
    C55      C        0.06290    0.17495    0.97720    1.000
    C56      C        0.98880    0.11812    0.82050    1.000
    C57      C        0.94440    0.09657    0.70310    1.000
    C58      C        0.88360    0.12400    0.52060    1.000
    H34      H        0.87620    0.15910    0.45960    1.000
    C59      C        0.84190    0.04960    0.50070    1.000
    H35      H        0.80160    0.03360    0.42830    1.000
    C60      C        0.86070    0.99890    0.58980    1.000
    H36      H        0.83450    0.94680    0.57810    1.000
    N16      N        0.03530    0.18618    0.86380    1.000
    N17      N        0.03370    0.10351    0.00080    1.000
    N18      N        0.98660    0.06768    0.90090    1.000
    N19      N        0.93450    0.14925    0.62350    1.000
    N20      N        0.91520    0.02169    0.69200    1.000
    O13      O        0.82900    0.47142    0.61650    1.000
    O14      O        0.71570    0.39748    0.72140    1.000
    O15      O        0.34390    0.44404    0.67390    1.000
    O16      O        0.43210    0.33780    0.73510    1.000
    Co4      Co       0.95150    0.95375    0.84492    1.000
