# CIF file generated by openbabel 3.1.0, see https://openbabel.org
data_I
_chemical_name_common 'image0'
_cell_length_a 22.839
_cell_length_b 22.839
_cell_length_c 33.078
_cell_angle_alpha 90
_cell_angle_beta 90
_cell_angle_gamma 90
_space_group_name_H-M_alt 'P 1'
_space_group_name_Hall 'P 1'
loop_
    _symmetry_equiv_pos_as_xyz
    x,y,z
loop_
    _atom_site_label
    _atom_site_type_symbol
    _atom_site_fract_x
    _atom_site_fract_y
    _atom_site_fract_z
    _atom_site_occupancy
    Zn1      Zn       0.42361    0.04100    0.60736    1.000
    Na1      Na       0.46916    0.93363    0.55716    1.000
    Na2      Na       0.46039    0.89118    0.45720    1.000
    C1       C        0.80640    0.26930    0.34576    1.000
    C2       C        0.77400    0.27200    0.38337    1.000
    H1       H        0.73870    0.25240    0.38660    1.000
    C3       C        0.79830    0.30550    0.41451    1.000
    C4       C        0.85150    0.33380    0.40965    1.000
    H2       H        0.86670    0.35620    0.43070    1.000
    C5       C        0.88270    0.32910    0.37340    1.000
    C6       C        0.85890    0.29870    0.34205    1.000
    H3       H        0.87860    0.29780    0.31750    1.000
    C7       C        0.51093    0.08855    0.50124    1.000
    C8       C        0.55290    0.13090    0.49456    1.000
    H4       H        0.56410    0.15580    0.51540    1.000
    C9       C        0.57820    0.13640    0.45720    1.000
    C10      C        0.56090    0.09650    0.42599    1.000
    H5       H        0.57890    0.09840    0.40080    1.000
    C11      C        0.51774    0.05533    0.43282    1.000
    C12      C        0.49352    0.05167    0.47017    1.000
    H6       H        0.46460    0.02390    0.47500    1.000
    C13      C        0.50164    0.01575    0.39858    1.000
    C14      C        0.48526    0.08510    0.54400    1.000
    C15      C        0.93992    0.36190    0.36769    1.000
    C16      C        0.77900    0.23650    0.31096    1.000
    C17      C        0.72590    0.28110    0.46992    1.000
    C18      C        0.65560    0.21330    0.46964    1.000
    C19      C        0.67720    0.26130    0.52704    1.000
    C20      C        0.83030    0.39050    0.61522    1.000
    C21      C        0.76830    0.36540    0.61989    1.000
    C22      C        0.73280    0.38250    0.65429    1.000
    H7       H        0.74910    0.40530    0.67470    1.000
    C23      C        0.67830    0.36610    0.65670    1.000
    C24      C        0.74340    0.33150    0.59094    1.000
    H8       H        0.76570    0.32280    0.56820    1.000
    C25      C        0.65510    0.33180    0.62360    1.000
    H9       H        0.61500    0.32490    0.62330    1.000
    C26      C        0.68730    0.30880    0.59284    1.000
    C27      C        0.63460    0.38450    0.68840    1.000
    N1       N        0.77290    0.31020    0.45320    1.000
    H10      H        0.78940    0.33520    0.46890    1.000
    N2       N        0.71800    0.29340    0.50997    1.000
    N3       N        0.69840    0.24040    0.44836    1.000
    N4       N        0.62110    0.17950    0.44574    1.000
    H11      H        0.62550    0.18450    0.42020    1.000
    N5       N        0.64059    0.22360    0.50750    1.000
    N6       N        0.66290    0.27130    0.56602    1.000
    H12      H        0.63410    0.25080    0.57510    1.000
    O1       O        0.52638    0.02240    0.36580    1.000
    O2       O        0.53830    0.91672    0.50575    1.000
    O3       O        0.46519    0.97558    0.40521    1.000
    O4       O        0.49470    0.84140    0.58820    1.000
    H13      H        0.48830    0.81460    0.57220    1.000
    O5       O        0.49266    0.12199    0.56900    1.000
    O6       O        0.39180    0.93392    0.50197    1.000
    O7       O        0.45387    0.03953    0.55013    1.000
    O8       O        0.96894    0.35395    0.33573    1.000
    O9       O        0.95904    0.38938    0.39758    1.000
    O10      O        0.85295    0.41121    0.64639    1.000
    O11      O        0.85262    0.39018    0.58153    1.000
    O12      O        0.73700    0.20860    0.31607    1.000
    O13      O        0.80820    0.23900    0.28002    1.000
    O14      O        0.58750    0.36140    0.69406    1.000
    O15      O        0.66190    0.41410    0.71780    1.000
    Zn2      Zn       0.57639    0.95900    0.10736    1.000
    Na3      Na       0.53084    0.06637    0.05716    1.000
    Na4      Na       0.53961    0.10882    0.95720    1.000
    C28      C        0.19360    0.73070    0.84576    1.000
    C29      C        0.22600    0.72800    0.88337    1.000
    H14      H        0.26130    0.74760    0.88660    1.000
    C30      C        0.20170    0.69450    0.91451    1.000
    C31      C        0.14850    0.66620    0.90965    1.000
    H15      H        0.13330    0.64380    0.93070    1.000
    C32      C        0.11730    0.67090    0.87340    1.000
    C33      C        0.14110    0.70130    0.84205    1.000
    H16      H        0.12140    0.70220    0.81750    1.000
    C34      C        0.48907    0.91145    0.00124    1.000
    C35      C        0.44710    0.86910    0.99456    1.000
    H17      H        0.43590    0.84420    0.01540    1.000
    C36      C        0.42180    0.86360    0.95720    1.000
    C37      C        0.43910    0.90350    0.92599    1.000
    H18      H        0.42110    0.90160    0.90080    1.000
    C38      C        0.48226    0.94467    0.93282    1.000
    C39      C        0.50648    0.94833    0.97017    1.000
    H19      H        0.53540    0.97610    0.97500    1.000
    C40      C        0.49836    0.98425    0.89858    1.000
    C41      C        0.51474    0.91490    0.04400    1.000
    C42      C        0.06008    0.63810    0.86769    1.000
    C43      C        0.22100    0.76350    0.81096    1.000
    C44      C        0.27410    0.71890    0.96992    1.000
    C45      C        0.34440    0.78670    0.96964    1.000
    C46      C        0.32280    0.73870    0.02704    1.000
    C47      C        0.16970    0.60950    0.11522    1.000
    C48      C        0.23170    0.63460    0.11989    1.000
    C49      C        0.26720    0.61750    0.15429    1.000
    H20      H        0.25090    0.59470    0.17470    1.000
    C50      C        0.32170    0.63390    0.15670    1.000
    C51      C        0.25660    0.66850    0.09094    1.000
    H21      H        0.23430    0.67720    0.06820    1.000
    C52      C        0.34490    0.66820    0.12360    1.000
    H22      H        0.38500    0.67510    0.12330    1.000
    C53      C        0.31270    0.69120    0.09284    1.000
    C54      C        0.36540    0.61550    0.18840    1.000
    N7       N        0.22710    0.68980    0.95320    1.000
    H23      H        0.21060    0.66480    0.96890    1.000
    N8       N        0.28200    0.70660    0.00997    1.000
    N9       N        0.30160    0.75960    0.94836    1.000
    N10      N        0.37890    0.82050    0.94574    1.000
    H24      H        0.37450    0.81550    0.92020    1.000
    N11      N        0.35941    0.77640    0.00750    1.000
    N12      N        0.33710    0.72870    0.06602    1.000
    H25      H        0.36590    0.74920    0.07510    1.000
    O16      O        0.47362    0.97760    0.86580    1.000
    O17      O        0.46170    0.08328    0.00575    1.000
    O18      O        0.53481    0.02442    0.90521    1.000
    O19      O        0.50530    0.15860    0.08820    1.000
    H26      H        0.51170    0.18540    0.07220    1.000
    O20      O        0.50734    0.87801    0.06900    1.000
    O21      O        0.60820    0.06608    0.00197    1.000
    O22      O        0.54613    0.96047    0.05013    1.000
    O23      O        0.03106    0.64605    0.83573    1.000
    O24      O        0.04096    0.61062    0.89758    1.000
    O25      O        0.14705    0.58879    0.14639    1.000
    O26      O        0.14738    0.60982    0.08153    1.000
    O27      O        0.26300    0.79140    0.81607    1.000
    O28      O        0.19180    0.76100    0.78002    1.000
    O29      O        0.41250    0.63860    0.19406    1.000
    O30      O        0.33810    0.58590    0.21780    1.000
    Zn3      Zn       0.45900    0.92361    0.35736    1.000
    Na5      Na       0.56637    0.96916    0.30716    1.000
    Na6      Na       0.60882    0.96039    0.20720    1.000
    C55      C        0.23070    0.30640    0.09576    1.000
    C56      C        0.22800    0.27400    0.13337    1.000
    H27      H        0.24760    0.23870    0.13660    1.000
    C57      C        0.19450    0.29830    0.16451    1.000
    C58      C        0.16620    0.35150    0.15965    1.000
    H28      H        0.14380    0.36670    0.18070    1.000
    C59      C        0.17090    0.38270    0.12340    1.000
    C60      C        0.20130    0.35890    0.09205    1.000
    H29      H        0.20220    0.37860    0.06750    1.000
    C61      C        0.41145    0.01093    0.25124    1.000
    C62      C        0.36910    0.05290    0.24456    1.000
    H30      H        0.34420    0.06410    0.26540    1.000
    C63      C        0.36360    0.07820    0.20720    1.000
    C64      C        0.40350    0.06090    0.17599    1.000
    H31      H        0.40160    0.07890    0.15080    1.000
    C65      C        0.44467    0.01774    0.18282    1.000
    C66      C        0.44833    0.99352    0.22017    1.000
    H32      H        0.47610    0.96460    0.22500    1.000
    C67      C        0.48425    0.00164    0.14858    1.000
    C68      C        0.41490    0.98526    0.29400    1.000
    C69      C        0.13810    0.43992    0.11769    1.000
    C70      C        0.26350    0.27900    0.06096    1.000
    C71      C        0.21890    0.22590    0.21992    1.000
    C72      C        0.28670    0.15560    0.21964    1.000
    C73      C        0.23870    0.17720    0.27704    1.000
    C74      C        0.10950    0.33030    0.36522    1.000
    C75      C        0.13460    0.26830    0.36989    1.000
    C76      C        0.11750    0.23280    0.40429    1.000
    H33      H        0.09470    0.24910    0.42470    1.000
    C77      C        0.13390    0.17830    0.40670    1.000
    C78      C        0.16850    0.24340    0.34094    1.000
    H34      H        0.17720    0.26570    0.31820    1.000
    C79      C        0.16820    0.15510    0.37360    1.000
    H35      H        0.17510    0.11500    0.37330    1.000
    C80      C        0.19120    0.18730    0.34284    1.000
    C81      C        0.11550    0.13460    0.43840    1.000
    N13      N        0.18980    0.27290    0.20320    1.000
    H36      H        0.16480    0.28940    0.21890    1.000
    N14      N        0.20660    0.21800    0.25997    1.000
    N15      N        0.25960    0.19840    0.19836    1.000
    N16      N        0.32050    0.12110    0.19574    1.000
    H37      H        0.31550    0.12550    0.17020    1.000
    N17      N        0.27640    0.14059    0.25750    1.000
    N18      N        0.22870    0.16290    0.31602    1.000
    H38      H        0.24920    0.13410    0.32510    1.000
    O31      O        0.47760    0.02638    0.11580    1.000
    O32      O        0.58328    0.03830    0.25575    1.000
    O33      O        0.52442    0.96519    0.15521    1.000
    O34      O        0.65860    0.99470    0.33820    1.000
    H39      H        0.68540    0.98830    0.32220    1.000
    O35      O        0.37801    0.99266    0.31900    1.000
    O36      O        0.56608    0.89180    0.25197    1.000
    O37      O        0.46047    0.95387    0.30013    1.000
    O38      O        0.14605    0.46894    0.08573    1.000
    O39      O        0.11062    0.45904    0.14758    1.000
    O40      O        0.08879    0.35295    0.39639    1.000
    O41      O        0.10982    0.35262    0.33153    1.000
    O42      O        0.29140    0.23700    0.06607    1.000
    O43      O        0.26100    0.30820    0.03002    1.000
    O44      O        0.13860    0.08750    0.44406    1.000
    O45      O        0.08590    0.16190    0.46780    1.000
    Zn4      Zn       0.54100    0.07639    0.85736    1.000
    Na7      Na       0.43363    0.03084    0.80716    1.000
    Na8      Na       0.39118    0.03961    0.70720    1.000
    C82      C        0.76930    0.69360    0.59576    1.000
    C83      C        0.77200    0.72600    0.63337    1.000
    H40      H        0.75240    0.76130    0.63660    1.000
    C84      C        0.80550    0.70170    0.66451    1.000
    C85      C        0.83380    0.64850    0.65965    1.000
    H41      H        0.85620    0.63330    0.68070    1.000
    C86      C        0.82910    0.61730    0.62340    1.000
    C87      C        0.79870    0.64110    0.59205    1.000
    H42      H        0.79780    0.62140    0.56750    1.000
    C88      C        0.58855    0.98907    0.75124    1.000
    C89      C        0.63090    0.94710    0.74456    1.000
    H43      H        0.65580    0.93590    0.76540    1.000
    C90      C        0.63640    0.92180    0.70720    1.000
    C91      C        0.59650    0.93910    0.67599    1.000
    H44      H        0.59840    0.92110    0.65080    1.000
    C92      C        0.55533    0.98226    0.68282    1.000
    C93      C        0.55167    0.00648    0.72017    1.000
    H45      H        0.52390    0.03540    0.72500    1.000
    C94      C        0.51575    0.99836    0.64858    1.000
    C95      C        0.58510    0.01474    0.79400    1.000
    C96      C        0.86190    0.56008    0.61769    1.000
    C97      C        0.73650    0.72100    0.56096    1.000
    C98      C        0.78110    0.77410    0.71992    1.000
    C99      C        0.71330    0.84440    0.71964    1.000
    C100     C        0.76130    0.82280    0.77704    1.000
    C101     C        0.89050    0.66970    0.86522    1.000
    C102     C        0.86540    0.73170    0.86989    1.000
    C103     C        0.88250    0.76720    0.90429    1.000
    H46      H        0.90530    0.75090    0.92470    1.000
    C104     C        0.86610    0.82170    0.90670    1.000
    C105     C        0.83150    0.75660    0.84094    1.000
    H47      H        0.82280    0.73430    0.81820    1.000
    C106     C        0.83180    0.84490    0.87360    1.000
    H48      H        0.82490    0.88500    0.87330    1.000
    C107     C        0.80880    0.81270    0.84284    1.000
    C108     C        0.88450    0.86540    0.93840    1.000
    N19      N        0.81020    0.72710    0.70320    1.000
    H49      H        0.83520    0.71060    0.71890    1.000
    N20      N        0.79340    0.78200    0.75997    1.000
    N21      N        0.74040    0.80160    0.69836    1.000
    N22      N        0.67950    0.87890    0.69574    1.000
    H50      H        0.68450    0.87450    0.67020    1.000
    N23      N        0.72360    0.85941    0.75750    1.000
    N24      N        0.77130    0.83710    0.81602    1.000
    H51      H        0.75080    0.86590    0.82510    1.000
    O46      O        0.52240    0.97362    0.61580    1.000
    O47      O        0.41672    0.96170    0.75575    1.000
    O48      O        0.47558    0.03481    0.65521    1.000
    O49      O        0.34140    0.00530    0.83820    1.000
    H52      H        0.31460    0.01170    0.82220    1.000
    O50      O        0.62199    0.00734    0.81900    1.000
    O51      O        0.43392    0.10820    0.75197    1.000
    O52      O        0.53953    0.04613    0.80013    1.000
    O53      O        0.85395    0.53106    0.58573    1.000
    O54      O        0.88938    0.54096    0.64758    1.000
    O55      O        0.91121    0.64705    0.89639    1.000
    O56      O        0.89018    0.64738    0.83153    1.000
    O57      O        0.70860    0.76300    0.56607    1.000
    O58      O        0.73900    0.69180    0.53002    1.000
    O59      O        0.86140    0.91250    0.94406    1.000
    O60      O        0.91410    0.83810    0.96780    1.000
    Zn5      Zn       0.07639    0.54100    0.14264    1.000
    Na9      Na       0.03084    0.43363    0.19284    1.000
    Na10     Na       0.03961    0.39118    0.29280    1.000
    C109     C        0.69360    0.76930    0.40424    1.000
    C110     C        0.72600    0.77200    0.36663    1.000
    H53      H        0.76130    0.75240    0.36340    1.000
    C111     C        0.70170    0.80550    0.33549    1.000
    C112     C        0.64850    0.83380    0.34035    1.000
    H54      H        0.63330    0.85620    0.31930    1.000
    C113     C        0.61730    0.82910    0.37660    1.000
    C114     C        0.64110    0.79870    0.40795    1.000
    H55      H        0.62140    0.79780    0.43250    1.000
    C115     C        0.98907    0.58855    0.24876    1.000
    C116     C        0.94710    0.63090    0.25544    1.000
    H56      H        0.93590    0.65580    0.23460    1.000
    C117     C        0.92180    0.63640    0.29280    1.000
    C118     C        0.93910    0.59650    0.32401    1.000
    H57      H        0.92110    0.59840    0.34920    1.000
    C119     C        0.98226    0.55533    0.31718    1.000
    C120     C        0.00648    0.55167    0.27983    1.000
    H58      H        0.03540    0.52390    0.27500    1.000
    C121     C        0.99836    0.51575    0.35142    1.000
    C122     C        0.01474    0.58510    0.20600    1.000
    C123     C        0.56008    0.86190    0.38231    1.000
    C124     C        0.72100    0.73650    0.43904    1.000
    C125     C        0.77410    0.78110    0.28008    1.000
    C126     C        0.84440    0.71330    0.28036    1.000
    C127     C        0.82280    0.76130    0.22296    1.000
    C128     C        0.66970    0.89050    0.13478    1.000
    C129     C        0.73170    0.86540    0.13011    1.000
    C130     C        0.76720    0.88250    0.09571    1.000
    H59      H        0.75090    0.90530    0.07530    1.000
    C131     C        0.82170    0.86610    0.09330    1.000
    C132     C        0.75660    0.83150    0.15906    1.000
    H60      H        0.73430    0.82280    0.18180    1.000
    C133     C        0.84490    0.83180    0.12640    1.000
    H61      H        0.88500    0.82490    0.12670    1.000
    C134     C        0.81270    0.80880    0.15716    1.000
    C135     C        0.86540    0.88450    0.06160    1.000
    N25      N        0.72710    0.81020    0.29680    1.000
    H62      H        0.71060    0.83520    0.28110    1.000
    N26      N        0.78200    0.79340    0.24003    1.000
    N27      N        0.80160    0.74040    0.30164    1.000
    N28      N        0.87890    0.67950    0.30426    1.000
    H63      H        0.87450    0.68450    0.32980    1.000
    N29      N        0.85941    0.72360    0.24250    1.000
    N30      N        0.83710    0.77130    0.18398    1.000
    H64      H        0.86590    0.75080    0.17490    1.000
    O61      O        0.97362    0.52240    0.38420    1.000
    O62      O        0.96170    0.41672    0.24425    1.000
    O63      O        0.03481    0.47558    0.34479    1.000
    O64      O        0.00530    0.34140    0.16180    1.000
    H65      H        0.01170    0.31460    0.17780    1.000
    O65      O        0.00734    0.62199    0.18100    1.000
    O66      O        0.10820    0.43392    0.24803    1.000
    O67      O        0.04613    0.53953    0.19987    1.000
    O68      O        0.53106    0.85395    0.41427    1.000
    O69      O        0.54096    0.88938    0.35242    1.000
    O70      O        0.64705    0.91121    0.10361    1.000
    O71      O        0.64738    0.89018    0.16847    1.000
    O72      O        0.76300    0.70860    0.43393    1.000
    O73      O        0.69180    0.73900    0.46998    1.000
    O74      O        0.91250    0.86140    0.05594    1.000
    O75      O        0.83810    0.91410    0.03220    1.000
    Zn6      Zn       0.92361    0.45900    0.64264    1.000
    Na11     Na       0.96916    0.56637    0.69284    1.000
    Na12     Na       0.96039    0.60882    0.79280    1.000
    C136     C        0.30640    0.23070    0.90424    1.000
    C137     C        0.27400    0.22800    0.86663    1.000
    H66      H        0.23870    0.24760    0.86340    1.000
    C138     C        0.29830    0.19450    0.83549    1.000
    C139     C        0.35150    0.16620    0.84035    1.000
    H67      H        0.36670    0.14380    0.81930    1.000
    C140     C        0.38270    0.17090    0.87660    1.000
    C141     C        0.35890    0.20130    0.90795    1.000
    H68      H        0.37860    0.20220    0.93250    1.000
    C142     C        0.01093    0.41145    0.74876    1.000
    C143     C        0.05290    0.36910    0.75544    1.000
    H69      H        0.06410    0.34420    0.73460    1.000
    C144     C        0.07820    0.36360    0.79280    1.000
    C145     C        0.06090    0.40350    0.82401    1.000
    H70      H        0.07890    0.40160    0.84920    1.000
    C146     C        0.01774    0.44467    0.81718    1.000
    C147     C        0.99352    0.44833    0.77983    1.000
    H71      H        0.96460    0.47610    0.77500    1.000
    C148     C        0.00164    0.48425    0.85142    1.000
    C149     C        0.98526    0.41490    0.70600    1.000
    C150     C        0.43992    0.13810    0.88231    1.000
    C151     C        0.27900    0.26350    0.93904    1.000
    C152     C        0.22590    0.21890    0.78008    1.000
    C153     C        0.15560    0.28670    0.78036    1.000
    C154     C        0.17720    0.23870    0.72296    1.000
    C155     C        0.33030    0.10950    0.63478    1.000
    C156     C        0.26830    0.13460    0.63011    1.000
    C157     C        0.23280    0.11750    0.59571    1.000
    H72      H        0.24910    0.09470    0.57530    1.000
    C158     C        0.17830    0.13390    0.59330    1.000
    C159     C        0.24340    0.16850    0.65906    1.000
    H73      H        0.26570    0.17720    0.68180    1.000
    C160     C        0.15510    0.16820    0.62640    1.000
    H74      H        0.11500    0.17510    0.62670    1.000
    C161     C        0.18730    0.19120    0.65716    1.000
    C162     C        0.13460    0.11550    0.56160    1.000
    N31      N        0.27290    0.18980    0.79680    1.000
    H75      H        0.28940    0.16480    0.78110    1.000
    N32      N        0.21800    0.20660    0.74003    1.000
    N33      N        0.19840    0.25960    0.80164    1.000
    N34      N        0.12110    0.32050    0.80426    1.000
    H76      H        0.12550    0.31550    0.82980    1.000
    N35      N        0.14059    0.27640    0.74250    1.000
    N36      N        0.16290    0.22870    0.68398    1.000
    H77      H        0.13410    0.24920    0.67490    1.000
    O76      O        0.02638    0.47760    0.88420    1.000
    O77      O        0.03830    0.58328    0.74425    1.000
    O78      O        0.96519    0.52442    0.84479    1.000
    O79      O        0.99470    0.65860    0.66180    1.000
    H78      H        0.98830    0.68540    0.67780    1.000
    O80      O        0.99266    0.37801    0.68100    1.000
    O81      O        0.89180    0.56608    0.74803    1.000
    O82      O        0.95387    0.46047    0.69987    1.000
    O83      O        0.46894    0.14605    0.91427    1.000
    O84      O        0.45904    0.11062    0.85242    1.000
    O85      O        0.35295    0.08879    0.60361    1.000
    O86      O        0.35262    0.10982    0.66847    1.000
    O87      O        0.23700    0.29140    0.93393    1.000
    O88      O        0.30820    0.26100    0.96998    1.000
    O89      O        0.08750    0.13860    0.55594    1.000
    O90      O        0.16190    0.08590    0.53220    1.000
    Zn7      Zn       0.04100    0.42361    0.39264    1.000
    Na13     Na       0.93363    0.46916    0.44284    1.000
    Na14     Na       0.89118    0.46039    0.54280    1.000
    C163     C        0.26930    0.80640    0.65424    1.000
    C164     C        0.27200    0.77400    0.61663    1.000
    H79      H        0.25240    0.73870    0.61340    1.000
    C165     C        0.30550    0.79830    0.58549    1.000
    C166     C        0.33380    0.85150    0.59035    1.000
    H80      H        0.35620    0.86670    0.56930    1.000
    C167     C        0.32910    0.88270    0.62660    1.000
    C168     C        0.29870    0.85890    0.65795    1.000
    H81      H        0.29780    0.87860    0.68250    1.000
    C169     C        0.08855    0.51093    0.49876    1.000
    C170     C        0.13090    0.55290    0.50544    1.000
    H82      H        0.15580    0.56410    0.48460    1.000
    C171     C        0.13640    0.57820    0.54280    1.000
    C172     C        0.09650    0.56090    0.57401    1.000
    H83      H        0.09840    0.57890    0.59920    1.000
    C173     C        0.05533    0.51774    0.56718    1.000
    C174     C        0.05167    0.49352    0.52983    1.000
    H84      H        0.02390    0.46460    0.52500    1.000
    C175     C        0.01575    0.50164    0.60142    1.000
    C176     C        0.08510    0.48526    0.45600    1.000
    C177     C        0.36190    0.93992    0.63231    1.000
    C178     C        0.23650    0.77900    0.68904    1.000
    C179     C        0.28110    0.72590    0.53008    1.000
    C180     C        0.21330    0.65560    0.53036    1.000
    C181     C        0.26130    0.67720    0.47296    1.000
    C182     C        0.39050    0.83030    0.38478    1.000
    C183     C        0.36540    0.76830    0.38011    1.000
    C184     C        0.38250    0.73280    0.34571    1.000
    H85      H        0.40530    0.74910    0.32530    1.000
    C185     C        0.36610    0.67830    0.34330    1.000
    C186     C        0.33150    0.74340    0.40906    1.000
    H86      H        0.32280    0.76570    0.43180    1.000
    C187     C        0.33180    0.65510    0.37640    1.000
    H87      H        0.32490    0.61500    0.37670    1.000
    C188     C        0.30880    0.68730    0.40716    1.000
    C189     C        0.38450    0.63460    0.31160    1.000
    N37      N        0.31020    0.77290    0.54680    1.000
    H88      H        0.33520    0.78940    0.53110    1.000
    N38      N        0.29340    0.71800    0.49003    1.000
    N39      N        0.24040    0.69840    0.55164    1.000
    N40      N        0.17950    0.62110    0.55426    1.000
    H89      H        0.18450    0.62550    0.57980    1.000
    N41      N        0.22360    0.64059    0.49250    1.000
    N42      N        0.27130    0.66290    0.43398    1.000
    H90      H        0.25080    0.63410    0.42490    1.000
    O91      O        0.02240    0.52638    0.63420    1.000
    O92      O        0.91672    0.53830    0.49425    1.000
    O93      O        0.97558    0.46519    0.59479    1.000
    O94      O        0.84140    0.49470    0.41180    1.000
    H91      H        0.81460    0.48830    0.42780    1.000
    O95      O        0.12199    0.49266    0.43100    1.000
    O96      O        0.93392    0.39180    0.49803    1.000
    O97      O        0.03953    0.45387    0.44987    1.000
    O98      O        0.35395    0.96894    0.66427    1.000
    O99      O        0.38938    0.95904    0.60242    1.000
    O100     O        0.41121    0.85295    0.35361    1.000
    O101     O        0.39018    0.85262    0.41847    1.000
    O102     O        0.20860    0.73700    0.68393    1.000
    O103     O        0.23900    0.80820    0.71998    1.000
    O104     O        0.36140    0.58750    0.30594    1.000
    O105     O        0.41410    0.66190    0.28220    1.000
    Zn8      Zn       0.95900    0.57639    0.89264    1.000
    Na15     Na       0.06637    0.53084    0.94284    1.000
    Na16     Na       0.10882    0.53961    0.04280    1.000
    C190     C        0.73070    0.19360    0.15424    1.000
    C191     C        0.72800    0.22600    0.11663    1.000
    H92      H        0.74760    0.26130    0.11340    1.000
    C192     C        0.69450    0.20170    0.08549    1.000
    C193     C        0.66620    0.14850    0.09035    1.000
    H93      H        0.64380    0.13330    0.06930    1.000
    C194     C        0.67090    0.11730    0.12660    1.000
    C195     C        0.70130    0.14110    0.15795    1.000
    H94      H        0.70220    0.12140    0.18250    1.000
    C196     C        0.91145    0.48907    0.99876    1.000
    C197     C        0.86910    0.44710    0.00544    1.000
    H95      H        0.84420    0.43590    0.98460    1.000
    C198     C        0.86360    0.42180    0.04280    1.000
    C199     C        0.90350    0.43910    0.07401    1.000
    H96      H        0.90160    0.42110    0.09920    1.000
    C200     C        0.94467    0.48226    0.06718    1.000
    C201     C        0.94833    0.50648    0.02983    1.000
    H97      H        0.97610    0.53540    0.02500    1.000
    C202     C        0.98425    0.49836    0.10142    1.000
    C203     C        0.91490    0.51474    0.95600    1.000
    C204     C        0.63810    0.06008    0.13231    1.000
    C205     C        0.76350    0.22100    0.18904    1.000
    C206     C        0.71890    0.27410    0.03008    1.000
    C207     C        0.78670    0.34440    0.03036    1.000
    C208     C        0.73870    0.32280    0.97296    1.000
    C209     C        0.60950    0.16970    0.88478    1.000
    C210     C        0.63460    0.23170    0.88011    1.000
    C211     C        0.61750    0.26720    0.84571    1.000
    H98      H        0.59470    0.25090    0.82530    1.000
    C212     C        0.63390    0.32170    0.84330    1.000
    C213     C        0.66850    0.25660    0.90906    1.000
    H99      H        0.67720    0.23430    0.93180    1.000
    C214     C        0.66820    0.34490    0.87640    1.000
    H100     H        0.67510    0.38500    0.87670    1.000
    C215     C        0.69120    0.31270    0.90716    1.000
    C216     C        0.61550    0.36540    0.81160    1.000
    N43      N        0.68980    0.22710    0.04680    1.000
    H101     H        0.66480    0.21060    0.03110    1.000
    N44      N        0.70660    0.28200    0.99003    1.000
    N45      N        0.75960    0.30160    0.05164    1.000
    N46      N        0.82050    0.37890    0.05426    1.000
    H102     H        0.81550    0.37450    0.07980    1.000
    N47      N        0.77640    0.35941    0.99250    1.000
    N48      N        0.72870    0.33710    0.93398    1.000
    H103     H        0.74920    0.36590    0.92490    1.000
    O106     O        0.97760    0.47362    0.13420    1.000
    O107     O        0.08328    0.46170    0.99425    1.000
    O108     O        0.02442    0.53481    0.09479    1.000
    O109     O        0.15860    0.50530    0.91180    1.000
    H104     H        0.18540    0.51170    0.92780    1.000
    O110     O        0.87801    0.50734    0.93100    1.000
    O111     O        0.06608    0.60820    0.99803    1.000
    O112     O        0.96047    0.54613    0.94987    1.000
    O113     O        0.64605    0.03106    0.16427    1.000
    O114     O        0.61062    0.04096    0.10242    1.000
    O115     O        0.58879    0.14705    0.85361    1.000
    O116     O        0.60982    0.14738    0.91847    1.000
    O117     O        0.79140    0.26300    0.18393    1.000
    O118     O        0.76100    0.19180    0.21998    1.000
    O119     O        0.63860    0.41250    0.80594    1.000
    O120     O        0.58590    0.33810    0.78220    1.000
