# CIF file generated by openbabel 3.1.0, see https://openbabel.org
data_I
_chemical_name_common 'image0'
_cell_length_a 32.749
_cell_length_b 32.749
_cell_length_c 32.749
_cell_angle_alpha 90
_cell_angle_beta 90
_cell_angle_gamma 90
_space_group_name_H-M_alt 'P 1'
_space_group_name_Hall 'P 1'
loop_
    _symmetry_equiv_pos_as_xyz
    x,y,z
loop_
    _atom_site_label
    _atom_site_type_symbol
    _atom_site_fract_x
    _atom_site_fract_y
    _atom_site_fract_z
    _atom_site_occupancy
    Au1      Au       0.34797    0.99657    0.52165    1.000
    Au2      Au       0.41875    0.06230    0.57131    1.000
    Ag1      Ag       0.33264    0.08223    0.54810    1.000
    Ag2      Ag       0.42204    0.00949    0.47605    1.000
    Ag3      Ag       0.40430    0.98768    0.61674    1.000
    Cu1      Cu       0.38951    0.13320    0.44933    1.000
    Cu2      Cu       0.28245    0.02532    0.64517    1.000
    Cl1      Cl       0.28240    0.13580    0.54990    1.000
    S1       S        0.35836    0.05291    0.48036    1.000
    S2       S        0.34673    0.94207    0.56534    1.000
    S3       S        0.36326    0.05341    0.61381    1.000
    S4       S        0.47224    0.06138    0.52600    1.000
    O1       O        0.39180    0.10810    0.39900    1.000
    O2       O        0.35230    0.07630    0.35160    1.000
    O3       O        0.38990    0.15250    0.50540    1.000
    O4       O        0.42880    0.17100    0.55750    1.000
    O5       O        0.26580    0.02900    0.59080    1.000
    O6       O        0.23810    0.99140    0.53810    1.000
    O7       O        0.30960    0.01880    0.69790    1.000
    O8       O        0.34380    0.05920    0.74300    1.000
    N1       N        0.32960    0.12960    0.44300    1.000
    N2       N        0.44910    0.12380    0.45740    1.000
    N3       N        0.28800    0.96650    0.63600    1.000
    N4       N        0.28840    0.08610    0.65320    1.000
    C1       C        0.35860    0.09400    0.38650    1.000
    C2       C        0.32080    0.09430    0.41560    1.000
    C3       C        0.31720    0.05540    0.44050    1.000
    C4       C        0.27520    0.05440    0.46260    1.000
    C5       C        0.32050    0.01600    0.41350    1.000
    C6       C        0.42440    0.15430    0.52270    1.000
    C7       C        0.46310    0.14030    0.49790    1.000
    C8       C        0.49400    0.11250    0.51910    1.000
    C9       C        0.53050    0.10830    0.49000    1.000
    C10      C        0.50630    0.13120    0.56080    1.000
    C11      C        0.25750    0.99550    0.57240    1.000
    C12      C        0.26940    0.95490    0.59500    1.000
    C13      C        0.29400    0.92300    0.57200    1.000
    C14      C        0.29730    0.88500    0.60080    1.000
    C15      C        0.27570    0.91130    0.52950    1.000
    C16      C        0.32410    0.05280    0.70960    1.000
    C17      C        0.32670    0.08880    0.67800    1.000
    C18      C        0.36550    0.09500    0.65270    1.000
    C19      C        0.36720    0.13630    0.62990    1.000
    C20      C        0.40500    0.09120    0.67820    1.000
    Au3      Au       0.47835    0.84797    0.50343    1.000
    Au4      Au       0.42869    0.91875    0.43770    1.000
    Ag4      Ag       0.45190    0.83264    0.41777    1.000
    Ag5      Ag       0.52395    0.92204    0.49051    1.000
    Ag6      Ag       0.38326    0.90430    0.51232    1.000
    Cu3      Cu       0.55067    0.88951    0.36680    1.000
    Cu4      Cu       0.35483    0.78245    0.47468    1.000
    Cl2      Cl       0.45010    0.78240    0.36420    1.000
    S5       S        0.51964    0.85836    0.44709    1.000
    S6       S        0.43466    0.84673    0.55793    1.000
    S7       S        0.38619    0.86326    0.44659    1.000
    S8       S        0.47400    0.97224    0.43862    1.000
    O9       O        0.60100    0.89180    0.39190    1.000
    O10      O        0.64840    0.85230    0.42370    1.000
    O11      O        0.49460    0.88990    0.34750    1.000
    O12      O        0.44250    0.92880    0.32900    1.000
    O13      O        0.40920    0.76580    0.47100    1.000
    O14      O        0.46190    0.73810    0.50860    1.000
    O15      O        0.30210    0.80960    0.48120    1.000
    O16      O        0.25700    0.84380    0.44080    1.000
    N5       N        0.55700    0.82960    0.37040    1.000
    N6       N        0.54260    0.94910    0.37620    1.000
    N7       N        0.36400    0.78800    0.53350    1.000
    N8       N        0.34680    0.78840    0.41390    1.000
    C21      C        0.61350    0.85860    0.40600    1.000
    C22      C        0.58440    0.82080    0.40570    1.000
    C23      C        0.55950    0.81720    0.44460    1.000
    C24      C        0.53740    0.77520    0.44560    1.000
    C25      C        0.58650    0.82050    0.48400    1.000
    C26      C        0.47730    0.92440    0.34570    1.000
    C27      C        0.50210    0.96310    0.35970    1.000
    C28      C        0.48090    0.99400    0.38750    1.000
    C29      C        0.51000    0.03050    0.39170    1.000
    C30      C        0.43920    0.00630    0.36880    1.000
    C31      C        0.42760    0.75750    0.50450    1.000
    C32      C        0.40500    0.76940    0.54510    1.000
    C33      C        0.42800    0.79400    0.57700    1.000
    C34      C        0.39920    0.79730    0.61500    1.000
    C35      C        0.47050    0.77570    0.58870    1.000
    C36      C        0.29040    0.82410    0.44720    1.000
    C37      C        0.32200    0.82670    0.41120    1.000
    C38      C        0.34730    0.86550    0.40500    1.000
    C39      C        0.37010    0.86720    0.36370    1.000
    C40      C        0.32180    0.90500    0.40880    1.000
    Au5      Au       0.49657    0.97835    0.65203    1.000
    Au6      Au       0.56230    0.92869    0.58125    1.000
    Ag7      Ag       0.58223    0.95190    0.66736    1.000
    Ag8      Ag       0.50949    0.02395    0.57796    1.000
    Ag9      Ag       0.48768    0.88326    0.59570    1.000
    Cu5      Cu       0.63320    0.05067    0.61049    1.000
    Cu6      Cu       0.52532    0.85483    0.71755    1.000
    Cl3      Cl       0.63580    0.95010    0.71760    1.000
    S9       S        0.55291    0.01964    0.64164    1.000
    S10      S        0.44207    0.93466    0.65327    1.000
    S11      S        0.55341    0.88619    0.63674    1.000
    S12      S        0.56138    0.97400    0.52776    1.000
    O17      O        0.60810    0.10100    0.60820    1.000
    O18      O        0.57630    0.14840    0.64770    1.000
    O19      O        0.65250    0.99460    0.61010    1.000
    O20      O        0.67100    0.94250    0.57120    1.000
    O21      O        0.52900    0.90920    0.73420    1.000
    O22      O        0.49140    0.96190    0.76190    1.000
    O23      O        0.51880    0.80210    0.69040    1.000
    O24      O        0.55920    0.75700    0.65620    1.000
    N9       N        0.62960    0.05700    0.67040    1.000
    N10      N        0.62380    0.04260    0.55090    1.000
    N11      N        0.46650    0.86400    0.71200    1.000
    N12      N        0.58610    0.84680    0.71160    1.000
    C41      C        0.59400    0.11350    0.64140    1.000
    C42      C        0.59430    0.08440    0.67920    1.000
    C43      C        0.55540    0.05950    0.68280    1.000
    C44      C        0.55440    0.03740    0.72480    1.000
    C45      C        0.51600    0.08650    0.67950    1.000
    C46      C        0.65430    0.97730    0.57560    1.000
    C47      C        0.64030    0.00210    0.53690    1.000
    C48      C        0.61250    0.98090    0.50600    1.000
    C49      C        0.60830    0.01000    0.46950    1.000
    C50      C        0.63120    0.93920    0.49370    1.000
    C51      C        0.49550    0.92760    0.74250    1.000
    C52      C        0.45490    0.90500    0.73060    1.000
    C53      C        0.42300    0.92800    0.70600    1.000
    C54      C        0.38500    0.89920    0.70270    1.000
    C55      C        0.41130    0.97050    0.72430    1.000
    C56      C        0.55280    0.79040    0.67590    1.000
    C57      C        0.58880    0.82200    0.67330    1.000
    C58      C        0.59500    0.84730    0.63450    1.000
    C59      C        0.63630    0.87010    0.63280    1.000
    C60      C        0.59120    0.82180    0.59500    1.000
    Au7      Au       0.15203    0.00343    0.02165    1.000
    Au8      Au       0.08125    0.93770    0.07131    1.000
    Ag10     Ag       0.16736    0.91777    0.04810    1.000
    Ag11     Ag       0.07796    0.99051    0.97605    1.000
    Ag12     Ag       0.09570    0.01232    0.11674    1.000
    Cu7      Cu       0.11049    0.86680    0.94933    1.000
    Cu8      Cu       0.21755    0.97468    0.14517    1.000
    Cl4      Cl       0.21760    0.86420    0.04990    1.000
    S13      S        0.14164    0.94709    0.98036    1.000
    S14      S        0.15327    0.05793    0.06534    1.000
    S15      S        0.13674    0.94659    0.11381    1.000
    S16      S        0.02776    0.93862    0.02600    1.000
    O25      O        0.10820    0.89190    0.89900    1.000
    O26      O        0.14770    0.92370    0.85160    1.000
    O27      O        0.11010    0.84750    0.00540    1.000
    O28      O        0.07120    0.82900    0.05750    1.000
    O29      O        0.23420    0.97100    0.09080    1.000
    O30      O        0.26190    0.00860    0.03810    1.000
    O31      O        0.19040    0.98120    0.19790    1.000
    O32      O        0.15620    0.94080    0.24300    1.000
    N13      N        0.17040    0.87040    0.94300    1.000
    N14      N        0.05090    0.87620    0.95740    1.000
    N15      N        0.21200    0.03350    0.13600    1.000
    N16      N        0.21160    0.91390    0.15320    1.000
    C61      C        0.14140    0.90600    0.88650    1.000
    C62      C        0.17920    0.90570    0.91560    1.000
    C63      C        0.18280    0.94460    0.94050    1.000
    C64      C        0.22480    0.94560    0.96260    1.000
    C65      C        0.17950    0.98400    0.91350    1.000
    C66      C        0.07560    0.84570    0.02270    1.000
    C67      C        0.03690    0.85970    0.99790    1.000
    C68      C        0.00600    0.88750    0.01910    1.000
    C69      C        0.96950    0.89170    0.99000    1.000
    C70      C        0.99370    0.86880    0.06080    1.000
    C71      C        0.24250    0.00450    0.07240    1.000
    C72      C        0.23060    0.04510    0.09500    1.000
    C73      C        0.20600    0.07700    0.07200    1.000
    C74      C        0.20270    0.11500    0.10080    1.000
    C75      C        0.22430    0.08870    0.02950    1.000
    C76      C        0.17590    0.94720    0.20960    1.000
    C77      C        0.17330    0.91120    0.17800    1.000
    C78      C        0.13450    0.90500    0.15270    1.000
    C79      C        0.13280    0.86370    0.12990    1.000
    C80      C        0.09500    0.90880    0.17820    1.000
    Au9      Au       0.02165    0.15203    0.00343    1.000
    Au10     Au       0.07131    0.08125    0.93770    1.000
    Ag13     Ag       0.04810    0.16736    0.91777    1.000
    Ag14     Ag       0.97605    0.07796    0.99051    1.000
    Ag15     Ag       0.11674    0.09570    0.01232    1.000
    Cu9      Cu       0.94933    0.11049    0.86680    1.000
    Cu10     Cu       0.14517    0.21755    0.97468    1.000
    Cl5      Cl       0.04990    0.21760    0.86420    1.000
    S17      S        0.98036    0.14164    0.94709    1.000
    S18      S        0.06534    0.15327    0.05793    1.000
    S19      S        0.11381    0.13674    0.94659    1.000
    S20      S        0.02600    0.02776    0.93862    1.000
    O33      O        0.89900    0.10820    0.89190    1.000
    O34      O        0.85160    0.14770    0.92370    1.000
    O35      O        0.00540    0.11010    0.84750    1.000
    O36      O        0.05750    0.07120    0.82900    1.000
    O37      O        0.09080    0.23420    0.97100    1.000
    O38      O        0.03810    0.26190    0.00860    1.000
    O39      O        0.19790    0.19040    0.98120    1.000
    O40      O        0.24300    0.15620    0.94080    1.000
    N17      N        0.94300    0.17040    0.87040    1.000
    N18      N        0.95740    0.05090    0.87620    1.000
    N19      N        0.13600    0.21200    0.03350    1.000
    N20      N        0.15320    0.21160    0.91390    1.000
    C81      C        0.88650    0.14140    0.90600    1.000
    C82      C        0.91560    0.17920    0.90570    1.000
    C83      C        0.94050    0.18280    0.94460    1.000
    C84      C        0.96260    0.22480    0.94560    1.000
    C85      C        0.91350    0.17950    0.98400    1.000
    C86      C        0.02270    0.07560    0.84570    1.000
    C87      C        0.99790    0.03690    0.85970    1.000
    C88      C        0.01910    0.00600    0.88750    1.000
    C89      C        0.99000    0.96950    0.89170    1.000
    C90      C        0.06080    0.99370    0.86880    1.000
    C91      C        0.07240    0.24250    0.00450    1.000
    C92      C        0.09500    0.23060    0.04510    1.000
    C93      C        0.07200    0.20600    0.07700    1.000
    C94      C        0.10080    0.20270    0.11500    1.000
    C95      C        0.02950    0.22430    0.08870    1.000
    C96      C        0.20960    0.17590    0.94720    1.000
    C97      C        0.17800    0.17330    0.91120    1.000
    C98      C        0.15270    0.13450    0.90500    1.000
    C99      C        0.12990    0.13280    0.86370    1.000
    C100     C        0.17820    0.09500    0.90880    1.000
    Au11     Au       0.00343    0.02165    0.15203    1.000
    Au12     Au       0.93770    0.07131    0.08125    1.000
    Ag16     Ag       0.91777    0.04810    0.16736    1.000
    Ag17     Ag       0.99051    0.97605    0.07796    1.000
    Ag18     Ag       0.01232    0.11674    0.09570    1.000
    Cu11     Cu       0.86680    0.94933    0.11049    1.000
    Cu12     Cu       0.97468    0.14517    0.21755    1.000
    Cl6      Cl       0.86420    0.04990    0.21760    1.000
    S21      S        0.94709    0.98036    0.14164    1.000
    S22      S        0.05793    0.06534    0.15327    1.000
    S23      S        0.94659    0.11381    0.13674    1.000
    S24      S        0.93862    0.02600    0.02776    1.000
    O41      O        0.89190    0.89900    0.10820    1.000
    O42      O        0.92370    0.85160    0.14770    1.000
    O43      O        0.84750    0.00540    0.11010    1.000
    O44      O        0.82900    0.05750    0.07120    1.000
    O45      O        0.97100    0.09080    0.23420    1.000
    O46      O        0.00860    0.03810    0.26190    1.000
    O47      O        0.98120    0.19790    0.19040    1.000
    O48      O        0.94080    0.24300    0.15620    1.000
    N21      N        0.87040    0.94300    0.17040    1.000
    N22      N        0.87620    0.95740    0.05090    1.000
    N23      N        0.03350    0.13600    0.21200    1.000
    N24      N        0.91390    0.15320    0.21160    1.000
    C101     C        0.90600    0.88650    0.14140    1.000
    C102     C        0.90570    0.91560    0.17920    1.000
    C103     C        0.94460    0.94050    0.18280    1.000
    C104     C        0.94560    0.96260    0.22480    1.000
    C105     C        0.98400    0.91350    0.17950    1.000
    C106     C        0.84570    0.02270    0.07560    1.000
    C107     C        0.85970    0.99790    0.03690    1.000
    C108     C        0.88750    0.01910    0.00600    1.000
    C109     C        0.89170    0.99000    0.96950    1.000
    C110     C        0.86880    0.06080    0.99370    1.000
    C111     C        0.00450    0.07240    0.24250    1.000
    C112     C        0.04510    0.09500    0.23060    1.000
    C113     C        0.07700    0.07200    0.20600    1.000
    C114     C        0.11500    0.10080    0.20270    1.000
    C115     C        0.08870    0.02950    0.22430    1.000
    C116     C        0.94720    0.20960    0.17590    1.000
    C117     C        0.91120    0.17800    0.17330    1.000
    C118     C        0.90500    0.15270    0.13450    1.000
    C119     C        0.86370    0.12990    0.13280    1.000
    C120     C        0.90880    0.17820    0.09500    1.000
    Au13     Au       0.65203    0.49657    0.97835    1.000
    Au14     Au       0.58125    0.56230    0.92869    1.000
    Ag19     Ag       0.66736    0.58223    0.95190    1.000
    Ag20     Ag       0.57796    0.50949    0.02395    1.000
    Ag21     Ag       0.59570    0.48768    0.88326    1.000
    Cu13     Cu       0.61049    0.63320    0.05067    1.000
    Cu14     Cu       0.71755    0.52532    0.85483    1.000
    Cl7      Cl       0.71760    0.63580    0.95010    1.000
    S25      S        0.64164    0.55291    0.01964    1.000
    S26      S        0.65327    0.44207    0.93466    1.000
    S27      S        0.63674    0.55341    0.88619    1.000
    S28      S        0.52776    0.56138    0.97400    1.000
    O49      O        0.60820    0.60810    0.10100    1.000
    O50      O        0.64770    0.57630    0.14840    1.000
    O51      O        0.61010    0.65250    0.99460    1.000
    O52      O        0.57120    0.67100    0.94250    1.000
    O53      O        0.73420    0.52900    0.90920    1.000
    O54      O        0.76190    0.49140    0.96190    1.000
    O55      O        0.69040    0.51880    0.80210    1.000
    O56      O        0.65620    0.55920    0.75700    1.000
    N25      N        0.67040    0.62960    0.05700    1.000
    N26      N        0.55090    0.62380    0.04260    1.000
    N27      N        0.71200    0.46650    0.86400    1.000
    N28      N        0.71160    0.58610    0.84680    1.000
    C121     C        0.64140    0.59400    0.11350    1.000
    C122     C        0.67920    0.59430    0.08440    1.000
    C123     C        0.68280    0.55540    0.05950    1.000
    C124     C        0.72480    0.55440    0.03740    1.000
    C125     C        0.67950    0.51600    0.08650    1.000
    C126     C        0.57560    0.65430    0.97730    1.000
    C127     C        0.53690    0.64030    0.00210    1.000
    C128     C        0.50600    0.61250    0.98090    1.000
    C129     C        0.46950    0.60830    0.01000    1.000
    C130     C        0.49370    0.63120    0.93920    1.000
    C131     C        0.74250    0.49550    0.92760    1.000
    C132     C        0.73060    0.45490    0.90500    1.000
    C133     C        0.70600    0.42300    0.92800    1.000
    C134     C        0.70270    0.38500    0.89920    1.000
    C135     C        0.72430    0.41130    0.97050    1.000
    C136     C        0.67590    0.55280    0.79040    1.000
    C137     C        0.67330    0.58880    0.82200    1.000
    C138     C        0.63450    0.59500    0.84730    1.000
    C139     C        0.63280    0.63630    0.87010    1.000
    C140     C        0.59500    0.59120    0.82180    1.000
    Au15     Au       0.52165    0.34797    0.99657    1.000
    Au16     Au       0.57131    0.41875    0.06230    1.000
    Ag22     Ag       0.54810    0.33264    0.08223    1.000
    Ag23     Ag       0.47605    0.42204    0.00949    1.000
    Ag24     Ag       0.61674    0.40430    0.98768    1.000
    Cu15     Cu       0.44933    0.38951    0.13320    1.000
    Cu16     Cu       0.64517    0.28245    0.02532    1.000
    Cl8      Cl       0.54990    0.28240    0.13580    1.000
    S29      S        0.48036    0.35836    0.05291    1.000
    S30      S        0.56534    0.34673    0.94207    1.000
    S31      S        0.61381    0.36326    0.05341    1.000
    S32      S        0.52600    0.47224    0.06138    1.000
    O57      O        0.39900    0.39180    0.10810    1.000
    O58      O        0.35160    0.35230    0.07630    1.000
    O59      O        0.50540    0.38990    0.15250    1.000
    O60      O        0.55750    0.42880    0.17100    1.000
    O61      O        0.59080    0.26580    0.02900    1.000
    O62      O        0.53810    0.23810    0.99140    1.000
    O63      O        0.69790    0.30960    0.01880    1.000
    O64      O        0.74300    0.34380    0.05920    1.000
    N29      N        0.44300    0.32960    0.12960    1.000
    N30      N        0.45740    0.44910    0.12380    1.000
    N31      N        0.63600    0.28800    0.96650    1.000
    N32      N        0.65320    0.28840    0.08610    1.000
    C141     C        0.38650    0.35860    0.09400    1.000
    C142     C        0.41560    0.32080    0.09430    1.000
    C143     C        0.44050    0.31720    0.05540    1.000
    C144     C        0.46260    0.27520    0.05440    1.000
    C145     C        0.41350    0.32050    0.01600    1.000
    C146     C        0.52270    0.42440    0.15430    1.000
    C147     C        0.49790    0.46310    0.14030    1.000
    C148     C        0.51910    0.49400    0.11250    1.000
    C149     C        0.49000    0.53050    0.10830    1.000
    C150     C        0.56080    0.50630    0.13120    1.000
    C151     C        0.57240    0.25750    0.99550    1.000
    C152     C        0.59500    0.26940    0.95490    1.000
    C153     C        0.57200    0.29400    0.92300    1.000
    C154     C        0.60080    0.29730    0.88500    1.000
    C155     C        0.52950    0.27570    0.91130    1.000
    C156     C        0.70960    0.32410    0.05280    1.000
    C157     C        0.67800    0.32670    0.08880    1.000
    C158     C        0.65270    0.36550    0.09500    1.000
    C159     C        0.62990    0.36720    0.13630    1.000
    C160     C        0.67820    0.40500    0.09120    1.000
    Au17     Au       0.50343    0.47835    0.84797    1.000
    Au18     Au       0.43770    0.42869    0.91875    1.000
    Ag25     Ag       0.41777    0.45190    0.83264    1.000
    Ag26     Ag       0.49051    0.52395    0.92204    1.000
    Ag27     Ag       0.51232    0.38326    0.90430    1.000
    Cu17     Cu       0.36680    0.55067    0.88951    1.000
    Cu18     Cu       0.47468    0.35483    0.78245    1.000
    Cl9      Cl       0.36420    0.45010    0.78240    1.000
    S33      S        0.44709    0.51964    0.85836    1.000
    S34      S        0.55793    0.43466    0.84673    1.000
    S35      S        0.44659    0.38619    0.86326    1.000
    S36      S        0.43862    0.47400    0.97224    1.000
    O65      O        0.39190    0.60100    0.89180    1.000
    O66      O        0.42370    0.64840    0.85230    1.000
    O67      O        0.34750    0.49460    0.88990    1.000
    O68      O        0.32900    0.44250    0.92880    1.000
    O69      O        0.47100    0.40920    0.76580    1.000
    O70      O        0.50860    0.46190    0.73810    1.000
    O71      O        0.48120    0.30210    0.80960    1.000
    O72      O        0.44080    0.25700    0.84380    1.000
    N33      N        0.37040    0.55700    0.82960    1.000
    N34      N        0.37620    0.54260    0.94910    1.000
    N35      N        0.53350    0.36400    0.78800    1.000
    N36      N        0.41390    0.34680    0.78840    1.000
    C161     C        0.40600    0.61350    0.85860    1.000
    C162     C        0.40570    0.58440    0.82080    1.000
    C163     C        0.44460    0.55950    0.81720    1.000
    C164     C        0.44560    0.53740    0.77520    1.000
    C165     C        0.48400    0.58650    0.82050    1.000
    C166     C        0.34570    0.47730    0.92440    1.000
    C167     C        0.35970    0.50210    0.96310    1.000
    C168     C        0.38750    0.48090    0.99400    1.000
    C169     C        0.39170    0.51000    0.03050    1.000
    C170     C        0.36880    0.43920    0.00630    1.000
    C171     C        0.50450    0.42760    0.75750    1.000
    C172     C        0.54510    0.40500    0.76940    1.000
    C173     C        0.57700    0.42800    0.79400    1.000
    C174     C        0.61500    0.39920    0.79730    1.000
    C175     C        0.58870    0.47050    0.77570    1.000
    C176     C        0.44720    0.29040    0.82410    1.000
    C177     C        0.41120    0.32200    0.82670    1.000
    C178     C        0.40500    0.34730    0.86550    1.000
    C179     C        0.36370    0.37010    0.86720    1.000
    C180     C        0.40880    0.32180    0.90500    1.000
    Au19     Au       0.84797    0.50343    0.47835    1.000
    Au20     Au       0.91875    0.43770    0.42869    1.000
    Ag28     Ag       0.83264    0.41777    0.45190    1.000
    Ag29     Ag       0.92204    0.49051    0.52395    1.000
    Ag30     Ag       0.90430    0.51232    0.38326    1.000
    Cu19     Cu       0.88951    0.36680    0.55067    1.000
    Cu20     Cu       0.78245    0.47468    0.35483    1.000
    Cl10     Cl       0.78240    0.36420    0.45010    1.000
    S37      S        0.85836    0.44709    0.51964    1.000
    S38      S        0.84673    0.55793    0.43466    1.000
    S39      S        0.86326    0.44659    0.38619    1.000
    S40      S        0.97224    0.43862    0.47400    1.000
    O73      O        0.89180    0.39190    0.60100    1.000
    O74      O        0.85230    0.42370    0.64840    1.000
    O75      O        0.88990    0.34750    0.49460    1.000
    O76      O        0.92880    0.32900    0.44250    1.000
    O77      O        0.76580    0.47100    0.40920    1.000
    O78      O        0.73810    0.50860    0.46190    1.000
    O79      O        0.80960    0.48120    0.30210    1.000
    O80      O        0.84380    0.44080    0.25700    1.000
    N37      N        0.82960    0.37040    0.55700    1.000
    N38      N        0.94910    0.37620    0.54260    1.000
    N39      N        0.78800    0.53350    0.36400    1.000
    N40      N        0.78840    0.41390    0.34680    1.000
    C181     C        0.85860    0.40600    0.61350    1.000
    C182     C        0.82080    0.40570    0.58440    1.000
    C183     C        0.81720    0.44460    0.55950    1.000
    C184     C        0.77520    0.44560    0.53740    1.000
    C185     C        0.82050    0.48400    0.58650    1.000
    C186     C        0.92440    0.34570    0.47730    1.000
    C187     C        0.96310    0.35970    0.50210    1.000
    C188     C        0.99400    0.38750    0.48090    1.000
    C189     C        0.03050    0.39170    0.51000    1.000
    C190     C        0.00630    0.36880    0.43920    1.000
    C191     C        0.75750    0.50450    0.42760    1.000
    C192     C        0.76940    0.54510    0.40500    1.000
    C193     C        0.79400    0.57700    0.42800    1.000
    C194     C        0.79730    0.61500    0.39920    1.000
    C195     C        0.77570    0.58870    0.47050    1.000
    C196     C        0.82410    0.44720    0.29040    1.000
    C197     C        0.82670    0.41120    0.32200    1.000
    C198     C        0.86550    0.40500    0.34730    1.000
    C199     C        0.86720    0.36370    0.37010    1.000
    C200     C        0.90500    0.40880    0.32180    1.000
    Au21     Au       0.97835    0.65203    0.49657    1.000
    Au22     Au       0.92869    0.58125    0.56230    1.000
    Ag31     Ag       0.95190    0.66736    0.58223    1.000
    Ag32     Ag       0.02395    0.57796    0.50949    1.000
    Ag33     Ag       0.88326    0.59570    0.48768    1.000
    Cu21     Cu       0.05067    0.61049    0.63320    1.000
    Cu22     Cu       0.85483    0.71755    0.52532    1.000
    Cl11     Cl       0.95010    0.71760    0.63580    1.000
    S41      S        0.01964    0.64164    0.55291    1.000
    S42      S        0.93466    0.65327    0.44207    1.000
    S43      S        0.88619    0.63674    0.55341    1.000
    S44      S        0.97400    0.52776    0.56138    1.000
    O81      O        0.10100    0.60820    0.60810    1.000
    O82      O        0.14840    0.64770    0.57630    1.000
    O83      O        0.99460    0.61010    0.65250    1.000
    O84      O        0.94250    0.57120    0.67100    1.000
    O85      O        0.90920    0.73420    0.52900    1.000
    O86      O        0.96190    0.76190    0.49140    1.000
    O87      O        0.80210    0.69040    0.51880    1.000
    O88      O        0.75700    0.65620    0.55920    1.000
    N41      N        0.05700    0.67040    0.62960    1.000
    N42      N        0.04260    0.55090    0.62380    1.000
    N43      N        0.86400    0.71200    0.46650    1.000
    N44      N        0.84680    0.71160    0.58610    1.000
    C201     C        0.11350    0.64140    0.59400    1.000
    C202     C        0.08440    0.67920    0.59430    1.000
    C203     C        0.05950    0.68280    0.55540    1.000
    C204     C        0.03740    0.72480    0.55440    1.000
    C205     C        0.08650    0.67950    0.51600    1.000
    C206     C        0.97730    0.57560    0.65430    1.000
    C207     C        0.00210    0.53690    0.64030    1.000
    C208     C        0.98090    0.50600    0.61250    1.000
    C209     C        0.01000    0.46950    0.60830    1.000
    C210     C        0.93920    0.49370    0.63120    1.000
    C211     C        0.92760    0.74250    0.49550    1.000
    C212     C        0.90500    0.73060    0.45490    1.000
    C213     C        0.92800    0.70600    0.42300    1.000
    C214     C        0.89920    0.70270    0.38500    1.000
    C215     C        0.97050    0.72430    0.41130    1.000
    C216     C        0.79040    0.67590    0.55280    1.000
    C217     C        0.82200    0.67330    0.58880    1.000
    C218     C        0.84730    0.63450    0.59500    1.000
    C219     C        0.87010    0.63280    0.63630    1.000
    C220     C        0.82180    0.59500    0.59120    1.000
    Au23     Au       0.99657    0.52165    0.34797    1.000
    Au24     Au       0.06230    0.57131    0.41875    1.000
    Ag34     Ag       0.08223    0.54810    0.33264    1.000
    Ag35     Ag       0.00949    0.47605    0.42204    1.000
    Ag36     Ag       0.98768    0.61674    0.40430    1.000
    Cu23     Cu       0.13320    0.44933    0.38951    1.000
    Cu24     Cu       0.02532    0.64517    0.28245    1.000
    Cl12     Cl       0.13580    0.54990    0.28240    1.000
    S45      S        0.05291    0.48036    0.35836    1.000
    S46      S        0.94207    0.56534    0.34673    1.000
    S47      S        0.05341    0.61381    0.36326    1.000
    S48      S        0.06138    0.52600    0.47224    1.000
    O89      O        0.10810    0.39900    0.39180    1.000
    O90      O        0.07630    0.35160    0.35230    1.000
    O91      O        0.15250    0.50540    0.38990    1.000
    O92      O        0.17100    0.55750    0.42880    1.000
    O93      O        0.02900    0.59080    0.26580    1.000
    O94      O        0.99140    0.53810    0.23810    1.000
    O95      O        0.01880    0.69790    0.30960    1.000
    O96      O        0.05920    0.74300    0.34380    1.000
    N45      N        0.12960    0.44300    0.32960    1.000
    N46      N        0.12380    0.45740    0.44910    1.000
    N47      N        0.96650    0.63600    0.28800    1.000
    N48      N        0.08610    0.65320    0.28840    1.000
    C221     C        0.09400    0.38650    0.35860    1.000
    C222     C        0.09430    0.41560    0.32080    1.000
    C223     C        0.05540    0.44050    0.31720    1.000
    C224     C        0.05440    0.46260    0.27520    1.000
    C225     C        0.01600    0.41350    0.32050    1.000
    C226     C        0.15430    0.52270    0.42440    1.000
    C227     C        0.14030    0.49790    0.46310    1.000
    C228     C        0.11250    0.51910    0.49400    1.000
    C229     C        0.10830    0.49000    0.53050    1.000
    C230     C        0.13120    0.56080    0.50630    1.000
    C231     C        0.99550    0.57240    0.25750    1.000
    C232     C        0.95490    0.59500    0.26940    1.000
    C233     C        0.92300    0.57200    0.29400    1.000
    C234     C        0.88500    0.60080    0.29730    1.000
    C235     C        0.91130    0.52950    0.27570    1.000
    C236     C        0.05280    0.70960    0.32410    1.000
    C237     C        0.08880    0.67800    0.32670    1.000
    C238     C        0.09500    0.65270    0.36550    1.000
    C239     C        0.13630    0.62990    0.36720    1.000
    C240     C        0.09120    0.67820    0.40500    1.000
    Au25     Au       0.05554    0.00613    0.59969    1.000
    Au26     Au       0.04397    0.11043    0.57455    1.000
    Ag37     Ag       0.10963    0.07415    0.62699    1.000
    Ag38     Ag       0.97626    0.03763    0.62628    1.000
    Ag39     Ag       0.05701    0.05794    0.50362    1.000
    Cu25     Cu       0.02664    0.10928    0.71995    1.000
    Cu26     Cu       0.17744    0.03124    0.53469    1.000
    S49      S        0.04575    0.04305    0.65864    1.000
    S50      S        0.06246    0.97244    0.53888    1.000
    S51      S        0.10665    0.08794    0.55130    1.000
    S52      S        0.97861    0.12202    0.59698    1.000
    O97      O        0.98870    0.06960    0.74420    1.000
    O98      O        0.98750    0.00440    0.76630    1.000
    O99      O        0.06200    0.14140    0.68650    1.000
    O100     O        0.06500    0.19380    0.64350    1.000
    O101     O        0.16330    0.00920    0.58780    1.000
    O102     O        0.15640    0.94800    0.61940    1.000
    O103     O        0.17960    0.05790    0.48130    1.000
    O104     O        0.18580    0.11850    0.44940    1.000
    N49      N        0.06920    0.07250    0.74240    1.000
    N50      N        0.98280    0.13650    0.69110    1.000
    N51      N        0.15160    0.98280    0.51350    1.000
    N52      N        0.19700    0.08600    0.55490    1.000
    C241     C        0.00530    0.03550    0.75170    1.000
    C242     C        0.05130    0.03020    0.74060    1.000
    C243     C        0.06110    0.00920    0.70030    1.000
    C244     C        0.10750    0.00240    0.69790    1.000
    C245     C        0.03740    0.96830    0.69770    1.000
    C246     C        0.04510    0.16800    0.66420    1.000
    C247     C        0.99700    0.17200    0.66470    1.000
    C248     C        0.97680    0.17410    0.62270    1.000
    C249     C        0.99350    0.20580    0.59280    1.000
    C250     C        0.93040    0.18150    0.63110    1.000
    C251     C        0.15450    0.97220    0.58870    1.000
    C252     C        0.14400    0.95230    0.54720    1.000
    C253     C        0.10180    0.93160    0.54430    1.000
    C254     C        0.08990    0.90540    0.58310    1.000
    C255     C        0.09830    0.90640    0.50390    1.000
    C256     C        0.18230    0.09670    0.48080    1.000
    C257     C        0.18130    0.11680    0.52410    1.000
    C258     C        0.13890    0.13100    0.53640    1.000
    C259     C        0.14170    0.15820    0.57480    1.000
    C260     C        0.11900    0.15690    0.50190    1.000
    Au27     Au       0.90031    0.94446    0.50613    1.000
    Au28     Au       0.92545    0.95603    0.61043    1.000
    Ag40     Ag       0.87301    0.89037    0.57415    1.000
    Ag41     Ag       0.87372    0.02374    0.53763    1.000
    Ag42     Ag       0.99638    0.94299    0.55794    1.000
    Cu27     Cu       0.78005    0.97336    0.60928    1.000
    Cu28     Cu       0.96531    0.82256    0.53124    1.000
    S53      S        0.84136    0.95425    0.54305    1.000
    S54      S        0.96112    0.93754    0.47244    1.000
    S55      S        0.94870    0.89335    0.58794    1.000
    S56      S        0.90302    0.02139    0.62202    1.000
    O105     O        0.75580    0.01130    0.56960    1.000
    O106     O        0.73370    0.01250    0.50440    1.000
    O107     O        0.81350    0.93800    0.64140    1.000
    O108     O        0.85650    0.93500    0.69380    1.000
    O109     O        0.91220    0.83670    0.50920    1.000
    O110     O        0.88060    0.84360    0.44800    1.000
    O111     O        0.01870    0.82040    0.55790    1.000
    O112     O        0.05060    0.81420    0.61850    1.000
    N53      N        0.75760    0.93080    0.57250    1.000
    N54      N        0.80890    0.01720    0.63650    1.000
    N55      N        0.98650    0.84840    0.48280    1.000
    N56      N        0.94510    0.80300    0.58600    1.000
    C261     C        0.74830    0.99470    0.53550    1.000
    C262     C        0.75940    0.94870    0.53020    1.000
    C263     C        0.79970    0.93890    0.50920    1.000
    C264     C        0.80210    0.89250    0.50240    1.000
    C265     C        0.80230    0.96260    0.46830    1.000
    C266     C        0.83580    0.95490    0.66800    1.000
    C267     C        0.83530    0.00300    0.67200    1.000
    C268     C        0.87730    0.02320    0.67410    1.000
    C269     C        0.90720    0.00650    0.70580    1.000
    C270     C        0.86890    0.06960    0.68150    1.000
    C271     C        0.91130    0.84550    0.47220    1.000
    C272     C        0.95280    0.85600    0.45230    1.000
    C273     C        0.95570    0.89820    0.43160    1.000
    C274     C        0.91690    0.91010    0.40540    1.000
    C275     C        0.99610    0.90170    0.40640    1.000
    C276     C        0.01920    0.81770    0.59670    1.000
    C277     C        0.97590    0.81870    0.61680    1.000
    C278     C        0.96360    0.86110    0.63100    1.000
    C279     C        0.92520    0.85830    0.65820    1.000
    C280     C        0.99810    0.88100    0.65690    1.000
    Au29     Au       0.99387    0.09969    0.44446    1.000
    Au30     Au       0.88957    0.07455    0.45603    1.000
    Ag43     Ag       0.92585    0.12699    0.39037    1.000
    Ag44     Ag       0.96237    0.12628    0.52374    1.000
    Ag45     Ag       0.94206    0.00362    0.44299    1.000
    Cu29     Cu       0.89072    0.21995    0.47336    1.000
    Cu30     Cu       0.96876    0.03469    0.32256    1.000
    S57      S        0.95695    0.15864    0.45425    1.000
    S58      S        0.02756    0.03888    0.43754    1.000
    S59      S        0.91206    0.05130    0.39335    1.000
    S60      S        0.87798    0.09698    0.52139    1.000
    O113     O        0.93040    0.24420    0.51130    1.000
    O114     O        0.99560    0.26630    0.51250    1.000
    O115     O        0.85860    0.18650    0.43800    1.000
    O116     O        0.80620    0.14350    0.43500    1.000
    O117     O        0.99080    0.08780    0.33670    1.000
    O118     O        0.05200    0.11940    0.34360    1.000
    O119     O        0.94210    0.98130    0.32040    1.000
    O120     O        0.88150    0.94940    0.31420    1.000
    N57      N        0.92750    0.24240    0.43080    1.000
    N58      N        0.86350    0.19110    0.51720    1.000
    N59      N        0.01720    0.01350    0.34840    1.000
    N60      N        0.91400    0.05490    0.30300    1.000
    C281     C        0.96450    0.25170    0.49470    1.000
    C282     C        0.96980    0.24060    0.44870    1.000
    C283     C        0.99080    0.20030    0.43890    1.000
    C284     C        0.99760    0.19790    0.39250    1.000
    C285     C        0.03170    0.19770    0.46260    1.000
    C286     C        0.83200    0.16420    0.45490    1.000
    C287     C        0.82800    0.16470    0.50300    1.000
    C288     C        0.82590    0.12270    0.52320    1.000
    C289     C        0.79420    0.09280    0.50650    1.000
    C290     C        0.81850    0.13110    0.56960    1.000
    C291     C        0.02780    0.08870    0.34550    1.000
    C292     C        0.04770    0.04720    0.35600    1.000
    C293     C        0.06840    0.04430    0.39820    1.000
    C294     C        0.09460    0.08310    0.41010    1.000
    C295     C        0.09360    0.00390    0.40170    1.000
    C296     C        0.90330    0.98080    0.31770    1.000
    C297     C        0.88320    0.02410    0.31870    1.000
    C298     C        0.86900    0.03640    0.36110    1.000
    C299     C        0.84180    0.07480    0.35830    1.000
    C300     C        0.84310    0.00190    0.38100    1.000
    Au31     Au       0.44446    0.99387    0.09969    1.000
    Au32     Au       0.45603    0.88957    0.07455    1.000
    Ag46     Ag       0.39037    0.92585    0.12699    1.000
    Ag47     Ag       0.52374    0.96237    0.12628    1.000
    Ag48     Ag       0.44299    0.94206    0.00362    1.000
    Cu31     Cu       0.47336    0.89072    0.21995    1.000
    Cu32     Cu       0.32256    0.96876    0.03469    1.000
    S61      S        0.45425    0.95695    0.15864    1.000
    S62      S        0.43754    0.02756    0.03888    1.000
    S63      S        0.39335    0.91206    0.05130    1.000
    S64      S        0.52139    0.87798    0.09698    1.000
    O121     O        0.51130    0.93040    0.24420    1.000
    O122     O        0.51250    0.99560    0.26630    1.000
    O123     O        0.43800    0.85860    0.18650    1.000
    O124     O        0.43500    0.80620    0.14350    1.000
    O125     O        0.33670    0.99080    0.08780    1.000
    O126     O        0.34360    0.05200    0.11940    1.000
    O127     O        0.32040    0.94210    0.98130    1.000
    O128     O        0.31420    0.88150    0.94940    1.000
    N61      N        0.43080    0.92750    0.24240    1.000
    N62      N        0.51720    0.86350    0.19110    1.000
    N63      N        0.34840    0.01720    0.01350    1.000
    N64      N        0.30300    0.91400    0.05490    1.000
    C301     C        0.49470    0.96450    0.25170    1.000
    C302     C        0.44870    0.96980    0.24060    1.000
    C303     C        0.43890    0.99080    0.20030    1.000
    C304     C        0.39250    0.99760    0.19790    1.000
    C305     C        0.46260    0.03170    0.19770    1.000
    C306     C        0.45490    0.83200    0.16420    1.000
    C307     C        0.50300    0.82800    0.16470    1.000
    C308     C        0.52320    0.82590    0.12270    1.000
    C309     C        0.50650    0.79420    0.09280    1.000
    C310     C        0.56960    0.81850    0.13110    1.000
    C311     C        0.34550    0.02780    0.08870    1.000
    C312     C        0.35600    0.04770    0.04720    1.000
    C313     C        0.39820    0.06840    0.04430    1.000
    C314     C        0.41010    0.09460    0.08310    1.000
    C315     C        0.40170    0.09360    0.00390    1.000
    C316     C        0.31770    0.90330    0.98080    1.000
    C317     C        0.31870    0.88320    0.02410    1.000
    C318     C        0.36110    0.86900    0.03640    1.000
    C319     C        0.35830    0.84180    0.07480    1.000
    C320     C        0.38100    0.84310    0.00190    1.000
    Au33     Au       0.59969    0.05554    0.00613    1.000
    Au34     Au       0.57455    0.04397    0.11043    1.000
    Ag49     Ag       0.62699    0.10963    0.07415    1.000
    Ag50     Ag       0.62628    0.97626    0.03763    1.000
    Ag51     Ag       0.50362    0.05701    0.05794    1.000
    Cu33     Cu       0.71995    0.02664    0.10928    1.000
    Cu34     Cu       0.53469    0.17744    0.03124    1.000
    S65      S        0.65864    0.04575    0.04305    1.000
    S66      S        0.53888    0.06246    0.97244    1.000
    S67      S        0.55130    0.10665    0.08794    1.000
    S68      S        0.59698    0.97861    0.12202    1.000
    O129     O        0.74420    0.98870    0.06960    1.000
    O130     O        0.76630    0.98750    0.00440    1.000
    O131     O        0.68650    0.06200    0.14140    1.000
    O132     O        0.64350    0.06500    0.19380    1.000
    O133     O        0.58780    0.16330    0.00920    1.000
    O134     O        0.61940    0.15640    0.94800    1.000
    O135     O        0.48130    0.17960    0.05790    1.000
    O136     O        0.44940    0.18580    0.11850    1.000
    N65      N        0.74240    0.06920    0.07250    1.000
    N66      N        0.69110    0.98280    0.13650    1.000
    N67      N        0.51350    0.15160    0.98280    1.000
    N68      N        0.55490    0.19700    0.08600    1.000
    C321     C        0.75170    0.00530    0.03550    1.000
    C322     C        0.74060    0.05130    0.03020    1.000
    C323     C        0.70030    0.06110    0.00920    1.000
    C324     C        0.69790    0.10750    0.00240    1.000
    C325     C        0.69770    0.03740    0.96830    1.000
    C326     C        0.66420    0.04510    0.16800    1.000
    C327     C        0.66470    0.99700    0.17200    1.000
    C328     C        0.62270    0.97680    0.17410    1.000
    C329     C        0.59280    0.99350    0.20580    1.000
    C330     C        0.63110    0.93040    0.18150    1.000
    C331     C        0.58870    0.15450    0.97220    1.000
    C332     C        0.54720    0.14400    0.95230    1.000
    C333     C        0.54430    0.10180    0.93160    1.000
    C334     C        0.58310    0.08990    0.90540    1.000
    C335     C        0.50390    0.09830    0.90640    1.000
    C336     C        0.48080    0.18230    0.09670    1.000
    C337     C        0.52410    0.18130    0.11680    1.000
    C338     C        0.53640    0.13890    0.13100    1.000
    C339     C        0.57480    0.14170    0.15820    1.000
    C340     C        0.50190    0.11900    0.15690    1.000
    Au35     Au       0.50613    0.90031    0.94446    1.000
    Au36     Au       0.61043    0.92545    0.95603    1.000
    Ag52     Ag       0.57415    0.87301    0.89037    1.000
    Ag53     Ag       0.53763    0.87372    0.02374    1.000
    Ag54     Ag       0.55794    0.99638    0.94299    1.000
    Cu35     Cu       0.60928    0.78005    0.97336    1.000
    Cu36     Cu       0.53124    0.96531    0.82256    1.000
    S69      S        0.54305    0.84136    0.95425    1.000
    S70      S        0.47244    0.96112    0.93754    1.000
    S71      S        0.58794    0.94870    0.89335    1.000
    S72      S        0.62202    0.90302    0.02139    1.000
    O137     O        0.56960    0.75580    0.01130    1.000
    O138     O        0.50440    0.73370    0.01250    1.000
    O139     O        0.64140    0.81350    0.93800    1.000
    O140     O        0.69380    0.85650    0.93500    1.000
    O141     O        0.50920    0.91220    0.83670    1.000
    O142     O        0.44800    0.88060    0.84360    1.000
    O143     O        0.55790    0.01870    0.82040    1.000
    O144     O        0.61850    0.05060    0.81420    1.000
    N69      N        0.57250    0.75760    0.93080    1.000
    N70      N        0.63650    0.80890    0.01720    1.000
    N71      N        0.48280    0.98650    0.84840    1.000
    N72      N        0.58600    0.94510    0.80300    1.000
    C341     C        0.53550    0.74830    0.99470    1.000
    C342     C        0.53020    0.75940    0.94870    1.000
    C343     C        0.50920    0.79970    0.93890    1.000
    C344     C        0.50240    0.80210    0.89250    1.000
    C345     C        0.46830    0.80230    0.96260    1.000
    C346     C        0.66800    0.83580    0.95490    1.000
    C347     C        0.67200    0.83530    0.00300    1.000
    C348     C        0.67410    0.87730    0.02320    1.000
    C349     C        0.70580    0.90720    0.00650    1.000
    C350     C        0.68150    0.86890    0.06960    1.000
    C351     C        0.47220    0.91130    0.84550    1.000
    C352     C        0.45230    0.95280    0.85600    1.000
    C353     C        0.43160    0.95570    0.89820    1.000
    C354     C        0.40540    0.91690    0.91010    1.000
    C355     C        0.40640    0.99610    0.90170    1.000
    C356     C        0.59670    0.01920    0.81770    1.000
    C357     C        0.61680    0.97590    0.81870    1.000
    C358     C        0.63100    0.96360    0.86110    1.000
    C359     C        0.65820    0.92520    0.85830    1.000
    C360     C        0.65690    0.99810    0.88100    1.000
    Au37     Au       0.94446    0.50613    0.90031    1.000
    Au38     Au       0.95603    0.61043    0.92545    1.000
    Ag55     Ag       0.89037    0.57415    0.87301    1.000
    Ag56     Ag       0.02374    0.53763    0.87372    1.000
    Ag57     Ag       0.94299    0.55794    0.99638    1.000
    Cu37     Cu       0.97336    0.60928    0.78005    1.000
    Cu38     Cu       0.82256    0.53124    0.96531    1.000
    S73      S        0.95425    0.54305    0.84136    1.000
    S74      S        0.93754    0.47244    0.96112    1.000
    S75      S        0.89335    0.58794    0.94870    1.000
    S76      S        0.02139    0.62202    0.90302    1.000
    O145     O        0.01130    0.56960    0.75580    1.000
    O146     O        0.01250    0.50440    0.73370    1.000
    O147     O        0.93800    0.64140    0.81350    1.000
    O148     O        0.93500    0.69380    0.85650    1.000
    O149     O        0.83670    0.50920    0.91220    1.000
    O150     O        0.84360    0.44800    0.88060    1.000
    O151     O        0.82040    0.55790    0.01870    1.000
    O152     O        0.81420    0.61850    0.05060    1.000
    N73      N        0.93080    0.57250    0.75760    1.000
    N74      N        0.01720    0.63650    0.80890    1.000
    N75      N        0.84840    0.48280    0.98650    1.000
    N76      N        0.80300    0.58600    0.94510    1.000
    C361     C        0.99470    0.53550    0.74830    1.000
    C362     C        0.94870    0.53020    0.75940    1.000
    C363     C        0.93890    0.50920    0.79970    1.000
    C364     C        0.89250    0.50240    0.80210    1.000
    C365     C        0.96260    0.46830    0.80230    1.000
    C366     C        0.95490    0.66800    0.83580    1.000
    C367     C        0.00300    0.67200    0.83530    1.000
    C368     C        0.02320    0.67410    0.87730    1.000
    C369     C        0.00650    0.70580    0.90720    1.000
    C370     C        0.06960    0.68150    0.86890    1.000
    C371     C        0.84550    0.47220    0.91130    1.000
    C372     C        0.85600    0.45230    0.95280    1.000
    C373     C        0.89820    0.43160    0.95570    1.000
    C374     C        0.91010    0.40540    0.91690    1.000
    C375     C        0.90170    0.40640    0.99610    1.000
    C376     C        0.81770    0.59670    0.01920    1.000
    C377     C        0.81870    0.61680    0.97590    1.000
    C378     C        0.86110    0.63100    0.96360    1.000
    C379     C        0.85830    0.65820    0.92520    1.000
    C380     C        0.88100    0.65690    0.99810    1.000
    Au39     Au       0.09969    0.44446    0.99387    1.000
    Au40     Au       0.07455    0.45603    0.88957    1.000
    Ag58     Ag       0.12699    0.39037    0.92585    1.000
    Ag59     Ag       0.12628    0.52374    0.96237    1.000
    Ag60     Ag       0.00362    0.44299    0.94206    1.000
    Cu39     Cu       0.21995    0.47336    0.89072    1.000
    Cu40     Cu       0.03469    0.32256    0.96876    1.000
    S77      S        0.15864    0.45425    0.95695    1.000
    S78      S        0.03888    0.43754    0.02756    1.000
    S79      S        0.05130    0.39335    0.91206    1.000
    S80      S        0.09698    0.52139    0.87798    1.000
    O153     O        0.24420    0.51130    0.93040    1.000
    O154     O        0.26630    0.51250    0.99560    1.000
    O155     O        0.18650    0.43800    0.85860    1.000
    O156     O        0.14350    0.43500    0.80620    1.000
    O157     O        0.08780    0.33670    0.99080    1.000
    O158     O        0.11940    0.34360    0.05200    1.000
    O159     O        0.98130    0.32040    0.94210    1.000
    O160     O        0.94940    0.31420    0.88150    1.000
    N77      N        0.24240    0.43080    0.92750    1.000
    N78      N        0.19110    0.51720    0.86350    1.000
    N79      N        0.01350    0.34840    0.01720    1.000
    N80      N        0.05490    0.30300    0.91400    1.000
    C381     C        0.25170    0.49470    0.96450    1.000
    C382     C        0.24060    0.44870    0.96980    1.000
    C383     C        0.20030    0.43890    0.99080    1.000
    C384     C        0.19790    0.39250    0.99760    1.000
    C385     C        0.19770    0.46260    0.03170    1.000
    C386     C        0.16420    0.45490    0.83200    1.000
    C387     C        0.16470    0.50300    0.82800    1.000
    C388     C        0.12270    0.52320    0.82590    1.000
    C389     C        0.09280    0.50650    0.79420    1.000
    C390     C        0.13110    0.56960    0.81850    1.000
    C391     C        0.08870    0.34550    0.02780    1.000
    C392     C        0.04720    0.35600    0.04770    1.000
    C393     C        0.04430    0.39820    0.06840    1.000
    C394     C        0.08310    0.41010    0.09460    1.000
    C395     C        0.00390    0.40170    0.09360    1.000
    C396     C        0.98080    0.31770    0.90330    1.000
    C397     C        0.02410    0.31870    0.88320    1.000
    C398     C        0.03640    0.36110    0.86900    1.000
    C399     C        0.07480    0.35830    0.84180    1.000
    C400     C        0.00190    0.38100    0.84310    1.000
    Au41     Au       0.00613    0.59969    0.05554    1.000
    Au42     Au       0.11043    0.57455    0.04397    1.000
    Ag61     Ag       0.07415    0.62699    0.10963    1.000
    Ag62     Ag       0.03763    0.62628    0.97626    1.000
    Ag63     Ag       0.05794    0.50362    0.05701    1.000
    Cu41     Cu       0.10928    0.71995    0.02664    1.000
    Cu42     Cu       0.03124    0.53469    0.17744    1.000
    S81      S        0.04305    0.65864    0.04575    1.000
    S82      S        0.97244    0.53888    0.06246    1.000
    S83      S        0.08794    0.55130    0.10665    1.000
    S84      S        0.12202    0.59698    0.97861    1.000
    O161     O        0.06960    0.74420    0.98870    1.000
    O162     O        0.00440    0.76630    0.98750    1.000
    O163     O        0.14140    0.68650    0.06200    1.000
    O164     O        0.19380    0.64350    0.06500    1.000
    O165     O        0.00920    0.58780    0.16330    1.000
    O166     O        0.94800    0.61940    0.15640    1.000
    O167     O        0.05790    0.48130    0.17960    1.000
    O168     O        0.11850    0.44940    0.18580    1.000
    N81      N        0.07250    0.74240    0.06920    1.000
    N82      N        0.13650    0.69110    0.98280    1.000
    N83      N        0.98280    0.51350    0.15160    1.000
    N84      N        0.08600    0.55490    0.19700    1.000
    C401     C        0.03550    0.75170    0.00530    1.000
    C402     C        0.03020    0.74060    0.05130    1.000
    C403     C        0.00920    0.70030    0.06110    1.000
    C404     C        0.00240    0.69790    0.10750    1.000
    C405     C        0.96830    0.69770    0.03740    1.000
    C406     C        0.16800    0.66420    0.04510    1.000
    C407     C        0.17200    0.66470    0.99700    1.000
    C408     C        0.17410    0.62270    0.97680    1.000
    C409     C        0.20580    0.59280    0.99350    1.000
    C410     C        0.18150    0.63110    0.93040    1.000
    C411     C        0.97220    0.58870    0.15450    1.000
    C412     C        0.95230    0.54720    0.14400    1.000
    C413     C        0.93160    0.54430    0.10180    1.000
    C414     C        0.90540    0.58310    0.08990    1.000
    C415     C        0.90640    0.50390    0.09830    1.000
    C416     C        0.09670    0.48080    0.18230    1.000
    C417     C        0.11680    0.52410    0.18130    1.000
    C418     C        0.13100    0.53640    0.13890    1.000
    C419     C        0.15820    0.57480    0.14170    1.000
    C420     C        0.15690    0.50190    0.11900    1.000
    Au43     Au       0.55554    0.49387    0.40031    1.000
    Au44     Au       0.54397    0.38957    0.42545    1.000
    Ag64     Ag       0.60963    0.42585    0.37301    1.000
    Ag65     Ag       0.47626    0.46237    0.37372    1.000
    Ag66     Ag       0.55701    0.44206    0.49638    1.000
    Cu43     Cu       0.52664    0.39072    0.28005    1.000
    Cu44     Cu       0.67744    0.46876    0.46531    1.000
    S85      S        0.54575    0.45695    0.34136    1.000
    S86      S        0.56246    0.52756    0.46112    1.000
    S87      S        0.60665    0.41206    0.44870    1.000
    S88      S        0.47861    0.37798    0.40302    1.000
    O169     O        0.48870    0.43040    0.25580    1.000
    O170     O        0.48750    0.49560    0.23370    1.000
    O171     O        0.56200    0.35860    0.31350    1.000
    O172     O        0.56500    0.30620    0.35650    1.000
    O173     O        0.66330    0.49080    0.41220    1.000
    O174     O        0.65640    0.55200    0.38060    1.000
    O175     O        0.67960    0.44210    0.51870    1.000
    O176     O        0.68580    0.38150    0.55060    1.000
    N85      N        0.56920    0.42750    0.25760    1.000
    N86      N        0.48280    0.36350    0.30890    1.000
    N87      N        0.65160    0.51720    0.48650    1.000
    N88      N        0.69700    0.41400    0.44510    1.000
    C421     C        0.50530    0.46450    0.24830    1.000
    C422     C        0.55130    0.46980    0.25940    1.000
    C423     C        0.56110    0.49080    0.29970    1.000
    C424     C        0.60750    0.49760    0.30210    1.000
    C425     C        0.53740    0.53170    0.30230    1.000
    C426     C        0.54510    0.33200    0.33580    1.000
    C427     C        0.49700    0.32800    0.33530    1.000
    C428     C        0.47680    0.32590    0.37730    1.000
    C429     C        0.49350    0.29420    0.40720    1.000
    C430     C        0.43040    0.31850    0.36890    1.000
    C431     C        0.65450    0.52780    0.41130    1.000
    C432     C        0.64400    0.54770    0.45280    1.000
    C433     C        0.60180    0.56840    0.45570    1.000
    C434     C        0.58990    0.59460    0.41690    1.000
    C435     C        0.59830    0.59360    0.49610    1.000
    C436     C        0.68230    0.40330    0.51920    1.000
    C437     C        0.68130    0.38320    0.47590    1.000
    C438     C        0.63890    0.36900    0.46360    1.000
    C439     C        0.64170    0.34180    0.42520    1.000
    C440     C        0.61900    0.34310    0.49810    1.000
    Au45     Au       0.40031    0.55554    0.49387    1.000
    Au46     Au       0.42545    0.54397    0.38957    1.000
    Ag67     Ag       0.37301    0.60963    0.42585    1.000
    Ag68     Ag       0.37372    0.47626    0.46237    1.000
    Ag69     Ag       0.49638    0.55701    0.44206    1.000
    Cu45     Cu       0.28005    0.52664    0.39072    1.000
    Cu46     Cu       0.46531    0.67744    0.46876    1.000
    S89      S        0.34136    0.54575    0.45695    1.000
    S90      S        0.46112    0.56246    0.52756    1.000
    S91      S        0.44870    0.60665    0.41206    1.000
    S92      S        0.40302    0.47861    0.37798    1.000
    O177     O        0.25580    0.48870    0.43040    1.000
    O178     O        0.23370    0.48750    0.49560    1.000
    O179     O        0.31350    0.56200    0.35860    1.000
    O180     O        0.35650    0.56500    0.30620    1.000
    O181     O        0.41220    0.66330    0.49080    1.000
    O182     O        0.38060    0.65640    0.55200    1.000
    O183     O        0.51870    0.67960    0.44210    1.000
    O184     O        0.55060    0.68580    0.38150    1.000
    N89      N        0.25760    0.56920    0.42750    1.000
    N90      N        0.30890    0.48280    0.36350    1.000
    N91      N        0.48650    0.65160    0.51720    1.000
    N92      N        0.44510    0.69700    0.41400    1.000
    C441     C        0.24830    0.50530    0.46450    1.000
    C442     C        0.25940    0.55130    0.46980    1.000
    C443     C        0.29970    0.56110    0.49080    1.000
    C444     C        0.30210    0.60750    0.49760    1.000
    C445     C        0.30230    0.53740    0.53170    1.000
    C446     C        0.33580    0.54510    0.33200    1.000
    C447     C        0.33530    0.49700    0.32800    1.000
    C448     C        0.37730    0.47680    0.32590    1.000
    C449     C        0.40720    0.49350    0.29420    1.000
    C450     C        0.36890    0.43040    0.31850    1.000
    C451     C        0.41130    0.65450    0.52780    1.000
    C452     C        0.45280    0.64400    0.54770    1.000
    C453     C        0.45570    0.60180    0.56840    1.000
    C454     C        0.41690    0.58990    0.59460    1.000
    C455     C        0.49610    0.59830    0.59360    1.000
    C456     C        0.51920    0.68230    0.40330    1.000
    C457     C        0.47590    0.68130    0.38320    1.000
    C458     C        0.46360    0.63890    0.36900    1.000
    C459     C        0.42520    0.64170    0.34180    1.000
    C460     C        0.49810    0.61900    0.34310    1.000
    Au47     Au       0.49387    0.40031    0.55554    1.000
    Au48     Au       0.38957    0.42545    0.54397    1.000
    Ag70     Ag       0.42585    0.37301    0.60963    1.000
    Ag71     Ag       0.46237    0.37372    0.47626    1.000
    Ag72     Ag       0.44206    0.49638    0.55701    1.000
    Cu47     Cu       0.39072    0.28005    0.52664    1.000
    Cu48     Cu       0.46876    0.46531    0.67744    1.000
    S93      S        0.45695    0.34136    0.54575    1.000
    S94      S        0.52756    0.46112    0.56246    1.000
    S95      S        0.41206    0.44870    0.60665    1.000
    S96      S        0.37798    0.40302    0.47861    1.000
    O185     O        0.43040    0.25580    0.48870    1.000
    O186     O        0.49560    0.23370    0.48750    1.000
    O187     O        0.35860    0.31350    0.56200    1.000
    O188     O        0.30620    0.35650    0.56500    1.000
    O189     O        0.49080    0.41220    0.66330    1.000
    O190     O        0.55200    0.38060    0.65640    1.000
    O191     O        0.44210    0.51870    0.67960    1.000
    O192     O        0.38150    0.55060    0.68580    1.000
    N93      N        0.42750    0.25760    0.56920    1.000
    N94      N        0.36350    0.30890    0.48280    1.000
    N95      N        0.51720    0.48650    0.65160    1.000
    N96      N        0.41400    0.44510    0.69700    1.000
    C461     C        0.46450    0.24830    0.50530    1.000
    C462     C        0.46980    0.25940    0.55130    1.000
    C463     C        0.49080    0.29970    0.56110    1.000
    C464     C        0.49760    0.30210    0.60750    1.000
    C465     C        0.53170    0.30230    0.53740    1.000
    C466     C        0.33200    0.33580    0.54510    1.000
    C467     C        0.32800    0.33530    0.49700    1.000
    C468     C        0.32590    0.37730    0.47680    1.000
    C469     C        0.29420    0.40720    0.49350    1.000
    C470     C        0.31850    0.36890    0.43040    1.000
    C471     C        0.52780    0.41130    0.65450    1.000
    C472     C        0.54770    0.45280    0.64400    1.000
    C473     C        0.56840    0.45570    0.60180    1.000
    C474     C        0.59460    0.41690    0.58990    1.000
    C475     C        0.59360    0.49610    0.59830    1.000
    C476     C        0.40330    0.51920    0.68230    1.000
    C477     C        0.38320    0.47590    0.68130    1.000
    C478     C        0.36900    0.46360    0.63890    1.000
    C479     C        0.34180    0.42520    0.64170    1.000
    C480     C        0.34310    0.49810    0.61900    1.000
