data_functionalizedCrystal
_audit_creation_method	'EQeq! by Chris Wilmer'
_symmetry_space_group_name_H-M	'P1'
_symmetry_Int_Tables_number	1
_symmetry_cell_setting	triclinic
loop_
_symmetry_equiv_pos_as_xyz
  x,y,z
_cell_length_a	8.649
_cell_length_b	10.323
_cell_length_c	10.738
_cell_angle_alpha	90
_cell_angle_beta	90
_cell_angle_gamma	90
loop_
_atom_site_label
_atom_site_type_symbol
_atom_site_fract_x
_atom_site_fract_y
_atom_site_fract_z
_atom_site_charge
Mof_Nd	Nd	0.49291	0.39826	0.61302	2.567
Mof_P 	P 	0.6935	0.5817	0.8617	0.507
Mof_P 	P 	0.3426	0.5847	0.8928	0.535
Mof_O 	O 	0.6758	0.4706	0.7695	-0.545
Mof_O 	O 	0.6712	0.7153	0.8015	-0.506
Mof_O 	O 	0.8419	0.5699	0.9359	-0.549
Mof_O 	O 	0.2176	0.5433	0.9852	-0.565
Mof_O 	O 	0.3258	0.7265	0.8575	-0.565
Mof_O 	O 	0.3439	0.4942	0.7805	-0.548
Mof_O 	O 	0.5433	0.695	0.0458	-0.501
Mof_H 	H 	0.6315	0.6981	0.0795	0.237
Mof_C 	C 	0.5316	0.5747	0.9706	-0.044
Mof_C 	C 	0.5392	0.457	0.0566	-0.263
Mof_H 	H 	0.6387	0.4538	0.0961	0.08
Mof_H 	H 	0.5236	0.3795	0.0088	0.068
Mof_H 	H 	0.4601	0.4637	0.119	0.104
Mof_Nd	Nd	0.00709	0.60174	0.11302	2.55
Mof_P 	P 	0.8065	0.4183	0.3617	0.506
Mof_P 	P 	0.1574	0.4153	0.3928	0.533
Mof_O 	O 	0.8242	0.5294	0.2695	-0.541
Mof_O 	O 	0.8288	0.2847	0.3015	-0.506
Mof_O 	O 	0.6581	0.4301	0.4359	-0.548
Mof_O 	O 	0.2824	0.4567	0.4852	-0.567
Mof_O 	O 	0.1742	0.2735	0.3575	-0.566
Mof_O 	O 	0.1561	0.5058	0.2805	-0.548
Mof_O 	O 	0.9567	0.305	0.5458	-0.507
Mof_H 	H 	0.8685	0.3019	0.5795	0.237
Mof_C 	C 	0.9684	0.4253	0.4706	-0.032
Mof_C 	C 	0.9608	0.543	0.5566	-0.272
Mof_H 	H 	0.8613	0.5462	0.5961	0.081
Mof_H 	H 	0.9764	0.6205	0.5088	0.073
Mof_H 	H 	0.0399	0.5363	0.619	0.106
Mof_Nd	Nd	0.50709	0.89826	0.88698	2.549
Mof_P 	P 	0.3065	0.0817	0.6383	0.509
Mof_P 	P 	0.6574	0.0847	0.6072	0.532
Mof_O 	O 	0.3242	0.9706	0.7305	-0.548
Mof_O 	O 	0.3288	0.2153	0.6985	-0.507
Mof_O 	O 	0.1581	0.0699	0.5641	-0.545
Mof_O 	O 	0.7824	0.0433	0.5148	-0.569
Mof_O 	O 	0.6742	0.2265	0.6425	-0.567
Mof_O 	O 	0.6561	0.9942	0.7195	-0.545
Mof_O 	O 	0.4567	0.195	0.4542	-0.507
Mof_H 	H 	0.3685	0.1981	0.4205	0.237
Mof_C 	C 	0.4684	0.0747	0.5294	-0.036
Mof_C 	C 	0.4608	0.957	0.4434	-0.277
Mof_H 	H 	0.3613	0.9538	0.4039	0.08
Mof_H 	H 	0.4764	0.8795	0.4912	0.071
Mof_H 	H 	0.5399	0.9637	0.381	0.109
Mof_Nd	Nd	0.99291	0.10174	0.38698	2.565
Mof_P 	P 	0.1935	0.9183	0.1383	0.508
Mof_P 	P 	0.8426	0.9153	0.1072	0.555
Mof_O 	O 	0.1758	0.0294	0.2305	-0.546
Mof_O 	O 	0.1712	0.7847	0.1985	-0.509
Mof_O 	O 	0.3419	0.9301	0.0641	-0.546
Mof_O 	O 	0.7176	0.9567	0.0148	-0.561
Mof_O 	O 	0.8258	0.7735	0.1425	-0.561
Mof_O 	O 	0.8439	0.0058	0.2195	-0.557
Mof_O 	O 	0.0433	0.805	0.9542	-0.499
Mof_H 	H 	0.1315	0.8019	0.9205	0.234
Mof_C 	C 	0.0316	0.9253	0.0294	-0.072
Mof_C 	C 	0.0392	0.043	0.9434	-0.182
Mof_H 	H 	0.1387	0.0462	0.9039	0.056
Mof_H 	H 	0.0236	0.1205	0.9912	0.047
Mof_H 	H 	0.9601	0.0363	0.881	0.071
_end
