# CIF file generated by openbabel 3.1.0, see https://openbabel.org
data_I
_chemical_name_common 'image0'
_cell_length_a 17.066
_cell_length_b 17.066
_cell_length_c 14.625
_cell_angle_alpha 90
_cell_angle_beta 90
_cell_angle_gamma 90
_space_group_name_H-M_alt 'P 1'
_space_group_name_Hall 'P 1'
loop_
    _symmetry_equiv_pos_as_xyz
    x,y,z
loop_
    _atom_site_label
    _atom_site_type_symbol
    _atom_site_fract_x
    _atom_site_fract_y
    _atom_site_fract_z
    _atom_site_occupancy
    V1       V        0.38949    0.37923    0.62762    1.000
    V2       V        0.46786    0.31311    0.41377    1.000
    V3       V        0.57029    0.43535    0.73354    1.000
    V4       V        0.55121    0.31810    0.58822    1.000
    C1       C        0.30520    0.16290    0.57050    1.000
    H1       H        0.31770    0.21340    0.55130    1.000
    C2       C        0.30580    0.10530    0.50830    1.000
    H2       H        0.31570    0.11770    0.44750    1.000
    C3       C        0.29240    0.02920    0.53110    1.000
    C4       C        0.27670    0.01340    0.62650    1.000
    H3       H        0.26960    0.96240    0.64750    1.000
    C5       C        0.27250    0.07740    0.68620    1.000
    H4       H        0.25880    0.06860    0.74690    1.000
    C6       C        0.30490    0.82840    0.42580    1.000
    H5       H        0.31960    0.77810    0.44320    1.000
    C7       C        0.31080    0.88750    0.49000    1.000
    H6       H        0.32810    0.87680    0.54900    1.000
    C8       C        0.29050    0.96320    0.46460    1.000
    C9       C        0.26370    0.97470    0.37800    1.000
    H7       H        0.24770    0.02410    0.35860    1.000
    C10      C        0.26100    0.91200    0.32030    1.000
    H8       H        0.24440    0.92170    0.26080    1.000
    N1       N        0.28780    0.15210    0.65870    1.000
    N2       N        0.16100    0.27950    0.65960    1.000
    O1       O        0.33230    0.31940    0.68240    1.000
    O2       O        0.44290    0.31450    0.53820    1.000
    O3       O        0.49430    0.37530    0.67760    1.000
    O4       O        0.32220    0.42460    0.53760    1.000
    O5       O        0.37490    0.48130    0.67910    1.000
    O6       O        0.37920    0.36450    0.37710    1.000
    V5       V        0.61051    0.62077    0.62762    1.000
    V6       V        0.53214    0.68689    0.41377    1.000
    V7       V        0.42971    0.56465    0.73354    1.000
    V8       V        0.44879    0.68190    0.58822    1.000
    C11      C        0.69480    0.83710    0.57050    1.000
    H9       H        0.68230    0.78660    0.55130    1.000
    C12      C        0.69420    0.89470    0.50830    1.000
    H10      H        0.68430    0.88230    0.44750    1.000
    C13      C        0.70760    0.97080    0.53110    1.000
    C14      C        0.72330    0.98660    0.62650    1.000
    H11      H        0.73040    0.03760    0.64750    1.000
    C15      C        0.72750    0.92260    0.68620    1.000
    H12      H        0.74120    0.93140    0.74690    1.000
    C16      C        0.69510    0.17160    0.42580    1.000
    H13      H        0.68040    0.22190    0.44320    1.000
    C17      C        0.68920    0.11250    0.49000    1.000
    H14      H        0.67190    0.12320    0.54900    1.000
    C18      C        0.70950    0.03680    0.46460    1.000
    C19      C        0.73630    0.02530    0.37800    1.000
    H15      H        0.75230    0.97590    0.35860    1.000
    C20      C        0.73900    0.08800    0.32030    1.000
    H16      H        0.75560    0.07830    0.26080    1.000
    N3       N        0.71220    0.84790    0.65870    1.000
    N4       N        0.83900    0.72050    0.65960    1.000
    O7       O        0.66770    0.68060    0.68240    1.000
    O8       O        0.55710    0.68550    0.53820    1.000
    O9       O        0.50570    0.62470    0.67760    1.000
    O10      O        0.67780    0.57540    0.53760    1.000
    O11      O        0.62510    0.51870    0.67910    1.000
    O12      O        0.62080    0.63550    0.37710    1.000
    V9       V        0.37923    0.61051    0.37238    1.000
    V10      V        0.31311    0.53214    0.58623    1.000
    V11      V        0.43535    0.42971    0.26646    1.000
    V12      V        0.31810    0.44879    0.41178    1.000
    C21      C        0.16290    0.69480    0.42950    1.000
    H17      H        0.21340    0.68230    0.44870    1.000
    C22      C        0.10530    0.69420    0.49170    1.000
    H18      H        0.11770    0.68430    0.55250    1.000
    C23      C        0.02920    0.70760    0.46890    1.000
    C24      C        0.01340    0.72330    0.37350    1.000
    H19      H        0.96240    0.73040    0.35250    1.000
    C25      C        0.07740    0.72750    0.31380    1.000
    H20      H        0.06860    0.74120    0.25310    1.000
    C26      C        0.82840    0.69510    0.57420    1.000
    H21      H        0.77810    0.68040    0.55680    1.000
    C27      C        0.88750    0.68920    0.51000    1.000
    H22      H        0.87680    0.67190    0.45100    1.000
    C28      C        0.96320    0.70950    0.53540    1.000
    C29      C        0.97470    0.73630    0.62200    1.000
    H23      H        0.02410    0.75230    0.64140    1.000
    C30      C        0.91200    0.73900    0.67970    1.000
    H24      H        0.92170    0.75560    0.73920    1.000
    N5       N        0.15210    0.71220    0.34130    1.000
    N6       N        0.27950    0.83900    0.34040    1.000
    O13      O        0.31940    0.66770    0.31760    1.000
    O14      O        0.31450    0.55710    0.46180    1.000
    O15      O        0.37530    0.50570    0.32240    1.000
    O16      O        0.42460    0.67780    0.46240    1.000
    O17      O        0.48130    0.62510    0.32090    1.000
    O18      O        0.36450    0.62080    0.62290    1.000
    V13      V        0.62077    0.38949    0.37238    1.000
    V14      V        0.68689    0.46786    0.58623    1.000
    V15      V        0.56465    0.57029    0.26646    1.000
    V16      V        0.68190    0.55121    0.41178    1.000
    C31      C        0.83710    0.30520    0.42950    1.000
    H25      H        0.78660    0.31770    0.44870    1.000
    C32      C        0.89470    0.30580    0.49170    1.000
    H26      H        0.88230    0.31570    0.55250    1.000
    C33      C        0.97080    0.29240    0.46890    1.000
    C34      C        0.98660    0.27670    0.37350    1.000
    H27      H        0.03760    0.26960    0.35250    1.000
    C35      C        0.92260    0.27250    0.31380    1.000
    H28      H        0.93140    0.25880    0.25310    1.000
    C36      C        0.17160    0.30490    0.57420    1.000
    H29      H        0.22190    0.31960    0.55680    1.000
    C37      C        0.11250    0.31080    0.51000    1.000
    H30      H        0.12320    0.32810    0.45100    1.000
    C38      C        0.03680    0.29050    0.53540    1.000
    C39      C        0.02530    0.26370    0.62200    1.000
    H31      H        0.97590    0.24770    0.64140    1.000
    C40      C        0.08800    0.26100    0.67970    1.000
    H32      H        0.07830    0.24440    0.73920    1.000
    N7       N        0.84790    0.28780    0.34130    1.000
    N8       N        0.72050    0.16100    0.34040    1.000
    O19      O        0.68060    0.33230    0.31760    1.000
    O20      O        0.68550    0.44290    0.46180    1.000
    O21      O        0.62470    0.49430    0.32240    1.000
    O22      O        0.57540    0.32220    0.46240    1.000
    O23      O        0.51870    0.37490    0.32090    1.000
    O24      O        0.63550    0.37920    0.62290    1.000
    V17      V        0.88949    0.12077    0.12762    1.000
    V18      V        0.96786    0.18689    0.91377    1.000
    V19      V        0.07029    0.06465    0.23354    1.000
    V20      V        0.05121    0.18190    0.08822    1.000
    C41      C        0.80520    0.33710    0.07050    1.000
    H33      H        0.81770    0.28660    0.05130    1.000
    C42      C        0.80580    0.39470    0.00830    1.000
    H34      H        0.81570    0.38230    0.94750    1.000
    C43      C        0.79240    0.47080    0.03110    1.000
    C44      C        0.77670    0.48660    0.12650    1.000
    H35      H        0.76960    0.53760    0.14750    1.000
    C45      C        0.77250    0.42260    0.18620    1.000
    H36      H        0.75880    0.43140    0.24690    1.000
    C46      C        0.80490    0.67160    0.92580    1.000
    H37      H        0.81960    0.72190    0.94320    1.000
    C47      C        0.81080    0.61250    0.99000    1.000
    H38      H        0.82810    0.62320    0.04900    1.000
    C48      C        0.79050    0.53680    0.96460    1.000
    C49      C        0.76370    0.52530    0.87800    1.000
    H39      H        0.74770    0.47590    0.85860    1.000
    C50      C        0.76100    0.58800    0.82030    1.000
    H40      H        0.74440    0.57830    0.76080    1.000
    N9       N        0.78780    0.34790    0.15870    1.000
    N10      N        0.66100    0.22050    0.15960    1.000
    O25      O        0.83230    0.18060    0.18240    1.000
    O26      O        0.94290    0.18550    0.03820    1.000
    O27      O        0.99430    0.12470    0.17760    1.000
    O28      O        0.82220    0.07540    0.03760    1.000
    O29      O        0.87490    0.01870    0.17910    1.000
    O30      O        0.87920    0.13550    0.87710    1.000
    V21      V        0.11051    0.87923    0.12762    1.000
    V22      V        0.03214    0.81311    0.91377    1.000
    V23      V        0.92971    0.93535    0.23354    1.000
    V24      V        0.94879    0.81810    0.08822    1.000
    C51      C        0.19480    0.66290    0.07050    1.000
    H41      H        0.18230    0.71340    0.05130    1.000
    C52      C        0.19420    0.60530    0.00830    1.000
    H42      H        0.18430    0.61770    0.94750    1.000
    C53      C        0.20760    0.52920    0.03110    1.000
    C54      C        0.22330    0.51340    0.12650    1.000
    H43      H        0.23040    0.46240    0.14750    1.000
    C55      C        0.22750    0.57740    0.18620    1.000
    H44      H        0.24120    0.56860    0.24690    1.000
    C56      C        0.19510    0.32840    0.92580    1.000
    H45      H        0.18040    0.27810    0.94320    1.000
    C57      C        0.18920    0.38750    0.99000    1.000
    H46      H        0.17190    0.37680    0.04900    1.000
    C58      C        0.20950    0.46320    0.96460    1.000
    C59      C        0.23630    0.47470    0.87800    1.000
    H47      H        0.25230    0.52410    0.85860    1.000
    C60      C        0.23900    0.41200    0.82030    1.000
    H48      H        0.25560    0.42170    0.76080    1.000
    N11      N        0.21220    0.65210    0.15870    1.000
    N12      N        0.33900    0.77950    0.15960    1.000
    O31      O        0.16770    0.81940    0.18240    1.000
    O32      O        0.05710    0.81450    0.03820    1.000
    O33      O        0.00570    0.87530    0.17760    1.000
    O34      O        0.17780    0.92460    0.03760    1.000
    O35      O        0.12510    0.98130    0.17910    1.000
    O36      O        0.12080    0.86450    0.87710    1.000
    V25      V        0.87923    0.88949    0.87238    1.000
    V26      V        0.81311    0.96786    0.08623    1.000
    V27      V        0.93535    0.07029    0.76646    1.000
    V28      V        0.81810    0.05121    0.91178    1.000
    C61      C        0.66290    0.80520    0.92950    1.000
    H49      H        0.71340    0.81770    0.94870    1.000
    C62      C        0.60530    0.80580    0.99170    1.000
    H50      H        0.61770    0.81570    0.05250    1.000
    C63      C        0.52920    0.79240    0.96890    1.000
    C64      C        0.51340    0.77670    0.87350    1.000
    H51      H        0.46240    0.76960    0.85250    1.000
    C65      C        0.57740    0.77250    0.81380    1.000
    H52      H        0.56860    0.75880    0.75310    1.000
    C66      C        0.32840    0.80490    0.07420    1.000
    H53      H        0.27810    0.81960    0.05680    1.000
    C67      C        0.38750    0.81080    0.01000    1.000
    H54      H        0.37680    0.82810    0.95100    1.000
    C68      C        0.46320    0.79050    0.03540    1.000
    C69      C        0.47470    0.76370    0.12200    1.000
    H55      H        0.52410    0.74770    0.14140    1.000
    C70      C        0.41200    0.76100    0.17970    1.000
    H56      H        0.42170    0.74440    0.23920    1.000
    N13      N        0.65210    0.78780    0.84130    1.000
    N14      N        0.77950    0.66100    0.84040    1.000
    O37      O        0.81940    0.83230    0.81760    1.000
    O38      O        0.81450    0.94290    0.96180    1.000
    O39      O        0.87530    0.99430    0.82240    1.000
    O40      O        0.92460    0.82220    0.96240    1.000
    O41      O        0.98130    0.87490    0.82090    1.000
    O42      O        0.86450    0.87920    0.12290    1.000
    V29      V        0.12077    0.11051    0.87238    1.000
    V30      V        0.18689    0.03214    0.08623    1.000
    V31      V        0.06465    0.92971    0.76646    1.000
    V32      V        0.18190    0.94879    0.91178    1.000
    C71      C        0.33710    0.19480    0.92950    1.000
    H57      H        0.28660    0.18230    0.94870    1.000
    C72      C        0.39470    0.19420    0.99170    1.000
    H58      H        0.38230    0.18430    0.05250    1.000
    C73      C        0.47080    0.20760    0.96890    1.000
    C74      C        0.48660    0.22330    0.87350    1.000
    H59      H        0.53760    0.23040    0.85250    1.000
    C75      C        0.42260    0.22750    0.81380    1.000
    H60      H        0.43140    0.24120    0.75310    1.000
    C76      C        0.67160    0.19510    0.07420    1.000
    H61      H        0.72190    0.18040    0.05680    1.000
    C77      C        0.61250    0.18920    0.01000    1.000
    H62      H        0.62320    0.17190    0.95100    1.000
    C78      C        0.53680    0.20950    0.03540    1.000
    C79      C        0.52530    0.23630    0.12200    1.000
    H63      H        0.47590    0.25230    0.14140    1.000
    C80      C        0.58800    0.23900    0.17970    1.000
    H64      H        0.57830    0.25560    0.23920    1.000
    N15      N        0.34790    0.21220    0.84130    1.000
    N16      N        0.22050    0.33900    0.84040    1.000
    O43      O        0.18060    0.16770    0.81760    1.000
    O44      O        0.18550    0.05710    0.96180    1.000
    O45      O        0.12470    0.00570    0.82240    1.000
    O46      O        0.07540    0.17780    0.96240    1.000
    O47      O        0.01870    0.12510    0.82090    1.000
    O48      O        0.13550    0.12080    0.12290    1.000
    Co1      Co       0.25480    0.24520    0.75000    1.000
    Co2      Co       0.74520    0.75480    0.75000    1.000
    Co3      Co       0.24520    0.74520    0.25000    1.000
    Co4      Co       0.75480    0.25480    0.25000    1.000
    O49      O        0.50000    0.50000    0.79800    1.000
    O50      O        0.50000    0.50000    0.70460    1.000
    O51      O        0.50000    0.50000    0.77200    1.000
    O52      O        0.50000    0.50000    0.20200    1.000
    O53      O        0.50000    0.50000    0.29540    1.000
    O54      O        0.50000    0.50000    0.22800    1.000
    O55      O        0.00000    0.00000    0.29800    1.000
    O56      O        0.00000    0.00000    0.20460    1.000
    O57      O        0.00000    0.00000    0.27200    1.000
    O58      O        0.00000    0.00000    0.70200    1.000
    O59      O        0.00000    0.00000    0.79540    1.000
    O60      O        0.00000    0.00000    0.72800    1.000
