data_functionalizedCrystal
_audit_creation_method	'EQeq! by Chris Wilmer'
_symmetry_space_group_name_H-M	'P1'
_symmetry_Int_Tables_number	1
_symmetry_cell_setting	triclinic
loop_
_symmetry_equiv_pos_as_xyz
  x,y,z
_cell_length_a	7.3742
_cell_length_b	11.4011
_cell_length_c	11.6706
_cell_angle_alpha	89.666
_cell_angle_beta	76.813
_cell_angle_gamma	74.971
loop_
_atom_site_label
_atom_site_type_symbol
_atom_site_fract_x
_atom_site_fract_y
_atom_site_fract_z
_atom_site_charge
Mof_Mg	Mg	0.54122	0.14697	0.67436	1.466
Mof_Mg	Mg	0.68751	0.13197	0.36399	1.466
Mof_O 	O 	0.3264	0.25246	0.60626	-0.552
Mof_O 	O 	0.3971	0.2206	0.41132	-0.564
Mof_O 	O 	0.0025	0.17899	0.51094	-0.625
Mof_O 	O 	0.774	0.27349	0.4198	-0.557
Mof_O 	O 	0.97798	0.02162	0.32188	-0.679
Mof_O 	O 	0.2742	0.92782	0.22082	-0.525
Mof_O 	O 	0.3221	0.16767	0.83765	-0.443
Mof_O 	O 	0.36635	0.00991	0.71957	-0.665
Mof_O 	O 	0.70107	0.05109	0.52381	-0.938
Mof_H 	H 	0.6599	0.9763	0.5208	0.261
Mof_C 	C 	0.2984	0.27715	0.50623	0.474
Mof_C 	C 	0.1395	0.39039	0.50154	-0.221
Mof_C 	C 	0.1786	0.50135	0.51597	0.107
Mof_H 	H 	0.2993	0.5023	0.5268	-0.008
Mof_C 	C 	0.9579	0.38894	0.48529	0.055
Mof_C 	C 	0.9072	0.27101	0.47119	0.468
Mof_C 	C 	0.1006	0.97862	0.2277	0.466
Mof_C 	C 	0.0387	0.99074	0.11257	-0.109
Mof_C 	C 	0.164	0.0248	0.01798	-0.086
Mof_H 	H 	0.2749	0.0419	0.0303	0.038
Mof_C 	C 	0.1288	0.03399	0.90564	-0.144
Mof_C 	C 	0.2784	0.07364	0.81431	0.363
Mof_Mg	Mg	0.45878	0.85303	0.32564	1.466
Mof_Mg	Mg	0.31249	0.86803	0.63601	1.471
Mof_O 	O 	0.6736	0.74754	0.39374	-0.511
Mof_O 	O 	0.6029	0.7794	0.58868	-0.496
Mof_O 	O 	0.9975	0.82101	0.48906	-0.417
Mof_O 	O 	0.226	0.72651	0.5802	-0.534
Mof_O 	O 	0.02202	0.97838	0.67812	-0.643
Mof_O 	O 	0.7258	0.07218	0.77918	-0.546
Mof_O 	O 	0.6779	0.83233	0.16235	-0.41
Mof_O 	O 	0.63365	0.99009	0.28043	-0.57
Mof_O 	O 	0.29893	0.94891	0.47619	-0.789
Mof_H 	H 	0.3401	0.0237	0.4792	0.097
Mof_C 	C 	0.7016	0.72285	0.49377	0.386
Mof_C 	C 	0.8605	0.60961	0.49846	0.068
Mof_C 	C 	0.8214	0.49865	0.48403	-0.081
Mof_H 	H 	0.7007	0.4977	0.4732	0.059
Mof_C 	C 	0.0421	0.61106	0.51471	-0.205
Mof_C 	C 	0.0928	0.72899	0.52881	0.329
Mof_C 	C 	0.8994	0.02138	0.7723	0.464
Mof_C 	C 	0.9613	0.00926	0.88743	-0.131
Mof_C 	C 	0.836	0.9752	0.98202	0.12
Mof_H 	H 	0.7251	0.9581	0.9697	0.039
Mof_C 	C 	0.8712	0.96601	0.09436	-0.025
Mof_C 	C 	0.7216	0.92636	0.18569	0.354
Mof_Mg	Mg	-1.34988e-17	-3.85679e-18	0.5	1.457
_end
