data_functionalizedCrystal
_audit_creation_method	'EQeq! by Chris Wilmer'
_symmetry_space_group_name_H-M	'P1'
_symmetry_Int_Tables_number	1
_symmetry_cell_setting	triclinic
loop_
_symmetry_equiv_pos_as_xyz
  x,y,z
_cell_length_a	11.242
_cell_length_b	14.367
_cell_length_c	16.751
_cell_angle_alpha	90
_cell_angle_beta	109.518
_cell_angle_gamma	90
loop_
_atom_site_label
_atom_site_type_symbol
_atom_site_fract_x
_atom_site_fract_y
_atom_site_fract_z
_atom_site_charge
Mof_O 	O 	0.7891	0.1393	0.0412	-0.466
Mof_O 	O 	0.7994	0.2082	0.1814	-0.47
Mof_O 	O 	0.4906	0.1166	0.0417	-0.466
Mof_O 	O 	0.4113	0.9721	0.0981	-0.438
Mof_O 	O 	0.6141	0.0443	0.1828	-0.476
Mof_O 	O 	0.685	0.2964	0.8266	-0.467
Mof_O 	O 	0.5565	0.2432	0.9145	-0.431
Mof_O 	O 	0.7051	0.3791	0.9646	-0.46
Mof_O 	O 	0.0963	0.9946	0.4056	-0.423
Mof_O 	O 	0.8745	0.0459	0.3253	-0.46
Mof_O 	O 	0.9978	0.1213	0.4644	-0.458
Mof_O 	O 	0.9346	0.2728	0.1036	-0.431
Mof_P 	P 	0.8668	0.1883	0.1198	0.443
Mof_P 	P 	0.4884	0.0612	0.1182	0.442
Mof_P 	P 	0.6208	0.3241	0.8896	0.433
Mof_P 	P 	0.0045	0.0739	0.386	0.424
Mof_Zn	Zn	0.60823	0.12918	0.98016	1.234
Mof_Zn	Zn	0.74216	0.12539	0.2533	1.229
Mof_Zn	Zn	0.88234	0.37933	0.02751	1.234
Mof_O 	O 	0.2109	0.6393	0.4588	-0.466
Mof_O 	O 	0.2006	0.7082	0.3186	-0.469
Mof_O 	O 	0.5094	0.6166	0.4583	-0.466
Mof_O 	O 	0.5887	0.4721	0.4019	-0.436
Mof_O 	O 	0.3859	0.5443	0.3172	-0.475
Mof_O 	O 	0.315	0.7964	0.6734	-0.466
Mof_O 	O 	0.4435	0.7432	0.5855	-0.43
Mof_O 	O 	0.2949	0.8791	0.5354	-0.461
Mof_O 	O 	0.9037	0.4946	0.0944	-0.425
Mof_O 	O 	0.1255	0.5459	0.1747	-0.458
Mof_O 	O 	0.0022	0.6213	0.0356	-0.455
Mof_O 	O 	0.0654	0.7728	0.3964	-0.43
Mof_P 	P 	0.1332	0.6883	0.3802	0.443
Mof_P 	P 	0.5116	0.5612	0.3818	0.441
Mof_P 	P 	0.3792	0.8241	0.6104	0.433
Mof_P 	P 	0.9955	0.5739	0.114	0.424
Mof_Zn	Zn	0.39177	0.62918	0.51984	1.234
Mof_Zn	Zn	0.25784	0.62539	0.2467	1.229
Mof_Zn	Zn	0.11766	0.87933	0.47249	1.235
Mof_O 	O 	0.2109	0.8607	0.9588	-0.465
Mof_O 	O 	0.2006	0.7918	0.8186	-0.469
Mof_O 	O 	0.5094	0.8834	0.9583	-0.465
Mof_O 	O 	0.5887	0.0279	0.9019	-0.437
Mof_O 	O 	0.3859	0.9557	0.8172	-0.475
Mof_O 	O 	0.315	0.7036	0.1734	-0.466
Mof_O 	O 	0.4435	0.7568	0.0855	-0.43
Mof_O 	O 	0.2949	0.6209	0.0354	-0.459
Mof_O 	O 	0.9037	0.0054	0.5944	-0.422
Mof_O 	O 	0.1255	0.9541	0.6747	-0.459
Mof_O 	O 	0.0022	0.8787	0.5356	-0.458
Mof_O 	O 	0.0654	0.7272	0.8964	-0.431
Mof_P 	P 	0.1332	0.8117	0.8802	0.443
Mof_P 	P 	0.5116	0.9388	0.8818	0.442
Mof_P 	P 	0.3792	0.6759	0.1104	0.433
Mof_P 	P 	0.9955	0.9261	0.614	0.424
Mof_Zn	Zn	0.39177	0.87082	0.01984	1.234
Mof_Zn	Zn	0.25784	0.87461	0.7467	1.229
Mof_Zn	Zn	0.11766	0.62067	0.97249	1.234
Mof_O 	O 	0.7891	0.3607	0.5412	-0.466
Mof_O 	O 	0.7994	0.2918	0.6814	-0.469
Mof_O 	O 	0.4906	0.3834	0.5417	-0.466
Mof_O 	O 	0.4113	0.5279	0.5981	-0.436
Mof_O 	O 	0.6141	0.4557	0.6828	-0.475
Mof_O 	O 	0.685	0.2036	0.3266	-0.466
Mof_O 	O 	0.5565	0.2568	0.4145	-0.43
Mof_O 	O 	0.7051	0.1209	0.4646	-0.461
Mof_O 	O 	0.0963	0.5054	0.9056	-0.425
Mof_O 	O 	0.8745	0.4541	0.8253	-0.458
Mof_O 	O 	0.9978	0.3787	0.9644	-0.455
Mof_O 	O 	0.9346	0.2272	0.6036	-0.43
Mof_P 	P 	0.8668	0.3117	0.6198	0.443
Mof_P 	P 	0.4884	0.4388	0.6182	0.441
Mof_P 	P 	0.6208	0.1759	0.3896	0.433
Mof_P 	P 	0.0045	0.4261	0.886	0.424
Mof_Zn	Zn	0.60823	0.37082	0.48016	1.234
Mof_Zn	Zn	0.74216	0.37461	0.7533	1.229
Mof_Zn	Zn	0.88234	0.12067	0.52751	1.235
_end
