data_functionalizedCrystal
_audit_creation_method	'EQeq! by Chris Wilmer'
_symmetry_space_group_name_H-M	'P1'
_symmetry_Int_Tables_number	1
_symmetry_cell_setting	triclinic
loop_
_symmetry_equiv_pos_as_xyz
  x,y,z
_cell_length_a	36.4378
_cell_length_b	36.4378
_cell_length_c	10.9373
_cell_angle_alpha	90
_cell_angle_beta	90
_cell_angle_gamma	90
loop_
_atom_site_label
_atom_site_type_symbol
_atom_site_fract_x
_atom_site_fract_y
_atom_site_fract_z
_atom_site_charge
Mof_N 	N 	0.78591	0.50233	0.48089	-0.123
Mof_N 	N 	0.80138	0.46835	0.30222	-0.131
Mof_N 	N 	0.80185	0.53367	0.2974	-0.132
Mof_C 	C 	0.79138	0.53455	0.41812	0.141
Mof_C 	C 	0.79091	0.46922	0.42294	0.136
Mof_C 	C 	0.80685	0.50057	0.23945	0.142
Mof_C 	C 	0.78633	0.56801	0.47668	-0.015
Mof_C 	C 	0.78946	0.60011	0.41211	-0.013
Mof_C 	C 	0.78447	0.63312	0.4699	0.072
Mof_C 	C 	0.77635	0.63404	0.59226	-0.228
Mof_C 	C 	0.77321	0.60194	0.65684	0.087
Mof_C 	C 	0.7782	0.56893	0.59904	0.005
Mof_C 	C 	0.77089	0.67016	0.65549	0.74
Mof_C 	C 	0.78539	0.43665	0.48639	-0.012
Mof_C 	C 	0.78327	0.43695	0.61155	-0.009
Mof_C 	C 	0.77781	0.40481	0.67415	0.105
Mof_C 	C 	0.77448	0.37237	0.61161	-0.27
Mof_C 	C 	0.7766	0.37208	0.48645	0.076
Mof_C 	C 	0.78206	0.40421	0.42384	-0.017
Mof_C 	C 	0.76852	0.33721	0.6801	0.821
Mof_C 	C 	0.81743	0.49968	0.11744	-0.039
Mof_C 	C 	0.82623	0.46691	0.0633	0.02
Mof_C 	C 	0.83667	0.46603	0.9429	0.035
Mof_C 	C 	0.83831	0.49793	0.87664	-0.072
Mof_C 	C 	0.82951	0.53071	0.93078	0.035
Mof_C 	C 	0.81907	0.53158	0.05118	0.015
Mof_C 	C 	0.84973	0.49697	0.74492	0.27
Mof_O 	O 	0.74526	0.67375	0.73642	-1.15
Mof_O 	O 	0.79182	0.69772	0.62908	-1.04
Mof_O 	O 	0.78311	0.30707	0.64088	-1.146
Mof_O 	O 	0.74878	0.33703	0.77839	-1.055
Mof_O 	O 	0.86995	0.47037	0.70495	-0.191
Mof_O 	O 	0.83937	0.52275	0.67129	-0.196
Mof_Al	Al	0.75331	0.70776	0.8641	4.836
Mof_O 	O 	0.75872	0.74478	0.7392	-1.693
Mof_N 	N 	0.28591	0.00233	0.98089	-0.124
Mof_N 	N 	0.30138	0.96835	0.80222	-0.132
Mof_N 	N 	0.30185	0.03367	0.7974	-0.133
Mof_C 	C 	0.29138	0.03455	0.91812	0.139
Mof_C 	C 	0.29091	0.96922	0.92294	0.136
Mof_C 	C 	0.30685	0.00057	0.73945	0.142
Mof_C 	C 	0.28633	0.06801	0.97668	-0.011
Mof_C 	C 	0.28946	0.10011	0.91211	-0.016
Mof_C 	C 	0.28447	0.13312	0.9699	0.077
Mof_C 	C 	0.27635	0.13404	0.09226	-0.234
Mof_C 	C 	0.27321	0.10194	0.15684	0.089
Mof_C 	C 	0.2782	0.06893	0.09904	0.001
Mof_C 	C 	0.27089	0.17016	0.15549	0.74
Mof_C 	C 	0.28539	0.93665	0.98639	-0.013
Mof_C 	C 	0.28327	0.93695	0.11155	-0.007
Mof_C 	C 	0.27781	0.90481	0.17415	0.104
Mof_C 	C 	0.27448	0.87237	0.11161	-0.267
Mof_C 	C 	0.2766	0.87208	0.98645	0.072
Mof_C 	C 	0.28206	0.90421	0.92384	-0.016
Mof_C 	C 	0.26852	0.83721	0.1801	0.821
Mof_C 	C 	0.31743	0.99968	0.61744	-0.038
Mof_C 	C 	0.32623	0.96691	0.5633	0.018
Mof_C 	C 	0.33667	0.96603	0.4429	0.038
Mof_C 	C 	0.33831	0.99793	0.37664	-0.073
Mof_C 	C 	0.32951	0.03071	0.43078	0.036
Mof_C 	C 	0.31907	0.03158	0.55118	0.015
Mof_C 	C 	0.34973	0.99697	0.24492	0.271
Mof_O 	O 	0.24526	0.17375	0.23642	-1.15
Mof_O 	O 	0.29182	0.19772	0.12908	-1.039
Mof_O 	O 	0.28311	0.80707	0.14088	-1.146
Mof_O 	O 	0.24878	0.83703	0.27839	-1.056
Mof_O 	O 	0.36995	0.97037	0.20495	-0.192
Mof_O 	O 	0.33937	0.02275	0.17129	-0.197
Mof_Al	Al	0.25331	0.20776	0.3641	4.836
Mof_O 	O 	0.25872	0.24478	0.2392	-1.692
Mof_N 	N 	0.71409	0.99767	0.98089	-0.124
Mof_N 	N 	0.69862	0.03165	0.80222	-0.132
Mof_N 	N 	0.69815	0.96633	0.7974	-0.133
Mof_C 	C 	0.70862	0.96545	0.91812	0.139
Mof_C 	C 	0.70909	0.03078	0.92294	0.136
Mof_C 	C 	0.69315	0.99943	0.73945	0.142
Mof_C 	C 	0.71367	0.93199	0.97668	-0.011
Mof_C 	C 	0.71054	0.89989	0.91211	-0.016
Mof_C 	C 	0.71553	0.86688	0.9699	0.077
Mof_C 	C 	0.72365	0.86596	0.09226	-0.234
Mof_C 	C 	0.72679	0.89806	0.15684	0.089
Mof_C 	C 	0.7218	0.93107	0.09904	0.001
Mof_C 	C 	0.72911	0.82984	0.15549	0.74
Mof_C 	C 	0.71461	0.06335	0.98639	-0.013
Mof_C 	C 	0.71673	0.06305	0.11155	-0.007
Mof_C 	C 	0.72219	0.09519	0.17415	0.104
Mof_C 	C 	0.72552	0.12763	0.11161	-0.267
Mof_C 	C 	0.7234	0.12792	0.98645	0.072
Mof_C 	C 	0.71794	0.09579	0.92384	-0.016
Mof_C 	C 	0.73148	0.16279	0.1801	0.821
Mof_C 	C 	0.68257	0.00032	0.61744	-0.038
Mof_C 	C 	0.67377	0.03309	0.5633	0.018
Mof_C 	C 	0.66333	0.03397	0.4429	0.038
Mof_C 	C 	0.66169	0.00207	0.37664	-0.073
Mof_C 	C 	0.67049	0.96929	0.43078	0.036
Mof_C 	C 	0.68093	0.96842	0.55118	0.015
Mof_C 	C 	0.65027	0.00303	0.24492	0.271
Mof_O 	O 	0.75474	0.82625	0.23642	-1.15
Mof_O 	O 	0.70818	0.80228	0.12908	-1.039
Mof_O 	O 	0.71689	0.19293	0.14088	-1.146
Mof_O 	O 	0.75122	0.16297	0.27839	-1.056
Mof_O 	O 	0.63005	0.02963	0.20495	-0.192
Mof_O 	O 	0.66063	0.97725	0.17129	-0.197
Mof_Al	Al	0.74669	0.79224	0.3641	4.836
Mof_O 	O 	0.74128	0.75522	0.2392	-1.692
Mof_N 	N 	0.21409	0.49767	0.48089	-0.124
Mof_N 	N 	0.19862	0.53165	0.30222	-0.132
Mof_N 	N 	0.19815	0.46633	0.2974	-0.133
Mof_C 	C 	0.20862	0.46545	0.41812	0.14
Mof_C 	C 	0.20909	0.53078	0.42294	0.136
Mof_C 	C 	0.19315	0.49943	0.23945	0.142
Mof_C 	C 	0.21367	0.43199	0.47668	-0.015
Mof_C 	C 	0.21054	0.39989	0.41211	-0.013
Mof_C 	C 	0.21553	0.36688	0.4699	0.072
Mof_C 	C 	0.22365	0.36596	0.59226	-0.228
Mof_C 	C 	0.22679	0.39806	0.65684	0.087
Mof_C 	C 	0.2218	0.43107	0.59904	0.005
Mof_C 	C 	0.22911	0.32984	0.65549	0.74
Mof_C 	C 	0.21461	0.56335	0.48639	-0.012
Mof_C 	C 	0.21673	0.56305	0.61155	-0.009
Mof_C 	C 	0.22219	0.59519	0.67415	0.105
Mof_C 	C 	0.22552	0.62763	0.61161	-0.27
Mof_C 	C 	0.2234	0.62792	0.48645	0.076
Mof_C 	C 	0.21794	0.59579	0.42384	-0.017
Mof_C 	C 	0.23148	0.66279	0.6801	0.821
Mof_C 	C 	0.18257	0.50032	0.11744	-0.039
Mof_C 	C 	0.17377	0.53309	0.0633	0.02
Mof_C 	C 	0.16333	0.53397	0.9429	0.035
Mof_C 	C 	0.16169	0.50207	0.87664	-0.072
Mof_C 	C 	0.17049	0.46929	0.93078	0.035
Mof_C 	C 	0.18093	0.46842	0.05118	0.015
Mof_C 	C 	0.15027	0.50303	0.74492	0.27
Mof_O 	O 	0.25474	0.32625	0.73642	-1.15
Mof_O 	O 	0.20818	0.30228	0.62908	-1.04
Mof_O 	O 	0.21689	0.69293	0.64088	-1.146
Mof_O 	O 	0.25122	0.66297	0.77839	-1.055
Mof_O 	O 	0.13005	0.52963	0.70495	-0.191
Mof_O 	O 	0.16063	0.47725	0.67129	-0.196
Mof_Al	Al	0.24669	0.29224	0.8641	4.836
Mof_O 	O 	0.24128	0.25522	0.7392	-1.693
Mof_N 	N 	0.49767	0.28591	0.73089	-0.124
Mof_N 	N 	0.53165	0.30138	0.55222	-0.132
Mof_N 	N 	0.46633	0.30185	0.5474	-0.133
Mof_C 	C 	0.46545	0.29138	0.66812	0.14
Mof_C 	C 	0.53078	0.29091	0.67294	0.136
Mof_C 	C 	0.49943	0.30685	0.48945	0.142
Mof_C 	C 	0.43199	0.28633	0.72668	-0.015
Mof_C 	C 	0.39989	0.28946	0.66211	-0.013
Mof_C 	C 	0.36688	0.28447	0.7199	0.072
Mof_C 	C 	0.36596	0.27635	0.84226	-0.228
Mof_C 	C 	0.39806	0.27321	0.90684	0.087
Mof_C 	C 	0.43107	0.2782	0.84904	0.005
Mof_C 	C 	0.32984	0.27089	0.90549	0.739
Mof_C 	C 	0.56335	0.28539	0.73639	-0.012
Mof_C 	C 	0.56305	0.28327	0.86155	-0.008
Mof_C 	C 	0.59519	0.27781	0.92415	0.104
Mof_C 	C 	0.62763	0.27448	0.86161	-0.269
Mof_C 	C 	0.62792	0.2766	0.73645	0.075
Mof_C 	C 	0.59579	0.28206	0.67384	-0.016
Mof_C 	C 	0.66279	0.26852	0.9301	0.817
Mof_C 	C 	0.50032	0.31743	0.36744	-0.038
Mof_C 	C 	0.53309	0.32623	0.3133	0.018
Mof_C 	C 	0.53397	0.33667	0.1929	0.039
Mof_C 	C 	0.50207	0.33831	0.12664	-0.073
Mof_C 	C 	0.46929	0.32951	0.18078	0.036
Mof_C 	C 	0.46842	0.31907	0.30118	0.015
Mof_C 	C 	0.50303	0.34973	0.99492	0.271
Mof_O 	O 	0.32625	0.24526	0.98642	-1.146
Mof_O 	O 	0.30228	0.29182	0.87908	-1.038
Mof_O 	O 	0.69293	0.28311	0.89088	-1.145
Mof_O 	O 	0.66297	0.24878	0.02839	-1.053
Mof_O 	O 	0.52963	0.36995	0.95495	-0.192
Mof_O 	O 	0.47725	0.33937	0.92129	-0.196
Mof_Al	Al	0.29224	0.25331	0.1141	4.824
Mof_O 	O 	0.25522	0.25872	0.9892	-1.689
Mof_N 	N 	0.99767	0.78591	0.23089	-0.124
Mof_N 	N 	0.03165	0.80138	0.05222	-0.132
Mof_N 	N 	0.96633	0.80185	0.0474	-0.133
Mof_C 	C 	0.96545	0.79138	0.16812	0.14
Mof_C 	C 	0.03078	0.79091	0.17294	0.136
Mof_C 	C 	0.99943	0.80685	0.98945	0.141
Mof_C 	C 	0.93199	0.78633	0.22668	-0.015
Mof_C 	C 	0.89989	0.78946	0.16211	-0.014
Mof_C 	C 	0.86688	0.78447	0.2199	0.071
Mof_C 	C 	0.86596	0.77635	0.34226	-0.228
Mof_C 	C 	0.89806	0.77321	0.40684	0.087
Mof_C 	C 	0.93107	0.7782	0.34904	0.005
Mof_C 	C 	0.82984	0.77089	0.40549	0.74
Mof_C 	C 	0.06335	0.78539	0.23639	-0.012
Mof_C 	C 	0.06305	0.78327	0.36155	-0.009
Mof_C 	C 	0.09519	0.77781	0.42415	0.105
Mof_C 	C 	0.12763	0.77448	0.36161	-0.27
Mof_C 	C 	0.12792	0.7766	0.23645	0.076
Mof_C 	C 	0.09579	0.78206	0.17384	-0.016
Mof_C 	C 	0.16279	0.76852	0.4301	0.822
Mof_C 	C 	0.00032	0.81743	0.86744	-0.038
Mof_C 	C 	0.03309	0.82623	0.8133	0.017
Mof_C 	C 	0.03397	0.83667	0.6929	0.038
Mof_C 	C 	0.00207	0.83831	0.62664	-0.073
Mof_C 	C 	0.96929	0.82951	0.68078	0.036
Mof_C 	C 	0.96842	0.81907	0.80118	0.015
Mof_C 	C 	0.00303	0.84973	0.49492	0.271
Mof_O 	O 	0.82625	0.74526	0.48642	-1.15
Mof_O 	O 	0.80228	0.79182	0.37908	-1.04
Mof_O 	O 	0.19293	0.78311	0.39088	-1.147
Mof_O 	O 	0.16297	0.74878	0.52839	-1.056
Mof_O 	O 	0.02963	0.86995	0.45495	-0.191
Mof_O 	O 	0.97725	0.83937	0.42129	-0.196
Mof_Al	Al	0.79224	0.75331	0.6141	4.837
Mof_O 	O 	0.75522	0.75872	0.4892	-1.693
Mof_N 	N 	0.00233	0.21409	0.23089	-0.124
Mof_N 	N 	0.96835	0.19862	0.05222	-0.132
Mof_N 	N 	0.03367	0.19815	0.0474	-0.133
Mof_C 	C 	0.03455	0.20862	0.16812	0.14
Mof_C 	C 	0.96922	0.20909	0.17294	0.136
Mof_C 	C 	0.00057	0.19315	0.98945	0.141
Mof_C 	C 	0.06801	0.21367	0.22668	-0.015
Mof_C 	C 	0.10011	0.21054	0.16211	-0.014
Mof_C 	C 	0.13312	0.21553	0.2199	0.071
Mof_C 	C 	0.13404	0.22365	0.34226	-0.228
Mof_C 	C 	0.10194	0.22679	0.40684	0.087
Mof_C 	C 	0.06893	0.2218	0.34904	0.005
Mof_C 	C 	0.17016	0.22911	0.40549	0.74
Mof_C 	C 	0.93665	0.21461	0.23639	-0.012
Mof_C 	C 	0.93695	0.21673	0.36155	-0.009
Mof_C 	C 	0.90481	0.22219	0.42415	0.105
Mof_C 	C 	0.87237	0.22552	0.36161	-0.27
Mof_C 	C 	0.87208	0.2234	0.23645	0.076
Mof_C 	C 	0.90421	0.21794	0.17384	-0.016
Mof_C 	C 	0.83721	0.23148	0.4301	0.822
Mof_C 	C 	0.99968	0.18257	0.86744	-0.038
Mof_C 	C 	0.96691	0.17377	0.8133	0.017
Mof_C 	C 	0.96603	0.16333	0.6929	0.038
Mof_C 	C 	0.99793	0.16169	0.62664	-0.073
Mof_C 	C 	0.03071	0.17049	0.68078	0.036
Mof_C 	C 	0.03158	0.18093	0.80118	0.015
Mof_C 	C 	0.99697	0.15027	0.49492	0.271
Mof_O 	O 	0.17375	0.25474	0.48642	-1.15
Mof_O 	O 	0.19772	0.20818	0.37908	-1.04
Mof_O 	O 	0.80707	0.21689	0.39088	-1.147
Mof_O 	O 	0.83703	0.25122	0.52839	-1.056
Mof_O 	O 	0.97037	0.13005	0.45495	-0.191
Mof_O 	O 	0.02275	0.16063	0.42129	-0.196
Mof_Al	Al	0.20776	0.24669	0.6141	4.837
Mof_O 	O 	0.24478	0.24128	0.4892	-1.693
Mof_N 	N 	0.50233	0.71409	0.73089	-0.124
Mof_N 	N 	0.46835	0.69862	0.55222	-0.132
Mof_N 	N 	0.53367	0.69815	0.5474	-0.133
Mof_C 	C 	0.53455	0.70862	0.66812	0.14
Mof_C 	C 	0.46922	0.70909	0.67294	0.136
Mof_C 	C 	0.50057	0.69315	0.48945	0.142
Mof_C 	C 	0.56801	0.71367	0.72668	-0.015
Mof_C 	C 	0.60011	0.71054	0.66211	-0.013
Mof_C 	C 	0.63312	0.71553	0.7199	0.072
Mof_C 	C 	0.63404	0.72365	0.84226	-0.228
Mof_C 	C 	0.60194	0.72679	0.90684	0.087
Mof_C 	C 	0.56893	0.7218	0.84904	0.005
Mof_C 	C 	0.67016	0.72911	0.90549	0.739
Mof_C 	C 	0.43665	0.71461	0.73639	-0.012
Mof_C 	C 	0.43695	0.71673	0.86155	-0.008
Mof_C 	C 	0.40481	0.72219	0.92415	0.104
Mof_C 	C 	0.37237	0.72552	0.86161	-0.269
Mof_C 	C 	0.37208	0.7234	0.73645	0.075
Mof_C 	C 	0.40421	0.71794	0.67384	-0.016
Mof_C 	C 	0.33721	0.73148	0.9301	0.817
Mof_C 	C 	0.49968	0.68257	0.36744	-0.038
Mof_C 	C 	0.46691	0.67377	0.3133	0.018
Mof_C 	C 	0.46603	0.66333	0.1929	0.039
Mof_C 	C 	0.49793	0.66169	0.12664	-0.073
Mof_C 	C 	0.53071	0.67049	0.18078	0.036
Mof_C 	C 	0.53158	0.68093	0.30118	0.015
Mof_C 	C 	0.49697	0.65027	0.99492	0.271
Mof_O 	O 	0.67375	0.75474	0.98642	-1.146
Mof_O 	O 	0.69772	0.70818	0.87908	-1.038
Mof_O 	O 	0.30707	0.71689	0.89088	-1.145
Mof_O 	O 	0.33703	0.75122	0.02839	-1.053
Mof_O 	O 	0.47037	0.63005	0.95495	-0.192
Mof_O 	O 	0.52275	0.66063	0.92129	-0.196
Mof_Al	Al	0.70776	0.74669	0.1141	4.824
Mof_O 	O 	0.74478	0.74128	0.9892	-1.689
Mof_N 	N 	0.21409	0.99767	0.76911	-0.124
Mof_N 	N 	0.19862	0.03165	0.94778	-0.132
Mof_N 	N 	0.19815	0.96633	0.9526	-0.133
Mof_C 	C 	0.20862	0.96545	0.83188	0.14
Mof_C 	C 	0.20909	0.03078	0.82706	0.136
Mof_C 	C 	0.19315	0.99943	0.01055	0.141
Mof_C 	C 	0.21367	0.93199	0.77332	-0.015
Mof_C 	C 	0.21054	0.89989	0.83789	-0.014
Mof_C 	C 	0.21553	0.86688	0.7801	0.071
Mof_C 	C 	0.22365	0.86596	0.65774	-0.228
Mof_C 	C 	0.22679	0.89806	0.59316	0.087
Mof_C 	C 	0.2218	0.93107	0.65096	0.005
Mof_C 	C 	0.22911	0.82984	0.59451	0.74
Mof_C 	C 	0.21461	0.06335	0.76361	-0.012
Mof_C 	C 	0.21673	0.06305	0.63845	-0.009
Mof_C 	C 	0.22219	0.09519	0.57585	0.105
Mof_C 	C 	0.22552	0.12763	0.63839	-0.27
Mof_C 	C 	0.2234	0.12792	0.76355	0.076
Mof_C 	C 	0.21794	0.09579	0.82616	-0.016
Mof_C 	C 	0.23148	0.16279	0.5699	0.822
Mof_C 	C 	0.18257	0.00032	0.13256	-0.038
Mof_C 	C 	0.17377	0.03309	0.1867	0.017
Mof_C 	C 	0.16333	0.03397	0.3071	0.038
Mof_C 	C 	0.16169	0.00207	0.37336	-0.073
Mof_C 	C 	0.17049	0.96929	0.31922	0.036
Mof_C 	C 	0.18093	0.96842	0.19882	0.015
Mof_C 	C 	0.15027	0.00303	0.50508	0.271
Mof_O 	O 	0.25474	0.82625	0.51358	-1.15
Mof_O 	O 	0.20818	0.80228	0.62092	-1.04
Mof_O 	O 	0.21689	0.19293	0.60912	-1.147
Mof_O 	O 	0.25122	0.16297	0.47161	-1.056
Mof_O 	O 	0.13005	0.02963	0.54505	-0.191
Mof_O 	O 	0.16063	0.97725	0.57871	-0.196
Mof_Al	Al	0.24669	0.79224	0.3859	4.837
Mof_O 	O 	0.24128	0.75522	0.5108	-1.693
Mof_N 	N 	0.71409	0.49767	0.26911	-0.124
Mof_N 	N 	0.69862	0.53165	0.44778	-0.132
Mof_N 	N 	0.69815	0.46633	0.4526	-0.133
Mof_C 	C 	0.70862	0.46545	0.33188	0.14
Mof_C 	C 	0.70909	0.53078	0.32706	0.136
Mof_C 	C 	0.69315	0.49943	0.51055	0.142
Mof_C 	C 	0.71367	0.43199	0.27332	-0.015
Mof_C 	C 	0.71054	0.39989	0.33789	-0.013
Mof_C 	C 	0.71553	0.36688	0.2801	0.072
Mof_C 	C 	0.72365	0.36596	0.15774	-0.228
Mof_C 	C 	0.72679	0.39806	0.09316	0.087
Mof_C 	C 	0.7218	0.43107	0.15096	0.005
Mof_C 	C 	0.72911	0.32984	0.09451	0.739
Mof_C 	C 	0.71461	0.56335	0.26361	-0.012
Mof_C 	C 	0.71673	0.56305	0.13845	-0.008
Mof_C 	C 	0.72219	0.59519	0.07585	0.104
Mof_C 	C 	0.72552	0.62763	0.13839	-0.269
Mof_C 	C 	0.7234	0.62792	0.26355	0.075
Mof_C 	C 	0.71794	0.59579	0.32616	-0.016
Mof_C 	C 	0.73148	0.66279	0.0699	0.817
Mof_C 	C 	0.68257	0.50032	0.63256	-0.038
Mof_C 	C 	0.67377	0.53309	0.6867	0.018
Mof_C 	C 	0.66333	0.53397	0.8071	0.039
Mof_C 	C 	0.66169	0.50207	0.87336	-0.073
Mof_C 	C 	0.67049	0.46929	0.81922	0.036
Mof_C 	C 	0.68093	0.46842	0.69882	0.015
Mof_C 	C 	0.65027	0.50303	0.00508	0.271
Mof_O 	O 	0.75474	0.32625	0.01358	-1.146
Mof_O 	O 	0.70818	0.30228	0.12092	-1.038
Mof_O 	O 	0.71689	0.69293	0.10912	-1.145
Mof_O 	O 	0.75122	0.66297	0.97161	-1.053
Mof_O 	O 	0.63005	0.52963	0.04505	-0.192
Mof_O 	O 	0.66063	0.47725	0.07871	-0.196
Mof_Al	Al	0.74669	0.29224	0.8859	4.824
Mof_O 	O 	0.74128	0.25522	0.0108	-1.689
Mof_N 	N 	0.28591	0.50233	0.26911	-0.124
Mof_N 	N 	0.30138	0.46835	0.44778	-0.132
Mof_N 	N 	0.30185	0.53367	0.4526	-0.133
Mof_C 	C 	0.29138	0.53455	0.33188	0.14
Mof_C 	C 	0.29091	0.46922	0.32706	0.136
Mof_C 	C 	0.30685	0.50057	0.51055	0.142
Mof_C 	C 	0.28633	0.56801	0.27332	-0.015
Mof_C 	C 	0.28946	0.60011	0.33789	-0.013
Mof_C 	C 	0.28447	0.63312	0.2801	0.072
Mof_C 	C 	0.27635	0.63404	0.15774	-0.228
Mof_C 	C 	0.27321	0.60194	0.09316	0.087
Mof_C 	C 	0.2782	0.56893	0.15096	0.005
Mof_C 	C 	0.27089	0.67016	0.09451	0.739
Mof_C 	C 	0.28539	0.43665	0.26361	-0.012
Mof_C 	C 	0.28327	0.43695	0.13845	-0.008
Mof_C 	C 	0.27781	0.40481	0.07585	0.104
Mof_C 	C 	0.27448	0.37237	0.13839	-0.269
Mof_C 	C 	0.2766	0.37208	0.26355	0.075
Mof_C 	C 	0.28206	0.40421	0.32616	-0.016
Mof_C 	C 	0.26852	0.33721	0.0699	0.817
Mof_C 	C 	0.31743	0.49968	0.63256	-0.038
Mof_C 	C 	0.32623	0.46691	0.6867	0.018
Mof_C 	C 	0.33667	0.46603	0.8071	0.039
Mof_C 	C 	0.33831	0.49793	0.87336	-0.073
Mof_C 	C 	0.32951	0.53071	0.81922	0.036
Mof_C 	C 	0.31907	0.53158	0.69882	0.015
Mof_C 	C 	0.34973	0.49697	0.00508	0.271
Mof_O 	O 	0.24526	0.67375	0.01358	-1.146
Mof_O 	O 	0.29182	0.69772	0.12092	-1.038
Mof_O 	O 	0.28311	0.30707	0.10912	-1.145
Mof_O 	O 	0.24878	0.33703	0.97161	-1.053
Mof_O 	O 	0.36995	0.47037	0.04505	-0.192
Mof_O 	O 	0.33937	0.52275	0.07871	-0.196
Mof_Al	Al	0.25331	0.70776	0.8859	4.824
Mof_O 	O 	0.25872	0.74478	0.0108	-1.689
Mof_N 	N 	0.78591	0.00233	0.76911	-0.124
Mof_N 	N 	0.80138	0.96835	0.94778	-0.132
Mof_N 	N 	0.80185	0.03367	0.9526	-0.133
Mof_C 	C 	0.79138	0.03455	0.83188	0.14
Mof_C 	C 	0.79091	0.96922	0.82706	0.136
Mof_C 	C 	0.80685	0.00057	0.01055	0.141
Mof_C 	C 	0.78633	0.06801	0.77332	-0.015
Mof_C 	C 	0.78946	0.10011	0.83789	-0.014
Mof_C 	C 	0.78447	0.13312	0.7801	0.071
Mof_C 	C 	0.77635	0.13404	0.65774	-0.228
Mof_C 	C 	0.77321	0.10194	0.59316	0.087
Mof_C 	C 	0.7782	0.06893	0.65096	0.005
Mof_C 	C 	0.77089	0.17016	0.59451	0.74
Mof_C 	C 	0.78539	0.93665	0.76361	-0.012
Mof_C 	C 	0.78327	0.93695	0.63845	-0.009
Mof_C 	C 	0.77781	0.90481	0.57585	0.105
Mof_C 	C 	0.77448	0.87237	0.63839	-0.27
Mof_C 	C 	0.7766	0.87208	0.76355	0.076
Mof_C 	C 	0.78206	0.90421	0.82616	-0.016
Mof_C 	C 	0.76852	0.83721	0.5699	0.822
Mof_C 	C 	0.81743	0.99968	0.13256	-0.038
Mof_C 	C 	0.82623	0.96691	0.1867	0.017
Mof_C 	C 	0.83667	0.96603	0.3071	0.038
Mof_C 	C 	0.83831	0.99793	0.37336	-0.073
Mof_C 	C 	0.82951	0.03071	0.31922	0.036
Mof_C 	C 	0.81907	0.03158	0.19882	0.015
Mof_C 	C 	0.84973	0.99697	0.50508	0.271
Mof_O 	O 	0.74526	0.17375	0.51358	-1.15
Mof_O 	O 	0.79182	0.19772	0.62092	-1.04
Mof_O 	O 	0.78311	0.80707	0.60912	-1.147
Mof_O 	O 	0.74878	0.83703	0.47161	-1.056
Mof_O 	O 	0.86995	0.97037	0.54505	-0.191
Mof_O 	O 	0.83937	0.02275	0.57871	-0.196
Mof_Al	Al	0.75331	0.20776	0.3859	4.837
Mof_O 	O 	0.75872	0.24478	0.5108	-1.693
Mof_N 	N 	0.50233	0.21409	0.51911	-0.124
Mof_N 	N 	0.46835	0.19862	0.69778	-0.132
Mof_N 	N 	0.53367	0.19815	0.7026	-0.133
Mof_C 	C 	0.53455	0.20862	0.58188	0.14
Mof_C 	C 	0.46922	0.20909	0.57706	0.136
Mof_C 	C 	0.50057	0.19315	0.76055	0.142
Mof_C 	C 	0.56801	0.21367	0.52332	-0.015
Mof_C 	C 	0.60011	0.21054	0.58789	-0.013
Mof_C 	C 	0.63312	0.21553	0.5301	0.072
Mof_C 	C 	0.63404	0.22365	0.40774	-0.228
Mof_C 	C 	0.60194	0.22679	0.34316	0.087
Mof_C 	C 	0.56893	0.2218	0.40096	0.005
Mof_C 	C 	0.67016	0.22911	0.34451	0.74
Mof_C 	C 	0.43665	0.21461	0.51361	-0.012
Mof_C 	C 	0.43695	0.21673	0.38845	-0.009
Mof_C 	C 	0.40481	0.22219	0.32585	0.105
Mof_C 	C 	0.37237	0.22552	0.38839	-0.27
Mof_C 	C 	0.37208	0.2234	0.51355	0.076
Mof_C 	C 	0.40421	0.21794	0.57616	-0.017
Mof_C 	C 	0.33721	0.23148	0.3199	0.821
Mof_C 	C 	0.49968	0.18257	0.88256	-0.039
Mof_C 	C 	0.46691	0.17377	0.9367	0.02
Mof_C 	C 	0.46603	0.16333	0.0571	0.035
Mof_C 	C 	0.49793	0.16169	0.12336	-0.072
Mof_C 	C 	0.53071	0.17049	0.06922	0.035
Mof_C 	C 	0.53158	0.18093	0.94882	0.015
Mof_C 	C 	0.49697	0.15027	0.25508	0.27
Mof_O 	O 	0.67375	0.25474	0.26358	-1.15
Mof_O 	O 	0.69772	0.20818	0.37092	-1.04
Mof_O 	O 	0.30707	0.21689	0.35912	-1.146
Mof_O 	O 	0.33703	0.25122	0.22161	-1.055
Mof_O 	O 	0.47037	0.13005	0.29505	-0.191
Mof_O 	O 	0.52275	0.16063	0.32871	-0.196
Mof_Al	Al	0.70776	0.24669	0.1359	4.836
Mof_O 	O 	0.74478	0.24128	0.2608	-1.693
Mof_N 	N 	0.00233	0.71409	0.01911	-0.124
Mof_N 	N 	0.96835	0.69862	0.19778	-0.132
Mof_N 	N 	0.03367	0.69815	0.2026	-0.133
Mof_C 	C 	0.03455	0.70862	0.08188	0.139
Mof_C 	C 	0.96922	0.70909	0.07706	0.136
Mof_C 	C 	0.00057	0.69315	0.26055	0.142
Mof_C 	C 	0.06801	0.71367	0.02332	-0.011
Mof_C 	C 	0.10011	0.71054	0.08789	-0.016
Mof_C 	C 	0.13312	0.71553	0.0301	0.077
Mof_C 	C 	0.13404	0.72365	0.90774	-0.234
Mof_C 	C 	0.10194	0.72679	0.84316	0.089
Mof_C 	C 	0.06893	0.7218	0.90096	0.001
Mof_C 	C 	0.17016	0.72911	0.84451	0.74
Mof_C 	C 	0.93665	0.71461	0.01361	-0.013
Mof_C 	C 	0.93695	0.71673	0.88845	-0.007
Mof_C 	C 	0.90481	0.72219	0.82585	0.104
Mof_C 	C 	0.87237	0.72552	0.88839	-0.267
Mof_C 	C 	0.87208	0.7234	0.01355	0.072
Mof_C 	C 	0.90421	0.71794	0.07616	-0.016
Mof_C 	C 	0.83721	0.73148	0.8199	0.821
Mof_C 	C 	0.99968	0.68257	0.38256	-0.038
Mof_C 	C 	0.96691	0.67377	0.4367	0.018
Mof_C 	C 	0.96603	0.66333	0.5571	0.038
Mof_C 	C 	0.99793	0.66169	0.62336	-0.073
Mof_C 	C 	0.03071	0.67049	0.56922	0.036
Mof_C 	C 	0.03158	0.68093	0.44882	0.015
Mof_C 	C 	0.99697	0.65027	0.75508	0.271
Mof_O 	O 	0.17375	0.75474	0.76358	-1.15
Mof_O 	O 	0.19772	0.70818	0.87092	-1.039
Mof_O 	O 	0.80707	0.71689	0.85912	-1.146
Mof_O 	O 	0.83703	0.75122	0.72161	-1.056
Mof_O 	O 	0.97037	0.63005	0.79505	-0.192
Mof_O 	O 	0.02275	0.66063	0.82871	-0.197
Mof_Al	Al	0.20776	0.74669	0.6359	4.836
Mof_O 	O 	0.24478	0.74128	0.7608	-1.692
Mof_N 	N 	0.99767	0.28591	0.01911	-0.124
Mof_N 	N 	0.03165	0.30138	0.19778	-0.132
Mof_N 	N 	0.96633	0.30185	0.2026	-0.133
Mof_C 	C 	0.96545	0.29138	0.08188	0.139
Mof_C 	C 	0.03078	0.29091	0.07706	0.136
Mof_C 	C 	0.99943	0.30685	0.26055	0.142
Mof_C 	C 	0.93199	0.28633	0.02332	-0.011
Mof_C 	C 	0.89989	0.28946	0.08789	-0.016
Mof_C 	C 	0.86688	0.28447	0.0301	0.077
Mof_C 	C 	0.86596	0.27635	0.90774	-0.234
Mof_C 	C 	0.89806	0.27321	0.84316	0.089
Mof_C 	C 	0.93107	0.2782	0.90096	0.001
Mof_C 	C 	0.82984	0.27089	0.84451	0.74
Mof_C 	C 	0.06335	0.28539	0.01361	-0.013
Mof_C 	C 	0.06305	0.28327	0.88845	-0.007
Mof_C 	C 	0.09519	0.27781	0.82585	0.104
Mof_C 	C 	0.12763	0.27448	0.88839	-0.267
Mof_C 	C 	0.12792	0.2766	0.01355	0.072
Mof_C 	C 	0.09579	0.28206	0.07616	-0.016
Mof_C 	C 	0.16279	0.26852	0.8199	0.821
Mof_C 	C 	0.00032	0.31743	0.38256	-0.038
Mof_C 	C 	0.03309	0.32623	0.4367	0.018
Mof_C 	C 	0.03397	0.33667	0.5571	0.038
Mof_C 	C 	0.00207	0.33831	0.62336	-0.073
Mof_C 	C 	0.96929	0.32951	0.56922	0.036
Mof_C 	C 	0.96842	0.31907	0.44882	0.015
Mof_C 	C 	0.00303	0.34973	0.75508	0.271
Mof_O 	O 	0.82625	0.24526	0.76358	-1.15
Mof_O 	O 	0.80228	0.29182	0.87092	-1.039
Mof_O 	O 	0.19293	0.28311	0.85912	-1.146
Mof_O 	O 	0.16297	0.24878	0.72161	-1.056
Mof_O 	O 	0.02963	0.36995	0.79505	-0.192
Mof_O 	O 	0.97725	0.33937	0.82871	-0.197
Mof_Al	Al	0.79224	0.25331	0.6359	4.836
Mof_O 	O 	0.75522	0.25872	0.7608	-1.692
Mof_N 	N 	0.49767	0.78591	0.51911	-0.124
Mof_N 	N 	0.53165	0.80138	0.69778	-0.132
Mof_N 	N 	0.46633	0.80185	0.7026	-0.133
Mof_C 	C 	0.46545	0.79138	0.58188	0.14
Mof_C 	C 	0.53078	0.79091	0.57706	0.136
Mof_C 	C 	0.49943	0.80685	0.76055	0.142
Mof_C 	C 	0.43199	0.78633	0.52332	-0.015
Mof_C 	C 	0.39989	0.78946	0.58789	-0.013
Mof_C 	C 	0.36688	0.78447	0.5301	0.072
Mof_C 	C 	0.36596	0.77635	0.40774	-0.228
Mof_C 	C 	0.39806	0.77321	0.34316	0.087
Mof_C 	C 	0.43107	0.7782	0.40096	0.005
Mof_C 	C 	0.32984	0.77089	0.34451	0.74
Mof_C 	C 	0.56335	0.78539	0.51361	-0.012
Mof_C 	C 	0.56305	0.78327	0.38845	-0.009
Mof_C 	C 	0.59519	0.77781	0.32585	0.105
Mof_C 	C 	0.62763	0.77448	0.38839	-0.27
Mof_C 	C 	0.62792	0.7766	0.51355	0.076
Mof_C 	C 	0.59579	0.78206	0.57616	-0.017
Mof_C 	C 	0.66279	0.76852	0.3199	0.821
Mof_C 	C 	0.50032	0.81743	0.88256	-0.039
Mof_C 	C 	0.53309	0.82623	0.9367	0.02
Mof_C 	C 	0.53397	0.83667	0.0571	0.035
Mof_C 	C 	0.50207	0.83831	0.12336	-0.072
Mof_C 	C 	0.46929	0.82951	0.06922	0.035
Mof_C 	C 	0.46842	0.81907	0.94882	0.015
Mof_C 	C 	0.50303	0.84973	0.25508	0.27
Mof_O 	O 	0.32625	0.74526	0.26358	-1.15
Mof_O 	O 	0.30228	0.79182	0.37092	-1.04
Mof_O 	O 	0.69293	0.78311	0.35912	-1.146
Mof_O 	O 	0.66297	0.74878	0.22161	-1.055
Mof_O 	O 	0.52963	0.86995	0.29505	-0.191
Mof_O 	O 	0.47725	0.83937	0.32871	-0.196
Mof_Al	Al	0.29224	0.75331	0.1359	4.836
Mof_O 	O 	0.25522	0.75872	0.2608	-1.693
_end
