# CIF file generated by openbabel 3.1.0, see https://openbabel.org
data_I
_chemical_name_common 'image0'
_cell_length_a 9.038
_cell_length_b 9.038
_cell_length_c 18.975
_cell_angle_alpha 90
_cell_angle_beta 90
_cell_angle_gamma 120
_space_group_name_H-M_alt 'P 1'
_space_group_name_Hall 'P 1'
loop_
    _symmetry_equiv_pos_as_xyz
    x,y,z
loop_
    _atom_site_label
    _atom_site_type_symbol
    _atom_site_fract_x
    _atom_site_fract_y
    _atom_site_fract_z
    _atom_site_occupancy
    C1       C        0.76920    0.99840    0.07780    1.000
    O1       O        0.85350    0.11200    0.12520    1.000
    C2       C        0.63110    0.99690    0.03810    1.000
    O2       O        0.81370    0.88770    0.06950    1.000
    C3       C        0.00160    0.77080    0.74447    1.000
    O3       O        0.88800    0.74150    0.79187    1.000
    C4       C        0.00310    0.63420    0.70477    1.000
    O4       O        0.11230    0.92600    0.73617    1.000
    C5       C        0.22920    0.23080    0.41113    1.000
    O5       O        0.25850    0.14650    0.45853    1.000
    C6       C        0.36580    0.36890    0.37143    1.000
    O6       O        0.07400    0.18630    0.40283    1.000
    C7       C        0.23080    0.00160    0.07780    1.000
    O7       O        0.14650    0.88800    0.12520    1.000
    C8       C        0.36890    0.00310    0.03810    1.000
    O8       O        0.18630    0.11230    0.06950    1.000
    C9       C        0.99840    0.22920    0.74447    1.000
    O9       O        0.11200    0.25850    0.79187    1.000
    C10      C        0.99690    0.36580    0.70477    1.000
    O10      O        0.88770    0.07400    0.73617    1.000
    C11      C        0.77080    0.76920    0.41113    1.000
    O11      O        0.74150    0.85350    0.45853    1.000
    C12      C        0.63420    0.63110    0.37143    1.000
    O12      O        0.92600    0.81370    0.40283    1.000
    C13      C        0.99840    0.76920    0.58887    1.000
    O13      O        0.11200    0.85350    0.54147    1.000
    C14      C        0.99690    0.63110    0.62857    1.000
    O14      O        0.88770    0.81370    0.59717    1.000
    C15      C        0.77080    0.00160    0.92220    1.000
    O15      O        0.74150    0.88800    0.87480    1.000
    C16      C        0.63420    0.00310    0.96190    1.000
    O16      O        0.92600    0.11230    0.93050    1.000
    C17      C        0.23080    0.22920    0.25553    1.000
    O17      O        0.14650    0.25850    0.20813    1.000
    C18      C        0.36890    0.36580    0.29523    1.000
    O18      O        0.18630    0.07400    0.26383    1.000
    C19      C        0.00160    0.23080    0.58887    1.000
    O19      O        0.88800    0.14650    0.54147    1.000
    C20      C        0.00310    0.36890    0.62857    1.000
    O20      O        0.11230    0.18630    0.59717    1.000
    C21      C        0.22920    0.99840    0.92220    1.000
    O21      O        0.25850    0.11200    0.87480    1.000
    C22      C        0.36580    0.99690    0.96190    1.000
    O22      O        0.07400    0.88770    0.93050    1.000
    C23      C        0.76920    0.77080    0.25553    1.000
    O23      O        0.85350    0.74150    0.20813    1.000
    C24      C        0.63110    0.63420    0.29523    1.000
    O24      O        0.81370    0.92600    0.26383    1.000
    In1      In       0.00000    0.00000    0.16667    1.000
    In2      In       0.00000    0.00000    0.83333    1.000
    In3      In       0.00000    0.00000    0.50000    1.000
    C25      C        0.50000    0.00000    0.07150    1.000
    H1       H        0.50000    0.00000    0.12150    1.000
    C26      C        0.00000    0.50000    0.73817    1.000
    H2       H        0.00000    0.50000    0.78817    1.000
    C27      C        0.50000    0.50000    0.40483    1.000
    H3       H        0.50000    0.50000    0.45483    1.000
    C28      C        0.00000    0.50000    0.59517    1.000
    H4       H        0.00000    0.50000    0.54517    1.000
    C29      C        0.50000    0.00000    0.92850    1.000
    H5       H        0.50000    0.00000    0.87850    1.000
    C30      C        0.50000    0.50000    0.26183    1.000
    H6       H        0.50000    0.50000    0.21183    1.000
