data_functionalizedCrystal
_audit_creation_method	'EQeq! by Chris Wilmer'
_symmetry_space_group_name_H-M	'P1'
_symmetry_Int_Tables_number	1
_symmetry_cell_setting	triclinic
loop_
_symmetry_equiv_pos_as_xyz
  x,y,z
_cell_length_a	11.032
_cell_length_b	11.032
_cell_length_c	22.838
_cell_angle_alpha	90
_cell_angle_beta	90
_cell_angle_gamma	120
loop_
_atom_site_label
_atom_site_type_symbol
_atom_site_fract_x
_atom_site_fract_y
_atom_site_fract_z
_atom_site_charge
Mof_C 	C 	0.6143	0.5779	0.6251	0.09
Mof_H 	H 	0.6967	0.6341	0.6047	-0.026
Mof_C 	C 	0.6196	0.5815	0.686	-0.15
Mof_H 	H 	0.7036	0.6387	0.7052	0.083
Mof_C 	C 	0.4221	0.0364	0.6251	0.073
Mof_H 	H 	0.3659	0.0626	0.6047	-0.039
Mof_C 	C 	0.4185	0.0381	0.686	-0.142
Mof_H 	H 	0.3613	0.0649	0.7052	0.06
Mof_C 	C 	0.9636	0.3857	0.6251	0.118
Mof_H 	H 	0.9374	0.3033	0.6047	-0.039
Mof_C 	C 	0.9619	0.3804	0.686	-0.101
Mof_H 	H 	0.9351	0.2964	0.7052	0.066
Mof_C 	C 	0.3857	0.4221	0.6251	0.089
Mof_H 	H 	0.3033	0.3659	0.6047	-0.043
Mof_C 	C 	0.3804	0.4185	0.686	-0.153
Mof_H 	H 	0.2964	0.3613	0.7052	0.068
Mof_C 	C 	0.5779	0.9636	0.6251	0.118
Mof_H 	H 	0.6341	0.9374	0.6047	-0.031
Mof_C 	C 	0.5815	0.9619	0.686	-0.1
Mof_H 	H 	0.6387	0.9351	0.7052	0.073
Mof_C 	C 	0.0364	0.6143	0.6251	0.074
Mof_H 	H 	0.0626	0.6967	0.6047	-0.03
Mof_C 	C 	0.0381	0.6196	0.686	-0.141
Mof_H 	H 	0.0649	0.7036	0.7052	0.068
Mof_C 	C 	0.5779	0.6143	0.8749	0.089
Mof_H 	H 	0.6341	0.6967	0.8953	-0.022
Mof_C 	C 	0.5815	0.6196	0.814	-0.149
Mof_H 	H 	0.6387	0.7036	0.7948	0.082
Mof_C 	C 	0.0364	0.4221	0.8749	0.072
Mof_H 	H 	0.0626	0.3659	0.8953	-0.036
Mof_C 	C 	0.0381	0.4185	0.814	-0.14
Mof_H 	H 	0.0649	0.3613	0.7948	0.06
Mof_C 	C 	0.3857	0.9636	0.8749	0.116
Mof_H 	H 	0.3033	0.9374	0.8953	-0.036
Mof_C 	C 	0.3804	0.9619	0.814	-0.1
Mof_H 	H 	0.2964	0.9351	0.7948	0.066
Mof_C 	C 	0.4221	0.3857	0.8749	0.088
Mof_H 	H 	0.3659	0.3033	0.8953	-0.04
Mof_C 	C 	0.4185	0.3804	0.814	-0.151
Mof_H 	H 	0.3613	0.2964	0.7948	0.067
Mof_C 	C 	0.9636	0.5779	0.8749	0.116
Mof_H 	H 	0.9374	0.6341	0.8953	-0.028
Mof_C 	C 	0.9619	0.5815	0.814	-0.098
Mof_H 	H 	0.9351	0.6387	0.7948	0.073
Mof_C 	C 	0.6143	0.0364	0.8749	0.072
Mof_H 	H 	0.6967	0.0626	0.8953	-0.027
Mof_C 	C 	0.6196	0.0381	0.814	-0.139
Mof_H 	H 	0.7036	0.0649	0.7948	0.068
Mof_C 	C 	0.3857	0.4221	0.3749	0.089
Mof_H 	H 	0.3033	0.3659	0.3953	-0.043
Mof_C 	C 	0.3804	0.4185	0.314	-0.152
Mof_H 	H 	0.2964	0.3613	0.2948	0.067
Mof_C 	C 	0.5779	0.9636	0.3749	0.118
Mof_H 	H 	0.6341	0.9374	0.3953	-0.031
Mof_C 	C 	0.5815	0.9619	0.314	-0.099
Mof_H 	H 	0.6387	0.9351	0.2948	0.073
Mof_C 	C 	0.0364	0.6143	0.3749	0.073
Mof_H 	H 	0.0626	0.6967	0.3953	-0.03
Mof_C 	C 	0.0381	0.6196	0.314	-0.14
Mof_H 	H 	0.0649	0.7036	0.2948	0.068
Mof_C 	C 	0.6143	0.5779	0.3749	0.09
Mof_H 	H 	0.6967	0.6341	0.3953	-0.025
Mof_C 	C 	0.6196	0.5815	0.314	-0.15
Mof_H 	H 	0.7036	0.6387	0.2948	0.083
Mof_C 	C 	0.4221	0.0364	0.3749	0.073
Mof_H 	H 	0.3659	0.0626	0.3953	-0.039
Mof_C 	C 	0.4185	0.0381	0.314	-0.141
Mof_H 	H 	0.3613	0.0649	0.2948	0.06
Mof_C 	C 	0.9636	0.3857	0.3749	0.118
Mof_H 	H 	0.9374	0.3033	0.3953	-0.039
Mof_C 	C 	0.9619	0.3804	0.314	-0.1
Mof_H 	H 	0.9351	0.2964	0.2948	0.066
Mof_C 	C 	0.4221	0.3857	0.1251	0.09
Mof_H 	H 	0.3659	0.3033	0.1047	-0.044
Mof_C 	C 	0.4185	0.3804	0.186	-0.153
Mof_H 	H 	0.3613	0.2964	0.2052	0.067
Mof_C 	C 	0.9636	0.5779	0.1251	0.119
Mof_H 	H 	0.9374	0.6341	0.1047	-0.031
Mof_C 	C 	0.9619	0.5815	0.186	-0.099
Mof_H 	H 	0.9351	0.6387	0.2052	0.073
Mof_C 	C 	0.6143	0.0364	0.1251	0.074
Mof_H 	H 	0.6967	0.0626	0.1047	-0.031
Mof_C 	C 	0.6196	0.0381	0.186	-0.141
Mof_H 	H 	0.7036	0.0649	0.2052	0.068
Mof_C 	C 	0.5779	0.6143	0.1251	0.091
Mof_H 	H 	0.6341	0.6967	0.1047	-0.026
Mof_C 	C 	0.5815	0.6196	0.186	-0.15
Mof_H 	H 	0.6387	0.7036	0.2052	0.083
Mof_C 	C 	0.0364	0.4221	0.1251	0.074
Mof_H 	H 	0.0626	0.3659	0.1047	-0.04
Mof_C 	C 	0.0381	0.4185	0.186	-0.142
Mof_H 	H 	0.0649	0.3613	0.2052	0.06
Mof_C 	C 	0.3857	0.9636	0.1251	0.119
Mof_H 	H 	0.3033	0.9374	0.1047	-0.04
Mof_C 	C 	0.3804	0.9619	0.186	-0.1
Mof_H 	H 	0.2964	0.9351	0.2052	0.066
Mof_Co	Co	0.5	0.5	0.5	1.111
Mof_Co	Co	0.5	0	0.5	1.097
Mof_Co	Co	1.49277e-17	0.5	0.5	1.097
Mof_Co	Co	0.5	0.5	-0	1.108
Mof_Co	Co	-0	0.5	-0	1.094
Mof_Co	Co	0.5	0	-0	1.094
Mof_P 	P 	0.33333	0.66667	0.47793	0.222
Mof_P 	P 	0.66667	0.33333	0.47793	0.222
Mof_P 	P 	0.66667	0.33333	0.02207	0.189
Mof_P 	P 	0.33333	0.66667	0.02207	0.189
Mof_P 	P 	0.66667	0.33333	0.52207	0.222
Mof_P 	P 	0.33333	0.66667	0.52207	0.222
Mof_P 	P 	0.33333	0.66667	0.97793	0.272
Mof_P 	P 	0.66667	0.33333	0.97793	0.273
Mof_O 	O 	0.3374	0.5368	0.5	-0.466
Mof_O 	O 	0.4632	0.8006	0.5	-0.445
Mof_O 	O 	0.1994	0.6626	0.5	-0.46
Mof_O 	O 	0.6626	0.4632	0.5	-0.454
Mof_O 	O 	0.5368	0.1994	0.5	-0.467
Mof_O 	O 	0.8006	0.3374	0.5	-0.45
Mof_O 	O 	0.5368	0.3374	-0	-0.476
Mof_O 	O 	0.8006	0.4632	-0	-0.454
Mof_O 	O 	0.6626	0.1994	-0	-0.469
Mof_O 	O 	0.4632	0.6626	-0	-0.464
Mof_O 	O 	0.1994	0.5368	-0	-0.476
Mof_O 	O 	0.3374	0.8006	-0	-0.459
Mof_N 	N 	0.5	0.5	0.5948	-0.256
Mof_C 	C 	0.5	0.5	0.7174	0.064
Mof_N 	N 	0.5	2.09741e-32	0.5948	-0.279
Mof_C 	C 	0.5	2.09741e-32	0.7174	0.02
Mof_N 	N 	3.81233e-17	0.5	0.5948	-0.279
Mof_C 	C 	7.04157e-18	0.5	0.7174	0.02
Mof_N 	N 	0.5	0.5	0.9052	-0.253
Mof_C 	C 	0.5	0.5	0.7826	0.062
Mof_N 	N 	6.65971e-18	0.5	0.9052	-0.275
Mof_C 	C 	-9.48803e-18	0.5	0.7826	0.019
Mof_N 	N 	0.5	4.19482e-32	0.9052	-0.275
Mof_C 	C 	0.5	0	0.7826	0.019
Mof_N 	N 	0.5	0.5	0.4052	-0.256
Mof_C 	C 	0.5	0.5	0.2826	0.063
Mof_N 	N 	0.5	0	0.4052	-0.279
Mof_C 	C 	0.5	1.0487e-32	0.2826	0.019
Mof_N 	N 	-8.26796e-18	0.5	0.4052	-0.279
Mof_C 	C 	2.28138e-17	0.5	0.2826	0.019
Mof_N 	N 	0.5	0.5	0.0948	-0.256
Mof_C 	C 	0.5	0.5	0.2174	0.064
Mof_N 	N 	-2.40338e-17	0.5	0.0948	-0.279
Mof_C 	C 	3.93434e-17	0.5	0.2174	0.02
Mof_N 	N 	0.5	0	0.0948	-0.279
Mof_C 	C 	0.5	0	0.2174	0.02
_end
