# CIF file generated by openbabel 3.1.0, see https://openbabel.org
data_I
_chemical_name_common 'image0'
_cell_length_a 26.047
_cell_length_b 26.047
_cell_length_c 41.751
_cell_angle_alpha 90
_cell_angle_beta 90
_cell_angle_gamma 120
_space_group_name_H-M_alt 'P 1'
_space_group_name_Hall 'P 1'
loop_
    _symmetry_equiv_pos_as_xyz
    x,y,z
loop_
    _atom_site_label
    _atom_site_type_symbol
    _atom_site_fract_x
    _atom_site_fract_y
    _atom_site_fract_z
    _atom_site_occupancy
    Ag1      Ag       0.83945    0.65649    0.37964    1.000
    N1       N        0.42119    0.49820    0.28476    1.000
    N2       N        0.52355    0.59059    0.30931    1.000
    N3       N        0.74974    0.56751    0.36570    1.000
    N4       N        0.84894    0.57531    0.39511    1.000
    O1       O        0.58510    0.55216    0.35191    1.000
    S1       S        0.48366    0.65946    0.32306    1.000
    S2       S        0.68163    0.45695    0.37349    1.000
    C1       C        0.37021    0.45030    0.27716    1.000
    H1       H        0.37117    0.41750    0.26786    1.000
    C2       C        0.31540    0.44610    0.28226    1.000
    H2       H        0.27980    0.41050    0.27721    1.000
    C3       C        0.31320    0.49330    0.29454    1.000
    H3       H        0.27630    0.49160    0.29782    1.000
    C4       C        0.36590    0.54390    0.30215    1.000
    H4       H        0.36570    0.57790    0.31034    1.000
    C5       C        0.41855    0.54450    0.29771    1.000
    C6       C        0.47497    0.59399    0.30864    1.000
    C7       C        0.55540    0.68270    0.33041    1.000
    H5       H        0.58230    0.72010    0.33957    1.000
    C8       C        0.57035    0.64125    0.32157    1.000
    C9       C        0.62864    0.64573    0.32431    1.000
    C10      C        0.63386    0.60079    0.33903    1.000
    C11      C        0.68828    0.60278    0.33948    1.000
    C12      C        0.73723    0.65127    0.32505    1.000
    H6       H        0.77437    0.65265    0.32502    1.000
    C13      C        0.73313    0.69669    0.31099    1.000
    C14      C        0.67837    0.69330    0.31114    1.000
    H7       H        0.67485    0.72472    0.30188    1.000
    C15      C        0.78610    0.74740    0.29535    1.000
    H8       H        0.82220    0.75440    0.30650    1.000
    H9       H        0.78810    0.73770    0.27290    1.000
    H10      H        0.78270    0.78310    0.29650    1.000
    C16      C        0.56420    0.56470    0.38079    1.000
    H11      H        0.59740    0.59730    0.39210    1.000
    H12      H        0.53450    0.57600    0.37565    1.000
    H13      H        0.54620    0.52930    0.39440    1.000
    C17      C        0.69528    0.55489    0.35439    1.000
    C18      C        0.65375    0.49677    0.35677    1.000
    H14      H        0.61384    0.48045    0.34988    1.000
    C19      C        0.74931    0.52050    0.37672    1.000
    C20      C        0.80234    0.52181    0.38985    1.000
    C21      C        0.80259    0.46956    0.39627    1.000
    H15      H        0.76806    0.43207    0.39302    1.000
    C22      C        0.85460    0.47364    0.40755    1.000
    H16      H        0.85650    0.43883    0.41208    1.000
    C23      C        0.90357    0.52879    0.41207    1.000
    H17      H        0.93998    0.53275    0.41928    1.000
    C24      C        0.89868    0.57827    0.40592    1.000
    H18      H        0.93229    0.61627    0.40955    1.000
    Ag2      Ag       0.50611    0.98982    0.71298    1.000
    N5       N        0.08786    0.83153    0.61809    1.000
    N6       N        0.19022    0.92392    0.64264    1.000
    N7       N        0.41641    0.90084    0.69903    1.000
    N8       N        0.51561    0.90864    0.72844    1.000
    O2       O        0.25177    0.88549    0.68524    1.000
    S3       S        0.15033    0.99279    0.65639    1.000
    S4       S        0.34830    0.79028    0.70682    1.000
    C25      C        0.03688    0.78363    0.61049    1.000
    H19      H        0.03784    0.75083    0.60119    1.000
    C26      C        0.98207    0.77943    0.61559    1.000
    H20      H        0.94647    0.74383    0.61054    1.000
    C27      C        0.97987    0.82663    0.62787    1.000
    H21      H        0.94297    0.82493    0.63115    1.000
    C28      C        0.03257    0.87723    0.63548    1.000
    H22      H        0.03237    0.91123    0.64367    1.000
    C29      C        0.08522    0.87783    0.63104    1.000
    C30      C        0.14164    0.92732    0.64197    1.000
    C31      C        0.22207    0.01603    0.66374    1.000
    H23      H        0.24897    0.05343    0.67290    1.000
    C32      C        0.23702    0.97458    0.65490    1.000
    C33      C        0.29531    0.97906    0.65764    1.000
    C34      C        0.30053    0.93412    0.67236    1.000
    C35      C        0.35495    0.93611    0.67281    1.000
    C36      C        0.40390    0.98460    0.65838    1.000
    H24      H        0.44104    0.98598    0.65835    1.000
    C37      C        0.39980    0.03002    0.64432    1.000
    C38      C        0.34504    0.02663    0.64447    1.000
    H25      H        0.34152    0.05805    0.63521    1.000
    C39      C        0.45277    0.08073    0.62868    1.000
    H26      H        0.48887    0.08773    0.63983    1.000
    H27      H        0.45477    0.07103    0.60623    1.000
    H28      H        0.44937    0.11643    0.62983    1.000
    C40      C        0.23087    0.89803    0.71412    1.000
    H29      H        0.26407    0.93063    0.72543    1.000
    H30      H        0.20117    0.90933    0.70898    1.000
    H31      H        0.21287    0.86263    0.72773    1.000
    C41      C        0.36195    0.88822    0.68772    1.000
    C42      C        0.32042    0.83010    0.69010    1.000
    H32      H        0.28051    0.81378    0.68321    1.000
    C43      C        0.41598    0.85383    0.71005    1.000
    C44      C        0.46901    0.85514    0.72318    1.000
    C45      C        0.46926    0.80289    0.72960    1.000
    H33      H        0.43473    0.76540    0.72635    1.000
    C46      C        0.52127    0.80697    0.74088    1.000
    H34      H        0.52317    0.77216    0.74541    1.000
    C47      C        0.57024    0.86212    0.74540    1.000
    H35      H        0.60665    0.86608    0.75261    1.000
    C48      C        0.56535    0.91160    0.73925    1.000
    H36      H        0.59896    0.94960    0.74288    1.000
    Ag3      Ag       0.17278    0.32315    0.04631    1.000
    N9       N        0.75452    0.16487    0.95143    1.000
    N10      N        0.85688    0.25726    0.97598    1.000
    N11      N        0.08307    0.23418    0.03237    1.000
    N12      N        0.18227    0.24198    0.06178    1.000
    O3       O        0.91843    0.21883    0.01858    1.000
    S5       S        0.81699    0.32613    0.98973    1.000
    S6       S        0.01496    0.12362    0.04016    1.000
    C49      C        0.70354    0.11697    0.94383    1.000
    H37      H        0.70450    0.08417    0.93453    1.000
    C50      C        0.64873    0.11277    0.94893    1.000
    H38      H        0.61313    0.07717    0.94388    1.000
    C51      C        0.64653    0.15997    0.96121    1.000
    H39      H        0.60963    0.15827    0.96449    1.000
    C52      C        0.69923    0.21057    0.96882    1.000
    H40      H        0.69903    0.24457    0.97701    1.000
    C53      C        0.75188    0.21117    0.96438    1.000
    C54      C        0.80830    0.26066    0.97531    1.000
    C55      C        0.88873    0.34937    0.99708    1.000
    H41      H        0.91563    0.38677    0.00624    1.000
    C56      C        0.90368    0.30792    0.98824    1.000
    C57      C        0.96197    0.31240    0.99098    1.000
    C58      C        0.96719    0.26746    0.00570    1.000
    C59      C        0.02161    0.26945    0.00615    1.000
    C60      C        0.07056    0.31794    0.99172    1.000
    H42      H        0.10770    0.31932    0.99169    1.000
    C61      C        0.06646    0.36336    0.97766    1.000
    C62      C        0.01170    0.35997    0.97781    1.000
    H43      H        0.00818    0.39139    0.96855    1.000
    C63      C        0.11943    0.41407    0.96202    1.000
    H44      H        0.15553    0.42107    0.97317    1.000
    H45      H        0.12143    0.40437    0.93957    1.000
    H46      H        0.11603    0.44977    0.96317    1.000
    C64      C        0.89753    0.23137    0.04746    1.000
    H47      H        0.93073    0.26397    0.05877    1.000
    H48      H        0.86783    0.24267    0.04232    1.000
    H49      H        0.87953    0.19597    0.06107    1.000
    C65      C        0.02861    0.22156    0.02106    1.000
    C66      C        0.98708    0.16344    0.02344    1.000
    H50      H        0.94717    0.14712    0.01655    1.000
    C67      C        0.08264    0.18717    0.04339    1.000
    C68      C        0.13567    0.18848    0.05652    1.000
    C69      C        0.13592    0.13623    0.06294    1.000
    H51      H        0.10139    0.09874    0.05969    1.000
    C70      C        0.18793    0.14031    0.07422    1.000
    H52      H        0.18983    0.10550    0.07875    1.000
    C71      C        0.23690    0.19546    0.07874    1.000
    H53      H        0.27331    0.19942    0.08595    1.000
    C72      C        0.23201    0.24494    0.07259    1.000
    H54      H        0.26562    0.28294    0.07622    1.000
    Ag4      Ag       0.34351    0.18296    0.37964    1.000
    N13      N        0.50180    0.92299    0.28476    1.000
    N14      N        0.40941    0.93296    0.30931    1.000
    N15      N        0.43249    0.18223    0.36570    1.000
    N16      N        0.42469    0.27363    0.39511    1.000
    O4       O        0.44784    0.03294    0.35191    1.000
    S7       S        0.34054    0.82420    0.32306    1.000
    S8       S        0.54305    0.22468    0.37349    1.000
    C73      C        0.54970    0.91991    0.27716    1.000
    H55      H        0.58250    0.95367    0.26786    1.000
    C74      C        0.55390    0.86930    0.28226    1.000
    H56      H        0.58950    0.86930    0.27721    1.000
    C75      C        0.50670    0.81990    0.29454    1.000
    H57      H        0.50840    0.78470    0.29782    1.000
    C76      C        0.45610    0.82200    0.30215    1.000
    H58      H        0.42210    0.78780    0.31034    1.000
    C77      C        0.45550    0.87405    0.29771    1.000
    C78      C        0.40601    0.88098    0.30864    1.000
    C79      C        0.31730    0.87270    0.33041    1.000
    H59      H        0.27990    0.86220    0.33957    1.000
    C80      C        0.35875    0.92910    0.32157    1.000
    C81      C        0.35427    0.98291    0.32431    1.000
    C82      C        0.39921    0.03307    0.33903    1.000
    C83      C        0.39722    0.08550    0.33948    1.000
    C84      C        0.34873    0.08596    0.32505    1.000
    H60      H        0.34735    0.12172    0.32502    1.000
    C85      C        0.30331    0.03644    0.31099    1.000
    C86      C        0.30670    0.98507    0.31114    1.000
    H61      H        0.27528    0.95013    0.30188    1.000
    C87      C        0.25260    0.03870    0.29535    1.000
    H62      H        0.24560    0.06780    0.30650    1.000
    H63      H        0.26230    0.05040    0.27290    1.000
    H64      H        0.21690    0.99960    0.29650    1.000
    C88      C        0.43530    0.99950    0.38079    1.000
    H65      H        0.40270    0.00010    0.39210    1.000
    H66      H        0.42400    0.95850    0.37565    1.000
    H67      H        0.47070    0.01690    0.39440    1.000
    C89      C        0.44511    0.14039    0.35439    1.000
    C90      C        0.50323    0.15698    0.35677    1.000
    H68      H        0.51955    0.13339    0.34988    1.000
    C91      C        0.47950    0.22881    0.37672    1.000
    C92      C        0.47819    0.28053    0.38985    1.000
    C93      C        0.53044    0.33303    0.39627    1.000
    H69      H        0.56793    0.33599    0.39302    1.000
    C94      C        0.52636    0.38096    0.40755    1.000
    H70      H        0.56117    0.41767    0.41208    1.000
    C95      C        0.47121    0.37478    0.41207    1.000
    H71      H        0.46725    0.40723    0.41928    1.000
    C96      C        0.42173    0.32041    0.40592    1.000
    H72      H        0.38373    0.31602    0.40955    1.000
    Ag5      Ag       0.01018    0.51629    0.71298    1.000
    N17      N        0.16847    0.25632    0.61809    1.000
    N18      N        0.07608    0.26629    0.64264    1.000
    N19      N        0.09916    0.51556    0.69903    1.000
    N20      N        0.09136    0.60696    0.72844    1.000
    O5       O        0.11451    0.36627    0.68524    1.000
    S9       S        0.00721    0.15753    0.65639    1.000
    S10      S        0.20972    0.55801    0.70682    1.000
    C97      C        0.21637    0.25324    0.61049    1.000
    H73      H        0.24917    0.28700    0.60119    1.000
    C98      C        0.22057    0.20263    0.61559    1.000
    H74      H        0.25617    0.20263    0.61054    1.000
    C99      C        0.17337    0.15323    0.62787    1.000
    H75      H        0.17507    0.11803    0.63115    1.000
    C100     C        0.12277    0.15533    0.63548    1.000
    H76      H        0.08877    0.12113    0.64367    1.000
    C101     C        0.12217    0.20738    0.63104    1.000
    C102     C        0.07268    0.21431    0.64197    1.000
    C103     C        0.98397    0.20603    0.66374    1.000
    H77      H        0.94657    0.19553    0.67290    1.000
    C104     C        0.02542    0.26243    0.65490    1.000
    C105     C        0.02094    0.31624    0.65764    1.000
    C106     C        0.06588    0.36640    0.67236    1.000
    C107     C        0.06389    0.41883    0.67281    1.000
    C108     C        0.01540    0.41929    0.65838    1.000
    H78      H        0.01402    0.45505    0.65835    1.000
    C109     C        0.96998    0.36977    0.64432    1.000
    C110     C        0.97337    0.31840    0.64447    1.000
    H79      H        0.94195    0.28346    0.63521    1.000
    C111     C        0.91927    0.37203    0.62868    1.000
    H80      H        0.91227    0.40113    0.63983    1.000
    H81      H        0.92897    0.38373    0.60623    1.000
    H82      H        0.88357    0.33293    0.62983    1.000
    C112     C        0.10197    0.33283    0.71412    1.000
    H83      H        0.06937    0.33343    0.72543    1.000
    H84      H        0.09067    0.29183    0.70898    1.000
    H85      H        0.13737    0.35023    0.72773    1.000
    C113     C        0.11178    0.47372    0.68772    1.000
    C114     C        0.16990    0.49031    0.69010    1.000
    H86      H        0.18622    0.46672    0.68321    1.000
    C115     C        0.14617    0.56214    0.71005    1.000
    C116     C        0.14486    0.61386    0.72318    1.000
    C117     C        0.19711    0.66636    0.72960    1.000
    H87      H        0.23460    0.66932    0.72635    1.000
    C118     C        0.19303    0.71429    0.74088    1.000
    H88      H        0.22784    0.75100    0.74541    1.000
    C119     C        0.13788    0.70811    0.74540    1.000
    H89      H        0.13392    0.74056    0.75261    1.000
    C120     C        0.08840    0.65374    0.73925    1.000
    H90      H        0.05040    0.64935    0.74288    1.000
    Ag6      Ag       0.67685    0.84963    0.04631    1.000
    N21      N        0.83513    0.58966    0.95143    1.000
    N22      N        0.74274    0.59963    0.97598    1.000
    N23      N        0.76582    0.84890    0.03237    1.000
    N24      N        0.75802    0.94030    0.06178    1.000
    O6       O        0.78117    0.69961    0.01858    1.000
    S11      S        0.67387    0.49087    0.98973    1.000
    S12      S        0.87638    0.89135    0.04016    1.000
    C121     C        0.88303    0.58658    0.94383    1.000
    H91      H        0.91583    0.62034    0.93453    1.000
    C122     C        0.88723    0.53597    0.94893    1.000
    H92      H        0.92283    0.53597    0.94388    1.000
    C123     C        0.84003    0.48657    0.96121    1.000
    H93      H        0.84173    0.45137    0.96449    1.000
    C124     C        0.78943    0.48867    0.96882    1.000
    H94      H        0.75543    0.45447    0.97701    1.000
    C125     C        0.78883    0.54072    0.96438    1.000
    C126     C        0.73934    0.54765    0.97531    1.000
    C127     C        0.65063    0.53937    0.99708    1.000
    H95      H        0.61323    0.52887    0.00624    1.000
    C128     C        0.69208    0.59577    0.98824    1.000
    C129     C        0.68760    0.64958    0.99098    1.000
    C130     C        0.73254    0.69974    0.00570    1.000
    C131     C        0.73055    0.75217    0.00615    1.000
    C132     C        0.68206    0.75263    0.99172    1.000
    H96      H        0.68068    0.78839    0.99169    1.000
    C133     C        0.63664    0.70311    0.97766    1.000
    C134     C        0.64003    0.65174    0.97781    1.000
    H97      H        0.60861    0.61680    0.96855    1.000
    C135     C        0.58593    0.70537    0.96202    1.000
    H98      H        0.57893    0.73447    0.97317    1.000
    H99      H        0.59563    0.71707    0.93957    1.000
    H100     H        0.55023    0.66627    0.96317    1.000
    C136     C        0.76863    0.66617    0.04746    1.000
    H101     H        0.73603    0.66677    0.05877    1.000
    H102     H        0.75733    0.62517    0.04232    1.000
    H103     H        0.80403    0.68357    0.06107    1.000
    C137     C        0.77844    0.80706    0.02106    1.000
    C138     C        0.83656    0.82365    0.02344    1.000
    H104     H        0.85288    0.80006    0.01655    1.000
    C139     C        0.81283    0.89548    0.04339    1.000
    C140     C        0.81152    0.94720    0.05652    1.000
    C141     C        0.86377    0.99970    0.06294    1.000
    H105     H        0.90126    0.00266    0.05969    1.000
    C142     C        0.85969    0.04763    0.07422    1.000
    H106     H        0.89450    0.08434    0.07875    1.000
    C143     C        0.80454    0.04145    0.07874    1.000
    H107     H        0.80058    0.07390    0.08595    1.000
    C144     C        0.75506    0.98708    0.07259    1.000
    H108     H        0.71706    0.98269    0.07622    1.000
    Ag7      Ag       0.81704    0.16055    0.37964    1.000
    N25      N        0.07701    0.57881    0.28476    1.000
    N26      N        0.06704    0.47645    0.30931    1.000
    N27      N        0.81777    0.25026    0.36570    1.000
    N28      N        0.72637    0.15106    0.39511    1.000
    O7       O        0.96706    0.41490    0.35191    1.000
    S13      S        0.17580    0.51634    0.32306    1.000
    S14      S        0.77532    0.31837    0.37349    1.000
    C145     C        0.08009    0.62979    0.27716    1.000
    H109     H        0.04633    0.62883    0.26786    1.000
    C146     C        0.13070    0.68460    0.28226    1.000
    H110     H        0.13070    0.72020    0.27721    1.000
    C147     C        0.18010    0.68680    0.29454    1.000
    H111     H        0.21530    0.72370    0.29782    1.000
    C148     C        0.17800    0.63410    0.30215    1.000
    H112     H        0.21220    0.63430    0.31034    1.000
    C149     C        0.12595    0.58145    0.29771    1.000
    C150     C        0.11902    0.52503    0.30864    1.000
    C151     C        0.12730    0.44460    0.33041    1.000
    H113     H        0.13780    0.41770    0.33957    1.000
    C152     C        0.07090    0.42965    0.32157    1.000
    C153     C        0.01709    0.37136    0.32431    1.000
    C154     C        0.96693    0.36614    0.33903    1.000
    C155     C        0.91450    0.31172    0.33948    1.000
    C156     C        0.91404    0.26277    0.32505    1.000
    H114     H        0.87828    0.22563    0.32502    1.000
    C157     C        0.96356    0.26687    0.31099    1.000
    C158     C        0.01493    0.32163    0.31114    1.000
    H115     H        0.04987    0.32515    0.30188    1.000
    C159     C        0.96130    0.21390    0.29535    1.000
    H116     H        0.93220    0.17780    0.30650    1.000
    H117     H        0.94960    0.21190    0.27290    1.000
    H118     H        0.00040    0.21730    0.29650    1.000
    C160     C        0.00050    0.43580    0.38079    1.000
    H119     H        0.99990    0.40260    0.39210    1.000
    H120     H        0.04150    0.46550    0.37565    1.000
    H121     H        0.98310    0.45380    0.39440    1.000
    C161     C        0.85961    0.30472    0.35439    1.000
    C162     C        0.84302    0.34625    0.35677    1.000
    H122     H        0.86661    0.38616    0.34988    1.000
    C163     C        0.77119    0.25069    0.37672    1.000
    C164     C        0.71947    0.19766    0.38985    1.000
    C165     C        0.66697    0.19741    0.39627    1.000
    H123     H        0.66401    0.23194    0.39302    1.000
    C166     C        0.61904    0.14540    0.40755    1.000
    H124     H        0.58233    0.14350    0.41208    1.000
    C167     C        0.62522    0.09643    0.41207    1.000
    H125     H        0.59277    0.06002    0.41928    1.000
    C168     C        0.67959    0.10132    0.40592    1.000
    H126     H        0.68398    0.06771    0.40955    1.000
    Ag8      Ag       0.48371    0.49389    0.71298    1.000
    N29      N        0.74368    0.91214    0.61809    1.000
    N30      N        0.73371    0.80978    0.64264    1.000
    N31      N        0.48444    0.58359    0.69903    1.000
    N32      N        0.39304    0.48439    0.72844    1.000
    O8       O        0.63373    0.74823    0.68524    1.000
    S15      S        0.84247    0.84967    0.65639    1.000
    S16      S        0.44199    0.65170    0.70682    1.000
    C169     C        0.74676    0.96312    0.61049    1.000
    H127     H        0.71300    0.96216    0.60119    1.000
    C170     C        0.79737    0.01793    0.61559    1.000
    H128     H        0.79737    0.05353    0.61054    1.000
    C171     C        0.84677    0.02013    0.62787    1.000
    H129     H        0.88197    0.05703    0.63115    1.000
    C172     C        0.84467    0.96743    0.63548    1.000
    H130     H        0.87887    0.96763    0.64367    1.000
    C173     C        0.79262    0.91478    0.63104    1.000
    C174     C        0.78569    0.85836    0.64197    1.000
    C175     C        0.79397    0.77793    0.66374    1.000
    H131     H        0.80447    0.75103    0.67290    1.000
    C176     C        0.73757    0.76298    0.65490    1.000
    C177     C        0.68376    0.70469    0.65764    1.000
    C178     C        0.63360    0.69947    0.67236    1.000
    C179     C        0.58117    0.64505    0.67281    1.000
    C180     C        0.58071    0.59610    0.65838    1.000
    H132     H        0.54495    0.55896    0.65835    1.000
    C181     C        0.63023    0.60020    0.64432    1.000
    C182     C        0.68160    0.65496    0.64447    1.000
    H133     H        0.71654    0.65848    0.63521    1.000
    C183     C        0.62797    0.54723    0.62868    1.000
    H134     H        0.59887    0.51113    0.63983    1.000
    H135     H        0.61627    0.54523    0.60623    1.000
    H136     H        0.66707    0.55063    0.62983    1.000
    C184     C        0.66717    0.76913    0.71412    1.000
    H137     H        0.66657    0.73593    0.72543    1.000
    H138     H        0.70817    0.79883    0.70898    1.000
    H139     H        0.64977    0.78713    0.72773    1.000
    C185     C        0.52628    0.63805    0.68772    1.000
    C186     C        0.50969    0.67958    0.69010    1.000
    H140     H        0.53328    0.71949    0.68321    1.000
    C187     C        0.43786    0.58402    0.71005    1.000
    C188     C        0.38614    0.53099    0.72318    1.000
    C189     C        0.33364    0.53074    0.72960    1.000
    H141     H        0.33068    0.56527    0.72635    1.000
    C190     C        0.28571    0.47873    0.74088    1.000
    H142     H        0.24900    0.47683    0.74541    1.000
    C191     C        0.29189    0.42976    0.74540    1.000
    H143     H        0.25944    0.39335    0.75261    1.000
    C192     C        0.34626    0.43465    0.73925    1.000
    H144     H        0.35065    0.40104    0.74288    1.000
    Ag9      Ag       0.15037    0.82722    0.04631    1.000
    N33      N        0.41034    0.24548    0.95143    1.000
    N34      N        0.40037    0.14312    0.97598    1.000
    N35      N        0.15110    0.91693    0.03237    1.000
    N36      N        0.05970    0.81773    0.06178    1.000
    O9       O        0.30039    0.08157    0.01858    1.000
    S17      S        0.50913    0.18301    0.98973    1.000
    S18      S        0.10865    0.98504    0.04016    1.000
    C193     C        0.41342    0.29646    0.94383    1.000
    H145     H        0.37966    0.29550    0.93453    1.000
    C194     C        0.46403    0.35127    0.94893    1.000
    H146     H        0.46403    0.38687    0.94388    1.000
    C195     C        0.51343    0.35347    0.96121    1.000
    H147     H        0.54863    0.39037    0.96449    1.000
    C196     C        0.51133    0.30077    0.96882    1.000
    H148     H        0.54553    0.30097    0.97701    1.000
    C197     C        0.45928    0.24812    0.96438    1.000
    C198     C        0.45235    0.19170    0.97531    1.000
    C199     C        0.46063    0.11127    0.99708    1.000
    H149     H        0.47113    0.08437    0.00624    1.000
    C200     C        0.40423    0.09632    0.98824    1.000
    C201     C        0.35042    0.03803    0.99098    1.000
    C202     C        0.30026    0.03281    0.00570    1.000
    C203     C        0.24783    0.97839    0.00615    1.000
    C204     C        0.24737    0.92944    0.99172    1.000
    H150     H        0.21161    0.89230    0.99169    1.000
    C205     C        0.29689    0.93354    0.97766    1.000
    C206     C        0.34826    0.98830    0.97781    1.000
    H151     H        0.38320    0.99182    0.96855    1.000
    C207     C        0.29463    0.88057    0.96202    1.000
    H152     H        0.26553    0.84447    0.97317    1.000
    H153     H        0.28293    0.87857    0.93957    1.000
    H154     H        0.33373    0.88397    0.96317    1.000
    C208     C        0.33383    0.10247    0.04746    1.000
    H155     H        0.33323    0.06927    0.05877    1.000
    H156     H        0.37483    0.13217    0.04232    1.000
    H157     H        0.31643    0.12047    0.06107    1.000
    C209     C        0.19294    0.97139    0.02106    1.000
    C210     C        0.17635    0.01292    0.02344    1.000
    H158     H        0.19994    0.05283    0.01655    1.000
    C211     C        0.10452    0.91736    0.04339    1.000
    C212     C        0.05280    0.86433    0.05652    1.000
    C213     C        0.00030    0.86408    0.06294    1.000
    H159     H        0.99734    0.89861    0.05969    1.000
    C214     C        0.95237    0.81207    0.07422    1.000
    H160     H        0.91566    0.81017    0.07875    1.000
    C215     C        0.95855    0.76310    0.07874    1.000
    H161     H        0.92610    0.72669    0.08595    1.000
    C216     C        0.01292    0.76799    0.07259    1.000
    H162     H        0.01731    0.73438    0.07622    1.000
    Ag10     Ag       0.65649    0.83945    0.12036    1.000
    N37      N        0.49820    0.42119    0.21524    1.000
    N38      N        0.59059    0.52355    0.19069    1.000
    N39      N        0.56751    0.74974    0.13430    1.000
    N40      N        0.57531    0.84894    0.10489    1.000
    O10      O        0.55216    0.58510    0.14809    1.000
    S19      S        0.65946    0.48366    0.17694    1.000
    S20      S        0.45695    0.68163    0.12651    1.000
    C217     C        0.45030    0.37021    0.22284    1.000
    H163     H        0.41750    0.37117    0.23214    1.000
    C218     C        0.44610    0.31540    0.21774    1.000
    H164     H        0.41050    0.27980    0.22279    1.000
    C219     C        0.49330    0.31320    0.20546    1.000
    H165     H        0.49160    0.27630    0.20218    1.000
    C220     C        0.54390    0.36590    0.19785    1.000
    H166     H        0.57790    0.36570    0.18966    1.000
    C221     C        0.54450    0.41855    0.20229    1.000
    C222     C        0.59399    0.47497    0.19136    1.000
    C223     C        0.68270    0.55540    0.16959    1.000
    H167     H        0.72010    0.58230    0.16043    1.000
    C224     C        0.64125    0.57035    0.17843    1.000
    C225     C        0.64573    0.62864    0.17569    1.000
    C226     C        0.60079    0.63386    0.16097    1.000
    C227     C        0.60278    0.68828    0.16052    1.000
    C228     C        0.65127    0.73723    0.17495    1.000
    H168     H        0.65265    0.77437    0.17498    1.000
    C229     C        0.69669    0.73313    0.18901    1.000
    C230     C        0.69330    0.67837    0.18886    1.000
    H169     H        0.72472    0.67485    0.19812    1.000
    C231     C        0.74740    0.78610    0.20465    1.000
    H170     H        0.75440    0.82220    0.19350    1.000
    H171     H        0.73770    0.78810    0.22710    1.000
    H172     H        0.78310    0.78270    0.20350    1.000
    C232     C        0.56470    0.56420    0.11921    1.000
    H173     H        0.59730    0.59740    0.10790    1.000
    H174     H        0.57600    0.53450    0.12435    1.000
    H175     H        0.52930    0.54620    0.10560    1.000
    C233     C        0.55489    0.69528    0.14561    1.000
    C234     C        0.49677    0.65375    0.14323    1.000
    H176     H        0.48045    0.61384    0.15012    1.000
    C235     C        0.52050    0.74931    0.12328    1.000
    C236     C        0.52181    0.80234    0.11015    1.000
    C237     C        0.46956    0.80259    0.10373    1.000
    H177     H        0.43207    0.76806    0.10698    1.000
    C238     C        0.47364    0.85460    0.09245    1.000
    H178     H        0.43883    0.85650    0.08792    1.000
    C239     C        0.52879    0.90357    0.08793    1.000
    H179     H        0.53275    0.93998    0.08072    1.000
    C240     C        0.57827    0.89868    0.09408    1.000
    H180     H        0.61627    0.93229    0.09045    1.000
    Ag11     Ag       0.32315    0.17278    0.45369    1.000
    N41      N        0.16487    0.75452    0.54857    1.000
    N42      N        0.25726    0.85688    0.52402    1.000
    N43      N        0.23418    0.08307    0.46763    1.000
    N44      N        0.24198    0.18227    0.43822    1.000
    O11      O        0.21883    0.91843    0.48142    1.000
    S21      S        0.32613    0.81699    0.51027    1.000
    S22      S        0.12362    0.01496    0.45984    1.000
    C241     C        0.11697    0.70354    0.55617    1.000
    H181     H        0.08417    0.70450    0.56547    1.000
    C242     C        0.11277    0.64873    0.55107    1.000
    H182     H        0.07717    0.61313    0.55612    1.000
    C243     C        0.15997    0.64653    0.53879    1.000
    H183     H        0.15827    0.60963    0.53551    1.000
    C244     C        0.21057    0.69923    0.53118    1.000
    H184     H        0.24457    0.69903    0.52299    1.000
    C245     C        0.21117    0.75188    0.53562    1.000
    C246     C        0.26066    0.80830    0.52469    1.000
    C247     C        0.34937    0.88873    0.50292    1.000
    H185     H        0.38677    0.91563    0.49376    1.000
    C248     C        0.30792    0.90368    0.51176    1.000
    C249     C        0.31240    0.96197    0.50902    1.000
    C250     C        0.26746    0.96719    0.49430    1.000
    C251     C        0.26945    0.02161    0.49385    1.000
    C252     C        0.31794    0.07056    0.50828    1.000
    H186     H        0.31932    0.10770    0.50831    1.000
    C253     C        0.36336    0.06646    0.52234    1.000
    C254     C        0.35997    0.01170    0.52219    1.000
    H187     H        0.39139    0.00818    0.53145    1.000
    C255     C        0.41407    0.11943    0.53798    1.000
    H188     H        0.42107    0.15553    0.52683    1.000
    H189     H        0.40437    0.12143    0.56043    1.000
    H190     H        0.44977    0.11603    0.53683    1.000
    C256     C        0.23137    0.89753    0.45254    1.000
    H191     H        0.26397    0.93073    0.44123    1.000
    H192     H        0.24267    0.86783    0.45768    1.000
    H193     H        0.19597    0.87953    0.43893    1.000
    C257     C        0.22156    0.02861    0.47894    1.000
    C258     C        0.16344    0.98708    0.47656    1.000
    H194     H        0.14712    0.94717    0.48345    1.000
    C259     C        0.18717    0.08264    0.45661    1.000
    C260     C        0.18848    0.13567    0.44348    1.000
    C261     C        0.13623    0.13592    0.43706    1.000
    H195     H        0.09874    0.10139    0.44031    1.000
    C262     C        0.14031    0.18793    0.42578    1.000
    H196     H        0.10550    0.18983    0.42125    1.000
    C263     C        0.19546    0.23690    0.42126    1.000
    H197     H        0.19942    0.27331    0.41405    1.000
    C264     C        0.24494    0.23201    0.42741    1.000
    H198     H        0.28294    0.26562    0.42378    1.000
    Ag12     Ag       0.98982    0.50611    0.78702    1.000
    N45      N        0.83153    0.08786    0.88191    1.000
    N46      N        0.92392    0.19022    0.85736    1.000
    N47      N        0.90084    0.41641    0.80097    1.000
    N48      N        0.90864    0.51561    0.77156    1.000
    O12      O        0.88549    0.25177    0.81476    1.000
    S23      S        0.99279    0.15033    0.84361    1.000
    S24      S        0.79028    0.34830    0.79318    1.000
    C265     C        0.78363    0.03688    0.88951    1.000
    H199     H        0.75083    0.03784    0.89881    1.000
    C266     C        0.77943    0.98207    0.88441    1.000
    H200     H        0.74383    0.94647    0.88946    1.000
    C267     C        0.82663    0.97987    0.87213    1.000
    H201     H        0.82493    0.94297    0.86885    1.000
    C268     C        0.87723    0.03257    0.86452    1.000
    H202     H        0.91123    0.03237    0.85633    1.000
    C269     C        0.87783    0.08522    0.86896    1.000
    C270     C        0.92732    0.14164    0.85803    1.000
    C271     C        0.01603    0.22207    0.83626    1.000
    H203     H        0.05343    0.24897    0.82710    1.000
    C272     C        0.97458    0.23702    0.84510    1.000
    C273     C        0.97906    0.29531    0.84236    1.000
    C274     C        0.93412    0.30053    0.82764    1.000
    C275     C        0.93611    0.35495    0.82719    1.000
    C276     C        0.98460    0.40390    0.84162    1.000
    H204     H        0.98598    0.44104    0.84165    1.000
    C277     C        0.03002    0.39980    0.85568    1.000
    C278     C        0.02663    0.34504    0.85553    1.000
    H205     H        0.05805    0.34152    0.86479    1.000
    C279     C        0.08073    0.45277    0.87132    1.000
    H206     H        0.08773    0.48887    0.86017    1.000
    H207     H        0.07103    0.45477    0.89377    1.000
    H208     H        0.11643    0.44937    0.87017    1.000
    C280     C        0.89803    0.23087    0.78588    1.000
    H209     H        0.93063    0.26407    0.77457    1.000
    H210     H        0.90933    0.20117    0.79102    1.000
    H211     H        0.86263    0.21287    0.77227    1.000
    C281     C        0.88822    0.36195    0.81228    1.000
    C282     C        0.83010    0.32042    0.80990    1.000
    H212     H        0.81378    0.28051    0.81679    1.000
    C283     C        0.85383    0.41598    0.78995    1.000
    C284     C        0.85514    0.46901    0.77682    1.000
    C285     C        0.80289    0.46926    0.77040    1.000
    H213     H        0.76540    0.43473    0.77365    1.000
    C286     C        0.80697    0.52127    0.75912    1.000
    H214     H        0.77216    0.52317    0.75459    1.000
    C287     C        0.86212    0.57024    0.75460    1.000
    H215     H        0.86608    0.60665    0.74739    1.000
    C288     C        0.91160    0.56535    0.76075    1.000
    H216     H        0.94960    0.59896    0.75712    1.000
    Ag13     Ag       0.18296    0.34351    0.12036    1.000
    N49      N        0.92299    0.50180    0.21524    1.000
    N50      N        0.93296    0.40941    0.19069    1.000
    N51      N        0.18223    0.43249    0.13430    1.000
    N52      N        0.27363    0.42469    0.10489    1.000
    O13      O        0.03294    0.44784    0.14809    1.000
    S25      S        0.82420    0.34054    0.17694    1.000
    S26      S        0.22468    0.54305    0.12651    1.000
    C289     C        0.91991    0.54970    0.22284    1.000
    H217     H        0.95367    0.58250    0.23214    1.000
    C290     C        0.86930    0.55390    0.21774    1.000
    H218     H        0.86930    0.58950    0.22279    1.000
    C291     C        0.81990    0.50670    0.20546    1.000
    H219     H        0.78470    0.50840    0.20218    1.000
    C292     C        0.82200    0.45610    0.19785    1.000
    H220     H        0.78780    0.42210    0.18966    1.000
    C293     C        0.87405    0.45550    0.20229    1.000
    C294     C        0.88098    0.40601    0.19136    1.000
    C295     C        0.87270    0.31730    0.16959    1.000
    H221     H        0.86220    0.27990    0.16043    1.000
    C296     C        0.92910    0.35875    0.17843    1.000
    C297     C        0.98291    0.35427    0.17569    1.000
    C298     C        0.03307    0.39921    0.16097    1.000
    C299     C        0.08550    0.39722    0.16052    1.000
    C300     C        0.08596    0.34873    0.17495    1.000
    H222     H        0.12172    0.34735    0.17498    1.000
    C301     C        0.03644    0.30331    0.18901    1.000
    C302     C        0.98507    0.30670    0.18886    1.000
    H223     H        0.95013    0.27528    0.19812    1.000
    C303     C        0.03870    0.25260    0.20465    1.000
    H224     H        0.06780    0.24560    0.19350    1.000
    H225     H        0.05040    0.26230    0.22710    1.000
    H226     H        0.99960    0.21690    0.20350    1.000
    C304     C        0.99950    0.43530    0.11921    1.000
    H227     H        0.00010    0.40270    0.10790    1.000
    H228     H        0.95850    0.42400    0.12435    1.000
    H229     H        0.01690    0.47070    0.10560    1.000
    C305     C        0.14039    0.44511    0.14561    1.000
    C306     C        0.15698    0.50323    0.14323    1.000
    H230     H        0.13339    0.51955    0.15012    1.000
    C307     C        0.22881    0.47950    0.12328    1.000
    C308     C        0.28053    0.47819    0.11015    1.000
    C309     C        0.33303    0.53044    0.10373    1.000
    H231     H        0.33599    0.56793    0.10698    1.000
    C310     C        0.38096    0.52636    0.09245    1.000
    H232     H        0.41767    0.56117    0.08792    1.000
    C311     C        0.37478    0.47121    0.08793    1.000
    H233     H        0.40723    0.46725    0.08072    1.000
    C312     C        0.32041    0.42173    0.09408    1.000
    H234     H        0.31602    0.38373    0.09045    1.000
    Ag14     Ag       0.84963    0.67685    0.45369    1.000
    N53      N        0.58966    0.83513    0.54857    1.000
    N54      N        0.59963    0.74274    0.52402    1.000
    N55      N        0.84890    0.76582    0.46763    1.000
    N56      N        0.94030    0.75802    0.43822    1.000
    O14      O        0.69961    0.78117    0.48142    1.000
    S27      S        0.49087    0.67387    0.51027    1.000
    S28      S        0.89135    0.87638    0.45984    1.000
    C313     C        0.58658    0.88303    0.55617    1.000
    H235     H        0.62034    0.91583    0.56547    1.000
    C314     C        0.53597    0.88723    0.55107    1.000
    H236     H        0.53597    0.92283    0.55612    1.000
    C315     C        0.48657    0.84003    0.53879    1.000
    H237     H        0.45137    0.84173    0.53551    1.000
    C316     C        0.48867    0.78943    0.53118    1.000
    H238     H        0.45447    0.75543    0.52299    1.000
    C317     C        0.54072    0.78883    0.53562    1.000
    C318     C        0.54765    0.73934    0.52469    1.000
    C319     C        0.53937    0.65063    0.50292    1.000
    H239     H        0.52887    0.61323    0.49376    1.000
    C320     C        0.59577    0.69208    0.51176    1.000
    C321     C        0.64958    0.68760    0.50902    1.000
    C322     C        0.69974    0.73254    0.49430    1.000
    C323     C        0.75217    0.73055    0.49385    1.000
    C324     C        0.75263    0.68206    0.50828    1.000
    H240     H        0.78839    0.68068    0.50831    1.000
    C325     C        0.70311    0.63664    0.52234    1.000
    C326     C        0.65174    0.64003    0.52219    1.000
    H241     H        0.61680    0.60861    0.53145    1.000
    C327     C        0.70537    0.58593    0.53798    1.000
    H242     H        0.73447    0.57893    0.52683    1.000
    H243     H        0.71707    0.59563    0.56043    1.000
    H244     H        0.66627    0.55023    0.53683    1.000
    C328     C        0.66617    0.76863    0.45254    1.000
    H245     H        0.66677    0.73603    0.44123    1.000
    H246     H        0.62517    0.75733    0.45768    1.000
    H247     H        0.68357    0.80403    0.43893    1.000
    C329     C        0.80706    0.77844    0.47894    1.000
    C330     C        0.82365    0.83656    0.47656    1.000
    H248     H        0.80006    0.85288    0.48345    1.000
    C331     C        0.89548    0.81283    0.45661    1.000
    C332     C        0.94720    0.81152    0.44348    1.000
    C333     C        0.99970    0.86377    0.43706    1.000
    H249     H        0.00266    0.90126    0.44031    1.000
    C334     C        0.04763    0.85969    0.42578    1.000
    H250     H        0.08434    0.89450    0.42125    1.000
    C335     C        0.04145    0.80454    0.42126    1.000
    H251     H        0.07390    0.80058    0.41405    1.000
    C336     C        0.98708    0.75506    0.42741    1.000
    H252     H        0.98269    0.71706    0.42378    1.000
    Ag15     Ag       0.51629    0.01018    0.78702    1.000
    N57      N        0.25632    0.16847    0.88191    1.000
    N58      N        0.26629    0.07608    0.85736    1.000
    N59      N        0.51556    0.09916    0.80097    1.000
    N60      N        0.60696    0.09136    0.77156    1.000
    O15      O        0.36627    0.11451    0.81476    1.000
    S29      S        0.15753    0.00721    0.84361    1.000
    S30      S        0.55801    0.20972    0.79318    1.000
    C337     C        0.25324    0.21637    0.88951    1.000
    H253     H        0.28700    0.24917    0.89881    1.000
    C338     C        0.20263    0.22057    0.88441    1.000
    H254     H        0.20263    0.25617    0.88946    1.000
    C339     C        0.15323    0.17337    0.87213    1.000
    H255     H        0.11803    0.17507    0.86885    1.000
    C340     C        0.15533    0.12277    0.86452    1.000
    H256     H        0.12113    0.08877    0.85633    1.000
    C341     C        0.20738    0.12217    0.86896    1.000
    C342     C        0.21431    0.07268    0.85803    1.000
    C343     C        0.20603    0.98397    0.83626    1.000
    H257     H        0.19553    0.94657    0.82710    1.000
    C344     C        0.26243    0.02542    0.84510    1.000
    C345     C        0.31624    0.02094    0.84236    1.000
    C346     C        0.36640    0.06588    0.82764    1.000
    C347     C        0.41883    0.06389    0.82719    1.000
    C348     C        0.41929    0.01540    0.84162    1.000
    H258     H        0.45505    0.01402    0.84165    1.000
    C349     C        0.36977    0.96998    0.85568    1.000
    C350     C        0.31840    0.97337    0.85553    1.000
    H259     H        0.28346    0.94195    0.86479    1.000
    C351     C        0.37203    0.91927    0.87132    1.000
    H260     H        0.40113    0.91227    0.86017    1.000
    H261     H        0.38373    0.92897    0.89377    1.000
    H262     H        0.33293    0.88357    0.87017    1.000
    C352     C        0.33283    0.10197    0.78588    1.000
    H263     H        0.33343    0.06937    0.77457    1.000
    H264     H        0.29183    0.09067    0.79102    1.000
    H265     H        0.35023    0.13737    0.77227    1.000
    C353     C        0.47372    0.11178    0.81228    1.000
    C354     C        0.49031    0.16990    0.80990    1.000
    H266     H        0.46672    0.18622    0.81679    1.000
    C355     C        0.56214    0.14617    0.78995    1.000
    C356     C        0.61386    0.14486    0.77682    1.000
    C357     C        0.66636    0.19711    0.77040    1.000
    H267     H        0.66932    0.23460    0.77365    1.000
    C358     C        0.71429    0.19303    0.75912    1.000
    H268     H        0.75100    0.22784    0.75459    1.000
    C359     C        0.70811    0.13788    0.75460    1.000
    H269     H        0.74056    0.13392    0.74739    1.000
    C360     C        0.65374    0.08840    0.76075    1.000
    H270     H        0.64935    0.05040    0.75712    1.000
    Ag16     Ag       0.16055    0.81704    0.12036    1.000
    N61      N        0.57881    0.07701    0.21524    1.000
    N62      N        0.47645    0.06704    0.19069    1.000
    N63      N        0.25026    0.81777    0.13430    1.000
    N64      N        0.15106    0.72637    0.10489    1.000
    O16      O        0.41490    0.96706    0.14809    1.000
    S31      S        0.51634    0.17580    0.17694    1.000
    S32      S        0.31837    0.77532    0.12651    1.000
    C361     C        0.62979    0.08009    0.22284    1.000
    H271     H        0.62883    0.04633    0.23214    1.000
    C362     C        0.68460    0.13070    0.21774    1.000
    H272     H        0.72020    0.13070    0.22279    1.000
    C363     C        0.68680    0.18010    0.20546    1.000
    H273     H        0.72370    0.21530    0.20218    1.000
    C364     C        0.63410    0.17800    0.19785    1.000
    H274     H        0.63430    0.21220    0.18966    1.000
    C365     C        0.58145    0.12595    0.20229    1.000
    C366     C        0.52503    0.11902    0.19136    1.000
    C367     C        0.44460    0.12730    0.16959    1.000
    H275     H        0.41770    0.13780    0.16043    1.000
    C368     C        0.42965    0.07090    0.17843    1.000
    C369     C        0.37136    0.01709    0.17569    1.000
    C370     C        0.36614    0.96693    0.16097    1.000
    C371     C        0.31172    0.91450    0.16052    1.000
    C372     C        0.26277    0.91404    0.17495    1.000
    H276     H        0.22563    0.87828    0.17498    1.000
    C373     C        0.26687    0.96356    0.18901    1.000
    C374     C        0.32163    0.01493    0.18886    1.000
    H277     H        0.32515    0.04987    0.19812    1.000
    C375     C        0.21390    0.96130    0.20465    1.000
    H278     H        0.17780    0.93220    0.19350    1.000
    H279     H        0.21190    0.94960    0.22710    1.000
    H280     H        0.21730    0.00040    0.20350    1.000
    C376     C        0.43580    0.00050    0.11921    1.000
    H281     H        0.40260    0.99990    0.10790    1.000
    H282     H        0.46550    0.04150    0.12435    1.000
    H283     H        0.45380    0.98310    0.10560    1.000
    C377     C        0.30472    0.85961    0.14561    1.000
    C378     C        0.34625    0.84302    0.14323    1.000
    H284     H        0.38616    0.86661    0.15012    1.000
    C379     C        0.25069    0.77119    0.12328    1.000
    C380     C        0.19766    0.71947    0.11015    1.000
    C381     C        0.19741    0.66697    0.10373    1.000
    H285     H        0.23194    0.66401    0.10698    1.000
    C382     C        0.14540    0.61904    0.09245    1.000
    H286     H        0.14350    0.58233    0.08792    1.000
    C383     C        0.09643    0.62522    0.08793    1.000
    H287     H        0.06002    0.59277    0.08072    1.000
    C384     C        0.10132    0.67959    0.09408    1.000
    H288     H        0.06771    0.68398    0.09045    1.000
    Ag17     Ag       0.82722    0.15037    0.45369    1.000
    N65      N        0.24548    0.41034    0.54857    1.000
    N66      N        0.14312    0.40037    0.52402    1.000
    N67      N        0.91693    0.15110    0.46763    1.000
    N68      N        0.81773    0.05970    0.43822    1.000
    O17      O        0.08157    0.30039    0.48142    1.000
    S33      S        0.18301    0.50913    0.51027    1.000
    S34      S        0.98504    0.10865    0.45984    1.000
    C385     C        0.29646    0.41342    0.55617    1.000
    H289     H        0.29550    0.37966    0.56547    1.000
    C386     C        0.35127    0.46403    0.55107    1.000
    H290     H        0.38687    0.46403    0.55612    1.000
    C387     C        0.35347    0.51343    0.53879    1.000
    H291     H        0.39037    0.54863    0.53551    1.000
    C388     C        0.30077    0.51133    0.53118    1.000
    H292     H        0.30097    0.54553    0.52299    1.000
    C389     C        0.24812    0.45928    0.53562    1.000
    C390     C        0.19170    0.45235    0.52469    1.000
    C391     C        0.11127    0.46063    0.50292    1.000
    H293     H        0.08437    0.47113    0.49376    1.000
    C392     C        0.09632    0.40423    0.51176    1.000
    C393     C        0.03803    0.35042    0.50902    1.000
    C394     C        0.03281    0.30026    0.49430    1.000
    C395     C        0.97839    0.24783    0.49385    1.000
    C396     C        0.92944    0.24737    0.50828    1.000
    H294     H        0.89230    0.21161    0.50831    1.000
    C397     C        0.93354    0.29689    0.52234    1.000
    C398     C        0.98830    0.34826    0.52219    1.000
    H295     H        0.99182    0.38320    0.53145    1.000
    C399     C        0.88057    0.29463    0.53798    1.000
    H296     H        0.84447    0.26553    0.52683    1.000
    H297     H        0.87857    0.28293    0.56043    1.000
    H298     H        0.88397    0.33373    0.53683    1.000
    C400     C        0.10247    0.33383    0.45254    1.000
    H299     H        0.06927    0.33323    0.44123    1.000
    H300     H        0.13217    0.37483    0.45768    1.000
    H301     H        0.12047    0.31643    0.43893    1.000
    C401     C        0.97139    0.19294    0.47894    1.000
    C402     C        0.01292    0.17635    0.47656    1.000
    H302     H        0.05283    0.19994    0.48345    1.000
    C403     C        0.91736    0.10452    0.45661    1.000
    C404     C        0.86433    0.05280    0.44348    1.000
    C405     C        0.86408    0.00030    0.43706    1.000
    H303     H        0.89861    0.99734    0.44031    1.000
    C406     C        0.81207    0.95237    0.42578    1.000
    H304     H        0.81017    0.91566    0.42125    1.000
    C407     C        0.76310    0.95855    0.42126    1.000
    H305     H        0.72669    0.92610    0.41405    1.000
    C408     C        0.76799    0.01292    0.42741    1.000
    H306     H        0.73438    0.01731    0.42378    1.000
    Ag18     Ag       0.49389    0.48371    0.78702    1.000
    N69      N        0.91214    0.74368    0.88191    1.000
    N70      N        0.80978    0.73371    0.85736    1.000
    N71      N        0.58359    0.48444    0.80097    1.000
    N72      N        0.48439    0.39304    0.77156    1.000
    O18      O        0.74823    0.63373    0.81476    1.000
    S35      S        0.84967    0.84247    0.84361    1.000
    S36      S        0.65170    0.44199    0.79318    1.000
    C409     C        0.96312    0.74676    0.88951    1.000
    H307     H        0.96216    0.71300    0.89881    1.000
    C410     C        0.01793    0.79737    0.88441    1.000
    H308     H        0.05353    0.79737    0.88946    1.000
    C411     C        0.02013    0.84677    0.87213    1.000
    H309     H        0.05703    0.88197    0.86885    1.000
    C412     C        0.96743    0.84467    0.86452    1.000
    H310     H        0.96763    0.87887    0.85633    1.000
    C413     C        0.91478    0.79262    0.86896    1.000
    C414     C        0.85836    0.78569    0.85803    1.000
    C415     C        0.77793    0.79397    0.83626    1.000
    H311     H        0.75103    0.80447    0.82710    1.000
    C416     C        0.76298    0.73757    0.84510    1.000
    C417     C        0.70469    0.68376    0.84236    1.000
    C418     C        0.69947    0.63360    0.82764    1.000
    C419     C        0.64505    0.58117    0.82719    1.000
    C420     C        0.59610    0.58071    0.84162    1.000
    H312     H        0.55896    0.54495    0.84165    1.000
    C421     C        0.60020    0.63023    0.85568    1.000
    C422     C        0.65496    0.68160    0.85553    1.000
    H313     H        0.65848    0.71654    0.86479    1.000
    C423     C        0.54723    0.62797    0.87132    1.000
    H314     H        0.51113    0.59887    0.86017    1.000
    H315     H        0.54523    0.61627    0.89377    1.000
    H316     H        0.55063    0.66707    0.87017    1.000
    C424     C        0.76913    0.66717    0.78588    1.000
    H317     H        0.73593    0.66657    0.77457    1.000
    H318     H        0.79883    0.70817    0.79102    1.000
    H319     H        0.78713    0.64977    0.77227    1.000
    C425     C        0.63805    0.52628    0.81228    1.000
    C426     C        0.67958    0.50969    0.80990    1.000
    H320     H        0.71949    0.53328    0.81679    1.000
    C427     C        0.58402    0.43786    0.78995    1.000
    C428     C        0.53099    0.38614    0.77682    1.000
    C429     C        0.53074    0.33364    0.77040    1.000
    H321     H        0.56527    0.33068    0.77365    1.000
    C430     C        0.47873    0.28571    0.75912    1.000
    H322     H        0.47683    0.24900    0.75459    1.000
    C431     C        0.42976    0.29189    0.75460    1.000
    H323     H        0.39335    0.25944    0.74739    1.000
    C432     C        0.43465    0.34626    0.76075    1.000
    H324     H        0.40104    0.35065    0.75712    1.000
    Ag19     Ag       0.16055    0.34351    0.62036    1.000
    N73      N        0.57881    0.50180    0.71524    1.000
    N74      N        0.47645    0.40941    0.69069    1.000
    N75      N        0.25026    0.43249    0.63430    1.000
    N76      N        0.15106    0.42469    0.60489    1.000
    O19      O        0.41490    0.44784    0.64809    1.000
    S37      S        0.51634    0.34054    0.67694    1.000
    S38      S        0.31837    0.54305    0.62651    1.000
    C433     C        0.62979    0.54970    0.72284    1.000
    H325     H        0.62883    0.58250    0.73214    1.000
    C434     C        0.68460    0.55390    0.71774    1.000
    H326     H        0.72020    0.58950    0.72279    1.000
    C435     C        0.68680    0.50670    0.70546    1.000
    H327     H        0.72370    0.50840    0.70218    1.000
    C436     C        0.63410    0.45610    0.69785    1.000
    H328     H        0.63430    0.42210    0.68966    1.000
    C437     C        0.58145    0.45550    0.70229    1.000
    C438     C        0.52503    0.40601    0.69136    1.000
    C439     C        0.44460    0.31730    0.66959    1.000
    H329     H        0.41770    0.27990    0.66043    1.000
    C440     C        0.42965    0.35875    0.67843    1.000
    C441     C        0.37136    0.35427    0.67569    1.000
    C442     C        0.36614    0.39921    0.66097    1.000
    C443     C        0.31172    0.39722    0.66052    1.000
    C444     C        0.26277    0.34873    0.67495    1.000
    H330     H        0.22563    0.34735    0.67498    1.000
    C445     C        0.26687    0.30331    0.68901    1.000
    C446     C        0.32163    0.30670    0.68886    1.000
    H331     H        0.32515    0.27528    0.69812    1.000
    C447     C        0.21390    0.25260    0.70465    1.000
    H332     H        0.17780    0.24560    0.69350    1.000
    H333     H        0.21190    0.26230    0.72710    1.000
    H334     H        0.21730    0.21690    0.70350    1.000
    C448     C        0.43580    0.43530    0.61921    1.000
    H335     H        0.40260    0.40270    0.60790    1.000
    H336     H        0.46550    0.42400    0.62435    1.000
    H337     H        0.45380    0.47070    0.60560    1.000
    C449     C        0.30472    0.44511    0.64561    1.000
    C450     C        0.34625    0.50323    0.64323    1.000
    H338     H        0.38616    0.51955    0.65012    1.000
    C451     C        0.25069    0.47950    0.62328    1.000
    C452     C        0.19766    0.47819    0.61015    1.000
    C453     C        0.19741    0.53044    0.60373    1.000
    H339     H        0.23194    0.56793    0.60698    1.000
    C454     C        0.14540    0.52636    0.59245    1.000
    H340     H        0.14350    0.56117    0.58792    1.000
    C455     C        0.09643    0.47121    0.58793    1.000
    H341     H        0.06002    0.46725    0.58072    1.000
    C456     C        0.10132    0.42173    0.59408    1.000
    H342     H        0.06771    0.38373    0.59045    1.000
    Ag20     Ag       0.82722    0.67685    0.95369    1.000
    N77      N        0.24548    0.83513    0.04857    1.000
    N78      N        0.14312    0.74274    0.02402    1.000
    N79      N        0.91693    0.76582    0.96763    1.000
    N80      N        0.81773    0.75802    0.93822    1.000
    O20      O        0.08157    0.78117    0.98142    1.000
    S39      S        0.18301    0.67387    0.01027    1.000
    S40      S        0.98504    0.87638    0.95984    1.000
    C457     C        0.29646    0.88303    0.05617    1.000
    H343     H        0.29550    0.91583    0.06547    1.000
    C458     C        0.35127    0.88723    0.05107    1.000
    H344     H        0.38687    0.92283    0.05612    1.000
    C459     C        0.35347    0.84003    0.03879    1.000
    H345     H        0.39037    0.84173    0.03551    1.000
    C460     C        0.30077    0.78943    0.03118    1.000
    H346     H        0.30097    0.75543    0.02299    1.000
    C461     C        0.24812    0.78883    0.03562    1.000
    C462     C        0.19170    0.73934    0.02469    1.000
    C463     C        0.11127    0.65063    0.00292    1.000
    H347     H        0.08437    0.61323    0.99376    1.000
    C464     C        0.09632    0.69208    0.01176    1.000
    C465     C        0.03803    0.68760    0.00902    1.000
    C466     C        0.03281    0.73254    0.99430    1.000
    C467     C        0.97839    0.73055    0.99385    1.000
    C468     C        0.92944    0.68206    0.00828    1.000
    H348     H        0.89230    0.68068    0.00831    1.000
    C469     C        0.93354    0.63664    0.02234    1.000
    C470     C        0.98830    0.64003    0.02219    1.000
    H349     H        0.99182    0.60861    0.03145    1.000
    C471     C        0.88057    0.58593    0.03798    1.000
    H350     H        0.84447    0.57893    0.02683    1.000
    H351     H        0.87857    0.59563    0.06043    1.000
    H352     H        0.88397    0.55023    0.03683    1.000
    C472     C        0.10247    0.76863    0.95254    1.000
    H353     H        0.06927    0.73603    0.94123    1.000
    H354     H        0.13217    0.75733    0.95768    1.000
    H355     H        0.12047    0.80403    0.93893    1.000
    C473     C        0.97139    0.77844    0.97894    1.000
    C474     C        0.01292    0.83656    0.97656    1.000
    H356     H        0.05283    0.85288    0.98345    1.000
    C475     C        0.91736    0.81283    0.95661    1.000
    C476     C        0.86433    0.81152    0.94348    1.000
    C477     C        0.86408    0.86377    0.93706    1.000
    H357     H        0.89861    0.90126    0.94031    1.000
    C478     C        0.81207    0.85969    0.92578    1.000
    H358     H        0.81017    0.89450    0.92125    1.000
    C479     C        0.76310    0.80454    0.92126    1.000
    H359     H        0.72669    0.80058    0.91405    1.000
    C480     C        0.76799    0.75506    0.92741    1.000
    H360     H        0.73438    0.71706    0.92378    1.000
    Ag21     Ag       0.49389    0.01018    0.28702    1.000
    N81      N        0.91214    0.16847    0.38191    1.000
    N82      N        0.80978    0.07608    0.35736    1.000
    N83      N        0.58359    0.09916    0.30097    1.000
    N84      N        0.48439    0.09136    0.27156    1.000
    O21      O        0.74823    0.11451    0.31476    1.000
    S41      S        0.84967    0.00721    0.34361    1.000
    S42      S        0.65170    0.20972    0.29318    1.000
    C481     C        0.96312    0.21637    0.38951    1.000
    H361     H        0.96216    0.24917    0.39881    1.000
    C482     C        0.01793    0.22057    0.38441    1.000
    H362     H        0.05353    0.25617    0.38946    1.000
    C483     C        0.02013    0.17337    0.37213    1.000
    H363     H        0.05703    0.17507    0.36885    1.000
    C484     C        0.96743    0.12277    0.36452    1.000
    H364     H        0.96763    0.08877    0.35633    1.000
    C485     C        0.91478    0.12217    0.36896    1.000
    C486     C        0.85836    0.07268    0.35803    1.000
    C487     C        0.77793    0.98397    0.33626    1.000
    H365     H        0.75103    0.94657    0.32710    1.000
    C488     C        0.76298    0.02542    0.34510    1.000
    C489     C        0.70469    0.02094    0.34236    1.000
    C490     C        0.69947    0.06588    0.32764    1.000
    C491     C        0.64505    0.06389    0.32719    1.000
    C492     C        0.59610    0.01540    0.34162    1.000
    H366     H        0.55896    0.01402    0.34165    1.000
    C493     C        0.60020    0.96998    0.35568    1.000
    C494     C        0.65496    0.97337    0.35553    1.000
    H367     H        0.65848    0.94195    0.36479    1.000
    C495     C        0.54723    0.91927    0.37132    1.000
    H368     H        0.51113    0.91227    0.36017    1.000
    H369     H        0.54523    0.92897    0.39377    1.000
    H370     H        0.55063    0.88357    0.37017    1.000
    C496     C        0.76913    0.10197    0.28588    1.000
    H371     H        0.73593    0.06937    0.27457    1.000
    H372     H        0.79883    0.09067    0.29102    1.000
    H373     H        0.78713    0.13737    0.27227    1.000
    C497     C        0.63805    0.11178    0.31228    1.000
    C498     C        0.67958    0.16990    0.30990    1.000
    H374     H        0.71949    0.18622    0.31679    1.000
    C499     C        0.58402    0.14617    0.28995    1.000
    C500     C        0.53099    0.14486    0.27682    1.000
    C501     C        0.53074    0.19711    0.27040    1.000
    H375     H        0.56527    0.23460    0.27365    1.000
    C502     C        0.47873    0.19303    0.25912    1.000
    H376     H        0.47683    0.22784    0.25459    1.000
    C503     C        0.42976    0.13788    0.25460    1.000
    H377     H        0.39335    0.13392    0.24739    1.000
    C504     C        0.43465    0.08840    0.26075    1.000
    H378     H        0.40104    0.05040    0.25712    1.000
    Ag22     Ag       0.65649    0.81704    0.62036    1.000
    N85      N        0.49820    0.07701    0.71524    1.000
    N86      N        0.59059    0.06704    0.69069    1.000
    N87      N        0.56751    0.81777    0.63430    1.000
    N88      N        0.57531    0.72637    0.60489    1.000
    O22      O        0.55216    0.96706    0.64809    1.000
    S43      S        0.65946    0.17580    0.67694    1.000
    S44      S        0.45695    0.77532    0.62651    1.000
    C505     C        0.45030    0.08009    0.72284    1.000
    H379     H        0.41750    0.04633    0.73214    1.000
    C506     C        0.44610    0.13070    0.71774    1.000
    H380     H        0.41050    0.13070    0.72279    1.000
    C507     C        0.49330    0.18010    0.70546    1.000
    H381     H        0.49160    0.21530    0.70218    1.000
    C508     C        0.54390    0.17800    0.69785    1.000
    H382     H        0.57790    0.21220    0.68966    1.000
    C509     C        0.54450    0.12595    0.70229    1.000
    C510     C        0.59399    0.11902    0.69136    1.000
    C511     C        0.68270    0.12730    0.66959    1.000
    H383     H        0.72010    0.13780    0.66043    1.000
    C512     C        0.64125    0.07090    0.67843    1.000
    C513     C        0.64573    0.01709    0.67569    1.000
    C514     C        0.60079    0.96693    0.66097    1.000
    C515     C        0.60278    0.91450    0.66052    1.000
    C516     C        0.65127    0.91404    0.67495    1.000
    H384     H        0.65265    0.87828    0.67498    1.000
    C517     C        0.69669    0.96356    0.68901    1.000
    C518     C        0.69330    0.01493    0.68886    1.000
    H385     H        0.72472    0.04987    0.69812    1.000
    C519     C        0.74740    0.96130    0.70465    1.000
    H386     H        0.75440    0.93220    0.69350    1.000
    H387     H        0.73770    0.94960    0.72710    1.000
    H388     H        0.78310    0.00040    0.70350    1.000
    C520     C        0.56470    0.00050    0.61921    1.000
    H389     H        0.59730    0.99990    0.60790    1.000
    H390     H        0.57600    0.04150    0.62435    1.000
    H391     H        0.52930    0.98310    0.60560    1.000
    C521     C        0.55489    0.85961    0.64561    1.000
    C522     C        0.49677    0.84302    0.64323    1.000
    H392     H        0.48045    0.86661    0.65012    1.000
    C523     C        0.52050    0.77119    0.62328    1.000
    C524     C        0.52181    0.71947    0.61015    1.000
    C525     C        0.46956    0.66697    0.60373    1.000
    H393     H        0.43207    0.66401    0.60698    1.000
    C526     C        0.47364    0.61904    0.59245    1.000
    H394     H        0.43883    0.58233    0.58792    1.000
    C527     C        0.52879    0.62522    0.58793    1.000
    H395     H        0.53275    0.59277    0.58072    1.000
    C528     C        0.57827    0.67959    0.59408    1.000
    H396     H        0.61627    0.68398    0.59045    1.000
    Ag23     Ag       0.32315    0.15037    0.95369    1.000
    N89      N        0.16487    0.41034    0.04857    1.000
    N90      N        0.25726    0.40037    0.02402    1.000
    N91      N        0.23418    0.15110    0.96763    1.000
    N92      N        0.24198    0.05970    0.93822    1.000
    O23      O        0.21883    0.30039    0.98142    1.000
    S45      S        0.32613    0.50913    0.01027    1.000
    S46      S        0.12362    0.10865    0.95984    1.000
    C529     C        0.11697    0.41342    0.05617    1.000
    H397     H        0.08417    0.37966    0.06547    1.000
    C530     C        0.11277    0.46403    0.05107    1.000
    H398     H        0.07717    0.46403    0.05612    1.000
    C531     C        0.15997    0.51343    0.03879    1.000
    H399     H        0.15827    0.54863    0.03551    1.000
    C532     C        0.21057    0.51133    0.03118    1.000
    H400     H        0.24457    0.54553    0.02299    1.000
    C533     C        0.21117    0.45928    0.03562    1.000
    C534     C        0.26066    0.45235    0.02469    1.000
    C535     C        0.34937    0.46063    0.00292    1.000
    H401     H        0.38677    0.47113    0.99376    1.000
    C536     C        0.30792    0.40423    0.01176    1.000
    C537     C        0.31240    0.35042    0.00902    1.000
    C538     C        0.26746    0.30026    0.99430    1.000
    C539     C        0.26945    0.24783    0.99385    1.000
    C540     C        0.31794    0.24737    0.00828    1.000
    H402     H        0.31932    0.21161    0.00831    1.000
    C541     C        0.36336    0.29689    0.02234    1.000
    C542     C        0.35997    0.34826    0.02219    1.000
    H403     H        0.39139    0.38320    0.03145    1.000
    C543     C        0.41407    0.29463    0.03798    1.000
    H404     H        0.42107    0.26553    0.02683    1.000
    H405     H        0.40437    0.28293    0.06043    1.000
    H406     H        0.44977    0.33373    0.03683    1.000
    C544     C        0.23137    0.33383    0.95254    1.000
    H407     H        0.26397    0.33323    0.94123    1.000
    H408     H        0.24267    0.37483    0.95768    1.000
    H409     H        0.19597    0.31643    0.93893    1.000
    C545     C        0.22156    0.19294    0.97894    1.000
    C546     C        0.16344    0.17635    0.97656    1.000
    H410     H        0.14712    0.19994    0.98345    1.000
    C547     C        0.18717    0.10452    0.95661    1.000
    C548     C        0.18848    0.05280    0.94348    1.000
    C549     C        0.13623    0.00030    0.93706    1.000
    H411     H        0.09874    0.99734    0.94031    1.000
    C550     C        0.14031    0.95237    0.92578    1.000
    H412     H        0.10550    0.91566    0.92125    1.000
    C551     C        0.19546    0.95855    0.92126    1.000
    H413     H        0.19942    0.92610    0.91405    1.000
    C552     C        0.24494    0.01292    0.92741    1.000
    H414     H        0.28294    0.01731    0.92378    1.000
    Ag24     Ag       0.98982    0.48371    0.28702    1.000
    N93      N        0.83153    0.74368    0.38191    1.000
    N94      N        0.92392    0.73371    0.35736    1.000
    N95      N        0.90084    0.48444    0.30097    1.000
    N96      N        0.90864    0.39304    0.27156    1.000
    O24      O        0.88549    0.63373    0.31476    1.000
    S47      S        0.99279    0.84247    0.34361    1.000
    S48      S        0.79028    0.44199    0.29318    1.000
    C553     C        0.78363    0.74676    0.38951    1.000
    H415     H        0.75083    0.71300    0.39881    1.000
    C554     C        0.77943    0.79737    0.38441    1.000
    H416     H        0.74383    0.79737    0.38946    1.000
    C555     C        0.82663    0.84677    0.37213    1.000
    H417     H        0.82493    0.88197    0.36885    1.000
    C556     C        0.87723    0.84467    0.36452    1.000
    H418     H        0.91123    0.87887    0.35633    1.000
    C557     C        0.87783    0.79262    0.36896    1.000
    C558     C        0.92732    0.78569    0.35803    1.000
    C559     C        0.01603    0.79397    0.33626    1.000
    H419     H        0.05343    0.80447    0.32710    1.000
    C560     C        0.97458    0.73757    0.34510    1.000
    C561     C        0.97906    0.68376    0.34236    1.000
    C562     C        0.93412    0.63360    0.32764    1.000
    C563     C        0.93611    0.58117    0.32719    1.000
    C564     C        0.98460    0.58071    0.34162    1.000
    H420     H        0.98598    0.54495    0.34165    1.000
    C565     C        0.03002    0.63023    0.35568    1.000
    C566     C        0.02663    0.68160    0.35553    1.000
    H421     H        0.05805    0.71654    0.36479    1.000
    C567     C        0.08073    0.62797    0.37132    1.000
    H422     H        0.08773    0.59887    0.36017    1.000
    H423     H        0.07103    0.61627    0.39377    1.000
    H424     H        0.11643    0.66707    0.37017    1.000
    C568     C        0.89803    0.66717    0.28588    1.000
    H425     H        0.93063    0.66657    0.27457    1.000
    H426     H        0.90933    0.70817    0.29102    1.000
    H427     H        0.86263    0.64977    0.27227    1.000
    C569     C        0.88822    0.52628    0.31228    1.000
    C570     C        0.83010    0.50969    0.30990    1.000
    H428     H        0.81378    0.53328    0.31679    1.000
    C571     C        0.85383    0.43786    0.28995    1.000
    C572     C        0.85514    0.38614    0.27682    1.000
    C573     C        0.80289    0.33364    0.27040    1.000
    H429     H        0.76540    0.33068    0.27365    1.000
    C574     C        0.80697    0.28571    0.25912    1.000
    H430     H        0.77216    0.24900    0.25459    1.000
    C575     C        0.86212    0.29189    0.25460    1.000
    H431     H        0.86608    0.25944    0.24739    1.000
    C576     C        0.91160    0.34626    0.26075    1.000
    H432     H        0.94960    0.35065    0.25712    1.000
    Ag25     Ag       0.18296    0.83945    0.62036    1.000
    N97      N        0.92299    0.42119    0.71524    1.000
    N98      N        0.93296    0.52355    0.69069    1.000
    N99      N        0.18223    0.74974    0.63430    1.000
    N100     N        0.27363    0.84894    0.60489    1.000
    O25      O        0.03294    0.58510    0.64809    1.000
    S49      S        0.82420    0.48366    0.67694    1.000
    S50      S        0.22468    0.68163    0.62651    1.000
    C577     C        0.91991    0.37021    0.72284    1.000
    H433     H        0.95367    0.37117    0.73214    1.000
    C578     C        0.86930    0.31540    0.71774    1.000
    H434     H        0.86930    0.27980    0.72279    1.000
    C579     C        0.81990    0.31320    0.70546    1.000
    H435     H        0.78470    0.27630    0.70218    1.000
    C580     C        0.82200    0.36590    0.69785    1.000
    H436     H        0.78780    0.36570    0.68966    1.000
    C581     C        0.87405    0.41855    0.70229    1.000
    C582     C        0.88098    0.47497    0.69136    1.000
    C583     C        0.87270    0.55540    0.66959    1.000
    H437     H        0.86220    0.58230    0.66043    1.000
    C584     C        0.92910    0.57035    0.67843    1.000
    C585     C        0.98291    0.62864    0.67569    1.000
    C586     C        0.03307    0.63386    0.66097    1.000
    C587     C        0.08550    0.68828    0.66052    1.000
    C588     C        0.08596    0.73723    0.67495    1.000
    H438     H        0.12172    0.77437    0.67498    1.000
    C589     C        0.03644    0.73313    0.68901    1.000
    C590     C        0.98507    0.67837    0.68886    1.000
    H439     H        0.95013    0.67485    0.69812    1.000
    C591     C        0.03870    0.78610    0.70465    1.000
    H440     H        0.06780    0.82220    0.69350    1.000
    H441     H        0.05040    0.78810    0.72710    1.000
    H442     H        0.99960    0.78270    0.70350    1.000
    C592     C        0.99950    0.56420    0.61921    1.000
    H443     H        0.00010    0.59740    0.60790    1.000
    H444     H        0.95850    0.53450    0.62435    1.000
    H445     H        0.01690    0.54620    0.60560    1.000
    C593     C        0.14039    0.69528    0.64561    1.000
    C594     C        0.15698    0.65375    0.64323    1.000
    H446     H        0.13339    0.61384    0.65012    1.000
    C595     C        0.22881    0.74931    0.62328    1.000
    C596     C        0.28053    0.80234    0.61015    1.000
    C597     C        0.33303    0.80259    0.60373    1.000
    H447     H        0.33599    0.76806    0.60698    1.000
    C598     C        0.38096    0.85460    0.59245    1.000
    H448     H        0.41767    0.85650    0.58792    1.000
    C599     C        0.37478    0.90357    0.58793    1.000
    H449     H        0.40723    0.93998    0.58072    1.000
    C600     C        0.32041    0.89868    0.59408    1.000
    H450     H        0.31602    0.93229    0.59045    1.000
    Ag26     Ag       0.84963    0.17278    0.95369    1.000
    N101     N        0.58966    0.75452    0.04857    1.000
    N102     N        0.59963    0.85688    0.02402    1.000
    N103     N        0.84890    0.08307    0.96763    1.000
    N104     N        0.94030    0.18227    0.93822    1.000
    O26      O        0.69961    0.91843    0.98142    1.000
    S51      S        0.49087    0.81699    0.01027    1.000
    S52      S        0.89135    0.01496    0.95984    1.000
    C601     C        0.58658    0.70354    0.05617    1.000
    H451     H        0.62034    0.70450    0.06547    1.000
    C602     C        0.53597    0.64873    0.05107    1.000
    H452     H        0.53597    0.61313    0.05612    1.000
    C603     C        0.48657    0.64653    0.03879    1.000
    H453     H        0.45137    0.60963    0.03551    1.000
    C604     C        0.48867    0.69923    0.03118    1.000
    H454     H        0.45447    0.69903    0.02299    1.000
    C605     C        0.54072    0.75188    0.03562    1.000
    C606     C        0.54765    0.80830    0.02469    1.000
    C607     C        0.53937    0.88873    0.00292    1.000
    H455     H        0.52887    0.91563    0.99376    1.000
    C608     C        0.59577    0.90368    0.01176    1.000
    C609     C        0.64958    0.96197    0.00902    1.000
    C610     C        0.69974    0.96719    0.99430    1.000
    C611     C        0.75217    0.02161    0.99385    1.000
    C612     C        0.75263    0.07056    0.00828    1.000
    H456     H        0.78839    0.10770    0.00831    1.000
    C613     C        0.70311    0.06646    0.02234    1.000
    C614     C        0.65174    0.01170    0.02219    1.000
    H457     H        0.61680    0.00818    0.03145    1.000
    C615     C        0.70537    0.11943    0.03798    1.000
    H458     H        0.73447    0.15553    0.02683    1.000
    H459     H        0.71707    0.12143    0.06043    1.000
    H460     H        0.66627    0.11603    0.03683    1.000
    C616     C        0.66617    0.89753    0.95254    1.000
    H461     H        0.66677    0.93073    0.94123    1.000
    H462     H        0.62517    0.86783    0.95768    1.000
    H463     H        0.68357    0.87953    0.93893    1.000
    C617     C        0.80706    0.02861    0.97894    1.000
    C618     C        0.82365    0.98708    0.97656    1.000
    H464     H        0.80006    0.94717    0.98345    1.000
    C619     C        0.89548    0.08264    0.95661    1.000
    C620     C        0.94720    0.13567    0.94348    1.000
    C621     C        0.99970    0.13592    0.93706    1.000
    H465     H        0.00266    0.10139    0.94031    1.000
    C622     C        0.04763    0.18793    0.92578    1.000
    H466     H        0.08434    0.18983    0.92125    1.000
    C623     C        0.04145    0.23690    0.92126    1.000
    H467     H        0.07390    0.27331    0.91405    1.000
    C624     C        0.98708    0.23201    0.92741    1.000
    H468     H        0.98269    0.26562    0.92378    1.000
    Ag27     Ag       0.51629    0.50611    0.28702    1.000
    N105     N        0.25632    0.08786    0.38191    1.000
    N106     N        0.26629    0.19022    0.35736    1.000
    N107     N        0.51556    0.41641    0.30097    1.000
    N108     N        0.60696    0.51561    0.27156    1.000
    O27      O        0.36627    0.25177    0.31476    1.000
    S53      S        0.15753    0.15033    0.34361    1.000
    S54      S        0.55801    0.34830    0.29318    1.000
    C625     C        0.25324    0.03688    0.38951    1.000
    H469     H        0.28700    0.03784    0.39881    1.000
    C626     C        0.20263    0.98207    0.38441    1.000
    H470     H        0.20263    0.94647    0.38946    1.000
    C627     C        0.15323    0.97987    0.37213    1.000
    H471     H        0.11803    0.94297    0.36885    1.000
    C628     C        0.15533    0.03257    0.36452    1.000
    H472     H        0.12113    0.03237    0.35633    1.000
    C629     C        0.20738    0.08522    0.36896    1.000
    C630     C        0.21431    0.14164    0.35803    1.000
    C631     C        0.20603    0.22207    0.33626    1.000
    H473     H        0.19553    0.24897    0.32710    1.000
    C632     C        0.26243    0.23702    0.34510    1.000
    C633     C        0.31624    0.29531    0.34236    1.000
    C634     C        0.36640    0.30053    0.32764    1.000
    C635     C        0.41883    0.35495    0.32719    1.000
    C636     C        0.41929    0.40390    0.34162    1.000
    H474     H        0.45505    0.44104    0.34165    1.000
    C637     C        0.36977    0.39980    0.35568    1.000
    C638     C        0.31840    0.34504    0.35553    1.000
    H475     H        0.28346    0.34152    0.36479    1.000
    C639     C        0.37203    0.45277    0.37132    1.000
    H476     H        0.40113    0.48887    0.36017    1.000
    H477     H        0.38373    0.45477    0.39377    1.000
    H478     H        0.33293    0.44937    0.37017    1.000
    C640     C        0.33283    0.23087    0.28588    1.000
    H479     H        0.33343    0.26407    0.27457    1.000
    H480     H        0.29183    0.20117    0.29102    1.000
    H481     H        0.35023    0.21287    0.27227    1.000
    C641     C        0.47372    0.36195    0.31228    1.000
    C642     C        0.49031    0.32042    0.30990    1.000
    H482     H        0.46672    0.28051    0.31679    1.000
    C643     C        0.56214    0.41598    0.28995    1.000
    C644     C        0.61386    0.46901    0.27682    1.000
    C645     C        0.66636    0.46926    0.27040    1.000
    H483     H        0.66932    0.43473    0.27365    1.000
    C646     C        0.71429    0.52127    0.25912    1.000
    H484     H        0.75100    0.52317    0.25459    1.000
    C647     C        0.70811    0.57024    0.25460    1.000
    H485     H        0.74056    0.60665    0.24739    1.000
    C648     C        0.65374    0.56535    0.26075    1.000
    H486     H        0.64935    0.59896    0.25712    1.000
    Ag28     Ag       0.34351    0.16055    0.87964    1.000
    N109     N        0.50180    0.57881    0.78476    1.000
    N110     N        0.40941    0.47645    0.80931    1.000
    N111     N        0.43249    0.25026    0.86570    1.000
    N112     N        0.42469    0.15106    0.89511    1.000
    O28      O        0.44784    0.41490    0.85191    1.000
    S55      S        0.34054    0.51634    0.82306    1.000
    S56      S        0.54305    0.31837    0.87349    1.000
    C649     C        0.54970    0.62979    0.77716    1.000
    H487     H        0.58250    0.62883    0.76786    1.000
    C650     C        0.55390    0.68460    0.78226    1.000
    H488     H        0.58950    0.72020    0.77721    1.000
    C651     C        0.50670    0.68680    0.79454    1.000
    H489     H        0.50840    0.72370    0.79782    1.000
    C652     C        0.45610    0.63410    0.80215    1.000
    H490     H        0.42210    0.63430    0.81034    1.000
    C653     C        0.45550    0.58145    0.79771    1.000
    C654     C        0.40601    0.52503    0.80864    1.000
    C655     C        0.31730    0.44460    0.83041    1.000
    H491     H        0.27990    0.41770    0.83957    1.000
    C656     C        0.35875    0.42965    0.82157    1.000
    C657     C        0.35427    0.37136    0.82431    1.000
    C658     C        0.39921    0.36614    0.83903    1.000
    C659     C        0.39722    0.31172    0.83948    1.000
    C660     C        0.34873    0.26277    0.82505    1.000
    H492     H        0.34735    0.22563    0.82502    1.000
    C661     C        0.30331    0.26687    0.81099    1.000
    C662     C        0.30670    0.32163    0.81114    1.000
    H493     H        0.27528    0.32515    0.80188    1.000
    C663     C        0.25260    0.21390    0.79535    1.000
    H494     H        0.24560    0.17780    0.80650    1.000
    H495     H        0.26230    0.21190    0.77290    1.000
    H496     H        0.21690    0.21730    0.79650    1.000
    C664     C        0.43530    0.43580    0.88079    1.000
    H497     H        0.40270    0.40260    0.89210    1.000
    H498     H        0.42400    0.46550    0.87565    1.000
    H499     H        0.47070    0.45380    0.89440    1.000
    C665     C        0.44511    0.30472    0.85439    1.000
    C666     C        0.50323    0.34625    0.85677    1.000
    H500     H        0.51955    0.38616    0.84988    1.000
    C667     C        0.47950    0.25069    0.87672    1.000
    C668     C        0.47819    0.19766    0.88985    1.000
    C669     C        0.53044    0.19741    0.89627    1.000
    H501     H        0.56793    0.23194    0.89302    1.000
    C670     C        0.52636    0.14540    0.90755    1.000
    H502     H        0.56117    0.14350    0.91208    1.000
    C671     C        0.47121    0.09643    0.91207    1.000
    H503     H        0.46725    0.06002    0.91928    1.000
    C672     C        0.42173    0.10132    0.90592    1.000
    H504     H        0.38373    0.06771    0.90955    1.000
    Ag29     Ag       0.01018    0.49389    0.21298    1.000
    N113     N        0.16847    0.91214    0.11809    1.000
    N114     N        0.07608    0.80978    0.14264    1.000
    N115     N        0.09916    0.58359    0.19903    1.000
    N116     N        0.09136    0.48439    0.22844    1.000
    O29      O        0.11451    0.74823    0.18524    1.000
    S57      S        0.00721    0.84967    0.15639    1.000
    S58      S        0.20972    0.65170    0.20682    1.000
    C673     C        0.21637    0.96312    0.11049    1.000
    H505     H        0.24917    0.96216    0.10119    1.000
    C674     C        0.22057    0.01793    0.11559    1.000
    H506     H        0.25617    0.05353    0.11054    1.000
    C675     C        0.17337    0.02013    0.12787    1.000
    H507     H        0.17507    0.05703    0.13115    1.000
    C676     C        0.12277    0.96743    0.13548    1.000
    H508     H        0.08877    0.96763    0.14367    1.000
    C677     C        0.12217    0.91478    0.13104    1.000
    C678     C        0.07268    0.85836    0.14197    1.000
    C679     C        0.98397    0.77793    0.16374    1.000
    H509     H        0.94657    0.75103    0.17290    1.000
    C680     C        0.02542    0.76298    0.15490    1.000
    C681     C        0.02094    0.70469    0.15764    1.000
    C682     C        0.06588    0.69947    0.17236    1.000
    C683     C        0.06389    0.64505    0.17281    1.000
    C684     C        0.01540    0.59610    0.15838    1.000
    H510     H        0.01402    0.55896    0.15835    1.000
    C685     C        0.96998    0.60020    0.14432    1.000
    C686     C        0.97337    0.65496    0.14447    1.000
    H511     H        0.94195    0.65848    0.13521    1.000
    C687     C        0.91927    0.54723    0.12868    1.000
    H512     H        0.91227    0.51113    0.13983    1.000
    H513     H        0.92897    0.54523    0.10623    1.000
    H514     H        0.88357    0.55063    0.12983    1.000
    C688     C        0.10197    0.76913    0.21412    1.000
    H515     H        0.06937    0.73593    0.22543    1.000
    H516     H        0.09067    0.79883    0.20898    1.000
    H517     H        0.13737    0.78713    0.22773    1.000
    C689     C        0.11178    0.63805    0.18772    1.000
    C690     C        0.16990    0.67958    0.19010    1.000
    H518     H        0.18622    0.71949    0.18321    1.000
    C691     C        0.14617    0.58402    0.21005    1.000
    C692     C        0.14486    0.53099    0.22318    1.000
    C693     C        0.19711    0.53074    0.22960    1.000
    H519     H        0.23460    0.56527    0.22635    1.000
    C694     C        0.19303    0.47873    0.24088    1.000
    H520     H        0.22784    0.47683    0.24541    1.000
    C695     C        0.13788    0.42976    0.24540    1.000
    H521     H        0.13392    0.39335    0.25261    1.000
    C696     C        0.08840    0.43465    0.23925    1.000
    H522     H        0.05040    0.40104    0.24288    1.000
    Ag30     Ag       0.67685    0.82722    0.54631    1.000
    N117     N        0.83513    0.24548    0.45143    1.000
    N118     N        0.74274    0.14312    0.47598    1.000
    N119     N        0.76582    0.91693    0.53237    1.000
    N120     N        0.75802    0.81773    0.56178    1.000
    O30      O        0.78117    0.08157    0.51858    1.000
    S59      S        0.67387    0.18301    0.48973    1.000
    S60      S        0.87638    0.98504    0.54016    1.000
    C697     C        0.88303    0.29646    0.44383    1.000
    H523     H        0.91583    0.29550    0.43453    1.000
    C698     C        0.88723    0.35127    0.44893    1.000
    H524     H        0.92283    0.38687    0.44388    1.000
    C699     C        0.84003    0.35347    0.46121    1.000
    H525     H        0.84173    0.39037    0.46449    1.000
    C700     C        0.78943    0.30077    0.46882    1.000
    H526     H        0.75543    0.30097    0.47701    1.000
    C701     C        0.78883    0.24812    0.46438    1.000
    C702     C        0.73934    0.19170    0.47531    1.000
    C703     C        0.65063    0.11127    0.49708    1.000
    H527     H        0.61323    0.08437    0.50624    1.000
    C704     C        0.69208    0.09632    0.48824    1.000
    C705     C        0.68760    0.03803    0.49098    1.000
    C706     C        0.73254    0.03281    0.50570    1.000
    C707     C        0.73055    0.97839    0.50615    1.000
    C708     C        0.68206    0.92944    0.49172    1.000
    H528     H        0.68068    0.89230    0.49169    1.000
    C709     C        0.63664    0.93354    0.47766    1.000
    C710     C        0.64003    0.98830    0.47781    1.000
    H529     H        0.60861    0.99182    0.46855    1.000
    C711     C        0.58593    0.88057    0.46202    1.000
    H530     H        0.57893    0.84447    0.47317    1.000
    H531     H        0.59563    0.87857    0.43957    1.000
    H532     H        0.55023    0.88397    0.46317    1.000
    C712     C        0.76863    0.10247    0.54746    1.000
    H533     H        0.73603    0.06927    0.55877    1.000
    H534     H        0.75733    0.13217    0.54232    1.000
    H535     H        0.80403    0.12047    0.56107    1.000
    C713     C        0.77844    0.97139    0.52106    1.000
    C714     C        0.83656    0.01292    0.52344    1.000
    H536     H        0.85288    0.05283    0.51655    1.000
    C715     C        0.81283    0.91736    0.54339    1.000
    C716     C        0.81152    0.86433    0.55652    1.000
    C717     C        0.86377    0.86408    0.56294    1.000
    H537     H        0.90126    0.89861    0.55969    1.000
    C718     C        0.85969    0.81207    0.57422    1.000
    H538     H        0.89450    0.81017    0.57875    1.000
    C719     C        0.80454    0.76310    0.57874    1.000
    H539     H        0.80058    0.72669    0.58595    1.000
    C720     C        0.75506    0.76799    0.57259    1.000
    H540     H        0.71706    0.73438    0.57622    1.000
    Ag31     Ag       0.81704    0.65649    0.87964    1.000
    N121     N        0.07701    0.49820    0.78476    1.000
    N122     N        0.06704    0.59059    0.80931    1.000
    N123     N        0.81777    0.56751    0.86570    1.000
    N124     N        0.72637    0.57531    0.89511    1.000
    O31      O        0.96706    0.55216    0.85191    1.000
    S61      S        0.17580    0.65946    0.82306    1.000
    S62      S        0.77532    0.45695    0.87349    1.000
    C721     C        0.08009    0.45030    0.77716    1.000
    H541     H        0.04633    0.41750    0.76786    1.000
    C722     C        0.13070    0.44610    0.78226    1.000
    H542     H        0.13070    0.41050    0.77721    1.000
    C723     C        0.18010    0.49330    0.79454    1.000
    H543     H        0.21530    0.49160    0.79782    1.000
    C724     C        0.17800    0.54390    0.80215    1.000
    H544     H        0.21220    0.57790    0.81034    1.000
    C725     C        0.12595    0.54450    0.79771    1.000
    C726     C        0.11902    0.59399    0.80864    1.000
    C727     C        0.12730    0.68270    0.83041    1.000
    H545     H        0.13780    0.72010    0.83957    1.000
    C728     C        0.07090    0.64125    0.82157    1.000
    C729     C        0.01709    0.64573    0.82431    1.000
    C730     C        0.96693    0.60079    0.83903    1.000
    C731     C        0.91450    0.60278    0.83948    1.000
    C732     C        0.91404    0.65127    0.82505    1.000
    H546     H        0.87828    0.65265    0.82502    1.000
    C733     C        0.96356    0.69669    0.81099    1.000
    C734     C        0.01493    0.69330    0.81114    1.000
    H547     H        0.04987    0.72472    0.80188    1.000
    C735     C        0.96130    0.74740    0.79535    1.000
    H548     H        0.93220    0.75440    0.80650    1.000
    H549     H        0.94960    0.73770    0.77290    1.000
    H550     H        0.00040    0.78310    0.79650    1.000
    C736     C        0.00050    0.56470    0.88079    1.000
    H551     H        0.99990    0.59730    0.89210    1.000
    H552     H        0.04150    0.57600    0.87565    1.000
    H553     H        0.98310    0.52930    0.89440    1.000
    C737     C        0.85961    0.55489    0.85439    1.000
    C738     C        0.84302    0.49677    0.85677    1.000
    H554     H        0.86661    0.48045    0.84988    1.000
    C739     C        0.77119    0.52050    0.87672    1.000
    C740     C        0.71947    0.52181    0.88985    1.000
    C741     C        0.66697    0.46956    0.89627    1.000
    H555     H        0.66401    0.43207    0.89302    1.000
    C742     C        0.61904    0.47364    0.90755    1.000
    H556     H        0.58233    0.43883    0.91208    1.000
    C743     C        0.62522    0.52879    0.91207    1.000
    H557     H        0.59277    0.53275    0.91928    1.000
    C744     C        0.67959    0.57827    0.90592    1.000
    H558     H        0.68398    0.61627    0.90955    1.000
    Ag32     Ag       0.48371    0.98982    0.21298    1.000
    N125     N        0.74368    0.83153    0.11809    1.000
    N126     N        0.73371    0.92392    0.14264    1.000
    N127     N        0.48444    0.90084    0.19903    1.000
    N128     N        0.39304    0.90864    0.22844    1.000
    O32      O        0.63373    0.88549    0.18524    1.000
    S63      S        0.84247    0.99279    0.15639    1.000
    S64      S        0.44199    0.79028    0.20682    1.000
    C745     C        0.74676    0.78363    0.11049    1.000
    H559     H        0.71300    0.75083    0.10119    1.000
    C746     C        0.79737    0.77943    0.11559    1.000
    H560     H        0.79737    0.74383    0.11054    1.000
    C747     C        0.84677    0.82663    0.12787    1.000
    H561     H        0.88197    0.82493    0.13115    1.000
    C748     C        0.84467    0.87723    0.13548    1.000
    H562     H        0.87887    0.91123    0.14367    1.000
    C749     C        0.79262    0.87783    0.13104    1.000
    C750     C        0.78569    0.92732    0.14197    1.000
    C751     C        0.79397    0.01603    0.16374    1.000
    H563     H        0.80447    0.05343    0.17290    1.000
    C752     C        0.73757    0.97458    0.15490    1.000
    C753     C        0.68376    0.97906    0.15764    1.000
    C754     C        0.63360    0.93412    0.17236    1.000
    C755     C        0.58117    0.93611    0.17281    1.000
    C756     C        0.58071    0.98460    0.15838    1.000
    H564     H        0.54495    0.98598    0.15835    1.000
    C757     C        0.63023    0.03002    0.14432    1.000
    C758     C        0.68160    0.02663    0.14447    1.000
    H565     H        0.71654    0.05805    0.13521    1.000
    C759     C        0.62797    0.08073    0.12868    1.000
    H566     H        0.59887    0.08773    0.13983    1.000
    H567     H        0.61627    0.07103    0.10623    1.000
    H568     H        0.66707    0.11643    0.12983    1.000
    C760     C        0.66717    0.89803    0.21412    1.000
    H569     H        0.66657    0.93063    0.22543    1.000
    H570     H        0.70817    0.90933    0.20898    1.000
    H571     H        0.64977    0.86263    0.22773    1.000
    C761     C        0.52628    0.88822    0.18772    1.000
    C762     C        0.50969    0.83010    0.19010    1.000
    H572     H        0.53328    0.81378    0.18321    1.000
    C763     C        0.43786    0.85383    0.21005    1.000
    C764     C        0.38614    0.85514    0.22318    1.000
    C765     C        0.33364    0.80289    0.22960    1.000
    H573     H        0.33068    0.76540    0.22635    1.000
    C766     C        0.28571    0.80697    0.24088    1.000
    H574     H        0.24900    0.77216    0.24541    1.000
    C767     C        0.29189    0.86212    0.24540    1.000
    H575     H        0.25944    0.86608    0.25261    1.000
    C768     C        0.34626    0.91160    0.23925    1.000
    H576     H        0.35065    0.94960    0.24288    1.000
    Ag33     Ag       0.15037    0.32315    0.54631    1.000
    N129     N        0.41034    0.16487    0.45143    1.000
    N130     N        0.40037    0.25726    0.47598    1.000
    N131     N        0.15110    0.23418    0.53237    1.000
    N132     N        0.05970    0.24198    0.56178    1.000
    O33      O        0.30039    0.21883    0.51858    1.000
    S65      S        0.50913    0.32613    0.48973    1.000
    S66      S        0.10865    0.12362    0.54016    1.000
    C769     C        0.41342    0.11697    0.44383    1.000
    H577     H        0.37966    0.08417    0.43453    1.000
    C770     C        0.46403    0.11277    0.44893    1.000
    H578     H        0.46403    0.07717    0.44388    1.000
    C771     C        0.51343    0.15997    0.46121    1.000
    H579     H        0.54863    0.15827    0.46449    1.000
    C772     C        0.51133    0.21057    0.46882    1.000
    H580     H        0.54553    0.24457    0.47701    1.000
    C773     C        0.45928    0.21117    0.46438    1.000
    C774     C        0.45235    0.26066    0.47531    1.000
    C775     C        0.46063    0.34937    0.49708    1.000
    H581     H        0.47113    0.38677    0.50624    1.000
    C776     C        0.40423    0.30792    0.48824    1.000
    C777     C        0.35042    0.31240    0.49098    1.000
    C778     C        0.30026    0.26746    0.50570    1.000
    C779     C        0.24783    0.26945    0.50615    1.000
    C780     C        0.24737    0.31794    0.49172    1.000
    H582     H        0.21161    0.31932    0.49169    1.000
    C781     C        0.29689    0.36336    0.47766    1.000
    C782     C        0.34826    0.35997    0.47781    1.000
    H583     H        0.38320    0.39139    0.46855    1.000
    C783     C        0.29463    0.41407    0.46202    1.000
    H584     H        0.26553    0.42107    0.47317    1.000
    H585     H        0.28293    0.40437    0.43957    1.000
    H586     H        0.33373    0.44977    0.46317    1.000
    C784     C        0.33383    0.23137    0.54746    1.000
    H587     H        0.33323    0.26397    0.55877    1.000
    H588     H        0.37483    0.24267    0.54232    1.000
    H589     H        0.31643    0.19597    0.56107    1.000
    C785     C        0.19294    0.22156    0.52106    1.000
    C786     C        0.17635    0.16344    0.52344    1.000
    H590     H        0.19994    0.14712    0.51655    1.000
    C787     C        0.10452    0.18717    0.54339    1.000
    C788     C        0.05280    0.18848    0.55652    1.000
    C789     C        0.00030    0.13623    0.56294    1.000
    H591     H        0.99734    0.09874    0.55969    1.000
    C790     C        0.95237    0.14031    0.57422    1.000
    H592     H        0.91566    0.10550    0.57875    1.000
    C791     C        0.95855    0.19546    0.57874    1.000
    H593     H        0.92610    0.19942    0.58595    1.000
    C792     C        0.01292    0.24494    0.57259    1.000
    H594     H        0.01731    0.28294    0.57622    1.000
    Ag34     Ag       0.83945    0.18296    0.87964    1.000
    N133     N        0.42119    0.92299    0.78476    1.000
    N134     N        0.52355    0.93296    0.80931    1.000
    N135     N        0.74974    0.18223    0.86570    1.000
    N136     N        0.84894    0.27363    0.89511    1.000
    O34      O        0.58510    0.03294    0.85191    1.000
    S67      S        0.48366    0.82420    0.82306    1.000
    S68      S        0.68163    0.22468    0.87349    1.000
    C793     C        0.37021    0.91991    0.77716    1.000
    H595     H        0.37117    0.95367    0.76786    1.000
    C794     C        0.31540    0.86930    0.78226    1.000
    H596     H        0.27980    0.86930    0.77721    1.000
    C795     C        0.31320    0.81990    0.79454    1.000
    H597     H        0.27630    0.78470    0.79782    1.000
    C796     C        0.36590    0.82200    0.80215    1.000
    H598     H        0.36570    0.78780    0.81034    1.000
    C797     C        0.41855    0.87405    0.79771    1.000
    C798     C        0.47497    0.88098    0.80864    1.000
    C799     C        0.55540    0.87270    0.83041    1.000
    H599     H        0.58230    0.86220    0.83957    1.000
    C800     C        0.57035    0.92910    0.82157    1.000
    C801     C        0.62864    0.98291    0.82431    1.000
    C802     C        0.63386    0.03307    0.83903    1.000
    C803     C        0.68828    0.08550    0.83948    1.000
    C804     C        0.73723    0.08596    0.82505    1.000
    H600     H        0.77437    0.12172    0.82502    1.000
    C805     C        0.73313    0.03644    0.81099    1.000
    C806     C        0.67837    0.98507    0.81114    1.000
    H601     H        0.67485    0.95013    0.80188    1.000
    C807     C        0.78610    0.03870    0.79535    1.000
    H602     H        0.82220    0.06780    0.80650    1.000
    H603     H        0.78810    0.05040    0.77290    1.000
    H604     H        0.78270    0.99960    0.79650    1.000
    C808     C        0.56420    0.99950    0.88079    1.000
    H605     H        0.59740    0.00010    0.89210    1.000
    H606     H        0.53450    0.95850    0.87565    1.000
    H607     H        0.54620    0.01690    0.89440    1.000
    C809     C        0.69528    0.14039    0.85439    1.000
    C810     C        0.65375    0.15698    0.85677    1.000
    H608     H        0.61384    0.13339    0.84988    1.000
    C811     C        0.74931    0.22881    0.87672    1.000
    C812     C        0.80234    0.28053    0.88985    1.000
    C813     C        0.80259    0.33303    0.89627    1.000
    H609     H        0.76806    0.33599    0.89302    1.000
    C814     C        0.85460    0.38096    0.90755    1.000
    H610     H        0.85650    0.41767    0.91208    1.000
    C815     C        0.90357    0.37478    0.91207    1.000
    H611     H        0.93998    0.40723    0.91928    1.000
    C816     C        0.89868    0.32041    0.90592    1.000
    H612     H        0.93229    0.31602    0.90955    1.000
    Ag35     Ag       0.50611    0.51629    0.21298    1.000
    N137     N        0.08786    0.25632    0.11809    1.000
    N138     N        0.19022    0.26629    0.14264    1.000
    N139     N        0.41641    0.51556    0.19903    1.000
    N140     N        0.51561    0.60696    0.22844    1.000
    O35      O        0.25177    0.36627    0.18524    1.000
    S69      S        0.15033    0.15753    0.15639    1.000
    S70      S        0.34830    0.55801    0.20682    1.000
    C817     C        0.03688    0.25324    0.11049    1.000
    H613     H        0.03784    0.28700    0.10119    1.000
    C818     C        0.98207    0.20263    0.11559    1.000
    H614     H        0.94647    0.20263    0.11054    1.000
    C819     C        0.97987    0.15323    0.12787    1.000
    H615     H        0.94297    0.11803    0.13115    1.000
    C820     C        0.03257    0.15533    0.13548    1.000
    H616     H        0.03237    0.12113    0.14367    1.000
    C821     C        0.08522    0.20738    0.13104    1.000
    C822     C        0.14164    0.21431    0.14197    1.000
    C823     C        0.22207    0.20603    0.16374    1.000
    H617     H        0.24897    0.19553    0.17290    1.000
    C824     C        0.23702    0.26243    0.15490    1.000
    C825     C        0.29531    0.31624    0.15764    1.000
    C826     C        0.30053    0.36640    0.17236    1.000
    C827     C        0.35495    0.41883    0.17281    1.000
    C828     C        0.40390    0.41929    0.15838    1.000
    H618     H        0.44104    0.45505    0.15835    1.000
    C829     C        0.39980    0.36977    0.14432    1.000
    C830     C        0.34504    0.31840    0.14447    1.000
    H619     H        0.34152    0.28346    0.13521    1.000
    C831     C        0.45277    0.37203    0.12868    1.000
    H620     H        0.48887    0.40113    0.13983    1.000
    H621     H        0.45477    0.38373    0.10623    1.000
    H622     H        0.44937    0.33293    0.12983    1.000
    C832     C        0.23087    0.33283    0.21412    1.000
    H623     H        0.26407    0.33343    0.22543    1.000
    H624     H        0.20117    0.29183    0.20898    1.000
    H625     H        0.21287    0.35023    0.22773    1.000
    C833     C        0.36195    0.47372    0.18772    1.000
    C834     C        0.32042    0.49031    0.19010    1.000
    H626     H        0.28051    0.46672    0.18321    1.000
    C835     C        0.41598    0.56214    0.21005    1.000
    C836     C        0.46901    0.61386    0.22318    1.000
    C837     C        0.46926    0.66636    0.22960    1.000
    H627     H        0.43473    0.66932    0.22635    1.000
    C838     C        0.52127    0.71429    0.24088    1.000
    H628     H        0.52317    0.75100    0.24541    1.000
    C839     C        0.57024    0.70811    0.24540    1.000
    H629     H        0.60665    0.74056    0.25261    1.000
    C840     C        0.56535    0.65374    0.23925    1.000
    H630     H        0.59896    0.64935    0.24288    1.000
    Ag36     Ag       0.17278    0.84963    0.54631    1.000
    N141     N        0.75452    0.58966    0.45143    1.000
    N142     N        0.85688    0.59963    0.47598    1.000
    N143     N        0.08307    0.84890    0.53237    1.000
    N144     N        0.18227    0.94030    0.56178    1.000
    O36      O        0.91843    0.69961    0.51858    1.000
    S71      S        0.81699    0.49087    0.48973    1.000
    S72      S        0.01496    0.89135    0.54016    1.000
    C841     C        0.70354    0.58658    0.44383    1.000
    H631     H        0.70450    0.62034    0.43453    1.000
    C842     C        0.64873    0.53597    0.44893    1.000
    H632     H        0.61313    0.53597    0.44388    1.000
    C843     C        0.64653    0.48657    0.46121    1.000
    H633     H        0.60963    0.45137    0.46449    1.000
    C844     C        0.69923    0.48867    0.46882    1.000
    H634     H        0.69903    0.45447    0.47701    1.000
    C845     C        0.75188    0.54072    0.46438    1.000
    C846     C        0.80830    0.54765    0.47531    1.000
    C847     C        0.88873    0.53937    0.49708    1.000
    H635     H        0.91563    0.52887    0.50624    1.000
    C848     C        0.90368    0.59577    0.48824    1.000
    C849     C        0.96197    0.64958    0.49098    1.000
    C850     C        0.96719    0.69974    0.50570    1.000
    C851     C        0.02161    0.75217    0.50615    1.000
    C852     C        0.07056    0.75263    0.49172    1.000
    H636     H        0.10770    0.78839    0.49169    1.000
    C853     C        0.06646    0.70311    0.47766    1.000
    C854     C        0.01170    0.65174    0.47781    1.000
    H637     H        0.00818    0.61680    0.46855    1.000
    C855     C        0.11943    0.70537    0.46202    1.000
    H638     H        0.15553    0.73447    0.47317    1.000
    H639     H        0.12143    0.71707    0.43957    1.000
    H640     H        0.11603    0.66627    0.46317    1.000
    C856     C        0.89753    0.66617    0.54746    1.000
    H641     H        0.93073    0.66677    0.55877    1.000
    H642     H        0.86783    0.62517    0.54232    1.000
    H643     H        0.87953    0.68357    0.56107    1.000
    C857     C        0.02861    0.80706    0.52106    1.000
    C858     C        0.98708    0.82365    0.52344    1.000
    H644     H        0.94717    0.80006    0.51655    1.000
    C859     C        0.08264    0.89548    0.54339    1.000
    C860     C        0.13567    0.94720    0.55652    1.000
    C861     C        0.13592    0.99970    0.56294    1.000
    H645     H        0.10139    0.00266    0.55969    1.000
    C862     C        0.18793    0.04763    0.57422    1.000
    H646     H        0.18983    0.08434    0.57875    1.000
    C863     C        0.23690    0.04145    0.57874    1.000
    H647     H        0.27331    0.07390    0.58595    1.000
    C864     C        0.23201    0.98708    0.57259    1.000
    H648     H        0.26562    0.98269    0.57622    1.000
