data_functionalizedCrystal
_audit_creation_method	'EQeq! by Chris Wilmer'
_symmetry_space_group_name_H-M	'P1'
_symmetry_Int_Tables_number	1
_symmetry_cell_setting	triclinic
loop_
_symmetry_equiv_pos_as_xyz
  x,y,z
_cell_length_a	39.58
_cell_length_b	39.58
_cell_length_c	27.445
_cell_angle_alpha	90
_cell_angle_beta	90
_cell_angle_gamma	90
loop_
_atom_site_label
_atom_site_type_symbol
_atom_site_fract_x
_atom_site_fract_y
_atom_site_fract_z
_atom_site_charge
Mof_O 	O 	0.4654	0.85475	0.95011	-0.386
Mof_O 	O 	0.46532	0.79748	0.95004	-0.388
Mof_O 	O 	0.26484	0.78219	0.83711	-0.193
Mof_C 	C 	0.45488	0.82593	0.93566	0.34
Mof_C 	C 	0.42795	0.82628	0.89645	-0.082
Mof_C 	C 	0.4156	0.79607	0.8784	0.019
Mof_H 	H 	0.4238	0.7756	0.8899	0.045
Mof_C 	C 	0.39062	0.79694	0.84275	-0.084
Mof_H 	H 	0.3819	0.7767	0.831	0.066
Mof_C 	C 	0.37849	0.82673	0.82443	0.023
Mof_C 	C 	0.39148	0.85663	0.84251	-0.085
Mof_H 	H 	0.3837	0.8771	0.8301	0.065
Mof_C 	C 	0.41541	0.85673	0.87822	0.022
Mof_H 	H 	0.4234	0.8771	0.8905	0.044
Mof_C 	C 	0.35207	0.82673	0.78602	0.085
Mof_C 	C 	0.32698	0.80208	0.78595	-0.161
Mof_H 	H 	0.327	0.7856	0.8101	0.107
Mof_C 	C 	0.25863	0.76672	0.79312	0.102
Mof_C 	C 	0.245	0.7731	0.8796	0.067
Mof_O 	O 	0.9654	0.35475	0.45011	-0.398
Mof_O 	O 	0.96532	0.29748	0.45004	-0.399
Mof_O 	O 	0.76484	0.28219	0.33711	-0.194
Mof_C 	C 	0.95488	0.32593	0.43566	0.342
Mof_C 	C 	0.92795	0.32628	0.39645	-0.087
Mof_C 	C 	0.9156	0.29607	0.3784	0.022
Mof_H 	H 	0.9238	0.2756	0.3899	0.041
Mof_C 	C 	0.89062	0.29694	0.34275	-0.088
Mof_H 	H 	0.8819	0.2767	0.331	0.065
Mof_C 	C 	0.87849	0.32673	0.32443	0.026
Mof_C 	C 	0.89148	0.35663	0.34251	-0.09
Mof_H 	H 	0.8837	0.3771	0.3301	0.064
Mof_C 	C 	0.91541	0.35673	0.37822	0.024
Mof_H 	H 	0.9234	0.3771	0.3905	0.039
Mof_C 	C 	0.85207	0.32673	0.28602	0.081
Mof_C 	C 	0.82698	0.30208	0.28595	-0.16
Mof_H 	H 	0.827	0.2856	0.3101	0.104
Mof_C 	C 	0.75863	0.26672	0.29312	0.101
Mof_C 	C 	0.745	0.2731	0.3796	0.061
Mof_O 	O 	0.5346	0.14525	0.95011	-0.386
Mof_O 	O 	0.53468	0.20252	0.95004	-0.387
Mof_O 	O 	0.73516	0.21781	0.83711	-0.192
Mof_C 	C 	0.54512	0.17407	0.93566	0.341
Mof_C 	C 	0.57205	0.17372	0.89645	-0.082
Mof_C 	C 	0.5844	0.20393	0.8784	0.02
Mof_H 	H 	0.5762	0.2244	0.8899	0.046
Mof_C 	C 	0.60938	0.20306	0.84275	-0.084
Mof_H 	H 	0.6181	0.2233	0.831	0.067
Mof_C 	C 	0.62151	0.17327	0.82443	0.025
Mof_C 	C 	0.60852	0.14337	0.84251	-0.086
Mof_H 	H 	0.6163	0.1229	0.8301	0.065
Mof_C 	C 	0.58459	0.14327	0.87822	0.022
Mof_H 	H 	0.5766	0.1229	0.8905	0.043
Mof_C 	C 	0.64793	0.17327	0.78602	0.085
Mof_C 	C 	0.67302	0.19792	0.78595	-0.161
Mof_H 	H 	0.673	0.2144	0.8101	0.107
Mof_C 	C 	0.74137	0.23328	0.79312	0.102
Mof_C 	C 	0.755	0.2269	0.8796	0.067
Mof_O 	O 	0.0346	0.64525	0.45011	-0.401
Mof_O 	O 	0.03468	0.70252	0.45004	-0.402
Mof_O 	O 	0.23516	0.71781	0.33711	-0.194
Mof_C 	C 	0.04512	0.67407	0.43566	0.343
Mof_C 	C 	0.07205	0.67372	0.39645	-0.089
Mof_C 	C 	0.0844	0.70393	0.3784	0.022
Mof_H 	H 	0.0762	0.7244	0.3899	0.04
Mof_C 	C 	0.10938	0.70306	0.34275	-0.089
Mof_H 	H 	0.1181	0.7233	0.331	0.065
Mof_C 	C 	0.12151	0.67327	0.32443	0.026
Mof_C 	C 	0.10852	0.64337	0.34251	-0.091
Mof_H 	H 	0.1163	0.6229	0.3301	0.064
Mof_C 	C 	0.08459	0.64327	0.37822	0.025
Mof_H 	H 	0.0766	0.6229	0.3905	0.038
Mof_C 	C 	0.14793	0.67327	0.28602	0.081
Mof_C 	C 	0.17302	0.69792	0.28595	-0.159
Mof_H 	H 	0.173	0.7144	0.3101	0.104
Mof_C 	C 	0.24137	0.73328	0.29312	0.101
Mof_C 	C 	0.255	0.7269	0.3796	0.061
Mof_O 	O 	0.14525	0.4654	0.95011	-0.386
Mof_O 	O 	0.20252	0.46532	0.95004	-0.387
Mof_O 	O 	0.21781	0.26484	0.83711	-0.192
Mof_C 	C 	0.17407	0.45488	0.93566	0.341
Mof_C 	C 	0.17372	0.42795	0.89645	-0.082
Mof_C 	C 	0.20393	0.4156	0.8784	0.02
Mof_H 	H 	0.2244	0.4238	0.8899	0.046
Mof_C 	C 	0.20306	0.39062	0.84275	-0.084
Mof_H 	H 	0.2233	0.3819	0.831	0.067
Mof_C 	C 	0.17327	0.37849	0.82443	0.025
Mof_C 	C 	0.14337	0.39148	0.84251	-0.086
Mof_H 	H 	0.1229	0.3837	0.8301	0.065
Mof_C 	C 	0.14327	0.41541	0.87822	0.022
Mof_H 	H 	0.1229	0.4234	0.8905	0.043
Mof_C 	C 	0.17327	0.35207	0.78602	0.085
Mof_C 	C 	0.19792	0.32698	0.78595	-0.161
Mof_H 	H 	0.2144	0.327	0.8101	0.107
Mof_C 	C 	0.23328	0.25863	0.79312	0.102
Mof_C 	C 	0.2269	0.245	0.8796	0.067
Mof_O 	O 	0.64525	0.9654	0.45011	-0.398
Mof_O 	O 	0.70252	0.96532	0.45004	-0.399
Mof_O 	O 	0.71781	0.76484	0.33711	-0.194
Mof_C 	C 	0.67407	0.95488	0.43566	0.342
Mof_C 	C 	0.67372	0.92795	0.39645	-0.087
Mof_C 	C 	0.70393	0.9156	0.3784	0.022
Mof_H 	H 	0.7244	0.9238	0.3899	0.042
Mof_C 	C 	0.70306	0.89062	0.34275	-0.088
Mof_H 	H 	0.7233	0.8819	0.331	0.066
Mof_C 	C 	0.67327	0.87849	0.32443	0.026
Mof_C 	C 	0.64337	0.89148	0.34251	-0.09
Mof_H 	H 	0.6229	0.8837	0.3301	0.064
Mof_C 	C 	0.64327	0.91541	0.37822	0.024
Mof_H 	H 	0.6229	0.9234	0.3905	0.039
Mof_C 	C 	0.67327	0.85207	0.28602	0.081
Mof_C 	C 	0.69792	0.82698	0.28595	-0.16
Mof_H 	H 	0.7144	0.827	0.3101	0.105
Mof_C 	C 	0.73328	0.75863	0.29312	0.101
Mof_C 	C 	0.7269	0.745	0.3796	0.061
Mof_O 	O 	0.85475	0.5346	0.95011	-0.385
Mof_O 	O 	0.79748	0.53468	0.95004	-0.387
Mof_O 	O 	0.78219	0.73516	0.83711	-0.192
Mof_C 	C 	0.82593	0.54512	0.93566	0.341
Mof_C 	C 	0.82628	0.57205	0.89645	-0.081
Mof_C 	C 	0.79607	0.5844	0.8784	0.02
Mof_H 	H 	0.7756	0.5762	0.8899	0.046
Mof_C 	C 	0.79694	0.60938	0.84275	-0.083
Mof_H 	H 	0.7767	0.6181	0.831	0.067
Mof_C 	C 	0.82673	0.62151	0.82443	0.025
Mof_C 	C 	0.85663	0.60852	0.84251	-0.085
Mof_H 	H 	0.8771	0.6163	0.8301	0.066
Mof_C 	C 	0.85673	0.58459	0.87822	0.022
Mof_H 	H 	0.8771	0.5766	0.8905	0.044
Mof_C 	C 	0.82673	0.64793	0.78602	0.085
Mof_C 	C 	0.80208	0.67302	0.78595	-0.161
Mof_H 	H 	0.7856	0.673	0.8101	0.107
Mof_C 	C 	0.76672	0.74137	0.79312	0.102
Mof_C 	C 	0.7731	0.755	0.8796	0.067
Mof_O 	O 	0.35475	0.0346	0.45011	-0.401
Mof_O 	O 	0.29748	0.03468	0.45004	-0.403
Mof_O 	O 	0.28219	0.23516	0.33711	-0.194
Mof_C 	C 	0.32593	0.04512	0.43566	0.343
Mof_C 	C 	0.32628	0.07205	0.39645	-0.089
Mof_C 	C 	0.29607	0.0844	0.3784	0.022
Mof_H 	H 	0.2756	0.0762	0.3899	0.04
Mof_C 	C 	0.29694	0.10938	0.34275	-0.089
Mof_H 	H 	0.2767	0.1181	0.331	0.065
Mof_C 	C 	0.32673	0.12151	0.32443	0.026
Mof_C 	C 	0.35663	0.10852	0.34251	-0.091
Mof_H 	H 	0.3771	0.1163	0.3301	0.064
Mof_C 	C 	0.35673	0.08459	0.37822	0.025
Mof_H 	H 	0.3771	0.0766	0.3905	0.038
Mof_C 	C 	0.32673	0.14793	0.28602	0.081
Mof_C 	C 	0.30208	0.17302	0.28595	-0.159
Mof_H 	H 	0.2856	0.173	0.3101	0.104
Mof_C 	C 	0.26672	0.24137	0.29312	0.101
Mof_C 	C 	0.2731	0.255	0.3796	0.061
Mof_O 	O 	0.5346	0.85475	0.04989	-0.407
Mof_O 	O 	0.53468	0.79748	0.04996	-0.409
Mof_O 	O 	0.73516	0.78219	0.16289	-0.195
Mof_C 	C 	0.54512	0.82593	0.06434	0.343
Mof_C 	C 	0.57205	0.82628	0.10355	-0.093
Mof_C 	C 	0.5844	0.79607	0.1216	0.024
Mof_H 	H 	0.5762	0.7756	0.1101	0.037
Mof_C 	C 	0.60938	0.79694	0.15725	-0.091
Mof_H 	H 	0.6181	0.7767	0.169	0.065
Mof_C 	C 	0.62151	0.82673	0.17557	0.027
Mof_C 	C 	0.60852	0.85663	0.15749	-0.093
Mof_H 	H 	0.6163	0.8771	0.1699	0.064
Mof_C 	C 	0.58459	0.85673	0.12178	0.026
Mof_H 	H 	0.5766	0.8771	0.1095	0.035
Mof_C 	C 	0.64793	0.82673	0.21398	0.08
Mof_C 	C 	0.67302	0.80208	0.21405	-0.159
Mof_H 	H 	0.673	0.7856	0.1899	0.103
Mof_C 	C 	0.74137	0.76672	0.20688	0.1
Mof_C 	C 	0.755	0.7731	0.1204	0.057
Mof_O 	O 	0.0346	0.35475	0.54989	-0.401
Mof_O 	O 	0.03468	0.29748	0.54996	-0.402
Mof_O 	O 	0.23516	0.28219	0.66289	-0.194
Mof_C 	C 	0.04512	0.32593	0.56434	0.343
Mof_C 	C 	0.07205	0.32628	0.60355	-0.088
Mof_C 	C 	0.0844	0.29607	0.6216	0.023
Mof_H 	H 	0.0762	0.2756	0.6101	0.041
Mof_C 	C 	0.10938	0.29694	0.65725	-0.088
Mof_H 	H 	0.1181	0.2767	0.669	0.067
Mof_C 	C 	0.12151	0.32673	0.67557	0.026
Mof_C 	C 	0.10852	0.35663	0.65749	-0.09
Mof_H 	H 	0.1163	0.3771	0.6699	0.065
Mof_C 	C 	0.08459	0.35673	0.62178	0.025
Mof_H 	H 	0.0766	0.3771	0.6095	0.039
Mof_C 	C 	0.14793	0.32673	0.71398	0.083
Mof_C 	C 	0.17302	0.30208	0.71405	-0.16
Mof_H 	H 	0.173	0.2856	0.6899	0.105
Mof_C 	C 	0.24137	0.26672	0.70688	0.101
Mof_C 	C 	0.255	0.2731	0.6204	0.062
Mof_O 	O 	0.4654	0.14525	0.04989	-0.408
Mof_O 	O 	0.46532	0.20252	0.04996	-0.409
Mof_O 	O 	0.26484	0.21781	0.16289	-0.196
Mof_C 	C 	0.45488	0.17407	0.06434	0.343
Mof_C 	C 	0.42795	0.17372	0.10355	-0.093
Mof_C 	C 	0.4156	0.20393	0.1216	0.024
Mof_H 	H 	0.4238	0.2244	0.1101	0.037
Mof_C 	C 	0.39062	0.20306	0.15725	-0.091
Mof_H 	H 	0.3819	0.2233	0.169	0.065
Mof_C 	C 	0.37849	0.17327	0.17557	0.027
Mof_C 	C 	0.39148	0.14337	0.15749	-0.094
Mof_H 	H 	0.3837	0.1229	0.1699	0.063
Mof_C 	C 	0.41541	0.14327	0.12178	0.026
Mof_H 	H 	0.4234	0.1229	0.1095	0.034
Mof_C 	C 	0.35207	0.17327	0.21398	0.08
Mof_C 	C 	0.32698	0.19792	0.21405	-0.159
Mof_H 	H 	0.327	0.2144	0.1899	0.103
Mof_C 	C 	0.25863	0.23328	0.20688	0.1
Mof_C 	C 	0.245	0.2269	0.1204	0.056
Mof_O 	O 	0.9654	0.64525	0.54989	-0.398
Mof_O 	O 	0.96532	0.70252	0.54996	-0.399
Mof_O 	O 	0.76484	0.71781	0.66289	-0.193
Mof_C 	C 	0.95488	0.67407	0.56434	0.343
Mof_C 	C 	0.92795	0.67372	0.60355	-0.087
Mof_C 	C 	0.9156	0.70393	0.6216	0.022
Mof_H 	H 	0.9238	0.7244	0.6101	0.043
Mof_C 	C 	0.89062	0.70306	0.65725	-0.087
Mof_H 	H 	0.8819	0.7233	0.669	0.067
Mof_C 	C 	0.87849	0.67327	0.67557	0.026
Mof_C 	C 	0.89148	0.64337	0.65749	-0.089
Mof_H 	H 	0.8837	0.6229	0.6699	0.065
Mof_C 	C 	0.91541	0.64327	0.62178	0.024
Mof_H 	H 	0.9234	0.6229	0.6095	0.04
Mof_C 	C 	0.85207	0.67327	0.71398	0.084
Mof_C 	C 	0.82698	0.69792	0.71405	-0.16
Mof_H 	H 	0.827	0.7144	0.6899	0.106
Mof_C 	C 	0.75863	0.73328	0.70688	0.101
Mof_C 	C 	0.745	0.7269	0.6204	0.062
Mof_O 	O 	0.85475	0.4654	0.04989	-0.407
Mof_O 	O 	0.79748	0.46532	0.04996	-0.409
Mof_O 	O 	0.78219	0.26484	0.16289	-0.196
Mof_C 	C 	0.82593	0.45488	0.06434	0.343
Mof_C 	C 	0.82628	0.42795	0.10355	-0.093
Mof_C 	C 	0.79607	0.4156	0.1216	0.024
Mof_H 	H 	0.7756	0.4238	0.1101	0.037
Mof_C 	C 	0.79694	0.39062	0.15725	-0.091
Mof_H 	H 	0.7767	0.3819	0.169	0.065
Mof_C 	C 	0.82673	0.37849	0.17557	0.027
Mof_C 	C 	0.85663	0.39148	0.15749	-0.093
Mof_H 	H 	0.8771	0.3837	0.1699	0.064
Mof_C 	C 	0.85673	0.41541	0.12178	0.026
Mof_H 	H 	0.8771	0.4234	0.1095	0.035
Mof_C 	C 	0.82673	0.35207	0.21398	0.08
Mof_C 	C 	0.80208	0.32698	0.21405	-0.159
Mof_H 	H 	0.7856	0.327	0.1899	0.103
Mof_C 	C 	0.76672	0.25863	0.20688	0.1
Mof_C 	C 	0.7731	0.245	0.1204	0.057
Mof_O 	O 	0.35475	0.9654	0.54989	-0.398
Mof_O 	O 	0.29748	0.96532	0.54996	-0.399
Mof_O 	O 	0.28219	0.76484	0.66289	-0.193
Mof_C 	C 	0.32593	0.95488	0.56434	0.343
Mof_C 	C 	0.32628	0.92795	0.60355	-0.087
Mof_C 	C 	0.29607	0.9156	0.6216	0.022
Mof_H 	H 	0.2756	0.9238	0.6101	0.042
Mof_C 	C 	0.29694	0.89062	0.65725	-0.087
Mof_H 	H 	0.2767	0.8819	0.669	0.067
Mof_C 	C 	0.32673	0.87849	0.67557	0.026
Mof_C 	C 	0.35663	0.89148	0.65749	-0.089
Mof_H 	H 	0.3771	0.8837	0.6699	0.065
Mof_C 	C 	0.35673	0.91541	0.62178	0.024
Mof_H 	H 	0.3771	0.9234	0.6095	0.04
Mof_C 	C 	0.32673	0.85207	0.71398	0.084
Mof_C 	C 	0.30208	0.82698	0.71405	-0.16
Mof_H 	H 	0.2856	0.827	0.6899	0.105
Mof_C 	C 	0.26672	0.75863	0.70688	0.101
Mof_C 	C 	0.2731	0.745	0.6204	0.062
Mof_O 	O 	0.14525	0.5346	0.04989	-0.408
Mof_O 	O 	0.20252	0.53468	0.04996	-0.409
Mof_O 	O 	0.21781	0.73516	0.16289	-0.196
Mof_C 	C 	0.17407	0.54512	0.06434	0.343
Mof_C 	C 	0.17372	0.57205	0.10355	-0.093
Mof_C 	C 	0.20393	0.5844	0.1216	0.024
Mof_H 	H 	0.2244	0.5762	0.1101	0.037
Mof_C 	C 	0.20306	0.60938	0.15725	-0.091
Mof_H 	H 	0.2233	0.6181	0.169	0.065
Mof_C 	C 	0.17327	0.62151	0.17557	0.027
Mof_C 	C 	0.14337	0.60852	0.15749	-0.094
Mof_H 	H 	0.1229	0.6163	0.1699	0.063
Mof_C 	C 	0.14327	0.58459	0.12178	0.026
Mof_H 	H 	0.1229	0.5766	0.1095	0.034
Mof_C 	C 	0.17327	0.64793	0.21398	0.08
Mof_C 	C 	0.19792	0.67302	0.21405	-0.159
Mof_H 	H 	0.2144	0.673	0.1899	0.103
Mof_C 	C 	0.23328	0.74137	0.20688	0.1
Mof_C 	C 	0.2269	0.755	0.1204	0.056
Mof_O 	O 	0.64525	0.0346	0.54989	-0.401
Mof_O 	O 	0.70252	0.03468	0.54996	-0.402
Mof_O 	O 	0.71781	0.23516	0.66289	-0.193
Mof_C 	C 	0.67407	0.04512	0.56434	0.343
Mof_C 	C 	0.67372	0.07205	0.60355	-0.088
Mof_C 	C 	0.70393	0.0844	0.6216	0.023
Mof_H 	H 	0.7244	0.0762	0.6101	0.041
Mof_C 	C 	0.70306	0.10938	0.65725	-0.088
Mof_H 	H 	0.7233	0.1181	0.669	0.067
Mof_C 	C 	0.67327	0.12151	0.67557	0.026
Mof_C 	C 	0.64337	0.10852	0.65749	-0.09
Mof_H 	H 	0.6229	0.1163	0.6699	0.065
Mof_C 	C 	0.64327	0.08459	0.62178	0.025
Mof_H 	H 	0.6229	0.0766	0.6095	0.039
Mof_C 	C 	0.67327	0.14793	0.71398	0.083
Mof_C 	C 	0.69792	0.17302	0.71405	-0.16
Mof_H 	H 	0.7144	0.173	0.6899	0.105
Mof_C 	C 	0.73328	0.24137	0.70688	0.101
Mof_C 	C 	0.7269	0.255	0.6204	0.062
Mof_O 	O 	0.5346	0.14525	0.04989	-0.408
Mof_O 	O 	0.53468	0.20252	0.04996	-0.409
Mof_O 	O 	0.73516	0.21781	0.16289	-0.196
Mof_C 	C 	0.54512	0.17407	0.06434	0.343
Mof_C 	C 	0.57205	0.17372	0.10355	-0.093
Mof_C 	C 	0.5844	0.20393	0.1216	0.024
Mof_H 	H 	0.5762	0.2244	0.1101	0.037
Mof_C 	C 	0.60938	0.20306	0.15725	-0.091
Mof_H 	H 	0.6181	0.2233	0.169	0.065
Mof_C 	C 	0.62151	0.17327	0.17557	0.027
Mof_C 	C 	0.60852	0.14337	0.15749	-0.094
Mof_H 	H 	0.6163	0.1229	0.1699	0.063
Mof_C 	C 	0.58459	0.14327	0.12178	0.026
Mof_H 	H 	0.5766	0.1229	0.1095	0.034
Mof_C 	C 	0.64793	0.17327	0.21398	0.08
Mof_C 	C 	0.67302	0.19792	0.21405	-0.159
Mof_H 	H 	0.673	0.2144	0.1899	0.103
Mof_C 	C 	0.74137	0.23328	0.20688	0.1
Mof_C 	C 	0.755	0.2269	0.1204	0.056
Mof_O 	O 	0.0346	0.64525	0.54989	-0.401
Mof_O 	O 	0.03468	0.70252	0.54996	-0.402
Mof_O 	O 	0.23516	0.71781	0.66289	-0.193
Mof_C 	C 	0.04512	0.67407	0.56434	0.343
Mof_C 	C 	0.07205	0.67372	0.60355	-0.088
Mof_C 	C 	0.0844	0.70393	0.6216	0.023
Mof_H 	H 	0.0762	0.7244	0.6101	0.041
Mof_C 	C 	0.10938	0.70306	0.65725	-0.088
Mof_H 	H 	0.1181	0.7233	0.669	0.067
Mof_C 	C 	0.12151	0.67327	0.67557	0.026
Mof_C 	C 	0.10852	0.64337	0.65749	-0.09
Mof_H 	H 	0.1163	0.6229	0.6699	0.065
Mof_C 	C 	0.08459	0.64327	0.62178	0.025
Mof_H 	H 	0.0766	0.6229	0.6095	0.039
Mof_C 	C 	0.14793	0.67327	0.71398	0.083
Mof_C 	C 	0.17302	0.69792	0.71405	-0.16
Mof_H 	H 	0.173	0.7144	0.6899	0.105
Mof_C 	C 	0.24137	0.73328	0.70688	0.101
Mof_C 	C 	0.255	0.7269	0.6204	0.062
Mof_O 	O 	0.4654	0.85475	0.04989	-0.407
Mof_O 	O 	0.46532	0.79748	0.04996	-0.409
Mof_O 	O 	0.26484	0.78219	0.16289	-0.196
Mof_C 	C 	0.45488	0.82593	0.06434	0.343
Mof_C 	C 	0.42795	0.82628	0.10355	-0.093
Mof_C 	C 	0.4156	0.79607	0.1216	0.024
Mof_H 	H 	0.4238	0.7756	0.1101	0.037
Mof_C 	C 	0.39062	0.79694	0.15725	-0.091
Mof_H 	H 	0.3819	0.7767	0.169	0.065
Mof_C 	C 	0.37849	0.82673	0.17557	0.027
Mof_C 	C 	0.39148	0.85663	0.15749	-0.093
Mof_H 	H 	0.3837	0.8771	0.1699	0.064
Mof_C 	C 	0.41541	0.85673	0.12178	0.026
Mof_H 	H 	0.4234	0.8771	0.1095	0.035
Mof_C 	C 	0.35207	0.82673	0.21398	0.08
Mof_C 	C 	0.32698	0.80208	0.21405	-0.159
Mof_H 	H 	0.327	0.7856	0.1899	0.103
Mof_C 	C 	0.25863	0.76672	0.20688	0.1
Mof_C 	C 	0.245	0.7731	0.1204	0.057
Mof_O 	O 	0.9654	0.35475	0.54989	-0.398
Mof_O 	O 	0.96532	0.29748	0.54996	-0.399
Mof_O 	O 	0.76484	0.28219	0.66289	-0.193
Mof_C 	C 	0.95488	0.32593	0.56434	0.343
Mof_C 	C 	0.92795	0.32628	0.60355	-0.087
Mof_C 	C 	0.9156	0.29607	0.6216	0.022
Mof_H 	H 	0.9238	0.2756	0.6101	0.042
Mof_C 	C 	0.89062	0.29694	0.65725	-0.087
Mof_H 	H 	0.8819	0.2767	0.669	0.067
Mof_C 	C 	0.87849	0.32673	0.67557	0.026
Mof_C 	C 	0.89148	0.35663	0.65749	-0.089
Mof_H 	H 	0.8837	0.3771	0.6699	0.065
Mof_C 	C 	0.91541	0.35673	0.62178	0.024
Mof_H 	H 	0.9234	0.3771	0.6095	0.04
Mof_C 	C 	0.85207	0.32673	0.71398	0.084
Mof_C 	C 	0.82698	0.30208	0.71405	-0.16
Mof_H 	H 	0.827	0.2856	0.6899	0.105
Mof_C 	C 	0.75863	0.26672	0.70688	0.101
Mof_C 	C 	0.745	0.2731	0.6204	0.062
Mof_O 	O 	0.85475	0.5346	0.04989	-0.407
Mof_O 	O 	0.79748	0.53468	0.04996	-0.409
Mof_O 	O 	0.78219	0.73516	0.16289	-0.195
Mof_C 	C 	0.82593	0.54512	0.06434	0.343
Mof_C 	C 	0.82628	0.57205	0.10355	-0.093
Mof_C 	C 	0.79607	0.5844	0.1216	0.024
Mof_H 	H 	0.7756	0.5762	0.1101	0.037
Mof_C 	C 	0.79694	0.60938	0.15725	-0.091
Mof_H 	H 	0.7767	0.6181	0.169	0.065
Mof_C 	C 	0.82673	0.62151	0.17557	0.027
Mof_C 	C 	0.85663	0.60852	0.15749	-0.093
Mof_H 	H 	0.8771	0.6163	0.1699	0.064
Mof_C 	C 	0.85673	0.58459	0.12178	0.026
Mof_H 	H 	0.8771	0.5766	0.1095	0.035
Mof_C 	C 	0.82673	0.64793	0.21398	0.08
Mof_C 	C 	0.80208	0.67302	0.21405	-0.159
Mof_H 	H 	0.7856	0.673	0.1899	0.103
Mof_C 	C 	0.76672	0.74137	0.20688	0.1
Mof_C 	C 	0.7731	0.755	0.1204	0.057
Mof_O 	O 	0.35475	0.0346	0.54989	-0.401
Mof_O 	O 	0.29748	0.03468	0.54996	-0.402
Mof_O 	O 	0.28219	0.23516	0.66289	-0.194
Mof_C 	C 	0.32593	0.04512	0.56434	0.343
Mof_C 	C 	0.32628	0.07205	0.60355	-0.088
Mof_C 	C 	0.29607	0.0844	0.6216	0.023
Mof_H 	H 	0.2756	0.0762	0.6101	0.041
Mof_C 	C 	0.29694	0.10938	0.65725	-0.088
Mof_H 	H 	0.2767	0.1181	0.669	0.067
Mof_C 	C 	0.32673	0.12151	0.67557	0.026
Mof_C 	C 	0.35663	0.10852	0.65749	-0.09
Mof_H 	H 	0.3771	0.1163	0.6699	0.065
Mof_C 	C 	0.35673	0.08459	0.62178	0.025
Mof_H 	H 	0.3771	0.0766	0.6095	0.039
Mof_C 	C 	0.32673	0.14793	0.71398	0.083
Mof_C 	C 	0.30208	0.17302	0.71405	-0.16
Mof_H 	H 	0.2856	0.173	0.6899	0.105
Mof_C 	C 	0.26672	0.24137	0.70688	0.101
Mof_C 	C 	0.2731	0.255	0.6204	0.062
Mof_O 	O 	0.14525	0.4654	0.04989	-0.408
Mof_O 	O 	0.20252	0.46532	0.04996	-0.409
Mof_O 	O 	0.21781	0.26484	0.16289	-0.196
Mof_C 	C 	0.17407	0.45488	0.06434	0.343
Mof_C 	C 	0.17372	0.42795	0.10355	-0.093
Mof_C 	C 	0.20393	0.4156	0.1216	0.024
Mof_H 	H 	0.2244	0.4238	0.1101	0.037
Mof_C 	C 	0.20306	0.39062	0.15725	-0.091
Mof_H 	H 	0.2233	0.3819	0.169	0.065
Mof_C 	C 	0.17327	0.37849	0.17557	0.027
Mof_C 	C 	0.14337	0.39148	0.15749	-0.094
Mof_H 	H 	0.1229	0.3837	0.1699	0.063
Mof_C 	C 	0.14327	0.41541	0.12178	0.026
Mof_H 	H 	0.1229	0.4234	0.1095	0.034
Mof_C 	C 	0.17327	0.35207	0.21398	0.08
Mof_C 	C 	0.19792	0.32698	0.21405	-0.159
Mof_H 	H 	0.2144	0.327	0.1899	0.103
Mof_C 	C 	0.23328	0.25863	0.20688	0.1
Mof_C 	C 	0.2269	0.245	0.1204	0.056
Mof_O 	O 	0.64525	0.9654	0.54989	-0.398
Mof_O 	O 	0.70252	0.96532	0.54996	-0.399
Mof_O 	O 	0.71781	0.76484	0.66289	-0.193
Mof_C 	C 	0.67407	0.95488	0.56434	0.343
Mof_C 	C 	0.67372	0.92795	0.60355	-0.087
Mof_C 	C 	0.70393	0.9156	0.6216	0.022
Mof_H 	H 	0.7244	0.9238	0.6101	0.043
Mof_C 	C 	0.70306	0.89062	0.65725	-0.087
Mof_H 	H 	0.7233	0.8819	0.669	0.067
Mof_C 	C 	0.67327	0.87849	0.67557	0.026
Mof_C 	C 	0.64337	0.89148	0.65749	-0.089
Mof_H 	H 	0.6229	0.8837	0.6699	0.065
Mof_C 	C 	0.64327	0.91541	0.62178	0.024
Mof_H 	H 	0.6229	0.9234	0.6095	0.04
Mof_C 	C 	0.67327	0.85207	0.71398	0.084
Mof_C 	C 	0.69792	0.82698	0.71405	-0.16
Mof_H 	H 	0.7144	0.827	0.6899	0.106
Mof_C 	C 	0.73328	0.75863	0.70688	0.101
Mof_C 	C 	0.7269	0.745	0.6204	0.062
Mof_O 	O 	0.4654	0.14525	0.95011	-0.386
Mof_O 	O 	0.46532	0.20252	0.95004	-0.387
Mof_O 	O 	0.26484	0.21781	0.83711	-0.192
Mof_C 	C 	0.45488	0.17407	0.93566	0.341
Mof_C 	C 	0.42795	0.17372	0.89645	-0.082
Mof_C 	C 	0.4156	0.20393	0.8784	0.02
Mof_H 	H 	0.4238	0.2244	0.8899	0.046
Mof_C 	C 	0.39062	0.20306	0.84275	-0.084
Mof_H 	H 	0.3819	0.2233	0.831	0.067
Mof_C 	C 	0.37849	0.17327	0.82443	0.025
Mof_C 	C 	0.39148	0.14337	0.84251	-0.086
Mof_H 	H 	0.3837	0.1229	0.8301	0.065
Mof_C 	C 	0.41541	0.14327	0.87822	0.022
Mof_H 	H 	0.4234	0.1229	0.8905	0.043
Mof_C 	C 	0.35207	0.17327	0.78602	0.085
Mof_C 	C 	0.32698	0.19792	0.78595	-0.161
Mof_H 	H 	0.327	0.2144	0.8101	0.107
Mof_C 	C 	0.25863	0.23328	0.79312	0.102
Mof_C 	C 	0.245	0.2269	0.8796	0.067
Mof_O 	O 	0.9654	0.64525	0.45011	-0.398
Mof_O 	O 	0.96532	0.70252	0.45004	-0.399
Mof_O 	O 	0.76484	0.71781	0.33711	-0.194
Mof_C 	C 	0.95488	0.67407	0.43566	0.342
Mof_C 	C 	0.92795	0.67372	0.39645	-0.087
Mof_C 	C 	0.9156	0.70393	0.3784	0.022
Mof_H 	H 	0.9238	0.7244	0.3899	0.042
Mof_C 	C 	0.89062	0.70306	0.34275	-0.088
Mof_H 	H 	0.8819	0.7233	0.331	0.066
Mof_C 	C 	0.87849	0.67327	0.32443	0.026
Mof_C 	C 	0.89148	0.64337	0.34251	-0.09
Mof_H 	H 	0.8837	0.6229	0.3301	0.064
Mof_C 	C 	0.91541	0.64327	0.37822	0.024
Mof_H 	H 	0.9234	0.6229	0.3905	0.039
Mof_C 	C 	0.85207	0.67327	0.28602	0.081
Mof_C 	C 	0.82698	0.69792	0.28595	-0.16
Mof_H 	H 	0.827	0.7144	0.3101	0.105
Mof_C 	C 	0.75863	0.73328	0.29312	0.101
Mof_C 	C 	0.745	0.7269	0.3796	0.061
Mof_O 	O 	0.5346	0.85475	0.95011	-0.385
Mof_O 	O 	0.53468	0.79748	0.95004	-0.387
Mof_O 	O 	0.73516	0.78219	0.83711	-0.192
Mof_C 	C 	0.54512	0.82593	0.93566	0.341
Mof_C 	C 	0.57205	0.82628	0.89645	-0.081
Mof_C 	C 	0.5844	0.79607	0.8784	0.02
Mof_H 	H 	0.5762	0.7756	0.8899	0.046
Mof_C 	C 	0.60938	0.79694	0.84275	-0.083
Mof_H 	H 	0.6181	0.7767	0.831	0.067
Mof_C 	C 	0.62151	0.82673	0.82443	0.025
Mof_C 	C 	0.60852	0.85663	0.84251	-0.085
Mof_H 	H 	0.6163	0.8771	0.8301	0.066
Mof_C 	C 	0.58459	0.85673	0.87822	0.022
Mof_H 	H 	0.5766	0.8771	0.8905	0.044
Mof_C 	C 	0.64793	0.82673	0.78602	0.085
Mof_C 	C 	0.67302	0.80208	0.78595	-0.161
Mof_H 	H 	0.673	0.7856	0.8101	0.107
Mof_C 	C 	0.74137	0.76672	0.79312	0.102
Mof_C 	C 	0.755	0.7731	0.8796	0.067
Mof_O 	O 	0.0346	0.35475	0.45011	-0.401
Mof_O 	O 	0.03468	0.29748	0.45004	-0.403
Mof_O 	O 	0.23516	0.28219	0.33711	-0.194
Mof_C 	C 	0.04512	0.32593	0.43566	0.343
Mof_C 	C 	0.07205	0.32628	0.39645	-0.089
Mof_C 	C 	0.0844	0.29607	0.3784	0.022
Mof_H 	H 	0.0762	0.2756	0.3899	0.04
Mof_C 	C 	0.10938	0.29694	0.34275	-0.089
Mof_H 	H 	0.1181	0.2767	0.331	0.065
Mof_C 	C 	0.12151	0.32673	0.32443	0.026
Mof_C 	C 	0.10852	0.35663	0.34251	-0.091
Mof_H 	H 	0.1163	0.3771	0.3301	0.064
Mof_C 	C 	0.08459	0.35673	0.37822	0.025
Mof_H 	H 	0.0766	0.3771	0.3905	0.038
Mof_C 	C 	0.14793	0.32673	0.28602	0.081
Mof_C 	C 	0.17302	0.30208	0.28595	-0.159
Mof_H 	H 	0.173	0.2856	0.3101	0.104
Mof_C 	C 	0.24137	0.26672	0.29312	0.101
Mof_C 	C 	0.255	0.2731	0.3796	0.061
Mof_O 	O 	0.14525	0.5346	0.95011	-0.386
Mof_O 	O 	0.20252	0.53468	0.95004	-0.387
Mof_O 	O 	0.21781	0.73516	0.83711	-0.192
Mof_C 	C 	0.17407	0.54512	0.93566	0.341
Mof_C 	C 	0.17372	0.57205	0.89645	-0.082
Mof_C 	C 	0.20393	0.5844	0.8784	0.02
Mof_H 	H 	0.2244	0.5762	0.8899	0.046
Mof_C 	C 	0.20306	0.60938	0.84275	-0.084
Mof_H 	H 	0.2233	0.6181	0.831	0.067
Mof_C 	C 	0.17327	0.62151	0.82443	0.025
Mof_C 	C 	0.14337	0.60852	0.84251	-0.086
Mof_H 	H 	0.1229	0.6163	0.8301	0.065
Mof_C 	C 	0.14327	0.58459	0.87822	0.022
Mof_H 	H 	0.1229	0.5766	0.8905	0.043
Mof_C 	C 	0.17327	0.64793	0.78602	0.085
Mof_C 	C 	0.19792	0.67302	0.78595	-0.161
Mof_H 	H 	0.2144	0.673	0.8101	0.107
Mof_C 	C 	0.23328	0.74137	0.79312	0.102
Mof_C 	C 	0.2269	0.755	0.8796	0.067
Mof_O 	O 	0.64525	0.0346	0.45011	-0.401
Mof_O 	O 	0.70252	0.03468	0.45004	-0.402
Mof_O 	O 	0.71781	0.23516	0.33711	-0.194
Mof_C 	C 	0.67407	0.04512	0.43566	0.343
Mof_C 	C 	0.67372	0.07205	0.39645	-0.089
Mof_C 	C 	0.70393	0.0844	0.3784	0.022
Mof_H 	H 	0.7244	0.0762	0.3899	0.04
Mof_C 	C 	0.70306	0.10938	0.34275	-0.089
Mof_H 	H 	0.7233	0.1181	0.331	0.065
Mof_C 	C 	0.67327	0.12151	0.32443	0.026
Mof_C 	C 	0.64337	0.10852	0.34251	-0.091
Mof_H 	H 	0.6229	0.1163	0.3301	0.064
Mof_C 	C 	0.64327	0.08459	0.37822	0.025
Mof_H 	H 	0.6229	0.0766	0.3905	0.038
Mof_C 	C 	0.67327	0.14793	0.28602	0.081
Mof_C 	C 	0.69792	0.17302	0.28595	-0.159
Mof_H 	H 	0.7144	0.173	0.3101	0.104
Mof_C 	C 	0.73328	0.24137	0.29312	0.101
Mof_C 	C 	0.7269	0.255	0.3796	0.061
Mof_O 	O 	0.85475	0.4654	0.95011	-0.385
Mof_O 	O 	0.79748	0.46532	0.95004	-0.387
Mof_O 	O 	0.78219	0.26484	0.83711	-0.192
Mof_C 	C 	0.82593	0.45488	0.93566	0.341
Mof_C 	C 	0.82628	0.42795	0.89645	-0.081
Mof_C 	C 	0.79607	0.4156	0.8784	0.02
Mof_H 	H 	0.7756	0.4238	0.8899	0.046
Mof_C 	C 	0.79694	0.39062	0.84275	-0.083
Mof_H 	H 	0.7767	0.3819	0.831	0.067
Mof_C 	C 	0.82673	0.37849	0.82443	0.024
Mof_C 	C 	0.85663	0.39148	0.84251	-0.085
Mof_H 	H 	0.8771	0.3837	0.8301	0.065
Mof_C 	C 	0.85673	0.41541	0.87822	0.022
Mof_H 	H 	0.8771	0.4234	0.8905	0.044
Mof_C 	C 	0.82673	0.35207	0.78602	0.085
Mof_C 	C 	0.80208	0.32698	0.78595	-0.161
Mof_H 	H 	0.7856	0.327	0.8101	0.107
Mof_C 	C 	0.76672	0.25863	0.79312	0.102
Mof_C 	C 	0.7731	0.245	0.8796	0.067
Mof_O 	O 	0.35475	0.9654	0.45011	-0.398
Mof_O 	O 	0.29748	0.96532	0.45004	-0.399
Mof_O 	O 	0.28219	0.76484	0.33711	-0.194
Mof_C 	C 	0.32593	0.95488	0.43566	0.342
Mof_C 	C 	0.32628	0.92795	0.39645	-0.087
Mof_C 	C 	0.29607	0.9156	0.3784	0.022
Mof_H 	H 	0.2756	0.9238	0.3899	0.041
Mof_C 	C 	0.29694	0.89062	0.34275	-0.088
Mof_H 	H 	0.2767	0.8819	0.331	0.065
Mof_C 	C 	0.32673	0.87849	0.32443	0.026
Mof_C 	C 	0.35663	0.89148	0.34251	-0.09
Mof_H 	H 	0.3771	0.8837	0.3301	0.064
Mof_C 	C 	0.35673	0.91541	0.37822	0.024
Mof_H 	H 	0.3771	0.9234	0.3905	0.039
Mof_C 	C 	0.32673	0.85207	0.28602	0.081
Mof_C 	C 	0.30208	0.82698	0.28595	-0.16
Mof_H 	H 	0.2856	0.827	0.3101	0.104
Mof_C 	C 	0.26672	0.75863	0.29312	0.101
Mof_C 	C 	0.2731	0.745	0.3796	0.061
Mof_Cu	Cu	0.5	0.79278	-0	0.893
Mof_Cu	Cu	0.5	0.85973	-0	0.893
Mof_Cu	Cu	-3.39713e-33	0.29278	0.5	0.904
Mof_Cu	Cu	1.29993e-33	0.35973	0.5	0.904
Mof_Cu	Cu	0.5	0.20722	-0	0.893
Mof_Cu	Cu	0.5	0.14027	-0	0.892
Mof_Cu	Cu	-8.09418e-33	0.70722	0.5	0.905
Mof_Cu	Cu	-3.39713e-33	0.64027	0.5	0.904
Mof_Cu	Cu	0.20722	0.5	-0	0.893
Mof_Cu	Cu	0.14027	0.5	-0	0.892
Mof_Cu	Cu	0.70722	0	0.5	0.905
Mof_Cu	Cu	0.64027	0	0.5	0.904
Mof_Cu	Cu	0.79278	0.5	-0	0.893
Mof_Cu	Cu	0.85973	0.5	-0	0.893
Mof_Cu	Cu	0.29278	0	0.5	0.904
Mof_Cu	Cu	0.35973	0	0.5	0.904
Mof_C 	C 	0.35143	0.85143	0.75	-0.143
Mof_H 	H 	0.368	0.868	0.75	0.083
Mof_C 	C 	0.3015	0.8015	0.75	0.145
Mof_C 	C 	0.27502	0.77502	0.75	-0.1
Mof_C 	C 	0.64857	0.14857	0.75	-0.143
Mof_H 	H 	0.632	0.132	0.75	0.083
Mof_C 	C 	0.6985	0.1985	0.75	0.145
Mof_C 	C 	0.72498	0.22498	0.75	-0.1
Mof_C 	C 	0.14857	0.35143	0.75	-0.143
Mof_H 	H 	0.132	0.368	0.75	0.083
Mof_C 	C 	0.1985	0.3015	0.75	0.145
Mof_C 	C 	0.22498	0.27502	0.75	-0.1
Mof_C 	C 	0.64857	0.85143	0.25	-0.142
Mof_H 	H 	0.632	0.868	0.25	0.081
Mof_C 	C 	0.6985	0.8015	0.25	0.143
Mof_C 	C 	0.72498	0.77502	0.25	-0.101
Mof_C 	C 	0.85143	0.64857	0.75	-0.143
Mof_H 	H 	0.868	0.632	0.75	0.083
Mof_C 	C 	0.8015	0.6985	0.75	0.145
Mof_C 	C 	0.77502	0.72498	0.75	-0.1
Mof_C 	C 	0.35143	0.14857	0.25	-0.141
Mof_H 	H 	0.368	0.132	0.25	0.081
Mof_C 	C 	0.3015	0.1985	0.25	0.142
Mof_C 	C 	0.27502	0.22498	0.25	-0.101
Mof_C 	C 	0.85143	0.35143	0.25	-0.142
Mof_H 	H 	0.868	0.368	0.25	0.081
Mof_C 	C 	0.8015	0.3015	0.25	0.142
Mof_C 	C 	0.77502	0.27502	0.25	-0.101
Mof_C 	C 	0.14857	0.64857	0.25	-0.141
Mof_H 	H 	0.132	0.632	0.25	0.081
Mof_C 	C 	0.1985	0.6985	0.25	0.142
Mof_C 	C 	0.22498	0.72498	0.25	-0.101
Mof_C 	C 	0.64857	0.14857	0.25	-0.141
Mof_H 	H 	0.632	0.132	0.25	0.081
Mof_C 	C 	0.6985	0.1985	0.25	0.142
Mof_C 	C 	0.72498	0.22498	0.25	-0.101
Mof_C 	C 	0.35143	0.85143	0.25	-0.142
Mof_H 	H 	0.368	0.868	0.25	0.081
Mof_C 	C 	0.3015	0.8015	0.25	0.142
Mof_C 	C 	0.27502	0.77502	0.25	-0.101
Mof_C 	C 	0.85143	0.64857	0.25	-0.142
Mof_H 	H 	0.868	0.632	0.25	0.081
Mof_C 	C 	0.8015	0.6985	0.25	0.143
Mof_C 	C 	0.77502	0.72498	0.25	-0.101
Mof_C 	C 	0.14857	0.35143	0.25	-0.141
Mof_H 	H 	0.132	0.368	0.25	0.081
Mof_C 	C 	0.1985	0.3015	0.25	0.142
Mof_C 	C 	0.22498	0.27502	0.25	-0.101
Mof_C 	C 	0.35143	0.14857	0.75	-0.143
Mof_H 	H 	0.368	0.132	0.75	0.083
Mof_C 	C 	0.3015	0.1985	0.75	0.145
Mof_C 	C 	0.27502	0.22498	0.75	-0.1
Mof_C 	C 	0.64857	0.85143	0.75	-0.143
Mof_H 	H 	0.632	0.868	0.75	0.083
Mof_C 	C 	0.6985	0.8015	0.75	0.145
Mof_C 	C 	0.72498	0.77502	0.75	-0.1
Mof_C 	C 	0.14857	0.64857	0.75	-0.143
Mof_H 	H 	0.132	0.632	0.75	0.083
Mof_C 	C 	0.1985	0.6985	0.75	0.145
Mof_C 	C 	0.22498	0.72498	0.75	-0.1
Mof_C 	C 	0.85143	0.35143	0.75	-0.143
Mof_H 	H 	0.868	0.368	0.75	0.083
Mof_C 	C 	0.8015	0.3015	0.75	0.145
Mof_C 	C 	0.77502	0.27502	0.75	-0.1
_end
