data_functionalizedCrystal
_audit_creation_method	'EQeq! by Chris Wilmer'
_symmetry_space_group_name_H-M	'P1'
_symmetry_Int_Tables_number	1
_symmetry_cell_setting	triclinic
loop_
_symmetry_equiv_pos_as_xyz
  x,y,z
_cell_length_a	11.058
_cell_length_b	12.034
_cell_length_c	16.1678
_cell_angle_alpha	99.9467
_cell_angle_beta	109.997
_cell_angle_gamma	90
loop_
_atom_site_label
_atom_site_type_symbol
_atom_site_fract_x
_atom_site_fract_y
_atom_site_fract_z
_atom_site_charge
Mof_Co	Co	0.20475	0.52844	0.22572	1.151
Mof_Co	Co	0.97903	0.97156	0.77428	1.149
Mof_Co	Co	0.79525	0.47156	0.77428	1.151
Mof_Co	Co	0.02097	0.02844	0.22572	1.151
Mof_Co	Co	0.05244	0.75	-0	1.163
Mof_Co	Co	0.94756	0.25	-0	1.161
Mof_H 	H 	0.7479	0.4053	0.1782	0.026
Mof_H 	H 	0.6582	0.5238	0.2656	0.075
Mof_H 	H 	0.7198	0.7151	0.3018	0.037
Mof_H 	H 	0.3749	0.6835	0.1686	-0.018
Mof_H 	H 	0.5026	0.6717	0.0836	0.079
Mof_H 	H 	0.3655	0.352	0.9822	0.201
Mof_H 	H 	0.2404	0.3725	0.0706	-0.029
Mof_H 	H 	0.0945	0.3551	0.302	0.013
Mof_H 	H 	0.0085	0.3392	0.4092	0.067
Mof_H 	H 	0.0564	0.6732	0.4872	0.076
Mof_H 	H 	0.1341	0.6807	0.3736	-0.008
Mof_H 	H 	0.5697	0.0947	0.8218	0.033
Mof_H 	H 	0.3926	0.9762	0.7344	0.075
Mof_H 	H 	0.418	0.7849	0.6982	0.035
Mof_H 	H 	0.2063	0.8165	0.8314	-0.003
Mof_H 	H 	0.419	0.8283	0.9164	0.077
Mof_H 	H 	0.3833	0.148	0.0178	-0.044
Mof_H 	H 	0.1698	0.1275	0.9294	0.063
Mof_H 	H 	0.7925	0.1449	0.698	0.012
Mof_H 	H 	0.5993	0.1608	0.5908	0.065
Mof_H 	H 	0.5692	0.8268	0.5128	0.074
Mof_H 	H 	0.7605	0.8193	0.6264	-0.008
Mof_H 	H 	0.2521	0.5947	0.8218	0.034
Mof_H 	H 	0.3418	0.4762	0.7344	0.075
Mof_H 	H 	0.2802	0.2849	0.6982	0.036
Mof_H 	H 	0.6251	0.3165	0.8314	-0.005
Mof_H 	H 	0.4974	0.3283	0.9164	0.079
Mof_H 	H 	0.6345	0.648	0.0178	-0.037
Mof_H 	H 	0.7596	0.6275	0.9294	0.06
Mof_H 	H 	0.9055	0.6449	0.698	0.013
Mof_H 	H 	0.9915	0.6608	0.5908	0.063
Mof_H 	H 	0.9436	0.3268	0.5128	0.072
Mof_H 	H 	0.8659	0.3193	0.6264	-0.008
Mof_H 	H 	0.4303	0.9053	0.1782	0.022
Mof_H 	H 	0.6074	0.0238	0.2656	0.078
Mof_H 	H 	0.582	0.2151	0.3018	0.034
Mof_H 	H 	0.7937	0.1835	0.1686	-0.018
Mof_H 	H 	0.581	0.1717	0.0836	0.078
Mof_H 	H 	0.6167	0.852	0.9822	0.192
Mof_H 	H 	0.8302	0.8725	0.0706	-0.027
Mof_H 	H 	0.2075	0.8551	0.302	0.013
Mof_H 	H 	0.4007	0.8392	0.4092	0.064
Mof_H 	H 	0.4308	0.1732	0.4872	0.073
Mof_H 	H 	0.2395	0.1807	0.3736	-0.007
Mof_C 	C 	0.9077	0.6367	0.1882	-0.04
Mof_C 	C 	0.8664	0.5215	0.1652	-0.109
Mof_C 	C 	0.7739	0.4818	0.194	0.034
Mof_C 	C 	0.7193	0.5521	0.2456	-0.097
Mof_C 	C 	0.7569	0.6666	0.2672	0.012
Mof_C 	C 	0.8481	0.7099	0.2388	-0.07
Mof_C 	C 	0.01	0.6782	0.155	0.37
Mof_C 	C 	0.9255	0.4387	0.1122	0.356
Mof_C 	C 	0.8848	0.8349	0.2646	0.335
Mof_C 	C 	0.3746	0.6148	0.1318	0.09
Mof_C 	C 	0.4524	0.6084	0.0814	-0.159
Mof_C 	C 	0.456	0.5056	0.0258	0.082
Mof_C 	C 	0.3719	0.4199	0.0214	-0.32
Mof_C 	C 	0.2957	0.4331	0.0746	0.161
Mof_C 	C 	0.0872	0.4203	0.3398	0.073
Mof_C 	C 	0.0368	0.4102	0.405	-0.13
Mof_C 	C 	0.0276	0.504	0.4646	0.062
Mof_C 	C 	0.0638	0.6066	0.4508	-0.133
Mof_C 	C 	0.1113	0.6104	0.3824	0.081
Mof_C 	C 	0.7195	0.8633	0.8118	-0.028
Mof_C 	C 	0.7012	0.9785	0.8348	-0.097
Mof_C 	C 	0.5799	0.0182	0.806	0.043
Mof_C 	C 	0.4737	0.9479	0.7544	-0.099
Mof_C 	C 	0.4897	0.8334	0.7328	0.017
Mof_C 	C 	0.6093	0.7901	0.7612	-0.072
Mof_C 	C 	0.855	0.8218	0.845	0.356
Mof_C 	C 	0.8133	0.0613	0.8878	0.358
Mof_C 	C 	0.6202	0.6651	0.7354	0.338
Mof_C 	C 	0.2428	0.8852	0.8682	0.065
Mof_C 	C 	0.371	0.8916	0.9186	-0.088
Mof_C 	C 	0.4302	0.9944	0.9742	0.032
Mof_C 	C 	0.3505	0.0801	0.9786	0.079
Mof_C 	C 	0.2211	0.0669	0.9254	-0.003
Mof_C 	C 	0.7474	0.0797	0.6602	0.071
Mof_C 	C 	0.6318	0.0898	0.595	-0.129
Mof_C 	C 	0.563	0.996	0.5354	0.058
Mof_C 	C 	0.613	0.8934	0.5492	-0.132
Mof_C 	C 	0.7289	0.8896	0.6176	0.079
Mof_C 	C 	0.0923	0.3633	0.8118	-0.022
Mof_C 	C 	0.1336	0.4785	0.8348	-0.095
Mof_C 	C 	0.2261	0.5182	0.806	0.038
Mof_C 	C 	0.2807	0.4479	0.7544	-0.095
Mof_C 	C 	0.2431	0.3334	0.7328	0.016
Mof_C 	C 	0.1519	0.2901	0.7612	-0.072
Mof_C 	C 	0.99	0.3218	0.845	0.346
Mof_C 	C 	0.0745	0.5613	0.8878	0.362
Mof_C 	C 	0.1152	0.1651	0.7354	0.338
Mof_C 	C 	0.6254	0.3852	0.8682	0.067
Mof_C 	C 	0.5476	0.3916	0.9186	-0.092
Mof_C 	C 	0.544	0.4944	0.9742	0.039
Mof_C 	C 	0.6281	0.5801	0.9786	0.065
Mof_C 	C 	0.7043	0.5669	0.9254	0.001
Mof_C 	C 	0.9128	0.5797	0.6602	0.068
Mof_C 	C 	0.9632	0.5898	0.595	-0.124
Mof_C 	C 	0.9724	0.496	0.5354	0.051
Mof_C 	C 	0.9362	0.3934	0.5492	-0.127
Mof_C 	C 	0.8887	0.3896	0.6176	0.076
Mof_C 	C 	0.2805	0.1367	0.1882	-0.033
Mof_C 	C 	0.2988	0.0215	0.1652	-0.12
Mof_C 	C 	0.4201	0.9818	0.194	0.049
Mof_C 	C 	0.5263	0.0521	0.2456	-0.11
Mof_C 	C 	0.5103	0.1666	0.2672	0.021
Mof_C 	C 	0.3907	0.2099	0.2388	-0.075
Mof_C 	C 	0.145	0.1782	0.155	0.366
Mof_C 	C 	0.1867	0.9387	0.1122	0.362
Mof_C 	C 	0.3798	0.3349	0.2646	0.337
Mof_C 	C 	0.7572	0.1148	0.1318	0.088
Mof_C 	C 	0.629	0.1084	0.0814	-0.156
Mof_C 	C 	0.5698	0.0056	0.0258	0.077
Mof_C 	C 	0.6495	0.9199	0.0214	-0.304
Mof_C 	C 	0.7789	0.9331	0.0746	0.157
Mof_C 	C 	0.2526	0.9203	0.3398	0.071
Mof_C 	C 	0.3682	0.9102	0.405	-0.125
Mof_C 	C 	0.437	0.004	0.4646	0.054
Mof_C 	C 	0.387	0.1066	0.4508	-0.129
Mof_C 	C 	0.2711	0.1104	0.3824	0.078
Mof_N 	N 	0.2983	0.5284	0.1318	-0.258
Mof_N 	N 	0.1261	0.519	0.3288	-0.236
Mof_N 	N 	0.1665	0.9716	0.8682	-0.215
Mof_N 	N 	0.7973	0.981	0.6712	-0.237
Mof_N 	N 	0.7017	0.4716	0.8682	-0.216
Mof_N 	N 	0.8739	0.481	0.6712	-0.236
Mof_N 	N 	0.8335	0.0284	0.1318	-0.258
Mof_N 	N 	0.2027	0.019	0.3288	-0.236
Mof_O 	O 	0.96564	0.6992	0.07688	-0.447
Mof_O 	O 	0.12598	0.6812	0.20176	-0.448
Mof_O 	O 	0.97033	0.8689	0.23826	-0.41
Mof_O 	O 	0.8299	0.8962	0.3086	-0.294
Mof_O 	O 	0.04221	0.4501	0.12142	-0.459
Mof_O 	O 	0.8534	0.356	0.0596	-0.451
Mof_O 	O 	0.88876	0.8008	0.92312	-0.388
Mof_O 	O 	0.92422	0.8188	0.79824	-0.44
Mof_O 	O 	0.73207	0.6311	0.76174	-0.41
Mof_O 	O 	0.5213	0.6038	0.6914	-0.295
Mof_O 	O 	0.92079	0.0499	0.87858	-0.436
Mof_O 	O 	0.7938	0.144	0.9404	-0.383
Mof_O 	O 	0.03436	0.3008	0.92312	-0.379
Mof_O 	O 	0.87402	0.3188	0.79824	-0.437
Mof_O 	O 	0.02967	0.1311	0.76174	-0.407
Mof_O 	O 	0.1701	0.1038	0.6914	-0.294
Mof_O 	O 	0.95779	0.5499	0.87858	-0.439
Mof_O 	O 	0.1466	0.644	0.9404	-0.383
Mof_O 	O 	0.11124	0.1992	0.07688	-0.446
Mof_O 	O 	0.07578	0.1812	0.20176	-0.447
Mof_O 	O 	0.26793	0.3689	0.23826	-0.411
Mof_O 	O 	0.4787	0.3962	0.3086	-0.295
Mof_O 	O 	0.07921	0.9501	0.12142	-0.46
Mof_O 	O 	0.2062	0.856	0.0596	-0.451
_end
