data_functionalizedCrystal
_audit_creation_method	'EQeq! by Chris Wilmer'
_symmetry_space_group_name_H-M	'P1'
_symmetry_Int_Tables_number	1
_symmetry_cell_setting	triclinic
loop_
_symmetry_equiv_pos_as_xyz
  x,y,z
_cell_length_a	53.7275
_cell_length_b	53.7274
_cell_length_c	53.7274
_cell_angle_alpha	109.471
_cell_angle_beta	109.471
_cell_angle_gamma	109.471
loop_
_atom_site_label
_atom_site_type_symbol
_atom_site_fract_x
_atom_site_fract_y
_atom_site_fract_z
_atom_site_charge
Mof_Zn	Zn	0.34507	0.65074	0.05398	1.216
Mof_Zn	Zn	0.05398	0.90324	0.20891	1.216
Mof_Zn	Zn	0.30567	0.70891	0.15493	1.216
Mof_Zn	Zn	0.70891	0.05398	0.40324	1.216
Mof_Zn	Zn	0.20891	0.40324	0.05398	1.216
Mof_Zn	Zn	0.23896	0.42451	0.2086	1.2
Mof_Zn	Zn	0.90324	0.70891	0.55398	1.216
Mof_Zn	Zn	0.84507	0.79109	0.69433	1.216
Mof_Zn	Zn	0.07549	0.81445	0.28409	1.2
Mof_Zn	Zn	0.59676	0.44602	0.29109	1.216
Mof_Zn	Zn	0.71591	0.68555	0.92451	1.2
Mof_Zn	Zn	0.34926	0.90324	0.69433	1.216
Mof_Zn	Zn	0.21591	0.2914	0.03036	1.2
Mof_Zn	Zn	0.78409	0.07549	0.31445	1.2
Mof_Zn	Zn	0.94602	0.09676	0.79109	1.216
Mof_Zn	Zn	0.73896	0.2086	0.42451	1.2
Mof_Zn	Zn	0.7086	0.23896	0.92451	1.2
Mof_Zn	Zn	0.80567	0.15493	0.70891	1.216
Mof_Zn	Zn	0.03036	0.7914	0.21591	1.2
Mof_Zn	Zn	0.84926	0.15493	0.44602	1.216
Mof_Zn	Zn	0.2914	0.53036	0.71591	1.2
Mof_Zn	Zn	0.73896	0.53036	0.81445	1.2
Mof_Zn	Zn	0.15074	0.30567	0.09676	1.216
Mof_Zn	Zn	0.20891	0.80567	0.65493	1.216
Mof_Zn	Zn	0.92451	0.73896	0.7086	1.2
Mof_Zn	Zn	0.05398	0.15074	0.34507	1.216
Mof_Zn	Zn	0.96964	0.76104	0.68555	1.2
Mof_Zn	Zn	0.69433	0.29109	0.84507	1.216
Mof_Zn	Zn	0.46964	0.78409	0.2086	1.2
Mof_Zn	Zn	0.42451	0.7086	0.73896	1.2
Mof_Zn	Zn	0.65074	0.09676	0.30567	1.216
Mof_Zn	Zn	0.57549	0.28409	0.81445	1.2
Mof_Zn	Zn	0.42451	0.71591	0.18555	1.2
Mof_Zn	Zn	0.29109	0.34507	0.19433	1.216
Mof_Zn	Zn	0.28409	0.96964	0.7086	1.2
Mof_Zn	Zn	0.18555	0.96964	0.26104	1.2
Mof_Zn	Zn	0.2086	0.92451	0.23896	1.2
Mof_Zn	Zn	0.34926	0.44602	0.15493	1.216
Mof_Zn	Zn	0.21591	0.92451	0.68555	1.2
Mof_Zn	Zn	0.69433	0.40324	0.34926	1.216
Mof_Zn	Zn	0.7914	0.71591	0.53036	1.2
Mof_Zn	Zn	0.15493	0.94602	0.34926	1.216
Mof_Zn	Zn	0.40324	0.84926	0.19433	1.216
Mof_Zn	Zn	0.7086	0.46964	0.28409	1.2
Mof_Zn	Zn	0.15074	0.84507	0.55398	1.216
Mof_Zn	Zn	0.90324	0.19433	0.84926	1.216
Mof_Zn	Zn	0.79109	0.19433	0.34507	1.216
Mof_Zn	Zn	0.2914	0.76104	0.07549	1.2
Mof_Zn	Zn	0.65074	0.55398	0.84507	1.215
Mof_Zn	Zn	0.70891	0.65493	0.80567	1.215
Mof_Zn	Zn	0.57549	0.2914	0.26104	1.199
Mof_Zn	Zn	0.81445	0.03036	0.73896	1.199
Mof_Zn	Zn	0.80567	0.65074	0.59676	1.215
Mof_Zn	Zn	0.46964	0.68555	0.76104	1.199
Mof_Zn	Zn	0.81445	0.78409	0.57549	1.199
Mof_Zn	Zn	0.44602	0.79109	0.09676	1.215
Mof_Zn	Zn	0.68555	0.42451	0.21591	1.199
Mof_Zn	Zn	0.03036	0.23896	0.31445	1.199
Mof_Zn	Zn	0.71591	0.03036	0.2914	1.199
Mof_Zn	Zn	0.09676	0.80567	0.15074	1.215
Mof_Zn	Zn	0.26104	0.46964	0.18555	1.199
Mof_Zn	Zn	0.84926	0.69433	0.90324	1.215
Mof_Zn	Zn	0.55398	0.20891	0.90324	1.215
Mof_Zn	Zn	0.19433	0.34926	0.40324	1.215
Mof_Zn	Zn	0.7914	0.07549	0.76104	1.199
Mof_Zn	Zn	0.30567	0.59676	0.65074	1.215
Mof_Zn	Zn	0.76104	0.18555	0.46964	1.199
Mof_Zn	Zn	0.31445	0.57549	0.78409	1.199
Mof_Zn	Zn	0.09676	0.29109	0.44602	1.215
Mof_Zn	Zn	0.44602	0.65493	0.84926	1.215
Mof_Zn	Zn	0.68555	0.26104	0.96964	1.199
Mof_Zn	Zn	0.65493	0.34926	0.94602	1.215
Mof_Zn	Zn	0.18555	0.21591	0.42451	1.199
Mof_Zn	Zn	0.96964	0.2086	0.78409	1.199
Mof_Zn	Zn	0.15493	0.20891	0.30567	1.215
Mof_Zn	Zn	0.55398	0.34507	0.15074	1.215
Mof_Zn	Zn	0.78409	0.7086	0.96964	1.199
Mof_Zn	Zn	0.65493	0.30567	0.20891	1.215
Mof_Zn	Zn	0.79109	0.59676	0.94602	1.215
Mof_Zn	Zn	0.2086	0.28409	0.46964	1.199
Mof_Zn	Zn	0.53036	0.31445	0.23896	1.199
Mof_Zn	Zn	0.26104	0.7914	0.57549	1.199
Mof_Zn	Zn	0.40324	0.55398	0.70891	1.215
Mof_Zn	Zn	0.94602	0.84926	0.65493	1.215
Mof_Zn	Zn	0.53036	0.21591	0.7914	1.199
Mof_Zn	Zn	0.34507	0.69433	0.79109	1.215
Mof_Zn	Zn	0.29109	0.94602	0.59676	1.215
Mof_Zn	Zn	0.84507	0.05398	0.65074	1.215
Mof_Zn	Zn	0.59676	0.15074	0.80567	1.215
Mof_Zn	Zn	0.76104	0.57549	0.7914	1.199
Mof_Zn	Zn	0.23896	0.81445	0.53036	1.199
Mof_Zn	Zn	0.19433	0.84507	0.29109	1.215
Mof_Zn	Zn	0.28409	0.31445	0.07549	1.199
Mof_Zn	Zn	0.07549	0.26104	0.2914	1.199
Mof_Zn	Zn	0.92451	0.18555	0.71591	1.199
Mof_Zn	Zn	0.31445	0.73896	0.03036	1.199
Mof_H 	H 	0.2184	0.2845	0.2013	0.061
Mof_H 	H 	0.2875	0.6353	0.5772	0.052
Mof_H 	H 	0.6791	0.4858	0.9403	0.07
Mof_H 	H 	0.4755	0.6745	0.8148	-0.02
Mof_H 	H 	0.7103	0.2875	0.1522	0.052
Mof_H 	H 	0.7326	0.1162	0.4448	-0.027
Mof_H 	H 	0.7201	0.433	0.7929	0.052
Mof_H 	H 	0.7591	0.6092	0.4723	0.04
Mof_H 	H 	0.1317	0.0618	0.3313	0.071
Mof_H 	H 	0.3067	0.8209	0.2612	0.07
Mof_H 	H 	0.7155	0.2987	0.2816	0.061
Mof_H 	H 	0.1522	0.3647	0.9419	0.052
Mof_H 	H 	0.3102	0.6496	0.693	0.163
Mof_H 	H 	0.6369	0.3501	0.1092	0.04
Mof_H 	H 	0.9566	0.807	0.6172	0.163
Mof_H 	H 	0.6051	0.7131	0.9386	0.062
Mof_H 	H 	0.8067	0.5455	0.4858	0.07
Mof_H 	H 	0.4386	0.8335	0.7255	0.062
Mof_H 	H 	0.4272	0.6401	0.2071	0.052
Mof_H 	H 	0.3393	0.8148	0.1403	-0.02
Mof_H 	H 	0.4416	0.5936	0.7744	0.164
Mof_H 	H 	0.7155	0.4168	0.9339	0.061
Mof_H 	H 	0.7256	0.5584	0.9064	0.164
Mof_H 	H 	0.0728	0.7929	0.3599	0.052
Mof_H 	H 	0.0614	0.7869	0.3949	0.062
Mof_H 	H 	0.4448	0.8286	0.2122	-0.027
Mof_H 	H 	0.1353	0.7875	0.0772	0.052
Mof_H 	H 	0.2674	0.3836	0.2122	-0.027
Mof_H 	H 	0.7838	0.4968	0.9372	0.045
Mof_H 	H 	0.8004	0.1317	0.5699	0.071
Mof_H 	H 	0.5596	0.5628	0.8466	0.045
Mof_H 	H 	0.713	0.1534	0.7162	0.045
Mof_H 	H 	0.0584	0.8328	0.152	0.164
Mof_H 	H 	0.4386	0.6051	0.2131	0.062
Mof_H 	H 	0.7131	0.2745	0.108	0.062
Mof_H 	H 	0.5614	0.3949	0.7869	0.062
Mof_H 	H 	0.8067	0.2612	0.8209	0.07
Mof_H 	H 	0.4228	0.8647	0.7125	0.052
Mof_H 	H 	0.892	0.6665	0.1051	0.062
Mof_H 	H 	0.0455	0.7388	0.5597	0.07
Mof_H 	H 	0.8183	0.6171	0.4772	0.064
Mof_H 	H 	0.6162	0.2326	0.9448	-0.027
Mof_H 	H 	0.5434	0.1606	0.8504	0.163
Mof_H 	H 	0.9419	0.0772	0.2897	0.052
Mof_H 	H 	0.8597	0.6852	0.6607	-0.02
Mof_H 	H 	0.6745	0.3148	0.9755	-0.02
Mof_H 	H 	0.5832	0.0171	0.2987	0.061
Mof_H 	H 	0.3599	0.2929	0.0728	0.052
Mof_H 	H 	0.8908	0.7409	0.0277	0.04
Mof_H 	H 	0.652	0.5936	0.8192	0.164
Mof_H 	H 	0.0228	0.1817	0.8829	0.064
Mof_H 	H 	0.7987	0.5832	0.5171	0.061
Mof_H 	H 	0.7929	0.933	0.7201	0.052
Mof_H 	H 	0.2409	0.8501	0.2132	0.04
Mof_H 	H 	0.4382	0.3683	0.1687	0.071
Mof_H 	H 	0.5277	0.6369	0.7868	0.04
Mof_H 	H 	0.8647	0.6522	0.4419	0.052
Mof_H 	H 	0.9419	0.8647	0.1522	0.052
Mof_H 	H 	0.7129	0.0728	0.7799	0.052
Mof_H 	H 	0.5142	0.9545	0.1933	0.07
Mof_H 	H 	0.8908	0.1499	0.3631	0.04
Mof_H 	H 	0.1817	0.3829	0.5228	0.064
Mof_H 	H 	0.0661	0.0832	0.2845	0.061
Mof_H 	H 	0.2988	0.6171	0.1399	0.064
Mof_H 	H 	0.1317	0.0699	0.3004	0.071
Mof_H 	H 	0.8501	0.7132	0.7409	0.04
Mof_H 	H 	0.5618	0.9301	0.2305	0.071
Mof_H 	H 	0.0455	0.3067	0.9858	0.07
Mof_H 	H 	0.7125	0.3647	0.4228	0.052
Mof_H 	H 	0.0277	0.2409	0.8908	0.04
Mof_H 	H 	0.4339	0.7184	0.0171	0.061
Mof_H 	H 	0.9829	0.2013	0.9168	0.061
Mof_H 	H 	0.3829	0.3601	0.2012	0.064
Mof_H 	H 	0.2155	0.9339	0.4168	0.061
Mof_H 	H 	0.6672	0.2256	0.8192	0.164
Mof_H 	H 	0.9448	0.2122	0.8286	-0.027
Mof_H 	H 	0.7388	0.6791	0.6933	0.07
Mof_H 	H 	0.5772	0.4419	0.7897	0.052
Mof_H 	H 	0.1171	0.7988	0.6399	0.064
Mof_H 	H 	0.2103	0.0581	0.4228	0.052
Mof_H 	H 	0.3836	0.7122	0.7674	-0.027
Mof_H 	H 	0.6606	0.6172	0.8102	0.163
Mof_H 	H 	0.8313	0.1317	0.5618	0.071
Mof_H 	H 	0.1172	0.1606	0.3102	0.163
Mof_H 	H 	0.1745	0.9755	0.3148	-0.02
Mof_H 	H 	0.6996	0.2695	0.3313	0.071
Mof_H 	H 	0.4858	0.4403	0.1791	0.07
Mof_H 	H 	0.3466	0.787	0.7838	0.045
Mof_H 	H 	0.7744	0.6808	0.8328	0.164
Mof_H 	H 	0.2256	0.3192	0.1672	0.164
Mof_H 	H 	0.6403	0.3393	0.3148	-0.02
Mof_H 	H 	0.193	0.3102	0.1496	0.163
Mof_H 	H 	0.2201	0.4272	0.2871	0.052
Mof_H 	H 	0.5552	0.1714	0.7878	-0.027
Mof_H 	H 	0.5434	0.3828	0.193	0.163
Mof_H 	H 	0.2612	0.9403	0.4545	0.07
Mof_H 	H 	0.5661	0.2845	0.0832	0.061
Mof_H 	H 	0.3183	0.8411	0.2012	0.064
Mof_H 	H 	0.9228	0.2103	0.5581	0.052
Mof_H 	H 	0.0661	0.9829	0.2816	0.061
Mof_H 	H 	0.2744	0.4416	0.0936	0.164
Mof_H 	H 	0.7409	0.2132	0.8501	0.04
Mof_H 	H 	0.4403	0.6791	0.9858	0.07
Mof_H 	H 	0.8647	0.2125	0.9228	0.052
Mof_H 	H 	0.6172	0.307	0.9566	0.163
Mof_H 	H 	0.8209	0.7612	0.8067	0.07
Mof_H 	H 	0.5171	0.4339	0.2184	0.061
Mof_H 	H 	0.5245	0.3255	0.1852	-0.02
Mof_H 	H 	0.9339	0.9168	0.7155	0.061
Mof_H 	H 	0.8148	0.6403	0.8393	-0.02
Mof_H 	H 	0.693	0.5434	0.8828	0.163
Mof_H 	H 	0.567	0.8599	0.2871	0.052
Mof_H 	H 	0.1401	0.2129	0.933	0.052
Mof_H 	H 	0.0936	0.152	0.3192	0.164
Mof_H 	H 	0.9386	0.2131	0.6051	0.062
Mof_H 	H 	0.1051	0.1665	0.892	0.062
Mof_H 	H 	0.4064	0.7256	0.0584	0.164
Mof_H 	H 	0.7897	0.9419	0.5772	0.052
Mof_H 	H 	0.3328	0.7744	0.1808	0.164
Mof_H 	H 	0.6317	0.3313	0.0618	0.071
Mof_H 	H 	0.0596	0.213	0.9968	0.045
Mof_H 	H 	0.3828	0.6898	0.8394	0.163
Mof_H 	H 	0.1898	0.307	0.3504	0.163
Mof_H 	H 	0.6401	0.7071	0.9272	0.052
Mof_H 	H 	0.5455	0.5597	0.7388	0.07
Mof_H 	H 	0.301	0.3255	0.1403	-0.02
Mof_H 	H 	0.7845	0.7184	0.7013	0.061
Mof_H 	H 	0.6499	0.3908	0.8631	0.04
Mof_H 	H 	0.7129	0.6401	0.433	0.052
Mof_H 	H 	0.8393	0.699	0.5245	-0.02
Mof_H 	H 	0.2695	0.8313	0.1996	0.071
Mof_H 	H 	0.2897	0.7125	0.8478	0.052
Mof_H 	H 	0.2129	0.433	0.6401	0.052
Mof_H 	H 	0.9545	0.6933	0.0142	0.07
Mof_H 	H 	0.1607	0.301	0.4755	-0.02
Mof_H 	H 	0.5628	0.3466	0.0596	0.045
Mof_H 	H 	0.1162	0.1714	0.3836	-0.027
Mof_H 	H 	0.6808	0.3328	0.2744	0.164
Mof_H 	H 	0.8192	0.0936	0.652	0.164
Mof_H 	H 	0.8394	0.1898	0.3828	0.163
Mof_H 	H 	0.3192	0.6672	0.7256	0.164
Mof_H 	H 	0.7013	0.4829	0.4168	0.061
Mof_H 	H 	0.7201	0.2871	0.4272	0.052
Mof_H 	H 	0.7871	0.567	0.3599	0.052
Mof_H 	H 	0.9386	0.7255	0.8335	0.062
Mof_H 	H 	0.9403	0.9545	0.7612	0.07
Mof_H 	H 	0.3192	0.652	0.0936	0.164
Mof_H 	H 	0.9858	0.1791	0.4403	0.07
Mof_H 	H 	0.0699	0.2695	0.9382	0.071
Mof_H 	H 	0.2201	0.7929	0.433	0.052
Mof_H 	H 	0.6898	0.3394	0.8828	0.163
Mof_H 	H 	0.5661	0.2816	0.9829	0.061
Mof_H 	H 	0.6164	0.2878	0.2326	-0.027
Mof_H 	H 	0.8949	0.0614	0.2869	0.062
Mof_H 	H 	0.9382	0.7695	0.0699	0.071
Mof_H 	H 	0.5699	0.6317	0.8004	0.071
Mof_H 	H 	0.8183	0.2012	0.8411	0.064
Mof_H 	H 	0.807	0.6898	0.8504	0.163
Mof_H 	H 	0.1522	0.7875	0.7103	0.052
Mof_H 	H 	0.3328	0.5584	0.652	0.164
Mof_H 	H 	0.1353	0.3478	0.5581	0.052
Mof_H 	H 	0.7987	0.2155	0.7816	0.061
Mof_H 	H 	0.2868	0.5277	0.1369	0.04
Mof_H 	H 	0.392	0.2869	0.2255	0.062
Mof_H 	H 	0.5728	0.2129	0.2799	0.052
Mof_H 	H 	0.5032	0.5628	0.7162	0.045
Mof_H 	H 	0.4382	0.0699	0.7695	0.071
Mof_H 	H 	0.0614	0.2745	0.1665	0.062
Mof_H 	H 	0.3148	0.4755	0.1745	-0.02
Mof_H 	H 	0.1399	0.1171	0.2988	0.064
Mof_H 	H 	0.287	0.8466	0.2838	0.045
Mof_H 	H 	0.9064	0.848	0.6808	0.164
Mof_H 	H 	0.1808	0.2744	0.3328	0.164
Mof_H 	H 	0.933	0.7129	0.1401	0.052
Mof_H 	H 	0.5728	0.3599	0.7929	0.052
Mof_H 	H 	0.2071	0.1401	0.4272	0.052
Mof_H 	H 	0.5142	0.5597	0.8209	0.07
Mof_H 	H 	0.8478	0.6353	0.0581	0.052
Mof_H 	H 	0.6589	0.4772	0.8601	0.064
Mof_H 	H 	0.1672	0.8192	0.2256	0.164
Mof_H 	H 	0.6808	0.348	0.9064	0.164
Mof_H 	H 	0.8599	0.7871	0.067	0.052
Mof_H 	H 	0.8286	0.7122	0.9448	-0.027
Mof_H 	H 	0.0936	0.9416	0.2744	0.164
Mof_H 	H 	0.7305	0.5618	0.4301	0.071
Mof_H 	H 	0.2816	0.4829	0.0661	0.061
Mof_H 	H 	0.4403	0.7612	0.9545	0.07
Mof_H 	H 	0.2103	0.1522	0.2875	0.052
Mof_H 	H 	0.5772	0.1353	0.2875	0.052
Mof_H 	H 	0.6852	0.1607	0.3597	-0.02
Mof_H 	H 	0.3335	0.9386	0.2255	0.062
Mof_H 	H 	0.1714	0.8836	0.6162	-0.027
Mof_H 	H 	0.3828	0.693	0.0434	0.163
Mof_H 	H 	0.1606	0.3504	0.0434	0.163
Mof_H 	H 	0.567	0.7071	0.7799	0.052
Mof_H 	H 	0.0552	0.7878	0.1714	-0.027
Mof_H 	H 	0.1369	0.0277	0.2868	0.04
Mof_H 	H 	0.067	0.2871	0.8599	0.052
Mof_H 	H 	0.7744	0.0936	0.4416	0.164
Mof_H 	H 	0.4858	0.0455	0.8067	0.07
Mof_H 	H 	0.2695	0.4382	0.5699	0.071
Mof_H 	H 	0.3209	0.8067	0.7612	0.07
Mof_H 	H 	0.2122	0.8836	0.2674	-0.027
Mof_H 	H 	0.2744	0.8328	0.6808	0.164
Mof_H 	H 	0.067	0.7799	0.7071	0.052
Mof_H 	H 	0.8683	0.9382	0.6687	0.071
Mof_H 	H 	0.7897	0.8478	0.7125	0.052
Mof_H 	H 	0.7845	0.0661	0.5832	0.061
Mof_H 	H 	0.6496	0.4566	0.3394	0.163
Mof_H 	H 	0.9168	0.7013	0.9829	0.061
Mof_H 	H 	0.1606	0.8102	0.6172	0.163
Mof_H 	H 	0.2012	0.8601	0.3829	0.064
Mof_H 	H 	0.8631	0.8908	0.6499	0.04
Mof_H 	H 	0.9545	0.2612	0.4403	0.07
Mof_H 	H 	0.348	0.9416	0.6672	0.164
Mof_H 	H 	0.199	0.8597	0.6745	-0.02
Mof_H 	H 	0.2869	0.7255	0.892	0.062
Mof_H 	H 	0.0832	0.7845	0.5661	0.061
Mof_H 	H 	0.8255	0.801	0.6403	-0.02
Mof_H 	H 	0.9416	0.7744	0.5936	0.164
Mof_H 	H 	0.3411	0.5228	0.1399	0.064
Mof_H 	H 	0.3478	0.0581	0.6353	0.052
Mof_H 	H 	0.7162	0.6534	0.713	0.045
Mof_H 	H 	0.4064	0.6808	0.848	0.164
Mof_H 	H 	0.9755	0.8148	0.6745	-0.02
Mof_H 	H 	0.0618	0.8313	0.6317	0.071
Mof_H 	H 	0.2591	0.4723	0.6092	0.04
Mof_H 	H 	0.152	0.8192	0.5936	0.164
Mof_H 	H 	0.8599	0.0728	0.2929	0.052
Mof_H 	H 	0.2125	0.7897	0.3478	0.052
Mof_H 	H 	0.7871	0.2201	0.9272	0.052
Mof_H 	H 	0.7929	0.8599	0.5728	0.052
Mof_H 	H 	0.3597	0.6607	0.6852	-0.02
Mof_H 	H 	0.1499	0.2868	0.2591	0.04
Mof_H 	H 	0.213	0.7162	0.1534	0.045
Mof_H 	H 	0.3286	0.3838	0.1164	-0.027
Mof_H 	H 	0.1996	0.8683	0.4301	0.071
Mof_H 	H 	0.3004	0.7305	0.6687	0.071
Mof_H 	H 	0.0628	0.0032	0.2162	0.045
Mof_H 	H 	0.787	0.2838	0.8466	0.045
Mof_H 	H 	0.1589	0.2988	0.1817	0.064
Mof_H 	H 	0.0772	0.7897	0.4419	0.052
Mof_H 	H 	0.9858	0.8067	0.0455	0.07
Mof_H 	H 	0.5581	0.8478	0.1353	0.052
Mof_H 	H 	0.0434	0.8504	0.1606	0.163
Mof_H 	H 	0.7816	0.0661	0.4829	0.061
Mof_H 	H 	0.848	0.1808	0.4064	0.164
Mof_H 	H 	0.8004	0.6687	0.7305	0.071
Mof_H 	H 	0.5832	0.5661	0.7845	0.061
Mof_H 	H 	0.7695	0.1996	0.8313	0.071
Mof_H 	H 	0.5936	0.3192	0.152	0.164
Mof_H 	H 	0.6317	0.3004	0.0699	0.071
Mof_H 	H 	0.2745	0.6665	0.5614	0.062
Mof_H 	H 	0.4829	0.5661	0.7816	0.061
Mof_H 	H 	0.8466	0.0628	0.5596	0.045
Mof_H 	H 	0.5581	0.7103	0.9228	0.052
Mof_H 	H 	0.4419	0.2897	0.0772	0.052
Mof_H 	H 	0.693	0.1496	0.3102	0.163
Mof_H 	H 	0.348	0.4064	0.1808	0.164
Mof_H 	H 	0.6496	0.193	0.8102	0.163
Mof_H 	H 	0.0581	0.9228	0.7103	0.052
Mof_H 	H 	0.1496	0.8102	0.193	0.163
Mof_H 	H 	0.1996	0.3313	0.2695	0.071
Mof_H 	H 	0.6534	0.213	0.2162	0.045
Mof_H 	H 	0.9372	0.9968	0.7838	0.045
Mof_H 	H 	0.1496	0.3394	0.4566	0.163
Mof_H 	H 	0.0584	0.2256	0.4064	0.164
Mof_H 	H 	0.5936	0.2744	0.9416	0.164
Mof_H 	H 	0.933	0.2201	0.2929	0.052
Mof_H 	H 	0.8504	0.6606	0.5434	0.163
Mof_H 	H 	0.1808	0.9064	0.348	0.164
Mof_H 	H 	0.2929	0.7201	0.933	0.052
Mof_H 	H 	0.8828	0.8394	0.6898	0.163
Mof_H 	H 	0.1401	0.9272	0.7071	0.052
Mof_H 	H 	0.6353	0.0772	0.7875	0.052
Mof_H 	H 	0.2845	0.5832	0.0661	0.061
Mof_H 	H 	0.3647	0.4419	0.6522	0.052
Mof_H 	H 	0.199	0.3393	0.0245	-0.02
Mof_H 	H 	0.9968	0.713	0.0596	0.045
Mof_H 	H 	0.3683	0.6687	0.9382	0.071
Mof_H 	H 	0.3504	0.807	0.1898	0.163
Mof_H 	H 	0.5171	0.0832	0.7987	0.061
Mof_H 	H 	0.2845	0.7013	0.7184	0.061
Mof_H 	H 	0.2897	0.5772	0.9419	0.052
Mof_H 	H 	0.9404	0.1534	0.4372	0.045
Mof_H 	H 	0.6589	0.1817	0.2988	0.064
Mof_H 	H 	0.0728	0.2799	0.2129	0.052
Mof_H 	H 	0.2131	0.1051	0.4386	0.062
Mof_H 	H 	0.1791	0.2388	0.1933	0.07
Mof_H 	H 	0.3829	0.0228	0.6817	0.064
Mof_H 	H 	0.4448	0.6162	0.7326	-0.027
Mof_H 	H 	0.1369	0.1092	0.3501	0.04
Mof_H 	H 	0.0277	0.7868	0.6369	0.04
Mof_H 	H 	0.7122	0.4448	0.3286	-0.027
Mof_H 	H 	0.7745	0.2131	0.608	0.062
Mof_H 	H 	0.6714	0.0552	0.2878	-0.027
Mof_H 	H 	0.9968	0.2838	0.4372	0.045
Mof_H 	H 	0.4545	0.4403	0.2612	0.07
Mof_H 	H 	0.713	0.5596	0.4968	0.045
Mof_H 	H 	0.7012	0.3183	0.3411	0.064
Mof_H 	H 	0.2012	0.3411	0.3183	0.064
Mof_H 	H 	0.3102	0.6606	0.1172	0.163
Mof_H 	H 	0.7612	0.3067	0.3209	0.07
Mof_H 	H 	0.1898	0.8828	0.3394	0.163
Mof_H 	H 	0.7012	0.3829	0.8601	0.064
Mof_H 	H 	0.6401	0.933	0.2129	0.052
Mof_H 	H 	0.2305	0.8004	0.1687	0.071
Mof_H 	H 	0.7162	0.0628	0.5032	0.045
Mof_H 	H 	0.7799	0.2071	0.567	0.052
Mof_H 	H 	0.7838	0.287	0.3466	0.045
Mof_H 	H 	0.2745	0.608	0.2131	0.062
Mof_H 	H 	0.9404	0.787	0.0032	0.045
Mof_H 	H 	0.3067	0.4858	0.5455	0.07
Mof_H 	H 	0.8829	0.6817	0.0228	0.064
Mof_H 	H 	0.7612	0.4545	0.9403	0.07
Mof_H 	H 	0.2591	0.7868	0.1499	0.04
Mof_H 	H 	0.2929	0.5728	0.8599	0.052
Mof_H 	H 	0.0832	0.2987	0.0171	0.061
Mof_H 	H 	0.1403	0.8255	0.301	-0.02
Mof_H 	H 	0.7875	0.5772	0.6353	0.052
Mof_H 	H 	0.699	0.0245	0.3393	-0.02
Mof_H 	H 	0.108	0.3335	0.8949	0.062
Mof_H 	H 	0.2255	0.7869	0.392	0.062
Mof_H 	H 	0.1164	0.2326	0.2878	-0.027
Mof_H 	H 	0.6522	0.9419	0.3647	0.052
Mof_H 	H 	0.2868	0.7591	0.6499	0.04
Mof_H 	H 	0.1933	0.7388	0.1791	0.07
Mof_H 	H 	0.2162	0.713	0.6534	0.045
Mof_H 	H 	0.307	0.8504	0.6898	0.163
Mof_H 	H 	0.608	0.8949	0.3335	0.062
Mof_H 	H 	0.4566	0.8394	0.1496	0.163
Mof_H 	H 	0.2388	0.6933	0.6791	0.07
Mof_H 	H 	0.8393	0.1403	0.8148	-0.02
Mof_H 	H 	0.1687	0.8683	0.4382	0.071
Mof_H 	H 	0.0596	0.8466	0.5628	0.045
Mof_H 	H 	0.2878	0.5552	0.6714	-0.027
Mof_H 	H 	0.787	0.5032	0.4404	0.045
Mof_H 	H 	0.608	0.7131	0.7745	0.062
Mof_H 	H 	0.7868	0.1369	0.5277	0.04
Mof_H 	H 	0.5614	0.1665	0.2745	0.062
Mof_H 	H 	0.3597	0.699	0.1745	-0.02
Mof_H 	H 	0.6745	0.3597	0.199	-0.02
Mof_H 	H 	0.2612	0.3209	0.3067	0.07
Mof_H 	H 	0.5277	0.8908	0.2409	0.04
Mof_H 	H 	0.6687	0.2305	0.3004	0.071
Mof_H 	H 	0.2162	0.5032	0.0628	0.045
Mof_H 	H 	0.108	0.7745	0.7131	0.062
Mof_H 	H 	0.9064	0.0584	0.7256	0.164
Mof_H 	H 	0.7071	0.2799	0.067	0.052
Mof_H 	H 	0.2132	0.3501	0.2409	0.04
Mof_H 	H 	0.3838	0.7674	0.0552	-0.027
Mof_H 	H 	0.7799	0.5728	0.7129	0.052
Mof_H 	H 	0.1092	0.8501	0.6369	0.04
Mof_H 	H 	0.3478	0.2897	0.2125	0.052
Mof_H 	H 	0.4372	0.7838	0.9968	0.045
Mof_H 	H 	0.3004	0.5699	0.1317	0.071
Mof_H 	H 	0.4772	0.3601	0.1589	0.064
Mof_H 	H 	0.2129	0.7799	0.0728	0.052
Mof_H 	H 	0.2987	0.7816	0.2155	0.061
Mof_H 	H 	0.4339	0.7155	0.9168	0.061
Mof_H 	H 	0.9566	0.1496	0.8394	0.163
Mof_H 	H 	0.3255	0.6403	0.801	-0.02
Mof_H 	H 	0.1534	0.9372	0.4404	0.045
Mof_H 	H 	0.5032	0.9404	0.287	0.045
Mof_H 	H 	0.1092	0.2591	0.9723	0.04
Mof_H 	H 	0.8102	0.1172	0.6606	0.163
Mof_H 	H 	0.9272	0.7201	0.7871	0.052
Mof_H 	H 	0.6164	0.3286	0.8838	-0.027
Mof_H 	H 	0.1589	0.8601	0.4772	0.064
Mof_H 	H 	0.6817	0.5228	0.3829	0.064
Mof_H 	H 	0.0245	0.1852	0.3255	-0.02
Mof_H 	H 	0.3148	0.8393	0.6403	-0.02
Mof_H 	H 	0.3411	0.8183	0.7012	0.064
Mof_H 	H 	0.287	0.4404	0.5032	0.045
Mof_H 	H 	0.7674	0.5552	0.8838	-0.027
Mof_H 	H 	0.5455	0.9858	0.3067	0.07
Mof_H 	H 	0.1672	0.348	0.4416	0.164
Mof_H 	H 	0.5552	0.3838	0.2674	-0.027
Mof_H 	H 	0.9403	0.9858	0.6791	0.07
Mof_H 	H 	0.0597	0.0455	0.2388	0.07
Mof_H 	H 	0.8286	0.1164	0.3838	-0.027
Mof_H 	H 	0.2155	0.2816	0.2987	0.061
Mof_H 	H 	0.1665	0.7745	0.0614	0.062
Mof_H 	H 	0.1687	0.3004	0.2305	0.071
Mof_H 	H 	0.9382	0.1687	0.3683	0.071
Mof_H 	H 	0.2013	0.4168	0.4829	0.061
Mof_H 	H 	0.1164	0.8838	0.3286	-0.027
Mof_H 	H 	0.6852	0.5245	0.8255	-0.02
Mof_H 	H 	0.1499	0.8631	0.3908	0.04
Mof_H 	H 	0.3599	0.067	0.7871	0.052
Mof_H 	H 	0.5597	0.3209	0.0142	0.07
Mof_H 	H 	0.2409	0.3908	0.5277	0.04
Mof_H 	H 	0.1852	0.8255	0.5245	-0.02
Mof_H 	H 	0.4404	0.4372	0.1534	0.045
Mof_H 	H 	0.4419	0.1522	0.8647	0.052
Mof_H 	H 	0.152	0.3328	0.0584	0.164
Mof_H 	H 	0.6534	0.4404	0.9372	0.045
Mof_H 	H 	0.699	0.6745	0.8597	-0.02
Mof_H 	H 	0.6607	0.4755	0.301	-0.02
Mof_H 	H 	0.8394	0.6496	0.9566	0.163
Mof_H 	H 	0.8838	0.0552	0.7674	-0.027
Mof_H 	H 	0.2871	0.3599	0.567	0.052
Mof_H 	H 	0.8335	0.608	0.3949	0.062
Mof_H 	H 	0.4272	0.7871	0.7201	0.052
Mof_H 	H 	0.7255	0.392	0.7869	0.062
Mof_H 	H 	0.6353	0.5581	0.3478	0.052
Mof_H 	H 	0.8335	0.2255	0.9386	0.062
Mof_H 	H 	0.433	0.1401	0.7129	0.052
Mof_H 	H 	0.7013	0.2184	0.7845	0.061
Mof_H 	H 	0.9372	0.9404	0.6534	0.045
Mof_H 	H 	0.6499	0.2591	0.2868	0.04
Mof_H 	H 	0.801	0.1403	0.3255	-0.02
Mof_H 	H 	0.807	0.1172	0.4566	0.163
Mof_H 	H 	0.2013	0.7845	0.2184	0.061
Mof_H 	H 	0.6399	0.2988	0.1171	0.064
Mof_H 	H 	0.652	0.0584	0.3328	0.164
Mof_H 	H 	0.6172	0.3102	0.1606	0.163
Mof_H 	H 	0.7988	0.6589	0.6817	0.064
Mof_H 	H 	0.9339	0.0171	0.7184	0.061
Mof_H 	H 	0.3255	0.6852	0.0245	-0.02
Mof_H 	H 	0.0142	0.8209	0.5597	0.07
Mof_H 	H 	0.7869	0.892	0.7255	0.062
Mof_H 	H 	0.2256	0.9064	0.5584	0.164
Mof_H 	H 	0.7184	0.5171	0.9339	0.061
Mof_H 	H 	0.2988	0.6817	0.6589	0.064
Mof_H 	H 	0.6399	0.3411	0.0228	0.064
Mof_H 	H 	0.6898	0.3504	0.307	0.163
Mof_H 	H 	0.0552	0.2674	0.3838	-0.027
Mof_H 	H 	0.2131	0.108	0.2745	0.062
Mof_H 	H 	0.7869	0.8949	0.5614	0.062
Mof_H 	H 	0.0581	0.1353	0.8478	0.052
Mof_H 	H 	0.9723	0.2132	0.3631	0.04
Mof_H 	H 	0.4168	0.4339	0.2155	0.061
Mof_H 	H 	0.0772	0.2875	0.1353	0.052
Mof_H 	H 	0.1171	0.3183	0.9772	0.064
Mof_H 	H 	0.7591	0.1499	0.7868	0.04
Mof_H 	H 	0.9448	0.7326	0.6162	-0.027
Mof_H 	H 	0.2305	0.4301	0.5618	0.071
Mof_H 	H 	0.7131	0.4386	0.1051	0.062
Mof_H 	H 	0.8328	0.1808	0.7744	0.164
Mof_H 	H 	0.4723	0.1092	0.7591	0.04
Mof_H 	H 	0.4829	0.9168	0.2013	0.061
Mof_H 	H 	0.8411	0.1399	0.5228	0.064
Mof_H 	H 	0.7103	0.4228	0.0581	0.052
Mof_H 	H 	0.6665	0.0614	0.7745	0.062
Mof_H 	H 	0.8631	0.9723	0.7132	0.04
Mof_H 	H 	0.8466	0.7838	0.787	0.045
Mof_H 	H 	0.9772	0.8183	0.1171	0.064
Mof_H 	H 	0.2255	0.4386	0.3335	0.062
Mof_H 	H 	0.6817	0.1589	0.7988	0.064
Mof_H 	H 	0.2875	0.6522	0.2103	0.052
Mof_H 	H 	0.4755	0.801	0.1607	-0.02
Mof_H 	H 	0.3393	0.5245	0.699	-0.02
Mof_H 	H 	0.9416	0.1672	0.848	0.164
Mof_H 	H 	0.3908	0.0277	0.7409	0.04
Mof_H 	H 	0.1607	0.8597	0.1852	-0.02
Mof_H 	H 	0.9829	0.7816	0.5661	0.061
Mof_H 	H 	0.2122	0.3286	0.4448	-0.027
Mof_H 	H 	0.4301	0.0618	0.7305	0.071
Mof_H 	H 	0.3949	0.2869	0.0614	0.062
Mof_H 	H 	0.7878	0.1164	0.7326	-0.027
Mof_H 	H 	0.892	0.2255	0.2869	0.062
Mof_H 	H 	0.3183	0.4772	0.6171	0.064
Mof_H 	H 	0.0032	0.7162	0.5628	0.045
Mof_H 	H 	0.7125	0.3478	0.7897	0.052
Mof_H 	H 	0.3394	0.3828	0.1898	0.163
Mof_H 	H 	0.4228	0.5581	0.2103	0.052
Mof_H 	H 	0.6933	0.5142	0.4545	0.07
Mof_H 	H 	0.8597	0.1745	0.699	-0.02
Mof_H 	H 	0.0171	0.2184	0.4339	0.061
Mof_H 	H 	0.3836	0.6714	0.1162	-0.027
Mof_H 	H 	0.7305	0.1687	0.8004	0.071
Mof_H 	H 	0.2326	0.4448	0.1162	-0.027
Mof_H 	H 	0.1817	0.7988	0.1589	0.064
Mof_H 	H 	0.6162	0.3836	0.1714	-0.027
Mof_H 	H 	0.2799	0.7129	0.5728	0.052
Mof_H 	H 	0.5699	0.9382	0.2695	0.071
Mof_H 	H 	0.7674	0.2122	0.3836	-0.027
Mof_H 	H 	0.6665	0.6051	0.392	0.062
Mof_H 	H 	0.1162	0.9448	0.2326	-0.027
Mof_H 	H 	0.6369	0.2868	0.0277	0.04
Mof_H 	H 	0.3631	0.6499	0.8908	0.04
Mof_H 	H 	0.6051	0.892	0.1665	0.062
Mof_H 	H 	0.2125	0.4228	0.3647	0.052
Mof_H 	H 	0.1791	0.9403	0.4858	0.07
Mof_H 	H 	0.3313	0.5618	0.1317	0.071
Mof_H 	H 	0.3286	0.9448	0.7122	-0.027
Mof_H 	H 	0.0171	0.7987	0.0832	0.061
Mof_H 	H 	0.3335	0.3949	0.608	0.062
Mof_H 	H 	0.3838	0.6164	0.8286	-0.027
Mof_H 	H 	0.8328	0.652	0.5584	0.164
Mof_H 	H 	0.8411	0.7012	0.8183	0.064
Mof_H 	H 	0.9301	0.7305	0.0618	0.071
Mof_H 	H 	0.8255	0.0245	0.6852	-0.02
Mof_H 	H 	0.3949	0.108	0.8335	0.062
Mof_H 	H 	0.8836	0.1162	0.6714	-0.027
Mof_H 	H 	0.5228	0.8829	0.1817	0.064
Mof_H 	H 	0.1665	0.392	0.6051	0.062
Mof_H 	H 	0.2388	0.5455	0.0597	0.07
Mof_H 	H 	0.6403	0.301	0.8255	-0.02
Mof_H 	H 	0.0699	0.8004	0.6317	0.071
Mof_H 	H 	0.4772	0.1171	0.8183	0.064
Mof_H 	H 	0.3504	0.5434	0.6606	0.163
Mof_H 	H 	0.7868	0.6499	0.7591	0.04
Mof_H 	H 	0.7409	0.5277	0.3908	0.04
Mof_H 	H 	0.5597	0.2388	0.0455	0.07
Mof_H 	H 	0.213	0.4968	0.5596	0.045
Mof_H 	H 	0.4545	0.0142	0.6933	0.07
Mof_H 	H 	0.3683	0.6996	0.9301	0.071
Mof_H 	H 	0.2674	0.8838	0.5552	-0.027
Mof_H 	H 	0.5618	0.6317	0.8313	0.071
Mof_H 	H 	0.5584	0.4064	0.2256	0.164
Mof_H 	H 	0.0245	0.8393	0.199	-0.02
Mof_H 	H 	0.5228	0.6399	0.8411	0.064
Mof_H 	H 	0.848	0.6672	0.9416	0.164
Mof_H 	H 	0.1051	0.9386	0.7131	0.062
Mof_H 	H 	0.801	0.6607	0.9755	-0.02
Mof_H 	H 	0.2326	0.7878	0.6164	-0.027
Mof_H 	H 	0.4723	0.3631	0.2132	0.04
Mof_H 	H 	0.5596	0.9968	0.213	0.045
Mof_H 	H 	0.4968	0.4372	0.2838	0.045
Mof_H 	H 	0.1852	0.3597	0.1607	-0.02
Mof_H 	H 	0.8836	0.7674	0.7122	-0.027
Mof_H 	H 	0.3601	0.6589	0.9772	0.064
Mof_H 	H 	0.2071	0.067	0.2799	0.052
Mof_H 	H 	0.9168	0.2155	0.4339	0.061
Mof_H 	H 	0.0628	0.0596	0.3466	0.045
Mof_H 	H 	0.0228	0.8411	0.6399	0.064
Mof_H 	H 	0.3908	0.3631	0.1499	0.04
Mof_H 	H 	0.8504	0.1898	0.807	0.163
Mof_H 	H 	0.6522	0.7103	0.7875	0.052
Mof_H 	H 	0.4566	0.6172	0.807	0.163
Mof_H 	H 	0.2838	0.9372	0.4968	0.045
Mof_H 	H 	0.2838	0.3466	0.287	0.045
Mof_H 	H 	0.2184	0.9339	0.5171	0.061
Mof_H 	H 	0.9301	0.1996	0.3683	0.071
Mof_H 	H 	0.6606	0.0434	0.3504	0.163
Mof_H 	H 	0.307	0.4566	0.1172	0.163
Mof_H 	H 	0.3466	0.5596	0.0628	0.045
Mof_H 	H 	0.7745	0.5614	0.6665	0.062
Mof_H 	H 	0.8501	0.1369	0.6092	0.04
Mof_H 	H 	0.6714	0.6162	0.8836	-0.027
Mof_H 	H 	0.2799	0.567	0.2071	0.052
Mof_H 	H 	0.6687	0.4382	0.8683	0.071
Mof_H 	H 	0.1534	0.2162	0.213	0.045
Mof_H 	H 	0.8829	0.2012	0.3601	0.064
Mof_H 	H 	0.5245	0.199	0.8393	-0.02
Mof_H 	H 	0.8601	0.8829	0.7012	0.064
Mof_H 	H 	0.6791	0.1933	0.2388	0.07
Mof_H 	H 	0.1172	0.9566	0.307	0.163
Mof_H 	H 	0.0032	0.287	0.9404	0.045
Mof_H 	H 	0.6171	0.9772	0.3183	0.064
Mof_H 	H 	0.2816	0.7987	0.7155	0.061
Mof_H 	H 	0.3631	0.7132	0.9723	0.04
Mof_H 	H 	0.1745	0.199	0.3597	-0.02
Mof_H 	H 	0.6171	0.6399	0.7988	0.064
Mof_H 	H 	0.9755	0.1607	0.801	-0.02
Mof_H 	H 	0.8838	0.8286	0.6164	-0.027
Mof_H 	H 	0.6996	0.4301	0.8683	0.071
Mof_H 	H 	0.2132	0.8631	0.4723	0.04
Mof_H 	H 	0.1399	0.0228	0.3411	0.064
Mof_H 	H 	0.0618	0.2305	0.9301	0.071
Mof_H 	H 	0.4372	0.6534	0.9404	0.045
Mof_H 	H 	0.4968	0.0596	0.713	0.045
Mof_H 	H 	0.7184	0.2013	0.2845	0.061
Mof_H 	H 	0.4168	0.9829	0.7013	0.061
Mof_H 	H 	0.0597	0.0142	0.3209	0.07
Mof_H 	H 	0.8192	0.7256	0.6672	0.164
Mof_H 	H 	0.4416	0.848	0.1672	0.164
Mof_H 	H 	0.4404	0.0032	0.787	0.045
Mof_H 	H 	0.8209	0.0597	0.5142	0.07
Mof_H 	H 	0.8102	0.693	0.6496	0.163
Mof_H 	H 	0.7695	0.5699	0.4382	0.071
Mof_H 	H 	0.7256	0.1672	0.3192	0.164
Mof_H 	H 	0.3601	0.7012	0.8829	0.064
Mof_H 	H 	0.6092	0.6369	0.8501	0.04
Mof_H 	H 	0.7132	0.2409	0.3501	0.04
Mof_H 	H 	0.7388	0.0597	0.5455	0.07
Mof_H 	H 	0.7071	0.4272	0.1401	0.052
Mof_H 	H 	0.6672	0.4416	0.348	0.164
Mof_H 	H 	0.1714	0.2878	0.0552	-0.027
Mof_H 	H 	0.7122	0.2674	0.8836	-0.027
Mof_H 	H 	0.2869	0.5614	0.8949	0.062
Mof_H 	H 	0.1933	0.4545	0.5142	0.07
Mof_H 	H 	0.8828	0.0434	0.693	0.163
Mof_H 	H 	0.193	0.8828	0.5434	0.163
Mof_H 	H 	0.9228	0.7125	0.8647	0.052
Mof_H 	H 	0.3501	0.6092	0.1369	0.04
Mof_H 	H 	0.4301	0.3683	0.1996	0.071
Mof_H 	H 	0.3313	0.7695	0.6996	0.071
Mof_H 	H 	0.8683	0.9301	0.6996	0.071
Mof_H 	H 	0.8313	0.6996	0.7695	0.071
Mof_H 	H 	0.7326	0.6164	0.7878	-0.027
Mof_H 	H 	0.3209	0.5142	0.0597	0.07
Mof_H 	H 	0.8478	0.2125	0.2897	0.052
Mof_H 	H 	0.7816	0.7155	0.7987	0.061
Mof_H 	H 	0.392	0.1051	0.6665	0.062
Mof_H 	H 	0.9723	0.7591	0.1092	0.04
Mof_H 	H 	0.7878	0.6714	0.5552	-0.027
Mof_H 	H 	0.9272	0.2071	0.6401	0.052
Mof_H 	H 	0.5628	0.2162	0.0032	0.045
Mof_H 	H 	0.2878	0.7326	0.1164	-0.027
Mof_H 	H 	0.7132	0.4723	0.8631	0.04
Mof_H 	H 	0.3501	0.7409	0.7132	0.04
Mof_H 	H 	0.6933	0.1791	0.7388	0.07
Mof_H 	H 	0.6092	0.9723	0.2591	0.04
Mof_H 	H 	0.7988	0.1399	0.6171	0.064
Mof_H 	H 	0.8949	0.8335	0.108	0.062
Mof_H 	H 	0.0434	0.193	0.3828	0.163
Mof_H 	H 	0.6607	0.1852	0.8597	-0.02
Mof_H 	H 	0.3394	0.9566	0.6496	0.163
Mof_H 	H 	0.1403	0.3148	0.3393	-0.02
Mof_H 	H 	0.3647	0.9228	0.2125	0.052
Mof_H 	H 	0.301	0.9755	0.6607	-0.02
Mof_H 	H 	0.0142	0.1933	0.9545	0.07
Mof_H 	H 	0.7875	0.2103	0.6522	0.052
Mof_H 	H 	0.8601	0.9772	0.6589	0.064
Mof_H 	H 	0.5584	0.152	0.8328	0.164
Mof_H 	H 	0.7255	0.3335	0.4386	0.062
Mof_H 	H 	0.2871	0.9272	0.2201	0.052
Mof_H 	H 	0.433	0.2929	0.2201	0.052
Mof_H 	H 	0.8148	0.1745	0.4755	-0.02
Mof_H 	H 	0.9772	0.1589	0.3601	0.064
Mof_H 	H 	0.2987	0.5171	0.5832	0.061
Mof_C 	C 	0.603	0.3409	0.8281	0.376
Mof_C 	C 	0.68884	0.14949	0.36895	0.086
Mof_C 	C 	0.3001	0.7185	0.8896	-0.078
Mof_C 	C 	0.5128	0.6719	0.7749	0.376
Mof_C 	C 	0.74243	0.25425	0.81766	-0.072
Mof_C 	C 	0.22425	0.43165	0.5762	-0.113
Mof_C 	C 	0.43254	0.73721	0.14129	0.102
Mof_C 	C 	0.87499	0.68744	0.61243	-0.042
Mof_C 	C 	0.56948	0.56451	0.79165	-0.043
Mof_C 	C 	0.75215	0.28591	0.31358	-0.096
Mof_C 	C 	0.38012	0.84473	0.70697	-0.054
Mof_C 	C 	0.31358	0.52767	0.06143	-0.096
Mof_C 	C 	0.06254	0.00799	0.23439	0.014
Mof_C 	C 	0.36895	0.64949	0.68884	0.086
Mof_C 	C 	0.22217	0.79165	0.22714	-0.043
Mof_C 	C 	0.17315	0.03539	0.38012	-0.054
Mof_C 	C 	0.22462	0.93698	0.45886	0.03
Mof_C 	C 	0.54114	0.56302	0.77538	0.03
Mof_C 	C 	0.2736	0.82815	0.26561	0.014
Mof_C 	C 	0.10828	0.27858	0.2363	-0.085
Mof_C 	C 	0.68861	0.07253	0.29342	0.093
Mof_C 	C 	0.22089	0.42747	0.11608	0.093
Mof_C 	C 	0.23744	0.31245	0.12501	-0.042
Mof_C 	C 	0.9184	0.1999	0.5895	-0.078
Mof_C 	C 	0.4184	0.8289	0.7185	-0.078
Mof_C 	C 	0.63023	0.50435	0.33288	0.339
Mof_C 	C 	0.5816	0.4105	0.8001	-0.078
Mof_C 	C 	0.72217	0.49503	0.43052	-0.043
Mof_C 	C 	0.53539	0.67315	0.88012	-0.054
Mof_C 	C 	0.49201	0.43746	0.26561	0.014
Mof_C 	C 	0.7861	0.14917	0.54407	0.025
Mof_C 	C 	0.24785	0.53376	0.06143	-0.096
Mof_C 	C 	0.7812	0.5913	0.7153	-0.022
Mof_C 	C 	0.06254	0.05455	0.32815	0.014
Mof_C 	C 	0.14455	0.0762	0.35195	-0.113
Mof_C 	C 	0.66461	0.396	0.93663	0.351
Mof_C 	C 	0.70584	0.38413	0.84519	-0.055
Mof_C 	C 	0.86065	0.70584	0.82171	-0.055
Mof_C 	C 	0.63776	0.67315	0.79303	-0.054
Mof_C 	C 	0.2812	0.7153	0.5913	-0.022
Mof_C 	C 	0.06302	0.02188	0.28764	0.03
Mof_C 	C 	0.53935	0.31989	0.18884	0.086
Mof_C 	C 	0.60481	0.31139	0.88392	0.093
Mof_C 	C 	0.38757	0.57501	0.76256	-0.042
Mof_C 	C 	0.13585	0.3485	0.93915	-0.008
Mof_C 	C 	0.32815	0.55455	0.06254	0.014
Mof_C 	C 	0.86307	0.7139	0.75797	0.025
Mof_C 	C 	0.03539	0.15527	0.86224	-0.054
Mof_C 	C 	0.50497	0.43549	0.22714	-0.043
Mof_C 	C 	0.80467	0.06746	0.70875	0.102
Mof_C 	C 	0.93915	0.8485	0.13585	-0.008
Mof_C 	C 	0.80143	0.2123	0.87093	0.051
Mof_C 	C 	0.29165	0.56948	0.06451	-0.043
Mof_C 	C 	0.28752	0.41267	0.09585	0.124
Mof_C 	C 	0.30143	0.4305	0.58913	0.051
Mof_C 	C 	0.75425	0.24243	0.31766	-0.072
Mof_C 	C 	0.0942	0.1964	0.9102	0.019
Mof_C 	C 	0.4058	0.316	0.1022	0.019
Mof_C 	C 	0.57523	0.01182	0.25757	-0.072
Mof_C 	C 	0.23424	0.45886	0.52188	0.03
Mof_C 	C 	0.72425	0.5762	0.43165	-0.113
Mof_C 	C 	0.54063	0.43663	0.27202	0.351
Mof_C 	C 	0.103	0.8281	0.3409	0.376
Mof_C 	C 	0.81139	0.70658	0.92747	0.093
Mof_C 	C 	0.75757	0.57523	0.51182	-0.072
Mof_C 	C 	0.50799	0.56254	0.73439	0.014
Mof_C 	C 	0.5128	0.8409	0.2379	0.376
Mof_C 	C 	0.604	0.56337	0.83539	0.351
Mof_C 	C 	0.73424	0.52188	0.45886	0.03
Mof_C 	C 	0.08733	0.21248	0.40415	0.124
Mof_C 	C 	0.37485	0.58733	0.68318	0.124
Mof_C 	C 	0.0816	0.8001	0.4105	-0.078
Mof_C 	C 	0.8033	0.86415	0.71265	-0.008
Mof_C 	C 	0.06746	0.85871	0.26279	0.102
Mof_C 	C 	0.26561	0.93746	0.49201	0.014
Mof_C 	C 	0.9087	0.1899	0.624	-0.022
Mof_C 	C 	0.56451	0.29165	0.06948	-0.043
Mof_C 	C 	0.79165	0.72714	0.72217	-0.043
Mof_C 	C 	0.1515	0.36415	0.56085	-0.008
Mof_C 	C 	0.897	0.1719	0.6591	0.376
Mof_C 	C 	0.4238	0.35545	0.14805	-0.113
Mof_C 	C 	0.11587	0.32171	0.96106	-0.055
Mof_C 	C 	0.43052	0.99503	0.72217	-0.043
Mof_C 	C 	0.67185	0.44545	0.93746	0.014
Mof_C 	C 	0.4087	0.7847	0.7188	-0.022
Mof_C 	C 	0.6051	0.95593	0.24203	0.025
Mof_C 	C 	0.35545	0.7074	0.93165	-0.113
Mof_C 	C 	0.78054	0.13105	0.31989	0.086
Mof_C 	C 	0.3485	0.43915	0.63585	-0.008
Mof_C 	C 	0.6967	0.28735	0.13585	-0.008
Mof_C 	C 	0.4087	0.624	0.1899	-0.022
Mof_C 	C 	0.35871	0.79125	0.09592	0.102
Mof_C 	C 	0.81358	0.75215	0.78591	-0.096
Mof_C 	C 	0.92747	0.72089	0.61608	0.093
Mof_C 	C 	0.5762	0.93165	0.22425	-0.113
Mof_C 	C 	0.89172	0.1703	0.62802	-0.085
Mof_C 	C 	0.96461	0.11988	0.32685	-0.054
Mof_C 	C 	0.06835	0.27575	0.9238	-0.113
Mof_C 	C 	0.06337	0.95937	0.22798	0.351
Mof_C 	C 	0.0128	0.7749	0.6719	0.376
Mof_C 	C 	0.95772	0.7363	0.12802	-0.085
Mof_C 	C 	0.38392	0.60481	0.81139	0.093
Mof_C 	C 	0.897	0.7251	0.7379	0.376
Mof_C 	C 	0.62515	0.21248	0.80833	0.124
Mof_C 	C 	0.0913	0.2812	0.2153	-0.022
Mof_C 	C 	0.9184	0.7185	0.8289	-0.078
Mof_C 	C 	0.35195	0.77575	0.7074	-0.113
Mof_C 	C 	0.15527	0.36224	0.53539	-0.054
Mof_C 	C 	0.87499	0.18755	0.76256	-0.042
Mof_C 	C 	0.71236	0.23424	0.27538	0.03
Mof_C 	C 	0.2815	0.6711	0.5816	-0.078
Mof_C 	C 	0.90415	0.08733	0.71248	0.124
Mof_C 	C 	0.78752	0.69167	0.87485	0.124
Mof_C 	C 	0.4341	0.124	0.7153	-0.022
Mof_C 	C 	0.46461	0.32685	0.11988	-0.054
Mof_C 	C 	0.72462	0.45886	0.93698	0.03
Mof_C 	C 	0.31256	0.88757	0.62501	-0.042
Mof_C 	C 	0.51182	0.43659	0.25425	-0.072
Mof_C 	C 	0.9087	0.7188	0.7847	-0.022
Mof_C 	C 	0.1711	0.3896	0.5895	-0.078
Mof_C 	C 	0.21409	0.46624	0.52767	-0.096
Mof_C 	C 	0.87198	0.10828	0.3297	-0.085
Mof_C 	C 	0.56143	0.31358	0.02767	-0.096
Mof_C 	C 	0.6104	0.6999	0.7815	-0.078
Mof_C 	C 	0.63935	0.46106	0.84519	-0.055
Mof_C 	C 	0.13585	0.78735	0.6967	-0.008
Mof_C 	C 	0.32171	0.86065	0.20584	-0.055
Mof_C 	C 	0.8281	0.8409	0.603	0.376
Mof_C 	C 	0.397	0.7379	0.7251	0.376
Mof_C 	C 	0.93698	0.95886	0.72462	0.03
Mof_C 	C 	0.0895	0.1711	0.8896	-0.078
Mof_C 	C 	0.76576	0.22462	0.78764	0.03
Mof_C 	C 	0.896	0.16461	0.43663	0.351
Mof_C 	C 	0.11608	0.18861	0.39519	0.093
Mof_C 	C 	0.61587	0.96106	0.32171	-0.055
Mof_C 	C 	0.3297	0.72142	0.95772	-0.085
Mof_C 	C 	0.01182	0.25425	0.43659	-0.072
Mof_C 	C 	0.31245	0.62501	0.73744	-0.042
Mof_C 	C 	0.57501	0.26256	0.88757	-0.042
Mof_C 	C 	0.06341	0.07523	0.31766	-0.072
Mof_C 	C 	0.31766	0.74243	0.75425	-0.072
Mof_C 	C 	0.3896	0.0895	0.6711	-0.078
Mof_C 	C 	0.23744	0.92499	0.61243	-0.042
Mof_C 	C 	0.81245	0.07501	0.68744	-0.042
Mof_C 	C 	0.63023	0.12588	0.79735	0.339
Mof_C 	C 	0.56085	0.86415	0.1515	-0.008
Mof_C 	C 	0.25215	0.93857	0.46624	-0.096
Mof_C 	C 	0.20265	0.82853	0.33288	0.339
Mof_C 	C 	0.40408	0.76279	0.19533	0.102
Mof_C 	C 	0.29735	0.63023	0.62588	0.339
Mof_C 	C 	0.6899	0.4087	0.124	-0.022
Mof_C 	C 	0.81682	0.19167	0.40415	0.124
Mof_C 	C 	0.81245	0.73744	0.62501	-0.042
Mof_C 	C 	0.9238	0.14805	0.35545	-0.113
Mof_C 	C 	0.1719	0.1591	0.397	0.376
Mof_C 	C 	0.3036	0.4058	0.5898	0.019
Mof_C 	C 	0.29303	0.63776	0.17315	-0.054
Mof_C 	C 	0.59585	0.30833	0.18318	0.124
Mof_C 	C 	0.43052	0.43549	0.20835	-0.043
Mof_C 	C 	0.76561	0.2736	0.32815	0.014
Mof_C 	C 	0.7153	0.624	0.4341	-0.022
Mof_C 	C 	0.9058	0.1022	0.316	0.019
Mof_C 	C 	0.3281	0.7251	0.9872	0.376
Mof_C 	C 	0.95937	0.23139	0.896	0.351
Mof_C 	C 	0.73721	0.64129	0.93254	0.102
Mof_C 	C 	0.64949	0.46065	0.28054	0.086
Mof_C 	C 	0.2862	0.6964	0.6022	0.019
Mof_C 	C 	0.57253	0.38392	0.27911	0.093
Mof_C 	C 	0.87412	0.17147	0.50435	0.339
Mof_C 	C 	0.8281	0.9872	0.7251	0.376
Mof_C 	C 	0.75215	0.46624	0.93857	-0.096
Mof_C 	C 	0.31766	0.57523	0.06341	-0.072
Mof_C 	C 	0.7188	0.2847	0.4087	-0.022
Mof_C 	C 	0.30143	0.87093	0.2123	0.051
Mof_C 	C 	0.11243	0.23744	0.42499	-0.042
Mof_C 	C 	0.82853	0.83288	0.70265	0.339
Mof_C 	C 	0.85545	0.93165	0.7074	-0.113
Mof_C 	C 	0.36415	0.06085	0.6515	-0.008
Mof_C 	C 	0.46106	0.11587	0.82171	-0.055
Mof_C 	C 	0.93663	0.04063	0.77202	0.351
Mof_C 	C 	0.00435	0.87412	0.67147	0.339
Mof_C 	C 	0.59592	0.35871	0.29125	0.102
Mof_C 	C 	0.3289	0.9184	0.2185	-0.078
Mof_C 	C 	0.3978	0.8036	0.7138	0.019
Mof_C 	C 	0.93165	0.72425	0.0762	-0.113
Mof_C 	C 	0.9238	0.77575	0.06835	-0.113
Mof_C 	C 	0.45937	0.896	0.23139	0.351
Mof_C 	C 	0.45772	0.3297	0.22142	-0.085
Mof_C 	C 	0.84137	0.9305	0.62907	0.051
Mof_C 	C 	0.40415	0.69167	0.81682	0.124
Mof_C 	C 	0.21409	0.74785	0.18642	-0.096
Mof_C 	C 	0.7847	0.2188	0.9087	-0.022
Mof_C 	C 	0.42747	0.81139	0.20658	0.093
Mof_C 	C 	0.79125	0.19533	0.43254	0.102
Mof_C 	C 	0.43165	0.35545	0.2074	-0.113
Mof_C 	C 	0.2877	0.69857	0.62907	0.051
Mof_C 	C 	0.74575	0.06341	0.48818	-0.072
Mof_C 	C 	0.16712	0.79735	0.67147	0.339
Mof_C 	C 	0.03539	0.88012	0.67315	-0.054
Mof_C 	C 	0.61243	0.42499	0.23744	-0.042
Mof_C 	C 	0.28764	0.52188	0.06302	0.03
Mof_C 	C 	0.64129	0.43254	0.23721	0.102
Mof_C 	C 	0.68744	0.57501	0.81245	-0.042
Mof_C 	C 	0.50799	0.94545	0.2736	0.014
Mof_C 	C 	0.77783	0.56948	0.50497	-0.043
Mof_C 	C 	0.34473	0.46461	0.63776	-0.054
Mof_C 	C 	0.104	0.83539	0.56337	0.351
Mof_C 	C 	0.96106	0.13935	0.34519	-0.055
Mof_C 	C 	0.15863	0.0695	0.37093	0.051
Mof_C 	C 	0.63935	0.17829	0.29416	-0.055
Mof_C 	C 	0.98818	0.74575	0.56341	-0.072
Mof_C 	C 	0.84519	0.96106	0.63935	-0.055
Mof_C 	C 	0.78764	0.06302	0.52188	0.03
Mof_C 	C 	0.29165	0.72217	0.72714	-0.043
Mof_C 	C 	0.22089	0.79342	0.60481	0.093
Mof_C 	C 	0.104	0.26861	0.04063	0.351
Mof_C 	C 	0.70875	0.14129	0.40408	0.102
Mof_C 	C 	0.42747	0.61608	0.72089	0.093
Mof_C 	C 	0.77538	0.06302	0.54114	0.03
Mof_C 	C 	0.1022	0.816	0.4058	0.019
Mof_C 	C 	0.35051	0.53935	0.71946	0.086
Mof_C 	C 	0.27538	0.73424	0.71236	0.03
Mof_C 	C 	0.82685	0.96461	0.61988	-0.054
Mof_C 	C 	0.85195	0.7074	0.77575	-0.113
Mof_C 	C 	0.37412	0.50435	0.17147	0.339
Mof_C 	C 	0.84473	0.20697	0.88012	-0.054
Mof_C 	C 	0.36065	0.53894	0.15481	-0.055
Mof_C 	C 	0.124	0.9087	0.6899	-0.022
Mof_C 	C 	0.24243	0.42477	0.48818	-0.072
Mof_C 	C 	0.4105	0.1104	0.8289	-0.078
Mof_C 	C 	0.62802	0.95772	0.2363	-0.085
Mof_C 	C 	0.96065	0.81116	0.68011	0.086
Mof_C 	C 	0.16461	0.93663	0.396	0.351
Mof_C 	C 	0.71946	0.03935	0.35051	0.086
Mof_C 	C 	0.19533	0.26279	0.40408	0.102
Mof_C 	C 	0.06341	0.98818	0.24575	-0.072
Mof_C 	C 	0.816	0.9102	0.7138	0.019
Mof_C 	C 	0.103	0.2749	0.2621	0.376
Mof_C 	C 	0.896	0.73139	0.95937	0.351
Mof_C 	C 	0.99201	0.26561	0.43746	0.014
Mof_C 	C 	0.02767	0.21409	0.96624	-0.096
Mof_C 	C 	0.20658	0.31139	0.42747	0.093
Mof_C 	C 	0.7379	0.2251	0.897	0.376
Mof_C 	C 	0.32171	0.46106	0.61587	-0.055
Mof_C 	C 	0.27538	0.54114	0.06302	0.03
Mof_C 	C 	0.9341	0.2188	0.3101	-0.022
Mof_C 	C 	0.63776	0.96461	0.34473	-0.054
Mof_C 	C 	0.23721	0.93254	0.64129	0.102
Mof_C 	C 	0.24203	0.45593	0.6051	0.025
Mof_C 	C 	0.33288	0.00435	0.63023	0.339
Mof_C 	C 	0.25797	0.86307	0.2139	0.025
Mof_C 	C 	0.69857	0.5695	0.41087	0.051
Mof_C 	C 	0.56337	0.22798	0.95937	0.351
Mof_C 	C 	0.2861	0.74203	0.63693	0.025
Mof_C 	C 	0.81139	0.10481	0.38392	0.093
Mof_C 	C 	0.47233	0.43857	0.18642	-0.096
Mof_C 	C 	0.6999	0.4184	0.0895	-0.078
Mof_C 	C 	0.03376	0.74785	0.56143	-0.096
Mof_C 	C 	0.79342	0.68861	0.57253	0.093
Mof_C 	C 	0.53894	0.65481	0.86065	-0.055
Mof_C 	C 	0.06948	0.27783	0.00497	-0.043
Mof_C 	C 	0.2188	0.4087	0.2847	-0.022
Mof_C 	C 	0.18884	0.81989	0.53935	0.086
Mof_C 	C 	0.68011	0.36895	0.21946	0.086
Mof_C 	C 	0.86895	0.18011	0.71946	0.086
Mof_C 	C 	0.51182	0.07523	0.75757	-0.072
Mof_C 	C 	0.73744	0.12501	0.31245	-0.042
Mof_C 	C 	0.54407	0.8949	0.25797	0.025
Mof_C 	C 	0.61608	0.39519	0.18861	0.093
Mof_C 	C 	0.184	0.0898	0.2862	0.019
Mof_C 	C 	0.95593	0.2139	0.35083	0.025
Mof_C 	C 	0.7621	0.6591	0.4872	0.376
Mof_C 	C 	0.2138	0.3978	0.3036	0.019
Mof_C 	C 	0.40408	0.64129	0.70875	0.102
Mof_C 	C 	0.8033	0.93915	0.59065	-0.008
Mof_C 	C 	0.87485	0.19167	0.78752	0.124
Mof_C 	C 	0.70584	0.32171	0.36065	-0.055
Mof_C 	C 	0.36415	0.3033	0.21265	-0.008
Mof_C 	C 	0.1591	0.897	0.6719	0.376
Mof_C 	C 	0.56085	0.6967	0.90935	-0.008
Mof_C 	C 	0.07253	0.27911	0.38392	0.093
Mof_C 	C 	0.67185	0.2264	0.23439	0.014
Mof_C 	C 	0.96624	0.71409	0.02767	-0.096
Mof_C 	C 	0.1703	0.12802	0.39172	-0.085
Mof_C 	C 	0.55455	0.56254	0.82815	0.014
Mof_C 	C 	0.34519	0.70584	0.88413	-0.055
Mof_C 	C 	0.78735	0.59065	0.6515	-0.008
Mof_C 	C 	0.28735	0.63585	0.1967	-0.008
Mof_C 	C 	0.7861	0.63693	0.74203	0.025
Mof_C 	C 	0.67315	0.38012	0.03539	-0.054
Mof_C 	C 	0.21248	0.90415	0.58733	0.124
Mof_C 	C 	0.7877	0.15863	0.58913	0.051
Mof_C 	C 	0.28054	0.31989	0.13105	0.086
Mof_C 	C 	0.86307	0.14917	0.6051	0.025
Mof_C 	C 	0.69533	0.29125	0.93254	0.102
Mof_C 	C 	0.80143	0.58913	0.4305	0.051
Mof_C 	C 	0.38757	0.81256	0.12501	-0.042
Mof_C 	C 	0.92477	0.74243	0.98818	-0.072
Mof_C 	C 	0.72217	0.22714	0.79165	-0.043
Mof_C 	C 	0.7736	0.50799	0.44545	0.014
Mof_C 	C 	0.56835	0.64455	0.7926	-0.113
Mof_C 	C 	0.08733	0.87485	0.18318	0.124
Mof_C 	C 	0.68234	0.42477	0.93659	-0.072
Mof_C 	C 	0.18755	0.92499	0.31256	-0.042
Mof_C 	C 	0.21248	0.30833	0.12515	0.124
Mof_C 	C 	0.92499	0.81256	0.68755	-0.042
Mof_C 	C 	0.78735	0.1967	0.63585	-0.008
Mof_C 	C 	0.88757	0.76256	0.57501	-0.042
Mof_C 	C 	0.74785	0.68642	0.71409	-0.096
Mof_C 	C 	0.67829	0.53894	0.38413	-0.055
Mof_C 	C 	0.27783	0.50497	0.56948	-0.043
Mof_C 	C 	0.14917	0.1051	0.36307	0.025
Mof_C 	C 	0.86224	0.20697	0.32685	-0.054
Mof_C 	C 	0.48818	0.56341	0.74575	-0.072
Mof_C 	C 	0.2926	0.72425	0.64805	-0.113
Mof_C 	C 	0.85871	0.76279	0.56746	0.102
Mof_C 	C 	0.4238	0.06835	0.77575	-0.113
Mof_C 	C 	0.61587	0.65481	0.79416	-0.055
Mof_C 	C 	0.22798	0.76861	0.66461	0.351
Mof_C 	C 	0.7264	0.17185	0.73439	0.014
Mof_C 	C 	0.17829	0.38413	0.53894	-0.055
Mof_C 	C 	0.4105	0.3001	0.0816	-0.078
Mof_C 	C 	0.22142	0.8297	0.45772	-0.085
Mof_C 	C 	0.6964	0.1022	0.7862	0.019
Mof_C 	C 	0.50497	0.06948	0.77783	-0.043
Mof_C 	C 	0.22798	0.45937	0.06337	0.351
Mof_C 	C 	0.2264	0.49201	0.55455	0.014
Mof_C 	C 	0.26861	0.54063	0.604	0.351
Mof_C 	C 	0.14917	0.04407	0.2861	0.025
Mof_C 	C 	0.70265	0.36977	0.37412	0.339
Mof_C 	C 	0.1964	0.7862	0.1022	0.019
Mof_C 	C 	0.96461	0.84473	0.13776	-0.054
Mof_C 	C 	0.18318	0.80833	0.59585	0.124
Mof_C 	C 	0.86224	0.65527	0.03539	-0.054
Mof_C 	C 	0.12907	0.2877	0.19857	0.051
Mof_C 	C 	0.7185	0.3289	0.4184	-0.078
Mof_C 	C 	0.32685	0.70697	0.86224	-0.054
Mof_C 	C 	0.82685	0.86224	0.70697	-0.054
Mof_C 	C 	0.30833	0.62515	0.71248	0.124
Mof_C 	C 	0.2264	0.73439	0.17185	0.014
Mof_C 	C 	0.70265	0.33288	0.82853	0.339
Mof_C 	C 	0.2379	0.3409	0.5128	0.376
Mof_C 	C 	0.79165	0.06451	0.56948	-0.043
Mof_C 	C 	0.37485	0.78752	0.19167	0.124
Mof_C 	C 	0.04407	0.25797	0.8949	0.025
Mof_C 	C 	0.37412	0.86977	0.70265	0.339
Mof_C 	C 	0.4184	0.5895	0.1999	-0.078
Mof_C 	C 	0.69533	0.40408	0.26279	0.102
Mof_C 	C 	0.2812	0.5659	0.1899	-0.022
Mof_C 	C 	0.64917	0.2861	0.04407	0.025
Mof_C 	C 	0.86977	0.66712	0.49565	0.339
Mof_C 	C 	0.70697	0.34473	0.38012	-0.054
Mof_C 	C 	0.25215	0.31358	0.28591	-0.096
Mof_C 	C 	0.11587	0.79416	0.65481	-0.055
Mof_C 	C 	0.54407	0.64917	0.7861	0.025
Mof_C 	C 	0.2153	0.7812	0.0913	-0.022
Mof_C 	C 	0.09065	0.8033	0.43915	-0.008
Mof_C 	C 	0.05455	0.2264	0.99201	0.014
Mof_C 	C 	0.8978	0.7138	0.8036	0.019
Mof_C 	C 	0.13693	0.2861	0.24203	0.025
Mof_C 	C 	0.14949	0.86895	0.18884	0.086
Mof_C 	C 	0.10481	0.22089	0.29342	0.093
Mof_C 	C 	0.624	0.9341	0.2153	-0.022
Mof_C 	C 	0.50435	0.67147	0.87412	0.339
Mof_C 	C 	0.80833	0.71248	0.62515	0.124
Mof_C 	C 	0.56341	0.31766	0.07523	-0.072
Mof_C 	C 	0.13935	0.84519	0.46106	-0.055
Mof_C 	C 	0.14455	0.06835	0.2926	-0.113
Mof_C 	C 	0.5913	0.2153	0.2812	-0.022
Mof_C 	C 	0.1703	0.04228	0.27858	-0.085
Mof_C 	C 	0.3289	0.4105	0.6104	-0.078
Mof_C 	C 	0.316	0.6022	0.9058	0.019
Mof_C 	C 	0.31139	0.38392	0.10481	0.093
Mof_C 	C 	0.25757	0.51182	0.57523	-0.072
Mof_C 	C 	0.2621	0.7749	0.103	0.376
Mof_C 	C 	0.2847	0.376	0.5659	-0.022
Mof_C 	C 	0.8297	0.87198	0.60828	-0.085
Mof_C 	C 	0.36977	0.87412	0.20265	0.339
Mof_C 	C 	0.22142	0.39172	0.2637	-0.085
Mof_C 	C 	0.74203	0.13693	0.7861	0.025
Mof_C 	C 	0.43254	0.69533	0.79125	0.102
Mof_C 	C 	0.6515	0.56085	0.36415	-0.008
Mof_C 	C 	0.90415	0.81682	0.69167	0.124
Mof_C 	C 	0.40935	0.56085	0.1967	-0.008
Mof_C 	C 	0.43165	0.0762	0.72425	-0.113
Mof_C 	C 	0.4305	0.34137	0.12907	0.051
Mof_C 	C 	0.1104	0.7815	0.6999	-0.078
Mof_C 	C 	0.92747	0.20658	0.81139	0.093
Mof_C 	C 	0.3036	0.8978	0.2138	0.019
Mof_C 	C 	0.93549	0.93052	0.70835	-0.043
Mof_C 	C 	0.21946	0.86895	0.68011	0.086
Mof_C 	C 	0.13776	0.34473	0.96461	-0.054
Mof_C 	C 	0.04063	0.27202	0.43663	0.351
Mof_C 	C 	0.45772	0.12802	0.7363	-0.085
Mof_C 	C 	0.1051	0.24203	0.95593	0.025
Mof_C 	C 	0.43746	0.67185	0.94545	0.014
Mof_C 	C 	0.2637	0.37198	0.54228	-0.085
Mof_C 	C 	0.02188	0.78764	0.56302	0.03
Mof_C 	C 	0.396	0.95937	0.73139	0.351
Mof_C 	C 	0.0816	0.2815	0.1711	-0.078
Mof_C 	C 	0.06302	0.04114	0.27538	0.03
Mof_C 	C 	0.66712	0.67147	0.79735	0.339
Mof_C 	C 	0.7877	0.62907	0.69857	0.051
Mof_C 	C 	0.62515	0.41267	0.31682	0.124
Mof_C 	C 	0.42499	0.68755	0.81256	-0.042
Mof_C 	C 	0.81358	0.06143	0.52767	-0.096
Mof_C 	C 	0.00497	0.77783	0.06948	-0.043
Mof_C 	C 	0.68234	0.25757	0.24575	-0.072
Mof_C 	C 	0.64805	0.4238	0.85545	-0.113
Mof_C 	C 	0.45886	0.43698	0.22462	0.03
Mof_C 	C 	0.81682	0.62515	0.91267	0.124
Mof_C 	C 	0.20697	0.38012	0.34473	-0.054
Mof_C 	C 	0.12501	0.31256	0.38757	-0.042
Mof_C 	C 	0.85051	0.71946	0.53935	0.086
Mof_C 	C 	0.97812	0.21236	0.43698	0.03
Mof_C 	C 	0.8409	0.7379	0.0128	0.376
Mof_C 	C 	0.7139	0.25797	0.36307	0.025
Mof_C 	C 	0.75757	0.18234	0.74575	-0.072
Mof_C 	C 	0.14129	0.23721	0.43254	0.102
Mof_C 	C 	0.76256	0.07501	0.38757	-0.042
Mof_C 	C 	0.38012	0.53539	0.17315	-0.054
Mof_C 	C 	0.43549	0.72714	0.00497	-0.043
Mof_C 	C 	0.29416	0.67829	0.63935	-0.055
Mof_C 	C 	0.18318	0.37485	0.08733	0.124
Mof_C 	C 	0.66712	0.99565	0.36977	0.339
Mof_C 	C 	0.18861	0.89519	0.61608	0.093
Mof_C 	C 	0.29342	0.72089	0.10481	0.093
Mof_C 	C 	0.25425	0.31766	0.24243	-0.072
Mof_C 	C 	0.22217	0.43052	0.49503	-0.043
Mof_C 	C 	0.0942	0.8978	0.684	0.019
Mof_C 	C 	0.0762	0.85195	0.64455	-0.113
Mof_C 	C 	0.82815	0.76561	0.7736	0.014
Mof_C 	C 	0.35871	0.56746	0.76279	0.102
Mof_C 	C 	0.7138	0.3036	0.3978	0.019
Mof_C 	C 	0.40415	0.71248	0.08733	0.124
Mof_C 	C 	0.0898	0.3036	0.9058	0.019
Mof_C 	C 	0.88757	0.12501	0.81256	-0.042
Mof_C 	C 	0.97233	0.78591	0.03376	-0.096
Mof_C 	C 	0.18755	0.26256	0.37499	-0.042
Mof_C 	C 	0.48818	0.92477	0.24243	-0.072
Mof_C 	C 	0.53539	0.86224	0.15527	-0.054
Mof_C 	C 	0.2926	0.56835	0.14455	-0.113
Mof_C 	C 	0.52767	0.96624	0.21409	-0.096
Mof_C 	C 	0.7153	0.0913	0.7812	-0.022
Mof_C 	C 	0.2637	0.89172	0.22142	-0.085
Mof_C 	C 	0.77202	0.54063	0.93663	0.351
Mof_C 	C 	0.59592	0.23721	0.80467	0.102
Mof_C 	C 	0.9102	0.2138	0.316	0.019
Mof_C 	C 	0.77858	0.60828	0.7363	-0.085
Mof_C 	C 	0.624	0.6899	0.9087	-0.022
Mof_C 	C 	0.62802	0.6703	0.89172	-0.085
Mof_C 	C 	0.86977	0.20265	0.87412	0.339
Mof_C 	C 	0.08913	0.7877	0.65863	0.051
Mof_C 	C 	0.35051	0.81116	0.13105	0.086
Mof_C 	C 	0.7074	0.27575	0.35195	-0.113
Mof_C 	C 	0.6967	0.40935	0.06085	-0.008
Mof_C 	C 	0.49201	0.05455	0.7264	0.014
Mof_C 	C 	0.23139	0.396	0.45937	0.351
Mof_C 	C 	0.09592	0.80467	0.23721	0.102
Mof_C 	C 	0.7862	0.6022	0.6964	0.019
Mof_C 	C 	0.1967	0.13585	0.28735	-0.008
Mof_C 	C 	0.94545	0.7736	0.00799	0.014
Mof_C 	C 	0.65527	0.53539	0.36224	-0.054
Mof_C 	C 	0.87093	0.7123	0.80143	0.051
Mof_C 	C 	0.93663	0.896	0.66461	0.351
Mof_C 	C 	0.00435	0.13023	0.83288	0.339
Mof_C 	C 	0.07501	0.18744	0.31245	-0.042
Mof_C 	C 	0.8001	0.9105	0.5816	-0.078
Mof_C 	C 	0.63105	0.28054	0.81989	0.086
Mof_C 	C 	0.14805	0.85545	0.4238	-0.113
Mof_C 	C 	0.71409	0.52767	0.46624	-0.096
Mof_C 	C 	0.72089	0.60481	0.79342	0.093
Mof_C 	C 	0.93052	0.72217	0.99503	-0.043
Mof_C 	C 	0.6591	0.9872	0.2621	0.376
Mof_C 	C 	0.16461	0.22798	0.26861	0.351
Mof_C 	C 	0.73139	0.27202	0.83539	0.351
Mof_C 	C 	0.61243	0.18744	0.87499	-0.042
Mof_C 	C 	0.37093	0.5695	0.15863	0.051
Mof_C 	C 	0.0659	0.7812	0.6899	-0.022
Mof_C 	C 	0.184	0.0942	0.3978	0.019
Mof_C 	C 	0.10828	0.8297	0.37198	-0.085
Mof_C 	C 	0.43549	0.70835	0.93052	-0.043
Mof_C 	C 	0.43659	0.68234	0.92477	-0.072
Mof_C 	C 	0.67147	0.29735	0.16712	0.339
Mof_C 	C 	0.32815	0.7736	0.76561	0.014
Mof_C 	C 	0.88392	0.07253	0.77911	0.093
Mof_C 	C 	0.25425	0.93659	0.51182	-0.072
Mof_C 	C 	0.6964	0.5942	0.4102	0.019
Mof_C 	C 	0.21236	0.27538	0.23424	0.03
Mof_C 	C 	0.20697	0.82685	0.36224	-0.054
Mof_C 	C 	0.73721	0.09592	0.30467	0.102
Mof_C 	C 	0.83288	0.20265	0.32853	0.339
Mof_C 	C 	0.04407	0.7861	0.64917	0.025
Mof_C 	C 	0.60828	0.2363	0.27858	-0.085
Mof_C 	C 	0.19533	0.93254	0.29125	0.102
Mof_C 	C 	0.1899	0.0659	0.2812	-0.022
Mof_C 	C 	0.47812	0.04114	0.76576	0.03
Mof_C 	C 	0.5816	0.1711	0.2815	-0.078
Mof_C 	C 	0.06085	0.90935	0.6967	-0.008
Mof_C 	C 	0.86895	0.68884	0.64949	0.086
Mof_C 	C 	0.2123	0.84137	0.41087	0.051
Mof_C 	C 	0.15863	0.08913	0.2877	0.051
Mof_C 	C 	0.27858	0.54228	0.1703	-0.085
Mof_C 	C 	0.93915	0.09065	0.3033	-0.008
Mof_C 	C 	0.13023	0.33288	0.50435	0.339
Mof_C 	C 	0.47812	0.43698	0.21236	0.03
Mof_C 	C 	0.28764	0.76576	0.72462	0.03
Mof_C 	C 	0.28752	0.87485	0.69167	0.124
Mof_C 	C 	0.27575	0.85195	0.2074	-0.113
Mof_C 	C 	0.1711	0.7815	0.0816	-0.078
Mof_C 	C 	0.93746	0.94545	0.67185	0.014
Mof_C 	C 	0.78054	0.64949	0.96065	0.086
Mof_C 	C 	0.2749	0.7621	0.603	0.376
Mof_C 	C 	0.4058	0.0898	0.8036	0.019
Mof_C 	C 	0.81116	0.18011	0.46065	0.086
Mof_C 	C 	0.876	0.0913	0.3101	-0.022
Mof_C 	C 	0.21236	0.93698	0.47812	0.03
Mof_C 	C 	0.59065	0.1515	0.28735	-0.008
Mof_C 	C 	0.78591	0.25215	0.81358	-0.096
Mof_C 	C 	0.9102	0.6964	0.0942	0.019
Mof_C 	C 	0.92499	0.11243	0.73744	-0.042
Mof_C 	C 	0.78764	0.72462	0.76576	0.03
Mof_C 	C 	0.18234	0.93659	0.42477	-0.072
Mof_C 	C 	0.684	0.2862	0.0898	0.019
Mof_C 	C 	0.76279	0.06746	0.35871	0.102
Mof_C 	C 	0.20584	0.36065	0.32171	-0.055
Mof_C 	C 	0.29342	0.57253	0.68861	0.093
Mof_C 	C 	0.09585	0.91267	0.28752	0.124
Mof_C 	C 	0.45593	0.1051	0.74203	0.025
Mof_C 	C 	0.64949	0.18884	0.86895	0.086
Mof_C 	C 	0.37198	0.04228	0.7637	-0.085
Mof_C 	C 	0.85051	0.13105	0.81116	0.086
Mof_C 	C 	0.6022	0.1964	0.2862	0.019
Mof_C 	C 	0.43698	0.72462	0.95886	0.03
Mof_C 	C 	0.35195	0.5762	0.14455	-0.113
Mof_C 	C 	0.36065	0.82171	0.70584	-0.055
Mof_C 	C 	0.81766	0.75425	0.74243	-0.072
Mof_C 	C 	0.87198	0.7637	0.04228	-0.085
Mof_C 	C 	0.76279	0.69533	0.90408	0.102
Mof_C 	C 	0.93254	0.79125	0.69533	0.102
Mof_C 	C 	0.72142	0.2637	0.39172	-0.085
Mof_C 	C 	0.27286	0.49503	0.06451	-0.043
Mof_C 	C 	0.316	0.7138	0.9102	0.019
Mof_C 	C 	0.95886	0.73424	0.02188	0.03
Mof_C 	C 	0.79416	0.63935	0.67829	-0.055
Mof_C 	C 	0.06451	0.06948	0.29165	-0.043
Mof_C 	C 	0.8485	0.63585	0.43915	-0.008
Mof_C 	C 	0.7188	0.4341	0.8101	-0.022
Mof_C 	C 	0.63105	0.35051	0.31116	0.086
Mof_C 	C 	0.0659	0.2847	0.876	-0.022
Mof_C 	C 	0.24575	0.48818	0.06341	-0.072
Mof_C 	C 	0.05455	0.82815	0.56254	0.014
Mof_C 	C 	0.16712	0.36977	0.99565	0.339
Mof_C 	C 	0.54228	0.6703	0.77858	-0.085
Mof_C 	C 	0.91087	0.2123	0.34137	0.051
Mof_C 	C 	0.09585	0.18318	0.30833	0.124
Mof_C 	C 	0.58913	0.9305	0.30143	0.051
Mof_C 	C 	0.19857	0.41087	0.5695	0.051
Mof_C 	C 	0.2185	0.8001	0.3896	-0.078
Mof_C 	C 	0.03935	0.18884	0.31989	0.086
Mof_C 	C 	0.1515	0.78735	0.09065	-0.008
Mof_C 	C 	0.73139	0.45937	0.396	0.351
Mof_C 	C 	0.8978	0.184	0.5942	0.019
Mof_C 	C 	0.7812	0.1899	0.5659	-0.022
Mof_C 	C 	0.1051	0.86307	0.64917	0.025
Mof_C 	C 	0.81116	0.63105	0.85051	0.086
Mof_C 	C 	0.72798	0.66461	0.76861	0.351
Mof_C 	C 	0.26561	0.32815	0.2736	0.014
Mof_C 	C 	0.11608	0.92747	0.22089	0.093
Mof_C 	C 	0.34473	0.88012	0.20697	-0.054
Mof_C 	C 	0.31989	0.68884	0.03935	0.086
Mof_C 	C 	0.9872	0.7621	0.1591	0.376
Mof_C 	C 	0.62501	0.23744	0.81245	-0.042
Mof_C 	C 	0.46065	0.68011	0.81116	0.086
Mof_C 	C 	0.73744	0.61243	0.92499	-0.042
Mof_C 	C 	0.396	0.43663	0.16461	0.351
Mof_C 	C 	0.4305	0.08913	0.80143	0.051
Mof_C 	C 	0.06451	0.99503	0.27286	-0.043
Mof_C 	C 	0.73424	0.21236	0.77538	0.03
Mof_C 	C 	0.43659	0.75425	0.01182	-0.072
Mof_C 	C 	0.604	0.04063	0.26861	0.351
Mof_C 	C 	0.02188	0.23424	0.95886	0.03
Mof_C 	C 	0.12802	0.2363	0.95772	-0.085
Mof_C 	C 	0.7074	0.43165	0.85545	-0.113
Mof_C 	C 	0.32685	0.61988	0.96461	-0.054
Mof_C 	C 	0.95593	0.74203	0.1051	0.025
Mof_C 	C 	0.43857	0.75215	0.96624	-0.096
Mof_C 	C 	0.56948	0.00497	0.27783	-0.043
Mof_C 	C 	0.68755	0.37499	0.26256	-0.042
Mof_C 	C 	0.93549	0.00497	0.72714	-0.043
Mof_C 	C 	0.53376	0.97233	0.28591	-0.096
Mof_C 	C 	0.20875	0.40408	0.14129	0.102
Mof_C 	C 	0.76561	0.49201	0.93746	0.014
Mof_C 	C 	0.65863	0.2877	0.08913	0.051
Mof_C 	C 	0.38413	0.03894	0.67829	-0.055
Mof_C 	C 	0.99565	0.12588	0.32853	0.339
Mof_C 	C 	0.8101	0.876	0.5913	-0.022
Mof_C 	C 	0.17185	0.93746	0.44545	0.014
Mof_C 	C 	0.57523	0.56341	0.81766	-0.072
Mof_C 	C 	0.07501	0.88757	0.26256	-0.042
Mof_C 	C 	0.8409	0.103	0.3281	0.376
Mof_C 	C 	0.13776	0.79303	0.67315	-0.054
Mof_C 	C 	0.2251	0.8281	0.4872	0.376
Mof_C 	C 	0.24243	0.81766	0.25425	-0.072
Mof_C 	C 	0.93857	0.96624	0.75215	-0.096
Mof_C 	C 	0.07523	0.81766	0.56341	-0.072
Mof_C 	C 	0.74243	0.48818	0.42477	-0.072
Mof_C 	C 	0.79735	0.62588	0.63023	0.339
Mof_C 	C 	0.5898	0.9058	0.3036	0.019
Mof_C 	C 	0.14129	0.90408	0.20875	0.102
Mof_C 	C 	0.04228	0.77858	0.6703	-0.085
Mof_C 	C 	0.18642	0.93857	0.47233	-0.096
Mof_C 	C 	0.65863	0.37093	0.0695	0.051
Mof_C 	C 	0.29125	0.43254	0.19533	0.102
Mof_C 	C 	0.68861	0.61608	0.89519	0.093
Mof_C 	C 	0.3409	0.3281	0.103	0.376
Mof_C 	C 	0.93698	0.97812	0.71236	0.03
Mof_C 	C 	0.26256	0.38757	0.07501	-0.042
Mof_C 	C 	0.12907	0.84137	0.4305	0.051
Mof_C 	C 	0.27858	0.7363	0.60828	-0.085
Mof_C 	C 	0.61988	0.46461	0.82685	-0.054
Mof_C 	C 	0.7926	0.14455	0.56835	-0.113
Mof_C 	C 	0.72089	0.11608	0.42747	0.093
Mof_C 	C 	0.5695	0.65863	0.87093	0.051
Mof_C 	C 	0.13105	0.31116	0.35051	0.086
Mof_C 	C 	0.3297	0.60828	0.87198	-0.085
Mof_C 	C 	0.24203	0.7861	0.13693	0.025
Mof_C 	C 	0.68318	0.08733	0.37485	0.124
Mof_C 	C 	0.2815	0.6104	0.1999	-0.078
Mof_C 	C 	0.82815	0.06254	0.55455	0.014
Mof_C 	C 	0.8297	0.95772	0.72142	-0.085
Mof_C 	C 	0.79303	0.61988	0.65527	-0.054
Mof_C 	C 	0.7749	0.1719	0.5128	0.376
Mof_C 	C 	0.07253	0.79342	0.18861	0.093
Mof_C 	C 	0.06835	0.7926	0.64455	-0.113
Mof_C 	C 	0.49503	0.93052	0.22217	-0.043
Mof_C 	C 	0.83539	0.06337	0.604	0.351
Mof_C 	C 	0.88413	0.67829	0.03894	-0.055
Mof_C 	C 	0.02767	0.81358	0.56143	-0.096
Mof_C 	C 	0.2139	0.36307	0.25797	0.025
Mof_C 	C 	0.2074	0.35195	0.27575	-0.113
Mof_C 	C 	0.63585	0.93915	0.3485	-0.008
Mof_C 	C 	0.21946	0.35051	0.03935	0.086
Mof_C 	C 	0.61988	0.15527	0.29303	-0.054
Mof_C 	C 	0.85195	0.14455	0.5762	-0.113
Mof_C 	C 	0.25757	0.74575	0.18234	-0.072
Mof_C 	C 	0.18011	0.96065	0.31116	0.086
Mof_C 	C 	0.2123	0.37093	0.30143	0.051
Mof_C 	C 	0.23439	0.7264	0.67185	0.014
Mof_C 	C 	0.18884	0.36895	0.14949	0.086
Mof_C 	C 	0.28591	0.81358	0.25215	-0.096
Mof_C 	C 	0.9305	0.80143	0.08913	0.051
Mof_C 	C 	0.1967	0.06085	0.40935	-0.008
Mof_C 	C 	0.43663	0.66461	0.896	0.351
Mof_C 	C 	0.50435	0.83288	0.13023	0.339
Mof_C 	C 	0.78591	0.53376	0.47233	-0.096
Mof_C 	C 	0.43663	0.77202	0.04063	0.351
Mof_C 	C 	0.62588	0.13023	0.29735	0.339
Mof_C 	C 	0.87093	0.15863	0.5695	0.051
Mof_C 	C 	0.72798	0.06337	0.45937	0.351
Mof_C 	C 	0.56835	0.9238	0.27575	-0.113
Mof_C 	C 	0.13693	0.85083	0.3949	0.025
Mof_C 	C 	0.56302	0.27538	0.04114	0.03
Mof_C 	C 	0.79125	0.59592	0.85871	0.102
Mof_C 	C 	0.6051	0.64917	0.86307	0.025
Mof_C 	C 	0.376	0.3101	0.0913	-0.022
Mof_C 	C 	0.21265	0.40935	0.3485	-0.008
Mof_C 	C 	0.08913	0.30143	0.9305	0.051
Mof_C 	C 	0.69167	0.37485	0.28752	0.124
Mof_C 	C 	0.28735	0.6515	0.59065	-0.008
Mof_C 	C 	0.29735	0.66712	0.17147	0.339
Mof_C 	C 	0.2363	0.45772	0.62802	-0.085
Mof_C 	C 	0.2185	0.4184	0.3289	-0.078
Mof_C 	C 	0.04114	0.26576	0.97812	0.03
Mof_C 	C 	0.62501	0.38757	0.31256	-0.042
Mof_C 	C 	0.17147	0.16712	0.29735	0.339
Mof_C 	C 	0.59065	0.43915	0.8033	-0.008
Mof_C 	C 	0.7621	0.103	0.7749	0.376
Mof_C 	C 	0.7185	0.3896	0.8001	-0.078
Mof_C 	C 	0.7363	0.62802	0.45772	-0.085
Mof_C 	C 	0.46624	0.02767	0.71409	-0.096
Mof_C 	C 	0.43915	0.3033	0.09065	-0.008
Mof_C 	C 	0.15481	0.03894	0.36065	-0.055
Mof_C 	C 	0.07523	0.25757	0.01182	-0.072
Mof_C 	C 	0.5942	0.9102	0.1964	0.019
Mof_C 	C 	0.93857	0.97233	0.68642	-0.096
Mof_C 	C 	0.20835	0.93549	0.43052	-0.043
Mof_C 	C 	0.17829	0.79416	0.13935	-0.055
Mof_C 	C 	0.90408	0.19533	0.76279	0.102
Mof_C 	C 	0.18642	0.24785	0.21409	-0.096
Mof_C 	C 	0.85083	0.95593	0.7139	0.025
Mof_C 	C 	0.88392	0.81139	0.60481	0.093
Mof_C 	C 	0.34137	0.62907	0.9305	0.051
Mof_C 	C 	0.79735	0.17147	0.66712	0.339
Mof_C 	C 	0.5659	0.876	0.2847	-0.022
Mof_C 	C 	0.56254	0.32815	0.05455	0.014
Mof_C 	C 	0.83539	0.77202	0.73139	0.351
Mof_C 	C 	0.26861	0.72798	0.16461	0.351
Mof_C 	C 	0.64805	0.22425	0.2926	-0.113
Mof_C 	C 	0.03935	0.85051	0.21946	0.086
Mof_C 	C 	0.25797	0.3949	0.54407	0.025
Mof_C 	C 	0.76576	0.54114	0.47812	0.03
Mof_C 	C 	0.26256	0.87499	0.68755	-0.042
Mof_C 	C 	0.31256	0.42499	0.18755	-0.042
Mof_C 	C 	0.8289	0.6104	0.4105	-0.078
Mof_C 	C 	0.77575	0.56835	0.4238	-0.113
Mof_C 	C 	0.77286	0.06451	0.49503	-0.043
Mof_C 	C 	0.46461	0.13776	0.84473	-0.054
Mof_C 	C 	0.2861	0.54407	0.14917	0.025
Mof_C 	C 	0.19167	0.90415	0.31682	0.124
Mof_C 	C 	0.8101	0.9341	0.7188	-0.022
Mof_C 	C 	0.3033	0.59065	0.93915	-0.008
Mof_C 	C 	0.70658	0.42747	0.31139	0.093
Mof_C 	C 	0.64455	0.2926	0.06835	-0.113
Mof_C 	C 	0.0128	0.2379	0.8409	0.376
Mof_C 	C 	0.1999	0.0895	0.4184	-0.078
Mof_C 	C 	0.15481	0.11587	0.29416	-0.055
Mof_C 	C 	0.64455	0.35195	0.0762	-0.113
Mof_C 	C 	0.17147	0.00435	0.37412	0.339
Mof_C 	C 	0.79303	0.17315	0.63776	-0.054
Mof_C 	C 	0.23424	0.77538	0.21236	0.03
Mof_C 	C 	0.2153	0.4341	0.624	-0.022
Mof_C 	C 	0.72142	0.45772	0.8297	-0.085
Mof_C 	C 	0.77202	0.23139	0.33539	0.351
Mof_C 	C 	0.0762	0.22425	0.93165	-0.113
Mof_C 	C 	0.14805	0.2926	0.22425	-0.113
Mof_C 	C 	0.39519	0.70658	0.77911	0.093
Mof_C 	C 	0.49565	0.32853	0.12588	0.339
Mof_C 	C 	0.63585	0.6967	0.78735	-0.008
Mof_C 	C 	0.3896	0.3001	0.2185	-0.078
Mof_C 	C 	0.77575	0.2074	0.85195	-0.113
Mof_C 	C 	0.22462	0.28764	0.26576	0.03
Mof_C 	C 	0.53376	0.56143	0.74785	-0.096
Mof_C 	C 	0.74203	0.6051	0.45593	0.025
Mof_C 	C 	0.89519	0.11608	0.68861	0.093
Mof_C 	C 	0.36224	0.32685	0.20697	-0.054
Mof_C 	C 	0.35545	0.64805	0.9238	-0.113
Mof_C 	C 	0.68642	0.21409	0.24785	-0.096
Mof_C 	C 	0.0898	0.7862	0.684	0.019
Mof_C 	C 	0.79342	0.10481	0.72089	0.093
Mof_C 	C 	0.31358	0.78591	0.75215	-0.096
Mof_C 	C 	0.93746	0.99201	0.76561	0.014
Mof_C 	C 	0.96065	0.14949	0.78054	0.086
Mof_C 	C 	0.68744	0.11243	0.37499	-0.042
Mof_C 	C 	0.8896	0.6711	0.0895	-0.078
Mof_C 	C 	0.70835	0.27783	0.27286	-0.043
Mof_C 	C 	0.6719	0.397	0.1591	0.376
Mof_C 	C 	0.20584	0.84519	0.38413	-0.055
Mof_C 	C 	0.12588	0.29735	0.13023	0.339
Mof_C 	C 	0.86065	0.15481	0.53894	-0.055
Mof_C 	C 	0.96624	0.25215	0.43857	-0.096
Mof_C 	C 	0.26279	0.35871	0.06746	0.102
Mof_C 	C 	0.01182	0.75757	0.07523	-0.072
Mof_C 	C 	0.2251	0.397	0.2379	0.376
Mof_C 	C 	0.06948	0.79165	0.56451	-0.043
Mof_C 	C 	0.1999	0.1104	0.2815	-0.078
Mof_C 	C 	0.04114	0.77538	0.56302	0.03
Mof_C 	C 	0.89172	0.72142	0.7637	-0.085
Mof_C 	C 	0.37499	0.61243	0.68744	-0.042
Mof_C 	C 	0.3949	0.04407	0.75797	0.025
Mof_C 	C 	0.42477	0.43659	0.18234	-0.072
Mof_C 	C 	0.42499	0.73744	0.11243	-0.042
Mof_C 	C 	0.7138	0.4102	0.816	0.019
Mof_C 	C 	0.28054	0.96065	0.64949	0.086
Mof_C 	C 	0.68642	0.47233	0.93857	-0.096
Mof_C 	C 	0.54114	0.97812	0.26576	0.03
Mof_C 	C 	0.70875	0.56746	0.80467	0.102
Mof_C 	C 	0.18744	0.37499	0.11243	-0.042
Mof_C 	C 	0.27286	0.77783	0.70835	-0.043
Mof_C 	C 	0.06337	0.104	0.33539	0.351
Mof_C 	C 	0.63693	0.3949	0.85083	0.025
Mof_C 	C 	0.3033	0.71265	0.86415	-0.008
Mof_C 	C 	0.99201	0.7264	0.05455	0.014
Mof_C 	C 	0.75425	0.51182	0.93659	-0.072
Mof_C 	C 	0.4102	0.0942	0.6964	0.019
Mof_C 	C 	0.65481	0.29416	0.11587	-0.055
Mof_C 	C 	0.23439	0.50799	0.06254	0.014
Mof_C 	C 	0.6022	0.4058	0.816	0.019
Mof_C 	C 	0.4341	0.3101	0.2188	-0.022
Mof_C 	C 	0.30833	0.68318	0.09585	0.124
Mof_C 	C 	0.68318	0.59585	0.80833	0.124
Mof_C 	C 	0.68755	0.31256	0.92499	-0.042
Mof_C 	C 	0.06143	0.02767	0.31358	-0.096
Mof_C 	C 	0.20835	0.27286	0.27783	-0.043
Mof_C 	C 	0.77911	0.57253	0.88392	0.093
Mof_C 	C 	0.27911	0.39519	0.20658	0.093
Mof_C 	C 	0.56143	0.24785	0.03376	-0.096
Mof_C 	C 	0.94545	0.17185	0.43746	0.014
Mof_C 	C 	0.78752	0.09585	0.41267	0.124
Mof_C 	C 	0.27202	0.93663	0.54063	0.351
Mof_C 	C 	0.4102	0.316	0.2138	0.019
Mof_C 	C 	0.87412	0.70265	0.86977	0.339
Mof_C 	C 	0.96106	0.82171	0.11587	-0.055
Mof_C 	C 	0.36224	0.03539	0.65527	-0.054
Mof_C 	C 	0.23721	0.30467	0.09592	0.102
Mof_C 	C 	0.27575	0.4238	0.56835	-0.113
Mof_C 	C 	0.6104	0.9105	0.3289	-0.078
Mof_C 	C 	0.58913	0.65863	0.7877	0.051
Mof_C 	C 	0.33539	0.73139	0.77202	0.351
Mof_C 	C 	0.19167	0.28752	0.37485	0.124
Mof_C 	C 	0.5942	0.684	0.8978	0.019
Mof_C 	C 	0.876	0.7847	0.0659	-0.022
Mof_C 	C 	0.32853	0.70265	0.83288	0.339
Mof_C 	C 	0.23139	0.83539	0.27202	0.351
Mof_C 	C 	0.0895	0.9184	0.6999	-0.078
Mof_C 	C 	0.10481	0.88392	0.31139	0.093
Mof_C 	C 	0.57253	0.18861	0.79342	0.093
Mof_C 	C 	0.2621	0.4872	0.6591	0.376
Mof_C 	C 	0.32853	0.62588	0.99565	0.339
Mof_C 	C 	0.7363	0.10828	0.77858	-0.085
Mof_C 	C 	0.99503	0.77286	0.56451	-0.043
Mof_C 	C 	0.60481	0.29342	0.22089	0.093
Mof_C 	C 	0.85545	0.9238	0.64805	-0.113
Mof_C 	C 	0.04228	0.2637	0.87198	-0.085
Mof_C 	C 	0.31116	0.46065	0.18011	0.086
Mof_C 	C 	0.27783	0.77286	0.20835	-0.043
Mof_C 	C 	0.39172	0.62802	0.1703	-0.085
Mof_C 	C 	0.8036	0.2138	0.8978	0.019
Mof_C 	C 	0.93659	0.01182	0.75425	-0.072
Mof_C 	C 	0.6719	0.2749	0.0128	0.376
Mof_C 	C 	0.45593	0.35083	0.2139	0.025
Mof_C 	C 	0.376	0.0659	0.7847	-0.022
Mof_C 	C 	0.54063	0.104	0.76861	0.351
Mof_C 	C 	0.75797	0.2139	0.86307	0.025
Mof_C 	C 	0.6703	0.39172	0.12802	-0.085
Mof_C 	C 	0.2736	0.44545	0.50799	0.014
Mof_C 	C 	0.56746	0.26279	0.85871	0.102
Mof_C 	C 	0.27911	0.88392	0.57253	0.093
Mof_C 	C 	0.76256	0.68755	0.87499	-0.042
Mof_C 	C 	0.29303	0.65527	0.61988	-0.054
Mof_C 	C 	0.6999	0.2815	0.1104	-0.078
Mof_C 	C 	0.76861	0.16461	0.72798	0.351
Mof_C 	C 	0.58733	0.18318	0.87485	0.124
Mof_C 	C 	0.58733	0.40415	0.21248	0.124
Mof_C 	C 	0.0913	0.8101	0.376	-0.022
Mof_C 	C 	0.22714	0.93549	0.50497	-0.043
Mof_C 	C 	0.72462	0.26576	0.28764	0.03
Mof_C 	C 	0.13023	0.79735	0.12588	0.339
Mof_C 	C 	0.36977	0.49565	0.66712	0.339
Mof_C 	C 	0.82853	0.99565	0.62588	0.339
Mof_C 	C 	0.17185	0.23439	0.2264	0.014
Mof_C 	C 	0.7251	0.4872	0.8281	0.376
Mof_C 	C 	0.71236	0.47812	0.93698	0.03
Mof_C 	C 	0.85871	0.09592	0.79125	0.102
Mof_C 	C 	0.31989	0.63105	0.78054	0.086
Mof_C 	C 	0.6703	0.27858	0.04228	-0.085
Mof_C 	C 	0.62907	0.4305	0.84137	0.051
Mof_C 	C 	0.7815	0.1999	0.6104	-0.078
Mof_C 	C 	0.9105	0.8289	0.1104	-0.078
Mof_C 	C 	0.86415	0.21265	0.3033	-0.008
Mof_C 	C 	0.12802	0.89172	0.6703	-0.085
Mof_C 	C 	0.65527	0.11988	0.79303	-0.054
Mof_C 	C 	0.89519	0.77911	0.70658	0.093
Mof_C 	C 	0.37093	0.80143	0.7123	0.051
Mof_C 	C 	0.2363	0.77858	0.10828	-0.085
Mof_C 	C 	0.18744	0.81245	0.57501	-0.042
Mof_C 	C 	0.00497	0.22714	0.43549	-0.043
Mof_C 	C 	0.2749	0.5128	0.1719	0.376
Mof_C 	C 	0.04063	0.76861	0.104	0.351
Mof_C 	C 	0.6711	0.0816	0.7815	-0.078
Mof_C 	C 	0.8485	0.21265	0.90935	-0.008
Mof_C 	C 	0.93052	0.20835	0.43549	-0.043
Mof_C 	C 	0.22425	0.7926	0.14805	-0.113
Mof_C 	C 	0.38413	0.34519	0.20584	-0.055
Mof_C 	C 	0.82171	0.20584	0.86065	-0.055
Mof_C 	C 	0.71409	0.18642	0.74785	-0.096
Mof_C 	C 	0.4872	0.3281	0.2251	0.376
Mof_C 	C 	0.56302	0.28764	0.02188	0.03
Mof_C 	C 	0.54228	0.87198	0.2637	-0.085
Mof_C 	C 	0.63693	0.24203	0.2861	0.025
Mof_C 	C 	0.87485	0.68318	0.58733	0.124
Mof_C 	C 	0.77286	0.70835	0.77783	-0.043
Mof_C 	C 	0.27202	0.33539	0.23139	0.351
Mof_C 	C 	0.37198	0.3297	0.10828	-0.085
Mof_C 	C 	0.59585	0.28752	0.91267	0.124
Mof_C 	C 	0.34137	0.7123	0.91087	0.051
Mof_C 	C 	0.9305	0.12907	0.34137	0.051
Mof_C 	C 	0.30467	0.59592	0.73721	0.102
Mof_C 	C 	0.2379	0.897	0.2251	0.376
Mof_C 	C 	0.71946	0.68011	0.86895	0.086
Mof_C 	C 	0.29125	0.85871	0.59592	0.102
Mof_C 	C 	0.35083	0.63693	0.8949	0.025
Mof_C 	C 	0.40935	0.8485	0.71265	-0.008
Mof_C 	C 	0.6515	0.09065	0.78735	-0.008
Mof_C 	C 	0.93254	0.14129	0.73721	0.102
Mof_C 	C 	0.7926	0.64805	0.72425	-0.113
Mof_C 	C 	0.46065	0.78054	0.14949	0.086
Mof_C 	C 	0.22714	0.29165	0.22217	-0.043
Mof_C 	C 	0.69857	0.12907	0.7877	0.051
Mof_C 	C 	0.49503	0.56451	0.77286	-0.043
Mof_C 	C 	0.81256	0.62501	0.88757	-0.042
Mof_C 	C 	0.88012	0.70697	0.84473	-0.054
Mof_C 	C 	0.6899	0.2812	0.0659	-0.022
Mof_C 	C 	0.7862	0.184	0.5898	0.019
Mof_C 	C 	0.81766	0.06341	0.57523	-0.072
Mof_C 	C 	0.81256	0.18755	0.42499	-0.042
Mof_C 	C 	0.7815	0.5816	0.6711	-0.078
Mof_C 	C 	0.2862	0.5898	0.184	0.019
Mof_C 	C 	0.90408	0.70875	0.64129	0.102
Mof_C 	C 	0.684	0.3978	0.0942	0.019
Mof_C 	C 	0.8896	0.2185	0.3001	-0.078
Mof_C 	C 	0.1591	0.2621	0.9872	0.376
Mof_C 	C 	0.76861	0.604	0.54063	0.351
Mof_C 	C 	0.9058	0.8036	0.0898	0.019
Mof_C 	C 	0.93659	0.92477	0.68234	-0.072
Mof_C 	C 	0.7123	0.30143	0.37093	0.051
Mof_C 	C 	0.64129	0.20875	0.90408	0.102
Mof_C 	C 	0.33539	0.604	0.06337	0.351
Mof_C 	C 	0.5895	0.8896	0.1711	-0.078
Mof_C 	C 	0.72714	0.22217	0.29165	-0.043
Mof_C 	C 	0.68884	0.53935	0.81989	0.086
Mof_C 	C 	0.67147	0.37412	0.00435	0.339
Mof_C 	C 	0.03376	0.28591	0.97233	-0.096
Mof_C 	C 	0.77858	0.1703	0.54228	-0.085
Mof_C 	C 	0.9341	0.7153	0.124	-0.022
Mof_C 	C 	0.73439	0.67185	0.7264	0.014
Mof_C 	C 	0.8001	0.8896	0.7185	-0.078
Mof_C 	C 	0.8289	0.2185	0.9184	-0.078
Mof_C 	C 	0.70697	0.36224	0.82685	-0.054
Mof_C 	C 	0.11988	0.29303	0.15527	-0.054
Mof_C 	C 	0.0695	0.19857	0.91087	0.051
Mof_C 	C 	0.92477	0.18234	0.43659	-0.072
Mof_C 	C 	0.56337	0.33539	0.104	0.351
Mof_C 	C 	0.95937	0.72798	0.56337	0.351
Mof_C 	C 	0.2847	0.9087	0.2188	-0.022
Mof_C 	C 	0.84519	0.88413	0.70584	-0.055
Mof_C 	C 	0.24575	0.75757	0.68234	-0.072
Mof_C 	C 	0.62907	0.19857	0.2877	0.051
Mof_C 	C 	0.60828	0.37198	0.8297	-0.085
Mof_C 	C 	0.7251	0.2379	0.397	0.376
Mof_C 	C 	0.31245	0.68744	0.07501	-0.042
Mof_C 	C 	0.56254	0.23439	0.00799	0.014
Mof_C 	C 	0.38392	0.77911	0.07253	0.093
Mof_C 	C 	0.09065	0.28735	0.1515	-0.008
Mof_C 	C 	0.74785	0.06143	0.53376	-0.096
Mof_C 	C 	0.67315	0.29303	0.13776	-0.054
Mof_C 	C 	0.49565	0.16712	0.86977	0.339
Mof_C 	C 	0.5895	0.6999	0.9184	-0.078
Mof_C 	C 	0.99503	0.22217	0.93052	-0.043
Mof_C 	C 	0.8949	0.75797	0.04407	0.025
Mof_C 	C 	0.1964	0.4102	0.5942	0.019
Mof_C 	C 	0.24785	0.71409	0.68642	-0.096
Mof_C 	C 	0.77538	0.71236	0.73424	0.03
Mof_C 	C 	0.29416	0.61587	0.15481	-0.055
Mof_C 	C 	0.81989	0.03935	0.68884	0.086
Mof_C 	C 	0.12515	0.80833	0.21248	0.124
Mof_C 	C 	0.12588	0.82853	0.49565	0.339
Mof_C 	C 	0.13105	0.81989	0.28054	0.086
Mof_C 	C 	0.4872	0.1591	0.7621	0.376
Mof_C 	C 	0.44545	0.00799	0.7736	0.014
Mof_C 	C 	0.09592	0.29125	0.35871	0.102
Mof_C 	C 	0.70658	0.27911	0.89519	0.093
Mof_C 	C 	0.28591	0.47233	0.53376	-0.096
Mof_C 	C 	0.90935	0.71265	0.8485	-0.008
Mof_C 	C 	0.3281	0.603	0.8409	0.376
Mof_C 	C 	0.82171	0.61587	0.46106	-0.055
Mof_C 	C 	0.43857	0.68642	0.97233	-0.096
Mof_C 	C 	0.80833	0.09585	0.68318	0.124
Mof_C 	C 	0.7637	0.54228	0.37198	-0.085
Mof_C 	C 	0.43915	0.13585	0.8485	-0.008
Mof_C 	C 	0.7379	0.5128	0.3409	0.376
Mof_C 	C 	0.88012	0.17315	0.53539	-0.054
Mof_C 	C 	0.11243	0.87499	0.18744	-0.042
Mof_C 	C 	0.31116	0.85051	0.63105	0.086
Mof_C 	C 	0.81989	0.78054	0.63105	0.086
Mof_C 	C 	0.7736	0.26561	0.82815	0.014
Mof_C 	C 	0.7749	0.603	0.7621	0.376
Mof_C 	C 	0.7637	0.22142	0.89172	-0.085
Mof_C 	C 	0.98818	0.24243	0.92477	-0.072
Mof_C 	C 	0.67829	0.13935	0.79416	-0.055
Mof_C 	C 	0.95772	0.22142	0.3297	-0.085
Mof_C 	C 	0.13935	0.29416	0.17829	-0.055
Mof_C 	C 	0.52188	0.95886	0.23424	0.03
Mof_C 	C 	0.61608	0.22089	0.92747	0.093
Mof_C 	C 	0.816	0.9058	0.6022	0.019
Mof_C 	C 	0.56451	0.27286	0.99503	-0.043
Mof_C 	C 	0.3978	0.5942	0.184	0.019
Mof_C 	C 	0.77911	0.20658	0.39519	0.093
Mof_C 	C 	0.03894	0.17829	0.88413	-0.055
Mof_C 	C 	0.06143	0.03376	0.24785	-0.096
Mof_C 	C 	0.79416	0.15481	0.61587	-0.055
Mof_C 	C 	0.91267	0.78752	0.59585	0.124
Mof_C 	C 	0.88413	0.20584	0.34519	-0.055
Mof_C 	C 	0.19857	0.7877	0.12907	0.051
Mof_C 	C 	0.80467	0.73721	0.59592	0.102
Mof_C 	C 	0.62588	0.49565	0.82853	0.339
Mof_C 	C 	0.20265	0.37412	0.36977	0.339
Mof_C 	C 	0.3949	0.35083	0.13693	0.025
Mof_C 	C 	0.5659	0.6899	0.7812	-0.022
Mof_C 	C 	0.8036	0.5898	0.4058	0.019
Mof_C 	C 	0.86415	0.6515	0.06085	-0.008
Mof_C 	C 	0.34519	0.63935	0.96106	-0.055
Mof_C 	C 	0.17315	0.13776	0.29303	-0.054
Mof_C 	C 	0.93165	0.2074	0.35545	-0.113
Mof_C 	C 	0.11988	0.82685	0.46461	-0.054
Mof_C 	C 	0.2139	0.85083	0.45593	0.025
Mof_C 	C 	0.97812	0.76576	0.04114	0.03
Mof_C 	C 	0.68011	0.31116	0.96065	0.086
Mof_C 	C 	0.70835	0.43052	0.93549	-0.043
Mof_C 	C 	0.2138	0.816	0.4102	0.019
Mof_C 	C 	0.31682	0.91267	0.62515	0.124
Mof_C 	C 	0.39519	0.68861	0.11608	0.093
Mof_C 	C 	0.43746	0.76561	0.99201	0.014
Mof_C 	C 	0.73439	0.06254	0.50799	0.014
Mof_C 	C 	0.1022	0.2862	0.1964	0.019
Mof_C 	C 	0.18861	0.29342	0.07253	0.093
Mof_C 	C 	0.2877	0.58913	0.15863	0.051
Mof_C 	C 	0.99565	0.86977	0.16712	0.339
Mof_C 	C 	0.97233	0.18642	0.43857	-0.096
Mof_C 	C 	0.20658	0.89519	0.27911	0.093
Mof_C 	C 	0.12515	0.31682	0.41267	0.124
Mof_C 	C 	0.26279	0.90408	0.69533	0.102
Mof_C 	C 	0.77783	0.20835	0.77286	-0.043
Mof_C 	C 	0.36307	0.6051	0.14917	0.025
Mof_C 	C 	0.2074	0.85545	0.43165	-0.113
Mof_C 	C 	0.5898	0.684	0.7862	0.019
Mof_C 	C 	0.64917	0.36307	0.1051	0.025
Mof_C 	C 	0.71248	0.12515	0.30833	0.124
Mof_C 	C 	0.20875	0.80467	0.56746	0.102
Mof_C 	C 	0.00799	0.73439	0.56254	0.014
Mof_C 	C 	0.0695	0.87093	0.65863	0.051
Mof_C 	C 	0.9105	0.0816	0.3001	-0.078
Mof_C 	C 	0.12501	0.81245	0.23744	-0.042
Mof_C 	C 	0.8949	0.13693	0.35083	0.025
Mof_C 	C 	0.603	0.2621	0.2749	0.376
Mof_C 	C 	0.37499	0.76256	0.18755	-0.042
Mof_C 	C 	0.03894	0.86065	0.65481	-0.055
Mof_C 	C 	0.43698	0.71236	0.97812	0.03
Mof_C 	C 	0.91087	0.69857	0.0695	0.051
Mof_C 	C 	0.57501	0.31245	0.18744	-0.042
Mof_C 	C 	0.90935	0.1967	0.56085	-0.008
Mof_C 	C 	0.36307	0.75797	0.7139	0.025
Mof_C 	C 	0.45886	0.02188	0.73424	0.03
Mof_C 	C 	0.75797	0.54407	0.3949	0.025
Mof_C 	C 	0.45937	0.56337	0.72798	0.351
Mof_C 	C 	0.46106	0.34519	0.13935	-0.055
Mof_C 	C 	0.3409	0.0128	0.7379	0.376
Mof_C 	C 	0.2188	0.8101	0.4341	-0.022
Mof_C 	C 	0.26576	0.47812	0.54114	0.03
Mof_C 	C 	0.1899	0.124	0.4087	-0.022
Mof_C 	C 	0.7847	0.5659	0.376	-0.022
Mof_C 	C 	0.39172	0.7637	0.72142	-0.085
Mof_C 	C 	0.5762	0.64455	0.85195	-0.113
Mof_C 	C 	0.5913	0.376	0.8101	-0.022
Mof_C 	C 	0.47233	0.03376	0.78591	-0.096
Mof_C 	C 	0.44545	0.43746	0.17185	0.014
Mof_C 	C 	0.41267	0.59585	0.78752	0.124
Mof_C 	C 	0.52767	0.56143	0.81358	-0.096
Mof_C 	C 	0.124	0.2153	0.9341	-0.022
Mof_C 	C 	0.41087	0.34137	0.2123	0.051
Mof_C 	C 	0.397	0.6591	0.1719	0.376
Mof_C 	C 	0.36895	0.71946	0.18011	0.086
Mof_C 	C 	0.21265	0.8033	0.36415	-0.008
Mof_C 	C 	0.33288	0.32853	0.20265	0.339
Mof_C 	C 	0.85083	0.8949	0.63693	0.025
Mof_C 	C 	0.06746	0.20875	0.30467	0.102
Mof_C 	C 	0.71248	0.58733	0.90415	0.124
Mof_C 	C 	0.14949	0.28054	0.46065	0.086
Mof_C 	C 	0.30467	0.70875	0.06746	0.102
Mof_C 	C 	0.55455	0.99201	0.2264	0.014
Mof_C 	C 	0.3485	0.90935	0.21265	-0.008
Mof_C 	C 	0.71265	0.3485	0.40935	-0.008
Mof_C 	C 	0.91267	0.12515	0.81682	0.124
Mof_C 	C 	0.52188	0.56302	0.78764	0.03
Mof_C 	C 	0.35083	0.7139	0.95593	0.025
Mof_C 	C 	0.9872	0.2251	0.3281	0.376
Mof_C 	C 	0.3101	0.5913	0.876	-0.022
Mof_C 	C 	0.00799	0.2736	0.94545	0.014
Mof_C 	C 	0.7123	0.41087	0.84137	0.051
Mof_C 	C 	0.41267	0.81682	0.12515	0.124
Mof_C 	C 	0.95886	0.22462	0.43698	0.03
Mof_C 	C 	0.1104	0.3289	0.9105	-0.078
Mof_C 	C 	0.71265	0.36415	0.8033	-0.008
Mof_C 	C 	0.7264	0.55455	0.49201	0.014
Mof_C 	C 	0.72714	0.50497	0.93549	-0.043
Mof_C 	C 	0.65481	0.36065	0.03894	-0.055
Mof_C 	C 	0.3101	0.7188	0.9341	-0.022
Mof_C 	C 	0.46624	0.43857	0.25215	-0.096
Mof_C 	C 	0.31682	0.40415	0.19167	0.124
Mof_C 	C 	0.53894	0.88413	0.17829	-0.055
Mof_C 	C 	0.53935	0.21946	0.85051	0.086
Mof_C 	C 	0.72425	0.14805	0.7926	-0.113
Mof_C 	C 	0.18011	0.21946	0.36895	0.086
Mof_C 	C 	0.15527	0.79303	0.11988	-0.054
Mof_C 	C 	0.83288	0.63023	0.00435	0.339
Mof_C 	C 	0.56341	0.24575	0.98818	-0.072
Mof_C 	C 	0.66461	0.26861	0.22798	0.351
Mof_C 	C 	0.6591	0.6719	0.897	0.376
Mof_C 	C 	0.84137	0.91087	0.7123	0.051
Mof_C 	C 	0.84473	0.63776	0.46461	-0.054
Mof_C 	C 	0.41087	0.0695	0.69857	0.051
Mof_C 	C 	0.26576	0.78764	0.22462	0.03
Mof_C 	C 	0.7139	0.45593	0.85083	0.025
Mof_C 	C 	0.31139	0.92747	0.70658	0.093
Mof_C 	C 	0.3001	0.5816	0.9105	-0.078
Mof_C 	C 	0.6711	0.5895	0.3896	-0.078
Mof_C 	C 	0.56746	0.30467	0.20875	0.102
Mof_C 	C 	0.1719	0.0128	0.2749	0.376
Mof_C 	C 	0.18234	0.24575	0.25757	-0.072
Mof_C 	C 	0.69167	0.31682	0.90415	0.124
Mof_C 	C 	0.5695	0.91087	0.19857	0.051
Mof_C 	C 	0.42477	0.98818	0.74243	-0.072
Mof_C 	C 	0.74575	0.68234	0.75757	-0.072
Mof_C 	C 	0.06085	0.1515	0.86415	-0.008
Mof_N 	N 	0.44466	0.76651	0.11875	-0.244
Mof_N 	N 	0.88691	0.08911	0.68618	-0.272
Mof_N 	N 	0.89693	0.05975	0.7101	-0.327
Mof_N 	N 	0.38691	0.70073	0.7978	-0.272
Mof_N 	N 	0.82185	0.76651	0.64776	-0.244
Mof_N 	N 	0.23349	0.85224	0.67815	-0.244
Mof_N 	N 	0.32185	0.67409	0.05534	-0.244
Mof_N 	N 	0.30987	0.60115	0.76512	-0.301
Mof_N 	N 	0.64414	0.22566	0.93132	-0.285
Mof_N 	N 	0.80987	0.04475	0.70872	-0.301
Mof_N 	N 	0.29128	0.83603	0.60115	-0.301
Mof_N 	N 	0.90293	0.7022	0.58911	-0.272
Mof_N 	N 	0.77434	0.56868	0.85586	-0.285
Mof_N 	N 	0.18683	0.2899	0.34965	-0.327
Mof_N 	N 	0.82591	0.64776	0.88125	-0.244
Mof_N 	N 	0.44025	0.60307	0.7899	-0.327
Mof_N 	N 	0.35224	0.73349	0.17815	-0.244
Mof_N 	N 	0.41089	0.7978	0.09707	-0.272
Mof_N 	N 	0.76512	0.66397	0.95525	-0.301
Mof_N 	N 	0.2101	0.89693	0.55975	-0.327
Mof_N 	N 	0.29434	0.56868	0.71282	-0.285
Mof_N 	N 	0.31317	0.65035	0.7101	-0.327
Mof_N 	N 	0.16282	0.81317	0.60307	-0.327
Mof_N 	N 	0.68618	0.09707	0.29927	-0.272
Mof_N 	N 	0.72566	0.14414	0.43132	-0.285
Mof_N 	N 	0.23349	0.38125	0.05534	-0.244
Mof_N 	N 	0.04475	0.83603	0.23488	-0.301
Mof_N 	N 	0.76512	0.10115	0.30987	-0.301
Mof_N 	N 	0.23488	0.89885	0.69013	-0.301
Mof_N 	N 	0.29927	0.7022	0.11309	-0.272
Mof_N 	N 	0.41089	0.61309	0.81382	-0.272
Mof_N 	N 	0.26512	0.95525	0.66397	-0.301
Mof_N 	N 	0.93132	0.20566	0.78718	-0.285
Mof_N 	N 	0.30987	0.70872	0.04475	-0.301
Mof_N 	N 	0.39885	0.66397	0.70872	-0.301
Mof_N 	N 	0.81382	0.70073	0.90293	-0.272
Mof_N 	N 	0.73349	0.05534	0.38125	-0.244
Mof_N 	N 	0.84965	0.18683	0.7899	-0.327
Mof_N 	N 	0.71282	0.06868	0.29434	-0.285
Mof_N 	N 	0.88125	0.73349	0.55534	-0.244
Mof_N 	N 	0.93132	0.72566	0.64414	-0.285
Mof_N 	N 	0.05534	0.88125	0.23349	-0.244
Mof_N 	N 	0.35586	0.77434	0.06868	-0.285
Mof_N 	N 	0.33603	0.54475	0.73488	-0.301
Mof_N 	N 	0.29927	0.59707	0.68618	-0.272
Mof_N 	N 	0.89885	0.19013	0.73488	-0.301
Mof_N 	N 	0.44025	0.83718	0.15035	-0.327
Mof_N 	N 	0.26651	0.32185	0.14776	-0.244
Mof_N 	N 	0.7978	0.20073	0.38691	-0.272
Mof_N 	N 	0.94466	0.82591	0.67815	-0.244
Mof_N 	N 	0.56868	0.35586	0.27434	-0.285
Mof_N 	N 	0.41848	0.71282	0.14414	-0.285
Mof_N 	N 	0.66397	0.45525	0.26512	-0.301
Mof_N 	N 	0.14776	0.82185	0.26651	-0.244
Mof_N 	N 	0.23488	0.33603	0.04475	-0.301
Mof_N 	N 	0.79128	0.19013	0.45525	-0.301
Mof_N 	N 	0.58152	0.29434	0.22566	-0.285
Mof_N 	N 	0.18683	0.89693	0.33718	-0.327
Mof_N 	N 	0.32591	0.44466	0.17815	-0.244
Mof_N 	N 	0.16397	0.26512	0.45525	-0.301
Mof_N 	N 	0.7022	0.08911	0.40293	-0.272
Mof_N 	N 	0.90293	0.20073	0.81382	-0.272
Mof_N 	N 	0.05534	0.17409	0.32185	-0.244
Mof_N 	N 	0.33718	0.94025	0.65035	-0.327
Mof_N 	N 	0.35586	0.58152	0.78718	-0.285
Mof_N 	N 	0.70566	0.27434	0.91848	-0.285
Mof_N 	N 	0.66282	0.05975	0.34965	-0.327
Mof_N 	N 	0.55975	0.39693	0.2101	-0.327
Mof_N 	N 	0.79927	0.68618	0.59707	-0.272
Mof_N 	N 	0.95525	0.79128	0.69013	-0.301
Mof_N 	N 	0.61309	0.29927	0.2022	-0.272
Mof_N 	N 	0.61875	0.44466	0.26651	-0.244
Mof_N 	N 	0.45525	0.76512	0.16397	-0.301
Mof_N 	N 	0.41848	0.70566	0.77434	-0.285
Mof_N 	N 	0.73349	0.67815	0.85224	-0.244
Mof_N 	N 	0.08152	0.22566	0.29434	-0.285
Mof_N 	N 	0.59707	0.41089	0.2978	-0.272
Mof_N 	N 	0.82185	0.05534	0.67409	-0.244
Mof_N 	N 	0.32591	0.88125	0.64776	-0.244
Mof_N 	N 	0.85586	0.06868	0.77434	-0.285
Mof_N 	N 	0.67409	0.11875	0.35224	-0.244
Mof_N 	N 	0.10115	0.80987	0.26512	-0.301
Mof_N 	N 	0.66397	0.20872	0.89885	-0.301
Mof_N 	N 	0.70073	0.40293	0.31382	-0.272
Mof_N 	N 	0.89693	0.83718	0.68683	-0.327
Mof_N 	N 	0.88691	0.7978	0.70073	-0.272
Mof_N 	N 	0.85224	0.67409	0.61875	-0.244
Mof_N 	N 	0.26512	0.30987	0.10115	-0.301
Mof_N 	N 	0.28718	0.35586	0.08152	-0.285
Mof_N 	N 	0.20073	0.88691	0.2978	-0.272
Mof_N 	N 	0.69013	0.29128	0.95525	-0.301
Mof_N 	N 	0.45525	0.69013	0.79128	-0.301
Mof_N 	N 	0.06868	0.27434	0.35586	-0.285
Mof_N 	N 	0.18618	0.29927	0.09707	-0.272
Mof_N 	N 	0.44466	0.67815	0.82591	-0.244
Mof_N 	N 	0.17409	0.35224	0.11875	-0.244
Mof_N 	N 	0.91089	0.81382	0.61309	-0.272
Mof_N 	N 	0.38691	0.68618	0.08911	-0.272
Mof_N 	N 	0.58152	0.28718	0.85586	-0.285
Mof_N 	N 	0.16282	0.34965	0.05975	-0.327
Mof_N 	N 	0.64776	0.26651	0.82185	-0.244
Mof_N 	N 	0.59707	0.18618	0.79927	-0.272
Mof_N 	N 	0.85586	0.78718	0.58152	-0.285
Mof_N 	N 	0.10307	0.16282	0.31317	-0.327
Mof_N 	N 	0.20566	0.91848	0.27434	-0.285
Mof_N 	N 	0.39693	0.7101	0.05975	-0.327
Mof_N 	N 	0.11309	0.2022	0.29927	-0.272
Mof_N 	N 	0.7101	0.15035	0.31317	-0.327
Mof_N 	N 	0.7978	0.59707	0.91089	-0.272
Mof_N 	N 	0.79927	0.11309	0.7022	-0.272
Mof_N 	N 	0.73488	0.04475	0.33603	-0.301
Mof_N 	N 	0.38125	0.82591	0.14776	-0.244
Mof_N 	N 	0.91848	0.77434	0.70566	-0.285
Mof_N 	N 	0.60115	0.26512	0.80987	-0.301
Mof_N 	N 	0.11875	0.26651	0.44466	-0.244
Mof_N 	N 	0.43132	0.78718	0.20566	-0.285
Mof_N 	N 	0.33603	0.79128	0.10115	-0.301
Mof_N 	N 	0.55534	0.32185	0.17409	-0.244
Mof_N 	N 	0.58911	0.2022	0.90293	-0.272
Mof_N 	N 	0.31382	0.90293	0.70073	-0.272
Mof_N 	N 	0.95525	0.16397	0.76512	-0.301
Mof_N 	N 	0.65035	0.2101	0.81317	-0.327
Mof_N 	N 	0.60115	0.33603	0.29128	-0.301
Mof_N 	N 	0.40293	0.58911	0.7022	-0.272
Mof_N 	N 	0.08911	0.90293	0.2022	-0.272
Mof_N 	N 	0.83718	0.65035	0.94025	-0.327
Mof_N 	N 	0.65035	0.44025	0.33718	-0.327
Mof_N 	N 	0.39693	0.68683	0.83718	-0.327
Mof_N 	N 	0.55975	0.16282	0.84965	-0.327
Mof_N 	N 	0.84965	0.66282	0.55975	-0.327
Mof_N 	N 	0.10115	0.29128	0.33603	-0.301
Mof_N 	N 	0.7899	0.68683	0.84965	-0.327
Mof_N 	N 	0.64414	0.41848	0.21282	-0.285
Mof_N 	N 	0.15035	0.81317	0.2101	-0.327
Mof_N 	N 	0.06868	0.79434	0.21282	-0.285
Mof_N 	N 	0.61875	0.17409	0.85224	-0.244
Mof_N 	N 	0.10307	0.94025	0.2899	-0.327
Mof_N 	N 	0.94466	0.11875	0.76651	-0.244
Mof_N 	N 	0.27434	0.85586	0.56868	-0.285
Mof_N 	N 	0.71282	0.64414	0.91848	-0.285
Mof_N 	N 	0.94025	0.15035	0.83718	-0.327
Mof_N 	N 	0.70872	0.54475	0.80987	-0.301
Mof_N 	N 	0.7899	0.10307	0.44025	-0.327
Mof_N 	N 	0.81382	0.11309	0.41089	-0.272
Mof_N 	N 	0.35224	0.61875	0.67409	-0.244
Mof_N 	N 	0.34965	0.7899	0.18683	-0.327
Mof_N 	N 	0.85224	0.17815	0.73349	-0.244
Mof_N 	N 	0.79434	0.08152	0.72566	-0.285
Mof_N 	N 	0.80987	0.76512	0.60115	-0.301
Mof_N 	N 	0.04475	0.20872	0.30987	-0.301
Mof_N 	N 	0.11875	0.85224	0.17409	-0.244
Mof_N 	N 	0.20073	0.31382	0.40293	-0.272
Mof_N 	N 	0.66282	0.60307	0.81317	-0.327
Mof_N 	N 	0.17815	0.94466	0.32591	-0.244
Mof_N 	N 	0.14776	0.32591	0.38125	-0.244
Mof_N 	N 	0.76651	0.61875	0.94466	-0.244
Mof_N 	N 	0.43132	0.64414	0.72566	-0.285
Mof_N 	N 	0.83603	0.73488	0.54475	-0.301
Mof_N 	N 	0.70566	0.43132	0.28718	-0.285
Mof_N 	N 	0.29128	0.45525	0.19013	-0.301
Mof_N 	N 	0.70073	0.2978	0.88691	-0.272
Mof_N 	N 	0.7022	0.61309	0.79927	-0.272
Mof_N 	N 	0.64776	0.38125	0.32591	-0.244
Mof_N 	N 	0.20872	0.39885	0.16397	-0.301
Mof_N 	N 	0.08911	0.18618	0.38691	-0.272
Mof_N 	N 	0.32185	0.64776	0.76651	-0.244
Mof_N 	N 	0.58911	0.38691	0.18618	-0.272
Mof_N 	N 	0.67815	0.35224	0.23349	-0.244
Mof_N 	N 	0.17409	0.82185	0.55534	-0.244
Mof_N 	N 	0.68683	0.33718	0.89693	-0.327
Mof_N 	N 	0.15035	0.33718	0.44025	-0.327
Mof_N 	N 	0.39885	0.73488	0.19013	-0.301
Mof_N 	N 	0.14414	0.93132	0.22566	-0.285
Mof_N 	N 	0.19013	0.95525	0.29128	-0.301
Mof_N 	N 	0.20872	0.80987	0.54475	-0.301
Mof_N 	N 	0.05975	0.84965	0.16282	-0.327
Mof_N 	N 	0.7101	0.55975	0.89693	-0.327
Mof_N 	N 	0.82591	0.17815	0.44466	-0.244
Mof_N 	N 	0.21282	0.91848	0.64414	-0.285
Mof_N 	N 	0.78718	0.70566	0.93132	-0.285
Mof_N 	N 	0.70872	0.16397	0.39885	-0.301
Mof_N 	N 	0.69013	0.39885	0.23488	-0.301
Mof_N 	N 	0.83603	0.10115	0.79128	-0.301
Mof_N 	N 	0.72566	0.58152	0.79434	-0.285
Mof_N 	N 	0.88125	0.14776	0.82591	-0.244
Mof_N 	N 	0.79128	0.60115	0.83603	-0.301
Mof_N 	N 	0.19013	0.23488	0.39885	-0.301
Mof_N 	N 	0.31382	0.41089	0.11309	-0.272
Mof_N 	N 	0.67409	0.55534	0.82185	-0.244
Mof_N 	N 	0.26651	0.94466	0.61875	-0.244
Mof_N 	N 	0.91848	0.14414	0.71282	-0.285
Mof_N 	N 	0.2899	0.44025	0.10307	-0.327
Mof_N 	N 	0.68683	0.34965	0.2899	-0.327
Mof_N 	N 	0.2101	0.31317	0.15035	-0.327
Mof_N 	N 	0.08152	0.85586	0.28718	-0.285
Mof_N 	N 	0.38125	0.55534	0.73349	-0.244
Mof_N 	N 	0.22566	0.79434	0.58152	-0.285
Mof_N 	N 	0.2022	0.79927	0.61309	-0.272
Mof_N 	N 	0.89885	0.70872	0.66397	-0.301
Mof_N 	N 	0.31317	0.66282	0.10307	-0.327
Mof_N 	N 	0.40293	0.81382	0.20073	-0.272
Mof_N 	N 	0.68618	0.58911	0.88691	-0.272
Mof_N 	N 	0.76651	0.14776	0.32185	-0.244
Mof_N 	N 	0.91089	0.09707	0.7978	-0.272
Mof_N 	N 	0.61309	0.31382	0.91089	-0.272
Mof_N 	N 	0.55534	0.23349	0.88125	-0.244
Mof_N 	N 	0.54475	0.23488	0.83603	-0.301
Mof_N 	N 	0.14414	0.21282	0.41848	-0.285
Mof_N 	N 	0.79434	0.71282	0.56868	-0.285
Mof_N 	N 	0.83718	0.18683	0.39693	-0.327
Mof_N 	N 	0.17815	0.23349	0.35224	-0.244
Mof_N 	N 	0.2978	0.91089	0.59707	-0.272
Mof_N 	N 	0.28718	0.93132	0.70566	-0.285
Mof_N 	N 	0.60307	0.31317	0.16282	-0.327
Mof_N 	N 	0.09707	0.2978	0.41089	-0.272
Mof_N 	N 	0.67815	0.32591	0.94466	-0.244
Mof_N 	N 	0.2978	0.38691	0.20073	-0.272
Mof_N 	N 	0.2022	0.40293	0.08911	-0.272
Mof_N 	N 	0.22566	0.43132	0.14414	-0.285
Mof_N 	N 	0.29434	0.72566	0.08152	-0.285
Mof_N 	N 	0.16397	0.89885	0.20872	-0.301
Mof_N 	N 	0.21282	0.29434	0.06868	-0.285
Mof_N 	N 	0.34965	0.55975	0.66282	-0.327
Mof_N 	N 	0.27434	0.41848	0.20566	-0.285
Mof_N 	N 	0.78718	0.08152	0.35586	-0.285
Mof_N 	N 	0.94025	0.7899	0.60307	-0.327
Mof_N 	N 	0.20566	0.28718	0.43132	-0.285
Mof_N 	N 	0.73488	0.69013	0.89885	-0.301
Mof_N 	N 	0.54475	0.30987	0.20872	-0.301
Mof_N 	N 	0.18618	0.88691	0.58911	-0.272
Mof_N 	N 	0.56868	0.21282	0.79434	-0.285
Mof_N 	N 	0.2899	0.84965	0.68683	-0.327
Mof_N 	N 	0.05975	0.2101	0.39693	-0.327
Mof_N 	N 	0.60307	0.2899	0.94025	-0.327
Mof_N 	N 	0.11309	0.91089	0.31382	-0.272
Mof_N 	N 	0.77434	0.20566	0.41848	-0.285
Mof_N 	N 	0.09707	0.79927	0.18618	-0.272
Mof_N 	N 	0.81317	0.10307	0.66282	-0.327
Mof_N 	N 	0.33718	0.39693	0.18683	-0.327
Mof_N 	N 	0.81317	0.7101	0.65035	-0.327
Mof_O 	O 	0.00888	0.76796	0.68958	-0.494
Mof_O 	O 	0.81042	0.8193	0.57838	-0.494
Mof_O 	O 	0.43426	0.67367	0.87723	-0.475
Mof_O 	O 	0.30085	0.68895	0.193	-0.32
Mof_O 	O 	0.04767	0.75026	0.10813	-0.325
Mof_O 	O 	0.23941	0.79644	0.67367	-0.475
Mof_O 	O 	0.29741	0.35787	0.24974	-0.325
Mof_O 	O 	0.92162	0.18958	0.6807	-0.494
Mof_O 	O 	0.20356	0.82633	0.26059	-0.475
Mof_O 	O 	0.50532	0.16006	0.78454	-0.35
Mof_O 	O 	0.87723	0.70356	0.94297	-0.475
Mof_O 	O 	0.34526	0.72078	0.00532	-0.35
Mof_O 	O 	0.35787	0.60813	0.06046	-0.325
Mof_O 	O 	0.93954	0.89187	0.64213	-0.325
Mof_O 	O 	0.46502	0.75	0.21502	-0.572
Mof_O 	O 	0.17367	0.23941	0.29644	-0.475
Mof_O 	O 	0.69915	0.3881	0.39215	-0.32
Mof_O 	O 	0.20223	0.35167	0.3713	-0.475
Mof_O 	O 	0.1287	0.33093	0.48037	-0.475
Mof_O 	O 	0.49112	0.31042	0.23204	-0.494
Mof_O 	O 	0.33994	0.34526	0.12448	-0.35
Mof_O 	O 	0.73204	0.24092	0.42162	-0.494
Mof_O 	O 	0.70356	0.26059	0.82633	-0.475
Mof_O 	O 	0.81042	0.99112	0.73204	-0.494
Mof_O 	O 	0.31042	0.73204	0.99112	-0.494
Mof_O 	O 	0.96502	0.21502	0.75	-0.572
Mof_O 	O 	0.04767	0.29741	0.43954	-0.325
Mof_O 	O 	0.89215	0.69915	0.8881	-0.32
Mof_O 	O 	0.28498	0.53498	0.75	-0.572
Mof_O 	O 	0.00532	0.78454	0.16006	-0.35
Mof_O 	O 	0.03498	0.25	0.28498	-0.572
Mof_O 	O 	0.07838	0.81042	0.3193	-0.494
Mof_O 	O 	0.56574	0.23941	0.94297	-0.475
Mof_O 	O 	0.79741	0.24974	0.35787	-0.325
Mof_O 	O 	0.84526	0.83994	0.62448	-0.35
Mof_O 	O 	0.8881	0.19915	0.89215	-0.32
Mof_O 	O 	0.15474	0.16006	0.37552	-0.35
Mof_O 	O 	0.68895	0.693	0.80085	-0.32
Mof_O 	O 	0.25	0.28498	0.03498	-0.572
Mof_O 	O 	0.93426	0.05703	0.76059	-0.475
Mof_O 	O 	0.49595	0.18895	0.8881	-0.32
Mof_O 	O 	0.06046	0.10813	0.35787	-0.325
Mof_O 	O 	0.54767	0.43954	0.29741	-0.325
Mof_O 	O 	0.74974	0.45233	0.39187	-0.325
Mof_O 	O 	0.6119	0.10785	0.80085	-0.32
Mof_O 	O 	0.99112	0.75908	0.1807	-0.494
Mof_O 	O 	0.14833	0.29777	0.1287	-0.475
Mof_O 	O 	0.00532	0.22078	0.34526	-0.35
Mof_O 	O 	0.10813	0.25026	0.04767	-0.325
Mof_O 	O 	0.31042	0.57838	0.8193	-0.494
Mof_O 	O 	0.3881	0.49595	0.68895	-0.32
Mof_O 	O 	0.29644	0.55703	0.62277	-0.475
Mof_O 	O 	0.17367	0.93426	0.37723	-0.475
Mof_O 	O 	0.99112	0.23204	0.31042	-0.494
Mof_O 	O 	0.21502	0.25	0.46502	-0.572
Mof_O 	O 	0.1119	0.31105	0.50405	-0.32
Mof_O 	O 	0.62448	0.28454	0.27922	-0.35
Mof_O 	O 	0.12448	0.27922	0.28454	-0.35
Mof_O 	O 	0.05703	0.79644	0.12277	-0.475
Mof_O 	O 	0.56574	0.32633	0.12277	-0.475
Mof_O 	O 	0.75908	0.6807	0.49112	-0.494
Mof_O 	O 	0.93426	0.87723	0.67367	-0.475
Mof_O 	O 	0.85056	0.01963	0.64833	-0.475
Mof_O 	O 	0.53498	0.25	0.78498	-0.572
Mof_O 	O 	0.85787	0.06046	0.60813	-0.325
Mof_O 	O 	0.79644	0.62277	0.55703	-0.475
Mof_O 	O 	0.73941	0.67367	0.79644	-0.475
Mof_O 	O 	0.75	0.71502	0.96502	-0.572
Mof_O 	O 	0.19915	0.39215	0.3881	-0.32
Mof_O 	O 	0.37723	0.94297	0.70356	-0.475
Mof_O 	O 	0.31105	0.00405	0.6119	-0.32
Mof_O 	O 	0.65474	0.37552	0.16006	-0.35
Mof_O 	O 	0.37552	0.66006	0.15474	-0.35
Mof_O 	O 	0.43954	0.79741	0.04767	-0.325
Mof_O 	O 	0.25	0.96502	0.71502	-0.572
Mof_O 	O 	0.8881	0.68895	0.49595	-0.32
Mof_O 	O 	0.75026	0.14213	0.70259	-0.325
Mof_O 	O 	0.77922	0.62448	0.78454	-0.35
Mof_O 	O 	0.67367	0.37723	0.93426	-0.475
Mof_O 	O 	0.30085	0.6119	0.60785	-0.32
Mof_O 	O 	0.55703	0.43426	0.26059	-0.475
Mof_O 	O 	0.87723	0.17367	0.43426	-0.475
Mof_O 	O 	0.8713	0.20223	0.85167	-0.475
Mof_O 	O 	0.193	0.18895	0.30085	-0.32
Mof_O 	O 	0.64213	0.39187	0.93954	-0.325
Mof_O 	O 	0.64944	0.35167	0.98037	-0.475
Mof_O 	O 	0.33093	0.35056	0.20223	-0.475
Mof_O 	O 	0.64833	0.51963	0.85056	-0.475
Mof_O 	O 	0.29777	0.6287	0.64833	-0.475
Mof_O 	O 	0.70223	0.3713	0.35167	-0.475
Mof_O 	O 	0.23204	0.42162	0.24092	-0.494
Mof_O 	O 	0.28454	0.77922	0.12448	-0.35
Mof_O 	O 	0.18895	0.3881	0.99595	-0.32
Mof_O 	O 	0.60813	0.56046	0.85787	-0.325
Mof_O 	O 	0.3713	0.51963	0.66907	-0.475
Mof_O 	O 	0.19915	0.807	0.31105	-0.32
Mof_O 	O 	0.21502	0.96502	0.25	-0.572
Mof_O 	O 	0.68958	0.42162	0.1807	-0.494
Mof_O 	O 	0.55703	0.12277	0.79644	-0.475
Mof_O 	O 	0.93954	0.04767	0.79741	-0.325
Mof_O 	O 	0.22078	0.37552	0.21546	-0.35
Mof_O 	O 	0.05703	0.26059	0.43426	-0.475
Mof_O 	O 	0.42162	0.74092	0.73204	-0.494
Mof_O 	O 	0.66907	0.64944	0.79777	-0.475
Mof_O 	O 	0.25	0.78498	0.53498	-0.572
Mof_O 	O 	0.99468	0.77922	0.65474	-0.35
Mof_O 	O 	0.12277	0.29644	0.05703	-0.475
Mof_O 	O 	0.26059	0.32633	0.20356	-0.475
Mof_O 	O 	0.60785	0.1119	0.30085	-0.32
Mof_O 	O 	0.193	0.00405	0.39215	-0.32
Mof_O 	O 	0.78498	0.75	0.53498	-0.572
Mof_O 	O 	0.76796	0.18958	0.50888	-0.494
Mof_O 	O 	0.21546	0.87552	0.22078	-0.35
Mof_O 	O 	0.78454	0.66006	0.50532	-0.35
Mof_O 	O 	0.64213	0.25026	0.20259	-0.325
Mof_O 	O 	0.75	0.21502	0.46502	-0.572
Mof_O 	O 	0.99468	0.21546	0.83994	-0.35
Mof_O 	O 	0.56046	0.35787	0.10813	-0.325
Mof_O 	O 	0.75908	0.07838	0.76796	-0.494
Mof_O 	O 	0.42162	0.6807	0.18958	-0.494
Mof_O 	O 	0.34526	0.62448	0.83994	-0.35
Mof_O 	O 	0.29741	0.93954	0.54767	-0.325
Mof_O 	O 	0.24092	0.92162	0.23204	-0.494
Mof_O 	O 	0.31105	0.307	0.19915	-0.32
Mof_O 	O 	0.06574	0.12277	0.32633	-0.475
Mof_O 	O 	0.76059	0.20356	0.32633	-0.475
Mof_O 	O 	0.73941	0.06574	0.44297	-0.475
Mof_O 	O 	0.3881	0.89215	0.19915	-0.32
Mof_O 	O 	0.307	0.69915	0.81105	-0.32
Mof_O 	O 	0.71546	0.22078	0.87552	-0.35
Mof_O 	O 	0.807	0.81105	0.69915	-0.32
Mof_O 	O 	0.20356	0.37723	0.44297	-0.475
Mof_O 	O 	0.28454	0.50532	0.66006	-0.35
Mof_O 	O 	0.83994	0.12448	0.34526	-0.35
Mof_O 	O 	0.6287	0.48037	0.33093	-0.475
Mof_O 	O 	0.10785	0.807	0.49595	-0.32
Mof_O 	O 	0.94297	0.73941	0.56574	-0.475
Mof_O 	O 	0.00405	0.89215	0.693	-0.32
Mof_O 	O 	0.57838	0.3193	0.81042	-0.494
Mof_O 	O 	0.44297	0.87723	0.20356	-0.475
Mof_O 	O 	0.87552	0.72078	0.71546	-0.35
Mof_O 	O 	0.75	0.53498	0.78498	-0.572
Mof_O 	O 	0.71502	0.46502	0.25	-0.572
Mof_O 	O 	0.51963	0.16907	0.8713	-0.475
Mof_O 	O 	0.72078	0.50532	0.84526	-0.35
Mof_O 	O 	0.50888	0.8193	0.24092	-0.494
Mof_O 	O 	0.81105	0.6119	0.00405	-0.32
Mof_O 	O 	0.26796	0.50888	0.18958	-0.494
Mof_O 	O 	0.24092	0.3193	0.50888	-0.494
Mof_O 	O 	0.16006	0.28454	0.00532	-0.35
Mof_O 	O 	0.82633	0.06574	0.62277	-0.475
Mof_O 	O 	0.98037	0.1287	0.83093	-0.475
Mof_O 	O 	0.693	0.39215	0.00405	-0.32
Mof_O 	O 	0.39215	0.8881	0.69915	-0.32
Mof_O 	O 	0.82633	0.76059	0.70356	-0.475
Mof_O 	O 	0.26059	0.93426	0.55703	-0.475
Mof_O 	O 	0.01963	0.8713	0.16907	-0.475
Mof_O 	O 	0.01963	0.14833	0.35056	-0.475
Mof_O 	O 	0.35056	0.64833	0.01963	-0.475
Mof_O 	O 	0.49468	0.83994	0.21546	-0.35
Mof_O 	O 	0.6287	0.14833	0.79777	-0.475
Mof_O 	O 	0.43954	0.64213	0.89187	-0.325
Mof_O 	O 	0.20223	0.85056	0.33093	-0.475
Mof_O 	O 	0.70259	0.06046	0.45233	-0.325
Mof_O 	O 	0.78498	0.03498	0.75	-0.572
Mof_O 	O 	0.80085	0.193	0.68895	-0.32
Mof_O 	O 	0.83994	0.71546	0.99468	-0.35
Mof_O 	O 	0.16006	0.87552	0.65474	-0.35
Mof_O 	O 	0.89215	0.193	0.50405	-0.32
Mof_O 	O 	0.70356	0.44297	0.37723	-0.475
Mof_O 	O 	0.56046	0.20259	0.95233	-0.325
Mof_O 	O 	0.62277	0.56574	0.82633	-0.475
Mof_O 	O 	0.96502	0.75	0.71502	-0.572
Mof_O 	O 	0.76059	0.55703	0.93426	-0.475
Mof_O 	O 	0.20259	0.45233	0.06046	-0.325
Mof_O 	O 	0.21546	0.33994	0.49468	-0.35
Mof_O 	O 	0.33093	0.98037	0.6287	-0.475
Mof_O 	O 	0.22078	0.84526	0.50532	-0.35
Mof_O 	O 	0.20259	0.75026	0.64213	-0.325
Mof_O 	O 	0.49595	0.307	0.10785	-0.32
Mof_O 	O 	0.76796	0.57838	0.75908	-0.494
Mof_O 	O 	0.15474	0.99468	0.27922	-0.35
Mof_O 	O 	0.50532	0.34526	0.22078	-0.35
Mof_O 	O 	0.71502	0.25	0.96502	-0.572
Mof_O 	O 	0.45233	0.89187	0.24974	-0.325
Mof_O 	O 	0.29777	0.66907	0.14944	-0.475
Mof_O 	O 	0.85167	0.70223	0.8713	-0.475
Mof_O 	O 	0.80085	0.60785	0.6119	-0.32
Mof_O 	O 	0.78454	0.12448	0.77922	-0.35
Mof_O 	O 	0.3713	0.85167	0.20223	-0.475
Mof_O 	O 	0.72078	0.21546	0.37552	-0.35
Mof_O 	O 	0.84526	0.00532	0.72078	-0.35
Mof_O 	O 	0.26796	0.75908	0.57838	-0.494
Mof_O 	O 	0.79777	0.64833	0.6287	-0.475
Mof_O 	O 	0.6807	0.99112	0.25908	-0.494
Mof_O 	O 	0.24974	0.39187	0.45233	-0.325
Mof_O 	O 	0.94297	0.20356	0.87723	-0.475
Mof_O 	O 	0.43426	0.76059	0.05703	-0.475
Mof_O 	O 	0.50405	0.693	0.89215	-0.32
Mof_O 	O 	0.99595	0.10785	0.307	-0.32
Mof_O 	O 	0.89187	0.14213	0.43954	-0.325
Mof_O 	O 	0.14944	0.16907	0.29777	-0.475
Mof_O 	O 	0.06046	0.95233	0.20259	-0.325
Mof_O 	O 	0.18958	0.1807	0.42162	-0.494
Mof_O 	O 	0.307	0.60785	0.99595	-0.32
Mof_O 	O 	0.39215	0.50405	0.193	-0.32
Mof_O 	O 	0.35167	0.8713	0.70223	-0.475
Mof_O 	O 	0.14944	0.98037	0.35167	-0.475
Mof_O 	O 	0.74092	0.50888	0.3193	-0.494
Mof_O 	O 	0.65474	0.27922	0.99468	-0.35
Mof_O 	O 	0.75026	0.60813	0.54767	-0.325
Mof_O 	O 	0.71546	0.49468	0.33994	-0.35
Mof_O 	O 	0.35056	0.70223	0.83093	-0.475
Mof_O 	O 	0.37723	0.43426	0.17367	-0.475
Mof_O 	O 	0.12448	0.84526	0.33994	-0.35
Mof_O 	O 	0.83093	0.6287	0.98037	-0.475
Mof_O 	O 	0.66907	0.01963	0.3713	-0.475
Mof_O 	O 	0.25908	0.49112	0.6807	-0.494
Mof_O 	O 	0.46502	0.71502	0.75	-0.572
Mof_O 	O 	0.39187	0.95233	0.74974	-0.325
Mof_O 	O 	0.49112	0.1807	0.75908	-0.494
Mof_O 	O 	0.8713	0.66907	0.51963	-0.475
Mof_O 	O 	0.64944	0.29777	0.16907	-0.475
Mof_O 	O 	0.69915	0.31105	0.807	-0.32
Mof_O 	O 	0.00405	0.1119	0.81105	-0.32
Mof_O 	O 	0.79644	0.17367	0.73941	-0.475
Mof_O 	O 	0.1807	0.25908	0.99112	-0.494
Mof_O 	O 	0.25026	0.54767	0.60813	-0.325
Mof_O 	O 	0.14213	0.20259	0.25026	-0.325
Mof_O 	O 	0.6807	0.68958	0.92162	-0.494
Mof_O 	O 	0.48037	0.64944	0.85167	-0.475
Mof_O 	O 	0.33994	0.99468	0.71546	-0.35
Mof_O 	O 	0.32633	0.70356	0.76059	-0.475
Mof_O 	O 	0.10785	0.30085	0.1119	-0.32
Mof_O 	O 	0.74092	0.23204	0.92162	-0.494
Mof_O 	O 	0.12277	0.82633	0.56574	-0.475
Mof_O 	O 	0.25026	0.70259	0.14213	-0.325
Mof_O 	O 	0.64833	0.1287	0.29777	-0.475
Mof_O 	O 	0.50405	0.81105	0.1119	-0.32
Mof_O 	O 	0.27922	0.49468	0.15474	-0.35
Mof_O 	O 	0.25908	0.76796	0.07838	-0.494
Mof_O 	O 	0.83093	0.20223	0.35056	-0.475
Mof_O 	O 	0.16907	0.3713	0.01963	-0.475
Mof_O 	O 	0.27922	0.78454	0.62448	-0.35
Mof_O 	O 	0.07838	0.26796	0.25908	-0.494
Mof_O 	O 	0.807	0.99595	0.60785	-0.32
Mof_O 	O 	0.29644	0.73941	0.17367	-0.475
Mof_O 	O 	0.44297	0.56574	0.73941	-0.475
Mof_O 	O 	0.66006	0.00532	0.28454	-0.35
Mof_O 	O 	0.68895	0.99595	0.3881	-0.32
Mof_O 	O 	0.693	0.30085	0.18895	-0.32
Mof_O 	O 	0.95233	0.24974	0.89187	-0.325
Mof_O 	O 	0.23204	0.81042	0.49112	-0.494
Mof_O 	O 	0.62448	0.33994	0.84526	-0.35
Mof_O 	O 	0.50888	0.68958	0.76796	-0.494
Mof_O 	O 	0.74974	0.29741	0.85787	-0.325
Mof_O 	O 	0.85056	0.83093	0.70223	-0.475
Mof_O 	O 	0.28498	0.75	0.03498	-0.572
Mof_O 	O 	0.79777	0.14944	0.66907	-0.475
Mof_O 	O 	0.75	0.03498	0.28498	-0.572
Mof_O 	O 	0.45233	0.56046	0.70259	-0.325
Mof_O 	O 	0.77922	0.15474	0.49468	-0.35
Mof_O 	O 	0.14833	0.85056	0.51963	-0.475
Mof_O 	O 	0.79741	0.54767	0.93954	-0.325
Mof_O 	O 	0.87552	0.15474	0.66006	-0.35
Mof_O 	O 	0.14213	0.93954	0.39187	-0.325
Mof_O 	O 	0.66006	0.65474	0.87552	-0.35
Mof_O 	O 	0.1807	0.92162	0.68958	-0.494
Mof_O 	O 	0.24974	0.85787	0.29741	-0.325
Mof_O 	O 	0.70259	0.64213	0.75026	-0.325
Mof_O 	O 	0.35167	0.48037	0.14944	-0.475
Mof_O 	O 	0.10813	0.85787	0.56046	-0.325
Mof_O 	O 	0.60785	0.49595	0.807	-0.32
Mof_O 	O 	0.99595	0.8881	0.18895	-0.32
Mof_O 	O 	0.62277	0.05703	0.29644	-0.475
Mof_O 	O 	0.67367	0.29644	0.23941	-0.475
Mof_O 	O 	0.48037	0.83093	0.1287	-0.475
Mof_O 	O 	0.3193	0.31042	0.07838	-0.494
Mof_O 	O 	0.85787	0.79741	0.74974	-0.325
Mof_O 	O 	0.23941	0.44297	0.06574	-0.475
Mof_O 	O 	0.1119	0.80085	0.10785	-0.32
Mof_O 	O 	0.32633	0.62277	0.06574	-0.475
Mof_O 	O 	0.8193	0.74092	0.00888	-0.494
Mof_O 	O 	0.8193	0.07838	0.31042	-0.494
Mof_O 	O 	0.51963	0.35056	0.14833	-0.475
Mof_O 	O 	0.35787	0.74974	0.79741	-0.325
Mof_O 	O 	0.89187	0.74974	0.95233	-0.325
Mof_O 	O 	0.3193	0.00888	0.74092	-0.494
Mof_O 	O 	0.54767	0.10813	0.75026	-0.325
Mof_O 	O 	0.18895	0.80085	0.693	-0.32
Mof_O 	O 	0.49468	0.65474	0.77922	-0.35
Mof_O 	O 	0.39187	0.43954	0.14213	-0.325
Mof_O 	O 	0.81105	0.19915	0.307	-0.32
Mof_O 	O 	0.57838	0.25908	0.26796	-0.494
Mof_O 	O 	0.6119	0.50405	0.31105	-0.32
Mof_O 	O 	0.06574	0.94297	0.23941	-0.475
Mof_O 	O 	0.25	0.46502	0.21502	-0.572
Mof_O 	O 	0.68958	0.26796	0.00888	-0.494
Mof_O 	O 	0.1287	0.79777	0.14833	-0.475
Mof_O 	O 	0.60813	0.04767	0.25026	-0.325
Mof_O 	O 	0.53498	0.28498	0.25	-0.572
Mof_O 	O 	0.37552	0.71546	0.72078	-0.35
Mof_O 	O 	0.16907	0.79777	0.64944	-0.475
Mof_O 	O 	0.18958	0.00888	0.26796	-0.494
Mof_O 	O 	0.85167	0.14944	0.48037	-0.475
Mof_O 	O 	0.00888	0.24092	0.8193	-0.494
Mof_O 	O 	0.98037	0.85167	0.64944	-0.475
Mof_O 	O 	0.70223	0.33093	0.85056	-0.475
Mof_O 	O 	0.95233	0.70259	0.56046	-0.325
Mof_O 	O 	0.92162	0.73204	0.74092	-0.494
Mof_O 	O 	0.03498	0.78498	0.25	-0.572
Mof_O 	O 	0.73204	0.49112	0.81042	-0.494
_end
