data_functionalizedCrystal
_audit_creation_method	'EQeq! by Chris Wilmer'
_symmetry_space_group_name_H-M	'P1'
_symmetry_Int_Tables_number	1
_symmetry_cell_setting	triclinic
loop_
_symmetry_equiv_pos_as_xyz
  x,y,z
_cell_length_a	14.3759
_cell_length_b	16.9055
_cell_length_c	21.6345
_cell_angle_alpha	90
_cell_angle_beta	90
_cell_angle_gamma	90
loop_
_atom_site_label
_atom_site_type_symbol
_atom_site_fract_x
_atom_site_fract_y
_atom_site_fract_z
_atom_site_charge
Mof_Mn	Mn	0.86564	0.26698	0.92976	0.78
Mof_Mn	Mn	0.02926	0.26813	0.59713	0.78
Mof_N 	N 	0.8246	0.24525	0.83291	-0.217
Mof_C 	C 	0.80738	0.24739	0.78137	0.172
Mof_N 	N 	0.88957	0.25275	0.63893	-0.216
Mof_C 	C 	0.84101	0.25229	0.68033	0.171
Mof_N 	N 	0.77825	0.25231	0.72431	-0.174
Mof_N 	N 	0.00937	0.28571	0.8903	-0.209
Mof_C 	C 	0.05678	0.29346	0.84729	0.163
Mof_N 	N 	0.08225	0.2825	0.69329	-0.214
Mof_C 	C 	0.09436	0.2905	0.74561	0.166
Mof_N 	N 	0.11792	0.30235	0.80356	-0.173
Mof_N 	N 	0.91182	0.28122	0.02794	-0.209
Mof_C 	C 	0.98263	0.28141	0.05249	0.172
Mof_N 	N 	0.21323	0.24893	0.05106	-0.209
Mof_C 	C 	0.13827	0.26413	0.06499	0.172
Mof_N 	N 	0.05678	0.28472	0.08638	-0.176
Mof_N 	N 	0.84272	0.39457	0.92332	-0.218
Mof_C 	C 	0.83611	0.46166	0.91466	0.176
Mof_N 	N 	0.93347	0.64142	0.89921	-0.215
Mof_C 	C 	0.88283	0.58903	0.90223	0.171
Mof_N 	N 	0.81725	0.53544	0.90398	-0.178
Mof_N 	N 	0.16888	0.28722	0.55574	-0.214
Mof_C 	C 	0.24724	0.29819	0.5507	0.176
Mof_N 	N 	0.45769	0.25093	0.49248	-0.213
Mof_C 	C 	0.39621	0.27885	0.51765	0.178
Mof_N 	N 	0.33529	0.3175	0.55019	-0.178
Mof_N 	N 	0.9923	0.89773	0.91553	-0.209
Mof_C 	C 	0.96242	0.95097	0.94299	0.165
Mof_N 	N 	0.89219	0.14049	0.94461	-0.217
Mof_C 	C 	0.91087	0.07662	0.95801	0.173
Mof_N 	N 	0.93048	0.00589	0.97957	-0.174
Mof_Mn	Mn	0.63436	0.73302	0.42976	0.779
Mof_Mn	Mn	0.47074	0.73187	0.09713	0.78
Mof_N 	N 	0.6754	0.75475	0.33291	-0.217
Mof_C 	C 	0.69262	0.75261	0.28137	0.172
Mof_N 	N 	0.61043	0.74725	0.13893	-0.216
Mof_C 	C 	0.65899	0.74771	0.18033	0.171
Mof_N 	N 	0.72175	0.74769	0.22431	-0.174
Mof_N 	N 	0.49063	0.71429	0.3903	-0.21
Mof_C 	C 	0.44322	0.70654	0.34729	0.163
Mof_N 	N 	0.41775	0.7175	0.19329	-0.214
Mof_C 	C 	0.40564	0.7095	0.24561	0.166
Mof_N 	N 	0.38208	0.69765	0.30356	-0.173
Mof_N 	N 	0.58818	0.71878	0.52794	-0.209
Mof_C 	C 	0.51737	0.71859	0.55249	0.17
Mof_N 	N 	0.28677	0.75107	0.55106	-0.209
Mof_C 	C 	0.36173	0.73587	0.56499	0.172
Mof_N 	N 	0.44322	0.71528	0.58638	-0.175
Mof_N 	N 	0.65728	0.60543	0.42332	-0.218
Mof_C 	C 	0.66389	0.53834	0.41466	0.176
Mof_N 	N 	0.56653	0.35858	0.39921	-0.215
Mof_C 	C 	0.61717	0.41097	0.40223	0.171
Mof_N 	N 	0.68275	0.46456	0.40398	-0.178
Mof_N 	N 	0.33112	0.71278	0.05574	-0.214
Mof_C 	C 	0.25276	0.70181	0.0507	0.176
Mof_N 	N 	0.04231	0.74907	0.99248	-0.212
Mof_C 	C 	0.10379	0.72115	0.01765	0.177
Mof_N 	N 	0.16471	0.6825	0.05019	-0.178
Mof_N 	N 	0.5077	0.10227	0.41553	-0.209
Mof_C 	C 	0.53758	0.04903	0.44299	0.165
Mof_N 	N 	0.60781	0.85951	0.44461	-0.217
Mof_C 	C 	0.58913	0.92338	0.45801	0.173
Mof_N 	N 	0.56952	0.99411	0.47957	-0.174
Mof_Mn	Mn	0.13436	0.76698	0.57024	0.779
Mof_Mn	Mn	0.97074	0.76813	0.90287	0.779
Mof_N 	N 	0.1754	0.74525	0.66709	-0.217
Mof_C 	C 	0.19262	0.74739	0.71863	0.172
Mof_N 	N 	0.11043	0.75275	0.86107	-0.216
Mof_C 	C 	0.15899	0.75229	0.81967	0.171
Mof_N 	N 	0.22175	0.75231	0.77569	-0.174
Mof_N 	N 	0.99063	0.78571	0.6097	-0.21
Mof_C 	C 	0.94322	0.79346	0.65271	0.163
Mof_N 	N 	0.91775	0.7825	0.80671	-0.214
Mof_C 	C 	0.90564	0.7905	0.75439	0.166
Mof_N 	N 	0.88208	0.80235	0.69644	-0.173
Mof_N 	N 	0.08818	0.78122	0.47206	-0.209
Mof_C 	C 	0.01737	0.78141	0.44751	0.17
Mof_N 	N 	0.78677	0.74893	0.44894	-0.209
Mof_C 	C 	0.86173	0.76413	0.43501	0.172
Mof_N 	N 	0.94322	0.78472	0.41362	-0.175
Mof_N 	N 	0.15728	0.89457	0.57668	-0.218
Mof_C 	C 	0.16389	0.96166	0.58534	0.176
Mof_N 	N 	0.06653	0.14142	0.60079	-0.215
Mof_C 	C 	0.11717	0.08903	0.59777	0.171
Mof_N 	N 	0.18275	0.03544	0.59602	-0.178
Mof_N 	N 	0.83112	0.78722	0.94426	-0.214
Mof_C 	C 	0.75276	0.79819	0.9493	0.176
Mof_N 	N 	0.54231	0.75093	0.00752	-0.213
Mof_C 	C 	0.60379	0.77885	0.98235	0.178
Mof_N 	N 	0.66471	0.8175	0.94981	-0.178
Mof_N 	N 	0.0077	0.39773	0.58447	-0.209
Mof_C 	C 	0.03758	0.45097	0.55701	0.166
Mof_N 	N 	0.10781	0.64049	0.55539	-0.217
Mof_C 	C 	0.08913	0.57662	0.54199	0.173
Mof_N 	N 	0.06952	0.50589	0.52043	-0.174
Mof_Mn	Mn	0.36564	0.23302	0.07024	0.779
Mof_Mn	Mn	0.52926	0.23187	0.40287	0.78
Mof_N 	N 	0.3246	0.25475	0.16709	-0.217
Mof_C 	C 	0.30738	0.25261	0.21863	0.172
Mof_N 	N 	0.38957	0.24725	0.36107	-0.216
Mof_C 	C 	0.34101	0.24771	0.31967	0.171
Mof_N 	N 	0.27825	0.24769	0.27569	-0.175
Mof_N 	N 	0.50937	0.21429	0.1097	-0.21
Mof_C 	C 	0.55678	0.20654	0.15271	0.163
Mof_N 	N 	0.58225	0.2175	0.30671	-0.214
Mof_C 	C 	0.59436	0.2095	0.25439	0.166
Mof_N 	N 	0.61792	0.19765	0.19644	-0.173
Mof_N 	N 	0.41182	0.21878	0.97206	-0.209
Mof_C 	C 	0.48263	0.21859	0.94751	0.17
Mof_N 	N 	0.71323	0.25107	0.94894	-0.209
Mof_C 	C 	0.63827	0.23587	0.93501	0.172
Mof_N 	N 	0.55678	0.21528	0.91362	-0.175
Mof_N 	N 	0.34272	0.10543	0.07668	-0.218
Mof_C 	C 	0.33611	0.03834	0.08534	0.175
Mof_N 	N 	0.43347	0.85858	0.10079	-0.215
Mof_C 	C 	0.38283	0.91097	0.09777	0.171
Mof_N 	N 	0.31725	0.96456	0.09602	-0.177
Mof_N 	N 	0.66888	0.21278	0.44426	-0.214
Mof_C 	C 	0.74724	0.20181	0.4493	0.176
Mof_N 	N 	0.95769	0.24907	0.50752	-0.213
Mof_C 	C 	0.89621	0.22115	0.48235	0.179
Mof_N 	N 	0.83529	0.1825	0.44981	-0.178
Mof_N 	N 	0.4923	0.60227	0.08447	-0.209
Mof_C 	C 	0.46242	0.54903	0.05701	0.166
Mof_N 	N 	0.39219	0.35951	0.05539	-0.217
Mof_C 	C 	0.41087	0.42338	0.04199	0.173
Mof_N 	N 	0.43048	0.49411	0.02043	-0.174
_end
