data_functionalizedCrystal
_audit_creation_method	'EQeq! by Chris Wilmer'
_symmetry_space_group_name_H-M	'P1'
_symmetry_Int_Tables_number	1
_symmetry_cell_setting	triclinic
loop_
_symmetry_equiv_pos_as_xyz
  x,y,z
_cell_length_a	23.716
_cell_length_b	23.716
_cell_length_c	13.447
_cell_angle_alpha	90
_cell_angle_beta	90
_cell_angle_gamma	120
loop_
_atom_site_label
_atom_site_type_symbol
_atom_site_fract_x
_atom_site_fract_y
_atom_site_fract_z
_atom_site_charge
Mof_Ga	Ga	0.36008	0.09296	0.12055	3.765
Mof_Cr	Cr	0.35001	0.2427	0.91476	2.028
Mof_P 	P 	0.41877	0.23605	0.11916	0.746
Mof_P 	P 	0.32672	0.98706	0.27788	0.972
Mof_O 	O 	0.36699	0.21028	0.0371	-0.826
Mof_O 	O 	0.42178	0.17516	0.1564	-1.042
Mof_O 	O 	0.3911	0.25907	0.2061	-1.081
Mof_O 	O 	0.48401	0.289	0.0902	-0.329
Mof_O 	O 	0.37497	0.0445	0.2122	-1.127
Mof_O 	O 	0.36726	0.95901	0.3261	-1.078
Mof_O 	O 	0.27166	0.9351	0.2184	-0.855
Mof_O 	O 	0.30031	0.01093	0.3609	-1
Mof_N 	N 	0.4444	0.2753	0.8692	-0.42
Mof_N 	N 	0.3325	0.1571	0.8509	-0.342
Mof_N 	N 	0.2513	0.1888	0.9405	-0.436
Mof_C 	C 	0.4471	0.218	0.8299	-0.063
Mof_C 	C 	0.3847	0.1719	0.7806	-0.045
Mof_C 	C 	0.265	0.1224	0.8166	-0.027
Mof_C 	C 	0.2241	0.1213	0.9026	-0.085
Mof_H 	H 	0.477	0.2957	0.9252	0.105
Mof_H 	H 	0.4571	0.3032	0.8211	0.145
Mof_H 	H 	0.3303	0.1236	0.8968	0.091
Mof_H 	H 	0.2287	0.2008	0.9118	0.181
Mof_H 	H 	0.247	0.1936	0.0177	0.033
Mof_H 	H 	0.449	0.1915	0.8892	0.012
Mof_H 	H 	0.4872	0.2364	0.7995	0.033
Mof_H 	H 	0.3819	0.1307	0.7519	0.03
Mof_H 	H 	0.3836	0.1969	0.7252	0.023
Mof_H 	H 	0.2536	0.0783	0.8066	-0.004
Mof_H 	H 	0.2614	0.1476	0.7596	0.015
Mof_H 	H 	0.1802	0.1055	0.878	0.059
Mof_H 	H 	0.2298	0.1012	0.954	0.053
Mof_Ga	Ga	0.2427	0.89269	0.08524	3.066
Mof_Ga	Ga	0.02675	0.42629	0.45388	3.834
Mof_Cr	Cr	0.01668	0.57603	0.24809	2.028
Mof_P 	P 	0.08544	0.56938	0.45249	0.747
Mof_P 	P 	0.99339	0.32039	0.61121	0.942
Mof_O 	O 	0.03366	0.54361	0.37043	-0.812
Mof_O 	O 	0.08845	0.50849	0.48973	-1.051
Mof_O 	O 	0.05777	0.5924	0.53943	-1.069
Mof_O 	O 	0.15068	0.62233	0.42353	-0.322
Mof_O 	O 	0.04164	0.37783	0.54553	-1.122
Mof_O 	O 	0.03393	0.29234	0.65943	-1.065
Mof_O 	O 	0.93833	0.26843	0.55173	-0.859
Mof_O 	O 	0.96698	0.34426	0.69423	-0.986
Mof_N 	N 	0.11107	0.60863	0.20253	-0.419
Mof_N 	N 	0.99917	0.49043	0.18423	-0.349
Mof_N 	N 	0.91797	0.52213	0.27383	-0.449
Mof_C 	C 	0.11377	0.55133	0.16323	-0.068
Mof_C 	C 	0.05137	0.50523	0.11393	-0.033
Mof_C 	C 	0.93167	0.45573	0.14993	-0.03
Mof_C 	C 	0.89077	0.45463	0.23593	-0.078
Mof_H 	H 	0.14367	0.62903	0.25853	0.1
Mof_H 	H 	0.12377	0.63653	0.15443	0.143
Mof_H 	H 	0.99697	0.45693	0.23013	0.086
Mof_H 	H 	0.89537	0.53413	0.24513	0.18
Mof_H 	H 	0.91367	0.52693	0.35103	0.045
Mof_H 	H 	0.11567	0.52483	0.22253	0.011
Mof_H 	H 	0.15387	0.56973	0.13283	0.031
Mof_H 	H 	0.04857	0.46403	0.08523	0.027
Mof_H 	H 	0.05027	0.53023	0.05853	0.015
Mof_H 	H 	0.92027	0.41163	0.13993	-0.003
Mof_H 	H 	0.92807	0.48093	0.09293	0.01
Mof_H 	H 	0.84687	0.43883	0.21133	0.054
Mof_H 	H 	0.89647	0.43453	0.28733	0.045
Mof_Ga	Ga	0.90937	0.22602	0.41857	3.094
Mof_Ga	Ga	0.69341	0.75963	0.78722	3.804
Mof_Cr	Cr	0.68334	0.90937	0.58143	2.011
Mof_P 	P 	0.7521	0.90272	0.78583	0.748
Mof_P 	P 	0.66005	0.65373	0.94455	0.969
Mof_O 	O 	0.70032	0.87695	0.70377	-0.816
Mof_O 	O 	0.75511	0.84183	0.82307	-1.045
Mof_O 	O 	0.72443	0.92574	0.87277	-1.081
Mof_O 	O 	0.81734	0.95567	0.75687	-0.317
Mof_O 	O 	0.7083	0.71117	0.87887	-1.126
Mof_O 	O 	0.70059	0.62568	0.99277	-1.059
Mof_O 	O 	0.60499	0.60177	0.88507	-0.858
Mof_O 	O 	0.63364	0.6776	0.02757	-0.999
Mof_N 	N 	0.77773	0.94197	0.53587	-0.42
Mof_N 	N 	0.66583	0.82377	0.51757	-0.339
Mof_N 	N 	0.58463	0.85547	0.60717	-0.446
Mof_C 	C 	0.78043	0.88467	0.49657	-0.061
Mof_C 	C 	0.71803	0.83857	0.44727	-0.047
Mof_C 	C 	0.59833	0.78907	0.48327	-0.033
Mof_C 	C 	0.55743	0.78797	0.56927	-0.076
Mof_H 	H 	0.81033	0.96237	0.59187	0.103
Mof_H 	H 	0.79043	0.96987	0.48777	0.148
Mof_H 	H 	0.66363	0.79027	0.56347	0.089
Mof_H 	H 	0.56203	0.86747	0.57847	0.181
Mof_H 	H 	0.58033	0.86027	0.68437	0.046
Mof_H 	H 	0.78233	0.85817	0.55587	0.009
Mof_H 	H 	0.82053	0.90307	0.46617	0.032
Mof_H 	H 	0.71523	0.79737	0.41857	0.031
Mof_H 	H 	0.71693	0.86357	0.39187	0.024
Mof_H 	H 	0.58693	0.74497	0.47327	0.001
Mof_H 	H 	0.59473	0.81427	0.42627	0.017
Mof_H 	H 	0.51353	0.77217	0.54467	0.055
Mof_H 	H 	0.56313	0.76787	0.62067	0.045
Mof_Ga	Ga	0.57603	0.55936	0.75191	3.099
Mof_Ga	Ga	0.90704	0.26712	0.12055	3.767
Mof_Cr	Cr	0.7573	0.10731	0.91476	2.023
Mof_P 	P 	0.76395	0.18272	0.11916	0.746
Mof_P 	P 	0.01294	0.33966	0.27788	0.972
Mof_O 	O 	0.78972	0.15671	0.0371	-0.824
Mof_O 	O 	0.82484	0.24662	0.1564	-1.042
Mof_O 	O 	0.74093	0.13203	0.2061	-1.081
Mof_O 	O 	0.711	0.19501	0.0902	-0.329
Mof_O 	O 	0.9555	0.33047	0.2122	-1.128
Mof_O 	O 	0.04099	0.40825	0.3261	-1.078
Mof_O 	O 	0.0649	0.33656	0.2184	-0.855
Mof_O 	O 	0.98907	0.28938	0.3609	-1
Mof_N 	N 	0.7247	0.1691	0.8692	-0.419
Mof_N 	N 	0.8429	0.1754	0.8509	-0.341
Mof_N 	N 	0.8112	0.0625	0.9405	-0.437
Mof_C 	C 	0.782	0.2291	0.8299	-0.063
Mof_C 	C 	0.8281	0.2128	0.7806	-0.045
Mof_C 	C 	0.8776	0.1426	0.8166	-0.028
Mof_C 	C 	0.8787	0.1028	0.9026	-0.083
Mof_H 	H 	0.7043	0.1813	0.9252	0.104
Mof_H 	H 	0.6968	0.1539	0.8211	0.145
Mof_H 	H 	0.8764	0.2067	0.8968	0.09
Mof_H 	H 	0.7992	0.0279	0.9118	0.176
Mof_H 	H 	0.8064	0.0534	0.0177	0.034
Mof_H 	H 	0.8085	0.2575	0.8892	0.012
Mof_H 	H 	0.7636	0.2508	0.7995	0.033
Mof_H 	H 	0.8693	0.2512	0.7519	0.03
Mof_H 	H 	0.8031	0.1867	0.7252	0.023
Mof_H 	H 	0.9217	0.1753	0.8066	-0.004
Mof_H 	H 	0.8524	0.1138	0.7596	0.014
Mof_H 	H 	0.8945	0.0747	0.878	0.055
Mof_H 	H 	0.8988	0.1286	0.954	0.05
Mof_Ga	Ga	0.10731	0.35001	0.08524	3.069
Mof_Ga	Ga	0.57371	0.60045	0.45388	3.802
Mof_Cr	Cr	0.42397	0.44064	0.24809	2.008
Mof_P 	P 	0.43062	0.51605	0.45249	0.746
Mof_P 	P 	0.67961	0.67299	0.61121	0.958
Mof_O 	O 	0.45639	0.49004	0.37043	-0.814
Mof_O 	O 	0.49151	0.57995	0.48973	-1.046
Mof_O 	O 	0.4076	0.46536	0.53943	-1.081
Mof_O 	O 	0.37767	0.52834	0.42353	-0.322
Mof_O 	O 	0.62217	0.6638	0.54553	-1.126
Mof_O 	O 	0.70766	0.74158	0.65943	-1.074
Mof_O 	O 	0.73157	0.66989	0.55173	-0.859
Mof_O 	O 	0.65574	0.62271	0.69423	-0.99
Mof_N 	N 	0.39137	0.50243	0.20253	-0.418
Mof_N 	N 	0.50957	0.50873	0.18423	-0.341
Mof_N 	N 	0.47787	0.39583	0.27383	-0.445
Mof_C 	C 	0.44867	0.56243	0.16323	-0.064
Mof_C 	C 	0.49477	0.54613	0.11393	-0.042
Mof_C 	C 	0.54427	0.47593	0.14993	-0.03
Mof_C 	C 	0.54537	0.43613	0.23593	-0.078
Mof_H 	H 	0.37097	0.51463	0.25853	0.1
Mof_H 	H 	0.36347	0.48723	0.15443	0.143
Mof_H 	H 	0.54307	0.54003	0.23013	0.089
Mof_H 	H 	0.46587	0.36123	0.24513	0.18
Mof_H 	H 	0.47307	0.38673	0.35103	0.046
Mof_H 	H 	0.47517	0.59083	0.22253	0.01
Mof_H 	H 	0.43027	0.58413	0.13283	0.029
Mof_H 	H 	0.53597	0.58453	0.08523	0.027
Mof_H 	H 	0.46977	0.52003	0.05853	0.016
Mof_H 	H 	0.58837	0.50863	0.13993	-0.003
Mof_H 	H 	0.51907	0.44713	0.09293	0.011
Mof_H 	H 	0.56117	0.40803	0.21133	0.054
Mof_H 	H 	0.56547	0.46193	0.28733	0.046
Mof_Ga	Ga	0.77398	0.68334	0.41857	3.096
Mof_Ga	Ga	0.24037	0.93379	0.78722	3.808
Mof_Cr	Cr	0.09063	0.77398	0.58143	2.011
Mof_P 	P 	0.09728	0.84939	0.78583	0.748
Mof_P 	P 	0.34627	0.00633	0.94455	0.95
Mof_O 	O 	0.12305	0.82338	0.70377	-0.816
Mof_O 	O 	0.15817	0.91329	0.82307	-1.043
Mof_O 	O 	0.07426	0.7987	0.87277	-1.08
Mof_O 	O 	0.04433	0.86168	0.75687	-0.313
Mof_O 	O 	0.28883	0.99714	0.87887	-1.112
Mof_O 	O 	0.37432	0.07492	0.99277	-1.058
Mof_O 	O 	0.39823	0.00323	0.88507	-0.857
Mof_O 	O 	0.3224	0.95605	0.02757	-0.99
Mof_N 	N 	0.05803	0.83577	0.53587	-0.42
Mof_N 	N 	0.17623	0.84207	0.51757	-0.34
Mof_N 	N 	0.14453	0.72917	0.60717	-0.446
Mof_C 	C 	0.11533	0.89577	0.49657	-0.063
Mof_C 	C 	0.16143	0.87947	0.44727	-0.046
Mof_C 	C 	0.21093	0.80927	0.48327	-0.032
Mof_C 	C 	0.21203	0.76947	0.56927	-0.076
Mof_H 	H 	0.03763	0.84797	0.59187	0.104
Mof_H 	H 	0.03013	0.82057	0.48777	0.149
Mof_H 	H 	0.20973	0.87337	0.56347	0.09
Mof_H 	H 	0.13253	0.69457	0.57847	0.181
Mof_H 	H 	0.13973	0.72007	0.68437	0.045
Mof_H 	H 	0.14183	0.92417	0.55587	0.012
Mof_H 	H 	0.09693	0.91747	0.46617	0.036
Mof_H 	H 	0.20263	0.91787	0.41857	0.034
Mof_H 	H 	0.13643	0.85337	0.39187	0.024
Mof_H 	H 	0.25503	0.84197	0.47327	0
Mof_H 	H 	0.18573	0.78047	0.42627	0.017
Mof_H 	H 	0.22783	0.74137	0.54467	0.055
Mof_H 	H 	0.23213	0.79527	0.62067	0.045
Mof_Ga	Ga	0.44064	0.01668	0.75191	3.066
Mof_Ga	Ga	0.73288	0.63992	0.12055	3.765
Mof_Cr	Cr	0.89269	0.64999	0.91476	2.025
Mof_P 	P 	0.81728	0.58123	0.11916	0.746
Mof_P 	P 	0.66034	0.67328	0.27788	0.956
Mof_O 	O 	0.84329	0.63301	0.0371	-0.826
Mof_O 	O 	0.75338	0.57822	0.1564	-1.042
Mof_O 	O 	0.86797	0.6089	0.2061	-1.081
Mof_O 	O 	0.80499	0.51599	0.0902	-0.329
Mof_O 	O 	0.66953	0.62503	0.2122	-1.12
Mof_O 	O 	0.59175	0.63274	0.3261	-1.073
Mof_O 	O 	0.66344	0.72834	0.2184	-0.855
Mof_O 	O 	0.71062	0.69969	0.3609	-0.989
Mof_N 	N 	0.8309	0.5556	0.8692	-0.42
Mof_N 	N 	0.8246	0.6675	0.8509	-0.342
Mof_N 	N 	0.9375	0.7487	0.9405	-0.435
Mof_C 	C 	0.7709	0.5529	0.8299	-0.063
Mof_C 	C 	0.7872	0.6153	0.7806	-0.045
Mof_C 	C 	0.8574	0.735	0.8166	-0.027
Mof_C 	C 	0.8972	0.7759	0.9026	-0.086
Mof_H 	H 	0.8187	0.523	0.9252	0.105
Mof_H 	H 	0.8461	0.5429	0.8211	0.145
Mof_H 	H 	0.7933	0.6697	0.8968	0.092
Mof_H 	H 	0.9721	0.7713	0.9118	0.176
Mof_H 	H 	0.9466	0.753	0.0177	0.032
Mof_H 	H 	0.7425	0.551	0.8892	0.012
Mof_H 	H 	0.7492	0.5128	0.7995	0.033
Mof_H 	H 	0.7488	0.6181	0.7519	0.031
Mof_H 	H 	0.8133	0.6164	0.7252	0.023
Mof_H 	H 	0.8247	0.7464	0.8066	-0.001
Mof_H 	H 	0.8862	0.7386	0.7596	0.014
Mof_H 	H 	0.9253	0.8198	0.878	0.059
Mof_H 	H 	0.8714	0.7702	0.954	0.054
Mof_Ga	Ga	0.64999	0.7573	0.08524	3.069
Mof_Ga	Ga	0.39955	0.97325	0.45388	3.835
Mof_Cr	Cr	0.55936	0.98332	0.24809	2.029
Mof_P 	P 	0.48395	0.91456	0.45249	0.747
Mof_P 	P 	0.32701	0.00661	0.61121	0.942
Mof_O 	O 	0.50996	0.96634	0.37043	-0.813
Mof_O 	O 	0.42005	0.91155	0.48973	-1.051
Mof_O 	O 	0.53464	0.94223	0.53943	-1.07
Mof_O 	O 	0.47166	0.84932	0.42353	-0.322
Mof_O 	O 	0.3362	0.95836	0.54553	-1.122
Mof_O 	O 	0.25842	0.96607	0.65943	-1.064
Mof_O 	O 	0.33011	0.06167	0.55173	-0.859
Mof_O 	O 	0.37729	0.03302	0.69423	-0.987
Mof_N 	N 	0.49757	0.88893	0.20253	-0.419
Mof_N 	N 	0.49127	0.00083	0.18423	-0.349
Mof_N 	N 	0.60417	0.08203	0.27383	-0.449
Mof_C 	C 	0.43757	0.88623	0.16323	-0.068
Mof_C 	C 	0.45387	0.94863	0.11393	-0.033
Mof_C 	C 	0.52407	0.06833	0.14993	-0.03
Mof_C 	C 	0.56387	0.10923	0.23593	-0.078
Mof_H 	H 	0.48537	0.85633	0.25853	0.1
Mof_H 	H 	0.51277	0.87623	0.15443	0.143
Mof_H 	H 	0.45997	0.00303	0.23013	0.086
Mof_H 	H 	0.63877	0.10463	0.24513	0.18
Mof_H 	H 	0.61327	0.08633	0.35103	0.045
Mof_H 	H 	0.40917	0.88433	0.22253	0.011
Mof_H 	H 	0.41587	0.84613	0.13283	0.031
Mof_H 	H 	0.41547	0.95143	0.08523	0.027
Mof_H 	H 	0.47997	0.94973	0.05853	0.015
Mof_H 	H 	0.49137	0.07973	0.13993	-0.003
Mof_H 	H 	0.55287	0.07193	0.09293	0.01
Mof_H 	H 	0.59197	0.15313	0.21133	0.054
Mof_H 	H 	0.53807	0.10353	0.28733	0.045
Mof_Ga	Ga	0.31666	0.09063	0.41857	3.095
Mof_Ga	Ga	0.06621	0.30659	0.78722	3.808
Mof_Cr	Cr	0.22602	0.31666	0.58143	2.009
Mof_P 	P 	0.15061	0.2479	0.78583	0.747
Mof_P 	P 	0.99367	0.33995	0.94455	0.949
Mof_O 	O 	0.17662	0.29968	0.70377	-0.816
Mof_O 	O 	0.08671	0.24489	0.82307	-1.044
Mof_O 	O 	0.2013	0.27557	0.87277	-1.084
Mof_O 	O 	0.13832	0.18266	0.75687	-0.32
Mof_O 	O 	0.00286	0.2917	0.87887	-1.113
Mof_O 	O 	0.92508	0.29941	0.99277	-1.06
Mof_O 	O 	0.99677	0.39501	0.88507	-0.857
Mof_O 	O 	0.04395	0.36636	0.02757	-0.989
Mof_N 	N 	0.16423	0.22227	0.53587	-0.419
Mof_N 	N 	0.15793	0.33417	0.51757	-0.34
Mof_N 	N 	0.27083	0.41537	0.60717	-0.446
Mof_C 	C 	0.10423	0.21957	0.49657	-0.062
Mof_C 	C 	0.12053	0.28197	0.44727	-0.046
Mof_C 	C 	0.19073	0.40167	0.48327	-0.032
Mof_C 	C 	0.23053	0.44257	0.56927	-0.076
Mof_H 	H 	0.15203	0.18967	0.59187	0.101
Mof_H 	H 	0.17943	0.20957	0.48777	0.145
Mof_H 	H 	0.12663	0.33637	0.56347	0.09
Mof_H 	H 	0.30543	0.43797	0.57847	0.181
Mof_H 	H 	0.27993	0.41967	0.68437	0.045
Mof_H 	H 	0.07583	0.21767	0.55587	0.011
Mof_H 	H 	0.08253	0.17947	0.46617	0.034
Mof_H 	H 	0.08213	0.28477	0.41857	0.034
Mof_H 	H 	0.14663	0.28307	0.39187	0.023
Mof_H 	H 	0.15803	0.41307	0.47327	0
Mof_H 	H 	0.21953	0.40527	0.42627	0.017
Mof_H 	H 	0.25863	0.48647	0.54467	0.055
Mof_H 	H 	0.20473	0.43687	0.62067	0.045
Mof_Ga	Ga	0.98332	0.42397	0.75191	3.066
Mof_Ga	Ga	0.63992	0.90704	0.87945	3.865
Mof_P 	P 	0.58123	0.76395	0.88084	0.787
Mof_P 	P 	0.67328	0.01294	0.72212	0.852
Mof_O 	O 	0.63301	0.78972	0.9629	-1.008
Mof_O 	O 	0.57822	0.82484	0.8436	-1.057
Mof_O 	O 	0.6089	0.74093	0.7939	-1.096
Mof_O 	O 	0.51599	0.711	0.9098	-0.337
Mof_O 	O 	0.62503	0.9555	0.7878	-1.094
Mof_O 	O 	0.63274	0.04099	0.6739	-1.055
Mof_O 	O 	0.72834	0.0649	0.7816	-0.66
Mof_O 	O 	0.69969	0.98907	0.6391	-0.748
Mof_N 	N 	0.5556	0.7247	0.1308	-0.543
Mof_N 	N 	0.6675	0.8429	0.1491	-0.453
Mof_N 	N 	0.7487	0.8112	0.0595	-0.586
Mof_C 	C 	0.5529	0.782	0.1701	-0.085
Mof_C 	C 	0.6153	0.8281	0.2194	-0.071
Mof_C 	C 	0.735	0.8776	0.1834	-0.071
Mof_C 	C 	0.7759	0.8787	0.0974	-0.069
Mof_H 	H 	0.523	0.7043	0.0748	0.096
Mof_H 	H 	0.5429	0.6968	0.1789	0.158
Mof_H 	H 	0.6697	0.8764	0.1032	0.098
Mof_H 	H 	0.7713	0.7992	0.0882	0.197
Mof_H 	H 	0.753	0.8064	0.9823	0.049
Mof_H 	H 	0.551	0.8085	0.1108	0.007
Mof_H 	H 	0.5128	0.7636	0.2005	0.042
Mof_H 	H 	0.6181	0.8693	0.2481	0.047
Mof_H 	H 	0.6164	0.8031	0.2748	0.023
Mof_H 	H 	0.7464	0.9217	0.1934	0.018
Mof_H 	H 	0.7386	0.8524	0.2404	0.016
Mof_H 	H 	0.8198	0.8945	0.122	0.049
Mof_H 	H 	0.7702	0.8988	0.046	0.032
Mof_Ga	Ga	0.30659	0.24037	0.21278	3.816
Mof_P 	P 	0.2479	0.09728	0.21417	0.785
Mof_P 	P 	0.33995	0.34627	0.05545	0.859
Mof_O 	O 	0.29968	0.12305	0.29623	-1.021
Mof_O 	O 	0.24489	0.15817	0.17693	-1.052
Mof_O 	O 	0.27557	0.07426	0.12723	-1.096
Mof_O 	O 	0.18266	0.04433	0.24313	-0.348
Mof_O 	O 	0.2917	0.28883	0.12113	-1.097
Mof_O 	O 	0.29941	0.37432	0.00723	-1.076
Mof_O 	O 	0.39501	0.39823	0.11493	-0.659
Mof_O 	O 	0.36636	0.3224	0.97243	-0.75
Mof_N 	N 	0.22227	0.05803	0.46413	-0.544
Mof_N 	N 	0.33417	0.17623	0.48243	-0.456
Mof_N 	N 	0.41537	0.14453	0.39283	-0.577
Mof_C 	C 	0.21957	0.11533	0.50343	-0.088
Mof_C 	C 	0.28197	0.16143	0.55273	-0.069
Mof_C 	C 	0.40167	0.21093	0.51673	-0.064
Mof_C 	C 	0.44257	0.21203	0.43073	-0.079
Mof_H 	H 	0.18967	0.03763	0.40813	0.099
Mof_H 	H 	0.20957	0.03013	0.51223	0.155
Mof_H 	H 	0.33637	0.20973	0.43653	0.1
Mof_H 	H 	0.43797	0.13253	0.42153	0.197
Mof_H 	H 	0.41967	0.13973	0.31563	0.037
Mof_H 	H 	0.21767	0.14183	0.44413	0.011
Mof_H 	H 	0.17947	0.09693	0.53383	0.044
Mof_H 	H 	0.28477	0.20263	0.58143	0.046
Mof_H 	H 	0.28307	0.13643	0.60813	0.021
Mof_H 	H 	0.41307	0.25503	0.52673	0.014
Mof_H 	H 	0.40527	0.18573	0.57373	0.013
Mof_H 	H 	0.48647	0.22783	0.45533	0.054
Mof_H 	H 	0.43687	0.23213	0.37933	0.041
Mof_Ga	Ga	0.97325	0.57371	0.54612	3.786
Mof_P 	P 	0.91456	0.43062	0.54751	0.785
Mof_P 	P 	0.00661	0.67961	0.38879	0.884
Mof_O 	O 	0.96634	0.45639	0.62957	-1.022
Mof_O 	O 	0.91155	0.49151	0.51027	-1.047
Mof_O 	O 	0.94223	0.4076	0.46057	-1.106
Mof_O 	O 	0.84932	0.37767	0.57647	-0.343
Mof_O 	O 	0.95836	0.62217	0.45447	-1.1
Mof_O 	O 	0.96607	0.70766	0.34057	-1.068
Mof_O 	O 	0.06167	0.73157	0.44827	-0.658
Mof_O 	O 	0.03302	0.65574	0.30577	-0.762
Mof_N 	N 	0.88893	0.39137	0.79747	-0.544
Mof_N 	N 	0.00083	0.50957	0.81577	-0.443
Mof_N 	N 	0.08203	0.47787	0.72617	-0.572
Mof_C 	C 	0.88623	0.44867	0.83677	-0.079
Mof_C 	C 	0.94863	0.49477	0.88607	-0.087
Mof_C 	C 	0.06833	0.54427	0.85007	-0.068
Mof_C 	C 	0.10923	0.54537	0.76407	-0.075
Mof_H 	H 	0.85633	0.37097	0.74147	0.102
Mof_H 	H 	0.87623	0.36347	0.84557	0.159
Mof_H 	H 	0.00303	0.54307	0.76987	0.105
Mof_H 	H 	0.10463	0.46587	0.75487	0.198
Mof_H 	H 	0.08633	0.47307	0.64897	0.038
Mof_H 	H 	0.88433	0.47517	0.77747	0.008
Mof_H 	H 	0.84613	0.43027	0.86717	0.043
Mof_H 	H 	0.95143	0.53597	0.91477	0.051
Mof_H 	H 	0.94973	0.46977	0.94147	0.03
Mof_H 	H 	0.07973	0.58837	0.86007	0.019
Mof_H 	H 	0.07193	0.51907	0.90707	0.023
Mof_H 	H 	0.15313	0.56117	0.78867	0.054
Mof_H 	H 	0.10353	0.56547	0.71267	0.04
Mof_Ga	Ga	0.09296	0.73288	0.87945	3.868
Mof_P 	P 	0.23605	0.81728	0.88084	0.787
Mof_P 	P 	0.98706	0.66034	0.72212	0.852
Mof_O 	O 	0.21028	0.84329	0.9629	-1.006
Mof_O 	O 	0.17516	0.75338	0.8436	-1.058
Mof_O 	O 	0.25907	0.86797	0.7939	-1.095
Mof_O 	O 	0.289	0.80499	0.9098	-0.336
Mof_O 	O 	0.0445	0.66953	0.7878	-1.095
Mof_O 	O 	0.95901	0.59175	0.6739	-1.055
Mof_O 	O 	0.9351	0.66344	0.7816	-0.66
Mof_O 	O 	0.01093	0.71062	0.6391	-0.748
Mof_N 	N 	0.2753	0.8309	0.1308	-0.543
Mof_N 	N 	0.1571	0.8246	0.1491	-0.453
Mof_N 	N 	0.1888	0.9375	0.0595	-0.589
Mof_C 	C 	0.218	0.7709	0.1701	-0.085
Mof_C 	C 	0.1719	0.7872	0.2194	-0.071
Mof_C 	C 	0.1224	0.8574	0.1834	-0.072
Mof_C 	C 	0.1213	0.8972	0.0974	-0.068
Mof_H 	H 	0.2957	0.8187	0.0748	0.095
Mof_H 	H 	0.3032	0.8461	0.1789	0.158
Mof_H 	H 	0.1236	0.7933	0.1032	0.098
Mof_H 	H 	0.2008	0.9721	0.0882	0.202
Mof_H 	H 	0.1936	0.9466	0.9823	0.054
Mof_H 	H 	0.1915	0.7425	0.1108	0.006
Mof_H 	H 	0.2364	0.7492	0.2005	0.042
Mof_H 	H 	0.1307	0.7488	0.2481	0.047
Mof_H 	H 	0.1969	0.8133	0.2748	0.023
Mof_H 	H 	0.0783	0.8247	0.1934	0.019
Mof_H 	H 	0.1476	0.8862	0.2404	0.017
Mof_H 	H 	0.1055	0.9253	0.122	0.052
Mof_H 	H 	0.1012	0.8714	0.046	0.031
Mof_Ga	Ga	0.75963	0.06621	0.21278	3.814
Mof_P 	P 	0.90272	0.15061	0.21417	0.785
Mof_P 	P 	0.65373	0.99367	0.05545	0.874
Mof_O 	O 	0.87695	0.17662	0.29623	-1.021
Mof_O 	O 	0.84183	0.08671	0.17693	-1.054
Mof_O 	O 	0.92574	0.2013	0.12723	-1.095
Mof_O 	O 	0.95567	0.13832	0.24313	-0.35
Mof_O 	O 	0.71117	0.00286	0.12113	-1.106
Mof_O 	O 	0.62568	0.92508	0.00723	-1.079
Mof_O 	O 	0.60177	0.99677	0.11493	-0.659
Mof_O 	O 	0.6776	0.04395	0.97243	-0.76
Mof_N 	N 	0.94197	0.16423	0.46413	-0.544
Mof_N 	N 	0.82377	0.15793	0.48243	-0.456
Mof_N 	N 	0.85547	0.27083	0.39283	-0.577
Mof_C 	C 	0.88467	0.10423	0.50343	-0.086
Mof_C 	C 	0.83857	0.12053	0.55273	-0.07
Mof_C 	C 	0.78907	0.19073	0.51673	-0.065
Mof_C 	C 	0.78797	0.23053	0.43073	-0.079
Mof_H 	H 	0.96237	0.15203	0.40813	0.098
Mof_H 	H 	0.96987	0.17943	0.51223	0.154
Mof_H 	H 	0.79027	0.12663	0.43653	0.1
Mof_H 	H 	0.86747	0.30543	0.42153	0.197
Mof_H 	H 	0.86027	0.27993	0.31563	0.037
Mof_H 	H 	0.85817	0.07583	0.44413	0.008
Mof_H 	H 	0.90307	0.08253	0.53383	0.04
Mof_H 	H 	0.79737	0.08213	0.58143	0.044
Mof_H 	H 	0.86357	0.14663	0.60813	0.021
Mof_H 	H 	0.74497	0.15803	0.52673	0.015
Mof_H 	H 	0.81427	0.21953	0.57373	0.013
Mof_H 	H 	0.77217	0.25863	0.45533	0.054
Mof_H 	H 	0.76787	0.20473	0.37933	0.04
Mof_Ga	Ga	0.42629	0.39955	0.54612	3.821
Mof_P 	P 	0.56938	0.48395	0.54751	0.786
Mof_P 	P 	0.32039	0.32701	0.38879	0.869
Mof_O 	O 	0.54361	0.50996	0.62957	-1.022
Mof_O 	O 	0.50849	0.42005	0.51027	-1.052
Mof_O 	O 	0.5924	0.53464	0.46057	-1.096
Mof_O 	O 	0.62233	0.47166	0.57647	-0.344
Mof_O 	O 	0.37783	0.3362	0.45447	-1.097
Mof_O 	O 	0.29234	0.25842	0.34057	-1.059
Mof_O 	O 	0.26843	0.33011	0.44827	-0.658
Mof_O 	O 	0.34426	0.37729	0.30577	-0.759
Mof_N 	N 	0.60863	0.49757	0.79747	-0.546
Mof_N 	N 	0.49043	0.49127	0.81577	-0.455
Mof_N 	N 	0.52213	0.60417	0.72617	-0.578
Mof_C 	C 	0.55133	0.43757	0.83677	-0.084
Mof_C 	C 	0.50523	0.45387	0.88607	-0.074
Mof_C 	C 	0.45573	0.52407	0.85007	-0.068
Mof_C 	C 	0.45463	0.56387	0.76407	-0.077
Mof_H 	H 	0.62903	0.48537	0.74147	0.101
Mof_H 	H 	0.63653	0.51277	0.84557	0.16
Mof_H 	H 	0.45693	0.45997	0.76987	0.1
Mof_H 	H 	0.53413	0.63877	0.75487	0.198
Mof_H 	H 	0.52693	0.61327	0.64897	0.037
Mof_H 	H 	0.52483	0.40917	0.77747	0.01
Mof_H 	H 	0.56973	0.41587	0.86717	0.045
Mof_H 	H 	0.46403	0.41547	0.91477	0.051
Mof_H 	H 	0.53023	0.47997	0.94147	0.028
Mof_H 	H 	0.41163	0.49137	0.86007	0.017
Mof_H 	H 	0.48093	0.55287	0.90707	0.019
Mof_H 	H 	0.43883	0.59197	0.78867	0.055
Mof_H 	H 	0.43453	0.53807	0.71267	0.04
Mof_Ga	Ga	0.26712	0.36008	0.87945	3.858
Mof_P 	P 	0.18272	0.41877	0.88084	0.787
Mof_P 	P 	0.33966	0.32672	0.72212	0.871
Mof_O 	O 	0.15671	0.36699	0.9629	-1.008
Mof_O 	O 	0.24662	0.42178	0.8436	-1.056
Mof_O 	O 	0.13203	0.3911	0.7939	-1.095
Mof_O 	O 	0.19501	0.48401	0.9098	-0.336
Mof_O 	O 	0.33047	0.37497	0.7878	-1.103
Mof_O 	O 	0.40825	0.36726	0.6739	-1.06
Mof_O 	O 	0.33656	0.27166	0.7816	-0.661
Mof_O 	O 	0.28938	0.30031	0.6391	-0.761
Mof_N 	N 	0.1691	0.4444	0.1308	-0.543
Mof_N 	N 	0.1754	0.3325	0.1491	-0.453
Mof_N 	N 	0.0625	0.2513	0.0595	-0.588
Mof_C 	C 	0.2291	0.4471	0.1701	-0.085
Mof_C 	C 	0.2128	0.3847	0.2194	-0.071
Mof_C 	C 	0.1426	0.265	0.1834	-0.071
Mof_C 	C 	0.1028	0.2241	0.0974	-0.068
Mof_H 	H 	0.1813	0.477	0.0748	0.095
Mof_H 	H 	0.1539	0.4571	0.1789	0.158
Mof_H 	H 	0.2067	0.3303	0.1032	0.097
Mof_H 	H 	0.0279	0.2287	0.0882	0.201
Mof_H 	H 	0.0534	0.247	0.9823	0.051
Mof_H 	H 	0.2575	0.449	0.1108	0.007
Mof_H 	H 	0.2508	0.4872	0.2005	0.042
Mof_H 	H 	0.2512	0.3819	0.2481	0.047
Mof_H 	H 	0.1867	0.3836	0.2748	0.023
Mof_H 	H 	0.1753	0.2536	0.1934	0.016
Mof_H 	H 	0.1138	0.2614	0.2404	0.016
Mof_H 	H 	0.0747	0.1802	0.122	0.049
Mof_H 	H 	0.1286	0.2298	0.046	0.03
Mof_Ga	Ga	0.93379	0.69341	0.21278	3.815
Mof_P 	P 	0.84939	0.7521	0.21417	0.785
Mof_P 	P 	0.00633	0.66005	0.05545	0.874
Mof_O 	O 	0.82338	0.70032	0.29623	-1.02
Mof_O 	O 	0.91329	0.75511	0.17693	-1.053
Mof_O 	O 	0.7987	0.72443	0.12723	-1.093
Mof_O 	O 	0.86168	0.81734	0.24313	-0.345
Mof_O 	O 	0.99714	0.7083	0.12113	-1.106
Mof_O 	O 	0.07492	0.70059	0.00723	-1.08
Mof_O 	O 	0.00323	0.60499	0.11493	-0.659
Mof_O 	O 	0.95605	0.63364	0.97243	-0.76
Mof_N 	N 	0.83577	0.77773	0.46413	-0.545
Mof_N 	N 	0.84207	0.66583	0.48243	-0.456
Mof_N 	N 	0.72917	0.58463	0.39283	-0.577
Mof_C 	C 	0.89577	0.78043	0.50343	-0.086
Mof_C 	C 	0.87947	0.71803	0.55273	-0.07
Mof_C 	C 	0.80927	0.59833	0.51673	-0.065
Mof_C 	C 	0.76947	0.55743	0.43073	-0.079
Mof_H 	H 	0.84797	0.81033	0.40813	0.101
Mof_H 	H 	0.82057	0.79043	0.51223	0.158
Mof_H 	H 	0.87337	0.66363	0.43653	0.1
Mof_H 	H 	0.69457	0.56203	0.42153	0.198
Mof_H 	H 	0.72007	0.58033	0.31563	0.037
Mof_H 	H 	0.92417	0.78233	0.44413	0.008
Mof_H 	H 	0.91747	0.82053	0.53383	0.042
Mof_H 	H 	0.91787	0.71523	0.58143	0.044
Mof_H 	H 	0.85337	0.71693	0.60813	0.022
Mof_H 	H 	0.84197	0.58693	0.52673	0.015
Mof_H 	H 	0.78047	0.59473	0.57373	0.013
Mof_H 	H 	0.74137	0.51353	0.45533	0.054
Mof_H 	H 	0.79527	0.56313	0.37933	0.04
Mof_Ga	Ga	0.60045	0.02675	0.54612	3.787
Mof_P 	P 	0.51605	0.08544	0.54751	0.785
Mof_P 	P 	0.67299	0.99339	0.38879	0.884
Mof_O 	O 	0.49004	0.03366	0.62957	-1.022
Mof_O 	O 	0.57995	0.08845	0.51027	-1.047
Mof_O 	O 	0.46536	0.05777	0.46057	-1.106
Mof_O 	O 	0.52834	0.15068	0.57647	-0.343
Mof_O 	O 	0.6638	0.04164	0.45447	-1.099
Mof_O 	O 	0.74158	0.03393	0.34057	-1.067
Mof_O 	O 	0.66989	0.93833	0.44827	-0.658
Mof_O 	O 	0.62271	0.96698	0.30577	-0.762
Mof_N 	N 	0.50243	0.11107	0.79747	-0.544
Mof_N 	N 	0.50873	0.99917	0.81577	-0.443
Mof_N 	N 	0.39583	0.91797	0.72617	-0.572
Mof_C 	C 	0.56243	0.11377	0.83677	-0.079
Mof_C 	C 	0.54613	0.05137	0.88607	-0.087
Mof_C 	C 	0.47593	0.93167	0.85007	-0.068
Mof_C 	C 	0.43613	0.89077	0.76407	-0.075
Mof_H 	H 	0.51463	0.14367	0.74147	0.102
Mof_H 	H 	0.48723	0.12377	0.84557	0.159
Mof_H 	H 	0.54003	0.99697	0.76987	0.105
Mof_H 	H 	0.36123	0.89537	0.75487	0.199
Mof_H 	H 	0.38673	0.91367	0.64897	0.038
Mof_H 	H 	0.59083	0.11567	0.77747	0.008
Mof_H 	H 	0.58413	0.15387	0.86717	0.043
Mof_H 	H 	0.58453	0.04857	0.91477	0.05
Mof_H 	H 	0.52003	0.05027	0.94147	0.03
Mof_H 	H 	0.50863	0.92027	0.86007	0.019
Mof_H 	H 	0.44713	0.92807	0.90707	0.023
Mof_H 	H 	0.40803	0.84687	0.78867	0.054
Mof_H 	H 	0.46193	0.89647	0.71267	0.04
_end
