data_functionalizedCrystal
_audit_creation_method	'EQeq! by Chris Wilmer'
_symmetry_space_group_name_H-M	'P1'
_symmetry_Int_Tables_number	1
_symmetry_cell_setting	triclinic
loop_
_symmetry_equiv_pos_as_xyz
  x,y,z
_cell_length_a	10.525
_cell_length_b	11.034
_cell_length_c	12.855
_cell_angle_alpha	99.359
_cell_angle_beta	111.301
_cell_angle_gamma	101.265
loop_
_atom_site_label
_atom_site_type_symbol
_atom_site_fract_x
_atom_site_fract_y
_atom_site_fract_z
_atom_site_charge
Mof_Y 	Y 	0.60986	0.54621	0.67714	1.458
Mof_O 	O 	0.5003	0.3303	0.5952	-0.471
Mof_O 	O 	0.6664	0.5086	0.5242	-0.482
Mof_O 	O 	0.836	0.707	0.7643	-0.315
Mof_O 	O 	0.4289	0.283	0.4026	-0.44
Mof_O 	O 	0.6807	0.7297	0.8365	-0.409
Mof_O 	O 	0.6168	0.4492	0.3377	-0.431
Mof_C 	C 	0.4691	0.2563	0.4977	0.66
Mof_C 	C 	0.4825	0.1212	0.4974	-0.72
Mof_C 	C 	0.4977	0.0769	0.594	0.899
Mof_H 	H 	0.4958	0.1298	0.6593	-1.772
Mof_C 	C 	0.4845	0.0431	0.4021	0.783
Mof_C 	C 	0.8016	0.7688	0.8353	0.022
Mof_C 	C 	0.9007	0.8887	0.9175	0.604
Mof_C 	C 	0.0407	0.9239	0.9287	0.848
Mof_C 	C 	0.862	0.9631	0.9897	-2.593
Mof_C 	C 	0.704	0.4813	0.441	0.461
Mof_C 	C 	0.8564	0.4903	0.4706	-0.252
Mof_C 	C 	0.9565	0.542	0.5837	-0.249
Mof_H 	H 	0.9267	0.5707	0.6424	0.116
Mof_C 	C 	0.9036	0.4478	0.3883	0.584
Mof_N 	N 	0.7183	0.959	0.972	-4.42
Mof_H 	H 	0.6474	0.9049	0.9113	1.134
Mof_H 	H 	0.7011	0.0097	0.0227	1.273
Mof_N 	N 	0.8114	0.3877	0.2719	0.704
Mof_H 	H 	0.8456	0.3596	0.2226	-0.166
Mof_H 	H 	0.7196	0.3783	0.2487	-0.102
Mof_H 	H 	0.5264	0.9278	0.6654	-1.628
Mof_H 	H 	0.0708	0.8716	0.8812	-0.278
Mof_H 	H 	0.768	0.9386	0.9851	3.994
Mof_H 	H 	0.8372	0.4107	0.3106	-0.789
Mof_N 	N 	0.101	0.857	0.862	-0.025
Mof_H 	H 	0.0485	0.7865	0.8076	0.071
Mof_H 	H 	0.1912	0.8867	0.8752	-0.081
Mof_N 	N 	0.5205	0.918	0.7009	1.735
Mof_H 	H 	0.5124	0.9699	0.7563	-0.43
Mof_H 	H 	0.5317	0.8424	0.7082	-0.349
Mof_N 	N 	0.499	0.857	0.299	1.865
Mof_H 	H 	0.5078	0.7784	0.2905	-0.317
Mof_H 	H 	0.489	0.8945	0.2426	-0.493
Mof_Y 	Y 	0.39014	0.45379	0.32286	1.459
Mof_O 	O 	0.4997	0.6697	0.4048	-0.47
Mof_O 	O 	0.3336	0.4914	0.4758	-0.482
Mof_O 	O 	0.164	0.293	0.2357	-0.315
Mof_O 	O 	0.5711	0.717	0.5974	-0.44
Mof_O 	O 	0.3193	0.2703	0.1635	-0.409
Mof_O 	O 	0.3832	0.5508	0.6623	-0.431
Mof_C 	C 	0.5309	0.7437	0.5023	0.66
Mof_C 	C 	0.5175	0.8788	0.5026	-0.72
Mof_C 	C 	0.5023	0.9231	0.406	0.899
Mof_H 	H 	0.5042	0.8702	0.3407	-1.772
Mof_C 	C 	0.5155	0.9569	0.5979	0.783
Mof_C 	C 	0.1984	0.2312	0.1647	0.022
Mof_C 	C 	0.0993	0.1113	0.0825	0.604
Mof_C 	C 	0.9593	0.0761	0.0713	0.848
Mof_C 	C 	0.138	0.0369	0.0103	-2.593
Mof_C 	C 	0.296	0.5187	0.559	0.461
Mof_C 	C 	0.1436	0.5097	0.5294	-0.252
Mof_C 	C 	0.0435	0.458	0.4163	-0.249
Mof_H 	H 	0.0733	0.4293	0.3576	0.116
Mof_C 	C 	0.0964	0.5522	0.6117	0.584
Mof_N 	N 	0.2817	0.041	0.028	-4.42
Mof_H 	H 	0.3526	0.0951	0.0887	1.134
Mof_H 	H 	0.2989	0.9903	0.9773	1.273
Mof_N 	N 	0.1886	0.6123	0.7281	0.704
Mof_H 	H 	0.1544	0.6404	0.7774	-0.166
Mof_H 	H 	0.2804	0.6217	0.7513	-0.102
Mof_H 	H 	0.4736	0.0722	0.3346	-1.628
Mof_H 	H 	0.9292	0.1284	0.1188	-0.278
Mof_H 	H 	0.232	0.0614	0.0149	3.994
Mof_H 	H 	0.1628	0.5893	0.6894	-0.789
Mof_N 	N 	0.899	0.143	0.138	-0.025
Mof_H 	H 	0.9515	0.2135	0.1924	0.071
Mof_H 	H 	0.8088	0.1133	0.1248	-0.081
Mof_N 	N 	0.4795	0.082	0.2991	1.735
Mof_H 	H 	0.4876	0.0301	0.2437	-0.43
Mof_H 	H 	0.4683	0.1576	0.2918	-0.349
Mof_N 	N 	0.501	0.143	0.701	1.865
Mof_H 	H 	0.4922	0.2216	0.7095	-0.317
Mof_H 	H 	0.511	0.1055	0.7574	-0.493
_end
