data_functionalizedCrystal
_audit_creation_method	'EQeq! by Chris Wilmer'
_symmetry_space_group_name_H-M	'P1'
_symmetry_Int_Tables_number	1
_symmetry_cell_setting	triclinic
loop_
_symmetry_equiv_pos_as_xyz
  x,y,z
_cell_length_a	11.5713
_cell_length_b	11.736
_cell_length_c	13.619
_cell_angle_alpha	92.869
_cell_angle_beta	114.443
_cell_angle_gamma	107.988
loop_
_atom_site_label
_atom_site_type_symbol
_atom_site_fract_x
_atom_site_fract_y
_atom_site_fract_z
_atom_site_charge
Mof_Zn	Zn	0.10439	0.23392	0.95361	1.111
Mof_Zn	Zn	0.89561	0.76608	0.04639	1.106
Mof_Zn	Zn	-0	0.5	-0	1.142
Mof_H 	H 	0.6723	0.9293	0.025	0.032
Mof_H 	H 	0.1195	0.3754	0.575	-0.015
Mof_H 	H 	0.3512	0.6023	0.4372	0.043
Mof_H 	H 	0.9077	0.5791	0.5944	-0
Mof_H 	H 	0.513	0.3683	0.3777	0.033
Mof_H 	H 	0.5198	0.1898	0.9614	0.088
Mof_H 	H 	0.3277	0.0707	0.975	-0.059
Mof_H 	H 	0.8805	0.6246	0.425	0.094
Mof_H 	H 	0.6488	0.3977	0.5628	0.055
Mof_H 	H 	0.0923	0.4209	0.4056	0.097
Mof_H 	H 	0.487	0.6317	0.6223	0.048
Mof_H 	H 	0.4802	0.8102	0.0386	-0.012
Mof_C 	C 	0.737	0.1508	0.9842	0.073
Mof_C 	C 	0.0272	0.4422	0.7081	0.148
Mof_C 	C 	0.3291	0.4613	0.2679	0.102
Mof_C 	C 	0.0137	0.4713	0.6014	-0.17
Mof_C 	C 	0.4185	0.483	0.3872	-0.024
Mof_C 	C 	0.6032	0.9591	0.0146	-0.194
Mof_C 	C 	0.0708	0.4253	0.545	0.094
Mof_C 	C 	0.4114	0.561	0.4622	-0.042
Mof_C 	C 	0.9448	0.5464	0.5564	0.141
Mof_C 	C 	0.6146	0.0725	0.9912	0.115
Mof_C 	C 	0.5077	0.4219	0.427	-0.04
Mof_C 	C 	0.5129	0.1125	0.9771	-0.184
Mof_C 	C 	0.263	0.8492	0.0158	0.131
Mof_C 	C 	0.9728	0.5578	0.2919	0.068
Mof_C 	C 	0.6709	0.5387	0.7321	0.11
Mof_C 	C 	0.9863	0.5287	0.3986	0.141
Mof_C 	C 	0.5815	0.517	0.6128	-0.005
Mof_C 	C 	0.3968	0.0409	0.9854	0.12
Mof_C 	C 	0.9292	0.5747	0.455	-0.188
Mof_C 	C 	0.5886	0.439	0.5378	-0.058
Mof_C 	C 	0.0552	0.4536	0.4436	-0.236
Mof_C 	C 	0.3854	0.9275	0.0088	-0.156
Mof_C 	C 	0.4923	0.5781	0.573	-0.054
Mof_C 	C 	0.4871	0.8875	0.0229	0.064
Mof_N 	N 	0.3016	0.3637	0.1955	-0.141
Mof_N 	N 	0.8297	0.1127	0.9722	-0.124
Mof_N 	N 	0.0558	0.3532	0.8424	-0.214
Mof_N 	N 	0.0141	0.5105	0.781	-0.114
Mof_N 	N 	0.21	0.3742	0.0998	-0.233
Mof_N 	N 	0.0326	0.4527	0.8645	-0.182
Mof_N 	N 	0.9205	0.2129	0.9705	-0.181
Mof_N 	N 	0.8847	0.3073	0.9807	-0.152
Mof_N 	N 	0.1851	0.4748	0.1142	-0.189
Mof_N 	N 	0.7691	0.2718	0.9893	-0.089
Mof_N 	N 	0.0534	0.344	0.7433	-0.14
Mof_N 	N 	0.2601	0.5323	0.2202	-0.107
Mof_N 	N 	0.6984	0.6363	0.8045	-0.119
Mof_N 	N 	0.1703	0.8873	0.0278	-0.161
Mof_N 	N 	0.9442	0.6468	0.1576	-0.21
Mof_N 	N 	0.9859	0.4895	0.219	-0.09
Mof_N 	N 	0.79	0.6258	0.9002	-0.188
Mof_N 	N 	0.9674	0.5473	0.1355	-0.185
Mof_N 	N 	0.0795	0.7871	0.0295	-0.224
Mof_N 	N 	0.1153	0.6927	0.0193	-0.193
Mof_N 	N 	0.8149	0.5252	0.8858	-0.152
Mof_N 	N 	0.2309	0.7282	0.0107	-0.12
Mof_N 	N 	0.9466	0.656	0.2567	-0.116
Mof_N 	N 	0.7399	0.4677	0.7798	-0.095
_end
