# CIF file generated by openbabel 3.1.0, see https://openbabel.org
data_I
_chemical_name_common 'PARFOF_clean_h'
_cell_length_a 6.7797
_cell_length_b 7.5077
_cell_length_c 12.8325
_cell_angle_alpha 107.009
_cell_angle_beta 103.454
_cell_angle_gamma 90
_space_group_name_H-M_alt 'P 1'
_space_group_name_Hall 'P 1'
loop_
    _symmetry_equiv_pos_as_xyz
    x,y,z
loop_
    _atom_site_label
    _atom_site_type_symbol
    _atom_site_fract_x
    _atom_site_fract_y
    _atom_site_fract_z
    _atom_site_occupancy
    V1       V        0.00000    0.00000    0.00000    1.000
    V2       V        0.50000    0.00000    0.00000    1.000
    C1       C        0.08280    0.08790    0.70780    1.000
    C2       C        0.20120    0.00010    0.62620    1.000
    C3       C        0.21740    0.89520    0.43840    1.000
    C4       C        0.15280    0.09340    0.82280    1.000
    C5       C        0.09440    0.96700    0.51400    1.000
    C6       C        0.87220    0.13210    0.67820    1.000
    C7       C        0.41720    0.38010    0.29220    1.000
    C8       C        0.29880    0.37390    0.37380    1.000
    C9       C        0.28260    0.45680    0.56160    1.000
    C10      C        0.34720    0.27060    0.17720    1.000
    C11      C        0.40560    0.45300    0.48600    1.000
    C12      C        0.62780    0.45390    0.32180    1.000
    C13      C        0.91720    0.91210    0.29220    1.000
    C14      C        0.79880    0.99990    0.37380    1.000
    C15      C        0.78260    0.10480    0.56160    1.000
    C16      C        0.84720    0.90660    0.17720    1.000
    C17      C        0.90560    0.03300    0.48600    1.000
    C18      C        0.12780    0.86790    0.32180    1.000
    C19      C        0.58280    0.61990    0.70780    1.000
    C20      C        0.70120    0.62610    0.62620    1.000
    C21      C        0.71740    0.54320    0.43840    1.000
    C22      C        0.65280    0.72940    0.82280    1.000
    C23      C        0.59440    0.54700    0.51400    1.000
    C24      C        0.37220    0.54610    0.67820    1.000
    O1       O        0.09380    0.15190    0.91380    1.000
    O2       O        0.33560    0.06830    0.85660    1.000
    O3       O        0.40620    0.23810    0.08620    1.000
    O4       O        0.16440    0.21170    0.14340    1.000
    O5       O        0.90620    0.84810    0.08620    1.000
    O6       O        0.66440    0.93170    0.14340    1.000
    O7       O        0.59380    0.76190    0.91380    1.000
    O8       O        0.83560    0.78830    0.85660    1.000
    O9       O        0.25000    0.87900    0.00000    1.000
    O10      O        0.75000    0.12100    0.00000    1.000
    H1       H        0.36417    0.96564    0.65683    1.000
    H2       H        0.37988    0.86193    0.47134    1.000
    H3       H        0.78658    0.18572    0.74659    1.000
    H4       H        0.13583    0.30882    0.34317    1.000
    H5       H        0.12012    0.39060    0.52866    1.000
    H6       H        0.71342    0.43913    0.25341    1.000
    H7       H        0.63583    0.03436    0.34317    1.000
    H8       H        0.61923    0.14061    0.53357    1.000
    H9       H        0.21342    0.81428    0.25341    1.000
    H10      H        0.86417    0.69118    0.65683    1.000
    H11      H        0.88077    0.60704    0.46643    1.000
    H12      H        0.27892    0.55669    0.74283    1.000
