data_functionalizedCrystal
_audit_creation_method	'EQeq! by Chris Wilmer'
_symmetry_space_group_name_H-M	'P1'
_symmetry_Int_Tables_number	1
_symmetry_cell_setting	triclinic
loop_
_symmetry_equiv_pos_as_xyz
  x,y,z
_cell_length_a	12.6008
_cell_length_b	14.0313
_cell_length_c	14.0313
_cell_angle_alpha	78.3682
_cell_angle_beta	63.319
_cell_angle_gamma	63.3189
loop_
_atom_site_label
_atom_site_type_symbol
_atom_site_fract_x
_atom_site_fract_y
_atom_site_fract_z
_atom_site_charge
Mof_Cu	Cu	0.17572	0.47638	0.999	0.835
Mof_Cu	Cu	0.6511	0.52362	0.001	0.839
Mof_Cu	Cu	0.42472	0.501	0.97638	0.831
Mof_Cu	Cu	0.9021	0.499	0.02362	0.825
Mof_Cu	Cu	0.6511	0.001	0.52362	0.839
Mof_Cu	Cu	0.17572	0.999	0.47638	0.835
Mof_Cu	Cu	0.9021	0.02362	0.499	0.825
Mof_Cu	Cu	0.42472	0.97638	0.501	0.831
Mof_H 	H 	0.7296	0.392	0.2384	0.158
Mof_H 	H 	0.7999	0.3462	0.1238	0.14
Mof_H 	H 	0.3587	0.2509	0.0793	0.148
Mof_H 	H 	0.2997	0.3568	0.1392	0.136
Mof_H 	H 	0.36	0.608	0.7616	0.133
Mof_H 	H 	0.2699	0.6538	0.8762	0.115
Mof_H 	H 	0.6889	0.7491	0.9207	0.157
Mof_H 	H 	0.7957	0.6432	0.8608	0.143
Mof_H 	H 	0.218	0.2616	0.892	0.145
Mof_H 	H 	0.1737	0.3762	0.8462	0.13
Mof_H 	H 	0.688	0.4207	0.7509	0.153
Mof_H 	H 	0.6889	0.3608	0.8568	0.142
Mof_H 	H 	0.3716	0.7384	0.108	0.141
Mof_H 	H 	0.3961	0.6238	0.1538	0.123
Mof_H 	H 	0.8596	0.5793	0.2491	0.143
Mof_H 	H 	0.9065	0.6392	0.1432	0.126
Mof_H 	H 	0.36	0.7616	0.608	0.132
Mof_H 	H 	0.2699	0.8762	0.6538	0.115
Mof_H 	H 	0.6889	0.9207	0.7491	0.157
Mof_H 	H 	0.7957	0.8608	0.6432	0.143
Mof_H 	H 	0.7296	0.2384	0.392	0.157
Mof_H 	H 	0.7999	0.1238	0.3462	0.139
Mof_H 	H 	0.3587	0.0793	0.2509	0.147
Mof_H 	H 	0.2997	0.1392	0.3568	0.135
Mof_H 	H 	0.3716	0.108	0.7384	0.141
Mof_H 	H 	0.3961	0.1538	0.6238	0.123
Mof_H 	H 	0.8596	0.2491	0.5793	0.143
Mof_H 	H 	0.9065	0.1432	0.6392	0.126
Mof_H 	H 	0.218	0.892	0.2616	0.145
Mof_H 	H 	0.1737	0.8462	0.3762	0.13
Mof_H 	H 	0.688	0.7509	0.4207	0.153
Mof_H 	H 	0.6889	0.8568	0.3608	0.142
Mof_H 	H 	0.6886	0.2501	0.2501	-0.031
Mof_H 	H 	0.8326	0.1807	0.1807	-0.044
Mof_H 	H 	0.4204	0.2061	0.2061	-0.024
Mof_H 	H 	0.2942	0.2861	0.2861	-0.025
Mof_H 	H 	0.1888	0.7499	0.7499	0.003
Mof_H 	H 	0.194	0.8193	0.8193	-0.006
Mof_H 	H 	0.8326	0.7939	0.7939	-0.061
Mof_H 	H 	0.8664	0.7139	0.7139	-0.066
Mof_H 	H 	0.1887	0.2499	0.7501	0.002
Mof_H 	H 	0.2633	0.3193	0.6807	-0.012
Mof_H 	H 	0.8765	0.2939	0.7061	-0.051
Mof_H 	H 	0.8303	0.2139	0.7861	-0.053
Mof_H 	H 	0.1887	0.7501	0.2499	0.002
Mof_H 	H 	0.2633	0.6807	0.3193	-0.012
Mof_H 	H 	0.8765	0.7061	0.2939	-0.051
Mof_H 	H 	0.8303	0.7861	0.2139	-0.053
Mof_C 	C 	0.9266	0.3199	0.1843	0.2
Mof_C 	C 	0.1599	0.3042	0.1624	0.135
Mof_C 	C 	0.7995	0.3324	0.1938	-0.447
Mof_C 	C 	0.2962	0.2888	0.145	-0.401
Mof_C 	C 	0.4308	0.6801	0.8157	0.151
Mof_C 	C 	0.6265	0.6958	0.8376	0.167
Mof_C 	C 	0.3257	0.6676	0.8062	-0.364
Mof_C 	C 	0.73	0.7112	0.855	-0.463
Mof_C 	C 	0.3609	0.3157	0.8199	0.161
Mof_C 	C 	0.5723	0.3376	0.8042	0.16
Mof_C 	C 	0.2433	0.3062	0.8324	-0.387
Mof_C 	C 	0.6912	0.355	0.7888	-0.444
Mof_C 	C 	0.4965	0.6843	0.1801	0.16
Mof_C 	C 	0.7141	0.6624	0.1958	0.155
Mof_C 	C 	0.3819	0.6938	0.1676	-0.383
Mof_C 	C 	0.835	0.645	0.2112	-0.433
Mof_C 	C 	0.4308	0.8157	0.6801	0.151
Mof_C 	C 	0.6265	0.8376	0.6958	0.167
Mof_C 	C 	0.3257	0.8062	0.6676	-0.364
Mof_C 	C 	0.73	0.855	0.7112	-0.463
Mof_C 	C 	0.9266	0.1843	0.3199	0.2
Mof_C 	C 	0.1599	0.1624	0.3042	0.135
Mof_C 	C 	0.7995	0.1938	0.3324	-0.447
Mof_C 	C 	0.2962	0.145	0.2888	-0.401
Mof_C 	C 	0.4965	0.1801	0.6843	0.16
Mof_C 	C 	0.7141	0.1958	0.6624	0.155
Mof_C 	C 	0.3819	0.1676	0.6938	-0.383
Mof_C 	C 	0.835	0.2112	0.645	-0.433
Mof_C 	C 	0.3609	0.8199	0.3157	0.161
Mof_C 	C 	0.5723	0.8042	0.3376	0.16
Mof_C 	C 	0.2433	0.8324	0.3062	-0.387
Mof_C 	C 	0.6912	0.7888	0.355	-0.444
Mof_C 	C 	0.9865	0.2452	0.2452	-0.191
Mof_C 	C 	0.1053	0.2363	0.2363	0.022
Mof_C 	C 	0.7769	0.2349	0.2349	0.28
Mof_C 	C 	0.327	0.234	0.234	0.255
Mof_C 	C 	0.4769	0.7548	0.7548	-0.077
Mof_C 	C 	0.5779	0.7637	0.7637	-0.085
Mof_C 	C 	0.2467	0.7651	0.7651	0.185
Mof_C 	C 	0.795	0.766	0.766	0.334
Mof_C 	C 	0.4817	0.2548	0.7452	-0.086
Mof_C 	C 	0.5916	0.2637	0.7363	-0.075
Mof_C 	C 	0.2618	0.2651	0.7349	0.207
Mof_C 	C 	0.811	0.266	0.734	0.303
Mof_C 	C 	0.4817	0.7452	0.2548	-0.086
Mof_C 	C 	0.5916	0.7363	0.2637	-0.075
Mof_C 	C 	0.2618	0.7349	0.2651	0.207
Mof_C 	C 	0.811	0.734	0.266	0.303
Mof_Br	Br	0.03014	0.60239	0.91453	-0.516
Mof_Br	Br	0.54706	0.39761	0.08547	-0.549
Mof_Br	Br	0.19467	0.58547	0.10239	-0.523
Mof_Br	Br	0.88253	0.41453	0.89761	-0.589
Mof_Br	Br	0.54706	0.08547	0.39761	-0.549
Mof_Br	Br	0.03014	0.91453	0.60239	-0.516
Mof_Br	Br	0.88253	0.89761	0.41453	-0.589
Mof_Br	Br	0.19467	0.10239	0.58547	-0.523
Mof_N 	N 	0.1014	0.3732	0.1042	-0.192
Mof_N 	N 	0.9827	0.3829	0.1151	-0.261
Mof_N 	N 	0.5788	0.6268	0.8958	-0.231
Mof_N 	N 	0.4807	0.6171	0.8849	-0.226
Mof_N 	N 	0.4556	0.3958	0.8732	-0.228
Mof_N 	N 	0.3478	0.3849	0.8829	-0.227
Mof_N 	N 	0.7246	0.6042	0.1268	-0.229
Mof_N 	N 	0.6156	0.6151	0.1171	-0.226
Mof_N 	N 	0.5788	0.8958	0.6268	-0.231
Mof_N 	N 	0.4807	0.8849	0.6171	-0.226
Mof_N 	N 	0.1014	0.1042	0.3732	-0.192
Mof_N 	N 	0.9827	0.1151	0.3829	-0.261
Mof_N 	N 	0.7246	0.1268	0.6042	-0.229
Mof_N 	N 	0.6156	0.1171	0.6151	-0.226
Mof_N 	N 	0.4556	0.8732	0.3958	-0.228
Mof_N 	N 	0.3478	0.8829	0.3849	-0.227
_end
