data_functionalizedCrystal
_audit_creation_method	'EQeq! by Chris Wilmer'
_symmetry_space_group_name_H-M	'P1'
_symmetry_Int_Tables_number	1
_symmetry_cell_setting	triclinic
loop_
_symmetry_equiv_pos_as_xyz
  x,y,z
_cell_length_a	11.083
_cell_length_b	17.983
_cell_length_c	17.983
_cell_angle_alpha	90
_cell_angle_beta	90
_cell_angle_gamma	90
loop_
_atom_site_label
_atom_site_type_symbol
_atom_site_fract_x
_atom_site_fract_y
_atom_site_fract_z
_atom_site_charge
Mof_V 	V 	0.15457	0.03736	0.55969	1.71
Mof_V 	V 	0.65457	0.96264	0.44031	1.721
Mof_V 	V 	0.40457	0.94031	0.53736	1.719
Mof_V 	V 	0.90457	0.05969	0.46264	1.746
Mof_V 	V 	0.09543	0.46264	0.05969	1.697
Mof_V 	V 	0.59543	0.53736	0.94031	1.72
Mof_V 	V 	0.84543	0.55969	0.03736	1.728
Mof_V 	V 	0.34543	0.44031	0.96264	1.717
Mof_V 	V 	0.25	0.03933	0.96067	1.831
Mof_V 	V 	0.75	0.96067	0.03933	1.835
Mof_V 	V 	0.5	0.53933	0.53933	1.836
Mof_V 	V 	2.80257e-33	0.46067	0.46067	1.799
Mof_V 	V 	2.16919e-33	0.06713	0.06713	1.587
Mof_V 	V 	0.5	0.93287	0.93287	1.621
Mof_V 	V 	0.25	0.43287	0.56713	1.612
Mof_V 	V 	0.75	0.56713	0.43287	1.628
Mof_Ni	Ni	0.17219	0.02931	0.7646	1.005
Mof_Ni	Ni	0.67219	0.97069	0.2354	1.032
Mof_Ni	Ni	0.42219	0.7354	0.52931	1.027
Mof_Ni	Ni	0.92219	0.2646	0.47069	1.038
Mof_Ni	Ni	0.07781	0.47069	0.2646	1.014
Mof_Ni	Ni	0.57781	0.52931	0.7354	1.025
Mof_Ni	Ni	0.82781	0.7646	0.02931	1.044
Mof_Ni	Ni	0.32781	0.2354	0.97069	1.018
Mof_H 	H 	0.2124	0.8902	0.654	-0.057
Mof_H 	H 	0.2003	0.7594	0.6876	0.004
Mof_H 	H 	0.1415	0.8819	0.866	-0.035
Mof_H 	H 	0.224	0.7221	0.8685	0.004
Mof_H 	H 	0.0856	0.7385	0.8756	0.036
Mof_H 	H 	0.932	0.0262	0.6668	0
Mof_H 	H 	0.9452	0.0382	0.8836	-0.001
Mof_H 	H 	0.7325	0.0346	0.8482	-0.017
Mof_H 	H 	0.0512	0.4859	0.843	-0.063
Mof_H 	H 	0.1312	0.5113	0.7759	-0.06
Mof_H 	H 	0.0245	0.6106	0.8781	0.022
Mof_H 	H 	0.1609	0.5879	0.88	-0.02
Mof_H 	H 	0.0552	0.6706	0.763	0.03
Mof_H 	H 	0.1921	0.6482	0.7655	-0.003
Mof_H 	H 	0.7124	0.1098	0.346	-0.05
Mof_H 	H 	0.7003	0.2406	0.3124	0.013
Mof_H 	H 	0.6415	0.1181	0.134	-0.024
Mof_H 	H 	0.724	0.2779	0.1315	0.015
Mof_H 	H 	0.5856	0.2615	0.1244	0.057
Mof_H 	H 	0.432	0.9738	0.3332	-0.025
Mof_H 	H 	0.4452	0.9618	0.1164	-0.024
Mof_H 	H 	0.2325	0.9654	0.1518	-0.02
Mof_H 	H 	0.5512	0.5141	0.157	-0.048
Mof_H 	H 	0.6312	0.4887	0.2241	-0.057
Mof_H 	H 	0.5245	0.3894	0.1219	0.064
Mof_H 	H 	0.6609	0.4121	0.12	0.003
Mof_H 	H 	0.5552	0.3294	0.237	0.054
Mof_H 	H 	0.6921	0.3518	0.2345	0.004
Mof_H 	H 	0.4624	0.846	0.3902	-0.052
Mof_H 	H 	0.4503	0.8124	0.2594	0.01
Mof_H 	H 	0.3915	0.634	0.3819	-0.027
Mof_H 	H 	0.474	0.6315	0.2221	0.01
Mof_H 	H 	0.3356	0.6244	0.2385	0.056
Mof_H 	H 	0.182	0.8332	0.5262	-0.034
Mof_H 	H 	0.1952	0.6164	0.5382	-0.066
Mof_H 	H 	0.9825	0.6518	0.5346	0.117
Mof_H 	H 	0.3012	0.657	0.9859	-0.055
Mof_H 	H 	0.3812	0.7241	0.0113	-0.068
Mof_H 	H 	0.2745	0.6219	0.1106	0.063
Mof_H 	H 	0.4109	0.62	0.0879	0
Mof_H 	H 	0.3052	0.737	0.1706	0.052
Mof_H 	H 	0.4421	0.7345	0.1482	-0.004
Mof_H 	H 	0.9624	0.154	0.6098	-0.034
Mof_H 	H 	0.9503	0.1876	0.7406	0.018
Mof_H 	H 	0.8915	0.366	0.6181	-0.021
Mof_H 	H 	0.974	0.3685	0.7779	0.029
Mof_H 	H 	0.8356	0.3756	0.7615	0.059
Mof_H 	H 	0.682	0.1668	0.4738	-0.024
Mof_H 	H 	0.6952	0.3836	0.4618	-0.021
Mof_H 	H 	0.4825	0.3482	0.4654	-0.018
Mof_H 	H 	0.8012	0.343	0.0141	-0.038
Mof_H 	H 	0.8812	0.2759	0.9887	-0.047
Mof_H 	H 	0.7745	0.3781	0.8894	0.064
Mof_H 	H 	0.9109	0.38	0.9121	0.014
Mof_H 	H 	0.8052	0.263	0.8294	0.054
Mof_H 	H 	0.9421	0.2655	0.8518	0.01
Mof_H 	H 	0.0376	0.6098	0.154	-0.071
Mof_H 	H 	0.0497	0.7406	0.1876	0.001
Mof_H 	H 	0.1085	0.6181	0.366	-0.032
Mof_H 	H 	0.026	0.7779	0.3685	-0.015
Mof_H 	H 	0.1644	0.7615	0.3756	0.053
Mof_H 	H 	0.318	0.4738	0.1668	-0.024
Mof_H 	H 	0.3048	0.4618	0.3836	-0.026
Mof_H 	H 	0.5175	0.4654	0.3482	-0.013
Mof_H 	H 	0.1988	0.0141	0.343	-0.067
Mof_H 	H 	0.1188	0.9887	0.2759	-0.085
Mof_H 	H 	0.2255	0.8894	0.3781	0.065
Mof_H 	H 	0.0891	0.9121	0.38	-0.014
Mof_H 	H 	0.1948	0.8294	0.263	0.051
Mof_H 	H 	0.0579	0.8518	0.2655	-0.02
Mof_H 	H 	0.5376	0.3902	0.846	-0.054
Mof_H 	H 	0.5497	0.2594	0.8124	0.007
Mof_H 	H 	0.6085	0.3819	0.634	-0.027
Mof_H 	H 	0.526	0.2221	0.6315	0.003
Mof_H 	H 	0.6644	0.2385	0.6244	0.056
Mof_H 	H 	0.818	0.5262	0.8332	-0.014
Mof_H 	H 	0.8048	0.5382	0.6164	0.019
Mof_H 	H 	0.0175	0.5346	0.6518	-0.151
Mof_H 	H 	0.6988	0.9859	0.657	-0.054
Mof_H 	H 	0.6188	0.0113	0.7241	-0.07
Mof_H 	H 	0.7255	0.1106	0.6219	0.068
Mof_H 	H 	0.5891	0.0879	0.62	0
Mof_H 	H 	0.6948	0.1706	0.737	0.051
Mof_H 	H 	0.5579	0.1482	0.7345	-0.009
Mof_H 	H 	0.7876	0.654	0.8902	-0.048
Mof_H 	H 	0.7997	0.6876	0.7594	0.013
Mof_H 	H 	0.8585	0.866	0.8819	-0.018
Mof_H 	H 	0.776	0.8685	0.7221	0.009
Mof_H 	H 	0.9144	0.8756	0.7385	0.074
Mof_H 	H 	0.068	0.6668	0.0262	-0.046
Mof_H 	H 	0.0548	0.8836	0.0382	-0.043
Mof_H 	H 	0.2675	0.8482	0.0346	-0.016
Mof_H 	H 	0.9488	0.843	0.4859	-0.045
Mof_H 	H 	0.8688	0.7759	0.5113	-0.075
Mof_H 	H 	0.9755	0.8781	0.6106	0.105
Mof_H 	H 	0.8391	0.88	0.5879	0.017
Mof_H 	H 	0.9448	0.763	0.6706	0.074
Mof_H 	H 	0.8079	0.7655	0.6482	-0.008
Mof_H 	H 	0.2876	0.346	0.1098	-0.055
Mof_H 	H 	0.2997	0.3124	0.2406	0.005
Mof_H 	H 	0.3585	0.134	0.1181	-0.026
Mof_H 	H 	0.276	0.1315	0.2779	-0
Mof_H 	H 	0.4144	0.1244	0.2615	0.057
Mof_H 	H 	0.568	0.3332	0.9738	-0.024
Mof_H 	H 	0.5548	0.1164	0.9618	-0.026
Mof_H 	H 	0.7675	0.1518	0.9654	-0.01
Mof_H 	H 	0.4488	0.157	0.5141	-0.058
Mof_H 	H 	0.3688	0.2241	0.4887	-0.078
Mof_H 	H 	0.4755	0.1219	0.3894	0.067
Mof_H 	H 	0.3391	0.12	0.4121	-0.004
Mof_H 	H 	0.4448	0.237	0.3294	0.049
Mof_H 	H 	0.3079	0.2345	0.3518	-0.017
Mof_C 	C 	0.1971	0.87206	0.70154	-0.026
Mof_C 	C 	0.1901	0.79962	0.71944	-0.053
Mof_C 	C 	0.1583	0.86802	0.8173	0.034
Mof_C 	C 	0.1504	0.73005	0.84041	-0.063
Mof_C 	C 	0.9096	0.02887	0.71658	0.082
Mof_C 	C 	0.9161	0.0353	0.83517	0
Mof_C 	C 	0.7982	0.0335	0.8161	-0.016
Mof_C 	C 	0.0628	0.52509	0.80663	-0.053
Mof_C 	C 	0.0928	0.5967	0.84732	-0.112
Mof_C 	C 	0.1229	0.6611	0.79586	-0.084
Mof_C 	C 	0.6971	0.12794	0.29846	-0.008
Mof_C 	C 	0.6901	0.20038	0.28056	-0.039
Mof_C 	C 	0.6583	0.13198	0.1827	0.054
Mof_C 	C 	0.6504	0.26995	0.15959	-0.069
Mof_C 	C 	0.4096	0.97113	0.28342	0.083
Mof_C 	C 	0.4161	0.9647	0.16483	-0.004
Mof_C 	C 	0.2982	0.9665	0.1839	-0.02
Mof_C 	C 	0.5628	0.47491	0.19337	0.023
Mof_C 	C 	0.5928	0.4033	0.15268	-0.149
Mof_C 	C 	0.6229	0.3389	0.20414	-0.066
Mof_C 	C 	0.4471	0.79846	0.37206	-0.012
Mof_C 	C 	0.4401	0.78056	0.29962	-0.041
Mof_C 	C 	0.4083	0.6827	0.36802	0.05
Mof_C 	C 	0.4004	0.65959	0.23005	-0.071
Mof_C 	C 	0.1596	0.78342	0.52887	0.081
Mof_C 	C 	0.1661	0.66483	0.5353	0.096
Mof_C 	C 	0.0482	0.6839	0.5335	-0.228
Mof_C 	C 	0.3128	0.69337	0.02509	0.031
Mof_C 	C 	0.3428	0.65268	0.0967	-0.156
Mof_C 	C 	0.3729	0.70414	0.1611	-0.061
Mof_C 	C 	0.9471	0.20154	0.62794	-0.009
Mof_C 	C 	0.9401	0.21944	0.70038	-0.032
Mof_C 	C 	0.9083	0.3173	0.63198	0.058
Mof_C 	C 	0.9004	0.34041	0.76995	-0.074
Mof_C 	C 	0.6596	0.21658	0.47113	0.083
Mof_C 	C 	0.6661	0.33517	0.4647	-0.003
Mof_C 	C 	0.5482	0.3161	0.4665	-0.02
Mof_C 	C 	0.8128	0.30663	0.97491	0.014
Mof_C 	C 	0.8428	0.34732	0.9033	-0.149
Mof_C 	C 	0.8729	0.29586	0.8389	-0.064
Mof_C 	C 	0.0529	0.62794	0.20154	-0.02
Mof_C 	C 	0.0599	0.70038	0.21944	-0.054
Mof_C 	C 	0.0917	0.63198	0.3173	0.038
Mof_C 	C 	0.0996	0.76995	0.34041	-0.068
Mof_C 	C 	0.3404	0.47113	0.21658	0.081
Mof_C 	C 	0.3339	0.4647	0.33517	-0.004
Mof_C 	C 	0.4518	0.4665	0.3161	-0.021
Mof_C 	C 	0.1872	0.97491	0.30663	0.044
Mof_C 	C 	0.1572	0.9033	0.34732	-0.161
Mof_C 	C 	0.1271	0.8389	0.29586	-0.06
Mof_C 	C 	0.5529	0.37206	0.79846	-0.017
Mof_C 	C 	0.5599	0.29962	0.78056	-0.046
Mof_C 	C 	0.5917	0.36802	0.6827	0.045
Mof_C 	C 	0.5996	0.23005	0.65959	-0.073
Mof_C 	C 	0.8404	0.52887	0.78342	0.084
Mof_C 	C 	0.8339	0.5353	0.66483	-0.104
Mof_C 	C 	0.9518	0.5335	0.6839	0.192
Mof_C 	C 	0.6872	0.02509	0.69337	0.036
Mof_C 	C 	0.6572	0.0967	0.65268	-0.161
Mof_C 	C 	0.6271	0.1611	0.70414	-0.058
Mof_C 	C 	0.8029	0.70154	0.87206	-0.002
Mof_C 	C 	0.8099	0.71944	0.79962	-0.033
Mof_C 	C 	0.8417	0.8173	0.86802	0.062
Mof_C 	C 	0.8496	0.84041	0.73005	-0.078
Mof_C 	C 	0.0904	0.71658	0.02887	0.084
Mof_C 	C 	0.0839	0.83517	0.0353	-0.007
Mof_C 	C 	0.2018	0.8161	0.0335	-0.023
Mof_C 	C 	0.9372	0.80663	0.52509	0.108
Mof_C 	C 	0.9072	0.84732	0.5967	-0.196
Mof_C 	C 	0.8771	0.79586	0.6611	-0.042
Mof_C 	C 	0.3029	0.29846	0.12794	-0.02
Mof_C 	C 	0.3099	0.28056	0.20038	-0.047
Mof_C 	C 	0.3417	0.1827	0.13198	0.043
Mof_C 	C 	0.3496	0.15959	0.26995	-0.075
Mof_C 	C 	0.5904	0.28342	0.97113	0.081
Mof_C 	C 	0.5839	0.16483	0.9647	-0.002
Mof_C 	C 	0.7018	0.1839	0.9665	-0.022
Mof_C 	C 	0.4372	0.19337	0.47491	0.038
Mof_C 	C 	0.4072	0.15268	0.4033	-0.164
Mof_C 	C 	0.3771	0.20414	0.3389	-0.055
Mof_N 	N 	0.165	0.79699	0.79344	-0.129
Mof_N 	N 	0.1787	0.91516	0.76268	-0.266
Mof_N 	N 	0.9867	0.03243	0.77245	-0.21
Mof_N 	N 	0.9551	0.52957	0.75951	-0.125
Mof_N 	N 	0.665	0.20301	0.20656	-0.121
Mof_N 	N 	0.6787	0.08484	0.23732	-0.255
Mof_N 	N 	0.4867	0.96757	0.22755	-0.242
Mof_N 	N 	0.4551	0.47043	0.24049	-0.137
Mof_N 	N 	0.415	0.70656	0.29699	-0.122
Mof_N 	N 	0.4287	0.73732	0.41516	-0.26
Mof_N 	N 	0.2367	0.72755	0.53243	-0.258
Mof_N 	N 	0.2051	0.74049	0.02957	-0.14
Mof_N 	N 	0.915	0.29344	0.70301	-0.12
Mof_N 	N 	0.9287	0.26268	0.58484	-0.253
Mof_N 	N 	0.7367	0.27245	0.46757	-0.241
Mof_N 	N 	0.7051	0.25951	0.97043	-0.135
Mof_N 	N 	0.085	0.70301	0.29344	-0.127
Mof_N 	N 	0.0713	0.58484	0.26268	-0.267
Mof_N 	N 	0.2633	0.46757	0.27245	-0.244
Mof_N 	N 	0.2949	0.97043	0.25951	-0.142
Mof_N 	N 	0.585	0.29699	0.70656	-0.124
Mof_N 	N 	0.5713	0.41516	0.73732	-0.261
Mof_N 	N 	0.7633	0.53243	0.72755	-0.226
Mof_N 	N 	0.7949	0.02957	0.74049	-0.138
Mof_N 	N 	0.835	0.79344	0.79699	-0.118
Mof_N 	N 	0.8213	0.76268	0.91516	-0.252
Mof_N 	N 	0.0133	0.77245	0.03243	-0.27
Mof_N 	N 	0.0449	0.75951	0.52957	-0.15
Mof_N 	N 	0.335	0.20656	0.20301	-0.125
Mof_N 	N 	0.3213	0.23732	0.08484	-0.262
Mof_N 	N 	0.5133	0.22755	0.96757	-0.243
Mof_N 	N 	0.5449	0.24049	0.47043	-0.14
Mof_O 	O 	0.13277	0.02592	0.02745	-0.913
Mof_O 	O 	0.19447	0.02936	0.87701	-0.836
Mof_O 	O 	0.25166	0.96696	0.52073	-0.893
Mof_O 	O 	0.16079	0.03375	0.65069	-0.857
Mof_O 	O 	0.63277	0.97408	0.97255	-0.892
Mof_O 	O 	0.69447	0.97064	0.12299	-0.802
Mof_O 	O 	0.75166	0.03304	0.47927	-0.877
Mof_O 	O 	0.66079	0.96625	0.34931	-0.816
Mof_O 	O 	0.38277	0.47255	0.52592	-0.897
Mof_O 	O 	0.44447	0.62299	0.52936	-0.808
Mof_O 	O 	0.50166	0.97927	0.46696	-0.889
Mof_O 	O 	0.41079	0.84931	0.53375	-0.823
Mof_O 	O 	0.88277	0.52745	0.47408	-0.855
Mof_O 	O 	0.94447	0.37701	0.47064	-0.761
Mof_O 	O 	0.00166	0.02073	0.53304	-0.961
Mof_O 	O 	0.91079	0.15069	0.46625	-0.797
Mof_O 	O 	0.11723	0.47408	0.52745	-0.921
Mof_O 	O 	0.05553	0.47064	0.37701	-0.839
Mof_O 	O 	0.99834	0.53304	0.02073	-0.823
Mof_O 	O 	0.08921	0.46625	0.15069	-0.849
Mof_O 	O 	0.61723	0.52592	0.47255	-0.892
Mof_O 	O 	0.55553	0.52936	0.62299	-0.809
Mof_O 	O 	0.49834	0.46696	0.97927	-0.889
Mof_O 	O 	0.58921	0.53375	0.84931	-0.825
Mof_O 	O 	0.86723	0.02745	0.02592	-0.851
Mof_O 	O 	0.80553	0.87701	0.02936	-0.789
Mof_O 	O 	0.74834	0.52073	0.96696	-0.882
Mof_O 	O 	0.83921	0.65069	0.03375	-0.796
Mof_O 	O 	0.36723	0.97255	0.97408	-0.891
Mof_O 	O 	0.30553	0.12299	0.97064	-0.821
Mof_O 	O 	0.24834	0.47927	0.03304	-0.897
Mof_O 	O 	0.33921	0.34931	0.96625	-0.836
_end
