data_functionalizedCrystal
_audit_creation_method	'EQeq! by Chris Wilmer'
_symmetry_space_group_name_H-M	'P1'
_symmetry_Int_Tables_number	1
_symmetry_cell_setting	triclinic
loop_
_symmetry_equiv_pos_as_xyz
  x,y,z
_cell_length_a	5.0432
_cell_length_b	7.2468
_cell_length_c	8.3499
_cell_angle_alpha	107.489
_cell_angle_beta	92.444
_cell_angle_gamma	109.338
loop_
_atom_site_label
_atom_site_type_symbol
_atom_site_fract_x
_atom_site_fract_y
_atom_site_fract_z
_atom_site_charge
Mof_Ga	Ga	5.2402e-17	0.5	-0	1.722
Mof_Ga	Ga	0.5	0	-0	1.185
Mof_P 	P 	0.5127	0.54637	0.77603	0.541
Mof_P 	P 	0.4873	0.45363	0.22397	0.56
Mof_H 	H 	0.2196	0.479	0.5298	0.02
Mof_H 	H 	0.343	0.3026	0.5084	0.028
Mof_H 	H 	0.7804	0.521	0.4702	0.179
Mof_H 	H 	0.657	0.6974	0.4916	0.189
Mof_C 	C 	0.3916	0.4517	0.5503	-0.099
Mof_C 	C 	0.6084	0.5483	0.4497	-0.296
Mof_O 	O 	0.269	0.4336	0.8557	-0.382
Mof_O 	O 	0.5931	0.7814	0.8368	-0.193
Mof_O 	O 	0.7744	0.4903	0.7995	-0.29
Mof_O 	O 	0.731	0.5664	0.1443	-0.536
Mof_O 	O 	0.4069	0.2186	0.1632	-0.608
Mof_O 	O 	0.2256	0.5097	0.2005	-0.616
Mof_F 	F 	0.1947	0.7972	0.0589	-0.897
Mof_F 	F 	0.8053	0.2028	0.9411	-0.507
_end
