# CIF file generated by openbabel 3.1.0, see https://openbabel.org
data_I
_chemical_name_common 'image0'
_cell_length_a 15.4488
_cell_length_b 18.1141
_cell_length_c 17.5541
_cell_angle_alpha 90
_cell_angle_beta 103.171
_cell_angle_gamma 90
_space_group_name_H-M_alt 'P 1'
_space_group_name_Hall 'P 1'
loop_
    _symmetry_equiv_pos_as_xyz
    x,y,z
loop_
    _atom_site_label
    _atom_site_type_symbol
    _atom_site_fract_x
    _atom_site_fract_y
    _atom_site_fract_z
    _atom_site_occupancy
    C1       C        0.96180    0.93460    0.66860    1.000
    C2       C        0.97290    0.86260    0.71200    1.000
    C3       C        0.06060    0.83880    0.74120    1.000
    H1       H        0.10860    0.86770    0.73240    1.000
    C4       C        0.07740    0.77400    0.78250    1.000
    H2       H        0.13700    0.75830    0.80210    1.000
    C5       C        0.00810    0.73160    0.79560    1.000
    C6       C        0.92000    0.75380    0.76490    1.000
    H3       H        0.87260    0.72330    0.77230    1.000
    C7       C        0.90140    0.81870    0.72450    1.000
    C8       C        0.73400    0.80790    0.69620    1.000
    C9       C        0.65280    0.84900    0.66100    1.000
    H4       H        0.65670    0.86520    0.60800    1.000
    H5       H        0.65070    0.89400    0.69260    1.000
    C10      C        0.56670    0.80710    0.65440    1.000
    H6       H        0.51710    0.83690    0.62550    1.000
    H7       H        0.55790    0.79660    0.70680    1.000
    H8       H        0.56950    0.76060    0.62650    1.000
    C11      C        0.02400    0.66020    0.84060    1.000
    C12      C        0.69130    0.99600    0.52360    1.000
    C13      C        0.59240    0.99560    0.51920    1.000
    C14      C        0.54870    0.05670    0.54040    1.000
    C15      C        0.45680    0.05580    0.53010    1.000
    H9       H        0.42700    0.09760    0.54460    1.000
    C16      C        0.40860    0.99380    0.49880    1.000
    C17      C        0.45220    0.93270    0.47760    1.000
    H10      H        0.41930    0.89030    0.45620    1.000
    C18      C        0.54410    0.93360    0.48790    1.000
    H11      H        0.57400    0.89180    0.47350    1.000
    C19      C        0.56760    0.19570    0.59450    1.000
    C20      C        0.64550    0.24750    0.62540    1.000
    H12      H        0.69430    0.22000    0.66020    1.000
    H13      H        0.66810    0.26760    0.58120    1.000
    C21      C        0.61690    0.30660    0.66770    1.000
    H14      H        0.66650    0.34070    0.68610    1.000
    H15      H        0.59690    0.28660    0.71270    1.000
    H16      H        0.56780    0.33300    0.63330    1.000
    N1       N        0.81100    0.84000    0.69300    1.000
    H17      H        0.80510    0.88180    0.66690    1.000
    N2       N        0.59520    0.12780    0.56820    1.000
    H18      H        0.65210    0.12710    0.56800    1.000
    O1       O        0.02718    0.96178    0.64968    1.000
    O2       O        0.88355    0.96327    0.65241    1.000
    O3       O        0.72900    0.74700    0.72640    1.000
    O4       O        0.95937    0.62947    0.85842    1.000
    O5       O        0.10329    0.63753    0.85696    1.000
    O6       O        0.72708    0.93789    0.51210    1.000
    O7       O        0.73328    0.05633    0.54670    1.000
    O8       O        0.49670    0.20660    0.60090    1.000
    O9       O        0.93030    0.04500    0.50296    1.000
    Zn1      Zn       0.06087    0.04038    0.57324    1.000
    Zn2      Zn       0.86111    0.04729    0.58156    1.000
    H19      H        0.92200    0.08500    0.48300    1.000
    C22      C        0.03820    0.43460    0.83140    1.000
    C23      C        0.02710    0.36260    0.78800    1.000
    C24      C        0.93940    0.33880    0.75880    1.000
    H20      H        0.89140    0.36770    0.76760    1.000
    C25      C        0.92260    0.27400    0.71750    1.000
    H21      H        0.86300    0.25830    0.69790    1.000
    C26      C        0.99190    0.23160    0.70440    1.000
    C27      C        0.08000    0.25380    0.73510    1.000
    H22      H        0.12740    0.22330    0.72770    1.000
    C28      C        0.09860    0.31870    0.77550    1.000
    C29      C        0.26600    0.30790    0.80380    1.000
    C30      C        0.34720    0.34900    0.83900    1.000
    H23      H        0.34330    0.36520    0.89200    1.000
    H24      H        0.34930    0.39400    0.80740    1.000
    C31      C        0.43330    0.30710    0.84560    1.000
    H25      H        0.48290    0.33690    0.87450    1.000
    H26      H        0.44210    0.29660    0.79320    1.000
    H27      H        0.43050    0.26060    0.87350    1.000
    C32      C        0.97600    0.16020    0.65940    1.000
    C33      C        0.30870    0.49600    0.97640    1.000
    C34      C        0.40760    0.49560    0.98080    1.000
    C35      C        0.45130    0.55670    0.95960    1.000
    C36      C        0.54320    0.55580    0.96990    1.000
    H28      H        0.57300    0.59760    0.95540    1.000
    C37      C        0.59140    0.49380    0.00120    1.000
    C38      C        0.54780    0.43270    0.02240    1.000
    H29      H        0.58070    0.39030    0.04380    1.000
    C39      C        0.45590    0.43360    0.01210    1.000
    H30      H        0.42600    0.39180    0.02650    1.000
    C40      C        0.43240    0.69570    0.90550    1.000
    C41      C        0.35450    0.74750    0.87460    1.000
    H31      H        0.30570    0.72000    0.83980    1.000
    H32      H        0.33190    0.76760    0.91880    1.000
    C42      C        0.38310    0.80660    0.83230    1.000
    H33      H        0.33350    0.84070    0.81390    1.000
    H34      H        0.40310    0.78660    0.78730    1.000
    H35      H        0.43220    0.83300    0.86670    1.000
    N3       N        0.18900    0.34000    0.80700    1.000
    H36      H        0.19490    0.38180    0.83310    1.000
    N4       N        0.40480    0.62780    0.93180    1.000
    H37      H        0.34790    0.62710    0.93200    1.000
    O10      O        0.97282    0.46178    0.85032    1.000
    O11      O        0.11645    0.46327    0.84759    1.000
    O12      O        0.27100    0.24700    0.77360    1.000
    O13      O        0.04063    0.12947    0.64158    1.000
    O14      O        0.89671    0.13753    0.64304    1.000
    O15      O        0.27292    0.43789    0.98790    1.000
    O16      O        0.26672    0.55633    0.95330    1.000
    O17      O        0.50330    0.70660    0.89910    1.000
    O18      O        0.06970    0.54500    0.99704    1.000
    Zn3      Zn       0.93913    0.54038    0.92676    1.000
    Zn4      Zn       0.13889    0.54729    0.91844    1.000
    H38      H        0.07800    0.58500    0.01700    1.000
    C43      C        0.03820    0.06540    0.33140    1.000
    C44      C        0.02710    0.13740    0.28800    1.000
    C45      C        0.93940    0.16120    0.25880    1.000
    H39      H        0.89140    0.13230    0.26760    1.000
    C46      C        0.92260    0.22600    0.21750    1.000
    H40      H        0.86300    0.24170    0.19790    1.000
    C47      C        0.99190    0.26840    0.20440    1.000
    C48      C        0.08000    0.24620    0.23510    1.000
    H41      H        0.12740    0.27670    0.22770    1.000
    C49      C        0.09860    0.18130    0.27550    1.000
    C50      C        0.26600    0.19210    0.30380    1.000
    C51      C        0.34720    0.15100    0.33900    1.000
    H42      H        0.34330    0.13480    0.39200    1.000
    H43      H        0.34930    0.10600    0.30740    1.000
    C52      C        0.43330    0.19290    0.34560    1.000
    H44      H        0.48290    0.16310    0.37450    1.000
    H45      H        0.44210    0.20340    0.29320    1.000
    H46      H        0.43050    0.23940    0.37350    1.000
    C53      C        0.97600    0.33980    0.15940    1.000
    C54      C        0.30870    0.00400    0.47640    1.000
    C55      C        0.40760    0.00440    0.48080    1.000
    C56      C        0.45130    0.94330    0.45960    1.000
    C57      C        0.54320    0.94420    0.46990    1.000
    H47      H        0.57300    0.90240    0.45540    1.000
    C58      C        0.59140    0.00620    0.50120    1.000
    C59      C        0.54780    0.06730    0.52240    1.000
    H48      H        0.58070    0.10970    0.54380    1.000
    C60      C        0.45590    0.06640    0.51210    1.000
    H49      H        0.42600    0.10820    0.52650    1.000
    C61      C        0.43240    0.80430    0.40550    1.000
    C62      C        0.35450    0.75250    0.37460    1.000
    H50      H        0.30570    0.78000    0.33980    1.000
    H51      H        0.33190    0.73240    0.41880    1.000
    C63      C        0.38310    0.69340    0.33230    1.000
    H52      H        0.33350    0.65930    0.31390    1.000
    H53      H        0.40310    0.71340    0.28730    1.000
    H54      H        0.43220    0.66700    0.36670    1.000
    N5       N        0.18900    0.16000    0.30700    1.000
    H55      H        0.19490    0.11820    0.33310    1.000
    N6       N        0.40480    0.87220    0.43180    1.000
    H56      H        0.34790    0.87290    0.43200    1.000
    O19      O        0.97282    0.03822    0.35032    1.000
    O20      O        0.11645    0.03673    0.34759    1.000
    O21      O        0.27100    0.25300    0.27360    1.000
    O22      O        0.04063    0.37053    0.14158    1.000
    O23      O        0.89671    0.36247    0.14304    1.000
    O24      O        0.27292    0.06211    0.48790    1.000
    O25      O        0.26672    0.94367    0.45330    1.000
    O26      O        0.50330    0.79340    0.39910    1.000
    O27      O        0.06970    0.95500    0.49704    1.000
    Zn5      Zn       0.93913    0.95962    0.42676    1.000
    Zn6      Zn       0.13889    0.95271    0.41844    1.000
    H57      H        0.07800    0.91500    0.51700    1.000
    C64      C        0.96180    0.56540    0.16860    1.000
    C65      C        0.97290    0.63740    0.21200    1.000
    C66      C        0.06060    0.66120    0.24120    1.000
    H58      H        0.10860    0.63230    0.23240    1.000
    C67      C        0.07740    0.72600    0.28250    1.000
    H59      H        0.13700    0.74170    0.30210    1.000
    C68      C        0.00810    0.76840    0.29560    1.000
    C69      C        0.92000    0.74620    0.26490    1.000
    H60      H        0.87260    0.77670    0.27230    1.000
    C70      C        0.90140    0.68130    0.22450    1.000
    C71      C        0.73400    0.69210    0.19620    1.000
    C72      C        0.65280    0.65100    0.16100    1.000
    H61      H        0.65670    0.63480    0.10800    1.000
    H62      H        0.65070    0.60600    0.19260    1.000
    C73      C        0.56670    0.69290    0.15440    1.000
    H63      H        0.51710    0.66310    0.12550    1.000
    H64      H        0.55790    0.70340    0.20680    1.000
    H65      H        0.56950    0.73940    0.12650    1.000
    C74      C        0.02400    0.83980    0.34060    1.000
    C75      C        0.69130    0.50400    0.02360    1.000
    C76      C        0.59240    0.50440    0.01920    1.000
    C77      C        0.54870    0.44330    0.04040    1.000
    C78      C        0.45680    0.44420    0.03010    1.000
    H66      H        0.42700    0.40240    0.04460    1.000
    C79      C        0.40860    0.50620    0.99880    1.000
    C80      C        0.45220    0.56730    0.97760    1.000
    H67      H        0.41930    0.60970    0.95620    1.000
    C81      C        0.54410    0.56640    0.98790    1.000
    H68      H        0.57400    0.60820    0.97350    1.000
    C82      C        0.56760    0.30430    0.09450    1.000
    C83      C        0.64550    0.25250    0.12540    1.000
    H69      H        0.69430    0.28000    0.16020    1.000
    H70      H        0.66810    0.23240    0.08120    1.000
    C84      C        0.61690    0.19340    0.16770    1.000
    H71      H        0.66650    0.15930    0.18610    1.000
    H72      H        0.59690    0.21340    0.21270    1.000
    H73      H        0.56780    0.16700    0.13330    1.000
    N7       N        0.81100    0.66000    0.19300    1.000
    H74      H        0.80510    0.61820    0.16690    1.000
    N8       N        0.59520    0.37220    0.06820    1.000
    H75      H        0.65210    0.37290    0.06800    1.000
    O28      O        0.02718    0.53822    0.14968    1.000
    O29      O        0.88355    0.53673    0.15241    1.000
    O30      O        0.72900    0.75300    0.22640    1.000
    O31      O        0.95937    0.87053    0.35842    1.000
    O32      O        0.10329    0.86247    0.35696    1.000
    O33      O        0.72708    0.56211    0.01210    1.000
    O34      O        0.73328    0.44367    0.04670    1.000
    O35      O        0.49670    0.29340    0.10090    1.000
    O36      O        0.93030    0.45500    0.00296    1.000
    Zn7      Zn       0.06087    0.45962    0.07324    1.000
    Zn8      Zn       0.86111    0.45271    0.08156    1.000
    H76      H        0.92200    0.41500    0.98300    1.000
