data_functionalizedCrystal
_audit_creation_method	'EQeq! by Chris Wilmer'
_symmetry_space_group_name_H-M	'P1'
_symmetry_Int_Tables_number	1
_symmetry_cell_setting	triclinic
loop_
_symmetry_equiv_pos_as_xyz
  x,y,z
_cell_length_a	20.0576
_cell_length_b	20.0574
_cell_length_c	20.0574
_cell_angle_alpha	109.471
_cell_angle_beta	109.471
_cell_angle_gamma	109.471
loop_
_atom_site_label
_atom_site_type_symbol
_atom_site_fract_x
_atom_site_fract_y
_atom_site_fract_z
_atom_site_charge
Mof_Co	Co	0.5	0	-0	1.161
Mof_Co	Co	3.66041e-17	0.5	-0	1.161
Mof_Co	Co	0.5	0.5	0.5	1.197
Mof_Co	Co	5.49062e-17	-3.66041e-17	0.5	1.161
Mof_H 	H 	0.7305	0.8485	0.6654	0.07
Mof_H 	H 	0.6655	0.92	0.0321	-0.02
Mof_H 	H 	0.1897	0.8922	0.6133	0.063
Mof_H 	H 	0.882	0.8169	0.1515	0.074
Mof_H 	H 	0.6133	0.1897	0.8922	0.063
Mof_H 	H 	0.8922	0.6133	0.1897	0.063
Mof_H 	H 	0.0321	0.1121	0.3666	-0.038
Mof_H 	H 	0.9349	0.6654	0.8169	0.1
Mof_H 	H 	0.8983	0.8051	0.3812	0.043
Mof_H 	H 	0.5764	0.2975	0.1897	0.057
Mof_H 	H 	0.7025	0.8103	0.4236	0.074
Mof_H 	H 	0.882	0.7305	0.0651	0.043
Mof_H 	H 	0.6133	0.7211	0.4236	0.062
Mof_H 	H 	0.2545	0.3345	0.3666	0.024
Mof_H 	H 	0.4829	0.3812	0.5761	0.042
Mof_H 	H 	0.3346	0.1831	0.0651	0.03
Mof_H 	H 	0.8485	0.6654	0.7305	0.069
Mof_H 	H 	0.8922	0.7025	0.2789	0.074
Mof_H 	H 	0.1831	0.8485	0.118	0.058
Mof_H 	H 	0.118	0.2695	0.9349	0.091
Mof_H 	H 	0.6334	0.9679	0.8879	0.092
Mof_H 	H 	0.8103	0.1078	0.3867	0.07
Mof_H 	H 	0.3346	0.2695	0.1515	0.062
Mof_H 	H 	0.6654	0.8169	0.9349	0.1
Mof_H 	H 	0.1078	0.3867	0.8103	0.07
Mof_H 	H 	0.0932	0.5761	0.1949	0.044
Mof_H 	H 	0.3812	0.8983	0.8051	0.043
Mof_H 	H 	0.6188	0.4239	0.5171	0.044
Mof_H 	H 	0.8169	0.9349	0.6654	0.1
Mof_H 	H 	0.3812	0.5761	0.4829	0.042
Mof_H 	H 	0.1017	0.4829	0.9068	0.04
Mof_H 	H 	0.4239	0.5171	0.6188	0.044
Mof_H 	H 	0.8169	0.1515	0.882	0.073
Mof_H 	H 	0.2975	0.1897	0.5764	0.057
Mof_H 	H 	0.92	0.0321	0.6655	-0.021
Mof_H 	H 	0.5171	0.0932	0.8983	0.046
Mof_H 	H 	0.5764	0.3867	0.2789	0.069
Mof_H 	H 	0.5761	0.1949	0.0932	0.044
Mof_H 	H 	0.6334	0.7455	0.6655	0.034
Mof_H 	H 	0.1897	0.5764	0.2975	0.057
Mof_H 	H 	0.2695	0.1515	0.3346	0.062
Mof_H 	H 	0.7211	0.4236	0.6133	0.062
Mof_H 	H 	0.3666	0.2545	0.3345	0.024
Mof_H 	H 	0.0321	0.6655	0.92	-0.021
Mof_H 	H 	0.7455	0.1121	0.08	0.021
Mof_H 	H 	0.8983	0.5171	0.0932	0.046
Mof_H 	H 	0.3867	0.8103	0.1078	0.07
Mof_H 	H 	0.0651	0.3346	0.1831	0.03
Mof_H 	H 	0.5761	0.4829	0.3812	0.042
Mof_H 	H 	0.08	0.9679	0.3345	0.083
Mof_H 	H 	0.3345	0.3666	0.2545	0.024
Mof_H 	H 	0.8103	0.4236	0.7025	0.074
Mof_H 	H 	0.9068	0.4239	0.8051	0.042
Mof_H 	H 	0.2975	0.7211	0.1078	0.057
Mof_H 	H 	0.4236	0.7025	0.8103	0.074
Mof_H 	H 	0.1078	0.2975	0.7211	0.057
Mof_H 	H 	0.9349	0.118	0.2695	0.091
Mof_H 	H 	0.7025	0.2789	0.8922	0.074
Mof_H 	H 	0.08	0.7455	0.1121	0.021
Mof_H 	H 	0.1017	0.1949	0.6188	0.043
Mof_H 	H 	0.1121	0.3666	0.0321	-0.038
Mof_H 	H 	0.9679	0.3345	0.08	0.083
Mof_H 	H 	0.7455	0.6655	0.6334	0.034
Mof_H 	H 	0.1121	0.08	0.7455	0.021
Mof_H 	H 	0.8051	0.9068	0.4239	0.042
Mof_H 	H 	0.1515	0.882	0.8169	0.073
Mof_H 	H 	0.8879	0.6334	0.9679	0.092
Mof_H 	H 	0.1949	0.6188	0.1017	0.043
Mof_H 	H 	0.5171	0.6188	0.4239	0.044
Mof_H 	H 	0.92	0.2545	0.8879	0.037
Mof_H 	H 	0.7305	0.0651	0.882	0.043
Mof_H 	H 	0.1831	0.0651	0.3346	0.03
Mof_H 	H 	0.7211	0.1078	0.2975	0.057
Mof_H 	H 	0.2789	0.8922	0.7025	0.074
Mof_H 	H 	0.1515	0.3346	0.2695	0.062
Mof_H 	H 	0.3666	0.0321	0.1121	-0.038
Mof_H 	H 	0.9068	0.1017	0.4829	0.04
Mof_H 	H 	0.6654	0.7305	0.8485	0.069
Mof_H 	H 	0.4236	0.6133	0.7211	0.062
Mof_H 	H 	0.3867	0.2789	0.5764	0.069
Mof_H 	H 	0.8879	0.92	0.2545	0.037
Mof_H 	H 	0.4239	0.8051	0.9068	0.042
Mof_H 	H 	0.3345	0.08	0.9679	0.083
Mof_H 	H 	0.8051	0.3812	0.8983	0.043
Mof_H 	H 	0.2545	0.8879	0.92	0.037
Mof_H 	H 	0.9679	0.8879	0.6334	0.092
Mof_H 	H 	0.2789	0.5764	0.3867	0.069
Mof_H 	H 	0.118	0.1831	0.8485	0.058
Mof_H 	H 	0.4829	0.9068	0.1017	0.04
Mof_H 	H 	0.0651	0.882	0.7305	0.043
Mof_H 	H 	0.1949	0.0932	0.5761	0.044
Mof_H 	H 	0.0932	0.8983	0.5171	0.046
Mof_H 	H 	0.6188	0.1017	0.1949	0.043
Mof_H 	H 	0.8485	0.118	0.1831	0.058
Mof_H 	H 	0.6655	0.6334	0.7455	0.034
Mof_H 	H 	0.2695	0.9349	0.118	0.091
Mof_C 	C 	0.561	0.665	0.4726	0.025
Mof_C 	C 	0.8921	0.6183	0.1452	-0.068
Mof_C 	C 	0.5274	0.439	0.335	0.033
Mof_C 	C 	0.1383	0.8879	0.6854	0.016
Mof_C 	C 	0.8076	0.335	0.896	0.043
Mof_C 	C 	0.1237	0.0136	0.3835	-0.054
Mof_C 	C 	0.9275	0.6159	0.8136	-0.167
Mof_C 	C 	0.2531	0.1452	0.5269	-0.068
Mof_C 	C 	0.335	0.896	0.8076	0.043
Mof_C 	C 	0.1924	0.0884	0.5274	0.009
Mof_C 	C 	0.1452	0.8921	0.6183	-0.068
Mof_C 	C 	0.9275	0.1139	0.3116	-0.173
Mof_C 	C 	0.2738	0.5269	0.3817	-0.1
Mof_C 	C 	0.5471	0.6854	0.7975	0.032
Mof_C 	C 	0.665	0.4726	0.561	0.025
Mof_C 	C 	0.3841	0.1864	0.0725	-0.049
Mof_C 	C 	0.6854	0.7975	0.5471	0.032
Mof_C 	C 	0.8879	0.6854	0.1383	0.016
Mof_C 	C 	0.8899	0.6301	0.0136	-0.037
Mof_C 	C 	0.1121	0.2504	0.7975	0.024
Mof_C 	C 	0.2504	0.7975	0.1121	0.024
Mof_C 	C 	0.1101	0.1237	0.7402	0.042
Mof_C 	C 	0.7975	0.1121	0.2504	0.024
Mof_C 	C 	0.3116	0.1977	0.3841	-0.122
Mof_C 	C 	0.8763	0.9864	0.6165	0.158
Mof_C 	C 	0.8617	0.1121	0.3146	0.076
Mof_C 	C 	0.6183	0.1452	0.8921	-0.068
Mof_C 	C 	0.3699	0.9864	0.1101	0.155
Mof_C 	C 	0.5269	0.2531	0.1452	-0.068
Mof_C 	C 	0.1864	0.0725	0.3841	-0.049
Mof_C 	C 	0.0136	0.3835	0.1237	-0.054
Mof_C 	C 	0.1237	0.7402	0.1101	0.042
Mof_C 	C 	0.2025	0.8879	0.7496	0.065
Mof_C 	C 	0.6159	0.6884	0.8023	-0.098
Mof_C 	C 	0.0884	0.896	0.561	0.019
Mof_C 	C 	0.2025	0.4529	0.3146	0.058
Mof_C 	C 	0.6165	0.8763	0.9864	0.158
Mof_C 	C 	0.7262	0.1079	0.2531	-0.081
Mof_C 	C 	0.3835	0.3699	0.2598	0.057
Mof_C 	C 	0.6884	0.0725	0.8861	-0.051
Mof_C 	C 	0.7469	0.2738	0.8921	-0.1
Mof_C 	C 	0.3699	0.2598	0.3835	0.057
Mof_C 	C 	0.1977	0.8861	0.8136	-0.12
Mof_C 	C 	0.561	0.0884	0.896	0.019
Mof_C 	C 	0.8763	0.2598	0.8899	0.068
Mof_C 	C 	0.439	0.9116	0.104	0.042
Mof_C 	C 	0.4529	0.2504	0.1383	0.007
Mof_C 	C 	0.4726	0.561	0.665	0.025
Mof_C 	C 	0.5269	0.3817	0.2738	-0.1
Mof_C 	C 	0.6183	0.7262	0.4731	-0.08
Mof_C 	C 	0.8136	0.1977	0.8861	-0.12
Mof_C 	C 	0.7496	0.2025	0.8879	0.065
Mof_C 	C 	0.104	0.1924	0.665	0.016
Mof_C 	C 	0.2504	0.1383	0.4529	0.007
Mof_C 	C 	0.0725	0.8861	0.6884	-0.051
Mof_C 	C 	0.8861	0.6884	0.0725	-0.051
Mof_C 	C 	0.6301	0.0136	0.8899	-0.037
Mof_C 	C 	0.0884	0.5274	0.1924	0.009
Mof_C 	C 	0.8023	0.6159	0.6884	-0.098
Mof_C 	C 	0.6301	0.7402	0.6165	0.053
Mof_C 	C 	0.3817	0.8548	0.1079	-0.115
Mof_C 	C 	0.1079	0.2531	0.7262	-0.081
Mof_C 	C 	0.1139	0.1864	0.8023	-0.1
Mof_C 	C 	0.2531	0.7262	0.1079	-0.081
Mof_C 	C 	0.8921	0.7469	0.2738	-0.1
Mof_C 	C 	0.5471	0.7496	0.8617	0.081
Mof_C 	C 	0.5274	0.1924	0.0884	0.009
Mof_C 	C 	0.1121	0.3146	0.8617	0.076
Mof_C 	C 	0.8879	0.7496	0.2025	0.065
Mof_C 	C 	0.4529	0.3146	0.2025	0.058
Mof_C 	C 	0.896	0.8076	0.335	0.043
Mof_C 	C 	0.3835	0.1237	0.0136	-0.054
Mof_C 	C 	0.8899	0.8763	0.2598	0.068
Mof_C 	C 	0.7975	0.5471	0.6854	0.032
Mof_C 	C 	0.8548	0.1079	0.3817	-0.115
Mof_C 	C 	0.0136	0.8899	0.6301	-0.037
Mof_C 	C 	0.3146	0.8617	0.1121	0.076
Mof_C 	C 	0.3817	0.2738	0.5269	-0.1
Mof_C 	C 	0.7469	0.8548	0.4731	-0.112
Mof_C 	C 	0.8023	0.1139	0.1864	-0.1
Mof_C 	C 	0.335	0.5274	0.439	0.033
Mof_C 	C 	0.6165	0.6301	0.7402	0.053
Mof_C 	C 	0.0725	0.3841	0.1864	-0.049
Mof_C 	C 	0.9116	0.4726	0.8076	0.05
Mof_C 	C 	0.7496	0.8617	0.5471	0.081
Mof_C 	C 	0.1864	0.8023	0.1139	-0.1
Mof_C 	C 	0.439	0.335	0.5274	0.033
Mof_C 	C 	0.1101	0.3699	0.9864	0.155
Mof_C 	C 	0.4726	0.8076	0.9116	0.05
Mof_C 	C 	0.896	0.561	0.0884	0.019
Mof_C 	C 	0.2598	0.3835	0.3699	0.057
Mof_C 	C 	0.9864	0.1101	0.3699	0.155
Mof_C 	C 	0.7262	0.4731	0.6183	-0.08
Mof_C 	C 	0.8548	0.4731	0.7469	-0.112
Mof_C 	C 	0.1079	0.3817	0.8548	-0.115
Mof_C 	C 	0.3841	0.3116	0.1977	-0.122
Mof_C 	C 	0.7402	0.1101	0.1237	0.042
Mof_C 	C 	0.665	0.104	0.1924	0.016
Mof_C 	C 	0.9864	0.6165	0.8763	0.158
Mof_C 	C 	0.3146	0.2025	0.4529	0.058
Mof_C 	C 	0.4731	0.6183	0.7262	-0.08
Mof_C 	C 	0.2738	0.8921	0.7469	-0.1
Mof_C 	C 	0.7402	0.6165	0.6301	0.053
Mof_C 	C 	0.1383	0.4529	0.2504	0.007
Mof_C 	C 	0.9116	0.104	0.439	0.042
Mof_C 	C 	0.6884	0.8023	0.6159	-0.098
Mof_C 	C 	0.6854	0.1383	0.8879	0.016
Mof_C 	C 	0.1139	0.3116	0.9275	-0.173
Mof_C 	C 	0.8136	0.9275	0.6159	-0.167
Mof_C 	C 	0.4731	0.7469	0.8548	-0.112
Mof_C 	C 	0.8076	0.9116	0.4726	0.05
Mof_C 	C 	0.1452	0.5269	0.2531	-0.068
Mof_C 	C 	0.104	0.439	0.9116	0.042
Mof_C 	C 	0.6159	0.8136	0.9275	-0.167
Mof_C 	C 	0.2598	0.8899	0.8763	0.068
Mof_C 	C 	0.8861	0.8136	0.1977	-0.12
Mof_C 	C 	0.3116	0.9275	0.1139	-0.173
Mof_C 	C 	0.1924	0.665	0.104	0.016
Mof_C 	C 	0.1977	0.3841	0.3116	-0.122
Mof_C 	C 	0.8617	0.5471	0.7496	0.081
Mof_N 	N 	0.8724	0.3254	0.8964	-0.069
Mof_N 	N 	0.6746	0.1036	0.1276	-0.066
Mof_N 	N 	0.024	0.8964	0.571	-0.064
Mof_N 	N 	0.547	0.8724	0.976	-0.07
Mof_N 	N 	0.8724	0.976	0.547	-0.07
Mof_N 	N 	0.1036	0.429	0.976	-0.071
Mof_N 	N 	0.453	0.429	0.3254	-0.069
Mof_N 	N 	0.571	0.6746	0.547	-0.065
Mof_N 	N 	0.8964	0.8724	0.3254	-0.069
Mof_N 	N 	0.024	0.453	0.1276	-0.064
Mof_N 	N 	0.1276	0.024	0.453	-0.064
Mof_N 	N 	0.429	0.3254	0.453	-0.069
Mof_N 	N 	0.8964	0.571	0.024	-0.064
Mof_N 	N 	0.976	0.1036	0.429	-0.071
Mof_N 	N 	0.1036	0.1276	0.6746	-0.066
Mof_N 	N 	0.976	0.547	0.8724	-0.07
Mof_N 	N 	0.429	0.976	0.1036	-0.071
Mof_N 	N 	0.547	0.571	0.6746	-0.065
Mof_N 	N 	0.571	0.024	0.8964	-0.064
Mof_N 	N 	0.3254	0.8964	0.8724	-0.069
Mof_N 	N 	0.6746	0.547	0.571	-0.065
Mof_N 	N 	0.1276	0.6746	0.1036	-0.066
Mof_N 	N 	0.453	0.1276	0.024	-0.064
Mof_N 	N 	0.3254	0.453	0.429	-0.069
Mof_O 	O 	0.967	0.4517	0.0671	-0.247
Mof_O 	O 	0.1001	0.4847	0.033	-0.294
Mof_O 	O 	0.4517	0.4847	0.3846	-0.265
Mof_O 	O 	0.5153	0.967	0.8999	-0.226
Mof_O 	O 	0.4847	0.3846	0.4517	-0.265
Mof_O 	O 	0.5483	0.5153	0.6154	-0.264
Mof_O 	O 	0.1001	0.0671	0.6154	-0.282
Mof_O 	O 	0.8999	0.5153	0.967	-0.226
Mof_O 	O 	0.5153	0.6154	0.5483	-0.264
Mof_O 	O 	0.6154	0.5483	0.5153	-0.264
Mof_O 	O 	0.8999	0.9329	0.3846	-0.237
Mof_O 	O 	0.9329	0.033	0.5483	-0.27
Mof_O 	O 	0.4847	0.033	0.1001	-0.294
Mof_O 	O 	0.033	0.1001	0.4847	-0.294
Mof_O 	O 	0.3846	0.4517	0.4847	-0.265
Mof_O 	O 	0.3846	0.8999	0.9329	-0.237
Mof_O 	O 	0.4517	0.0671	0.967	-0.247
Mof_O 	O 	0.5483	0.9329	0.033	-0.27
Mof_O 	O 	0.967	0.8999	0.5153	-0.226
Mof_O 	O 	0.0671	0.967	0.4517	-0.247
Mof_O 	O 	0.033	0.5483	0.9329	-0.27
Mof_O 	O 	0.9329	0.3846	0.8999	-0.237
Mof_O 	O 	0.6154	0.1001	0.0671	-0.282
Mof_O 	O 	0.0671	0.6154	0.1001	-0.282
_end
