data_functionalizedCrystal
_audit_creation_method	'EQeq! by Chris Wilmer'
_symmetry_space_group_name_H-M	'P1'
_symmetry_Int_Tables_number	1
_symmetry_cell_setting	triclinic
loop_
_symmetry_equiv_pos_as_xyz
  x,y,z
_cell_length_a	17.129
_cell_length_b	6.6284
_cell_length_c	12.1816
_cell_angle_alpha	90
_cell_angle_beta	90
_cell_angle_gamma	90
loop_
_atom_site_label
_atom_site_type_symbol
_atom_site_fract_x
_atom_site_fract_y
_atom_site_fract_z
_atom_site_charge
Mof_O 	O 	0.08295	0.92756	0.08189	-0.181
Mof_O 	O 	0.43312	0.92799	0.39387	-2.698
Mof_C 	C 	0.22872	0.9367	0.19502	0.3
Mof_C 	C 	0.29944	0.93681	0.25417	0.763
Mof_H 	H 	0.20344	0.07928	0.171	-0.304
Mof_H 	H 	0.32573	0.07955	0.27542	-0.465
Mof_O 	O 	0.41958	0.0831	0.57835	-3.152
Mof_O 	O 	0.07025	0.08486	0.89497	-0.918
Mof_C 	C 	0.27318	0.0714	0.69256	-0.218
Mof_C 	C 	0.20192	0.07178	0.75098	-0.6
Mof_H 	H 	0.29906	0.92886	0.67006	0.31
Mof_H 	H 	0.1761	0.92868	0.77357	0.401
Mof_O 	O 	0.91868	0.42746	0.91654	-1.185
Mof_O 	O 	0.56964	0.42801	0.6031	-3.623
Mof_C 	C 	0.77142	0.4367	0.80673	-0.184
Mof_C 	C 	0.70082	0.43685	0.74719	0.261
Mof_H 	H 	0.79674	0.57957	0.83025	0.071
Mof_H 	H 	0.67486	0.57972	0.72493	-0.057
Mof_O 	O 	0.58352	0.58315	0.41688	-3.579
Mof_O 	O 	0.9325	0.58439	0.09914	-0.942
Mof_C 	C 	0.72987	0.57114	0.30225	0.328
Mof_C 	C 	0.80087	0.57158	0.24361	-0.108
Mof_H 	H 	0.70477	0.4286	0.32652	-0.088
Mof_H 	H 	0.82731	0.42877	0.22221	0.067
Mof_O 	O 	0.91829	0.08423	0.91904	-0.801
Mof_O 	O 	0.57171	0.08591	0.59858	-3.192
Mof_C 	C 	0.77155	0.07344	0.80614	-0.614
Mof_C 	C 	0.70097	0.07362	0.74645	-0.188
Mof_H 	H 	0.79709	0.93047	0.82929	0.417
Mof_H 	H 	0.67514	0.93071	0.72384	0.298
Mof_O 	O 	0.58293	0.92635	0.41246	-2.687
Mof_O 	O 	0.93337	0.92749	0.10242	-0.093
Mof_C 	C 	0.72994	0.9345	0.30253	0.758
Mof_C 	C 	0.8009	0.93487	0.2442	0.303
Mof_H 	H 	0.70489	0.07746	0.32704	-0.454
Mof_H 	H 	0.82734	0.07745	0.22321	-0.293
Mof_O 	O 	0.08348	0.585	0.079	-1.035
Mof_O 	O 	0.43136	0.58522	0.39797	-3.613
Mof_C 	C 	0.22857	0.5734	0.19548	-0.117
Mof_C 	C 	0.29926	0.57338	0.25488	0.331
Mof_H 	H 	0.20314	0.43077	0.17175	0.058
Mof_H 	H 	0.32534	0.43037	0.27655	-0.094
Mof_O 	O 	0.41998	0.42618	0.58233	-3.589
Mof_O 	O 	0.06916	0.42744	0.89141	-1.307
Mof_C 	C 	0.27313	0.43452	0.69225	0.24
Mof_C 	C 	0.20191	0.43507	0.75039	-0.171
Mof_H 	H 	0.29897	0.57742	0.66955	-0.048
Mof_H 	H 	0.17617	0.57802	0.77264	0.055
Mof_Al	Al	0.00184	0.00815	0.99891	1.377
Mof_Al	Al	0.50246	0.007	0.49631	12.227
Mof_Al	Al	0.0018	0.50804	0.99628	4.765
Mof_Al	Al	0.50149	0.50826	0.49995	15.854
Mof_O 	O 	0.00033	0.75904	0.93824	-1.936
Mof_C 	C 	0.40499	0.75581	0.36276	2.286
Mof_C 	C 	0.1141	0.75578	0.10647	0.682
Mof_C 	C 	0.33504	0.75518	0.28738	-0.79
Mof_C 	C 	0.19073	0.75512	0.16757	-0.1
Mof_O 	O 	0.50752	0.25915	0.43997	-6.323
Mof_C 	C 	0.09648	0.25525	0.85941	0.589
Mof_C 	C 	0.38857	0.25366	0.60574	2.163
Mof_C 	C 	0.16579	0.2539	0.78301	-0.058
Mof_C 	C 	0.31116	0.25317	0.6651	-0.655
Mof_O 	O 	0.00901	0.25908	0.05589	-1.417
Mof_C 	C 	0.59727	0.25599	0.63482	2.226
Mof_C 	C 	0.8871	0.25546	0.89295	0.571
Mof_C 	C 	0.66547	0.25545	0.713	-0.684
Mof_C 	C 	0.80956	0.25497	0.83393	-0.019
Mof_O 	O 	0.50121	0.75932	0.55804	-6.186
Mof_C 	C 	0.90602	0.75505	0.13439	0.675
Mof_C 	C 	0.61417	0.75373	0.38894	2.282
Mof_C 	C 	0.83658	0.75367	0.21089	-0.079
Mof_C 	C 	0.69136	0.75312	0.32891	-0.773
Mof_H 	H 	0.51416	0.26019	0.36979	1.762
Mof_H 	H 	0.50215	0.76047	0.62887	1.886
Mof_H 	H 	0.01841	0.26004	0.12543	0.401
Mof_H 	H 	0.99965	0.76007	0.86745	0.911
_end
