data_functionalizedCrystal
_audit_creation_method	'EQeq! by Chris Wilmer'
_symmetry_space_group_name_H-M	'P1'
_symmetry_Int_Tables_number	1
_symmetry_cell_setting	triclinic
loop_
_symmetry_equiv_pos_as_xyz
  x,y,z
_cell_length_a	10.0372
_cell_length_b	10.0372
_cell_length_c	17.607
_cell_angle_alpha	90
_cell_angle_beta	90
_cell_angle_gamma	90
loop_
_atom_site_label
_atom_site_type_symbol
_atom_site_fract_x
_atom_site_fract_y
_atom_site_fract_z
_atom_site_charge
Mof_Ag	Ag	0.70214	0	0.25	0.577
Mof_Ag	Ag	0.29786	0	0.25	0.566
Mof_Ag	Ag	-9.29832e-33	0.29786	0.75	0.566
Mof_Ag	Ag	-2.35295e-32	0.70214	0.75	0.578
Mof_H 	H 	0.6542	0.9169	0.9231	0.081
Mof_H 	H 	0.6102	0.6002	0.0809	0.048
Mof_H 	H 	0.4589	0.6422	0.0815	0.044
Mof_H 	H 	0.7443	0.1141	0.9715	0.073
Mof_H 	H 	0.5984	0.8014	0.1377	0.03
Mof_H 	H 	0.7598	0.1447	0.0987	0.02
Mof_H 	H 	0.3458	0.0831	0.9231	0.11
Mof_H 	H 	0.3898	0.3998	0.0809	0.044
Mof_H 	H 	0.5411	0.3578	0.0815	0.041
Mof_H 	H 	0.2557	0.8859	0.9715	0.036
Mof_H 	H 	0.4016	0.1986	0.1377	0.036
Mof_H 	H 	0.2402	0.8553	0.0987	0.02
Mof_H 	H 	0.9169	0.3458	0.0769	0.084
Mof_H 	H 	0.6002	0.3898	0.9191	0.046
Mof_H 	H 	0.6422	0.5411	0.9185	0.044
Mof_H 	H 	0.1141	0.2557	0.0285	0.063
Mof_H 	H 	0.8014	0.4016	0.8623	0.031
Mof_H 	H 	0.1447	0.2402	0.9013	0.02
Mof_H 	H 	0.0831	0.6542	0.0769	0.11
Mof_H 	H 	0.3998	0.6102	0.9191	0.046
Mof_H 	H 	0.3578	0.4589	0.9185	0.041
Mof_H 	H 	0.8859	0.7443	0.0285	0.042
Mof_H 	H 	0.1986	0.5984	0.8623	0.036
Mof_H 	H 	0.8553	0.7598	0.9013	0.022
Mof_H 	H 	0.3458	0.9169	0.5769	0.082
Mof_H 	H 	0.3898	0.6002	0.4191	0.047
Mof_H 	H 	0.5411	0.6422	0.4185	0.044
Mof_H 	H 	0.2557	0.1141	0.5285	0.065
Mof_H 	H 	0.4016	0.8014	0.3623	0.03
Mof_H 	H 	0.2402	0.1447	0.4013	0.018
Mof_H 	H 	0.6542	0.0831	0.5769	0.111
Mof_H 	H 	0.6102	0.3998	0.4191	0.046
Mof_H 	H 	0.4589	0.3578	0.4185	0.041
Mof_H 	H 	0.7443	0.8859	0.5285	0.042
Mof_H 	H 	0.5984	0.1986	0.3623	0.036
Mof_H 	H 	0.7598	0.8553	0.4013	0.023
Mof_H 	H 	0.0831	0.3458	0.4231	0.11
Mof_H 	H 	0.3998	0.3898	0.5809	0.044
Mof_H 	H 	0.3578	0.5411	0.5815	0.041
Mof_H 	H 	0.8859	0.2557	0.4715	0.037
Mof_H 	H 	0.1986	0.4016	0.6377	0.036
Mof_H 	H 	0.8553	0.2402	0.5987	0.02
Mof_H 	H 	0.9169	0.6542	0.4231	0.082
Mof_H 	H 	0.6002	0.6102	0.5809	0.049
Mof_H 	H 	0.6422	0.4589	0.5815	0.044
Mof_H 	H 	0.1141	0.7443	0.4715	0.07
Mof_H 	H 	0.8014	0.5984	0.6377	0.03
Mof_H 	H 	0.1447	0.7598	0.5987	0.021
Mof_C 	C 	0.615	0.8407	0.0276	0.135
Mof_C 	C 	0.6601	0.9321	0.9751	-0.058
Mof_C 	C 	0.5336	0.6193	0.0491	-0.007
Mof_C 	C 	0.7144	0.0478	0.0043	-0.085
Mof_C 	C 	0.6295	0.8645	0.1033	-0.044
Mof_C 	C 	0.7245	0.065	0.0808	0.028
Mof_C 	C 	0.385	0.1593	0.0276	0.174
Mof_C 	C 	0.3399	0.0679	0.9751	-0.186
Mof_C 	C 	0.4664	0.3807	0.0491	-0.002
Mof_C 	C 	0.2856	0.9522	0.0043	0.032
Mof_C 	C 	0.3705	0.1355	0.1033	-0.082
Mof_C 	C 	0.2755	0.935	0.0808	0.042
Mof_C 	C 	0.8407	0.385	0.9724	0.141
Mof_C 	C 	0.9321	0.3399	0.0249	-0.071
Mof_C 	C 	0.6193	0.4664	0.9509	-0.005
Mof_C 	C 	0.0478	0.2856	0.9957	-0.074
Mof_C 	C 	0.8645	0.3705	0.8967	-0.05
Mof_C 	C 	0.065	0.2755	0.9192	0.019
Mof_C 	C 	0.1593	0.615	0.9724	0.175
Mof_C 	C 	0.0679	0.6601	0.0249	-0.184
Mof_C 	C 	0.3807	0.5336	0.9509	-0.002
Mof_C 	C 	0.9522	0.7144	0.9957	0.031
Mof_C 	C 	0.1355	0.6295	0.8967	-0.079
Mof_C 	C 	0.935	0.7245	0.9192	0.049
Mof_C 	C 	0.385	0.8407	0.4724	0.136
Mof_C 	C 	0.3399	0.9321	0.5249	-0.065
Mof_C 	C 	0.4664	0.6193	0.4509	-0.007
Mof_C 	C 	0.2856	0.0478	0.4957	-0.079
Mof_C 	C 	0.3705	0.8645	0.3967	-0.048
Mof_C 	C 	0.2755	0.065	0.4192	0.022
Mof_C 	C 	0.615	0.1593	0.4724	0.177
Mof_C 	C 	0.6601	0.0679	0.5249	-0.187
Mof_C 	C 	0.5336	0.3807	0.4509	-0.002
Mof_C 	C 	0.7144	0.9522	0.4957	0.034
Mof_C 	C 	0.6295	0.1355	0.3967	-0.08
Mof_C 	C 	0.7245	0.935	0.4192	0.047
Mof_C 	C 	0.1593	0.385	0.5276	0.177
Mof_C 	C 	0.0679	0.3399	0.4751	-0.189
Mof_C 	C 	0.3807	0.4664	0.5491	-0.001
Mof_C 	C 	0.9522	0.2856	0.5043	0.032
Mof_C 	C 	0.1355	0.3705	0.6033	-0.083
Mof_C 	C 	0.935	0.2755	0.5808	0.041
Mof_C 	C 	0.8407	0.615	0.5276	0.135
Mof_C 	C 	0.9321	0.6601	0.4751	-0.059
Mof_C 	C 	0.6193	0.5336	0.5491	-0.008
Mof_C 	C 	0.0478	0.7144	0.5043	-0.08
Mof_C 	C 	0.8645	0.6295	0.6033	-0.044
Mof_C 	C 	0.065	0.7245	0.5808	0.026
Mof_C 	C 	0.5	0.5	-0	0.028
Mof_C 	C 	0.5	0.5	0.5	0.029
Mof_N 	N 	0.6872	0.976	0.1303	-0.154
Mof_N 	N 	0.3128	0.024	0.1303	-0.186
Mof_N 	N 	0.976	0.3128	0.8697	-0.154
Mof_N 	N 	0.024	0.6872	0.8697	-0.186
Mof_N 	N 	0.3128	0.976	0.3697	-0.155
Mof_N 	N 	0.6872	0.024	0.3697	-0.185
Mof_N 	N 	0.024	0.3128	0.6303	-0.185
Mof_N 	N 	0.976	0.6872	0.6303	-0.154
Mof_O 	O 	0.5625	0.7254	0.9982	-0.207
Mof_O 	O 	0.4375	0.2746	0.9982	-0.219
Mof_O 	O 	0.7254	0.4375	0.0018	-0.209
Mof_O 	O 	0.2746	0.5625	0.0018	-0.219
Mof_O 	O 	0.4375	0.7254	0.5018	-0.207
Mof_O 	O 	0.5625	0.2746	0.5018	-0.219
Mof_O 	O 	0.2746	0.4375	0.4982	-0.22
Mof_O 	O 	0.7254	0.5625	0.4982	-0.206
Mof_N 	N 	-1.91351e-33	0.8761	0.25	0.044
Mof_N 	N 	-1.91351e-33	0.1239	0.25	0.031
Mof_O 	O 	0.908	0.794	0.256	-0.125
Mof_O 	O 	0.092	0.206	0.256	-0.165
Mof_O 	O 	0.092	0.794	0.244	-0.158
Mof_O 	O 	0.908	0.206	0.244	-0.134
Mof_O 	O 	1.64428e-33	0	0.25	-0.196
Mof_N 	N 	0.8761	-1.42311e-32	0.75	0.044
Mof_N 	N 	0.1239	-1.42311e-32	0.75	0.031
Mof_O 	O 	0.794	0.092	0.744	-0.158
Mof_O 	O 	0.206	0.908	0.744	-0.135
Mof_O 	O 	0.206	0.092	0.756	-0.165
Mof_O 	O 	0.794	0.908	0.756	-0.126
Mof_O 	O 	-9.29832e-33	-1.42311e-32	0.75	-0.196
_end
