# CIF file generated by openbabel 3.1.0, see https://openbabel.org
data_I
_chemical_name_common 'image0'
_cell_length_a 9.5741
_cell_length_b 14.5044
_cell_length_c 13.7329
_cell_angle_alpha 90
_cell_angle_beta 100.582
_cell_angle_gamma 90
_space_group_name_H-M_alt 'P 1'
_space_group_name_Hall 'P 1'
loop_
    _symmetry_equiv_pos_as_xyz
    x,y,z
loop_
    _atom_site_label
    _atom_site_type_symbol
    _atom_site_fract_x
    _atom_site_fract_y
    _atom_site_fract_z
    _atom_site_occupancy
    Zn1      Zn       0.46232    0.64207    0.36047    1.000
    O1       O        0.45870    0.77785    0.37400    1.000
    O2       O        0.56820    0.11970    0.28270    1.000
    O3       O        0.33200    0.56040    0.41670    1.000
    C1       C        0.10190    0.54360    0.45450    1.000
    C2       C        0.20650    0.59220    0.40190    1.000
    C3       C        0.95730    0.55640    0.42000    1.000
    H1       H        0.92830    0.59550    0.36640    1.000
    O4       O        0.16770    0.65710    0.34710    1.000
    O5       O        0.64950    0.60500    0.43790    1.000
    O6       O        0.34310    0.14950    0.29430    1.000
    C4       C        0.70220    0.52870    0.41700    1.000
    C5       C        0.48640    0.90410    0.48490    1.000
    C6       C        0.47190    0.80280    0.46640    1.000
    C7       C        0.46100    0.11730    0.32510    1.000
    C8       C        0.46980    0.96490    0.40450    1.000
    H2       H        0.44790    0.94170    0.34040    1.000
    O7       O        0.63620    0.47030    0.35820    1.000
    O8       O        0.47210    0.74890    0.53550    1.000
    C9       C        0.85500    0.51280    0.46300    1.000
    C10      C        0.48570    0.06040    0.41930    1.000
    Zn2      Zn       0.53768    0.14207    0.13953    1.000
    O9       O        0.54130    0.27785    0.12600    1.000
    O10      O        0.43180    0.61970    0.21730    1.000
    O11      O        0.66800    0.06040    0.08330    1.000
    C11      C        0.89810    0.04360    0.04550    1.000
    C12      C        0.79350    0.09220    0.09810    1.000
    C13      C        0.04270    0.05640    0.08000    1.000
    H3       H        0.07170    0.09550    0.13360    1.000
    O12      O        0.83230    0.15710    0.15290    1.000
    O13      O        0.35050    0.10500    0.06210    1.000
    O14      O        0.65690    0.64950    0.20570    1.000
    C14      C        0.29780    0.02870    0.08300    1.000
    C15      C        0.51360    0.40410    0.01510    1.000
    C16      C        0.52810    0.30280    0.03360    1.000
    C17      C        0.53900    0.61730    0.17490    1.000
    C18      C        0.53020    0.46490    0.09550    1.000
    H4       H        0.55210    0.44170    0.15960    1.000
    O15      O        0.36380    0.97030    0.14180    1.000
    O16      O        0.52790    0.24890    0.96450    1.000
    C19      C        0.14500    0.01280    0.03700    1.000
    C20      C        0.51430    0.56040    0.08070    1.000
    Zn3      Zn       0.53768    0.35793    0.63953    1.000
    O17      O        0.54130    0.22215    0.62600    1.000
    O18      O        0.43180    0.88030    0.71730    1.000
    O19      O        0.66800    0.43960    0.58330    1.000
    C21      C        0.89810    0.45640    0.54550    1.000
    C22      C        0.79350    0.40780    0.59810    1.000
    C23      C        0.04270    0.44360    0.58000    1.000
    H5       H        0.07170    0.40450    0.63360    1.000
    O20      O        0.83230    0.34290    0.65290    1.000
    O21      O        0.35050    0.39500    0.56210    1.000
    O22      O        0.65690    0.85050    0.70570    1.000
    C24      C        0.29780    0.47130    0.58300    1.000
    C25      C        0.51360    0.09590    0.51510    1.000
    C26      C        0.52810    0.19720    0.53360    1.000
    C27      C        0.53900    0.88270    0.67490    1.000
    C28      C        0.53020    0.03510    0.59550    1.000
    H6       H        0.55210    0.05830    0.65960    1.000
    O23      O        0.36380    0.52970    0.64180    1.000
    O24      O        0.52790    0.25110    0.46450    1.000
    C29      C        0.14500    0.48720    0.53700    1.000
    C30      C        0.51430    0.93960    0.58070    1.000
    Zn4      Zn       0.46232    0.85793    0.86047    1.000
    O25      O        0.45870    0.72215    0.87400    1.000
    O26      O        0.56820    0.38030    0.78270    1.000
    O27      O        0.33200    0.93960    0.91670    1.000
    C31      C        0.10190    0.95640    0.95450    1.000
    C32      C        0.20650    0.90780    0.90190    1.000
    C33      C        0.95730    0.94360    0.92000    1.000
    H7       H        0.92830    0.90450    0.86640    1.000
    O28      O        0.16770    0.84290    0.84710    1.000
    O29      O        0.64950    0.89500    0.93790    1.000
    O30      O        0.34310    0.35050    0.79430    1.000
    C34      C        0.70220    0.97130    0.91700    1.000
    C35      C        0.48640    0.59590    0.98490    1.000
    C36      C        0.47190    0.69720    0.96640    1.000
    C37      C        0.46100    0.38270    0.82510    1.000
    C38      C        0.46980    0.53510    0.90450    1.000
    H8       H        0.44790    0.55830    0.84040    1.000
    O31      O        0.63620    0.02970    0.85820    1.000
    O32      O        0.47210    0.75110    0.03550    1.000
    C39      C        0.85500    0.98720    0.96300    1.000
    C40      C        0.48570    0.43960    0.91930    1.000
