data_functionalizedCrystal
_audit_creation_method	'EQeq! by Chris Wilmer'
_symmetry_space_group_name_H-M	'P1'
_symmetry_Int_Tables_number	1
_symmetry_cell_setting	triclinic
loop_
_symmetry_equiv_pos_as_xyz
  x,y,z
_cell_length_a	16.6939
_cell_length_b	16.6939
_cell_length_c	16.6939
_cell_angle_alpha	117.061
_cell_angle_beta	117.061
_cell_angle_gamma	117.061
loop_
_atom_site_label
_atom_site_type_symbol
_atom_site_fract_x
_atom_site_fract_y
_atom_site_fract_z
_atom_site_charge
Mof_C 	C 	0.1427	0.0397	0.3356	-0.246
Mof_H 	H 	0.2395	0.0997	0.3792	0.103
Mof_H 	H 	0.0817	0.0271	0.2658	0.094
Mof_C 	C 	0.3051	0.302	0.5781	-0.316
Mof_H 	H 	0.2761	0.3015	0.5125	0.114
Mof_H 	H 	0.4159	0.3716	0.6572	0.111
Mof_C 	C 	0.2962	0.3692	0.6668	0.415
Mof_C 	C 	0.829	0.7307	0.1144	-0.191
Mof_H 	H 	0.7842	0.7308	0.052	0.075
Mof_H 	H 	0.7515	0.618	0.0385	-0.003
Mof_C 	C 	0.6954	0.7134	0.1474	-0.274
Mof_H 	H 	0.6319	0.6147	0.1011	0.034
Mof_H 	H 	0.6324	0.6817	0.0588	0.04
Mof_C 	C 	0.7271	0.818	0.2658	0.386
Mof_N 	N 	0.191	0.132	0.4707	-0.169
Mof_H 	H 	0.2463	0.1402	0.5326	0.023
Mof_N 	N 	0.8496	0.8023	0.2295	-0.19
Mof_H 	H 	0.8824	0.7908	0.2781	0.008
Mof_O 	O 	0.0998	0.8653	0.336	-0.596
Mof_O 	O 	0.986	0.759	0.0914	-0.366
Mof_O 	O 	0.1757	0.2665	0.614	-0.561
Mof_O 	O 	0.4015	0.5154	0.7804	-0.543
Mof_O 	O 	0.8719	0.9702	0.402	-0.547
Mof_O 	O 	0.611	0.7514	0.2223	-0.71
Mof_P 	P 	0.01822	0.84022	0.21646	0.381
Mof_K 	K 	0.38354	0.07168	0.63008	2.03
Mof_Cu	Cu	0.01216	0.03959	0.41213	0.898
Mof_C 	C 	0.3356	0.1427	0.0397	-0.246
Mof_H 	H 	0.3792	0.2395	0.0997	0.103
Mof_H 	H 	0.2658	0.0817	0.0271	0.094
Mof_C 	C 	0.5781	0.3051	0.302	-0.316
Mof_H 	H 	0.5125	0.2761	0.3015	0.114
Mof_H 	H 	0.6572	0.4159	0.3716	0.111
Mof_C 	C 	0.6668	0.2962	0.3692	0.415
Mof_C 	C 	0.1144	0.829	0.7307	-0.191
Mof_H 	H 	0.052	0.7842	0.7308	0.075
Mof_H 	H 	0.0385	0.7515	0.618	-0.003
Mof_C 	C 	0.1474	0.6954	0.7134	-0.274
Mof_H 	H 	0.1011	0.6319	0.6147	0.034
Mof_H 	H 	0.0588	0.6324	0.6817	0.04
Mof_C 	C 	0.2658	0.7271	0.818	0.386
Mof_N 	N 	0.4707	0.191	0.132	-0.169
Mof_H 	H 	0.5326	0.2463	0.1402	0.023
Mof_N 	N 	0.2295	0.8496	0.8023	-0.19
Mof_H 	H 	0.2781	0.8824	0.7908	0.008
Mof_O 	O 	0.336	0.0998	0.8653	-0.596
Mof_O 	O 	0.0914	0.986	0.759	-0.366
Mof_O 	O 	0.614	0.1757	0.2665	-0.561
Mof_O 	O 	0.7804	0.4015	0.5154	-0.543
Mof_O 	O 	0.402	0.8719	0.9702	-0.547
Mof_O 	O 	0.2223	0.611	0.7514	-0.71
Mof_P 	P 	0.21646	0.01822	0.84022	0.381
Mof_K 	K 	0.63008	0.38354	0.07168	2.03
Mof_Cu	Cu	0.41213	0.01216	0.03959	0.898
Mof_C 	C 	0.0397	0.3356	0.1427	-0.246
Mof_H 	H 	0.0997	0.3792	0.2395	0.103
Mof_H 	H 	0.0271	0.2658	0.0817	0.094
Mof_C 	C 	0.302	0.5781	0.3051	-0.316
Mof_H 	H 	0.3015	0.5125	0.2761	0.114
Mof_H 	H 	0.3716	0.6572	0.4159	0.111
Mof_C 	C 	0.3692	0.6668	0.2962	0.415
Mof_C 	C 	0.7307	0.1144	0.829	-0.191
Mof_H 	H 	0.7308	0.052	0.7842	0.075
Mof_H 	H 	0.618	0.0385	0.7515	-0.003
Mof_C 	C 	0.7134	0.1474	0.6954	-0.274
Mof_H 	H 	0.6147	0.1011	0.6319	0.034
Mof_H 	H 	0.6817	0.0588	0.6324	0.04
Mof_C 	C 	0.818	0.2658	0.7271	0.386
Mof_N 	N 	0.132	0.4707	0.191	-0.169
Mof_H 	H 	0.1402	0.5326	0.2463	0.023
Mof_N 	N 	0.8023	0.2295	0.8496	-0.19
Mof_H 	H 	0.7908	0.2781	0.8824	0.008
Mof_O 	O 	0.8653	0.336	0.0998	-0.596
Mof_O 	O 	0.759	0.0914	0.986	-0.366
Mof_O 	O 	0.2665	0.614	0.1757	-0.561
Mof_O 	O 	0.5154	0.7804	0.4015	-0.543
Mof_O 	O 	0.9702	0.402	0.8719	-0.547
Mof_O 	O 	0.7514	0.2223	0.611	-0.71
Mof_P 	P 	0.84022	0.21646	0.01822	0.381
Mof_K 	K 	0.07168	0.63008	0.38354	2.03
Mof_Cu	Cu	0.03959	0.41213	0.01216	0.898
Mof_C 	C 	0.8573	0.9603	0.6644	-0.246
Mof_H 	H 	0.7605	0.9003	0.6208	0.103
Mof_H 	H 	0.9183	0.9729	0.7342	0.094
Mof_C 	C 	0.6949	0.698	0.4219	-0.316
Mof_H 	H 	0.7239	0.6985	0.4875	0.114
Mof_H 	H 	0.5841	0.6284	0.3428	0.111
Mof_C 	C 	0.7038	0.6308	0.3332	0.415
Mof_C 	C 	0.171	0.2693	0.8856	-0.191
Mof_H 	H 	0.2158	0.2692	0.948	0.075
Mof_H 	H 	0.2485	0.382	0.9615	-0.003
Mof_C 	C 	0.3046	0.2866	0.8526	-0.274
Mof_H 	H 	0.3681	0.3853	0.8989	0.034
Mof_H 	H 	0.3676	0.3183	0.9412	0.04
Mof_C 	C 	0.2729	0.182	0.7342	0.386
Mof_N 	N 	0.809	0.868	0.5293	-0.169
Mof_H 	H 	0.7537	0.8598	0.4674	0.023
Mof_N 	N 	0.1504	0.1977	0.7705	-0.19
Mof_H 	H 	0.1176	0.2092	0.7219	0.008
Mof_O 	O 	0.9002	0.1347	0.664	-0.596
Mof_O 	O 	0.014	0.241	0.9086	-0.366
Mof_O 	O 	0.8243	0.7335	0.386	-0.561
Mof_O 	O 	0.5985	0.4846	0.2196	-0.543
Mof_O 	O 	0.1281	0.0298	0.598	-0.547
Mof_O 	O 	0.389	0.2486	0.7777	-0.71
Mof_P 	P 	0.98178	0.15978	0.78354	0.381
Mof_K 	K 	0.61646	0.92832	0.36992	2.03
Mof_Cu	Cu	0.98784	0.96041	0.58787	0.898
Mof_C 	C 	0.6644	0.8573	0.9603	-0.246
Mof_H 	H 	0.6208	0.7605	0.9003	0.103
Mof_H 	H 	0.7342	0.9183	0.9729	0.094
Mof_C 	C 	0.4219	0.6949	0.698	-0.316
Mof_H 	H 	0.4875	0.7239	0.6985	0.114
Mof_H 	H 	0.3428	0.5841	0.6284	0.111
Mof_C 	C 	0.3332	0.7038	0.6308	0.415
Mof_C 	C 	0.8856	0.171	0.2693	-0.191
Mof_H 	H 	0.948	0.2158	0.2692	0.075
Mof_H 	H 	0.9615	0.2485	0.382	-0.003
Mof_C 	C 	0.8526	0.3046	0.2866	-0.274
Mof_H 	H 	0.8989	0.3681	0.3853	0.034
Mof_H 	H 	0.9412	0.3676	0.3183	0.04
Mof_C 	C 	0.7342	0.2729	0.182	0.386
Mof_N 	N 	0.5293	0.809	0.868	-0.169
Mof_H 	H 	0.4674	0.7537	0.8598	0.023
Mof_N 	N 	0.7705	0.1504	0.1977	-0.19
Mof_H 	H 	0.7219	0.1176	0.2092	0.008
Mof_O 	O 	0.664	0.9002	0.1347	-0.596
Mof_O 	O 	0.9086	0.014	0.241	-0.366
Mof_O 	O 	0.386	0.8243	0.7335	-0.561
Mof_O 	O 	0.2196	0.5985	0.4846	-0.543
Mof_O 	O 	0.598	0.1281	0.0298	-0.547
Mof_O 	O 	0.7777	0.389	0.2486	-0.71
Mof_P 	P 	0.78354	0.98178	0.15978	0.381
Mof_K 	K 	0.36992	0.61646	0.92832	2.03
Mof_Cu	Cu	0.58787	0.98784	0.96041	0.898
Mof_C 	C 	0.9603	0.6644	0.8573	-0.246
Mof_H 	H 	0.9003	0.6208	0.7605	0.103
Mof_H 	H 	0.9729	0.7342	0.9183	0.094
Mof_C 	C 	0.698	0.4219	0.6949	-0.316
Mof_H 	H 	0.6985	0.4875	0.7239	0.114
Mof_H 	H 	0.6284	0.3428	0.5841	0.111
Mof_C 	C 	0.6308	0.3332	0.7038	0.415
Mof_C 	C 	0.2693	0.8856	0.171	-0.191
Mof_H 	H 	0.2692	0.948	0.2158	0.075
Mof_H 	H 	0.382	0.9615	0.2485	-0.003
Mof_C 	C 	0.2866	0.8526	0.3046	-0.274
Mof_H 	H 	0.3853	0.8989	0.3681	0.034
Mof_H 	H 	0.3183	0.9412	0.3676	0.04
Mof_C 	C 	0.182	0.7342	0.2729	0.386
Mof_N 	N 	0.868	0.5293	0.809	-0.169
Mof_H 	H 	0.8598	0.4674	0.7537	0.023
Mof_N 	N 	0.1977	0.7705	0.1504	-0.19
Mof_H 	H 	0.2092	0.7219	0.1176	0.008
Mof_O 	O 	0.1347	0.664	0.9002	-0.596
Mof_O 	O 	0.241	0.9086	0.014	-0.366
Mof_O 	O 	0.7335	0.386	0.8243	-0.561
Mof_O 	O 	0.4846	0.2196	0.5985	-0.543
Mof_O 	O 	0.0298	0.598	0.1281	-0.547
Mof_O 	O 	0.2486	0.7777	0.389	-0.71
Mof_P 	P 	0.15978	0.78354	0.98178	0.381
Mof_K 	K 	0.92832	0.36992	0.61646	2.03
Mof_Cu	Cu	0.96041	0.58787	0.98784	0.898
_end
