# CIF file generated by openbabel 3.1.0, see https://openbabel.org
data_I
_chemical_name_common 'image0'
_cell_length_a 13.8436
_cell_length_b 17.8039
_cell_length_c 17.1476
_cell_angle_alpha 90
_cell_angle_beta 110.268
_cell_angle_gamma 90
_space_group_name_H-M_alt 'P 1'
_space_group_name_Hall 'P 1'
loop_
    _symmetry_equiv_pos_as_xyz
    x,y,z
loop_
    _atom_site_label
    _atom_site_type_symbol
    _atom_site_fract_x
    _atom_site_fract_y
    _atom_site_fract_z
    _atom_site_occupancy
    Cu1      Cu       0.23929    0.51055    0.43782    1.000
    O1       O        0.36960    0.46670    0.50150    1.000
    H1       H        0.37360    0.46950    0.55920    1.000
    N1       N        0.16380    0.41640    0.45170    1.000
    N2       N        0.08130    0.41280    0.47840    1.000
    N3       N        0.12010    0.29860    0.45630    1.000
    N4       N        0.89000    0.05200    0.14220    1.000
    N5       N        0.97950    0.06190    0.12600    1.000
    N6       N        0.00710    0.08990    0.25700    1.000
    N7       N        0.78690    0.06030    0.95300    1.000
    N8       N        0.86910    0.05100    0.92620    1.000
    N9       N        0.73980    0.09570    0.82300    1.000
    N10      N        0.57480    0.41290    0.56800    1.000
    N11      N        0.67820    0.40380    0.58450    1.000
    N12      N        0.61700    0.29890    0.61330    1.000
    C1       C        0.18600    0.34640    0.43850    1.000
    H2       H        0.23990    0.33180    0.41940    1.000
    C2       C        0.05700    0.34260    0.47990    1.000
    H3       H        0.00170    0.32490    0.49570    1.000
    C3       C        0.90900    0.06790    0.22060    1.000
    H4       H        0.86010    0.06440    0.24800    1.000
    C4       C        0.04740    0.08680    0.19530    1.000
    H5       H        0.11580    0.10090    0.20150    1.000
    C5       C        0.11820    0.21510    0.44710    1.000
    C6       C        0.22740    0.18450    0.47670    1.000
    H6       H        0.26300    0.19780    0.53580    1.000
    H7       H        0.26630    0.20660    0.44360    1.000
    C7       C        0.22270    0.09910    0.46660    1.000
    H8       H        0.29450    0.07880    0.48570    1.000
    C8       C        0.16870    0.07840    0.37500    1.000
    H9       H        0.20720    0.09960    0.34100    1.000
    H10      H        0.16620    0.02320    0.36840    1.000
    C9       C        0.05970    0.11030    0.34610    1.000
    C10      C        0.06360    0.19550    0.35460    1.000
    H11      H        0.99290    0.21640    0.33470    1.000
    H12      H        0.10190    0.21730    0.32080    1.000
    C11      C        0.05990    0.18220    0.49950    1.000
    H13      H        0.98900    0.20260    0.48130    1.000
    H14      H        0.09490    0.19530    0.55870    1.000
    C12      C        0.05710    0.09590    0.48800    1.000
    H15      H        0.01840    0.07320    0.52170    1.000
    C13      C        0.00160    0.07700    0.39720    1.000
    H16      H        0.99700    0.02190    0.38970    1.000
    H17      H        0.93080    0.09760    0.37880    1.000
    C14      C        0.16570    0.06440    0.51810    1.000
    H18      H        0.20080    0.07670    0.57750    1.000
    H19      H        0.16380    0.00910    0.51180    1.000
    C15      C        0.71130    0.08720    0.88940    1.000
    H20      H        0.64490    0.09920    0.89050    1.000
    C16      C        0.83910    0.07330    0.84780    1.000
    H21      H        0.88100    0.07350    0.81420    1.000
    C17      C        0.53960    0.34890    0.58700    1.000
    H22      H        0.47040    0.33960    0.58270    1.000
    C18      C        0.70050    0.33460    0.61210    1.000
    H23      H        0.76740    0.31310    0.62890    1.000
    C19      C        0.67010    0.11590    0.73680    1.000
    C20      C        0.70150    0.06970    0.67540    1.000
    H24      H        0.69730    0.01560    0.68700    1.000
    H25      H        0.77350    0.08150    0.68110    1.000
    C21      C        0.63020    0.08760    0.58750    1.000
    H26      H        0.65140    0.05680    0.54740    1.000
    C22      C        0.64070    0.17130    0.56960    1.000
    H27      H        0.71280    0.18280    0.57540    1.000
    H28      H        0.59590    0.18360    0.51220    1.000
    C23      C        0.60900    0.21720    0.63160    1.000
    C24      C        0.68030    0.20000    0.72060    1.000
    H29      H        0.66040    0.23060    0.76080    1.000
    H30      H        0.75250    0.21210    0.72710    1.000
    C25      C        0.55930    0.09780    0.72710    1.000
    H31      H        0.55330    0.04380    0.73880    1.000
    H32      H        0.53860    0.12750    0.76760    1.000
    C26      C        0.48960    0.11580    0.64040    1.000
    H33      H        0.41690    0.10360    0.63480    1.000
    C27      C        0.49760    0.19990    0.62290    1.000
    H34      H        0.45100    0.21230    0.56600    1.000
    H35      H        0.47710    0.23050    0.66280    1.000
    C28      C        0.52040    0.06930    0.57670    1.000
    H36      H        0.51340    0.01500    0.58590    1.000
    H37      H        0.47500    0.08190    0.51950    1.000
    Cu2      Cu       0.76071    0.01055    0.06218    1.000
    O2       O        0.63040    0.96670    0.99850    1.000
    H38      H        0.62640    0.96950    0.94080    1.000
    N13      N        0.83620    0.91640    0.04830    1.000
    N14      N        0.91870    0.91280    0.02160    1.000
    N15      N        0.87990    0.79860    0.04370    1.000
    N16      N        0.11000    0.55200    0.35780    1.000
    N17      N        0.02050    0.56190    0.37400    1.000
    N18      N        0.99290    0.58990    0.24300    1.000
    N19      N        0.21310    0.56030    0.54700    1.000
    N20      N        0.13090    0.55100    0.57380    1.000
    N21      N        0.26020    0.59570    0.67700    1.000
    N22      N        0.42520    0.91290    0.93200    1.000
    N23      N        0.32180    0.90380    0.91550    1.000
    N24      N        0.38300    0.79890    0.88670    1.000
    C29      C        0.81400    0.84640    0.06150    1.000
    H39      H        0.76010    0.83180    0.08060    1.000
    C30      C        0.94300    0.84260    0.02010    1.000
    H40      H        0.99830    0.82490    0.00430    1.000
    C31      C        0.09100    0.56790    0.27940    1.000
    H41      H        0.13990    0.56440    0.25200    1.000
    C32      C        0.95260    0.58680    0.30470    1.000
    H42      H        0.88420    0.60090    0.29850    1.000
    C33      C        0.88180    0.71510    0.05290    1.000
    C34      C        0.77260    0.68450    0.02330    1.000
    H43      H        0.73700    0.69780    0.96420    1.000
    H44      H        0.73370    0.70660    0.05640    1.000
    C35      C        0.77730    0.59910    0.03340    1.000
    H45      H        0.70550    0.57880    0.01430    1.000
    C36      C        0.83130    0.57840    0.12500    1.000
    H46      H        0.79280    0.59960    0.15900    1.000
    H47      H        0.83380    0.52320    0.13160    1.000
    C37      C        0.94030    0.61030    0.15390    1.000
    C38      C        0.93640    0.69550    0.14540    1.000
    H48      H        0.00710    0.71640    0.16530    1.000
    H49      H        0.89810    0.71730    0.17920    1.000
    C39      C        0.94010    0.68220    0.00050    1.000
    H50      H        0.01100    0.70260    0.01870    1.000
    H51      H        0.90510    0.69530    0.94130    1.000
    C40      C        0.94290    0.59590    0.01200    1.000
    H52      H        0.98160    0.57320    0.97830    1.000
    C41      C        0.99840    0.57700    0.10280    1.000
    H53      H        0.00300    0.52190    0.11030    1.000
    H54      H        0.06920    0.59760    0.12120    1.000
    C42      C        0.83430    0.56440    0.98190    1.000
    H55      H        0.79920    0.57670    0.92250    1.000
    H56      H        0.83620    0.50910    0.98820    1.000
    C43      C        0.28870    0.58720    0.61060    1.000
    H57      H        0.35510    0.59920    0.60950    1.000
    C44      C        0.16090    0.57330    0.65220    1.000
    H58      H        0.11900    0.57350    0.68580    1.000
    C45      C        0.46040    0.84890    0.91300    1.000
    H59      H        0.52960    0.83960    0.91730    1.000
    C46      C        0.29950    0.83460    0.88790    1.000
    H60      H        0.23260    0.81310    0.87110    1.000
    C47      C        0.32990    0.61590    0.76320    1.000
    C48      C        0.29850    0.56970    0.82460    1.000
    H61      H        0.30270    0.51560    0.81300    1.000
    H62      H        0.22650    0.58150    0.81890    1.000
    C49      C        0.36980    0.58760    0.91250    1.000
    H63      H        0.34860    0.55680    0.95260    1.000
    C50      C        0.35930    0.67130    0.93040    1.000
    H64      H        0.28720    0.68280    0.92460    1.000
    H65      H        0.40410    0.68360    0.98780    1.000
    C51      C        0.39100    0.71720    0.86840    1.000
    C52      C        0.31970    0.70000    0.77940    1.000
    H66      H        0.33960    0.73060    0.73920    1.000
    H67      H        0.24750    0.71210    0.77290    1.000
    C53      C        0.44070    0.59780    0.77290    1.000
    H68      H        0.44670    0.54380    0.76120    1.000
    H69      H        0.46140    0.62750    0.73240    1.000
    C54      C        0.51040    0.61580    0.85960    1.000
    H70      H        0.58310    0.60360    0.86520    1.000
    C55      C        0.50240    0.69990    0.87710    1.000
    H71      H        0.54900    0.71230    0.93400    1.000
    H72      H        0.52290    0.73050    0.83720    1.000
    C56      C        0.47960    0.56930    0.92330    1.000
    H73      H        0.48660    0.51500    0.91410    1.000
    H74      H        0.52500    0.58190    0.98050    1.000
    Cu3      Cu       0.76071    0.48945    0.56218    1.000
    O3       O        0.63040    0.53330    0.49850    1.000
    H75      H        0.62640    0.53050    0.44080    1.000
    N25      N        0.83620    0.58360    0.54830    1.000
    N26      N        0.91870    0.58720    0.52160    1.000
    N27      N        0.87990    0.70140    0.54370    1.000
    N28      N        0.11000    0.94800    0.85780    1.000
    N29      N        0.02050    0.93810    0.87400    1.000
    N30      N        0.99290    0.91010    0.74300    1.000
    N31      N        0.21310    0.93970    0.04700    1.000
    N32      N        0.13090    0.94900    0.07380    1.000
    N33      N        0.26020    0.90430    0.17700    1.000
    N34      N        0.42520    0.58710    0.43200    1.000
    N35      N        0.32180    0.59620    0.41550    1.000
    N36      N        0.38300    0.70110    0.38670    1.000
    C57      C        0.81400    0.65360    0.56150    1.000
    H76      H        0.76010    0.66820    0.58060    1.000
    C58      C        0.94300    0.65740    0.52010    1.000
    H77      H        0.99830    0.67510    0.50430    1.000
    C59      C        0.09100    0.93210    0.77940    1.000
    H78      H        0.13990    0.93560    0.75200    1.000
    C60      C        0.95260    0.91320    0.80470    1.000
    H79      H        0.88420    0.89910    0.79850    1.000
    C61      C        0.88180    0.78490    0.55290    1.000
    C62      C        0.77260    0.81550    0.52330    1.000
    H80      H        0.73700    0.80220    0.46420    1.000
    H81      H        0.73370    0.79340    0.55640    1.000
    C63      C        0.77730    0.90090    0.53340    1.000
    H82      H        0.70550    0.92120    0.51430    1.000
    C64      C        0.83130    0.92160    0.62500    1.000
    H83      H        0.79280    0.90040    0.65900    1.000
    H84      H        0.83380    0.97680    0.63160    1.000
    C65      C        0.94030    0.88970    0.65390    1.000
    C66      C        0.93640    0.80450    0.64540    1.000
    H85      H        0.00710    0.78360    0.66530    1.000
    H86      H        0.89810    0.78270    0.67920    1.000
    C67      C        0.94010    0.81780    0.50050    1.000
    H87      H        0.01100    0.79740    0.51870    1.000
    H88      H        0.90510    0.80470    0.44130    1.000
    C68      C        0.94290    0.90410    0.51200    1.000
    H89      H        0.98160    0.92680    0.47830    1.000
    C69      C        0.99840    0.92300    0.60280    1.000
    H90      H        0.00300    0.97810    0.61030    1.000
    H91      H        0.06920    0.90240    0.62120    1.000
    C70      C        0.83430    0.93560    0.48190    1.000
    H92      H        0.79920    0.92330    0.42250    1.000
    H93      H        0.83620    0.99090    0.48820    1.000
    C71      C        0.28870    0.91280    0.11060    1.000
    H94      H        0.35510    0.90080    0.10950    1.000
    C72      C        0.16090    0.92670    0.15220    1.000
    H95      H        0.11900    0.92650    0.18580    1.000
    C73      C        0.46040    0.65110    0.41300    1.000
    H96      H        0.52960    0.66040    0.41730    1.000
    C74      C        0.29950    0.66540    0.38790    1.000
    H97      H        0.23260    0.68690    0.37110    1.000
    C75      C        0.32990    0.88410    0.26320    1.000
    C76      C        0.29850    0.93030    0.32460    1.000
    H98      H        0.30270    0.98440    0.31300    1.000
    H99      H        0.22650    0.91850    0.31890    1.000
    C77      C        0.36980    0.91240    0.41250    1.000
    H100     H        0.34860    0.94320    0.45260    1.000
    C78      C        0.35930    0.82870    0.43040    1.000
    H101     H        0.28720    0.81720    0.42460    1.000
    H102     H        0.40410    0.81640    0.48780    1.000
    C79      C        0.39100    0.78280    0.36840    1.000
    C80      C        0.31970    0.80000    0.27940    1.000
    H103     H        0.33960    0.76940    0.23920    1.000
    H104     H        0.24750    0.78790    0.27290    1.000
    C81      C        0.44070    0.90220    0.27290    1.000
    H105     H        0.44670    0.95620    0.26120    1.000
    H106     H        0.46140    0.87250    0.23240    1.000
    C82      C        0.51040    0.88420    0.35960    1.000
    H107     H        0.58310    0.89640    0.36520    1.000
    C83      C        0.50240    0.80010    0.37710    1.000
    H108     H        0.54900    0.78770    0.43400    1.000
    H109     H        0.52290    0.76950    0.33720    1.000
    C84      C        0.47960    0.93070    0.42330    1.000
    H110     H        0.48660    0.98500    0.41410    1.000
    H111     H        0.52500    0.91810    0.48050    1.000
    Cu4      Cu       0.23929    0.98945    0.93782    1.000
    O4       O        0.36960    0.03330    0.00150    1.000
    H112     H        0.37360    0.03050    0.05920    1.000
    N37      N        0.16380    0.08360    0.95170    1.000
    N38      N        0.08130    0.08720    0.97840    1.000
    N39      N        0.12010    0.20140    0.95630    1.000
    N40      N        0.89000    0.44800    0.64220    1.000
    N41      N        0.97950    0.43810    0.62600    1.000
    N42      N        0.00710    0.41010    0.75700    1.000
    N43      N        0.78690    0.43970    0.45300    1.000
    N44      N        0.86910    0.44900    0.42620    1.000
    N45      N        0.73980    0.40430    0.32300    1.000
    N46      N        0.57480    0.08710    0.06800    1.000
    N47      N        0.67820    0.09620    0.08450    1.000
    N48      N        0.61700    0.20110    0.11330    1.000
    C85      C        0.18600    0.15360    0.93850    1.000
    H113     H        0.23990    0.16820    0.91940    1.000
    C86      C        0.05700    0.15740    0.97990    1.000
    H114     H        0.00170    0.17510    0.99570    1.000
    C87      C        0.90900    0.43210    0.72060    1.000
    H115     H        0.86010    0.43560    0.74800    1.000
    C88      C        0.04740    0.41320    0.69530    1.000
    H116     H        0.11580    0.39910    0.70150    1.000
    C89      C        0.11820    0.28490    0.94710    1.000
    C90      C        0.22740    0.31550    0.97670    1.000
    H117     H        0.26300    0.30220    0.03580    1.000
    H118     H        0.26630    0.29340    0.94360    1.000
    C91      C        0.22270    0.40090    0.96660    1.000
    H119     H        0.29450    0.42120    0.98570    1.000
    C92      C        0.16870    0.42160    0.87500    1.000
    H120     H        0.20720    0.40040    0.84100    1.000
    H121     H        0.16620    0.47680    0.86840    1.000
    C93      C        0.05970    0.38970    0.84610    1.000
    C94      C        0.06360    0.30450    0.85460    1.000
    H122     H        0.99290    0.28360    0.83470    1.000
    H123     H        0.10190    0.28270    0.82080    1.000
    C95      C        0.05990    0.31780    0.99950    1.000
    H124     H        0.98900    0.29740    0.98130    1.000
    H125     H        0.09490    0.30470    0.05870    1.000
    C96      C        0.05710    0.40410    0.98800    1.000
    H126     H        0.01840    0.42680    0.02170    1.000
    C97      C        0.00160    0.42300    0.89720    1.000
    H127     H        0.99700    0.47810    0.88970    1.000
    H128     H        0.93080    0.40240    0.87880    1.000
    C98      C        0.16570    0.43560    0.01810    1.000
    H129     H        0.20080    0.42330    0.07750    1.000
    H130     H        0.16380    0.49090    0.01180    1.000
    C99      C        0.71130    0.41280    0.38940    1.000
    H131     H        0.64490    0.40080    0.39050    1.000
    C100     C        0.83910    0.42670    0.34780    1.000
    H132     H        0.88100    0.42650    0.31420    1.000
    C101     C        0.53960    0.15110    0.08700    1.000
    H133     H        0.47040    0.16040    0.08270    1.000
    C102     C        0.70050    0.16540    0.11210    1.000
    H134     H        0.76740    0.18690    0.12890    1.000
    C103     C        0.67010    0.38410    0.23680    1.000
    C104     C        0.70150    0.43030    0.17540    1.000
    H135     H        0.69730    0.48440    0.18700    1.000
    H136     H        0.77350    0.41850    0.18110    1.000
    C105     C        0.63020    0.41240    0.08750    1.000
    H137     H        0.65140    0.44320    0.04740    1.000
    C106     C        0.64070    0.32870    0.06960    1.000
    H138     H        0.71280    0.31720    0.07540    1.000
    H139     H        0.59590    0.31640    0.01220    1.000
    C107     C        0.60900    0.28280    0.13160    1.000
    C108     C        0.68030    0.30000    0.22060    1.000
    H140     H        0.66040    0.26940    0.26080    1.000
    H141     H        0.75250    0.28790    0.22710    1.000
    C109     C        0.55930    0.40220    0.22710    1.000
    H142     H        0.55330    0.45620    0.23880    1.000
    H143     H        0.53860    0.37250    0.26760    1.000
    C110     C        0.48960    0.38420    0.14040    1.000
    H144     H        0.41690    0.39640    0.13480    1.000
    C111     C        0.49760    0.30010    0.12290    1.000
    H145     H        0.45100    0.28770    0.06600    1.000
    H146     H        0.47710    0.26950    0.16280    1.000
    C112     C        0.52040    0.43070    0.07670    1.000
    H147     H        0.51340    0.48500    0.08590    1.000
    H148     H        0.47500    0.41810    0.01950    1.000
    Cu5      Cu       0.50000    0.50000    0.50000    1.000
    Cu6      Cu       0.50000    0.00000    0.00000    1.000
    Cu7      Cu       0.00000    0.00000    0.00000    1.000
    Cu8      Cu       0.00000    0.50000    0.50000    1.000
