data_functionalizedCrystal
_audit_creation_method	'EQeq! by Chris Wilmer'
_symmetry_space_group_name_H-M	'P1'
_symmetry_Int_Tables_number	1
_symmetry_cell_setting	triclinic
loop_
_symmetry_equiv_pos_as_xyz
  x,y,z
_cell_length_a	10.996
_cell_length_b	14.0189
_cell_length_c	14.0271
_cell_angle_alpha	61.9
_cell_angle_beta	80.585
_cell_angle_gamma	85.441
loop_
_atom_site_label
_atom_site_type_symbol
_atom_site_fract_x
_atom_site_fract_y
_atom_site_fract_z
_atom_site_charge
Mof_Cd	Cd	0.2508	0.47396	0.27573	0.37
Mof_N 	N 	0.3361	0.455	0.5889	-0.119
Mof_N 	N 	0.2955	0.4888	0.4277	-0.145
Mof_N 	N 	0.1685	0.4954	0.9599	-0.115
Mof_N 	N 	0.2087	0.4579	0.1227	-0.142
Mof_N 	N 	0.0172	0.1846	0.511	-0.121
Mof_N 	N 	0.1057	0.3387	0.3906	-0.144
Mof_N 	N 	0.5386	0.208	0.3604	-0.119
Mof_N 	N 	0.405	0.3405	0.3002	-0.145
Mof_N 	N 	0.9913	0.7581	0.1757	-0.123
Mof_N 	N 	0.098	0.6092	0.2518	-0.144
Mof_N 	N 	0.4664	0.7766	0.0472	-0.146
Mof_N 	N 	0.3853	0.6154	0.1483	-0.146
Mof_C 	C 	0.296	0.4151	0.53	0.089
Mof_H 	H 	0.2714	0.3438	0.5579	-0
Mof_C 	C 	0.3367	0.5811	0.4218	0.007
Mof_H 	H 	0.3452	0.6478	0.3594	0.025
Mof_C 	C 	0.3632	0.5613	0.5199	-0.005
Mof_H 	H 	0.3938	0.6103	0.5373	0.033
Mof_C 	C 	0.2156	0.5319	0.0188	0.081
Mof_H 	H 	0.2489	0.6005	0.9904	0.006
Mof_C 	C 	0.154	0.37	0.1283	-0
Mof_H 	H 	0.1368	0.3047	0.1913	0.028
Mof_C 	C 	0.1296	0.3924	0.0298	-0.005
Mof_H 	H 	0.0929	0.3464	0.0121	0.03
Mof_C 	C 	0.3494	0.3951	0.7057	-0.046
Mof_H 	H 	0.4293	0.4113	0.7152	0.052
Mof_H 	H 	0.3472	0.3182	0.7287	0.04
Mof_C 	C 	0.2506	0.4214	0.7785	-0.105
Mof_H 	H 	0.2547	0.368	0.8537	0.061
Mof_H 	H 	0.1708	0.4142	0.7616	0.069
Mof_C 	C 	0.2583	0.533	0.7694	-0.098
Mof_H 	H 	0.3379	0.5402	0.7866	0.066
Mof_H 	H 	0.2543	0.5864	0.6942	0.059
Mof_C 	C 	0.1587	0.5583	0.8424	-0.052
Mof_H 	H 	0.1622	0.6347	0.8214	0.045
Mof_H 	H 	0.079	0.5443	0.8305	0.053
Mof_C 	C 	0.1222	0.2349	0.4535	0.086
Mof_H 	H 	0.1985	0.2006	0.4573	-0
Mof_C 	C 	0.9806	0.3533	0.4109	-0.002
Mof_H 	H 	0.9398	0.4191	0.3788	0.033
Mof_C 	C 	0.9261	0.2591	0.4837	-0.003
Mof_H 	H 	0.8424	0.2474	0.51	0.028
Mof_C 	C 	0.002	0.0694	0.5913	-0.048
Mof_H 	H 	0.9429	0.063	0.6535	0.04
Mof_H 	H 	0.0802	0.0409	0.6171	0.041
Mof_C 	C 	0.9585	0.0022	0.5448	-0.098
Mof_H 	H 	0.9443	0.929	0.6031	0.057
Mof_H 	H 	0.88	0.0309	0.5198	0.057
Mof_C 	C 	0.46	0.2736	0.3846	0.084
Mof_H 	H 	0.4457	0.2723	0.4524	-0
Mof_C 	C 	0.4533	0.3156	0.2183	0.004
Mof_H 	H 	0.4327	0.35	0.1479	0.029
Mof_C 	C 	0.5351	0.234	0.2542	-0.009
Mof_H 	H 	0.5801	0.2019	0.2147	0.033
Mof_C 	C 	0.6132	0.1216	0.4353	-0.048
Mof_H 	H 	0.6132	0.1307	0.4996	0.041
Mof_H 	H 	0.6977	0.1276	0.3996	0.04
Mof_C 	C 	0.5645	0.0099	0.4697	-0.099
Mof_H 	H 	0.5665	0.0008	0.4051	0.059
Mof_H 	H 	0.6189	0.956	0.5158	0.059
Mof_C 	C 	0.0651	0.6848	0.1599	0.085
Mof_H 	H 	0.09	0.6871	0.0922	0.001
Mof_C 	C 	0.042	0.6354	0.3312	0.002
Mof_H 	H 	0.0486	0.5966	0.4052	0.034
Mof_C 	C 	0.9755	0.7268	0.2841	-0.004
Mof_H 	H 	0.9278	0.7618	0.3195	0.034
Mof_C 	C 	0.9401	0.8551	0.0903	-0.04
Mof_H 	H 	0.8614	0.8731	0.1208	0.037
Mof_H 	H 	0.9261	0.8402	0.0321	0.037
Mof_C 	C 	0.0265	0.95	0.0442	-0.11
Mof_H 	H 	0.1052	0.932	0.0137	0.06
Mof_H 	H 	0.0404	0.9649	0.1023	0.06
Mof_C 	C 	0.3763	0.7173	0.1258	0.094
Mof_H 	H 	0.315	0.7452	0.1599	-0.002
Mof_C 	C 	0.4865	0.6102	0.0792	-0.001
Mof_H 	H 	0.5155	0.5477	0.0755	0.031
Mof_C 	C 	0.5376	0.7083	0.0179	-0
Mof_H 	H 	0.6077	0.726	0.9658	0.028
Mof_C 	C 	0.4916	0.8923	0.0017	0.121
Mof_H 	H 	0.5244	0.92	0.925	-0.006
Mof_H 	H 	0.4141	0.9291	0.0063	-0.073
Mof_C 	C 	0.5755	0.9193	0.0538	-0.29
Mof_H 	H 	0.6489	0.8748	0.0592	0.11
Mof_H 	H 	0.5372	0.9018	0.1275	0.113
Mof_C 	C 	0.6136	0.0373	0.9947	0.109
Mof_H 	H 	0.6783	0.0476	0.0284	-0.005
Mof_H 	H 	0.6462	0.0571	0.9192	-0.004
Mof_Cd	Cd	0.7492	0.52604	0.72427	0.371
Mof_N 	N 	0.6639	0.545	0.4111	-0.118
Mof_N 	N 	0.7045	0.5112	0.5723	-0.145
Mof_N 	N 	0.8315	0.5046	0.0401	-0.115
Mof_N 	N 	0.7913	0.5421	0.8773	-0.142
Mof_N 	N 	0.9828	0.8154	0.489	-0.121
Mof_N 	N 	0.8943	0.6613	0.6094	-0.144
Mof_N 	N 	0.4614	0.792	0.6396	-0.119
Mof_N 	N 	0.595	0.6595	0.6998	-0.145
Mof_N 	N 	0.0087	0.2419	0.8243	-0.123
Mof_N 	N 	0.902	0.3908	0.7482	-0.144
Mof_N 	N 	0.5336	0.2234	0.9528	-0.146
Mof_N 	N 	0.6147	0.3846	0.8517	-0.146
Mof_C 	C 	0.704	0.5849	0.47	0.089
Mof_H 	H 	0.7286	0.6562	0.4421	-0
Mof_C 	C 	0.6633	0.4189	0.5782	0.007
Mof_H 	H 	0.6548	0.3522	0.6406	0.025
Mof_C 	C 	0.6368	0.4387	0.4801	-0.005
Mof_H 	H 	0.6062	0.3897	0.4627	0.033
Mof_C 	C 	0.7844	0.4681	0.9812	0.081
Mof_H 	H 	0.7511	0.3995	0.0096	0.006
Mof_C 	C 	0.846	0.63	0.8717	-0
Mof_H 	H 	0.8632	0.6953	0.8087	0.028
Mof_C 	C 	0.8704	0.6076	0.9702	-0.005
Mof_H 	H 	0.9071	0.6536	0.9879	0.03
Mof_C 	C 	0.6506	0.6049	0.2943	-0.046
Mof_H 	H 	0.5707	0.5887	0.2848	0.052
Mof_H 	H 	0.6528	0.6818	0.2713	0.04
Mof_C 	C 	0.7494	0.5786	0.2215	-0.105
Mof_H 	H 	0.7453	0.632	0.1463	0.061
Mof_H 	H 	0.8292	0.5858	0.2384	0.069
Mof_C 	C 	0.7417	0.467	0.2306	-0.098
Mof_H 	H 	0.6621	0.4598	0.2134	0.066
Mof_H 	H 	0.7457	0.4136	0.3058	0.059
Mof_C 	C 	0.8413	0.4417	0.1576	-0.052
Mof_H 	H 	0.8378	0.3653	0.1786	0.045
Mof_H 	H 	0.921	0.4557	0.1695	0.053
Mof_C 	C 	0.8778	0.7651	0.5465	0.086
Mof_H 	H 	0.8015	0.7994	0.5427	-0
Mof_C 	C 	0.0194	0.6467	0.5891	-0.002
Mof_H 	H 	0.0602	0.5809	0.6212	0.033
Mof_C 	C 	0.0739	0.7409	0.5163	-0.003
Mof_H 	H 	0.1576	0.7526	0.49	0.028
Mof_C 	C 	0.998	0.9306	0.4087	-0.048
Mof_H 	H 	0.0571	0.937	0.3465	0.04
Mof_H 	H 	0.9198	0.9591	0.3829	0.041
Mof_C 	C 	0.0415	0.9978	0.4552	-0.098
Mof_H 	H 	0.0557	0.071	0.3969	0.057
Mof_H 	H 	0.12	0.9691	0.4802	0.057
Mof_C 	C 	0.54	0.7264	0.6154	0.084
Mof_H 	H 	0.5543	0.7277	0.5476	-0
Mof_C 	C 	0.5467	0.6844	0.7817	0.004
Mof_H 	H 	0.5673	0.65	0.8521	0.029
Mof_C 	C 	0.4649	0.766	0.7458	-0.009
Mof_H 	H 	0.4199	0.7981	0.7853	0.033
Mof_C 	C 	0.3868	0.8784	0.5647	-0.048
Mof_H 	H 	0.3868	0.8693	0.5004	0.041
Mof_H 	H 	0.3023	0.8724	0.6004	0.04
Mof_C 	C 	0.4355	0.9901	0.5303	-0.099
Mof_H 	H 	0.4335	0.9992	0.5949	0.059
Mof_H 	H 	0.3811	0.044	0.4842	0.059
Mof_C 	C 	0.9349	0.3152	0.8401	0.085
Mof_H 	H 	0.91	0.3129	0.9078	0.001
Mof_C 	C 	0.958	0.3646	0.6688	0.002
Mof_H 	H 	0.9514	0.4034	0.5948	0.034
Mof_C 	C 	0.0245	0.2732	0.7159	-0.004
Mof_H 	H 	0.0722	0.2382	0.6805	0.034
Mof_C 	C 	0.0599	0.1449	0.9097	-0.04
Mof_H 	H 	0.1386	0.1269	0.8792	0.037
Mof_H 	H 	0.0739	0.1598	0.9679	0.037
Mof_C 	C 	0.9735	0.05	0.9558	-0.11
Mof_H 	H 	0.8948	0.068	0.9863	0.06
Mof_H 	H 	0.9596	0.0351	0.8977	0.06
Mof_C 	C 	0.6237	0.2827	0.8742	0.094
Mof_H 	H 	0.685	0.2548	0.8401	-0.002
Mof_C 	C 	0.5135	0.3898	0.9208	-0.001
Mof_H 	H 	0.4845	0.4523	0.9245	0.031
Mof_C 	C 	0.4624	0.2917	0.9821	-0
Mof_H 	H 	0.3923	0.274	0.0342	0.028
Mof_C 	C 	0.5084	0.1077	0.9983	0.121
Mof_H 	H 	0.4756	0.08	0.075	-0.006
Mof_H 	H 	0.5859	0.0709	0.9937	-0.073
Mof_C 	C 	0.4245	0.0807	0.9462	-0.29
Mof_H 	H 	0.3511	0.1252	0.9408	0.11
Mof_H 	H 	0.4628	0.0982	0.8725	0.113
Mof_C 	C 	0.3864	0.9627	0.0053	0.109
Mof_H 	H 	0.3217	0.9524	0.9716	-0.005
Mof_H 	H 	0.3538	0.9429	0.0808	-0.004
_end
