data_functionalizedCrystal
_audit_creation_method	'EQeq! by Chris Wilmer'
_symmetry_space_group_name_H-M	'P1'
_symmetry_Int_Tables_number	1
_symmetry_cell_setting	triclinic
loop_
_symmetry_equiv_pos_as_xyz
  x,y,z
_cell_length_a	9.0279
_cell_length_b	18.1362
_cell_length_c	8.5631
_cell_angle_alpha	90
_cell_angle_beta	102.735
_cell_angle_gamma	90
loop_
_atom_site_label
_atom_site_type_symbol
_atom_site_fract_x
_atom_site_fract_y
_atom_site_fract_z
_atom_site_charge
Mof_Nd	Nd	0.26854	0.11924	0.06426	2.482
Mof_O 	O 	0.4879	0.0409	0.1806	-0.465
Mof_O 	O 	0.4164	0.1866	0.3027	-0.45
Mof_O 	O 	0.1476	0.3255	0.3028	-0.446
Mof_O 	O 	0.1433	0.2324	0.1346	-0.466
Mof_O 	O 	0.4207	0.2814	0.4712	-0.432
Mof_O 	O 	0.1899	0.9871	0.9959	-0.447
Mof_O 	O 	0.0099	0.904	0.9962	-0.443
Mof_O 	O 	0.5969	0.9353	0.1357	-0.432
Mof_C 	C 	0.2036	0.269	0.2536	0.282
Mof_C 	C 	0.3621	0.243	0.3512	0.273
Mof_C 	C 	0.5249	0.993	0.0913	0.283
Mof_C 	C 	0.0574	0.9687	0.9973	0.253
Mof_Nd	Nd	0.73146	0.61924	0.43574	2.506
Mof_O 	O 	0.5121	0.5409	0.3194	-0.465
Mof_O 	O 	0.5836	0.6866	0.1973	-0.452
Mof_O 	O 	0.8524	0.8255	0.1972	-0.441
Mof_O 	O 	0.8567	0.7324	0.3654	-0.464
Mof_O 	O 	0.5793	0.7814	0.0288	-0.427
Mof_O 	O 	0.8101	0.4871	0.5041	-0.451
Mof_O 	O 	0.9901	0.404	0.5038	-0.45
Mof_O 	O 	0.4031	0.4353	0.3643	-0.435
Mof_C 	C 	0.7964	0.769	0.2464	0.282
Mof_C 	C 	0.6379	0.743	0.1488	0.273
Mof_C 	C 	0.4751	0.493	0.4087	0.281
Mof_C 	C 	0.9426	0.4687	0.5027	0.251
Mof_Nd	Nd	0.73146	0.88077	0.93574	2.481
Mof_O 	O 	0.5121	0.9591	0.8194	-0.466
Mof_O 	O 	0.5836	0.8134	0.6973	-0.451
Mof_O 	O 	0.8524	0.6745	0.6972	-0.446
Mof_O 	O 	0.8567	0.7676	0.8654	-0.465
Mof_O 	O 	0.5793	0.7186	0.5288	-0.432
Mof_O 	O 	0.8101	0.0129	0.0041	-0.447
Mof_O 	O 	0.9901	0.096	0.0038	-0.443
Mof_O 	O 	0.4031	0.0647	0.8643	-0.431
Mof_C 	C 	0.7964	0.731	0.7464	0.282
Mof_C 	C 	0.6379	0.757	0.6488	0.273
Mof_C 	C 	0.4751	0.007	0.9087	0.283
Mof_C 	C 	0.9426	0.0313	0.0027	0.253
Mof_Nd	Nd	0.26854	0.38077	0.56426	2.506
Mof_O 	O 	0.4879	0.4591	0.6806	-0.465
Mof_O 	O 	0.4164	0.3134	0.8027	-0.452
Mof_O 	O 	0.1476	0.1745	0.8028	-0.441
Mof_O 	O 	0.1433	0.2676	0.6346	-0.463
Mof_O 	O 	0.4207	0.2186	0.9712	-0.427
Mof_O 	O 	0.1899	0.5129	0.4959	-0.451
Mof_O 	O 	0.0099	0.596	0.4962	-0.45
Mof_O 	O 	0.5969	0.5647	0.6357	-0.435
Mof_C 	C 	0.2036	0.231	0.7536	0.282
Mof_C 	C 	0.3621	0.257	0.8512	0.273
Mof_C 	C 	0.5249	0.507	0.5913	0.281
Mof_C 	C 	0.0574	0.5313	0.4973	0.251
_end
