data_functionalizedCrystal
_audit_creation_method	'EQeq! by Chris Wilmer'
_symmetry_space_group_name_H-M	'P1'
_symmetry_Int_Tables_number	1
_symmetry_cell_setting	triclinic
loop_
_symmetry_equiv_pos_as_xyz
  x,y,z
_cell_length_a	19.6997
_cell_length_b	25.9929
_cell_length_c	25.9929
_cell_angle_alpha	120
_cell_angle_beta	90
_cell_angle_gamma	90
loop_
_atom_site_label
_atom_site_type_symbol
_atom_site_fract_x
_atom_site_fract_y
_atom_site_fract_z
_atom_site_charge
Mof_Zn	Zn	0.59713	0.89822	0.33209	1.194
Mof_Zn	Zn	0.59713	0.43387	0.10178	1.194
Mof_Zn	Zn	0.59713	0.66791	0.56613	1.194
Mof_Zn	Zn	0.09713	0.10178	0.66791	1.194
Mof_Zn	Zn	0.09713	0.56613	0.89822	1.194
Mof_Zn	Zn	0.09713	0.33209	0.43387	1.194
Mof_Zn	Zn	0.40287	0.56613	0.66791	1.194
Mof_Zn	Zn	0.40287	0.33209	0.89822	1.194
Mof_Zn	Zn	0.40287	0.10178	0.43387	1.194
Mof_Zn	Zn	0.90287	0.43387	0.33209	1.194
Mof_Zn	Zn	0.90287	0.66791	0.10178	1.194
Mof_Zn	Zn	0.90287	0.89822	0.56613	1.193
Mof_Zn	Zn	0.40287	0.10178	0.66791	1.193
Mof_Zn	Zn	0.40287	0.56613	0.89822	1.193
Mof_Zn	Zn	0.40287	0.33209	0.43387	1.193
Mof_Zn	Zn	0.90287	0.89822	0.33209	1.193
Mof_Zn	Zn	0.90287	0.43387	0.10178	1.193
Mof_Zn	Zn	0.90287	0.66791	0.56613	1.193
Mof_Zn	Zn	0.59713	0.43387	0.33209	1.193
Mof_Zn	Zn	0.59713	0.66791	0.10178	1.193
Mof_Zn	Zn	0.59713	0.89822	0.56613	1.193
Mof_Zn	Zn	0.09713	0.56613	0.66791	1.192
Mof_Zn	Zn	0.09713	0.33209	0.89822	1.193
Mof_Zn	Zn	0.09713	0.10178	0.43387	1.193
Mof_H 	H 	0.4365	0.88502	0.31414	0.025
Mof_H 	H 	0.68597	0.00365	0.32147	0.026
Mof_H 	H 	0.59169	0.91464	0.22081	0.026
Mof_H 	H 	0.51142	0.7965	0.34737	0.025
Mof_H 	H 	0.4365	0.42912	0.11498	0.025
Mof_H 	H 	0.68597	0.31782	0.99635	0.038
Mof_H 	H 	0.59169	0.30617	0.08536	0.025
Mof_H 	H 	0.51142	0.55087	0.2035	0.025
Mof_H 	H 	0.4365	0.68586	0.57088	0.057
Mof_H 	H 	0.68597	0.67853	0.68218	0.038
Mof_H 	H 	0.59169	0.77919	0.69383	0.044
Mof_H 	H 	0.51142	0.65263	0.44913	0.026
Mof_H 	H 	0.9365	0.11498	0.68586	0.058
Mof_H 	H 	0.18597	0.99635	0.67853	0.039
Mof_H 	H 	0.09169	0.08536	0.77919	0.043
Mof_H 	H 	0.01142	0.2035	0.65263	0.025
Mof_H 	H 	0.9365	0.57088	0.88502	0.059
Mof_H 	H 	0.18597	0.68218	0.00365	0.026
Mof_H 	H 	0.09169	0.69383	0.91464	0.039
Mof_H 	H 	0.01142	0.44913	0.7965	0.025
Mof_H 	H 	0.9365	0.31414	0.42912	0.026
Mof_H 	H 	0.18597	0.32147	0.31782	0.029
Mof_H 	H 	0.09169	0.22081	0.30617	0.038
Mof_H 	H 	0.01142	0.34737	0.55087	0.024
Mof_H 	H 	0.5635	0.57088	0.68586	0.057
Mof_H 	H 	0.31403	0.68218	0.67853	0.036
Mof_H 	H 	0.40831	0.69383	0.77919	0.021
Mof_H 	H 	0.48858	0.44913	0.65263	0.026
Mof_H 	H 	0.5635	0.31414	0.88502	0.058
Mof_H 	H 	0.31403	0.32147	0.00365	0.025
Mof_H 	H 	0.40831	0.22081	0.91464	0.027
Mof_H 	H 	0.48858	0.34737	0.7965	0.025
Mof_H 	H 	0.5635	0.11498	0.42912	0.025
Mof_H 	H 	0.31403	0.99635	0.31782	0.029
Mof_H 	H 	0.40831	0.08536	0.30617	0.026
Mof_H 	H 	0.48858	0.2035	0.55087	0.025
Mof_H 	H 	0.0635	0.42912	0.31414	0.024
Mof_H 	H 	0.81403	0.31782	0.32147	0.029
Mof_H 	H 	0.90831	0.30617	0.22081	0.039
Mof_H 	H 	0.98858	0.55087	0.34737	0.025
Mof_H 	H 	0.0635	0.68586	0.11498	0.024
Mof_H 	H 	0.81403	0.67853	0.99635	0.041
Mof_H 	H 	0.90831	0.77919	0.08536	0.039
Mof_H 	H 	0.98858	0.65263	0.2035	0.026
Mof_H 	H 	0.0635	0.88502	0.57088	0.057
Mof_H 	H 	0.81403	0.00365	0.68218	0.034
Mof_H 	H 	0.90831	0.91464	0.69383	0.022
Mof_H 	H 	0.98858	0.7965	0.44913	0.027
Mof_H 	H 	0.5635	0.11498	0.68586	0.025
Mof_H 	H 	0.31403	0.99635	0.67853	0.031
Mof_H 	H 	0.40831	0.08536	0.77919	0.043
Mof_H 	H 	0.48858	0.2035	0.65263	0.025
Mof_H 	H 	0.5635	0.57088	0.88502	0.026
Mof_H 	H 	0.31403	0.68218	0.00365	0.035
Mof_H 	H 	0.40831	0.69383	0.91464	0.039
Mof_H 	H 	0.48858	0.44913	0.7965	0.025
Mof_H 	H 	0.5635	0.31414	0.42912	0.057
Mof_H 	H 	0.31403	0.32147	0.31782	0.038
Mof_H 	H 	0.40831	0.22081	0.30617	0.039
Mof_H 	H 	0.48858	0.34737	0.55087	0.026
Mof_H 	H 	0.0635	0.88502	0.31414	0.057
Mof_H 	H 	0.81403	0.00365	0.32147	0.035
Mof_H 	H 	0.90831	0.91464	0.22081	0.028
Mof_H 	H 	0.98858	0.7965	0.34737	0.027
Mof_H 	H 	0.0635	0.42912	0.11498	0.056
Mof_H 	H 	0.81403	0.31782	0.99635	0.029
Mof_H 	H 	0.90831	0.30617	0.08536	0.026
Mof_H 	H 	0.98858	0.55087	0.2035	0.026
Mof_H 	H 	0.0635	0.68586	0.57088	0.024
Mof_H 	H 	0.81403	0.67853	0.68218	0.03
Mof_H 	H 	0.90831	0.77919	0.69383	0.045
Mof_H 	H 	0.98858	0.65263	0.44913	0.025
Mof_H 	H 	0.4365	0.42912	0.31414	0.057
Mof_H 	H 	0.68597	0.31782	0.32147	0.038
Mof_H 	H 	0.59169	0.30617	0.22081	0.038
Mof_H 	H 	0.51142	0.55087	0.34737	0.026
Mof_H 	H 	0.4365	0.68586	0.11498	0.057
Mof_H 	H 	0.68597	0.67853	0.99635	0.032
Mof_H 	H 	0.59169	0.77919	0.08536	0.038
Mof_H 	H 	0.51142	0.65263	0.2035	0.025
Mof_H 	H 	0.4365	0.88502	0.57088	0.025
Mof_H 	H 	0.68597	0.00365	0.68218	0.026
Mof_H 	H 	0.59169	0.91464	0.69383	0.021
Mof_H 	H 	0.51142	0.7965	0.44913	0.025
Mof_H 	H 	0.9365	0.57088	0.68586	0.026
Mof_H 	H 	0.18597	0.68218	0.67853	0.028
Mof_H 	H 	0.09169	0.69383	0.77919	0.02
Mof_H 	H 	0.01142	0.44913	0.65263	0.024
Mof_H 	H 	0.9365	0.31414	0.88502	0.027
Mof_H 	H 	0.18597	0.32147	0.00365	0.033
Mof_H 	H 	0.09169	0.22081	0.91464	0.026
Mof_H 	H 	0.01142	0.34737	0.7965	0.024
Mof_H 	H 	0.9365	0.11498	0.42912	0.058
Mof_H 	H 	0.18597	0.99635	0.31782	0.037
Mof_H 	H 	0.09169	0.08536	0.30617	0.025
Mof_H 	H 	0.01142	0.2035	0.55087	0.025
Mof_H 	H 	0.65633	0.78282	0.21867	-0.005
Mof_H 	H 	0.65633	0.43585	0.21718	-0.005
Mof_H 	H 	0.65633	0.78133	0.56415	-0.005
Mof_H 	H 	0.15633	0.21718	0.78133	-0.005
Mof_H 	H 	0.15633	0.56415	0.78282	-0.005
Mof_H 	H 	0.15633	0.21867	0.43585	-0.005
Mof_H 	H 	0.34367	0.56415	0.78133	-0.005
Mof_H 	H 	0.34367	0.21867	0.78282	-0.005
Mof_H 	H 	0.34367	0.21718	0.43585	-0.005
Mof_H 	H 	0.84367	0.43585	0.21867	-0.005
Mof_H 	H 	0.84367	0.78133	0.21718	-0.005
Mof_H 	H 	0.84367	0.78282	0.56415	-0.005
Mof_H 	H 	0.50169	0.99854	0.42769	0.001
Mof_H 	H 	0.50169	0.42915	0.00146	-0
Mof_H 	H 	0.50169	0.57231	0.57085	0.001
Mof_H 	H 	0.00169	0.00146	0.57231	-0
Mof_H 	H 	0.00169	0.57085	0.99854	0.003
Mof_H 	H 	0.00169	0.42769	0.42915	-0.001
Mof_H 	H 	0.49831	0.00146	0.57231	-0.001
Mof_H 	H 	0.49831	0.57085	0.99854	0.003
Mof_H 	H 	0.49831	0.42769	0.42915	0.001
Mof_H 	H 	0.99831	0.99854	0.42769	0.006
Mof_H 	H 	0.99831	0.42915	0.00146	0.003
Mof_H 	H 	0.99831	0.57231	0.57085	0.003
Mof_C 	C 	0.498	0.812	0.2399	0.022
Mof_C 	C 	0.4348	0.8431	0.2686	-0.03
Mof_C 	C 	0.3787	0.8157	0.2345	-0.081
Mof_C 	C 	0.7149	0.9663	0.3227	0.018
Mof_C 	C 	0.5261	0.9784	0.2948	0.046
Mof_C 	C 	0.5548	0.9535	0.2372	-0.066
Mof_C 	C 	0.5306	0.9837	0.2084	-0.006
Mof_C 	C 	0.5376	0.8339	0.388	0.002
Mof_C 	C 	0.498	0.4279	0.188	0.022
Mof_C 	C 	0.4348	0.4255	0.1569	-0.03
Mof_C 	C 	0.3787	0.4188	0.1843	-0.081
Mof_C 	C 	0.7149	0.3564	0.0337	0.013
Mof_C 	C 	0.5261	0.3164	0.0216	0.041
Mof_C 	C 	0.5548	0.2837	0.0465	-0.062
Mof_C 	C 	0.5306	0.2247	0.0163	-0.012
Mof_C 	C 	0.5376	0.5541	0.1661	0.002
Mof_C 	C 	0.498	0.7601	0.5721	0.06
Mof_C 	C 	0.4348	0.7314	0.5745	-0.111
Mof_C 	C 	0.3787	0.7655	0.5812	0.135
Mof_C 	C 	0.7149	0.6773	0.6436	0.016
Mof_C 	C 	0.5261	0.7052	0.6836	0.065
Mof_C 	C 	0.5548	0.7628	0.7163	-0.113
Mof_C 	C 	0.5306	0.7916	0.7753	0.136
Mof_C 	C 	0.5376	0.612	0.4459	0.003
Mof_C 	C 	0.998	0.188	0.7601	0.063
Mof_C 	C 	0.9348	0.1569	0.7314	-0.111
Mof_C 	C 	0.8787	0.1843	0.7655	0.134
Mof_C 	C 	0.2149	0.0337	0.6773	0.015
Mof_C 	C 	0.0261	0.0216	0.7052	0.058
Mof_C 	C 	0.0548	0.0465	0.7628	-0.111
Mof_C 	C 	0.0306	0.0163	0.7916	0.129
Mof_C 	C 	0.0376	0.1661	0.612	0.003
Mof_C 	C 	0.998	0.5721	0.812	0.063
Mof_C 	C 	0.9348	0.5745	0.8431	-0.111
Mof_C 	C 	0.8787	0.5812	0.8157	0.136
Mof_C 	C 	0.2149	0.6436	0.9663	0.02
Mof_C 	C 	0.0261	0.6836	0.9784	0.049
Mof_C 	C 	0.0548	0.7163	0.9535	-0.091
Mof_C 	C 	0.0306	0.7753	0.9837	0.09
Mof_C 	C 	0.0376	0.4459	0.8339	0.003
Mof_C 	C 	0.998	0.2399	0.4279	0.025
Mof_C 	C 	0.9348	0.2686	0.4255	-0.03
Mof_C 	C 	0.8787	0.2345	0.4188	-0.08
Mof_C 	C 	0.2149	0.3227	0.3564	0.017
Mof_C 	C 	0.0261	0.2948	0.3164	0.043
Mof_C 	C 	0.0548	0.2372	0.2837	-0.091
Mof_C 	C 	0.0306	0.2084	0.2247	0.086
Mof_C 	C 	0.0376	0.388	0.5541	0.002
Mof_C 	C 	0.502	0.5721	0.7601	0.061
Mof_C 	C 	0.5652	0.5745	0.7314	-0.111
Mof_C 	C 	0.6213	0.5812	0.7655	0.135
Mof_C 	C 	0.2851	0.6436	0.6773	0.015
Mof_C 	C 	0.4739	0.6836	0.7052	0.032
Mof_C 	C 	0.4452	0.7163	0.7628	-0.041
Mof_C 	C 	0.4694	0.7753	0.7916	-0.054
Mof_C 	C 	0.4624	0.4459	0.612	0.003
Mof_C 	C 	0.502	0.2399	0.812	0.06
Mof_C 	C 	0.5652	0.2686	0.8431	-0.111
Mof_C 	C 	0.6213	0.2345	0.8157	0.134
Mof_C 	C 	0.2851	0.3227	0.9663	0.019
Mof_C 	C 	0.4739	0.2948	0.9784	0.049
Mof_C 	C 	0.4452	0.2372	0.9535	-0.067
Mof_C 	C 	0.4694	0.2084	0.9837	-0.005
Mof_C 	C 	0.4624	0.388	0.8339	0.003
Mof_C 	C 	0.502	0.188	0.4279	0.022
Mof_C 	C 	0.5652	0.1569	0.4255	-0.03
Mof_C 	C 	0.6213	0.1843	0.4188	-0.081
Mof_C 	C 	0.2851	0.0337	0.3564	0.015
Mof_C 	C 	0.4739	0.0216	0.3164	0.041
Mof_C 	C 	0.4452	0.0465	0.2837	-0.064
Mof_C 	C 	0.4694	0.0163	0.2247	-0.011
Mof_C 	C 	0.4624	0.1661	0.5541	0.002
Mof_C 	C 	0.002	0.4279	0.2399	0.02
Mof_C 	C 	0.0652	0.4255	0.2686	-0.03
Mof_C 	C 	0.1213	0.4188	0.2345	-0.081
Mof_C 	C 	0.7851	0.3564	0.3227	0.017
Mof_C 	C 	0.9739	0.3164	0.2948	0.053
Mof_C 	C 	0.9452	0.2837	0.2372	-0.096
Mof_C 	C 	0.9694	0.2247	0.2084	0.095
Mof_C 	C 	0.9624	0.5541	0.388	0.003
Mof_C 	C 	0.002	0.7601	0.188	0.02
Mof_C 	C 	0.0652	0.7314	0.1569	-0.03
Mof_C 	C 	0.1213	0.7655	0.1843	-0.081
Mof_C 	C 	0.7851	0.6773	0.0337	0.014
Mof_C 	C 	0.9739	0.7052	0.0216	0.051
Mof_C 	C 	0.9452	0.7628	0.0465	-0.093
Mof_C 	C 	0.9694	0.7916	0.0163	0.093
Mof_C 	C 	0.9624	0.612	0.1661	0.003
Mof_C 	C 	0.002	0.812	0.5721	0.058
Mof_C 	C 	0.0652	0.8431	0.5745	-0.111
Mof_C 	C 	0.1213	0.8157	0.5812	0.134
Mof_C 	C 	0.7851	0.9663	0.6436	0.017
Mof_C 	C 	0.9739	0.9784	0.6836	0.038
Mof_C 	C 	0.9452	0.9535	0.7163	-0.044
Mof_C 	C 	0.9694	0.9837	0.7753	-0.049
Mof_C 	C 	0.9624	0.8339	0.4459	0.004
Mof_C 	C 	0.502	0.188	0.7601	0.023
Mof_C 	C 	0.5652	0.1569	0.7314	-0.032
Mof_C 	C 	0.6213	0.1843	0.7655	-0.08
Mof_C 	C 	0.2851	0.0337	0.6773	0.016
Mof_C 	C 	0.4739	0.0216	0.7052	0.06
Mof_C 	C 	0.4452	0.0465	0.7628	-0.114
Mof_C 	C 	0.4694	0.0163	0.7916	0.132
Mof_C 	C 	0.4624	0.1661	0.612	0.002
Mof_C 	C 	0.502	0.5721	0.812	0.023
Mof_C 	C 	0.5652	0.5745	0.8431	-0.031
Mof_C 	C 	0.6213	0.5812	0.8157	-0.079
Mof_C 	C 	0.2851	0.6436	0.9663	0.019
Mof_C 	C 	0.4739	0.6836	0.9784	0.054
Mof_C 	C 	0.4452	0.7163	0.9535	-0.094
Mof_C 	C 	0.4694	0.7753	0.9837	0.095
Mof_C 	C 	0.4624	0.4459	0.8339	0.003
Mof_C 	C 	0.502	0.2399	0.4279	0.06
Mof_C 	C 	0.5652	0.2686	0.4255	-0.11
Mof_C 	C 	0.6213	0.2345	0.4188	0.133
Mof_C 	C 	0.2851	0.3227	0.3564	0.016
Mof_C 	C 	0.4739	0.2948	0.3164	0.05
Mof_C 	C 	0.4452	0.2372	0.2837	-0.092
Mof_C 	C 	0.4694	0.2084	0.2247	0.091
Mof_C 	C 	0.4624	0.388	0.5541	0.003
Mof_C 	C 	0.002	0.812	0.2399	0.058
Mof_C 	C 	0.0652	0.8431	0.2686	-0.111
Mof_C 	C 	0.1213	0.8157	0.2345	0.133
Mof_C 	C 	0.7851	0.9663	0.3227	0.016
Mof_C 	C 	0.9739	0.9784	0.2948	0.054
Mof_C 	C 	0.9452	0.9535	0.2372	-0.068
Mof_C 	C 	0.9694	0.9837	0.2084	0
Mof_C 	C 	0.9624	0.8339	0.388	0.004
Mof_C 	C 	0.002	0.4279	0.188	0.058
Mof_C 	C 	0.0652	0.4255	0.1569	-0.111
Mof_C 	C 	0.1213	0.4188	0.1843	0.133
Mof_C 	C 	0.7851	0.3564	0.0337	0.014
Mof_C 	C 	0.9739	0.3164	0.0216	0.045
Mof_C 	C 	0.9452	0.2837	0.0465	-0.065
Mof_C 	C 	0.9694	0.2247	0.0163	-0.007
Mof_C 	C 	0.9624	0.5541	0.1661	0.003
Mof_C 	C 	0.002	0.7601	0.5721	0.02
Mof_C 	C 	0.0652	0.7314	0.5745	-0.032
Mof_C 	C 	0.1213	0.7655	0.5812	-0.08
Mof_C 	C 	0.7851	0.6773	0.6436	0.017
Mof_C 	C 	0.9739	0.7052	0.6836	0.068
Mof_C 	C 	0.9452	0.7628	0.7163	-0.116
Mof_C 	C 	0.9694	0.7916	0.7753	0.14
Mof_C 	C 	0.9624	0.612	0.4459	0.003
Mof_C 	C 	0.498	0.4279	0.2399	0.06
Mof_C 	C 	0.4348	0.4255	0.2686	-0.11
Mof_C 	C 	0.3787	0.4188	0.2345	0.133
Mof_C 	C 	0.7149	0.3564	0.3227	0.016
Mof_C 	C 	0.5261	0.3164	0.2948	0.051
Mof_C 	C 	0.5548	0.2837	0.2372	-0.092
Mof_C 	C 	0.5306	0.2247	0.2084	0.092
Mof_C 	C 	0.5376	0.5541	0.388	0.003
Mof_C 	C 	0.498	0.7601	0.188	0.06
Mof_C 	C 	0.4348	0.7314	0.1569	-0.111
Mof_C 	C 	0.3787	0.7655	0.1843	0.133
Mof_C 	C 	0.7149	0.6773	0.0337	0.015
Mof_C 	C 	0.5261	0.7052	0.0216	0.045
Mof_C 	C 	0.5548	0.7628	0.0465	-0.09
Mof_C 	C 	0.5306	0.7916	0.0163	0.087
Mof_C 	C 	0.5376	0.612	0.1661	0.003
Mof_C 	C 	0.498	0.812	0.5721	0.023
Mof_C 	C 	0.4348	0.8431	0.5745	-0.032
Mof_C 	C 	0.3787	0.8157	0.5812	-0.08
Mof_C 	C 	0.7149	0.9663	0.6436	0.018
Mof_C 	C 	0.5261	0.9784	0.6836	0.031
Mof_C 	C 	0.5548	0.9535	0.7163	-0.042
Mof_C 	C 	0.5306	0.9837	0.7753	-0.055
Mof_C 	C 	0.5376	0.8339	0.4459	0.002
Mof_C 	C 	0.998	0.5721	0.7601	0.026
Mof_C 	C 	0.9348	0.5745	0.7314	-0.031
Mof_C 	C 	0.8787	0.5812	0.7655	-0.079
Mof_C 	C 	0.2149	0.6436	0.6773	0.016
Mof_C 	C 	0.0261	0.6836	0.7052	0.024
Mof_C 	C 	0.0548	0.7163	0.7628	-0.039
Mof_C 	C 	0.0306	0.7753	0.7916	-0.06
Mof_C 	C 	0.0376	0.4459	0.612	0.002
Mof_C 	C 	0.998	0.2399	0.812	0.025
Mof_C 	C 	0.9348	0.2686	0.8431	-0.032
Mof_C 	C 	0.8787	0.2345	0.8157	-0.08
Mof_C 	C 	0.2149	0.3227	0.9663	0.018
Mof_C 	C 	0.0261	0.2948	0.9784	0.045
Mof_C 	C 	0.0548	0.2372	0.9535	-0.064
Mof_C 	C 	0.0306	0.2084	0.9837	-0.01
Mof_C 	C 	0.0376	0.388	0.8339	0.002
Mof_C 	C 	0.998	0.188	0.4279	0.063
Mof_C 	C 	0.9348	0.1569	0.4255	-0.111
Mof_C 	C 	0.8787	0.1843	0.4188	0.133
Mof_C 	C 	0.2149	0.0337	0.3564	0.014
Mof_C 	C 	0.0261	0.0216	0.3164	0.039
Mof_C 	C 	0.0548	0.0465	0.2837	-0.06
Mof_C 	C 	0.0306	0.0163	0.2247	-0.016
Mof_C 	C 	0.0376	0.1661	0.5541	0.003
Mof_C 	C 	0.5986	0.78375	0.21625	0.095
Mof_C 	C 	0.5986	0.4325	0.21625	0.095
Mof_C 	C 	0.5986	0.78375	0.5675	0.095
Mof_C 	C 	0.0986	0.21625	0.78375	0.094
Mof_C 	C 	0.0986	0.5675	0.78375	0.095
Mof_C 	C 	0.0986	0.21625	0.4325	0.094
Mof_C 	C 	0.4014	0.5675	0.78375	0.095
Mof_C 	C 	0.4014	0.21625	0.78375	0.095
Mof_C 	C 	0.4014	0.21625	0.4325	0.095
Mof_C 	C 	0.9014	0.4325	0.21625	0.095
Mof_C 	C 	0.9014	0.78375	0.21625	0.095
Mof_C 	C 	0.9014	0.78375	0.5675	0.095
Mof_C 	C 	0.75	0.8908	0.3226	0.156
Mof_C 	C 	0.75	0.4318	0.1092	0.156
Mof_C 	C 	0.75	0.6774	0.5682	0.156
Mof_C 	C 	0.25	0.1092	0.6774	0.156
Mof_C 	C 	0.25	0.5682	0.8908	0.156
Mof_C 	C 	0.25	0.3226	0.4318	0.156
Mof_C 	C 	0.25	0.5682	0.6774	0.156
Mof_C 	C 	0.25	0.3226	0.8908	0.156
Mof_C 	C 	0.25	0.1092	0.4318	0.156
Mof_C 	C 	0.75	0.4318	0.3226	0.156
Mof_C 	C 	0.75	0.6774	0.1092	0.156
Mof_C 	C 	0.75	0.8908	0.5682	0.156
Mof_C 	C 	0.5	0	0.3846	0.059
Mof_C 	C 	0.5	0.3846	-0	0.06
Mof_C 	C 	0.5	0.6154	0.6154	0.064
Mof_C 	C 	8.76013e-33	0	0.6154	0.059
Mof_C 	C 	8.76013e-33	0.6154	-0	0.053
Mof_C 	C 	1.31402e-32	0.3846	0.3846	0.058
Mof_C 	C 	0.5	0	0.6154	0.06
Mof_C 	C 	0.5	0.6154	-0	0.057
Mof_C 	C 	0.5	0.3846	0.3846	0.064
Mof_C 	C 	1.31402e-32	0	0.3846	0.055
Mof_C 	C 	4.38007e-33	0.3846	-0	0.053
Mof_C 	C 	1.75203e-32	0.6154	0.6154	0.055
Mof_C 	C 	0.5927	0.909	0.4545	0.199
Mof_C 	C 	0.5927	0.5455	0.091	0.199
Mof_C 	C 	0.5927	0.5455	0.4545	0.2
Mof_C 	C 	0.0927	0.091	0.5455	0.199
Mof_C 	C 	0.0927	0.4545	0.909	0.2
Mof_C 	C 	0.0927	0.4545	0.5455	0.199
Mof_C 	C 	0.4073	0.4545	0.5455	0.2
Mof_C 	C 	0.4073	0.4545	0.909	0.2
Mof_C 	C 	0.4073	0.091	0.5455	0.199
Mof_C 	C 	0.9073	0.5455	0.4545	0.2
Mof_C 	C 	0.9073	0.5455	0.091	0.2
Mof_C 	C 	0.9073	0.909	0.4545	0.2
Mof_Br	Br	0.2989	0.7164	0.584	-0.243
Mof_Br	Br	0.5541	0.8687	0.8316	-0.209
Mof_Br	Br	0.7989	0.1324	0.7164	-0.245
Mof_Br	Br	0.0541	0.0371	0.8687	-0.224
Mof_Br	Br	0.7989	0.584	0.8676	-0.24
Mof_Br	Br	0.0541	0.8316	0.9629	-0.179
Mof_Br	Br	0.0541	0.1313	0.1684	-0.191
Mof_Br	Br	0.7011	0.584	0.7164	-0.241
Mof_Br	Br	0.7011	0.2836	0.8676	-0.244
Mof_Br	Br	0.9459	0.1684	0.1313	-0.189
Mof_Br	Br	0.9459	0.8687	0.0371	-0.182
Mof_Br	Br	0.2011	0.8676	0.584	-0.242
Mof_Br	Br	0.4459	0.0371	0.8687	-0.224
Mof_Br	Br	0.4459	0.8316	0.9629	-0.177
Mof_Br	Br	0.7011	0.2836	0.416	-0.244
Mof_Br	Br	0.4459	0.1313	0.1684	-0.189
Mof_Br	Br	0.2011	0.8676	0.2836	-0.245
Mof_Br	Br	0.2011	0.416	0.1324	-0.246
Mof_Br	Br	0.9459	0.8687	0.8316	-0.208
Mof_Br	Br	0.2989	0.416	0.2836	-0.244
Mof_Br	Br	0.5541	0.1684	0.1313	-0.19
Mof_Br	Br	0.2989	0.7164	0.1324	-0.245
Mof_Br	Br	0.5541	0.8687	0.0371	-0.184
Mof_Br	Br	0.7989	0.1324	0.416	-0.245
Mof_N 	N 	0.5641	0.8284	0.2589	-0.28
Mof_N 	N 	0.6917	0.9178	0.3243	-0.277
Mof_N 	N 	0.5421	0.9635	0.3379	-0.275
Mof_N 	N 	0.5738	0.8856	0.3994	-0.278
Mof_N 	N 	0.5641	0.4305	0.1716	-0.28
Mof_N 	N 	0.6917	0.4065	0.0822	-0.276
Mof_N 	N 	0.5421	0.3744	0.0365	-0.275
Mof_N 	N 	0.5738	0.5138	0.1144	-0.278
Mof_N 	N 	0.5641	0.7411	0.5695	-0.285
Mof_N 	N 	0.6917	0.6757	0.5935	-0.276
Mof_N 	N 	0.5421	0.6621	0.6256	-0.278
Mof_N 	N 	0.5738	0.6006	0.4862	-0.278
Mof_N 	N 	0.0641	0.1716	0.7411	-0.287
Mof_N 	N 	0.1917	0.0822	0.6757	-0.276
Mof_N 	N 	0.0421	0.0365	0.6621	-0.277
Mof_N 	N 	0.0738	0.1144	0.6006	-0.278
Mof_N 	N 	0.0641	0.5695	0.8284	-0.287
Mof_N 	N 	0.1917	0.5935	0.9178	-0.277
Mof_N 	N 	0.0421	0.6256	0.9635	-0.274
Mof_N 	N 	0.0738	0.4862	0.8856	-0.278
Mof_N 	N 	0.0641	0.2589	0.4305	-0.281
Mof_N 	N 	0.1917	0.3243	0.4065	-0.277
Mof_N 	N 	0.0421	0.3379	0.3744	-0.276
Mof_N 	N 	0.0738	0.3994	0.5138	-0.278
Mof_N 	N 	0.4359	0.5695	0.7411	-0.285
Mof_N 	N 	0.3083	0.5935	0.6757	-0.276
Mof_N 	N 	0.4579	0.6256	0.6621	-0.273
Mof_N 	N 	0.4262	0.4862	0.6006	-0.278
Mof_N 	N 	0.4359	0.2589	0.8284	-0.285
Mof_N 	N 	0.3083	0.3243	0.9178	-0.277
Mof_N 	N 	0.4579	0.3379	0.9635	-0.275
Mof_N 	N 	0.4262	0.3994	0.8856	-0.277
Mof_N 	N 	0.4359	0.1716	0.4305	-0.28
Mof_N 	N 	0.3083	0.0822	0.4065	-0.277
Mof_N 	N 	0.4579	0.0365	0.3744	-0.276
Mof_N 	N 	0.4262	0.1144	0.5138	-0.278
Mof_N 	N 	0.9359	0.4305	0.2589	-0.278
Mof_N 	N 	0.8083	0.4065	0.3243	-0.277
Mof_N 	N 	0.9579	0.3744	0.3379	-0.275
Mof_N 	N 	0.9262	0.5138	0.3994	-0.277
Mof_N 	N 	0.9359	0.7411	0.1716	-0.278
Mof_N 	N 	0.8083	0.6757	0.0822	-0.276
Mof_N 	N 	0.9579	0.6621	0.0365	-0.273
Mof_N 	N 	0.9262	0.6006	0.1144	-0.277
Mof_N 	N 	0.9359	0.8284	0.5695	-0.284
Mof_N 	N 	0.8083	0.9178	0.5935	-0.276
Mof_N 	N 	0.9579	0.9635	0.6256	-0.271
Mof_N 	N 	0.9262	0.8856	0.4862	-0.277
Mof_N 	N 	0.4359	0.1716	0.7411	-0.28
Mof_N 	N 	0.3083	0.0822	0.6757	-0.277
Mof_N 	N 	0.4579	0.0365	0.6621	-0.278
Mof_N 	N 	0.4262	0.1144	0.6006	-0.278
Mof_N 	N 	0.4359	0.5695	0.8284	-0.28
Mof_N 	N 	0.3083	0.5935	0.9178	-0.277
Mof_N 	N 	0.4579	0.6256	0.9635	-0.274
Mof_N 	N 	0.4262	0.4862	0.8856	-0.278
Mof_N 	N 	0.4359	0.2589	0.4305	-0.285
Mof_N 	N 	0.3083	0.3243	0.4065	-0.276
Mof_N 	N 	0.4579	0.3379	0.3744	-0.276
Mof_N 	N 	0.4262	0.3994	0.5138	-0.278
Mof_N 	N 	0.9359	0.8284	0.2589	-0.284
Mof_N 	N 	0.8083	0.9178	0.3243	-0.277
Mof_N 	N 	0.9579	0.9635	0.3379	-0.273
Mof_N 	N 	0.9262	0.8856	0.3994	-0.277
Mof_N 	N 	0.9359	0.4305	0.1716	-0.284
Mof_N 	N 	0.8083	0.4065	0.0822	-0.277
Mof_N 	N 	0.9579	0.3744	0.0365	-0.274
Mof_N 	N 	0.9262	0.5138	0.1144	-0.277
Mof_N 	N 	0.9359	0.7411	0.5695	-0.278
Mof_N 	N 	0.8083	0.6757	0.5935	-0.277
Mof_N 	N 	0.9579	0.6621	0.6256	-0.277
Mof_N 	N 	0.9262	0.6006	0.4862	-0.278
Mof_N 	N 	0.5641	0.4305	0.2589	-0.285
Mof_N 	N 	0.6917	0.4065	0.3243	-0.276
Mof_N 	N 	0.5421	0.3744	0.3379	-0.276
Mof_N 	N 	0.5738	0.5138	0.3994	-0.278
Mof_N 	N 	0.5641	0.7411	0.1716	-0.285
Mof_N 	N 	0.6917	0.6757	0.0822	-0.277
Mof_N 	N 	0.5421	0.6621	0.0365	-0.275
Mof_N 	N 	0.5738	0.6006	0.1144	-0.278
Mof_N 	N 	0.5641	0.8284	0.5695	-0.28
Mof_N 	N 	0.6917	0.9178	0.5935	-0.277
Mof_N 	N 	0.5421	0.9635	0.6256	-0.273
Mof_N 	N 	0.5738	0.8856	0.4862	-0.278
Mof_N 	N 	0.0641	0.5695	0.7411	-0.281
Mof_N 	N 	0.1917	0.5935	0.6757	-0.277
Mof_N 	N 	0.0421	0.6256	0.6621	-0.273
Mof_N 	N 	0.0738	0.4862	0.6006	-0.278
Mof_N 	N 	0.0641	0.2589	0.8284	-0.281
Mof_N 	N 	0.1917	0.3243	0.9178	-0.277
Mof_N 	N 	0.0421	0.3379	0.9635	-0.273
Mof_N 	N 	0.0738	0.3994	0.8856	-0.278
Mof_N 	N 	0.0641	0.1716	0.4305	-0.287
Mof_N 	N 	0.1917	0.0822	0.4065	-0.276
Mof_N 	N 	0.0421	0.0365	0.3744	-0.273
Mof_N 	N 	0.0738	0.1144	0.5138	-0.278
Mof_N 	N 	0.75	0.8365	0.3238	-0.027
Mof_N 	N 	0.75	0.4873	0.1635	-0.027
Mof_N 	N 	0.75	0.6762	0.5127	-0.027
Mof_N 	N 	0.25	0.1635	0.6762	-0.027
Mof_N 	N 	0.25	0.5127	0.8365	-0.027
Mof_N 	N 	0.25	0.3238	0.4873	-0.027
Mof_N 	N 	0.25	0.5127	0.6762	-0.027
Mof_N 	N 	0.25	0.3238	0.8365	-0.027
Mof_N 	N 	0.25	0.1635	0.4873	-0.027
Mof_N 	N 	0.75	0.4873	0.3238	-0.027
Mof_N 	N 	0.75	0.6762	0.1635	-0.027
Mof_N 	N 	0.75	0.8365	0.5127	-0.027
Mof_N 	N 	0.6273	0.9608	0.4804	-0.039
Mof_N 	N 	0.6273	0.5196	0.0392	-0.04
Mof_N 	N 	0.6273	0.5196	0.4804	-0.04
Mof_N 	N 	0.1273	0.0392	0.5196	-0.04
Mof_N 	N 	0.1273	0.4804	0.9608	-0.04
Mof_N 	N 	0.1273	0.4804	0.5196	-0.039
Mof_N 	N 	0.3727	0.4804	0.5196	-0.04
Mof_N 	N 	0.3727	0.4804	0.9608	-0.04
Mof_N 	N 	0.3727	0.0392	0.5196	-0.039
Mof_N 	N 	0.8727	0.5196	0.4804	-0.039
Mof_N 	N 	0.8727	0.5196	0.0392	-0.04
Mof_N 	N 	0.8727	0.9608	0.4804	-0.04
Mof_O 	O 	0.6956	0.8143	0.325	-0.161
Mof_O 	O 	0.6398	0.985	0.4507	-0.16
Mof_O 	O 	0.6956	0.5107	0.1857	-0.161
Mof_O 	O 	0.6398	0.4657	0.015	-0.158
Mof_O 	O 	0.6956	0.675	0.4893	-0.161
Mof_O 	O 	0.6398	0.5493	0.5343	-0.157
Mof_O 	O 	0.1956	0.1857	0.675	-0.161
Mof_O 	O 	0.1398	0.015	0.5493	-0.158
Mof_O 	O 	0.1956	0.4893	0.8143	-0.161
Mof_O 	O 	0.1398	0.5343	0.985	-0.16
Mof_O 	O 	0.1956	0.325	0.5107	-0.161
Mof_O 	O 	0.1398	0.4507	0.4657	-0.161
Mof_O 	O 	0.3044	0.4893	0.675	-0.161
Mof_O 	O 	0.3602	0.5343	0.5493	-0.157
Mof_O 	O 	0.3044	0.325	0.8143	-0.161
Mof_O 	O 	0.3602	0.4507	0.985	-0.159
Mof_O 	O 	0.3044	0.1857	0.5107	-0.161
Mof_O 	O 	0.3602	0.015	0.4657	-0.162
Mof_O 	O 	0.8044	0.5107	0.325	-0.161
Mof_O 	O 	0.8602	0.4657	0.4507	-0.16
Mof_O 	O 	0.8044	0.675	0.1857	-0.161
Mof_O 	O 	0.8602	0.5493	0.015	-0.158
Mof_O 	O 	0.8044	0.8143	0.4893	-0.161
Mof_O 	O 	0.8602	0.985	0.5343	-0.156
Mof_O 	O 	0.3044	0.1857	0.675	-0.161
Mof_O 	O 	0.3602	0.015	0.5493	-0.162
Mof_O 	O 	0.3044	0.4893	0.8143	-0.161
Mof_O 	O 	0.3602	0.5343	0.985	-0.157
Mof_O 	O 	0.3044	0.325	0.5107	-0.161
Mof_O 	O 	0.3602	0.4507	0.4657	-0.157
Mof_O 	O 	0.8044	0.8143	0.325	-0.161
Mof_O 	O 	0.8602	0.985	0.4507	-0.156
Mof_O 	O 	0.8044	0.5107	0.1857	-0.161
Mof_O 	O 	0.8602	0.4657	0.015	-0.161
Mof_O 	O 	0.8044	0.675	0.4893	-0.161
Mof_O 	O 	0.8602	0.5493	0.5343	-0.161
Mof_O 	O 	0.6956	0.5107	0.325	-0.161
Mof_O 	O 	0.6398	0.4657	0.4507	-0.157
Mof_O 	O 	0.6956	0.675	0.1857	-0.161
Mof_O 	O 	0.6398	0.5493	0.015	-0.161
Mof_O 	O 	0.6956	0.8143	0.4893	-0.161
Mof_O 	O 	0.6398	0.985	0.5343	-0.161
Mof_O 	O 	0.1956	0.4893	0.675	-0.161
Mof_O 	O 	0.1398	0.5343	0.5493	-0.161
Mof_O 	O 	0.1956	0.325	0.8143	-0.161
Mof_O 	O 	0.1398	0.4507	0.985	-0.157
Mof_O 	O 	0.1956	0.1857	0.5107	-0.161
Mof_O 	O 	0.1398	0.015	0.4657	-0.158
Mof_H 	H 	0.32647	0.83692	0.24948	0.089
Mof_H 	H 	0.56082	0.98235	0.17034	0.065
Mof_H 	H 	0.32647	0.41256	0.16308	0.089
Mof_H 	H 	0.56082	0.18799	0.01765	0.064
Mof_H 	H 	0.82647	0.24948	0.41256	0.089
Mof_H 	H 	0.43739	0.81043	0.8294	0.088
Mof_H 	H 	0.43739	0.1706	0.98102	0.065
Mof_H 	H 	0.67353	0.16308	0.41256	0.089
Mof_H 	H 	0.43918	0.01765	0.18799	0.065
Mof_H 	H 	0.17353	0.41256	0.24948	0.089
Mof_H 	H 	0.17353	0.75052	0.16308	0.089
Mof_H 	H 	0.93918	0.98235	0.81201	0.087
Mof_H 	H 	0.67096	0.15941	0.74654	0.088
Mof_H 	H 	0.67096	0.58713	0.84059	0.089
Mof_H 	H 	0.93918	0.98235	0.17034	0.065
Mof_H 	H 	0.93918	0.18799	0.01765	0.063
Mof_H 	H 	0.17096	0.74654	0.58713	0.088
Mof_H 	H 	0.32904	0.84059	0.58713	0.089
Mof_H 	H 	0.56082	0.98235	0.81201	0.087
Mof_H 	H 	0.82904	0.58713	0.74654	0.089
Mof_H 	H 	0.06261	0.81043	0.8294	0.089
Mof_H 	H 	0.82904	0.25346	0.84059	0.088
Mof_H 	H 	0.06261	0.1706	0.98102	0.066
Mof_H 	H 	0.06082	0.01765	0.18799	0.066
_end
