data_functionalizedCrystal
_audit_creation_method	'EQeq! by Chris Wilmer'
_symmetry_space_group_name_H-M	'P1'
_symmetry_Int_Tables_number	1
_symmetry_cell_setting	triclinic
loop_
_symmetry_equiv_pos_as_xyz
  x,y,z
_cell_length_a	15.8346
_cell_length_b	15.8346
_cell_length_c	21.463
_cell_angle_alpha	90
_cell_angle_beta	90
_cell_angle_gamma	90
loop_
_atom_site_label
_atom_site_type_symbol
_atom_site_fract_x
_atom_site_fract_y
_atom_site_fract_z
_atom_site_charge
Mof_C 	C 	0.9127	0.8592	0.858	0.071
Mof_H 	H 	0.9629	0.8883	0.8468	0.016
Mof_C 	C 	0.8832	0.7978	0.8187	-0.124
Mof_H 	H 	0.9137	0.7844	0.7819	0.071
Mof_C 	C 	0.8077	0.7543	0.8327	0.062
Mof_C 	C 	0.7651	0.7818	0.885	-0.128
Mof_H 	H 	0.7113	0.7587	0.8948	0.07
Mof_C 	C 	0.7997	0.8426	0.9229	0.068
Mof_H 	H 	0.7693	0.8587	0.9591	0.01
Mof_C 	C 	0.778	0.6822	0.7948	0.017
Mof_C 	C 	0.8081	0.6636	0.7359	-0.078
Mof_H 	H 	0.8497	0.699	0.7176	0.056
Mof_C 	C 	0.4057	0.2214	0.7965	-0
Mof_H 	H 	0.416	0.201	0.8374	0.03
Mof_C 	C 	0.4604	0.2799	0.771	-0.076
Mof_H 	H 	0.509	0.2981	0.7932	0.064
Mof_C 	C 	0.4427	0.3112	0.7128	0.015
Mof_C 	C 	0.3724	0.2829	0.6797	-0.078
Mof_H 	H 	0.3612	0.305	0.6394	0.055
Mof_C 	C 	0.4966	0.3753	0.6813	0.098
Mof_C 	C 	0.5922	0.4257	0.6192	0.094
Mof_C 	C 	0.6637	0.4344	0.5754	0.023
Mof_C 	C 	0.6651	0.5065	0.5387	-0.079
Mof_H 	H 	0.62	0.5459	0.5409	0.06
Mof_C 	C 	0.7317	0.5209	0.499	-0.001
Mof_H 	H 	0.7362	0.5727	0.4769	0.026
Mof_C 	C 	0.7937	0.4568	0.4917	-0.077
Mof_H 	H 	0.8353	0.4617	0.46	0.054
Mof_C 	C 	0.7934	0.3884	0.53	0.021
Mof_C 	C 	0.7265	0.3753	0.5701	-0.087
Mof_H 	H 	0.724	0.3251	0.5943	0.067
Mof_C 	C 	0.8601	0.3199	0.5225	0.068
Mof_C 	C 	0.877	0.2649	0.5713	-0.136
Mof_H 	H 	0.8507	0.2715	0.6108	0.073
Mof_C 	C 	0.9336	0.2003	0.5602	0.084
Mof_H 	H 	0.9422	0.1611	0.5931	0.012
Mof_C 	C 	0.9611	0.2446	0.4639	0.073
Mof_H 	H 	0.9909	0.2379	0.4258	0.009
Mof_C 	C 	0.9063	0.3115	0.468	-0.134
Mof_H 	H 	0.9003	0.3506	0.4347	0.072
Mof_N 	N 	0.8745	0.8806	0.9116	-0.149
Mof_N 	N 	0.4917	0.4559	0.6837	-0.119
Mof_N 	N 	0.5527	0.4895	0.6446	-0.102
Mof_N 	N 	0.5598	0.353	0.6418	-0.11
Mof_N 	N 	0.5812	0.269	0.6233	-0.21
Mof_H 	H 	0.583	0.2352	0.6576	0.112
Mof_H 	H 	0.541	0.2497	0.5966	0.109
Mof_N 	N 	0.9764	0.1875	0.5091	-0.153
Mof_C 	C 	0.0873	0.1408	0.358	0.07
Mof_H 	H 	0.0371	0.1117	0.3468	0.015
Mof_C 	C 	0.1168	0.2022	0.3187	-0.125
Mof_H 	H 	0.0863	0.2156	0.2819	0.071
Mof_C 	C 	0.1923	0.2457	0.3327	0.062
Mof_C 	C 	0.2349	0.2182	0.385	-0.129
Mof_H 	H 	0.2887	0.2413	0.3948	0.069
Mof_C 	C 	0.2003	0.1574	0.4229	0.067
Mof_H 	H 	0.2307	0.1413	0.4591	0.008
Mof_C 	C 	0.222	0.3178	0.2948	0.017
Mof_C 	C 	0.1919	0.3364	0.2359	-0.078
Mof_H 	H 	0.1503	0.301	0.2176	0.056
Mof_C 	C 	0.5943	0.7786	0.2965	-0
Mof_H 	H 	0.584	0.799	0.3374	0.029
Mof_C 	C 	0.5396	0.7201	0.271	-0.077
Mof_H 	H 	0.491	0.7019	0.2932	0.064
Mof_C 	C 	0.5573	0.6888	0.2128	0.015
Mof_C 	C 	0.6276	0.7171	0.1797	-0.078
Mof_H 	H 	0.6388	0.695	0.1394	0.055
Mof_C 	C 	0.5034	0.6247	0.1813	0.098
Mof_C 	C 	0.4078	0.5743	0.1192	0.092
Mof_C 	C 	0.3363	0.5656	0.0754	0.026
Mof_C 	C 	0.3349	0.4935	0.0387	-0.09
Mof_H 	H 	0.38	0.4541	0.0409	0.062
Mof_C 	C 	0.2683	0.4791	0.999	0.009
Mof_H 	H 	0.2638	0.4273	0.9769	0.024
Mof_C 	C 	0.2063	0.5432	0.9917	-0.074
Mof_H 	H 	0.1647	0.5383	0.96	0.054
Mof_C 	C 	0.2066	0.6116	0.03	0.017
Mof_C 	C 	0.2735	0.6247	0.0701	-0.089
Mof_H 	H 	0.276	0.6749	0.0943	0.067
Mof_C 	C 	0.1399	0.6801	0.0225	0.06
Mof_C 	C 	0.123	0.7351	0.0713	-0.134
Mof_H 	H 	0.1493	0.7285	0.1108	0.072
Mof_C 	C 	0.0664	0.7997	0.0602	0.081
Mof_H 	H 	0.0578	0.8389	0.0931	0.013
Mof_C 	C 	0.0389	0.7554	0.9639	0.076
Mof_H 	H 	0.0091	0.7621	0.9258	0.009
Mof_C 	C 	0.0937	0.6885	0.968	-0.127
Mof_H 	H 	0.0997	0.6494	0.9347	0.071
Mof_N 	N 	0.1255	0.1194	0.4116	-0.151
Mof_N 	N 	0.5083	0.5441	0.1837	-0.119
Mof_N 	N 	0.4473	0.5105	0.1446	-0.102
Mof_N 	N 	0.4402	0.647	0.1418	-0.11
Mof_N 	N 	0.4188	0.731	0.1233	-0.211
Mof_H 	H 	0.417	0.7648	0.1576	0.112
Mof_H 	H 	0.459	0.7503	0.0966	0.108
Mof_N 	N 	0.0236	0.8125	0.0091	-0.155
Mof_C 	C 	0.6408	0.4127	0.108	0.072
Mof_H 	H 	0.6117	0.4629	0.0968	0.013
Mof_C 	C 	0.7022	0.3832	0.0687	-0.131
Mof_H 	H 	0.7156	0.4137	0.0319	0.071
Mof_C 	C 	0.7457	0.3077	0.0827	0.07
Mof_C 	C 	0.7182	0.2651	0.135	-0.134
Mof_H 	H 	0.7413	0.2113	0.1448	0.071
Mof_C 	C 	0.6574	0.2997	0.1729	0.07
Mof_H 	H 	0.6413	0.2693	0.2091	0.007
Mof_C 	C 	0.8178	0.278	0.0448	-0.005
Mof_C 	C 	0.8364	0.3081	0.9859	-0.051
Mof_H 	H 	0.801	0.3497	0.9676	0.049
Mof_C 	C 	0.2786	0.9057	0.0465	0.016
Mof_H 	H 	0.299	0.916	0.0874	0.024
Mof_C 	C 	0.2201	0.9604	0.021	-0.096
Mof_H 	H 	0.2019	0.009	0.0432	0.068
Mof_C 	C 	0.1888	0.9427	0.9628	0.032
Mof_C 	C 	0.2171	0.8724	0.9297	-0.09
Mof_H 	H 	0.195	0.8612	0.8894	0.06
Mof_C 	C 	0.1247	0.9966	0.9313	0.095
Mof_C 	C 	0.0743	0.0922	0.8692	0.094
Mof_C 	C 	0.0656	0.1637	0.8254	0.022
Mof_C 	C 	0.9935	0.1651	0.7887	-0.077
Mof_H 	H 	0.9541	0.12	0.7909	0.06
Mof_C 	C 	0.9791	0.2317	0.749	-0.001
Mof_H 	H 	0.9273	0.2362	0.7269	0.026
Mof_C 	C 	0.0432	0.2937	0.7417	-0.078
Mof_H 	H 	0.0383	0.3353	0.71	0.054
Mof_C 	C 	0.1116	0.2934	0.78	0.021
Mof_C 	C 	0.1247	0.2265	0.8201	-0.086
Mof_H 	H 	0.1749	0.224	0.8443	0.067
Mof_C 	C 	0.1801	0.3601	0.7725	0.068
Mof_C 	C 	0.2351	0.377	0.8213	-0.136
Mof_H 	H 	0.2285	0.3507	0.8608	0.074
Mof_C 	C 	0.2997	0.4336	0.8102	0.084
Mof_H 	H 	0.3389	0.4422	0.8431	0.012
Mof_C 	C 	0.2554	0.4611	0.7139	0.073
Mof_H 	H 	0.2621	0.4909	0.6758	0.009
Mof_C 	C 	0.1885	0.4063	0.718	-0.135
Mof_H 	H 	0.1494	0.4003	0.6847	0.072
Mof_N 	N 	0.6194	0.3745	0.1616	-0.151
Mof_N 	N 	0.0441	0.9917	0.9337	-0.115
Mof_N 	N 	0.0105	0.0527	0.8946	-0.102
Mof_N 	N 	0.147	0.0598	0.8918	-0.11
Mof_N 	N 	0.231	0.0812	0.8733	-0.211
Mof_H 	H 	0.2648	0.083	0.9076	0.113
Mof_H 	H 	0.2503	0.041	0.8466	0.109
Mof_N 	N 	0.3125	0.4764	0.7591	-0.153
Mof_C 	C 	0.3592	0.5873	0.608	0.07
Mof_H 	H 	0.3883	0.5371	0.5968	0.015
Mof_C 	C 	0.2978	0.6168	0.5687	-0.126
Mof_H 	H 	0.2844	0.5863	0.5319	0.071
Mof_C 	C 	0.2543	0.6923	0.5827	0.062
Mof_C 	C 	0.2818	0.7349	0.635	-0.129
Mof_H 	H 	0.2587	0.7887	0.6448	0.069
Mof_C 	C 	0.3426	0.7003	0.6729	0.067
Mof_H 	H 	0.3587	0.7307	0.7091	0.008
Mof_C 	C 	0.1822	0.722	0.5448	0.016
Mof_C 	C 	0.1636	0.6919	0.4859	-0.077
Mof_H 	H 	0.199	0.6503	0.4676	0.056
Mof_C 	C 	0.7214	0.0943	0.5465	-0
Mof_H 	H 	0.701	0.084	0.5874	0.029
Mof_C 	C 	0.7799	0.0396	0.521	-0.076
Mof_H 	H 	0.7981	0.991	0.5432	0.063
Mof_C 	C 	0.8112	0.0573	0.4628	0.015
Mof_C 	C 	0.7829	0.1276	0.4297	-0.078
Mof_H 	H 	0.805	0.1388	0.3894	0.055
Mof_C 	C 	0.8753	0.0034	0.4313	0.098
Mof_C 	C 	0.9257	0.9078	0.3692	0.094
Mof_C 	C 	0.9344	0.8363	0.3254	0.022
Mof_C 	C 	0.0065	0.8349	0.2887	-0.077
Mof_H 	H 	0.0459	0.88	0.2909	0.06
Mof_C 	C 	0.0209	0.7683	0.249	-0
Mof_H 	H 	0.0727	0.7638	0.2269	0.026
Mof_C 	C 	0.9568	0.7063	0.2417	-0.079
Mof_H 	H 	0.9617	0.6647	0.21	0.054
Mof_C 	C 	0.8884	0.7066	0.28	0.021
Mof_C 	C 	0.8753	0.7735	0.3201	-0.086
Mof_H 	H 	0.8251	0.776	0.3443	0.067
Mof_C 	C 	0.8199	0.6399	0.2725	0.067
Mof_C 	C 	0.7649	0.623	0.3213	-0.136
Mof_H 	H 	0.7715	0.6493	0.3608	0.073
Mof_C 	C 	0.7003	0.5664	0.3102	0.084
Mof_H 	H 	0.6611	0.5578	0.3431	0.011
Mof_C 	C 	0.7446	0.5389	0.2139	0.073
Mof_H 	H 	0.7379	0.5091	0.1758	0.008
Mof_C 	C 	0.8115	0.5937	0.218	-0.134
Mof_H 	H 	0.8506	0.5997	0.1847	0.072
Mof_N 	N 	0.3806	0.6255	0.6616	-0.15
Mof_N 	N 	0.9559	0.0083	0.4337	-0.118
Mof_N 	N 	0.9895	0.9473	0.3946	-0.102
Mof_N 	N 	0.853	0.9402	0.3918	-0.11
Mof_N 	N 	0.769	0.9188	0.3733	-0.21
Mof_H 	H 	0.7352	0.917	0.4076	0.112
Mof_H 	H 	0.7497	0.959	0.3466	0.109
Mof_N 	N 	0.6875	0.5236	0.2591	-0.153
Mof_C 	C 	0.5873	0.3592	0.392	0.07
Mof_H 	H 	0.5371	0.3883	0.4032	0.015
Mof_C 	C 	0.6168	0.2978	0.4313	-0.126
Mof_H 	H 	0.5863	0.2844	0.4681	0.071
Mof_C 	C 	0.6923	0.2543	0.4173	0.062
Mof_C 	C 	0.7349	0.2818	0.365	-0.129
Mof_H 	H 	0.7887	0.2587	0.3552	0.069
Mof_C 	C 	0.7003	0.3426	0.3271	0.067
Mof_H 	H 	0.7307	0.3587	0.2909	0.008
Mof_C 	C 	0.722	0.1822	0.4552	0.017
Mof_C 	C 	0.6919	0.1636	0.5141	-0.078
Mof_H 	H 	0.6503	0.199	0.5324	0.056
Mof_C 	C 	0.0943	0.7214	0.4535	-0.002
Mof_H 	H 	0.084	0.701	0.4126	0.03
Mof_C 	C 	0.0396	0.7799	0.479	-0.074
Mof_H 	H 	0.991	0.7981	0.4568	0.062
Mof_C 	C 	0.0573	0.8112	0.5372	0.014
Mof_C 	C 	0.1276	0.7829	0.5703	-0.077
Mof_H 	H 	0.1388	0.805	0.6106	0.055
Mof_C 	C 	0.0034	0.8753	0.5687	0.099
Mof_C 	C 	0.9078	0.9257	0.6308	0.094
Mof_C 	C 	0.8363	0.9344	0.6746	0.023
Mof_C 	C 	0.8349	0.0065	0.7113	-0.078
Mof_H 	H 	0.88	0.0459	0.7091	0.06
Mof_C 	C 	0.7683	0.0209	0.751	-0.001
Mof_H 	H 	0.7638	0.0727	0.7731	0.026
Mof_C 	C 	0.7063	0.9568	0.7583	-0.077
Mof_H 	H 	0.6647	0.9617	0.79	0.054
Mof_C 	C 	0.7066	0.8884	0.72	0.021
Mof_C 	C 	0.7735	0.8753	0.6799	-0.086
Mof_H 	H 	0.776	0.8251	0.6557	0.067
Mof_C 	C 	0.6399	0.8199	0.7275	0.068
Mof_C 	C 	0.623	0.7649	0.6787	-0.136
Mof_H 	H 	0.6493	0.7715	0.6392	0.073
Mof_C 	C 	0.5664	0.7003	0.6898	0.084
Mof_H 	H 	0.5578	0.6611	0.6569	0.011
Mof_C 	C 	0.5389	0.7446	0.7861	0.073
Mof_H 	H 	0.5091	0.7379	0.8242	0.009
Mof_C 	C 	0.5937	0.8115	0.782	-0.135
Mof_H 	H 	0.5997	0.8506	0.8153	0.073
Mof_N 	N 	0.6255	0.3806	0.3384	-0.15
Mof_N 	N 	0.0083	0.9559	0.5663	-0.118
Mof_N 	N 	0.9473	0.9895	0.6054	-0.102
Mof_N 	N 	0.9402	0.853	0.6082	-0.111
Mof_N 	N 	0.9188	0.769	0.6267	-0.21
Mof_H 	H 	0.917	0.7352	0.5924	0.112
Mof_H 	H 	0.959	0.7497	0.6534	0.109
Mof_N 	N 	0.5236	0.6875	0.7409	-0.153
Mof_C 	C 	0.4127	0.6408	0.892	0.069
Mof_H 	H 	0.4629	0.6117	0.9032	0.016
Mof_C 	C 	0.3832	0.7022	0.9313	-0.121
Mof_H 	H 	0.4137	0.7156	0.9681	0.072
Mof_C 	C 	0.3077	0.7457	0.9173	0.056
Mof_C 	C 	0.2651	0.7182	0.865	-0.124
Mof_H 	H 	0.2113	0.7413	0.8552	0.068
Mof_C 	C 	0.2997	0.6574	0.8271	0.065
Mof_H 	H 	0.2693	0.6413	0.7909	0.009
Mof_C 	C 	0.278	0.8178	0.9552	0.035
Mof_C 	C 	0.3081	0.8364	0.0141	-0.099
Mof_H 	H 	0.3497	0.801	0.0324	0.061
Mof_C 	C 	0.9057	0.2786	0.9535	-0.023
Mof_H 	H 	0.916	0.299	0.9126	0.038
Mof_C 	C 	0.9604	0.2201	0.979	-0.047
Mof_H 	H 	0.009	0.2019	0.9568	0.054
Mof_C 	C 	0.9427	0.1888	0.0372	-0.007
Mof_C 	C 	0.8724	0.2171	0.0703	-0.061
Mof_H 	H 	0.8612	0.195	0.1106	0.05
Mof_C 	C 	0.9966	0.1247	0.0687	0.103
Mof_C 	C 	0.0922	0.0743	0.1308	0.093
Mof_C 	C 	0.1637	0.0656	0.1746	0.022
Mof_C 	C 	0.1651	0.9935	0.2113	-0.077
Mof_H 	H 	0.12	0.9541	0.2091	0.06
Mof_C 	C 	0.2317	0.9791	0.251	-0
Mof_H 	H 	0.2362	0.9273	0.2731	0.026
Mof_C 	C 	0.2937	0.0432	0.2583	-0.078
Mof_H 	H 	0.3353	0.0383	0.29	0.054
Mof_C 	C 	0.2934	0.1116	0.22	0.021
Mof_C 	C 	0.2265	0.1247	0.1799	-0.086
Mof_H 	H 	0.224	0.1749	0.1557	0.066
Mof_C 	C 	0.3601	0.1801	0.2275	0.067
Mof_C 	C 	0.377	0.2351	0.1787	-0.136
Mof_H 	H 	0.3507	0.2285	0.1392	0.073
Mof_C 	C 	0.4336	0.2997	0.1898	0.084
Mof_H 	H 	0.4422	0.3389	0.1569	0.011
Mof_C 	C 	0.4611	0.2554	0.2861	0.073
Mof_H 	H 	0.4909	0.2621	0.3242	0.009
Mof_C 	C 	0.4063	0.1885	0.282	-0.134
Mof_H 	H 	0.4003	0.1494	0.3153	0.072
Mof_N 	N 	0.3745	0.6194	0.8384	-0.15
Mof_N 	N 	0.9917	0.0441	0.0663	-0.12
Mof_N 	N 	0.0527	0.0105	0.1054	-0.102
Mof_N 	N 	0.0598	0.147	0.1082	-0.112
Mof_N 	N 	0.0812	0.231	0.1267	-0.21
Mof_H 	H 	0.083	0.2648	0.0924	0.111
Mof_H 	H 	0.041	0.2503	0.1534	0.109
Mof_N 	N 	0.4764	0.3125	0.2409	-0.153
Mof_C 	C 	0.8592	0.9127	0.142	0.07
Mof_H 	H 	0.8883	0.9629	0.1532	0.015
Mof_C 	C 	0.7978	0.8832	0.1813	-0.126
Mof_H 	H 	0.7844	0.9137	0.2181	0.071
Mof_C 	C 	0.7543	0.8077	0.1673	0.062
Mof_C 	C 	0.7818	0.7651	0.115	-0.129
Mof_H 	H 	0.7587	0.7113	0.1052	0.069
Mof_C 	C 	0.8426	0.7997	0.0771	0.067
Mof_H 	H 	0.8587	0.7693	0.0409	0.006
Mof_C 	C 	0.6822	0.778	0.2052	0.017
Mof_C 	C 	0.6636	0.8081	0.2641	-0.078
Mof_H 	H 	0.699	0.8497	0.2824	0.056
Mof_C 	C 	0.2214	0.4057	0.2035	0
Mof_H 	H 	0.201	0.416	0.1626	0.029
Mof_C 	C 	0.2799	0.4604	0.229	-0.077
Mof_H 	H 	0.2981	0.509	0.2068	0.064
Mof_C 	C 	0.3112	0.4427	0.2872	0.016
Mof_C 	C 	0.2829	0.3724	0.3203	-0.078
Mof_H 	H 	0.305	0.3612	0.3606	0.055
Mof_C 	C 	0.3753	0.4966	0.3187	0.098
Mof_C 	C 	0.4257	0.5922	0.3808	0.094
Mof_C 	C 	0.4344	0.6637	0.4246	0.023
Mof_C 	C 	0.5065	0.6651	0.4613	-0.079
Mof_H 	H 	0.5459	0.62	0.4591	0.06
Mof_C 	C 	0.5209	0.7317	0.501	-0.001
Mof_H 	H 	0.5727	0.7362	0.5231	0.026
Mof_C 	C 	0.4568	0.7937	0.5083	-0.077
Mof_H 	H 	0.4617	0.8353	0.54	0.054
Mof_C 	C 	0.3884	0.7934	0.47	0.021
Mof_C 	C 	0.3753	0.7265	0.4299	-0.087
Mof_H 	H 	0.3251	0.724	0.4057	0.067
Mof_C 	C 	0.3199	0.8601	0.4775	0.068
Mof_C 	C 	0.2649	0.877	0.4287	-0.136
Mof_H 	H 	0.2715	0.8507	0.3892	0.073
Mof_C 	C 	0.2003	0.9336	0.4398	0.084
Mof_H 	H 	0.1611	0.9422	0.4069	0.012
Mof_C 	C 	0.2446	0.9611	0.5361	0.073
Mof_H 	H 	0.2379	0.9909	0.5742	0.009
Mof_C 	C 	0.3115	0.9063	0.532	-0.134
Mof_H 	H 	0.3506	0.9003	0.5653	0.073
Mof_N 	N 	0.8806	0.8745	0.0884	-0.151
Mof_N 	N 	0.4559	0.4917	0.3163	-0.119
Mof_N 	N 	0.4895	0.5527	0.3554	-0.102
Mof_N 	N 	0.353	0.5598	0.3582	-0.11
Mof_N 	N 	0.269	0.5812	0.3767	-0.21
Mof_H 	H 	0.2352	0.583	0.3424	0.112
Mof_H 	H 	0.2497	0.541	0.4034	0.109
Mof_N 	N 	0.1875	0.9764	0.4909	-0.153
Mof_C 	C 	0.1408	0.0873	0.642	0.07
Mof_H 	H 	0.1117	0.0371	0.6532	0.014
Mof_C 	C 	0.2022	0.1168	0.6813	-0.126
Mof_H 	H 	0.2156	0.0863	0.7181	0.071
Mof_C 	C 	0.2457	0.1923	0.6673	0.062
Mof_C 	C 	0.2182	0.2349	0.615	-0.129
Mof_H 	H 	0.2413	0.2887	0.6052	0.069
Mof_C 	C 	0.1574	0.2003	0.5771	0.067
Mof_H 	H 	0.1413	0.2307	0.5409	0.008
Mof_C 	C 	0.3178	0.222	0.7052	0.017
Mof_C 	C 	0.3364	0.1919	0.7641	-0.078
Mof_H 	H 	0.301	0.1503	0.7824	0.056
Mof_C 	C 	0.7786	0.5943	0.7035	0
Mof_H 	H 	0.799	0.584	0.6626	0.029
Mof_C 	C 	0.7201	0.5396	0.729	-0.077
Mof_H 	H 	0.7019	0.491	0.7068	0.064
Mof_C 	C 	0.6888	0.5573	0.7872	0.016
Mof_C 	C 	0.7171	0.6276	0.8203	-0.078
Mof_H 	H 	0.695	0.6388	0.8606	0.056
Mof_C 	C 	0.6247	0.5034	0.8187	0.098
Mof_C 	C 	0.5743	0.4078	0.8808	0.095
Mof_C 	C 	0.5656	0.3363	0.9246	0.02
Mof_C 	C 	0.4935	0.3349	0.9613	-0.067
Mof_H 	H 	0.4541	0.38	0.9591	0.058
Mof_C 	C 	0.4791	0.2683	0.001	-0.011
Mof_H 	H 	0.4273	0.2638	0.0231	0.028
Mof_C 	C 	0.5432	0.2063	0.0083	-0.082
Mof_H 	H 	0.5383	0.1647	0.04	0.054
Mof_C 	C 	0.6116	0.2066	0.97	0.025
Mof_C 	C 	0.6247	0.2735	0.9299	-0.085
Mof_H 	H 	0.6749	0.276	0.9057	0.067
Mof_C 	C 	0.6801	0.1399	0.9775	0.075
Mof_C 	C 	0.7351	0.123	0.9287	-0.139
Mof_H 	H 	0.7285	0.1493	0.8892	0.074
Mof_C 	C 	0.7997	0.0664	0.9398	0.086
Mof_H 	H 	0.8389	0.0578	0.9069	0.011
Mof_C 	C 	0.7554	0.0389	0.0361	0.069
Mof_H 	H 	0.7621	0.0091	0.0742	0.01
Mof_C 	C 	0.6885	0.0937	0.032	-0.142
Mof_H 	H 	0.6494	0.0997	0.0653	0.074
Mof_N 	N 	0.1194	0.1255	0.5884	-0.151
Mof_N 	N 	0.5441	0.5083	0.8163	-0.119
Mof_N 	N 	0.5105	0.4473	0.8554	-0.102
Mof_N 	N 	0.647	0.4402	0.8582	-0.11
Mof_N 	N 	0.731	0.4188	0.8767	-0.21
Mof_H 	H 	0.7648	0.417	0.8424	0.112
Mof_H 	H 	0.7503	0.459	0.9034	0.111
Mof_N 	N 	0.8125	0.0236	0.9909	-0.149
Mof_Cd	Cd	0.43979	0.56021	0.75	0.384
Mof_Cd	Cd	0.56021	0.43979	0.25	0.384
Mof_Cd	Cd	0.93979	0.93979	-0	0.377
Mof_Cd	Cd	0.06021	0.06021	0.5	0.383
_end
