data_functionalizedCrystal
_audit_creation_method	'EQeq! by Chris Wilmer'
_symmetry_space_group_name_H-M	'P1'
_symmetry_Int_Tables_number	1
_symmetry_cell_setting	triclinic
loop_
_symmetry_equiv_pos_as_xyz
  x,y,z
_cell_length_a	23.4345
_cell_length_b	23.4345
_cell_length_c	23.4345
_cell_angle_alpha	90
_cell_angle_beta	90
_cell_angle_gamma	90
loop_
_atom_site_label
_atom_site_type_symbol
_atom_site_fract_x
_atom_site_fract_y
_atom_site_fract_z
_atom_site_charge
Mof_N 	N 	0.3639	0.4318	0.1472	-0.322
Mof_C 	C 	0.2106	0.5553	0.1666	-0.062
Mof_C 	C 	0.3492	0.4019	0.1967	-0.043
Mof_N 	N 	0.8639	0.9318	0.6472	-0.294
Mof_C 	C 	0.7106	0.0553	0.6666	-0.077
Mof_C 	C 	0.8492	0.9019	0.6967	0.006
Mof_N 	N 	0.6361	0.5682	0.1472	-0.323
Mof_C 	C 	0.7894	0.4447	0.1666	-0.061
Mof_C 	C 	0.6508	0.5981	0.1967	-0.043
Mof_N 	N 	0.1361	0.0682	0.6472	-0.329
Mof_C 	C 	0.2894	0.9447	0.6666	0.019
Mof_C 	C 	0.1508	0.0981	0.6967	-0.061
Mof_N 	N 	0.6361	0.4318	0.8528	-0.321
Mof_C 	C 	0.7894	0.5553	0.8334	-0.044
Mof_C 	C 	0.6508	0.4019	0.8033	-0.043
Mof_N 	N 	0.1361	0.9318	0.3528	-0.293
Mof_C 	C 	0.2894	0.0553	0.3334	-0.078
Mof_C 	C 	0.1508	0.9019	0.3033	-0.02
Mof_N 	N 	0.3639	0.5682	0.8528	-0.321
Mof_C 	C 	0.2106	0.4447	0.8334	-0.046
Mof_C 	C 	0.3492	0.5981	0.8033	-0.043
Mof_N 	N 	0.8639	0.0682	0.3528	-0.329
Mof_C 	C 	0.7106	0.9447	0.3334	0.02
Mof_C 	C 	0.8492	0.0981	0.3033	-0.055
Mof_N 	N 	0.1472	0.3639	0.4318	-0.323
Mof_C 	C 	0.1666	0.2106	0.5553	-0.063
Mof_C 	C 	0.1967	0.3492	0.4019	-0.044
Mof_N 	N 	0.6472	0.8639	0.9318	-0.294
Mof_C 	C 	0.6666	0.7106	0.0553	-0.077
Mof_C 	C 	0.6967	0.8492	0.9019	0.006
Mof_N 	N 	0.1472	0.6361	0.5682	-0.323
Mof_C 	C 	0.1666	0.7894	0.4447	-0.061
Mof_C 	C 	0.1967	0.6508	0.5981	-0.043
Mof_N 	N 	0.6472	0.1361	0.0682	-0.329
Mof_C 	C 	0.6666	0.2894	0.9447	0.019
Mof_C 	C 	0.6967	0.1508	0.0981	-0.061
Mof_N 	N 	0.8528	0.6361	0.4318	-0.321
Mof_C 	C 	0.8334	0.7894	0.5553	-0.044
Mof_C 	C 	0.8033	0.6508	0.4019	-0.043
Mof_N 	N 	0.3528	0.1361	0.9318	-0.293
Mof_C 	C 	0.3334	0.2894	0.0553	-0.078
Mof_C 	C 	0.3033	0.1508	0.9019	-0.02
Mof_N 	N 	0.8528	0.3639	0.5682	-0.321
Mof_C 	C 	0.8334	0.2106	0.4447	-0.046
Mof_C 	C 	0.8033	0.3492	0.5981	-0.043
Mof_N 	N 	0.3528	0.8639	0.0682	-0.329
Mof_C 	C 	0.3334	0.7106	0.9447	0.02
Mof_C 	C 	0.3033	0.8492	0.0981	-0.055
Mof_N 	N 	0.4318	0.1472	0.3639	-0.323
Mof_C 	C 	0.5553	0.1666	0.2106	-0.063
Mof_C 	C 	0.4019	0.1967	0.3492	-0.044
Mof_N 	N 	0.9318	0.6472	0.8639	-0.294
Mof_C 	C 	0.0553	0.6666	0.7106	-0.077
Mof_C 	C 	0.9019	0.6967	0.8492	0.006
Mof_N 	N 	0.5682	0.1472	0.6361	-0.323
Mof_C 	C 	0.4447	0.1666	0.7894	-0.061
Mof_C 	C 	0.5981	0.1967	0.6508	-0.043
Mof_N 	N 	0.0682	0.6472	0.1361	-0.329
Mof_C 	C 	0.9447	0.6666	0.2894	0.019
Mof_C 	C 	0.0981	0.6967	0.1508	-0.061
Mof_N 	N 	0.4318	0.8528	0.6361	-0.321
Mof_C 	C 	0.5553	0.8334	0.7894	-0.044
Mof_C 	C 	0.4019	0.8033	0.6508	-0.043
Mof_N 	N 	0.9318	0.3528	0.1361	-0.293
Mof_C 	C 	0.0553	0.3334	0.2894	-0.078
Mof_C 	C 	0.9019	0.3033	0.1508	-0.02
Mof_N 	N 	0.5682	0.8528	0.3639	-0.321
Mof_C 	C 	0.4447	0.8334	0.2106	-0.046
Mof_C 	C 	0.5981	0.8033	0.3492	-0.043
Mof_N 	N 	0.0682	0.3528	0.8639	-0.329
Mof_C 	C 	0.9447	0.3334	0.7106	0.02
Mof_C 	C 	0.0981	0.3033	0.8492	-0.055
Mof_N 	N 	0.4318	0.3639	0.8528	-0.321
Mof_C 	C 	0.5553	0.2106	0.8334	-0.046
Mof_C 	C 	0.4019	0.3492	0.8033	-0.043
Mof_N 	N 	0.9318	0.8639	0.3528	-0.293
Mof_C 	C 	0.0553	0.7106	0.3334	-0.077
Mof_C 	C 	0.9019	0.8492	0.3033	-0.004
Mof_N 	N 	0.5682	0.6361	0.8528	-0.321
Mof_C 	C 	0.4447	0.7894	0.8334	-0.044
Mof_C 	C 	0.5981	0.6508	0.8033	-0.043
Mof_N 	N 	0.0682	0.1361	0.3528	-0.329
Mof_C 	C 	0.9447	0.2894	0.3334	0.019
Mof_C 	C 	0.0981	0.1508	0.3033	-0.071
Mof_N 	N 	0.4318	0.6361	0.1472	-0.323
Mof_C 	C 	0.5553	0.7894	0.1666	-0.061
Mof_C 	C 	0.4019	0.6508	0.1967	-0.043
Mof_N 	N 	0.9318	0.1361	0.6472	-0.293
Mof_C 	C 	0.0553	0.2894	0.6666	-0.078
Mof_C 	C 	0.9019	0.1508	0.6967	-0.01
Mof_N 	N 	0.5682	0.3639	0.1472	-0.323
Mof_C 	C 	0.4447	0.2106	0.1666	-0.063
Mof_C 	C 	0.5981	0.3492	0.1967	-0.043
Mof_N 	N 	0.0682	0.8639	0.6472	-0.329
Mof_C 	C 	0.9447	0.7106	0.6666	0.02
Mof_C 	C 	0.0981	0.8492	0.6967	-0.045
Mof_N 	N 	0.3639	0.1472	0.5682	-0.323
Mof_C 	C 	0.2106	0.1666	0.4447	-0.063
Mof_C 	C 	0.3492	0.1967	0.5981	-0.043
Mof_N 	N 	0.8639	0.6472	0.0682	-0.329
Mof_C 	C 	0.7106	0.6666	0.9447	0.02
Mof_C 	C 	0.8492	0.6967	0.0981	-0.045
Mof_N 	N 	0.6361	0.1472	0.4318	-0.323
Mof_C 	C 	0.7894	0.1666	0.5553	-0.061
Mof_C 	C 	0.6508	0.1967	0.4019	-0.043
Mof_N 	N 	0.1361	0.6472	0.9318	-0.293
Mof_C 	C 	0.2894	0.6666	0.0553	-0.078
Mof_C 	C 	0.1508	0.6967	0.9019	-0.01
Mof_N 	N 	0.6361	0.8528	0.5682	-0.321
Mof_C 	C 	0.7894	0.8334	0.4447	-0.044
Mof_C 	C 	0.6508	0.8033	0.5981	-0.043
Mof_N 	N 	0.1361	0.3528	0.0682	-0.329
Mof_C 	C 	0.2894	0.3334	0.9447	0.019
Mof_C 	C 	0.1508	0.3033	0.0981	-0.071
Mof_N 	N 	0.3639	0.8528	0.4318	-0.321
Mof_C 	C 	0.2106	0.8334	0.5553	-0.046
Mof_C 	C 	0.3492	0.8033	0.4019	-0.043
Mof_N 	N 	0.8639	0.3528	0.9318	-0.293
Mof_C 	C 	0.7106	0.3334	0.0553	-0.077
Mof_C 	C 	0.8492	0.3033	0.9019	-0.004
Mof_N 	N 	0.1472	0.4318	0.6361	-0.323
Mof_C 	C 	0.1666	0.5553	0.7894	-0.061
Mof_C 	C 	0.1967	0.4019	0.6508	-0.043
Mof_N 	N 	0.6472	0.9318	0.1361	-0.293
Mof_C 	C 	0.6666	0.0553	0.2894	-0.078
Mof_C 	C 	0.6967	0.9019	0.1508	-0.01
Mof_N 	N 	0.1472	0.5682	0.3639	-0.323
Mof_C 	C 	0.1666	0.4447	0.2106	-0.063
Mof_C 	C 	0.1967	0.5981	0.3492	-0.043
Mof_N 	N 	0.6472	0.0682	0.8639	-0.329
Mof_C 	C 	0.6666	0.9447	0.7106	0.02
Mof_C 	C 	0.6967	0.0981	0.8492	-0.045
Mof_N 	N 	0.8528	0.4318	0.3639	-0.321
Mof_C 	C 	0.8334	0.5553	0.2106	-0.046
Mof_C 	C 	0.8033	0.4019	0.3492	-0.043
Mof_N 	N 	0.3528	0.9318	0.8639	-0.293
Mof_C 	C 	0.3334	0.0553	0.7106	-0.077
Mof_C 	C 	0.3033	0.9019	0.8492	-0.004
Mof_N 	N 	0.8528	0.5682	0.6361	-0.321
Mof_C 	C 	0.8334	0.4447	0.7894	-0.044
Mof_C 	C 	0.8033	0.5981	0.6508	-0.043
Mof_N 	N 	0.3528	0.0682	0.1361	-0.329
Mof_C 	C 	0.3334	0.9447	0.2894	0.019
Mof_C 	C 	0.3033	0.0981	0.1508	-0.071
Mof_N 	N 	0.6361	0.5682	0.8528	-0.321
Mof_C 	C 	0.7894	0.4447	0.8334	-0.044
Mof_C 	C 	0.6508	0.5981	0.8033	-0.043
Mof_N 	N 	0.1361	0.0682	0.3528	-0.329
Mof_C 	C 	0.2894	0.9447	0.3334	0.019
Mof_C 	C 	0.1508	0.0981	0.3033	-0.071
Mof_N 	N 	0.3639	0.4318	0.8528	-0.321
Mof_C 	C 	0.2106	0.5553	0.8334	-0.046
Mof_C 	C 	0.3492	0.4019	0.8033	-0.043
Mof_N 	N 	0.8639	0.9318	0.3528	-0.293
Mof_C 	C 	0.7106	0.0553	0.3334	-0.077
Mof_C 	C 	0.8492	0.9019	0.3033	-0.004
Mof_N 	N 	0.3639	0.5682	0.1472	-0.323
Mof_C 	C 	0.2106	0.4447	0.1666	-0.063
Mof_C 	C 	0.3492	0.5981	0.1967	-0.043
Mof_N 	N 	0.8639	0.0682	0.6472	-0.329
Mof_C 	C 	0.7106	0.9447	0.6666	0.02
Mof_C 	C 	0.8492	0.0981	0.6967	-0.045
Mof_N 	N 	0.6361	0.4318	0.1472	-0.323
Mof_C 	C 	0.7894	0.5553	0.1666	-0.061
Mof_C 	C 	0.6508	0.4019	0.1967	-0.043
Mof_N 	N 	0.1361	0.9318	0.6472	-0.293
Mof_C 	C 	0.2894	0.0553	0.6666	-0.078
Mof_C 	C 	0.1508	0.9019	0.6967	-0.01
Mof_N 	N 	0.8528	0.6361	0.5682	-0.321
Mof_C 	C 	0.8334	0.7894	0.4447	-0.044
Mof_C 	C 	0.8033	0.6508	0.5981	-0.043
Mof_N 	N 	0.3528	0.1361	0.0682	-0.329
Mof_C 	C 	0.3334	0.2894	0.9447	0.019
Mof_C 	C 	0.3033	0.1508	0.0981	-0.071
Mof_N 	N 	0.8528	0.3639	0.4318	-0.321
Mof_C 	C 	0.8334	0.2106	0.5553	-0.046
Mof_C 	C 	0.8033	0.3492	0.4019	-0.043
Mof_N 	N 	0.3528	0.8639	0.9318	-0.293
Mof_C 	C 	0.3334	0.7106	0.0553	-0.077
Mof_C 	C 	0.3033	0.8492	0.9019	-0.004
Mof_N 	N 	0.1472	0.3639	0.5682	-0.323
Mof_C 	C 	0.1666	0.2106	0.4447	-0.063
Mof_C 	C 	0.1967	0.3492	0.5981	-0.043
Mof_N 	N 	0.6472	0.8639	0.0682	-0.329
Mof_C 	C 	0.6666	0.7106	0.9447	0.02
Mof_C 	C 	0.6967	0.8492	0.0981	-0.045
Mof_N 	N 	0.1472	0.6361	0.4318	-0.323
Mof_C 	C 	0.1666	0.7894	0.5553	-0.061
Mof_C 	C 	0.1967	0.6508	0.4019	-0.043
Mof_N 	N 	0.6472	0.1361	0.9318	-0.293
Mof_C 	C 	0.6666	0.2894	0.0553	-0.078
Mof_C 	C 	0.6967	0.1508	0.9019	-0.01
Mof_N 	N 	0.5682	0.8528	0.6361	-0.321
Mof_C 	C 	0.4447	0.8334	0.7894	-0.044
Mof_C 	C 	0.5981	0.8033	0.6508	-0.043
Mof_N 	N 	0.0682	0.3528	0.1361	-0.329
Mof_C 	C 	0.9447	0.3334	0.2894	0.019
Mof_C 	C 	0.0981	0.3033	0.1508	-0.071
Mof_N 	N 	0.4318	0.8528	0.3639	-0.321
Mof_C 	C 	0.5553	0.8334	0.2106	-0.046
Mof_C 	C 	0.4019	0.8033	0.3492	-0.043
Mof_N 	N 	0.9318	0.3528	0.8639	-0.293
Mof_C 	C 	0.0553	0.3334	0.7106	-0.077
Mof_C 	C 	0.9019	0.3033	0.8492	-0.004
Mof_N 	N 	0.5682	0.1472	0.3639	-0.323
Mof_C 	C 	0.4447	0.1666	0.2106	-0.063
Mof_C 	C 	0.5981	0.1967	0.3492	-0.043
Mof_N 	N 	0.0682	0.6472	0.8639	-0.329
Mof_C 	C 	0.9447	0.6666	0.7106	0.02
Mof_C 	C 	0.0981	0.6967	0.8492	-0.045
Mof_N 	N 	0.4318	0.1472	0.6361	-0.323
Mof_C 	C 	0.5553	0.1666	0.7894	-0.061
Mof_C 	C 	0.4019	0.1967	0.6508	-0.043
Mof_N 	N 	0.9318	0.6472	0.1361	-0.293
Mof_C 	C 	0.0553	0.6666	0.2894	-0.078
Mof_C 	C 	0.9019	0.6967	0.1508	-0.01
Mof_N 	N 	0.5682	0.6361	0.1472	-0.323
Mof_C 	C 	0.4447	0.7894	0.1666	-0.061
Mof_C 	C 	0.5981	0.6508	0.1967	-0.043
Mof_N 	N 	0.0682	0.1361	0.6472	-0.329
Mof_C 	C 	0.9447	0.2894	0.6666	0.019
Mof_C 	C 	0.0981	0.1508	0.6967	-0.061
Mof_N 	N 	0.4318	0.3639	0.1472	-0.323
Mof_C 	C 	0.5553	0.2106	0.1666	-0.063
Mof_C 	C 	0.4019	0.3492	0.1967	-0.044
Mof_N 	N 	0.9318	0.8639	0.6472	-0.294
Mof_C 	C 	0.0553	0.7106	0.6666	-0.077
Mof_C 	C 	0.9019	0.8492	0.6967	0.006
Mof_N 	N 	0.5682	0.3639	0.8528	-0.321
Mof_C 	C 	0.4447	0.2106	0.8334	-0.046
Mof_C 	C 	0.5981	0.3492	0.8033	-0.043
Mof_N 	N 	0.0682	0.8639	0.3528	-0.329
Mof_C 	C 	0.9447	0.7106	0.3334	0.02
Mof_C 	C 	0.0981	0.8492	0.3033	-0.055
Mof_N 	N 	0.4318	0.6361	0.8528	-0.321
Mof_C 	C 	0.5553	0.7894	0.8334	-0.044
Mof_C 	C 	0.4019	0.6508	0.8033	-0.043
Mof_N 	N 	0.9318	0.1361	0.3528	-0.293
Mof_C 	C 	0.0553	0.2894	0.3334	-0.078
Mof_C 	C 	0.9019	0.1508	0.3033	-0.02
Mof_N 	N 	0.6361	0.8528	0.4318	-0.321
Mof_C 	C 	0.7894	0.8334	0.5553	-0.044
Mof_C 	C 	0.6508	0.8033	0.4019	-0.043
Mof_N 	N 	0.1361	0.3528	0.9318	-0.293
Mof_C 	C 	0.2894	0.3334	0.0553	-0.078
Mof_C 	C 	0.1508	0.3033	0.9019	-0.02
Mof_N 	N 	0.3639	0.8528	0.5682	-0.321
Mof_C 	C 	0.2106	0.8334	0.4447	-0.046
Mof_C 	C 	0.3492	0.8033	0.5981	-0.043
Mof_N 	N 	0.8639	0.3528	0.0682	-0.329
Mof_C 	C 	0.7106	0.3334	0.9447	0.02
Mof_C 	C 	0.8492	0.3033	0.0981	-0.055
Mof_N 	N 	0.3639	0.1472	0.4318	-0.323
Mof_C 	C 	0.2106	0.1666	0.5553	-0.063
Mof_C 	C 	0.3492	0.1967	0.4019	-0.044
Mof_N 	N 	0.8639	0.6472	0.9318	-0.294
Mof_C 	C 	0.7106	0.6666	0.0553	-0.077
Mof_C 	C 	0.8492	0.6967	0.9019	0.006
Mof_N 	N 	0.6361	0.1472	0.5682	-0.323
Mof_C 	C 	0.7894	0.1666	0.4447	-0.061
Mof_C 	C 	0.6508	0.1967	0.5981	-0.043
Mof_N 	N 	0.1361	0.6472	0.0682	-0.329
Mof_C 	C 	0.2894	0.6666	0.9447	0.019
Mof_C 	C 	0.1508	0.6967	0.0981	-0.061
Mof_N 	N 	0.8528	0.5682	0.3639	-0.321
Mof_C 	C 	0.8334	0.4447	0.2106	-0.046
Mof_C 	C 	0.8033	0.5981	0.3492	-0.043
Mof_N 	N 	0.3528	0.0682	0.8639	-0.329
Mof_C 	C 	0.3334	0.9447	0.7106	0.02
Mof_C 	C 	0.3033	0.0981	0.8492	-0.055
Mof_N 	N 	0.8528	0.4318	0.6361	-0.321
Mof_C 	C 	0.8334	0.5553	0.7894	-0.044
Mof_C 	C 	0.8033	0.4019	0.6508	-0.043
Mof_N 	N 	0.3528	0.9318	0.1361	-0.293
Mof_C 	C 	0.3334	0.0553	0.2894	-0.078
Mof_C 	C 	0.3033	0.9019	0.1508	-0.02
Mof_N 	N 	0.1472	0.5682	0.6361	-0.323
Mof_C 	C 	0.1666	0.4447	0.7894	-0.061
Mof_C 	C 	0.1967	0.5981	0.6508	-0.043
Mof_N 	N 	0.6472	0.0682	0.1361	-0.329
Mof_C 	C 	0.6666	0.9447	0.2894	0.019
Mof_C 	C 	0.6967	0.0981	0.1508	-0.061
Mof_N 	N 	0.1472	0.4318	0.3639	-0.323
Mof_C 	C 	0.1666	0.5553	0.2106	-0.063
Mof_C 	C 	0.1967	0.4019	0.3492	-0.044
Mof_N 	N 	0.6472	0.9318	0.8639	-0.294
Mof_C 	C 	0.6666	0.0553	0.7106	-0.077
Mof_C 	C 	0.6967	0.9019	0.8492	0.006
Mof_Mo	Mo	0.25	0.5	-0	2.278
Mof_Mo	Mo	0.75	0.5	-0	2.283
Mof_Mo	Mo	9.72061e-33	0.25	0.5	2.278
Mof_Mo	Mo	-5.97121e-33	0.75	0.5	2.283
Mof_Mo	Mo	0.5	0.25	-0	2.278
Mof_Mo	Mo	0.5	-1.96148e-33	0.25	2.278
Mof_Mo	Mo	0.5	-7.84591e-33	0.75	2.283
Mof_Mo	Mo	0.5	0.75	-0	2.283
Mof_Mo	Mo	0.25	-3.92296e-33	0.5	2.278
Mof_Mo	Mo	0.75	-3.92296e-33	0.5	2.283
Mof_Mo	Mo	-5.03386e-33	0.5	0.75	2.283
Mof_Mo	Mo	8.78326e-33	0.5	0.25	2.278
Mof_Zn	Zn	0.31945	0.5	0.13771	1.202
Mof_N 	N 	0.2499	0.5	0.1847	-0.347
Mof_O 	O 	0.2923	0.5	0.0591	-0.898
Mof_Zn	Zn	0.81945	0	0.63771	1.181
Mof_N 	N 	0.7499	-7.84591e-33	0.6847	-0.38
Mof_O 	O 	0.7923	-3.92296e-33	0.5591	-0.917
Mof_Zn	Zn	0.68055	0.5	0.13771	1.202
Mof_N 	N 	0.7501	0.5	0.1847	-0.346
Mof_O 	O 	0.7077	0.5	0.0591	-0.898
Mof_Zn	Zn	0.18055	0	0.63771	1.176
Mof_N 	N 	0.2501	-7.84591e-33	0.6847	-0.38
Mof_O 	O 	0.2077	-3.92296e-33	0.5591	-0.926
Mof_Zn	Zn	0.68055	0.5	0.86229	1.207
Mof_N 	N 	0.7501	0.5	0.8153	-0.345
Mof_O 	O 	0.7077	0.5	0.9409	-0.801
Mof_Zn	Zn	0.18055	0	0.36229	1.175
Mof_N 	N 	0.2501	-3.92296e-33	0.3153	-0.38
Mof_O 	O 	0.2077	-7.84591e-33	0.4409	-0.926
Mof_Zn	Zn	0.31945	0.5	0.86229	1.207
Mof_N 	N 	0.2499	0.5	0.8153	-0.346
Mof_O 	O 	0.2923	0.5	0.9409	-0.801
Mof_Zn	Zn	0.81945	0	0.36229	1.18
Mof_N 	N 	0.7499	-3.92296e-33	0.3153	-0.379
Mof_O 	O 	0.7923	-7.84591e-33	0.4409	-0.917
Mof_Zn	Zn	0.13771	0.31945	0.5	1.202
Mof_N 	N 	0.1847	0.2499	0.5	-0.347
Mof_O 	O 	0.0591	0.2923	0.5	-0.898
Mof_Zn	Zn	0.63771	0.81945	-0	1.181
Mof_N 	N 	0.6847	0.7499	-0	-0.38
Mof_O 	O 	0.5591	0.7923	-0	-0.917
Mof_Zn	Zn	0.13771	0.68055	0.5	1.202
Mof_N 	N 	0.1847	0.7501	0.5	-0.346
Mof_O 	O 	0.0591	0.7077	0.5	-0.898
Mof_Zn	Zn	0.63771	0.18055	-0	1.176
Mof_N 	N 	0.6847	0.2501	-0	-0.38
Mof_O 	O 	0.5591	0.2077	-0	-0.926
Mof_Zn	Zn	0.86229	0.68055	0.5	1.207
Mof_N 	N 	0.8153	0.7501	0.5	-0.345
Mof_O 	O 	0.9409	0.7077	0.5	-0.801
Mof_Zn	Zn	0.36229	0.18055	-0	1.175
Mof_N 	N 	0.3153	0.2501	-0	-0.38
Mof_O 	O 	0.4409	0.2077	-0	-0.926
Mof_Zn	Zn	0.86229	0.31945	0.5	1.207
Mof_N 	N 	0.8153	0.2499	0.5	-0.346
Mof_O 	O 	0.9409	0.2923	0.5	-0.801
Mof_Zn	Zn	0.36229	0.81945	-0	1.18
Mof_N 	N 	0.3153	0.7499	-0	-0.379
Mof_O 	O 	0.4409	0.7923	-0	-0.917
Mof_Zn	Zn	0.5	0.13771	0.31945	1.202
Mof_N 	N 	0.5	0.1847	0.2499	-0.347
Mof_O 	O 	0.5	0.0591	0.2923	-0.898
Mof_Zn	Zn	-4.77346e-33	0.63771	0.81945	1.181
Mof_N 	N 	1.06576e-32	0.6847	0.7499	-0.38
Mof_O 	O 	1.08166e-32	0.5591	0.7923	-0.917
Mof_Zn	Zn	0.5	0.13771	0.68055	1.202
Mof_N 	N 	0.5	0.1847	0.7501	-0.346
Mof_O 	O 	0.5	0.0591	0.7077	-0.898
Mof_Zn	Zn	-3.246e-33	0.63771	0.18055	1.176
Mof_N 	N 	-1.02375e-33	0.6847	0.2501	-0.38
Mof_O 	O 	7.7875e-34	0.5591	0.2077	-0.926
Mof_Zn	Zn	0.5	0.86229	0.68055	1.207
Mof_N 	N 	0.5	0.8153	0.7501	-0.345
Mof_O 	O 	0.5	0.9409	0.7077	-0.801
Mof_Zn	Zn	4.59991e-33	0.36229	0.18055	1.175
Mof_N 	N 	2.8992e-33	0.3153	0.2501	-0.38
Mof_O 	O 	4.70171e-33	0.4409	0.2077	-0.926
Mof_Zn	Zn	0.5	0.86229	0.31945	1.207
Mof_N 	N 	0.5	0.8153	0.2499	-0.346
Mof_O 	O 	0.5	0.9409	0.2923	-0.801
Mof_Zn	Zn	3.07245e-33	0.36229	0.81945	1.18
Mof_N 	N 	2.81167e-33	0.3153	0.7499	-0.379
Mof_O 	O 	2.97065e-33	0.4409	0.7923	-0.917
Mof_Zn	Zn	0.5	0.31945	0.86229	1.207
Mof_N 	N 	0.5	0.2499	0.8153	-0.346
Mof_O 	O 	0.5	0.2923	0.9409	-0.801
Mof_Zn	Zn	9.20428e-33	0.81945	0.36229	1.18
Mof_N 	N 	1.18219e-33	0.7499	0.3153	-0.379
Mof_O 	O 	1.65311e-33	0.7923	0.4409	-0.917
Mof_Zn	Zn	0.5	0.68055	0.86229	1.207
Mof_N 	N 	0.5	0.7501	0.8153	-0.345
Mof_O 	O 	0.5	0.7077	0.9409	-0.801
Mof_Zn	Zn	1.35837e-33	0.18055	0.36229	1.175
Mof_N 	N 	1.18219e-33	0.2501	0.3153	-0.38
Mof_O 	O 	1.65311e-33	0.2077	0.4409	-0.926
Mof_Zn	Zn	0.5	0.68055	0.13771	1.202
Mof_N 	N 	0.5	0.7501	0.1847	-0.346
Mof_O 	O 	0.5	0.7077	0.0591	-0.898
Mof_Zn	Zn	-5.45488e-33	0.18055	0.63771	1.176
Mof_N 	N 	-5.2787e-33	0.2501	0.6847	-0.38
Mof_O 	O 	-1.82667e-33	0.2077	0.5591	-0.926
Mof_Zn	Zn	0.5	0.31945	0.13771	1.202
Mof_N 	N 	0.5	0.2499	0.1847	-0.347
Mof_O 	O 	0.5	0.2923	0.0591	-0.898
Mof_Zn	Zn	2.39103e-33	0.81945	0.63771	1.181
Mof_N 	N 	1.04131e-32	0.7499	0.6847	-0.38
Mof_O 	O 	1.38652e-32	0.7923	0.5591	-0.917
Mof_Zn	Zn	0.31945	0.13771	0.5	1.202
Mof_N 	N 	0.2499	0.1847	0.5	-0.347
Mof_O 	O 	0.2923	0.0591	0.5	-0.898
Mof_Zn	Zn	0.81945	0.63771	-0	1.181
Mof_N 	N 	0.7499	0.6847	-0	-0.38
Mof_O 	O 	0.7923	0.5591	-0	-0.917
Mof_Zn	Zn	0.68055	0.13771	0.5	1.202
Mof_N 	N 	0.7501	0.1847	0.5	-0.346
Mof_O 	O 	0.7077	0.0591	0.5	-0.898
Mof_Zn	Zn	0.18055	0.63771	-0	1.176
Mof_N 	N 	0.2501	0.6847	-0	-0.38
Mof_O 	O 	0.2077	0.5591	-0	-0.926
Mof_Zn	Zn	0.68055	0.86229	0.5	1.207
Mof_N 	N 	0.7501	0.8153	0.5	-0.345
Mof_O 	O 	0.7077	0.9409	0.5	-0.801
Mof_Zn	Zn	0.18055	0.36229	-0	1.175
Mof_N 	N 	0.2501	0.3153	-0	-0.38
Mof_O 	O 	0.2077	0.4409	-0	-0.926
Mof_Zn	Zn	0.31945	0.86229	0.5	1.207
Mof_N 	N 	0.2499	0.8153	0.5	-0.346
Mof_O 	O 	0.2923	0.9409	0.5	-0.801
Mof_Zn	Zn	0.81945	0.36229	-0	1.18
Mof_N 	N 	0.7499	0.3153	-0	-0.379
Mof_O 	O 	0.7923	0.4409	-0	-0.917
Mof_Zn	Zn	0.13771	0.5	0.68055	1.202
Mof_N 	N 	0.1847	0.5	0.7501	-0.346
Mof_O 	O 	0.0591	0.5	0.7077	-0.898
Mof_Zn	Zn	0.63771	0	0.18055	1.176
Mof_N 	N 	0.6847	-1.96148e-33	0.2501	-0.38
Mof_O 	O 	0.5591	0	0.2077	-0.926
Mof_Zn	Zn	0.13771	0.5	0.31945	1.202
Mof_N 	N 	0.1847	0.5	0.2499	-0.347
Mof_O 	O 	0.0591	0.5	0.2923	-0.898
Mof_Zn	Zn	0.63771	-7.84591e-33	0.81945	1.181
Mof_N 	N 	0.6847	0	0.7499	-0.38
Mof_O 	O 	0.5591	0	0.7923	-0.917
Mof_Zn	Zn	0.86229	0.5	0.31945	1.207
Mof_N 	N 	0.8153	0.5	0.2499	-0.346
Mof_O 	O 	0.9409	0.5	0.2923	-0.801
Mof_Zn	Zn	0.36229	-7.84591e-33	0.81945	1.18
Mof_N 	N 	0.3153	0	0.7499	-0.379
Mof_O 	O 	0.4409	0	0.7923	-0.917
Mof_Zn	Zn	0.86229	0.5	0.68055	1.207
Mof_N 	N 	0.8153	0.5	0.7501	-0.345
Mof_O 	O 	0.9409	0.5	0.7077	-0.801
Mof_Zn	Zn	0.36229	0	0.18055	1.175
Mof_N 	N 	0.3153	-1.96148e-33	0.2501	-0.38
Mof_O 	O 	0.4409	0	0.2077	-0.926
Mof_C 	C 	0.2256	0.5	0.2256	0.282
Mof_C 	C 	0.7256	-7.84591e-33	0.7256	0.225
Mof_C 	C 	0.7744	0.5	0.2256	0.279
Mof_C 	C 	0.2744	-7.84591e-33	0.7256	0.217
Mof_C 	C 	0.7744	0.5	0.7744	0.275
Mof_C 	C 	0.2744	-1.96148e-33	0.2744	0.209
Mof_C 	C 	0.2256	0.5	0.7744	0.279
Mof_C 	C 	0.7256	-1.96148e-33	0.2744	0.217
Mof_C 	C 	0.2256	0.2256	0.5	0.282
Mof_C 	C 	0.7256	0.7256	-0	0.225
Mof_C 	C 	0.2256	0.7744	0.5	0.279
Mof_C 	C 	0.7256	0.2744	-0	0.217
Mof_C 	C 	0.7744	0.7744	0.5	0.275
Mof_C 	C 	0.2744	0.2744	-0	0.209
Mof_C 	C 	0.7744	0.2256	0.5	0.279
Mof_C 	C 	0.2744	0.7256	-0	0.217
Mof_C 	C 	0.5	0.2256	0.2256	0.282
Mof_C 	C 	2.72056e-33	0.7256	0.7256	0.225
Mof_C 	C 	0.5	0.2256	0.7744	0.279
Mof_C 	C 	1.02884e-33	0.7256	0.2744	0.217
Mof_C 	C 	0.5	0.7744	0.7744	0.275
Mof_C 	C 	1.02884e-33	0.2744	0.2744	0.209
Mof_C 	C 	0.5	0.7744	0.2256	0.279
Mof_C 	C 	2.72056e-33	0.2744	0.7256	0.217
Mof_C 	C 	0.4057	0.4057	0.1344	0.131
Mof_C 	C 	0.9057	0.9057	0.6344	0.214
Mof_C 	C 	0.5943	0.5943	0.1344	0.131
Mof_C 	C 	0.0943	0.0943	0.6344	0.106
Mof_C 	C 	0.5943	0.4057	0.8656	0.168
Mof_C 	C 	0.0943	0.9057	0.3656	0.158
Mof_C 	C 	0.4057	0.5943	0.8656	0.168
Mof_C 	C 	0.9057	0.0943	0.3656	0.158
Mof_C 	C 	0.1344	0.4057	0.4057	0.131
Mof_C 	C 	0.6344	0.9057	0.9057	0.214
Mof_C 	C 	0.1344	0.5943	0.5943	0.131
Mof_C 	C 	0.6344	0.0943	0.0943	0.106
Mof_C 	C 	0.8656	0.5943	0.4057	0.168
Mof_C 	C 	0.3656	0.0943	0.9057	0.158
Mof_C 	C 	0.8656	0.4057	0.5943	0.168
Mof_C 	C 	0.3656	0.9057	0.0943	0.158
Mof_C 	C 	0.4057	0.1344	0.4057	0.131
Mof_C 	C 	0.9057	0.6344	0.9057	0.214
Mof_C 	C 	0.5943	0.1344	0.5943	0.131
Mof_C 	C 	0.0943	0.6344	0.0943	0.106
Mof_C 	C 	0.4057	0.8656	0.5943	0.168
Mof_C 	C 	0.9057	0.3656	0.0943	0.158
Mof_C 	C 	0.5943	0.8656	0.4057	0.168
Mof_C 	C 	0.0943	0.3656	0.9057	0.158
Mof_C 	C 	0.4057	0.4057	0.8656	0.168
Mof_C 	C 	0.9057	0.9057	0.3656	0.212
Mof_C 	C 	0.5943	0.5943	0.8656	0.168
Mof_C 	C 	0.0943	0.0943	0.3656	0.104
Mof_C 	C 	0.4057	0.5943	0.1344	0.131
Mof_C 	C 	0.9057	0.0943	0.6344	0.16
Mof_C 	C 	0.5943	0.4057	0.1344	0.131
Mof_C 	C 	0.0943	0.9057	0.6344	0.16
Mof_C 	C 	0.4057	0.1344	0.5943	0.131
Mof_C 	C 	0.9057	0.6344	0.0943	0.16
Mof_C 	C 	0.5943	0.1344	0.4057	0.131
Mof_C 	C 	0.0943	0.6344	0.9057	0.16
Mof_C 	C 	0.5943	0.8656	0.5943	0.168
Mof_C 	C 	0.0943	0.3656	0.0943	0.104
Mof_C 	C 	0.4057	0.8656	0.4057	0.168
Mof_C 	C 	0.9057	0.3656	0.9057	0.212
Mof_C 	C 	0.1344	0.4057	0.5943	0.131
Mof_C 	C 	0.6344	0.9057	0.0943	0.16
Mof_C 	C 	0.1344	0.5943	0.4057	0.131
Mof_C 	C 	0.6344	0.0943	0.9057	0.16
Mof_C 	C 	0.8656	0.4057	0.4057	0.168
Mof_C 	C 	0.3656	0.9057	0.9057	0.212
Mof_C 	C 	0.8656	0.5943	0.5943	0.168
Mof_C 	C 	0.3656	0.0943	0.0943	0.104
_end
