data_functionalizedCrystal
_audit_creation_method	'EQeq! by Chris Wilmer'
_symmetry_space_group_name_H-M	'P1'
_symmetry_Int_Tables_number	1
_symmetry_cell_setting	triclinic
loop_
_symmetry_equiv_pos_as_xyz
  x,y,z
_cell_length_a	10.974
_cell_length_b	22.669
_cell_length_c	14.106
_cell_angle_alpha	90
_cell_angle_beta	96.637
_cell_angle_gamma	90
loop_
_atom_site_label
_atom_site_type_symbol
_atom_site_fract_x
_atom_site_fract_y
_atom_site_fract_z
_atom_site_charge
Mof_Cd	Cd	0.86819	0.07323	0.77806	0.378
Mof_C 	C 	0.6181	0.0565	0.8683	0.093
Mof_H 	H 	0.6776	0.0444	0.9167	0.017
Mof_C 	C 	0.4987	0.0542	0.8842	-0.141
Mof_H 	H 	0.4784	0.0405	0.9425	0.094
Mof_C 	C 	0.4077	0.0719	0.8156	0.074
Mof_C 	C 	0.4441	0.0928	0.7314	-0.143
Mof_H 	H 	0.3863	0.1064	0.6829	0.09
Mof_C 	C 	0.5664	0.0932	0.7203	0.093
Mof_H 	H 	0.5893	0.1068	0.6628	0.003
Mof_C 	C 	0.2797	0.0662	0.8307	0.09
Mof_C 	C 	0.9203	0.2923	0.2346	0.111
Mof_H 	H 	0.9507	0.2937	0.2989	0.016
Mof_C 	C 	0.9239	0.24	0.1887	-0.163
Mof_H 	H 	0.9569	0.2069	0.2209	0.109
Mof_C 	C 	0.8782	0.2364	0.0939	0.101
Mof_C 	C 	0.8316	0.2868	0.0495	-0.185
Mof_H 	H 	0.7998	0.2865	0.9854	0.116
Mof_C 	C 	0.8333	0.3376	0.1023	0.116
Mof_H 	H 	0.802	0.3716	0.0718	-0.008
Mof_C 	C 	0.8826	0.1814	0.0407	0.079
Mof_N 	N 	0.654	0.0753	0.7864	-0.157
Mof_N 	N 	0.2468	0.0398	0.909	-0.084
Mof_N 	N 	0.1255	0.043	0.8976	-0.069
Mof_N 	N 	0.0872	0.0693	0.8153	-0.078
Mof_N 	N 	0.1829	0.0848	0.7723	-0.09
Mof_N 	N 	0.8762	0.3416	0.1937	-0.167
Mof_N 	N 	0.921	0.1308	0.0811	-0.076
Mof_N 	N 	0.9162	0.0932	0.0086	-0.065
Mof_N 	N 	0.8781	0.1212	0.9285	-0.063
Mof_N 	N 	0.8557	0.1773	0.9469	-0.081
Mof_N 	N 	0.8712	0.9872	0.8615	-0.097
Mof_N 	N 	0.814	0.945	0.8374	-0.025
Mof_N 	N 	0.7599	0.905	0.8123	-0.049
Mof_Cd	Cd	0.13181	0.57323	0.72194	0.361
Mof_C 	C 	0.3819	0.5565	0.6317	0.098
Mof_H 	H 	0.3224	0.5444	0.5833	0.017
Mof_C 	C 	0.5013	0.5542	0.6158	-0.142
Mof_H 	H 	0.5216	0.5405	0.5575	0.095
Mof_C 	C 	0.5923	0.5719	0.6844	0.08
Mof_C 	C 	0.5559	0.5928	0.7686	-0.144
Mof_H 	H 	0.6137	0.6064	0.8171	0.099
Mof_C 	C 	0.4336	0.5932	0.7797	0.097
Mof_H 	H 	0.4107	0.6068	0.8372	0.005
Mof_C 	C 	0.7203	0.5662	0.6693	0.094
Mof_C 	C 	0.0797	0.7923	0.2654	0.097
Mof_H 	H 	0.0493	0.7937	0.2011	0.01
Mof_C 	C 	0.0761	0.74	0.3113	-0.15
Mof_H 	H 	0.0431	0.7069	0.2791	0.095
Mof_C 	C 	0.1218	0.7364	0.4061	0.077
Mof_C 	C 	0.1684	0.7868	0.4505	-0.148
Mof_H 	H 	0.2002	0.7865	0.5146	0.095
Mof_C 	C 	0.1667	0.8376	0.3977	0.093
Mof_H 	H 	0.198	0.8716	0.4282	-0
Mof_C 	C 	0.1174	0.6814	0.4593	0.092
Mof_N 	N 	0.346	0.5753	0.7136	-0.156
Mof_N 	N 	0.7532	0.5398	0.591	-0.082
Mof_N 	N 	0.8745	0.543	0.6024	-0.058
Mof_N 	N 	0.9128	0.5693	0.6847	-0.057
Mof_N 	N 	0.8171	0.5848	0.7277	-0.08
Mof_N 	N 	0.1238	0.8416	0.3063	-0.165
Mof_N 	N 	0.079	0.6308	0.4189	-0.085
Mof_N 	N 	0.0838	0.5932	0.4914	-0.07
Mof_N 	N 	0.1219	0.6212	0.5715	-0.071
Mof_N 	N 	0.1443	0.6773	0.5531	-0.089
Mof_N 	N 	0.1288	0.4872	0.6385	-0.12
Mof_N 	N 	0.186	0.445	0.6626	-0.033
Mof_N 	N 	0.2401	0.405	0.6877	-0.063
Mof_Cd	Cd	0.13181	0.92677	0.22194	0.365
Mof_C 	C 	0.3819	0.9435	0.1317	0.098
Mof_H 	H 	0.3224	0.9556	0.0833	0.017
Mof_C 	C 	0.5013	0.9458	0.1158	-0.142
Mof_H 	H 	0.5216	0.9595	0.0575	0.095
Mof_C 	C 	0.5923	0.9281	0.1844	0.08
Mof_C 	C 	0.5559	0.9072	0.2686	-0.144
Mof_H 	H 	0.6137	0.8936	0.3171	0.098
Mof_C 	C 	0.4336	0.9068	0.2797	0.097
Mof_H 	H 	0.4107	0.8932	0.3372	0.005
Mof_C 	C 	0.7203	0.9338	0.1693	0.094
Mof_C 	C 	0.0797	0.7077	0.7654	0.088
Mof_H 	H 	0.0493	0.7063	0.7011	0.014
Mof_C 	C 	0.0761	0.76	0.8113	-0.135
Mof_H 	H 	0.0431	0.7931	0.7791	0.092
Mof_C 	C 	0.1218	0.7636	0.9061	0.058
Mof_C 	C 	0.1684	0.7132	0.9505	-0.107
Mof_H 	H 	0.2002	0.7135	0.0146	0.071
Mof_C 	C 	0.1667	0.6624	0.8977	0.073
Mof_H 	H 	0.198	0.6284	0.9282	0.008
Mof_C 	C 	0.1174	0.8186	0.9593	0.111
Mof_N 	N 	0.346	0.9247	0.2136	-0.156
Mof_N 	N 	0.7532	0.9602	0.091	-0.082
Mof_N 	N 	0.8745	0.957	0.1024	-0.056
Mof_N 	N 	0.9128	0.9307	0.1847	-0.056
Mof_N 	N 	0.8171	0.9152	0.2277	-0.08
Mof_N 	N 	0.1238	0.6584	0.8063	-0.159
Mof_N 	N 	0.079	0.8692	0.9189	-0.085
Mof_N 	N 	0.0838	0.9068	0.9914	-0.059
Mof_N 	N 	0.1219	0.8788	0.0715	-0.075
Mof_N 	N 	0.1443	0.8227	0.0531	-0.098
Mof_N 	N 	0.1288	0.0128	0.1385	-0.126
Mof_N 	N 	0.186	0.055	0.1626	-0.036
Mof_N 	N 	0.2401	0.095	0.1877	-0.067
Mof_Cd	Cd	0.86819	0.42677	0.27806	0.383
Mof_C 	C 	0.6181	0.4435	0.3683	0.095
Mof_H 	H 	0.6776	0.4556	0.4167	0.018
Mof_C 	C 	0.4987	0.4458	0.3842	-0.14
Mof_H 	H 	0.4784	0.4595	0.4425	0.094
Mof_C 	C 	0.4077	0.4281	0.3156	0.074
Mof_C 	C 	0.4441	0.4072	0.2314	-0.143
Mof_H 	H 	0.3863	0.3936	0.1829	0.089
Mof_C 	C 	0.5664	0.4068	0.2203	0.093
Mof_H 	H 	0.5893	0.3932	0.1628	0.002
Mof_C 	C 	0.2797	0.4338	0.3307	0.09
Mof_C 	C 	0.9203	0.2077	0.7346	0.103
Mof_H 	H 	0.9507	0.2063	0.7989	0.019
Mof_C 	C 	0.9239	0.26	0.6887	-0.149
Mof_H 	H 	0.9569	0.2931	0.7209	0.107
Mof_C 	C 	0.8782	0.2636	0.5939	0.083
Mof_C 	C 	0.8316	0.2132	0.5495	-0.148
Mof_H 	H 	0.7998	0.2135	0.4854	0.095
Mof_C 	C 	0.8333	0.1624	0.6023	0.098
Mof_H 	H 	0.802	0.1284	0.5718	-0.001
Mof_C 	C 	0.8826	0.3186	0.5407	0.096
Mof_N 	N 	0.654	0.4247	0.2864	-0.157
Mof_N 	N 	0.2468	0.4602	0.409	-0.085
Mof_N 	N 	0.1255	0.457	0.3976	-0.072
Mof_N 	N 	0.0872	0.4307	0.3153	-0.078
Mof_N 	N 	0.1829	0.4152	0.2723	-0.091
Mof_N 	N 	0.8762	0.1584	0.6937	-0.162
Mof_N 	N 	0.921	0.3692	0.5811	-0.076
Mof_N 	N 	0.9162	0.4068	0.5086	-0.06
Mof_N 	N 	0.8781	0.3788	0.4285	-0.067
Mof_N 	N 	0.8557	0.3227	0.4469	-0.088
Mof_N 	N 	0.8712	0.5128	0.3615	-0.107
Mof_N 	N 	0.814	0.555	0.3374	-0.028
Mof_N 	N 	0.7599	0.595	0.3123	-0.054
Mof_Cd	Cd	-0	0	-0	0.356
Mof_Cd	Cd	2.68826e-33	0.5	0.5	0.379
_end
