data_functionalizedCrystal
_audit_creation_method	'EQeq! by Chris Wilmer'
_symmetry_space_group_name_H-M	'P1'
_symmetry_Int_Tables_number	1
_symmetry_cell_setting	triclinic
loop_
_symmetry_equiv_pos_as_xyz
  x,y,z
_cell_length_a	10.35
_cell_length_b	12.19
_cell_length_c	13
_cell_angle_alpha	90
_cell_angle_beta	90
_cell_angle_gamma	90
loop_
_atom_site_label
_atom_site_type_symbol
_atom_site_fract_x
_atom_site_fract_y
_atom_site_fract_z
_atom_site_charge
Mof_O 	O 	0.5455	0.2775	0.1626	-0.604
Mof_O 	O 	0.392	0.1338	0.2102	-0.721
Mof_O 	O 	0.1057	0.1119	0.2405	-0.422
Mof_O 	O 	0.7258	0.0241	0.9082	-0.589
Mof_O 	O 	0.4545	0.7225	0.1626	-0.61
Mof_O 	O 	0.608	0.8662	0.2102	-0.481
Mof_O 	O 	0.8943	0.8881	0.2405	-0.329
Mof_O 	O 	0.2742	0.9759	0.9082	-0.251
Mof_O 	O 	0.4545	0.2775	0.3374	-0.647
Mof_O 	O 	0.608	0.1338	0.2898	-0.711
Mof_O 	O 	0.8943	0.1119	0.2595	-0.364
Mof_O 	O 	0.2742	0.0241	0.5918	-0.751
Mof_O 	O 	0.5455	0.7225	0.3374	-0.649
Mof_O 	O 	0.392	0.8662	0.2898	-0.481
Mof_O 	O 	0.1057	0.8881	0.2595	-0.382
Mof_O 	O 	0.7258	0.9759	0.5918	-0.394
Mof_O 	O 	0.4545	0.7225	0.8374	-0.511
Mof_O 	O 	0.608	0.8662	0.7898	-0.441
Mof_O 	O 	0.8943	0.8881	0.7595	-0.295
Mof_O 	O 	0.2742	0.9759	0.0918	-0.4
Mof_O 	O 	0.5455	0.2775	0.8374	-0.506
Mof_O 	O 	0.392	0.1338	0.7898	-0.681
Mof_O 	O 	0.1057	0.1119	0.7595	-0.388
Mof_O 	O 	0.7258	0.0241	0.0918	-0.736
Mof_O 	O 	0.5455	0.7225	0.6626	-0.632
Mof_O 	O 	0.392	0.8662	0.7102	-0.473
Mof_O 	O 	0.1057	0.8881	0.7405	-0.357
Mof_O 	O 	0.7258	0.9759	0.4082	-0.389
Mof_O 	O 	0.4545	0.2775	0.6626	-0.63
Mof_O 	O 	0.608	0.1338	0.7102	-0.704
Mof_O 	O 	0.8943	0.1119	0.7405	-0.34
Mof_O 	O 	0.2742	0.0241	0.4082	-0.746
Mof_In	In	0.5593	0.2703	-0	2.148
Mof_P 	P 	0.781	0.0834	-0	0.586
Mof_C 	C 	0.574	0.5123	-0	0.272
Mof_O 	O 	0.6478	0.4319	-0	-0.51
Mof_O 	O 	0.6071	0.6111	-0	-0.525
Mof_O 	O 	0.7426	0.2015	-0	-0.64
Mof_O 	O 	0.924	0.091	-0	-0.368
Mof_In	In	0.4407	0.7297	-0	2.381
Mof_P 	P 	0.219	0.9166	-0	0.559
Mof_C 	C 	0.426	0.4877	-0	0.29
Mof_O 	O 	0.3522	0.5681	-0	-0.56
Mof_O 	O 	0.3929	0.3889	-0	-0.544
Mof_O 	O 	0.2574	0.7985	-0	-0.663
Mof_O 	O 	0.076	0.909	-0	-0.192
Mof_In	In	0.4407	0.2703	0.5	2.455
Mof_P 	P 	0.219	0.0834	0.5	0.723
Mof_C 	C 	0.426	0.5123	0.5	0.3
Mof_O 	O 	0.3522	0.4319	0.5	-0.519
Mof_O 	O 	0.3929	0.6111	0.5	-0.524
Mof_O 	O 	0.2574	0.2015	0.5	-0.664
Mof_O 	O 	0.076	0.091	0.5	-0.387
Mof_In	In	0.5593	0.7297	0.5	2.696
Mof_P 	P 	0.781	0.9166	0.5	0.695
Mof_C 	C 	0.574	0.4877	0.5	0.31
Mof_O 	O 	0.6478	0.5681	0.5	-0.538
Mof_O 	O 	0.6071	0.3889	0.5	-0.515
Mof_O 	O 	0.7426	0.7985	0.5	-0.659
Mof_O 	O 	0.924	0.909	0.5	-0.092
Mof_In	In	0.2759	-1.92386e-33	0.25	1.775
Mof_In	In	0.7241	-1.92386e-33	0.25	1.774
Mof_In	In	0.7241	0	0.75	1.809
Mof_In	In	0.2759	0	0.75	1.809
Mof_P 	P 	0.5	0.2043	0.25	0.758
Mof_P 	P 	0.5	0.7957	0.25	0.744
Mof_P 	P 	0.5	0.7957	0.75	0.745
Mof_P 	P 	0.5	0.2043	0.75	0.758
Mof_C 	C 	5.02506e-33	0.0667	0.25	-0.079
Mof_C 	C 	8.87278e-33	0.9333	0.25	0.531
Mof_C 	C 	1.89229e-32	0.9333	0.75	0.544
Mof_C 	C 	3.53204e-33	0.0667	0.75	-0.068
_end
