data_functionalizedCrystal
_audit_creation_method	'EQeq! by Chris Wilmer'
_symmetry_space_group_name_H-M	'P1'
_symmetry_Int_Tables_number	1
_symmetry_cell_setting	triclinic
loop_
_symmetry_equiv_pos_as_xyz
  x,y,z
_cell_length_a	10.749
_cell_length_b	18.058
_cell_length_c	18.058
_cell_angle_alpha	90
_cell_angle_beta	90
_cell_angle_gamma	90
loop_
_atom_site_label
_atom_site_type_symbol
_atom_site_fract_x
_atom_site_fract_y
_atom_site_fract_z
_atom_site_charge
Mof_O 	O 	0.1697	0.0993	0.3201	-0.487
Mof_O 	O 	0.9715	0.0739	0.3076	-0.453
Mof_O 	O 	0.2846	0.9467	0.3255	-0.334
Mof_O 	O 	0.087	0.9289	0.347	-0.397
Mof_C 	C 	0.0256	0.1853	0.3743	-0.086
Mof_C 	C 	0.1309	0.2075	0.4267	0.005
Mof_C 	C 	0.8976	0.1943	0.4074	0.004
Mof_C 	C 	0.9616	0.2467	0.3241	-0.013
Mof_C 	C 	0.9592	0.241	0.2532	-0.005
Mof_C 	C 	0.8318	0.2285	0.2998	0.013
Mof_C 	C 	0.0548	0.1151	0.3328	0.32
Mof_C 	C 	0.2302	0.8742	0.4344	-0.066
Mof_C 	C 	0.12	0.8345	0.4688	0.037
Mof_C 	C 	0.2901	0.9262	0.4973	-0.007
Mof_C 	C 	0.424	0.9475	0.486	0.073
Mof_C 	C 	0.2151	0.9989	0.5072	0.039
Mof_C 	C 	0.3399	0.8197	0.4176	0.033
Mof_C 	C 	0.2003	0.9183	0.3647	0.302
Mof_O 	O 	0.6697	0.5993	0.8201	-0.502
Mof_O 	O 	0.4715	0.5739	0.8076	-0.443
Mof_O 	O 	0.7846	0.4467	0.8255	-0.451
Mof_O 	O 	0.587	0.4289	0.847	-0.514
Mof_C 	C 	0.5256	0.6853	0.8743	-0.092
Mof_C 	C 	0.6309	0.7075	0.9267	0.036
Mof_C 	C 	0.3976	0.6943	0.9074	0.04
Mof_C 	C 	0.4616	0.7467	0.8241	-0.08
Mof_C 	C 	0.4592	0.741	0.7532	0.056
Mof_C 	C 	0.3318	0.7285	0.7998	0.036
Mof_C 	C 	0.5548	0.6151	0.8328	0.325
Mof_C 	C 	0.7302	0.3742	0.9344	-0.08
Mof_C 	C 	0.62	0.3345	0.9688	0.03
Mof_C 	C 	0.7901	0.4262	0.9973	0.012
Mof_C 	C 	0.924	0.4475	0.986	0.017
Mof_C 	C 	0.7151	0.4989	0.0072	-0.009
Mof_C 	C 	0.8399	0.3197	0.9176	0.02
Mof_C 	C 	0.7003	0.4183	0.8647	0.325
Mof_O 	O 	0.3303	0.9007	0.8201	-0.382
Mof_O 	O 	0.5285	0.9261	0.8076	-0.326
Mof_O 	O 	0.2154	0.0533	0.8255	-0.449
Mof_O 	O 	0.413	0.0711	0.847	-0.491
Mof_C 	C 	0.4744	0.8147	0.8743	-0.073
Mof_C 	C 	0.3691	0.7925	0.9267	0.06
Mof_C 	C 	0.6024	0.8057	0.9074	0.046
Mof_C 	C 	0.5384	0.7533	0.8241	0.112
Mof_C 	C 	0.5408	0.759	0.7532	-0.053
Mof_C 	C 	0.6682	0.7715	0.7998	0.021
Mof_C 	C 	0.4452	0.8849	0.8328	0.313
Mof_C 	C 	0.2698	0.1258	0.9344	-0.094
Mof_C 	C 	0.38	0.1655	0.9688	0.032
Mof_C 	C 	0.2099	0.0738	0.9973	0.041
Mof_C 	C 	0.076	0.0525	0.986	-0.027
Mof_C 	C 	0.2849	0.0011	0.0072	-0.035
Mof_C 	C 	0.1601	0.1803	0.9176	0.026
Mof_C 	C 	0.2997	0.0817	0.8647	0.329
Mof_O 	O 	0.8303	0.4007	0.3201	-0.5
Mof_O 	O 	0.0285	0.4261	0.3076	-0.435
Mof_O 	O 	0.7154	0.5533	0.3255	-0.448
Mof_O 	O 	0.913	0.5711	0.347	-0.517
Mof_C 	C 	0.9744	0.3147	0.3743	-0.087
Mof_C 	C 	0.8691	0.2925	0.4267	0.029
Mof_C 	C 	0.1024	0.3057	0.4074	0.031
Mof_C 	C 	0.0384	0.2533	0.3241	0.061
Mof_C 	C 	0.0408	0.259	0.2532	-0.002
Mof_C 	C 	0.1682	0.2715	0.2998	0.004
Mof_C 	C 	0.9452	0.3849	0.3328	0.317
Mof_C 	C 	0.7698	0.6258	0.4344	-0.083
Mof_C 	C 	0.88	0.6655	0.4688	0.037
Mof_C 	C 	0.7099	0.5738	0.4973	0.026
Mof_C 	C 	0.576	0.5525	0.486	0.018
Mof_C 	C 	0.7849	0.5011	0.5072	0.005
Mof_C 	C 	0.6601	0.6803	0.4176	0.037
Mof_C 	C 	0.7997	0.5817	0.3647	0.329
Mof_O 	O 	0.8303	0.5993	0.1799	-0.499
Mof_O 	O 	0.0285	0.5739	0.1924	-0.437
Mof_O 	O 	0.7154	0.4467	0.1745	-0.449
Mof_O 	O 	0.913	0.4289	0.153	-0.516
Mof_C 	C 	0.9744	0.6853	0.1257	-0.107
Mof_C 	C 	0.8691	0.7075	0.0733	0.035
Mof_C 	C 	0.1024	0.6943	0.0926	0.058
Mof_C 	C 	0.0384	0.7467	0.1759	-0.189
Mof_C 	C 	0.0408	0.741	0.2468	0.156
Mof_C 	C 	0.1682	0.7285	0.2002	0.04
Mof_C 	C 	0.9452	0.6151	0.1672	0.319
Mof_C 	C 	0.7698	0.3742	0.0656	-0.08
Mof_C 	C 	0.88	0.3345	0.0312	0.03
Mof_C 	C 	0.7099	0.4262	0.0027	0.026
Mof_C 	C 	0.576	0.4475	0.014	0.019
Mof_C 	C 	0.7849	0.4989	0.9928	0.007
Mof_C 	C 	0.6601	0.3197	0.0824	0.021
Mof_C 	C 	0.7997	0.4183	0.1353	0.325
Mof_O 	O 	0.3303	0.0993	0.6799	-0.487
Mof_O 	O 	0.5285	0.0739	0.6924	-0.451
Mof_O 	O 	0.2154	0.9467	0.6745	-0.333
Mof_O 	O 	0.413	0.9289	0.653	-0.399
Mof_C 	C 	0.4744	0.1853	0.6257	-0.096
Mof_C 	C 	0.3691	0.2075	0.5733	0.005
Mof_C 	C 	0.6024	0.1943	0.5926	0.015
Mof_C 	C 	0.5384	0.2467	0.6759	-0.083
Mof_C 	C 	0.5408	0.241	0.7468	0.059
Mof_C 	C 	0.6682	0.2285	0.7002	0.015
Mof_C 	C 	0.4452	0.1151	0.6672	0.316
Mof_C 	C 	0.2698	0.8742	0.5656	-0.066
Mof_C 	C 	0.38	0.8345	0.5312	0.036
Mof_C 	C 	0.2099	0.9262	0.5027	0.005
Mof_C 	C 	0.076	0.9475	0.514	0.075
Mof_C 	C 	0.2849	0.9989	0.4928	0.054
Mof_C 	C 	0.1601	0.8197	0.5824	0.035
Mof_C 	C 	0.2997	0.9183	0.6353	0.303
Mof_O 	O 	0.6697	0.4007	0.6799	-0.503
Mof_O 	O 	0.4715	0.4261	0.6924	-0.442
Mof_O 	O 	0.7846	0.5533	0.6745	-0.45
Mof_O 	O 	0.587	0.5711	0.653	-0.515
Mof_C 	C 	0.5256	0.3147	0.6257	-0.078
Mof_C 	C 	0.6309	0.2925	0.5733	0.029
Mof_C 	C 	0.3976	0.3057	0.5926	0.02
Mof_C 	C 	0.4616	0.2533	0.6759	0.131
Mof_C 	C 	0.4592	0.259	0.7468	-0.066
Mof_C 	C 	0.3318	0.2715	0.7002	0.002
Mof_C 	C 	0.5548	0.3849	0.6672	0.323
Mof_C 	C 	0.7302	0.6258	0.5656	-0.083
Mof_C 	C 	0.62	0.6655	0.5312	0.038
Mof_C 	C 	0.7901	0.5738	0.5027	0.013
Mof_C 	C 	0.924	0.5525	0.514	0.015
Mof_C 	C 	0.7151	0.5011	0.4928	-0.01
Mof_C 	C 	0.8399	0.6803	0.5824	0.035
Mof_C 	C 	0.7003	0.5817	0.6353	0.328
Mof_O 	O 	0.1697	0.9007	0.1799	-0.384
Mof_O 	O 	0.9715	0.9261	0.1924	-0.335
Mof_O 	O 	0.2846	0.0533	0.1745	-0.451
Mof_O 	O 	0.087	0.0711	0.153	-0.49
Mof_C 	C 	0.0256	0.8147	0.1257	-0.058
Mof_C 	C 	0.1309	0.7925	0.0733	0.061
Mof_C 	C 	0.8976	0.8057	0.0926	0.028
Mof_C 	C 	0.9616	0.7533	0.1759	0.221
Mof_C 	C 	0.9592	0.759	0.2468	-0.153
Mof_C 	C 	0.8318	0.7715	0.2002	0.017
Mof_C 	C 	0.0548	0.8849	0.1672	0.321
Mof_C 	C 	0.2302	0.1258	0.0656	-0.094
Mof_C 	C 	0.12	0.1655	0.0312	0.033
Mof_C 	C 	0.2901	0.0738	0.0027	0.031
Mof_C 	C 	0.424	0.0525	0.014	-0.029
Mof_C 	C 	0.2151	0.0011	0.9928	-0.048
Mof_C 	C 	0.3399	0.1803	0.0824	0.025
Mof_C 	C 	0.2003	0.0817	0.1353	0.328
Mof_In	In	0.12858	0	0.25	1.975
Mof_In	In	0.37142	7.20183e-33	0.75	1.966
Mof_In	In	0.87142	0.5	0.25	2.45
Mof_In	In	0.62858	0.5	0.75	2.461
_end
