# CIF file generated by openbabel 3.1.0, see https://openbabel.org
data_I
_chemical_name_common 'VURYIR_clean'
_cell_length_a 4.713
_cell_length_b 11.101
_cell_length_c 26.797
_cell_angle_alpha 90
_cell_angle_beta 90
_cell_angle_gamma 96.52
_space_group_name_H-M_alt 'P 1'
_space_group_name_Hall 'P 1'
loop_
    _symmetry_equiv_pos_as_xyz
    x,y,z
loop_
    _atom_site_label
    _atom_site_type_symbol
    _atom_site_fract_x
    _atom_site_fract_y
    _atom_site_fract_z
    _atom_site_occupancy
    Cu1      Cu       0.38800    0.12000    0.81940    1.000
    Cu2      Cu       0.61200    0.38000    0.31940    1.000
    Cu3      Cu       0.61200    0.88000    0.18060    1.000
    Cu4      Cu       0.38800    0.62000    0.68060    1.000
    H1       H        0.21400    0.03630    0.70870    1.000
    H2       H        0.37590    0.13530    0.63740    1.000
    H3       H        0.07990    0.20930    0.89520    1.000
    H4       H        0.40860    0.89810    0.89170    1.000
    H5       H        0.39280    0.76160    0.96210    1.000
    H6       H        0.86470    0.27690    0.96450    1.000
    H7       H        0.78600    0.46370    0.20870    1.000
    H8       H        0.62410    0.36470    0.13740    1.000
    H9       H        0.92010    0.29070    0.39520    1.000
    H10      H        0.59140    0.60190    0.39170    1.000
    H11      H        0.60720    0.73840    0.46210    1.000
    H12      H        0.13530    0.22310    0.46450    1.000
    H13      H        0.78600    0.96370    0.29130    1.000
    H14      H        0.62410    0.86470    0.36260    1.000
    H15      H        0.92010    0.79070    0.10480    1.000
    H16      H        0.59140    0.10190    0.10830    1.000
    H17      H        0.60720    0.23840    0.03790    1.000
    H18      H        0.13530    0.72310    0.03550    1.000
    H19      H        0.21400    0.53630    0.79130    1.000
    H20      H        0.37590    0.63530    0.86260    1.000
    H21      H        0.07990    0.70930    0.60480    1.000
    H22      H        0.40860    0.39810    0.60830    1.000
    H23      H        0.39280    0.26160    0.53790    1.000
    H24      H        0.86470    0.77690    0.53550    1.000
    C1       C        0.65090    0.32080    0.80250    1.000
    C2       C        0.58630    0.26870    0.75240    1.000
    C3       C        0.33460    0.11090    0.71000    1.000
    C4       C        0.43340    0.16970    0.66880    1.000
    C5       C        0.68520    0.32350    0.71040    1.000
    C6       C        0.86840    0.44230    0.70500    1.000
    C7       C        0.11300    0.13610    0.91140    1.000
    C8       C        0.30590    0.95330    0.90940    1.000
    C9       C        0.21450    0.92490    0.95580    1.000
    C10      C        0.01390    0.11490    0.95790    1.000
    C11      C        0.06310    0.00780    0.98120    1.000
    C12      C        0.27290    0.81560    0.97640    1.000
    C13      C        0.86630    0.20090    0.98070    1.000
    C14      C        0.34910    0.17920    0.30250    1.000
    C15      C        0.41370    0.23130    0.25240    1.000
    C16      C        0.66540    0.38910    0.21000    1.000
    C17      C        0.56660    0.33030    0.16880    1.000
    C18      C        0.31480    0.17650    0.21040    1.000
    C19      C        0.13160    0.05770    0.20500    1.000
    C20      C        0.88700    0.36390    0.41140    1.000
    C21      C        0.69410    0.54670    0.40940    1.000
    C22      C        0.78550    0.57510    0.45580    1.000
    C23      C        0.98610    0.38510    0.45790    1.000
    C24      C        0.93690    0.49220    0.48120    1.000
    C25      C        0.72710    0.68440    0.47640    1.000
    C26      C        0.13370    0.29910    0.48070    1.000
    C27      C        0.34910    0.67920    0.19750    1.000
    C28      C        0.41370    0.73130    0.24760    1.000
    C29      C        0.66540    0.88910    0.29000    1.000
    C30      C        0.56660    0.83030    0.33120    1.000
    C31      C        0.31480    0.67650    0.28960    1.000
    C32      C        0.13160    0.55770    0.29500    1.000
    C33      C        0.88700    0.86390    0.08860    1.000
    C34      C        0.69410    0.04670    0.09060    1.000
    C35      C        0.78550    0.07510    0.04420    1.000
    C36      C        0.98610    0.88510    0.04210    1.000
    C37      C        0.93690    0.99220    0.01880    1.000
    C38      C        0.72710    0.18440    0.02360    1.000
    C39      C        0.13370    0.79910    0.01930    1.000
    C40      C        0.65090    0.82080    0.69750    1.000
    C41      C        0.58630    0.76870    0.74760    1.000
    C42      C        0.33460    0.61090    0.79000    1.000
    C43      C        0.43340    0.66970    0.83120    1.000
    C44      C        0.68520    0.82350    0.78960    1.000
    C45      C        0.86840    0.94230    0.79500    1.000
    C46      C        0.11300    0.63610    0.58860    1.000
    C47      C        0.30590    0.45330    0.59060    1.000
    C48      C        0.21450    0.42490    0.54420    1.000
    C49      C        0.01390    0.61490    0.54210    1.000
    C50      C        0.06310    0.50780    0.51880    1.000
    C51      C        0.27290    0.31560    0.52360    1.000
    C52      C        0.86630    0.70090    0.51930    1.000
    N1       N        0.41600    0.16350    0.75220    1.000
    N2       N        0.60580    0.27250    0.66880    1.000
    N3       N        0.25670    0.05700    0.88740    1.000
    N4       N        0.58400    0.33650    0.25220    1.000
    N5       N        0.39420    0.22750    0.16880    1.000
    N6       N        0.74330    0.44300    0.38740    1.000
    N7       N        0.58400    0.83650    0.24780    1.000
    N8       N        0.39420    0.72750    0.33120    1.000
    N9       N        0.74330    0.94300    0.11260    1.000
    N10      N        0.41600    0.66350    0.74780    1.000
    N11      N        0.60580    0.77250    0.83120    1.000
    N12      N        0.25670    0.55700    0.61260    1.000
    O1       O        0.53300    0.25830    0.83520    1.000
    O2       O        0.78900    0.42040    0.80660    1.000
    O3       O        0.11900    0.48800    0.71200    1.000
    O4       O        0.75500    0.53410    0.69430    1.000
    O5       O        0.46700    0.24170    0.33520    1.000
    O6       O        0.21100    0.07960    0.30660    1.000
    O7       O        0.88100    0.01200    0.21200    1.000
    O8       O        0.24500    0.96590    0.19430    1.000
    O9       O        0.46700    0.74170    0.16480    1.000
    O10      O        0.21100    0.57960    0.19340    1.000
    O11      O        0.88100    0.51200    0.28800    1.000
    O12      O        0.24500    0.46590    0.30570    1.000
    O13      O        0.53300    0.75830    0.66480    1.000
    O14      O        0.78900    0.92040    0.69340    1.000
    O15      O        0.11900    0.98800    0.78800    1.000
    O16      O        0.75500    0.03410    0.80570    1.000
