data_functionalizedCrystal
_audit_creation_method	'EQeq! by Chris Wilmer'
_symmetry_space_group_name_H-M	'P1'
_symmetry_Int_Tables_number	1
_symmetry_cell_setting	triclinic
loop_
_symmetry_equiv_pos_as_xyz
  x,y,z
_cell_length_a	9.1238
_cell_length_b	9.6201
_cell_length_c	12.6475
_cell_angle_alpha	94.475
_cell_angle_beta	104.722
_cell_angle_gamma	114.437
loop_
_atom_site_label
_atom_site_type_symbol
_atom_site_fract_x
_atom_site_fract_y
_atom_site_fract_z
_atom_site_charge
Mof_Co	Co	0.87208	0.51391	0.70196	1.187
Mof_Co	Co	0.12792	0.48609	0.29804	1.149
Mof_Co	Co	0.5	0.5	0.5	1.202
Mof_Co	Co	7.43176e-18	0	0.5	1.026
Mof_H 	H 	0.3623	0.8751	0.5978	0.078
Mof_H 	H 	0.7273	0.8817	0.8165	0.104
Mof_H 	H 	0.513	0.7162	0.8648	0.047
Mof_H 	H 	0.4452	0.5877	0.7554	0.053
Mof_H 	H 	0.3971	0.8583	0.7775	0.082
Mof_H 	H 	0.6367	0.973	0.6798	0.099
Mof_H 	H 	0.423	0.1363	0.8348	0.062
Mof_H 	H 	0.9928	0.3941	0.9029	0
Mof_H 	H 	0.8948	0.2257	0.014	0.153
Mof_H 	H 	0.5369	0.3064	0.7291	-0.02
Mof_H 	H 	0.685	0.033	0.071	0.044
Mof_H 	H 	0.6377	0.1249	0.4022	0.053
Mof_H 	H 	0.2727	0.1183	0.1835	0.061
Mof_H 	H 	0.487	0.2838	0.1352	0.05
Mof_H 	H 	0.5548	0.4123	0.2446	0.07
Mof_H 	H 	0.6029	0.1417	0.2225	0.052
Mof_H 	H 	0.3633	0.027	0.3202	0.059
Mof_H 	H 	0.577	0.8637	0.1652	0.105
Mof_H 	H 	0.0072	0.6059	0.0971	-0.022
Mof_H 	H 	0.1052	0.7743	0.986	0.065
Mof_H 	H 	0.4631	0.6936	0.2709	-0.003
Mof_H 	H 	0.315	0.967	0.929	0.037
Mof_C 	C 	0.6703	0.8487	0.559	0.369
Mof_C 	C 	0.7395	0.6951	0.7411	0.345
Mof_C 	C 	0.2968	0.6499	0.5244	0.342
Mof_C 	C 	0.3954	0.7937	0.6183	-0.092
Mof_C 	C 	0.6508	0.7933	0.7539	-0.144
Mof_C 	C 	0.4894	0.6985	0.7844	-0.029
Mof_C 	C 	0.3637	0.758	0.7299	-0.121
Mof_C 	C 	0.1812	0.6558	0.7197	0.327
Mof_C 	C 	0.581	0.0413	0.0039	-0.134
Mof_C 	C 	0.5919	0.861	0.651	-0.116
Mof_C 	C 	0.6447	0.155	0.9359	0.132
Mof_C 	C 	0.54	0.1858	0.8497	-0.196
Mof_C 	C 	0.8762	0.3402	0.8887	0.135
Mof_C 	C 	0.8185	0.2385	0.9559	-0.245
Mof_C 	C 	0.6094	0.2891	0.787	0.098
Mof_C 	C 	0.3297	0.1513	0.441	0.371
Mof_C 	C 	0.2605	0.3049	0.2589	0.342
Mof_C 	C 	0.7032	0.3501	0.4756	0.34
Mof_C 	C 	0.6046	0.2063	0.3817	-0.097
Mof_C 	C 	0.3492	0.2067	0.2461	-0.136
Mof_C 	C 	0.5106	0.3015	0.2156	-0.057
Mof_C 	C 	0.6363	0.242	0.2701	-0.091
Mof_C 	C 	0.8188	0.3442	0.2803	0.303
Mof_C 	C 	0.419	0.9587	0.9961	-0.007
Mof_C 	C 	0.4081	0.139	0.349	-0.126
Mof_C 	C 	0.3553	0.845	0.0641	0.11
Mof_C 	C 	0.46	0.8142	0.1503	-0.158
Mof_C 	C 	0.1238	0.6598	0.1113	0.087
Mof_C 	C 	0.1815	0.7615	0.0441	-0.136
Mof_C 	C 	0.3906	0.7109	0.213	0.099
Mof_N 	N 	0.7769	0.3664	0.8052	-0.254
Mof_N 	N 	0.2231	0.6336	0.1948	-0.25
Mof_O 	O 	0.8799	0.7254	0.8078	-0.342
Mof_O 	O 	0.5994	0.7293	0.4814	-0.425
Mof_O 	O 	0.6701	0.5746	0.6612	-0.522
Mof_O 	O 	0.2078	0.659	0.4347	-0.426
Mof_O 	O 	0.3069	0.5256	0.5432	-0.43
Mof_O 	O 	0.8088	0.9624	0.5703	-0.404
Mof_O 	O 	0.0678	0.6832	0.6579	-0.435
Mof_O 	O 	0.1399	0.5484	0.7723	-0.408
Mof_O 	O 	0.1201	0.2746	0.1922	-0.415
Mof_O 	O 	0.4006	0.2707	0.5186	-0.453
Mof_O 	O 	0.3299	0.4254	0.3388	-0.53
Mof_O 	O 	0.7922	0.341	0.5653	-0.412
Mof_O 	O 	0.6931	0.4744	0.4568	-0.403
Mof_O 	O 	0.1912	0.0376	0.4297	-0.507
Mof_O 	O 	0.9322	0.3168	0.3421	-0.366
Mof_O 	O 	0.8601	0.4516	0.2277	-0.326
_end
