data_functionalizedCrystal
_audit_creation_method	'EQeq! by Chris Wilmer'
_symmetry_space_group_name_H-M	'P1'
_symmetry_Int_Tables_number	1
_symmetry_cell_setting	triclinic
loop_
_symmetry_equiv_pos_as_xyz
  x,y,z
_cell_length_a	28.282
_cell_length_b	10.337
_cell_length_c	16.285
_cell_angle_alpha	90
_cell_angle_beta	90
_cell_angle_gamma	90
loop_
_atom_site_label
_atom_site_type_symbol
_atom_site_fract_x
_atom_site_fract_y
_atom_site_fract_z
_atom_site_charge
Mof_N 	N 	0.3562	0.1943	0.654	-0.248
Mof_N 	N 	0.3734	0.134	0.4111	-0.128
Mof_C 	C 	0.2876	0.2333	0.5528	-0.042
Mof_C 	C 	0.2452	0.2778	0.5838	0.007
Mof_C 	C 	0.293	0.2053	0.4686	-0.024
Mof_C 	C 	0.3263	0.2127	0.6085	0.107
Mof_C 	C 	0.3375	0.1631	0.4365	0.081
Mof_N 	N 	0.1438	0.3057	0.154	-0.249
Mof_N 	N 	0.1266	0.366	0.9111	-0.129
Mof_C 	C 	0.2124	0.2667	0.0528	-0.043
Mof_C 	C 	0.2548	0.2222	0.0838	0.006
Mof_C 	C 	0.207	0.2947	0.9686	-0.024
Mof_C 	C 	0.1737	0.2873	0.1085	0.107
Mof_C 	C 	0.1625	0.3369	0.9365	0.081
Mof_N 	N 	0.6438	0.1943	0.846	-0.249
Mof_N 	N 	0.6266	0.134	0.0889	-0.129
Mof_C 	C 	0.7124	0.2333	0.9472	-0.043
Mof_C 	C 	0.7548	0.2778	0.9162	0.006
Mof_C 	C 	0.707	0.2053	0.0314	-0.025
Mof_C 	C 	0.6737	0.2127	0.8915	0.107
Mof_C 	C 	0.6625	0.1631	0.0635	0.081
Mof_N 	N 	0.8562	0.3057	0.346	-0.249
Mof_N 	N 	0.8734	0.366	0.5889	-0.129
Mof_C 	C 	0.7876	0.2667	0.4472	-0.043
Mof_C 	C 	0.7452	0.2222	0.4162	0.006
Mof_C 	C 	0.793	0.2947	0.5314	-0.024
Mof_C 	C 	0.8263	0.2873	0.3915	0.107
Mof_C 	C 	0.8375	0.3369	0.5635	0.081
Mof_N 	N 	0.1438	0.3057	0.346	-0.249
Mof_N 	N 	0.1266	0.366	0.5889	-0.129
Mof_C 	C 	0.2124	0.2667	0.4472	-0.043
Mof_C 	C 	0.2548	0.2222	0.4162	0.006
Mof_C 	C 	0.207	0.2947	0.5314	-0.024
Mof_C 	C 	0.1737	0.2873	0.3915	0.107
Mof_C 	C 	0.1625	0.3369	0.5635	0.081
Mof_N 	N 	0.3562	0.1943	0.846	-0.249
Mof_N 	N 	0.3734	0.134	0.0889	-0.129
Mof_C 	C 	0.2876	0.2333	0.9472	-0.043
Mof_C 	C 	0.2452	0.2778	0.9162	0.006
Mof_C 	C 	0.293	0.2053	0.0314	-0.025
Mof_C 	C 	0.3263	0.2127	0.8915	0.107
Mof_C 	C 	0.3375	0.1631	0.0635	0.081
Mof_N 	N 	0.8562	0.3057	0.154	-0.249
Mof_N 	N 	0.8734	0.366	0.9111	-0.129
Mof_C 	C 	0.7876	0.2667	0.0528	-0.043
Mof_C 	C 	0.7452	0.2222	0.0838	0.006
Mof_C 	C 	0.793	0.2947	0.9686	-0.024
Mof_C 	C 	0.8263	0.2873	0.1085	0.107
Mof_C 	C 	0.8375	0.3369	0.9365	0.081
Mof_N 	N 	0.6438	0.1943	0.654	-0.249
Mof_N 	N 	0.6266	0.134	0.4111	-0.129
Mof_C 	C 	0.7124	0.2333	0.5528	-0.043
Mof_C 	C 	0.7548	0.2778	0.5838	0.006
Mof_C 	C 	0.707	0.2053	0.4686	-0.024
Mof_C 	C 	0.6737	0.2127	0.6085	0.107
Mof_C 	C 	0.6625	0.1631	0.4365	0.081
Mof_Cu	Cu	0.39914	0.18229	0.75	0.872
Mof_N 	N 	0.4357	0.3443	0.75	-0.258
Mof_N 	N 	0.4338	0.0199	0.75	-0.26
Mof_C 	C 	0.4748	0.7982	0.75	-0.042
Mof_C 	C 	0.4498	0.683	0.75	0.017
Mof_C 	C 	0.4752	0.5677	0.75	-0.043
Mof_C 	C 	0.4511	0.9209	0.75	0.115
Mof_C 	C 	0.4513	0.4458	0.75	0.101
Mof_Cu	Cu	0.10086	0.31771	0.25	0.872
Mof_N 	N 	0.0643	0.1557	0.25	-0.258
Mof_N 	N 	0.0662	0.4801	0.25	-0.26
Mof_C 	C 	0.0252	0.7018	0.25	-0.042
Mof_C 	C 	0.0502	0.817	0.25	0.017
Mof_C 	C 	0.0248	0.9323	0.25	-0.043
Mof_C 	C 	0.0489	0.5791	0.25	0.115
Mof_C 	C 	0.0487	0.0542	0.25	0.101
Mof_Cu	Cu	0.60086	0.18229	0.75	0.872
Mof_N 	N 	0.5643	0.3443	0.75	-0.258
Mof_N 	N 	0.5662	0.0199	0.75	-0.26
Mof_C 	C 	0.5252	0.7982	0.75	-0.042
Mof_C 	C 	0.5502	0.683	0.75	0.017
Mof_C 	C 	0.5248	0.5677	0.75	-0.043
Mof_C 	C 	0.5489	0.9209	0.75	0.115
Mof_C 	C 	0.5487	0.4458	0.75	0.101
Mof_Cu	Cu	0.89914	0.31771	0.25	0.872
Mof_N 	N 	0.9357	0.1557	0.25	-0.258
Mof_N 	N 	0.9338	0.4801	0.25	-0.26
Mof_C 	C 	0.9748	0.7018	0.25	-0.042
Mof_C 	C 	0.9498	0.817	0.25	0.017
Mof_C 	C 	0.9752	0.9323	0.25	-0.043
Mof_C 	C 	0.9511	0.5791	0.25	0.115
Mof_C 	C 	0.9513	0.0542	0.25	0.101
Mof_N 	N 	0.8562	0.6943	0.654	-0.249
Mof_N 	N 	0.8734	0.634	0.4111	-0.129
Mof_C 	C 	0.7876	0.7333	0.5528	-0.043
Mof_C 	C 	0.7452	0.7778	0.5838	0.006
Mof_C 	C 	0.793	0.7053	0.4686	-0.024
Mof_C 	C 	0.8263	0.7127	0.6085	0.107
Mof_C 	C 	0.8375	0.6631	0.4365	0.081
Mof_N 	N 	0.6438	0.8057	0.154	-0.249
Mof_N 	N 	0.6266	0.866	0.9111	-0.129
Mof_C 	C 	0.7124	0.7667	0.0528	-0.043
Mof_C 	C 	0.7548	0.7222	0.0838	0.006
Mof_C 	C 	0.707	0.7947	0.9686	-0.025
Mof_C 	C 	0.6737	0.7873	0.1085	0.107
Mof_C 	C 	0.6625	0.8369	0.9365	0.081
Mof_N 	N 	0.1438	0.6943	0.846	-0.249
Mof_N 	N 	0.1266	0.634	0.0889	-0.129
Mof_C 	C 	0.2124	0.7333	0.9472	-0.043
Mof_C 	C 	0.2548	0.7778	0.9162	0.006
Mof_C 	C 	0.207	0.7053	0.0314	-0.024
Mof_C 	C 	0.1737	0.7127	0.8915	0.107
Mof_C 	C 	0.1625	0.6631	0.0635	0.081
Mof_N 	N 	0.3562	0.8057	0.346	-0.249
Mof_N 	N 	0.3734	0.866	0.5889	-0.129
Mof_C 	C 	0.2876	0.7667	0.4472	-0.043
Mof_C 	C 	0.2452	0.7222	0.4162	0.006
Mof_C 	C 	0.293	0.7947	0.5314	-0.024
Mof_C 	C 	0.3263	0.7873	0.3915	0.107
Mof_C 	C 	0.3375	0.8369	0.5635	0.081
Mof_N 	N 	0.6438	0.8057	0.346	-0.249
Mof_N 	N 	0.6266	0.866	0.5889	-0.129
Mof_C 	C 	0.7124	0.7667	0.4472	-0.043
Mof_C 	C 	0.7548	0.7222	0.4162	0.006
Mof_C 	C 	0.707	0.7947	0.5314	-0.024
Mof_C 	C 	0.6737	0.7873	0.3915	0.107
Mof_C 	C 	0.6625	0.8369	0.5635	0.081
Mof_N 	N 	0.8562	0.6943	0.846	-0.249
Mof_N 	N 	0.8734	0.634	0.0889	-0.129
Mof_C 	C 	0.7876	0.7333	0.9472	-0.043
Mof_C 	C 	0.7452	0.7778	0.9162	0.006
Mof_C 	C 	0.793	0.7053	0.0314	-0.024
Mof_C 	C 	0.8263	0.7127	0.8915	0.107
Mof_C 	C 	0.8375	0.6631	0.0635	0.081
Mof_N 	N 	0.3562	0.8057	0.154	-0.249
Mof_N 	N 	0.3734	0.866	0.9111	-0.129
Mof_C 	C 	0.2876	0.7667	0.0528	-0.043
Mof_C 	C 	0.2452	0.7222	0.0838	0.006
Mof_C 	C 	0.293	0.7947	0.9686	-0.025
Mof_C 	C 	0.3263	0.7873	0.1085	0.107
Mof_C 	C 	0.3375	0.8369	0.9365	0.081
Mof_N 	N 	0.1438	0.6943	0.654	-0.249
Mof_N 	N 	0.1266	0.634	0.4111	-0.129
Mof_C 	C 	0.2124	0.7333	0.5528	-0.043
Mof_C 	C 	0.2548	0.7778	0.5838	0.006
Mof_C 	C 	0.207	0.7053	0.4686	-0.024
Mof_C 	C 	0.1737	0.7127	0.6085	0.107
Mof_C 	C 	0.1625	0.6631	0.4365	0.081
Mof_Cu	Cu	0.89914	0.68229	0.75	0.872
Mof_N 	N 	0.9357	0.8443	0.75	-0.258
Mof_N 	N 	0.9338	0.5199	0.75	-0.26
Mof_C 	C 	0.9748	0.2982	0.75	-0.042
Mof_C 	C 	0.9498	0.183	0.75	0.017
Mof_C 	C 	0.9752	0.0677	0.75	-0.043
Mof_C 	C 	0.9511	0.4209	0.75	0.115
Mof_C 	C 	0.9513	0.9458	0.75	0.101
Mof_Cu	Cu	0.60086	0.81771	0.25	0.872
Mof_N 	N 	0.5643	0.6557	0.25	-0.258
Mof_N 	N 	0.5662	0.9801	0.25	-0.26
Mof_C 	C 	0.5252	0.2018	0.25	-0.042
Mof_C 	C 	0.5502	0.317	0.25	0.017
Mof_C 	C 	0.5248	0.4323	0.25	-0.043
Mof_C 	C 	0.5489	0.0791	0.25	0.115
Mof_C 	C 	0.5487	0.5542	0.25	0.101
Mof_Cu	Cu	0.10086	0.68229	0.75	0.872
Mof_N 	N 	0.0643	0.8443	0.75	-0.258
Mof_N 	N 	0.0662	0.5199	0.75	-0.26
Mof_C 	C 	0.0252	0.2982	0.75	-0.042
Mof_C 	C 	0.0502	0.183	0.75	0.017
Mof_C 	C 	0.0248	0.0677	0.75	-0.043
Mof_C 	C 	0.0489	0.4209	0.75	0.115
Mof_C 	C 	0.0487	0.9458	0.75	0.101
Mof_Cu	Cu	0.39914	0.81771	0.25	0.872
Mof_N 	N 	0.4357	0.6557	0.25	-0.258
Mof_N 	N 	0.4338	0.9801	0.25	-0.26
Mof_C 	C 	0.4748	0.2018	0.25	-0.042
Mof_C 	C 	0.4498	0.317	0.25	0.017
Mof_C 	C 	0.4752	0.4323	0.25	-0.043
Mof_C 	C 	0.4511	0.0791	0.25	0.115
Mof_C 	C 	0.4513	0.5542	0.25	0.101
_end
