data_functionalizedCrystal
_audit_creation_method	'EQeq! by Chris Wilmer'
_symmetry_space_group_name_H-M	'P1'
_symmetry_Int_Tables_number	1
_symmetry_cell_setting	triclinic
loop_
_symmetry_equiv_pos_as_xyz
  x,y,z
_cell_length_a	13.0842
_cell_length_b	13.0842
_cell_length_c	19.878
_cell_angle_alpha	90
_cell_angle_beta	90
_cell_angle_gamma	120
loop_
_atom_site_label
_atom_site_type_symbol
_atom_site_fract_x
_atom_site_fract_y
_atom_site_fract_z
_atom_site_charge
Mof_N 	N 	0.2889	0.0291	0.5937	-0.227
Mof_C 	C 	0.1788	0.9573	0.5848	0.072
Mof_C 	C 	0.1192	0.9607	0.5273	0.001
Mof_C 	C 	0.1865	0.0502	0.4763	-0.012
Mof_C 	C 	0.3053	0.1255	0.4901	0.061
Mof_C 	C 	0.3536	0.1162	0.5506	0.025
Mof_N 	N 	0.3835	0.2196	0.4477	-0.134
Mof_C 	C 	0.3585	0.2732	0.3977	0.201
Mof_O 	O 	0.2571	0.2381	0.3773	-0.208
Mof_C 	C 	0.4674	0.377	0.3663	0.016
Mof_C 	C 	0.5022	0.477	0.4117	0.011
Mof_C 	C 	0.6142	0.5804	0.3992	0.002
Mof_C 	C 	0.722	0.583	0.3924	0.008
Mof_C 	C 	0.838	0.696	0.3867	0.002
Mof_C 	C 	0.843	0.799	0.3858	0.016
Mof_C 	C 	0.735	0.795	0.3975	0.014
Mof_C 	C 	0.626	0.69	0.4005	0.01
Mof_N 	N 	0.4353	0.4035	0.2996	-0.128
Mof_C 	C 	0.4962	0.407	0.2439	0.234
Mof_O 	O 	0.5766	0.3881	0.2434	-0.227
Mof_C 	C 	0.4475	0.429	0.1794	-0.084
Mof_C 	C 	0.3311	0.3943	0.1712	0.039
Mof_C 	C 	0.2975	0.426	0.1097	-0.023
Mof_C 	C 	0.385	0.4885	0.0629	0.033
Mof_N 	N 	0.5001	0.5203	0.071	-0.231
Mof_C 	C 	0.5293	0.4907	0.1277	0.072
Mof_N 	N 	0.9709	0.2598	0.26037	-0.203
Mof_C 	C 	0.0427	0.2215	0.25147	0.041
Mof_C 	C 	0.0393	0.1585	0.19397	-0.036
Mof_C 	C 	0.9498	0.1363	0.14297	0.027
Mof_C 	C 	0.8745	0.1798	0.15677	0.053
Mof_C 	C 	0.8838	0.2374	0.21727	0.032
Mof_N 	N 	0.7804	0.1639	0.11437	-0.134
Mof_C 	C 	0.7268	0.0853	0.06437	0.2
Mof_O 	O 	0.7619	0.019	0.04397	-0.224
Mof_C 	C 	0.623	0.0904	0.03297	-0.008
Mof_C 	C 	0.523	0.0252	0.07837	0.007
Mof_C 	C 	0.4196	0.0338	0.06587	-0.02
Mof_C 	C 	0.417	0.139	0.05907	0.001
Mof_C 	C 	0.304	0.142	0.05337	-0.006
Mof_C 	C 	0.201	0.044	0.05247	-0.027
Mof_C 	C 	0.205	0.94	0.06417	0.019
Mof_C 	C 	0.31	0.936	0.06717	0.021
Mof_N 	N 	0.5965	0.0318	0.96627	-0.114
Mof_C 	C 	0.593	0.0892	0.91057	0.239
Mof_O 	O 	0.6119	0.1885	0.91007	-0.218
Mof_C 	C 	0.571	0.0185	0.84607	-0.105
Mof_C 	C 	0.6057	0.9368	0.83787	0.07
Mof_C 	C 	0.574	0.8715	0.77637	-0.021
Mof_C 	C 	0.5115	0.8965	0.72957	0.052
Mof_N 	N 	0.4797	0.9798	0.73767	-0.215
Mof_C 	C 	0.5093	0.0386	0.79437	0.063
Mof_N 	N 	0.7402	0.7111	0.92703	-0.211
Mof_C 	C 	0.7785	0.8212	0.91813	0.077
Mof_C 	C 	0.8415	0.8808	0.86063	-0.002
Mof_C 	C 	0.8637	0.8135	0.80963	0.021
Mof_C 	C 	0.8202	0.6947	0.82343	0.056
Mof_C 	C 	0.7626	0.6464	0.88393	0.04
Mof_N 	N 	0.8361	0.6165	0.78103	-0.129
Mof_C 	C 	0.9147	0.6415	0.73103	0.201
Mof_O 	O 	0.981	0.7429	0.71063	-0.194
Mof_C 	C 	0.9096	0.5326	0.69963	0.018
Mof_C 	C 	0.9748	0.4978	0.74503	0.016
Mof_C 	C 	0.9662	0.3858	0.73253	0.022
Mof_C 	C 	0.861	0.278	0.72573	0.007
Mof_C 	C 	0.858	0.162	0.72003	-0.01
Mof_C 	C 	0.956	0.157	0.71913	0.027
Mof_C 	C 	0.06	0.265	0.73083	-0.007
Mof_C 	C 	0.064	0.374	0.73383	-0.008
Mof_N 	N 	0.9682	0.5647	0.63293	-0.122
Mof_C 	C 	0.9108	0.5038	0.57723	0.232
Mof_O 	O 	0.8115	0.4234	0.57673	-0.225
Mof_C 	C 	0.9815	0.5525	0.51273	-0.062
Mof_C 	C 	0.0632	0.6689	0.50453	0.014
Mof_C 	C 	0.1285	0.7025	0.44303	-0.012
Mof_C 	C 	0.1035	0.615	0.39623	0.038
Mof_N 	N 	0.0202	0.4999	0.40433	-0.24
Mof_C 	C 	0.9614	0.4707	0.46103	0.089
Mof_N 	N 	0.0291	0.2889	0.4063	-0.229
Mof_C 	C 	0.9573	0.1788	0.4152	0.072
Mof_C 	C 	0.9607	0.1192	0.4727	0.001
Mof_C 	C 	0.0502	0.1865	0.5237	-0.013
Mof_C 	C 	0.1255	0.3053	0.5099	0.061
Mof_C 	C 	0.1162	0.3536	0.4494	0.025
Mof_N 	N 	0.2196	0.3835	0.5523	-0.134
Mof_C 	C 	0.2732	0.3585	0.6023	0.201
Mof_O 	O 	0.2381	0.2571	0.6227	-0.208
Mof_C 	C 	0.377	0.4674	0.6337	0.016
Mof_C 	C 	0.477	0.5022	0.5883	0.011
Mof_C 	C 	0.5804	0.6142	0.6008	0.002
Mof_C 	C 	0.583	0.722	0.6076	0.008
Mof_C 	C 	0.696	0.838	0.6133	0.002
Mof_C 	C 	0.799	0.843	0.6142	0.016
Mof_C 	C 	0.795	0.735	0.6025	0.014
Mof_C 	C 	0.69	0.626	0.5995	0.011
Mof_N 	N 	0.4035	0.4353	0.7004	-0.128
Mof_C 	C 	0.407	0.4962	0.7561	0.235
Mof_O 	O 	0.3881	0.5766	0.7566	-0.225
Mof_C 	C 	0.429	0.4475	0.8206	-0.085
Mof_C 	C 	0.3943	0.3311	0.8288	0.041
Mof_C 	C 	0.426	0.2975	0.8903	-0.016
Mof_C 	C 	0.4885	0.385	0.9371	0.059
Mof_N 	N 	0.5203	0.5001	0.929	-0.222
Mof_C 	C 	0.4907	0.5293	0.8723	0.079
Mof_N 	N 	0.2598	0.9709	0.73963	-0.203
Mof_C 	C 	0.2215	0.0427	0.74853	0.042
Mof_C 	C 	0.1585	0.0393	0.80603	-0.034
Mof_C 	C 	0.1363	0.9498	0.85703	0.036
Mof_C 	C 	0.1798	0.8745	0.84323	0.055
Mof_C 	C 	0.2374	0.8838	0.78273	0.034
Mof_N 	N 	0.1639	0.7804	0.88563	-0.128
Mof_C 	C 	0.0853	0.7268	0.93563	0.196
Mof_O 	O 	0.019	0.7619	0.95603	-0.197
Mof_C 	C 	0.0904	0.623	0.96703	0.044
Mof_C 	C 	0.0252	0.523	0.92163	0.005
Mof_C 	C 	0.0338	0.4196	0.93413	-0.015
Mof_C 	C 	0.139	0.417	0.94093	0.015
Mof_C 	C 	0.142	0.304	0.94663	0.008
Mof_C 	C 	0.044	0.201	0.94753	-0.011
Mof_C 	C 	0.94	0.205	0.93583	0.031
Mof_C 	C 	0.936	0.31	0.93283	0.035
Mof_N 	N 	0.0318	0.5965	0.03373	-0.153
Mof_C 	C 	0.0892	0.593	0.08943	0.235
Mof_O 	O 	0.1885	0.6119	0.08993	-0.235
Mof_C 	C 	0.0185	0.571	0.15393	-0.107
Mof_C 	C 	0.9368	0.6057	0.16213	0.064
Mof_C 	C 	0.8715	0.574	0.22363	-0.021
Mof_C 	C 	0.8965	0.5115	0.27043	0.052
Mof_N 	N 	0.9798	0.4797	0.26233	-0.214
Mof_C 	C 	0.0386	0.5093	0.20563	0.06
Mof_N 	N 	0.7111	0.7402	0.07297	-0.219
Mof_C 	C 	0.8212	0.7785	0.08187	0.054
Mof_C 	C 	0.8808	0.8415	0.13937	-0.002
Mof_C 	C 	0.8135	0.8637	0.19037	0.019
Mof_C 	C 	0.6947	0.8202	0.17657	0.059
Mof_C 	C 	0.6464	0.7626	0.11607	0.031
Mof_N 	N 	0.6165	0.8361	0.21897	-0.131
Mof_C 	C 	0.6415	0.9147	0.26897	0.201
Mof_O 	O 	0.7429	0.981	0.28937	-0.195
Mof_C 	C 	0.5326	0.9096	0.30037	0.018
Mof_C 	C 	0.4978	0.9748	0.25497	0.015
Mof_C 	C 	0.3858	0.9662	0.26747	0.021
Mof_C 	C 	0.278	0.861	0.27427	0.006
Mof_C 	C 	0.162	0.858	0.27997	-0.01
Mof_C 	C 	0.157	0.956	0.28087	0.026
Mof_C 	C 	0.265	0.06	0.26917	-0.006
Mof_C 	C 	0.374	0.064	0.26617	-0.007
Mof_N 	N 	0.5647	0.9682	0.36707	-0.123
Mof_C 	C 	0.5038	0.9108	0.42277	0.232
Mof_O 	O 	0.4234	0.8115	0.42327	-0.225
Mof_C 	C 	0.5525	0.9815	0.48727	-0.063
Mof_C 	C 	0.6689	0.0632	0.49547	0.016
Mof_C 	C 	0.7025	0.1285	0.55697	-0.013
Mof_C 	C 	0.615	0.1035	0.60377	0.038
Mof_N 	N 	0.4999	0.0202	0.59567	-0.239
Mof_C 	C 	0.4707	0.9614	0.53897	0.088
Mof_Cu	Cu	0.6184	0.6184	-0	0.847
Mof_Cu	Cu	0.3816	1.7131e-32	0.66667	0.851
Mof_Cu	Cu	1.51342e-17	0.3816	0.33333	0.85
_end
