data_functionalizedCrystal
_audit_creation_method	'EQeq! by Chris Wilmer'
_symmetry_space_group_name_H-M	'P1'
_symmetry_Int_Tables_number	1
_symmetry_cell_setting	triclinic
loop_
_symmetry_equiv_pos_as_xyz
  x,y,z
_cell_length_a	7.9435
_cell_length_b	13.8339
_cell_length_c	7.3016
_cell_angle_alpha	90
_cell_angle_beta	90
_cell_angle_gamma	90
loop_
_atom_site_label
_atom_site_type_symbol
_atom_site_fract_x
_atom_site_fract_y
_atom_site_fract_z
_atom_site_charge
Mof_Co	Co	0.21919	0.33541	0.75969	1.208
Mof_O 	O 	0.10451	0.22848	0.60839	-0.383
Mof_O 	O 	0.92571	0.16384	0.41139	-0.383
Mof_O 	O 	0.30674	0.21147	0.90291	-0.351
Mof_O 	O 	0.50341	0.1445	0.07831	-0.358
Mof_O 	O 	0.11168	0.45314	0.6196	-0.357
Mof_O 	O 	0.13201	0.57273	0.41822	-0.367
Mof_C 	C 	0.9844	0.23405	0.4987	0.434
Mof_H 	H 	0.9342	0.2956	0.4802	-0.088
Mof_C 	C 	0.4428	0.21412	0.991	0.396
Mof_H 	H 	0.5038	0.2732	0.9912	-0.08
Mof_C 	C 	0.1941	0.50501	0.5094	0.405
Mof_H 	H 	0.3107	0.4918	0.4947	-0.077
Mof_Co	Co	0.28081	0.66459	0.25969	1.209
Mof_O 	O 	0.39549	0.77152	0.10839	-0.386
Mof_O 	O 	0.57429	0.83616	0.91139	-0.384
Mof_O 	O 	0.19326	0.78853	0.40291	-0.351
Mof_O 	O 	0.99659	0.8555	0.57831	-0.358
Mof_O 	O 	0.38832	0.54686	0.1196	-0.356
Mof_O 	O 	0.36799	0.42727	0.91822	-0.366
Mof_C 	C 	0.5156	0.76595	0.9987	0.442
Mof_H 	H 	0.5658	0.7044	0.9802	-0.09
Mof_C 	C 	0.0572	0.78588	0.491	0.393
Mof_H 	H 	0.9962	0.7268	0.4912	-0.078
Mof_C 	C 	0.3059	0.49499	0.0094	0.402
Mof_H 	H 	0.1893	0.5082	0.9947	-0.076
Mof_Co	Co	0.78081	0.83541	0.74031	1.209
Mof_O 	O 	0.89549	0.72848	0.89161	-0.383
Mof_O 	O 	0.07429	0.66384	0.08861	-0.383
Mof_O 	O 	0.69326	0.71147	0.59709	-0.352
Mof_O 	O 	0.49659	0.6445	0.42169	-0.36
Mof_O 	O 	0.88832	0.95314	0.8804	-0.353
Mof_O 	O 	0.86799	0.07273	0.08178	-0.363
Mof_C 	C 	0.0156	0.73405	0.0013	0.435
Mof_H 	H 	0.0658	0.7956	0.0198	-0.089
Mof_C 	C 	0.5572	0.71412	0.509	0.398
Mof_H 	H 	0.4962	0.7732	0.5088	-0.08
Mof_C 	C 	0.8059	0.00501	0.9906	0.395
Mof_H 	H 	0.6893	0.9918	0.0053	-0.075
Mof_Co	Co	0.71919	0.16459	0.24031	1.209
Mof_O 	O 	0.60451	0.27152	0.39161	-0.385
Mof_O 	O 	0.42571	0.33616	0.58861	-0.383
Mof_O 	O 	0.80674	0.28853	0.09709	-0.351
Mof_O 	O 	0.00341	0.3555	0.92169	-0.359
Mof_O 	O 	0.61168	0.04686	0.3804	-0.356
Mof_O 	O 	0.63201	0.92727	0.58178	-0.367
Mof_C 	C 	0.4844	0.26595	0.5013	0.439
Mof_H 	H 	0.4342	0.2044	0.5198	-0.089
Mof_C 	C 	0.9428	0.28588	0.009	0.396
Mof_H 	H 	0.0038	0.2268	0.0088	-0.079
Mof_C 	C 	0.6941	0.99499	0.4906	0.403
Mof_H 	H 	0.8107	0.0082	0.5053	-0.077
_end
