data_functionalizedCrystal
_audit_creation_method	'EQeq! by Chris Wilmer'
_symmetry_space_group_name_H-M	'P1'
_symmetry_Int_Tables_number	1
_symmetry_cell_setting	triclinic
loop_
_symmetry_equiv_pos_as_xyz
  x,y,z
_cell_length_a	35.143
_cell_length_b	15.039
_cell_length_c	30.68
_cell_angle_alpha	90
_cell_angle_beta	101.549
_cell_angle_gamma	90
loop_
_atom_site_label
_atom_site_type_symbol
_atom_site_fract_x
_atom_site_fract_y
_atom_site_fract_z
_atom_site_charge
Mof_Zn	Zn	0.8687	0.16047	0.06403	1.165
Mof_I 	I 	0.88296	0.16684	0.98658	-0.384
Mof_I 	I 	0.8513	0.01742	0.10034	-0.401
Mof_Zn	Zn	0.5586	0.3877	0.2239	0.762
Mof_I 	I 	0.4964	0.4602	0.1824	0.881
Mof_Zn	Zn	0.66335	0.86518	0.90814	1.007
Mof_I 	I 	0.63253	0.99123	0.94378	-14.932
Mof_Zn	Zn	0.38309	0.8403	0.5449	1.253
Mof_I 	I 	0.367	0.98465	0.58114	-0.891
Mof_Zn	Zn	0.16037	0.12657	0.41782	1.161
Mof_I 	I 	0.12957	0.0111	0.46016	-0.38
Mof_I 	I 	0.21269	0.10088	0.37222	-0.355
Mof_Zn	Zn	0.08618	0.87078	0.23244	1.163
Mof_I 	I 	0.13165	0.89321	0.30757	-0.402
Mof_I 	I 	0.02622	0.96916	0.20957	-0.385
Mof_N 	N 	0.6014	0.413	0.1877	-0.592
Mof_C 	C 	0.6018	0.488	0.1665	0.18
Mof_H 	H 	0.5844	0.5335	0.1717	-0.027
Mof_C 	C 	0.6252	0.506	0.1376	-0.209
Mof_H 	H 	0.6218	0.5596	0.1212	0.119
Mof_C 	C 	0.6538	0.4476	0.1313	0.082
Mof_C 	C 	0.6552	0.3711	0.1555	-0.141
Mof_H 	H 	0.6748	0.3284	0.1538	0.088
Mof_C 	C 	0.6289	0.3539	0.1823	0.054
Mof_H 	H 	0.6302	0.2985	0.1974	-0.079
Mof_C 	C 	0.6781	0.4661	0.1009	0.099
Mof_N 	N 	0.6718	0.536	0.0743	-0.135
Mof_C 	C 	0.6929	0.5403	0.0454	0.123
Mof_N 	N 	0.7219	0.4839	0.0387	-0.134
Mof_C 	C 	0.7275	0.4168	0.0698	0.115
Mof_N 	N 	0.7067	0.4033	0.099	-0.129
Mof_C 	C 	0.7611	0.3565	0.0651	0.068
Mof_C 	C 	0.7783	0.358	0.0321	-0.13
Mof_H 	H 	0.7693	0.397	0.0079	0.08
Mof_C 	C 	0.8109	0.3018	0.0313	0.066
Mof_H 	H 	0.8236	0.3042	0.0067	0.001
Mof_N 	N 	0.8237	0.2463	0.0647	-0.274
Mof_C 	C 	0.8048	0.246	0.0994	0.063
Mof_H 	H 	0.8137	0.2082	0.1241	-0.013
Mof_C 	C 	0.7733	0.2992	0.0993	-0.126
Mof_H 	H 	0.7598	0.2961	0.1232	0.081
Mof_C 	C 	0.689	0.6205	0.0131	0.076
Mof_C 	C 	0.655	0.6714	0.0088	-0.17
Mof_H 	H 	0.6359	0.6585	0.0259	0.082
Mof_C 	C 	0.6504	0.7393	0.9796	0.085
Mof_H 	H 	0.6273	0.7735	0.9769	-0.147
Mof_N 	N 	0.675	0.7622	0.9546	-0.331
Mof_C 	C 	0.7076	0.7161	0.9587	0.079
Mof_H 	H 	0.7259	0.7306	0.9408	-0.008
Mof_C 	C 	0.7154	0.6451	0.9898	-0.128
Mof_H 	H 	0.7397	0.615	0.994	0.069
Mof_N 	N 	0.6245	0.7974	0.86	-0.153
Mof_C 	C 	0.6016	0.843	0.8297	0.014
Mof_H 	H 	0.5995	0.9052	0.8333	0.24
Mof_C 	C 	0.5791	0.7999	0.7903	-0.055
Mof_H 	H 	0.5623	0.8337	0.7683	0.076
Mof_C 	C 	0.5826	0.7104	0.7856	0.029
Mof_C 	C 	0.6038	0.6691	0.8215	-0.081
Mof_H 	H 	0.6045	0.606	0.8214	0.074
Mof_C 	C 	0.6246	0.7131	0.8587	0.065
Mof_H 	H 	0.6387	0.6801	0.883	0.019
Mof_C 	C 	0.5618	0.66	0.7465	0.111
Mof_N 	N 	0.5362	0.7069	0.7164	-0.133
Mof_C 	C 	0.5165	0.6537	0.6825	0.086
Mof_N 	N 	0.5214	0.5681	0.6784	-0.13
Mof_C 	C 	0.5473	0.5324	0.7114	0.115
Mof_N 	N 	0.5691	0.576	0.7446	-0.142
Mof_C 	C 	0.4889	0.6989	0.6499	0.093
Mof_C 	C 	0.4772	0.786	0.6538	-0.13
Mof_H 	H 	0.4903	0.8182	0.6789	0.099
Mof_C 	C 	0.4483	0.8295	0.6247	0.044
Mof_H 	H 	0.4421	0.8899	0.6292	-0.03
Mof_N 	N 	0.4283	0.7802	0.5881	-0.348
Mof_C 	C 	0.4388	0.7005	0.5832	0.294
Mof_H 	H 	0.4241	0.6682	0.5589	-0.262
Mof_C 	C 	0.469	0.657	0.6094	-0.186
Mof_H 	H 	0.4768	0.5997	0.6011	0.078
Mof_C 	C 	0.5521	0.435	0.7111	0.046
Mof_C 	C 	0.5285	0.376	0.6829	-0.12
Mof_H 	H 	0.5096	0.3999	0.6593	0.086
Mof_C 	C 	0.5307	0.285	0.6867	0.071
Mof_H 	H 	0.5138	0.2489	0.6662	-0.054
Mof_N 	N 	0.557	0.2483	0.7198	-0.351
Mof_C 	C 	0.579	0.3	0.7504	0.035
Mof_H 	H 	0.5964	0.273	0.7743	-0.03
Mof_C 	C 	0.5772	0.393	0.7483	-0.091
Mof_H 	H 	0.5924	0.4285	0.771	0.076
Mof_N 	N 	0.3362	0.7552	0.5453	-0.317
Mof_C 	C 	0.3269	0.75	0.5852	0.081
Mof_H 	H 	0.3423	0.7793	0.61	-0.096
Mof_C 	C 	0.2922	0.697	0.5906	0.042
Mof_H 	H 	0.2836	0.6944	0.618	0.104
Mof_C 	C 	0.2732	0.6522	0.5525	0.145
Mof_C 	C 	0.2853	0.6576	0.5138	-0.1
Mof_H 	H 	0.2733	0.623	0.4889	-0.001
Mof_C 	C 	0.316	0.7156	0.5109	0.053
Mof_H 	H 	0.3223	0.7261	0.4826	-0.05
Mof_C 	C 	0.2394	0.5921	0.5569	0.158
Mof_N 	N 	0.2206	0.6088	0.5899	-0.136
Mof_C 	C 	0.1926	0.5564	0.5932	0.122
Mof_N 	N 	0.1829	0.4836	0.568	-0.144
Mof_C 	C 	0.2044	0.4692	0.5371	0.1
Mof_N 	N 	0.2318	0.5237	0.5277	-0.123
Mof_C 	C 	0.1682	0.5754	0.6243	0.046
Mof_C 	C 	0.1782	0.6335	0.6615	-0.105
Mof_H 	H 	0.2025	0.6632	0.6658	0.086
Mof_C 	C 	0.1558	0.6485	0.69	0.056
Mof_H 	H 	0.1649	0.6867	0.7145	-0.007
Mof_N 	N 	0.1187	0.6103	0.6858	-0.276
Mof_C 	C 	0.1092	0.5549	0.6501	0.067
Mof_H 	H 	0.0846	0.5265	0.6455	-0.007
Mof_C 	C 	0.1318	0.5378	0.6211	-0.109
Mof_H 	H 	0.1227	0.4981	0.5972	0.081
Mof_C 	C 	0.1963	0.387	0.509	0.047
Mof_C 	C 	0.1687	0.325	0.5177	-0.132
Mof_H 	H 	0.1558	0.3351	0.5416	0.08
Mof_C 	C 	0.1606	0.2522	0.4925	0.084
Mof_H 	H 	0.1409	0.2129	0.498	-0.022
Mof_N 	N 	0.1789	0.2336	0.4609	-0.272
Mof_C 	C 	0.2066	0.2869	0.4527	0.047
Mof_H 	H 	0.2202	0.2713	0.4299	-0.021
Mof_C 	C 	0.2167	0.3682	0.4774	-0.101
Mof_H 	H 	0.2366	0.4064	0.4717	0.036
Mof_N 	N 	0.1164	0.1872	0.3716	-0.27
Mof_C 	C 	0.0951	0.1453	0.3381	0.088
Mof_H 	H 	0.0944	0.0821	0.3391	-0.017
Mof_C 	C 	0.0738	0.1868	0.3019	-0.134
Mof_H 	H 	0.0592	0.1527	0.2782	0.086
Mof_C 	C 	0.0734	0.2787	0.2995	0.058
Mof_C 	C 	0.0932	0.3222	0.3367	-0.114
Mof_H 	H 	0.091	0.385	0.3384	0.09
Mof_C 	C 	0.116	0.2777	0.3712	0.054
Mof_H 	H 	0.1316	0.3099	0.3949	0.001
Mof_C 	C 	0.0523	0.328	0.2591	0.107
Mof_N 	N 	0.0271	0.2889	0.2306	-0.145
Mof_C 	C 	0.0099	0.3379	0.196	0.091
Mof_N 	N 	0.0172	0.4245	0.1906	-0.139
Mof_C 	C 	0.0454	0.4573	0.2217	0.105
Mof_N 	N 	0.065	0.4145	0.2569	-0.134
Mof_C 	C 	0.0548	0.5582	0.2223	0.071
Mof_C 	C 	0.032	0.6151	0.1948	-0.133
Mof_H 	H 	0.0109	0.593	0.1733	0.084
Mof_C 	C 	0.0394	0.7072	0.1979	0.087
Mof_H 	H 	0.0225	0.7476	0.1797	-0.016
Mof_N 	N 	0.0695	0.7366	0.2258	-0.273
Mof_C 	C 	0.0921	0.679	0.253	0.066
Mof_H 	H 	0.1125	0.7026	0.2749	-0.019
Mof_C 	C 	0.0876	0.5876	0.2512	-0.128
Mof_H 	H 	0.1057	0.5482	0.2684	0.086
Mof_C 	C 	0.9758	0.2949	0.1644	0.059
Mof_C 	C 	0.9707	0.209	0.1663	-0.128
Mof_H 	H 	0.9887	0.1738	0.1863	0.095
Mof_C 	C 	0.9383	0.1684	0.1388	0.059
Mof_H 	H 	0.9325	0.1076	0.1427	-0.002
Mof_N 	N 	0.9156	0.2179	0.1068	-0.271
Mof_C 	C 	0.9215	0.3022	0.1043	0.079
Mof_H 	H 	0.9042	0.3363	0.0828	-0.006
Mof_C 	C 	0.9532	0.3457	0.1328	-0.128
Mof_H 	H 	0.9582	0.4073	0.1298	0.084
Mof_I 	I 	0.39787	0.832	0.4667	1.595
Mof_I 	I 	0.72176	0.88893	0.87236	0.081
Mof_I 	I 	0.5877	0.415	0.3048	0.503
Mof_C 	C 	0.6865	0.5217	0.758	0.047
Mof_H 	H 	0.6784	0.4932	0.7301	0.027
Mof_C 	C 	0.6917	0.6133	0.76	0.133
Mof_H 	H 	0.687	0.6475	0.7334	-0.013
Mof_C 	C 	0.7036	0.655	0.8009	-0.024
Mof_H 	H 	0.7072	0.7177	0.8023	0.221
Mof_C 	C 	0.7105	0.605	0.8398	0.139
Mof_H 	H 	0.7186	0.6336	0.8678	0.015
Mof_C 	C 	0.7053	0.513	0.8378	-0.144
Mof_H 	H 	0.71	0.4793	0.8644	0.074
Mof_C 	C 	0.6934	0.4717	0.7969	0.158
Mof_N 	N 	0.6884	0.3767	0.7942	-0.023
Mof_O 	O 	0.6975	0.336	0.8287	-0.14
Mof_O 	O 	0.681	0.344	0.7572	-0.142
Mof_Zn	Zn	0.5703	0.385	0.2357	0.307
Mof_I 	I 	0.5099	0.4793	0.2077	-0.767
Mof_Zn	Zn	0.59	0.3825	0.2209	0.958
Mof_I 	I 	0.5301	0.4808	0.1959	-0.675
Mof_Zn	Zn	0.6533	0.881	0.9287	1.477
Mof_I 	I 	0.6261	0.002	0.9709	14.138
Mof_Zn	Zn	0.3648	0.8463	0.5737	1.02
Mof_I 	I 	0.3488	0.9907	0.6089	0.345
Mof_I 	I 	0.3801	0.8413	0.4961	-2.473
Mof_I 	I 	0.3915	0.701	0.4248	-0.745
Mof_I 	I 	0.3825	0.567	0.3625	0.17
Mof_I 	I 	0.6311	0.4055	0.2981	0.266
Mof_I 	I 	0.6939	0.722	0.8279	-0.416
Mof_I 	I 	0.6729	0.565	0.783	-0.333
Mof_I 	I 	0.6067	0.4012	0.3153	-0.726
Mof_I 	I 	0.7031	0.914	0.8817	-0.133
Mof_C 	C 	0.427	0.386	0.419	0.38
Mof_H 	H 	0.4403	0.3433	0.4394	-0.175
Mof_C 	C 	0.431	0.476	0.428	-0.156
Mof_H 	H 	0.4477	0.4952	0.4554	-0.21
Mof_C 	C 	0.412	0.538	0.399	0.336
Mof_H 	H 	0.4151	0.6	0.405	0.042
Mof_C 	C 	0.388	0.51	0.359	-0.065
Mof_H 	H 	0.3751	0.553	0.3387	0.014
Mof_C 	C 	0.384	0.42	0.35	0.088
Mof_H 	H 	0.3677	0.4011	0.3227	0.089
Mof_C 	C 	0.403	0.358	0.3795	-0.594
Mof_N 	N 	0.4019	0.265	0.3682	0.004
Mof_O 	O 	0.378	0.245	0.3348	-0.097
Mof_O 	O 	0.414	0.213	0.398	-0.1
Mof_C 	C 	0.397	0.462	0.41	-0.291
Mof_H 	H 	0.4091	0.4331	0.4368	-0.241
Mof_C 	C 	0.393	0.554	0.409	-0.382
Mof_H 	H 	0.4021	0.5878	0.4351	-0.14
Mof_C 	C 	0.376	0.596	0.37	-0.282
Mof_H 	H 	0.3729	0.6589	0.369	0.165
Mof_C 	C 	0.363	0.546	0.331	0.085
Mof_H 	H 	0.3507	0.5752	0.3046	0.008
Mof_C 	C 	0.367	0.454	0.332	-0.423
Mof_H 	H 	0.3577	0.4204	0.3064	0.127
Mof_C 	C 	0.384	0.412	0.372	0.329
Mof_N 	N 	0.393	0.319	0.371	0.279
Mof_O 	O 	0.396	0.288	0.335	-0.089
Mof_O 	O 	0.407	0.284	0.407	-0.143
Mof_Zn	Zn	0.8687	0.33953	0.56403	1.164
Mof_I 	I 	0.88296	0.33316	0.48658	-0.373
Mof_I 	I 	0.8513	0.48258	0.60034	-0.406
Mof_Zn	Zn	0.5586	0.1123	0.7239	0.763
Mof_I 	I 	0.4964	0.0398	0.6824	0.89
Mof_Zn	Zn	0.66335	0.63482	0.40814	1.067
Mof_I 	I 	0.63253	0.50877	0.44378	-17.589
Mof_Zn	Zn	0.38309	0.6597	0.0449	1.252
Mof_I 	I 	0.367	0.51535	0.08114	-0.889
Mof_Zn	Zn	0.16037	0.37343	0.91782	1.161
Mof_I 	I 	0.12957	0.4889	0.96016	-0.384
Mof_I 	I 	0.21269	0.39912	0.87222	-0.364
Mof_Zn	Zn	0.08618	0.62922	0.73244	1.163
Mof_I 	I 	0.13165	0.60679	0.80757	-0.396
Mof_I 	I 	0.02622	0.53084	0.70957	-0.378
Mof_N 	N 	0.6014	0.087	0.6877	-0.579
Mof_C 	C 	0.6018	0.012	0.6665	0.124
Mof_H 	H 	0.5844	0.9665	0.6717	-0.002
Mof_C 	C 	0.6252	0.994	0.6376	-0.148
Mof_H 	H 	0.6218	0.9404	0.6212	0.1
Mof_C 	C 	0.6538	0.0524	0.6313	0.047
Mof_C 	C 	0.6552	0.1289	0.6555	-0.119
Mof_H 	H 	0.6748	0.1716	0.6538	0.08
Mof_C 	C 	0.6289	0.1461	0.6823	0.039
Mof_H 	H 	0.6302	0.2015	0.6974	-0.074
Mof_C 	C 	0.6781	0.0339	0.6009	0.102
Mof_N 	N 	0.6718	0.964	0.5743	-0.134
Mof_C 	C 	0.6929	0.9597	0.5454	0.129
Mof_N 	N 	0.7219	0.0161	0.5387	-0.139
Mof_C 	C 	0.7275	0.0832	0.5698	0.112
Mof_N 	N 	0.7067	0.0967	0.599	-0.13
Mof_C 	C 	0.7611	0.1435	0.5651	0.066
Mof_C 	C 	0.7783	0.142	0.5321	-0.131
Mof_H 	H 	0.7693	0.103	0.5079	0.078
Mof_C 	C 	0.8109	0.1982	0.5313	0.064
Mof_H 	H 	0.8236	0.1958	0.5067	-0.002
Mof_N 	N 	0.8237	0.2537	0.5647	-0.275
Mof_C 	C 	0.8048	0.254	0.5994	0.061
Mof_H 	H 	0.8137	0.2918	0.6241	-0.014
Mof_C 	C 	0.7733	0.2008	0.5993	-0.128
Mof_H 	H 	0.7598	0.2039	0.6232	0.08
Mof_C 	C 	0.689	0.8795	0.5131	0.078
Mof_C 	C 	0.655	0.8286	0.5088	-0.166
Mof_H 	H 	0.6359	0.8415	0.5259	0.077
Mof_C 	C 	0.6504	0.7607	0.4796	0.073
Mof_H 	H 	0.6273	0.7265	0.4769	-0.16
Mof_N 	N 	0.675	0.7378	0.4546	-0.325
Mof_C 	C 	0.7076	0.7839	0.4587	0.083
Mof_H 	H 	0.7259	0.7694	0.4408	-0.016
Mof_C 	C 	0.7154	0.8549	0.4898	-0.136
Mof_H 	H 	0.7397	0.885	0.494	0.071
Mof_N 	N 	0.6245	0.7026	0.36	-0.12
Mof_C 	C 	0.6016	0.657	0.3297	0.003
Mof_H 	H 	0.5995	0.5948	0.3333	0.291
Mof_C 	C 	0.5791	0.7001	0.2903	-0.04
Mof_H 	H 	0.5623	0.6663	0.2683	0.071
Mof_C 	C 	0.5826	0.7896	0.2856	0.02
Mof_C 	C 	0.6038	0.8309	0.3215	-0.069
Mof_H 	H 	0.6045	0.894	0.3214	0.07
Mof_C 	C 	0.6246	0.7869	0.3587	0.055
Mof_H 	H 	0.6387	0.8199	0.383	0.026
Mof_C 	C 	0.5618	0.84	0.2465	0.114
Mof_N 	N 	0.5362	0.7931	0.2164	-0.134
Mof_C 	C 	0.5165	0.8463	0.1825	0.088
Mof_N 	N 	0.5214	0.9319	0.1784	-0.132
Mof_C 	C 	0.5473	0.9676	0.2114	0.107
Mof_N 	N 	0.5691	0.924	0.2446	-0.142
Mof_C 	C 	0.4889	0.8011	0.1499	0.084
Mof_C 	C 	0.4772	0.714	0.1538	-0.124
Mof_H 	H 	0.4903	0.6818	0.1789	0.097
Mof_C 	C 	0.4483	0.6705	0.1247	0.038
Mof_H 	H 	0.4421	0.6101	0.1292	-0.028
Mof_N 	N 	0.4283	0.7198	0.0881	-0.342
Mof_C 	C 	0.4388	0.7995	0.0832	0.261
Mof_H 	H 	0.4241	0.8318	0.0589	-0.223
Mof_C 	C 	0.469	0.843	0.1094	-0.174
Mof_H 	H 	0.4768	0.9003	0.1011	0.075
Mof_C 	C 	0.5521	0.065	0.2111	0.055
Mof_C 	C 	0.5285	0.124	0.1829	-0.123
Mof_H 	H 	0.5096	0.1001	0.1593	0.088
Mof_C 	C 	0.5307	0.215	0.1867	0.073
Mof_H 	H 	0.5138	0.2511	0.1662	-0.054
Mof_N 	N 	0.557	0.2517	0.2198	-0.353
Mof_C 	C 	0.579	0.2	0.2504	0.038
Mof_H 	H 	0.5964	0.227	0.2743	-0.03
Mof_C 	C 	0.5772	0.107	0.2483	-0.094
Mof_H 	H 	0.5924	0.0715	0.271	0.078
Mof_N 	N 	0.3362	0.7448	0.0453	-0.318
Mof_C 	C 	0.3269	0.75	0.0852	0.065
Mof_H 	H 	0.3423	0.7207	0.11	-0.099
Mof_C 	C 	0.2922	0.803	0.0906	0.017
Mof_H 	H 	0.2836	0.8056	0.118	0.1
Mof_C 	C 	0.2732	0.8478	0.0525	0.132
Mof_C 	C 	0.2853	0.8424	0.0138	-0.126
Mof_H 	H 	0.2733	0.877	0.9889	0.025
Mof_C 	C 	0.316	0.7844	0.0109	0.058
Mof_H 	H 	0.3223	0.7739	0.9826	-0.027
Mof_C 	C 	0.2394	0.9079	0.0569	0.137
Mof_N 	N 	0.2206	0.8912	0.0899	-0.132
Mof_C 	C 	0.1926	0.9436	0.0932	0.099
Mof_N 	N 	0.1829	0.0164	0.068	-0.127
Mof_C 	C 	0.2044	0.0308	0.0371	0.121
Mof_N 	N 	0.2318	0.9763	0.0277	-0.144
Mof_C 	C 	0.1682	0.9246	0.1243	0.075
Mof_C 	C 	0.1782	0.8665	0.1615	-0.121
Mof_H 	H 	0.2025	0.8368	0.1658	0.091
Mof_C 	C 	0.1558	0.8515	0.19	0.067
Mof_H 	H 	0.1649	0.8133	0.2145	-0.01
Mof_N 	N 	0.1187	0.8897	0.1858	-0.282
Mof_C 	C 	0.1092	0.9451	0.1501	0.095
Mof_H 	H 	0.0846	0.9735	0.1455	-0.019
Mof_C 	C 	0.1318	0.9622	0.1211	-0.164
Mof_H 	H 	0.1227	0.0019	0.0972	0.114
Mof_C 	C 	0.1963	0.113	0.009	0.057
Mof_C 	C 	0.1687	0.175	0.0177	-0.117
Mof_H 	H 	0.1558	0.1649	0.0416	0.082
Mof_C 	C 	0.1606	0.2478	0.9925	0.071
Mof_H 	H 	0.1409	0.2871	0.998	-0.018
Mof_N 	N 	0.1789	0.2664	0.9609	-0.271
Mof_C 	C 	0.2066	0.2131	0.9527	0.052
Mof_H 	H 	0.2202	0.2287	0.9299	-0.021
Mof_C 	C 	0.2167	0.1318	0.9774	-0.117
Mof_H 	H 	0.2366	0.0936	0.9717	0.042
Mof_N 	N 	0.1164	0.3128	0.8716	-0.271
Mof_C 	C 	0.0951	0.3547	0.8381	0.087
Mof_H 	H 	0.0944	0.4179	0.8391	-0.02
Mof_C 	C 	0.0738	0.3132	0.8019	-0.134
Mof_H 	H 	0.0592	0.3473	0.7782	0.084
Mof_C 	C 	0.0734	0.2213	0.7995	0.057
Mof_C 	C 	0.0932	0.1778	0.8367	-0.114
Mof_H 	H 	0.091	0.115	0.8384	0.089
Mof_C 	C 	0.116	0.2223	0.8712	0.053
Mof_H 	H 	0.1316	0.1901	0.8949	0
Mof_C 	C 	0.0523	0.172	0.7591	0.107
Mof_N 	N 	0.0271	0.2111	0.7306	-0.146
Mof_C 	C 	0.0099	0.1621	0.696	0.091
Mof_N 	N 	0.0172	0.0755	0.6906	-0.139
Mof_C 	C 	0.0454	0.0427	0.7217	0.103
Mof_N 	N 	0.065	0.0855	0.7569	-0.134
Mof_C 	C 	0.0548	0.9418	0.7223	0.074
Mof_C 	C 	0.032	0.8849	0.6948	-0.135
Mof_H 	H 	0.0109	0.907	0.6733	0.085
Mof_C 	C 	0.0394	0.7928	0.6979	0.087
Mof_H 	H 	0.0225	0.7524	0.6797	-0.016
Mof_N 	N 	0.0695	0.7634	0.7258	-0.273
Mof_C 	C 	0.0921	0.821	0.753	0.066
Mof_H 	H 	0.1125	0.7974	0.7749	-0.019
Mof_C 	C 	0.0876	0.9124	0.7512	-0.129
Mof_H 	H 	0.1057	0.9518	0.7684	0.086
Mof_C 	C 	0.9758	0.2051	0.6644	0.056
Mof_C 	C 	0.9707	0.291	0.6663	-0.127
Mof_H 	H 	0.9887	0.3262	0.6863	0.092
Mof_C 	C 	0.9383	0.3316	0.6388	0.057
Mof_H 	H 	0.9325	0.3924	0.6427	-0.003
Mof_N 	N 	0.9156	0.2821	0.6068	-0.271
Mof_C 	C 	0.9215	0.1978	0.6043	0.078
Mof_H 	H 	0.9042	0.1637	0.5828	-0.008
Mof_C 	C 	0.9532	0.1543	0.6328	-0.128
Mof_H 	H 	0.9582	0.0927	0.6298	0.082
Mof_I 	I 	0.39787	0.668	0.9667	1.591
Mof_I 	I 	0.72176	0.61107	0.37236	0.788
Mof_I 	I 	0.5877	0.085	0.8048	0.452
Mof_C 	C 	0.6865	0.9783	0.258	0.053
Mof_H 	H 	0.6784	0.0068	0.2301	0.026
Mof_C 	C 	0.6917	0.8867	0.26	0.115
Mof_H 	H 	0.687	0.8525	0.2334	-0.008
Mof_C 	C 	0.7036	0.845	0.3009	-0.005
Mof_H 	H 	0.7072	0.7823	0.3023	0.225
Mof_C 	C 	0.7105	0.895	0.3398	0.134
Mof_H 	H 	0.7186	0.8664	0.3678	0.015
Mof_C 	C 	0.7053	0.987	0.3378	-0.135
Mof_H 	H 	0.71	0.0207	0.3644	0.069
Mof_C 	C 	0.6934	0.0283	0.2969	0.149
Mof_N 	N 	0.6884	0.1233	0.2942	-0.021
Mof_O 	O 	0.6975	0.164	0.3287	-0.138
Mof_O 	O 	0.681	0.156	0.2572	-0.14
Mof_Zn	Zn	0.5703	0.115	0.7357	0.309
Mof_I 	I 	0.5099	0.0207	0.7077	-0.772
Mof_Zn	Zn	0.59	0.1175	0.7209	0.958
Mof_I 	I 	0.5301	0.0192	0.6959	-0.687
Mof_Zn	Zn	0.6533	0.619	0.4287	1.597
Mof_I 	I 	0.6261	0.498	0.4709	16.769
Mof_Zn	Zn	0.3648	0.6537	0.0737	1.019
Mof_I 	I 	0.3488	0.5093	0.1089	0.345
Mof_I 	I 	0.3801	0.6587	0.9961	-2.444
Mof_I 	I 	0.3915	0.799	0.9248	-0.695
Mof_I 	I 	0.3825	0.933	0.8625	0.173
Mof_I 	I 	0.6311	0.0945	0.7981	0.213
Mof_I 	I 	0.6939	0.778	0.3279	-0.477
Mof_I 	I 	0.6729	0.935	0.283	-0.326
Mof_I 	I 	0.6067	0.0988	0.8153	-0.723
Mof_I 	I 	0.7031	0.586	0.3817	-0.793
Mof_C 	C 	0.427	0.114	0.919	0.378
Mof_H 	H 	0.4403	0.1567	0.9394	-0.16
Mof_C 	C 	0.431	0.024	0.928	-0.173
Mof_H 	H 	0.4477	0.0048	0.9554	-0.164
Mof_C 	C 	0.412	0.962	0.899	0.294
Mof_H 	H 	0.4151	0.9	0.905	0.039
Mof_C 	C 	0.388	0.99	0.859	-0.051
Mof_H 	H 	0.3751	0.947	0.8387	0.03
Mof_C 	C 	0.384	0.08	0.85	0.112
Mof_H 	H 	0.3677	0.0989	0.8227	0.081
Mof_C 	C 	0.403	0.142	0.8795	-0.611
Mof_N 	N 	0.4019	0.235	0.8682	-0.001
Mof_O 	O 	0.378	0.255	0.8348	-0.096
Mof_O 	O 	0.414	0.287	0.898	-0.099
Mof_C 	C 	0.397	0.038	0.91	-0.281
Mof_H 	H 	0.4091	0.0669	0.9368	-0.188
Mof_C 	C 	0.393	0.946	0.909	-0.303
Mof_H 	H 	0.4021	0.9122	0.9351	-0.108
Mof_C 	C 	0.376	0.904	0.87	-0.301
Mof_H 	H 	0.3729	0.8411	0.869	0.171
Mof_C 	C 	0.363	0.954	0.831	0.068
Mof_H 	H 	0.3507	0.9248	0.8046	0.015
Mof_C 	C 	0.367	0.046	0.832	-0.442
Mof_H 	H 	0.3577	0.0796	0.8064	0.138
Mof_C 	C 	0.384	0.088	0.872	0.329
Mof_N 	N 	0.393	0.181	0.871	0.291
Mof_O 	O 	0.396	0.212	0.835	-0.089
Mof_O 	O 	0.407	0.216	0.907	-0.131
Mof_Zn	Zn	0.1313	0.66047	0.43597	1.164
Mof_I 	I 	0.11704	0.66684	0.51342	-0.373
Mof_I 	I 	0.1487	0.51742	0.39966	-0.406
Mof_Zn	Zn	0.4414	0.8877	0.2761	0.763
Mof_I 	I 	0.5036	0.9602	0.3176	0.89
Mof_Zn	Zn	0.33665	0.36518	0.59186	1.067
Mof_I 	I 	0.36747	0.49123	0.55622	-17.589
Mof_Zn	Zn	0.61691	0.3403	0.9551	1.252
Mof_I 	I 	0.633	0.48465	0.91886	-0.889
Mof_Zn	Zn	0.83963	0.62657	0.08218	1.161
Mof_I 	I 	0.87043	0.5111	0.03984	-0.384
Mof_I 	I 	0.78731	0.60088	0.12778	-0.364
Mof_Zn	Zn	0.91382	0.37078	0.26756	1.163
Mof_I 	I 	0.86835	0.39321	0.19243	-0.396
Mof_I 	I 	0.97378	0.46916	0.29043	-0.378
Mof_N 	N 	0.3986	0.913	0.3123	-0.579
Mof_C 	C 	0.3982	0.988	0.3335	0.124
Mof_H 	H 	0.4156	0.0335	0.3283	-0.002
Mof_C 	C 	0.3748	0.006	0.3624	-0.148
Mof_H 	H 	0.3782	0.0596	0.3788	0.1
Mof_C 	C 	0.3462	0.9476	0.3687	0.047
Mof_C 	C 	0.3448	0.8711	0.3445	-0.119
Mof_H 	H 	0.3252	0.8284	0.3462	0.08
Mof_C 	C 	0.3711	0.8539	0.3177	0.039
Mof_H 	H 	0.3698	0.7985	0.3026	-0.074
Mof_C 	C 	0.3219	0.9661	0.3991	0.102
Mof_N 	N 	0.3282	0.036	0.4257	-0.134
Mof_C 	C 	0.3071	0.0403	0.4546	0.129
Mof_N 	N 	0.2781	0.9839	0.4613	-0.139
Mof_C 	C 	0.2725	0.9168	0.4302	0.112
Mof_N 	N 	0.2933	0.9033	0.401	-0.13
Mof_C 	C 	0.2389	0.8565	0.4349	0.066
Mof_C 	C 	0.2217	0.858	0.4679	-0.131
Mof_H 	H 	0.2307	0.897	0.4921	0.078
Mof_C 	C 	0.1891	0.8018	0.4687	0.064
Mof_H 	H 	0.1764	0.8042	0.4933	-0.002
Mof_N 	N 	0.1763	0.7463	0.4353	-0.275
Mof_C 	C 	0.1952	0.746	0.4006	0.061
Mof_H 	H 	0.1863	0.7082	0.3759	-0.014
Mof_C 	C 	0.2267	0.7992	0.4007	-0.128
Mof_H 	H 	0.2402	0.7961	0.3768	0.08
Mof_C 	C 	0.311	0.1205	0.4869	0.078
Mof_C 	C 	0.345	0.1714	0.4912	-0.166
Mof_H 	H 	0.3641	0.1585	0.4741	0.077
Mof_C 	C 	0.3496	0.2393	0.5204	0.073
Mof_H 	H 	0.3727	0.2735	0.5231	-0.16
Mof_N 	N 	0.325	0.2622	0.5454	-0.325
Mof_C 	C 	0.2924	0.2161	0.5413	0.083
Mof_H 	H 	0.2741	0.2306	0.5592	-0.016
Mof_C 	C 	0.2846	0.1451	0.5102	-0.136
Mof_H 	H 	0.2603	0.115	0.506	0.071
Mof_N 	N 	0.3755	0.2974	0.64	-0.12
Mof_C 	C 	0.3984	0.343	0.6703	0.003
Mof_H 	H 	0.4005	0.4052	0.6667	0.291
Mof_C 	C 	0.4209	0.2999	0.7097	-0.04
Mof_H 	H 	0.4377	0.3337	0.7317	0.071
Mof_C 	C 	0.4174	0.2104	0.7144	0.02
Mof_C 	C 	0.3962	0.1691	0.6785	-0.069
Mof_H 	H 	0.3955	0.106	0.6786	0.07
Mof_C 	C 	0.3754	0.2131	0.6413	0.055
Mof_H 	H 	0.3613	0.1801	0.617	0.026
Mof_C 	C 	0.4382	0.16	0.7535	0.114
Mof_N 	N 	0.4638	0.2069	0.7836	-0.134
Mof_C 	C 	0.4835	0.1537	0.8175	0.088
Mof_N 	N 	0.4786	0.0681	0.8216	-0.132
Mof_C 	C 	0.4527	0.0324	0.7886	0.107
Mof_N 	N 	0.4309	0.076	0.7554	-0.142
Mof_C 	C 	0.5111	0.1989	0.8501	0.084
Mof_C 	C 	0.5228	0.286	0.8462	-0.124
Mof_H 	H 	0.5097	0.3182	0.8211	0.097
Mof_C 	C 	0.5517	0.3295	0.8753	0.038
Mof_H 	H 	0.5579	0.3899	0.8708	-0.028
Mof_N 	N 	0.5717	0.2802	0.9119	-0.342
Mof_C 	C 	0.5612	0.2005	0.9168	0.261
Mof_H 	H 	0.5759	0.1682	0.9411	-0.223
Mof_C 	C 	0.531	0.157	0.8906	-0.174
Mof_H 	H 	0.5232	0.0997	0.8989	0.075
Mof_C 	C 	0.4479	0.935	0.7889	0.055
Mof_C 	C 	0.4715	0.876	0.8171	-0.123
Mof_H 	H 	0.4904	0.8999	0.8407	0.088
Mof_C 	C 	0.4693	0.785	0.8133	0.073
Mof_H 	H 	0.4862	0.7489	0.8338	-0.054
Mof_N 	N 	0.443	0.7483	0.7802	-0.353
Mof_C 	C 	0.421	0.8	0.7496	0.038
Mof_H 	H 	0.4036	0.773	0.7257	-0.03
Mof_C 	C 	0.4228	0.893	0.7517	-0.094
Mof_H 	H 	0.4076	0.9285	0.729	0.078
Mof_N 	N 	0.6638	0.2552	0.9547	-0.318
Mof_C 	C 	0.6731	0.25	0.9148	0.065
Mof_H 	H 	0.6577	0.2793	0.89	-0.099
Mof_C 	C 	0.7078	0.197	0.9094	0.017
Mof_H 	H 	0.7164	0.1944	0.882	0.1
Mof_C 	C 	0.7268	0.1522	0.9475	0.132
Mof_C 	C 	0.7147	0.1576	0.9862	-0.126
Mof_H 	H 	0.7267	0.123	0.0111	0.025
Mof_C 	C 	0.684	0.2156	0.9891	0.058
Mof_H 	H 	0.6777	0.2261	0.0174	-0.027
Mof_C 	C 	0.7606	0.0921	0.9431	0.137
Mof_N 	N 	0.7794	0.1088	0.9101	-0.132
Mof_C 	C 	0.8074	0.0564	0.9068	0.099
Mof_N 	N 	0.8171	0.9836	0.932	-0.127
Mof_C 	C 	0.7956	0.9692	0.9629	0.121
Mof_N 	N 	0.7682	0.0237	0.9723	-0.144
Mof_C 	C 	0.8318	0.0754	0.8757	0.075
Mof_C 	C 	0.8218	0.1335	0.8385	-0.121
Mof_H 	H 	0.7975	0.1632	0.8342	0.091
Mof_C 	C 	0.8442	0.1485	0.81	0.067
Mof_H 	H 	0.8351	0.1867	0.7855	-0.01
Mof_N 	N 	0.8813	0.1103	0.8142	-0.282
Mof_C 	C 	0.8908	0.0549	0.8499	0.095
Mof_H 	H 	0.9154	0.0265	0.8545	-0.019
Mof_C 	C 	0.8682	0.0378	0.8789	-0.164
Mof_H 	H 	0.8773	0.9981	0.9028	0.114
Mof_C 	C 	0.8037	0.887	0.991	0.057
Mof_C 	C 	0.8313	0.825	0.9823	-0.117
Mof_H 	H 	0.8442	0.8351	0.9584	0.082
Mof_C 	C 	0.8394	0.7522	0.0075	0.071
Mof_H 	H 	0.8591	0.7129	0.002	-0.018
Mof_N 	N 	0.8211	0.7336	0.0391	-0.271
Mof_C 	C 	0.7934	0.7869	0.0473	0.052
Mof_H 	H 	0.7798	0.7713	0.0701	-0.021
Mof_C 	C 	0.7833	0.8682	0.0226	-0.117
Mof_H 	H 	0.7634	0.9064	0.0283	0.042
Mof_N 	N 	0.8836	0.6872	0.1284	-0.271
Mof_C 	C 	0.9049	0.6453	0.1619	0.087
Mof_H 	H 	0.9056	0.5821	0.1609	-0.02
Mof_C 	C 	0.9262	0.6868	0.1981	-0.134
Mof_H 	H 	0.9408	0.6527	0.2218	0.084
Mof_C 	C 	0.9266	0.7787	0.2005	0.057
Mof_C 	C 	0.9068	0.8222	0.1633	-0.114
Mof_H 	H 	0.909	0.885	0.1616	0.089
Mof_C 	C 	0.884	0.7777	0.1288	0.053
Mof_H 	H 	0.8684	0.8099	0.1051	0
Mof_C 	C 	0.9477	0.828	0.2409	0.107
Mof_N 	N 	0.9729	0.7889	0.2694	-0.146
Mof_C 	C 	0.9901	0.8379	0.304	0.091
Mof_N 	N 	0.9828	0.9245	0.3094	-0.139
Mof_C 	C 	0.9546	0.9573	0.2783	0.103
Mof_N 	N 	0.935	0.9145	0.2431	-0.134
Mof_C 	C 	0.9452	0.0582	0.2777	0.074
Mof_C 	C 	0.968	0.1151	0.3052	-0.135
Mof_H 	H 	0.9891	0.093	0.3267	0.085
Mof_C 	C 	0.9606	0.2072	0.3021	0.087
Mof_H 	H 	0.9775	0.2476	0.3203	-0.016
Mof_N 	N 	0.9305	0.2366	0.2742	-0.273
Mof_C 	C 	0.9079	0.179	0.247	0.066
Mof_H 	H 	0.8875	0.2026	0.2251	-0.019
Mof_C 	C 	0.9124	0.0876	0.2488	-0.129
Mof_H 	H 	0.8943	0.0482	0.2316	0.086
Mof_C 	C 	0.0242	0.7949	0.3356	0.056
Mof_C 	C 	0.0293	0.709	0.3337	-0.127
Mof_H 	H 	0.0113	0.6738	0.3137	0.092
Mof_C 	C 	0.0617	0.6684	0.3612	0.057
Mof_H 	H 	0.0675	0.6076	0.3573	-0.003
Mof_N 	N 	0.0844	0.7179	0.3932	-0.271
Mof_C 	C 	0.0785	0.8022	0.3957	0.078
Mof_H 	H 	0.0958	0.8363	0.4172	-0.008
Mof_C 	C 	0.0468	0.8457	0.3672	-0.128
Mof_H 	H 	0.0418	0.9073	0.3702	0.082
Mof_I 	I 	0.60213	0.332	0.0333	1.591
Mof_I 	I 	0.27824	0.38893	0.62764	0.788
Mof_I 	I 	0.4123	0.915	0.1952	0.452
Mof_C 	C 	0.3135	0.0217	0.742	0.053
Mof_H 	H 	0.3216	0.9932	0.7699	0.026
Mof_C 	C 	0.3083	0.1133	0.74	0.115
Mof_H 	H 	0.313	0.1475	0.7666	-0.008
Mof_C 	C 	0.2964	0.155	0.6991	-0.005
Mof_H 	H 	0.2928	0.2177	0.6977	0.225
Mof_C 	C 	0.2895	0.105	0.6602	0.134
Mof_H 	H 	0.2814	0.1336	0.6322	0.015
Mof_C 	C 	0.2947	0.013	0.6622	-0.135
Mof_H 	H 	0.29	0.9793	0.6356	0.069
Mof_C 	C 	0.3066	0.9717	0.7031	0.149
Mof_N 	N 	0.3116	0.8767	0.7058	-0.021
Mof_O 	O 	0.3025	0.836	0.6713	-0.138
Mof_O 	O 	0.319	0.844	0.7428	-0.14
Mof_Zn	Zn	0.4297	0.885	0.2643	0.309
Mof_I 	I 	0.4901	0.9793	0.2923	-0.772
Mof_Zn	Zn	0.41	0.8825	0.2791	0.958
Mof_I 	I 	0.4699	0.9808	0.3041	-0.687
Mof_Zn	Zn	0.3467	0.381	0.5713	1.597
Mof_I 	I 	0.3739	0.502	0.5291	16.769
Mof_Zn	Zn	0.6352	0.3463	0.9263	1.019
Mof_I 	I 	0.6512	0.4907	0.8911	0.345
Mof_I 	I 	0.6199	0.3413	0.0039	-2.444
Mof_I 	I 	0.6085	0.201	0.0752	-0.695
Mof_I 	I 	0.6175	0.067	0.1375	0.173
Mof_I 	I 	0.3689	0.9055	0.2019	0.213
Mof_I 	I 	0.3061	0.222	0.6721	-0.477
Mof_I 	I 	0.3271	0.065	0.717	-0.326
Mof_I 	I 	0.3933	0.9012	0.1847	-0.723
Mof_I 	I 	0.2969	0.414	0.6183	-0.793
Mof_C 	C 	0.573	0.886	0.081	0.378
Mof_H 	H 	0.5597	0.8433	0.0606	-0.16
Mof_C 	C 	0.569	0.976	0.072	-0.173
Mof_H 	H 	0.5523	0.9952	0.0446	-0.164
Mof_C 	C 	0.588	0.038	0.101	0.294
Mof_H 	H 	0.5849	0.1	0.095	0.039
Mof_C 	C 	0.612	0.01	0.141	-0.051
Mof_H 	H 	0.6249	0.053	0.1613	0.03
Mof_C 	C 	0.616	0.92	0.15	0.112
Mof_H 	H 	0.6323	0.9011	0.1773	0.081
Mof_C 	C 	0.597	0.858	0.1205	-0.611
Mof_N 	N 	0.5981	0.765	0.1318	-0.001
Mof_O 	O 	0.622	0.745	0.1652	-0.096
Mof_O 	O 	0.586	0.713	0.102	-0.099
Mof_C 	C 	0.603	0.962	0.09	-0.281
Mof_H 	H 	0.5909	0.9331	0.0632	-0.188
Mof_C 	C 	0.607	0.054	0.091	-0.303
Mof_H 	H 	0.5979	0.0878	0.0649	-0.108
Mof_C 	C 	0.624	0.096	0.13	-0.301
Mof_H 	H 	0.6271	0.1589	0.131	0.171
Mof_C 	C 	0.637	0.046	0.169	0.068
Mof_H 	H 	0.6493	0.0752	0.1954	0.015
Mof_C 	C 	0.633	0.954	0.168	-0.442
Mof_H 	H 	0.6423	0.9204	0.1936	0.138
Mof_C 	C 	0.616	0.912	0.128	0.329
Mof_N 	N 	0.607	0.819	0.129	0.291
Mof_O 	O 	0.604	0.788	0.165	-0.089
Mof_O 	O 	0.593	0.784	0.093	-0.131
Mof_Zn	Zn	0.1313	0.83953	0.93597	1.166
Mof_I 	I 	0.11704	0.83316	0.01342	-0.383
Mof_I 	I 	0.1487	0.98258	0.89966	-0.4
Mof_Zn	Zn	0.4414	0.6123	0.7761	0.763
Mof_I 	I 	0.5036	0.5398	0.8176	0.882
Mof_Zn	Zn	0.33665	0.13482	0.09186	1.008
Mof_I 	I 	0.36747	0.00877	0.05622	-14.931
Mof_Zn	Zn	0.61691	0.1597	0.4551	1.254
Mof_I 	I 	0.633	0.01535	0.41886	-0.891
Mof_Zn	Zn	0.83963	0.87343	0.58218	1.161
Mof_I 	I 	0.87043	0.9889	0.53984	-0.38
Mof_I 	I 	0.78731	0.89912	0.62778	-0.355
Mof_Zn	Zn	0.91382	0.12922	0.76756	1.163
Mof_I 	I 	0.86835	0.10679	0.69243	-0.402
Mof_I 	I 	0.97378	0.03084	0.79043	-0.385
Mof_N 	N 	0.3986	0.587	0.8123	-0.592
Mof_C 	C 	0.3982	0.512	0.8335	0.18
Mof_H 	H 	0.4156	0.4665	0.8283	-0.027
Mof_C 	C 	0.3748	0.494	0.8624	-0.209
Mof_H 	H 	0.3782	0.4404	0.8788	0.119
Mof_C 	C 	0.3462	0.5524	0.8687	0.082
Mof_C 	C 	0.3448	0.6289	0.8445	-0.141
Mof_H 	H 	0.3252	0.6716	0.8462	0.088
Mof_C 	C 	0.3711	0.6461	0.8177	0.054
Mof_H 	H 	0.3698	0.7015	0.8026	-0.079
Mof_C 	C 	0.3219	0.5339	0.8991	0.099
Mof_N 	N 	0.3282	0.464	0.9257	-0.135
Mof_C 	C 	0.3071	0.4597	0.9546	0.123
Mof_N 	N 	0.2781	0.5161	0.9613	-0.134
Mof_C 	C 	0.2725	0.5832	0.9302	0.115
Mof_N 	N 	0.2933	0.5967	0.901	-0.129
Mof_C 	C 	0.2389	0.6435	0.9349	0.068
Mof_C 	C 	0.2217	0.642	0.9679	-0.13
Mof_H 	H 	0.2307	0.603	0.9921	0.08
Mof_C 	C 	0.1891	0.6982	0.9687	0.066
Mof_H 	H 	0.1764	0.6958	0.9933	0.001
Mof_N 	N 	0.1763	0.7537	0.9353	-0.274
Mof_C 	C 	0.1952	0.754	0.9006	0.063
Mof_H 	H 	0.1863	0.7918	0.8759	-0.013
Mof_C 	C 	0.2267	0.7008	0.9007	-0.126
Mof_H 	H 	0.2402	0.7039	0.8768	0.081
Mof_C 	C 	0.311	0.3795	0.9869	0.076
Mof_C 	C 	0.345	0.3286	0.9912	-0.17
Mof_H 	H 	0.3641	0.3415	0.9741	0.082
Mof_C 	C 	0.3496	0.2607	0.0204	0.085
Mof_H 	H 	0.3727	0.2265	0.0231	-0.147
Mof_N 	N 	0.325	0.2378	0.0454	-0.331
Mof_C 	C 	0.2924	0.2839	0.0413	0.079
Mof_H 	H 	0.2741	0.2694	0.0592	-0.008
Mof_C 	C 	0.2846	0.3549	0.0102	-0.128
Mof_H 	H 	0.2603	0.385	0.006	0.069
Mof_N 	N 	0.3755	0.2026	0.14	-0.153
Mof_C 	C 	0.3984	0.157	0.1703	0.014
Mof_H 	H 	0.4005	0.0948	0.1667	0.24
Mof_C 	C 	0.4209	0.2001	0.2097	-0.055
Mof_H 	H 	0.4377	0.1663	0.2317	0.076
Mof_C 	C 	0.4174	0.2896	0.2144	0.029
Mof_C 	C 	0.3962	0.3309	0.1785	-0.081
Mof_H 	H 	0.3955	0.394	0.1786	0.074
Mof_C 	C 	0.3754	0.2869	0.1413	0.065
Mof_H 	H 	0.3613	0.3199	0.117	0.019
Mof_C 	C 	0.4382	0.34	0.2535	0.111
Mof_N 	N 	0.4638	0.2931	0.2836	-0.133
Mof_C 	C 	0.4835	0.3463	0.3175	0.086
Mof_N 	N 	0.4786	0.4319	0.3216	-0.13
Mof_C 	C 	0.4527	0.4676	0.2886	0.115
Mof_N 	N 	0.4309	0.424	0.2554	-0.142
Mof_C 	C 	0.5111	0.3011	0.3501	0.093
Mof_C 	C 	0.5228	0.214	0.3462	-0.13
Mof_H 	H 	0.5097	0.1818	0.3211	0.099
Mof_C 	C 	0.5517	0.1705	0.3753	0.044
Mof_H 	H 	0.5579	0.1101	0.3708	-0.03
Mof_N 	N 	0.5717	0.2198	0.4119	-0.348
Mof_C 	C 	0.5612	0.2995	0.4168	0.294
Mof_H 	H 	0.5759	0.3318	0.4411	-0.262
Mof_C 	C 	0.531	0.343	0.3906	-0.186
Mof_H 	H 	0.5232	0.4003	0.3989	0.078
Mof_C 	C 	0.4479	0.565	0.2889	0.046
Mof_C 	C 	0.4715	0.624	0.3171	-0.12
Mof_H 	H 	0.4904	0.6001	0.3407	0.086
Mof_C 	C 	0.4693	0.715	0.3133	0.071
Mof_H 	H 	0.4862	0.7511	0.3338	-0.054
Mof_N 	N 	0.443	0.7517	0.2802	-0.351
Mof_C 	C 	0.421	0.7	0.2496	0.035
Mof_H 	H 	0.4036	0.727	0.2257	-0.03
Mof_C 	C 	0.4228	0.607	0.2517	-0.091
Mof_H 	H 	0.4076	0.5715	0.229	0.076
Mof_N 	N 	0.6638	0.2448	0.4547	-0.317
Mof_C 	C 	0.6731	0.25	0.4148	0.081
Mof_H 	H 	0.6577	0.2207	0.39	-0.096
Mof_C 	C 	0.7078	0.303	0.4094	0.042
Mof_H 	H 	0.7164	0.3056	0.382	0.104
Mof_C 	C 	0.7268	0.3478	0.4475	0.145
Mof_C 	C 	0.7147	0.3424	0.4862	-0.1
Mof_H 	H 	0.7267	0.377	0.5111	-0.001
Mof_C 	C 	0.684	0.2844	0.4891	0.053
Mof_H 	H 	0.6777	0.2739	0.5174	-0.05
Mof_C 	C 	0.7606	0.4079	0.4431	0.158
Mof_N 	N 	0.7794	0.3912	0.4101	-0.136
Mof_C 	C 	0.8074	0.4436	0.4068	0.122
Mof_N 	N 	0.8171	0.5164	0.432	-0.144
Mof_C 	C 	0.7956	0.5308	0.4629	0.1
Mof_N 	N 	0.7682	0.4763	0.4723	-0.123
Mof_C 	C 	0.8318	0.4246	0.3757	0.046
Mof_C 	C 	0.8218	0.3665	0.3385	-0.105
Mof_H 	H 	0.7975	0.3368	0.3342	0.086
Mof_C 	C 	0.8442	0.3515	0.31	0.056
Mof_H 	H 	0.8351	0.3133	0.2855	-0.007
Mof_N 	N 	0.8813	0.3897	0.3142	-0.276
Mof_C 	C 	0.8908	0.4451	0.3499	0.067
Mof_H 	H 	0.9154	0.4735	0.3545	-0.007
Mof_C 	C 	0.8682	0.4622	0.3789	-0.109
Mof_H 	H 	0.8773	0.5019	0.4028	0.081
Mof_C 	C 	0.8037	0.613	0.491	0.047
Mof_C 	C 	0.8313	0.675	0.4823	-0.132
Mof_H 	H 	0.8442	0.6649	0.4584	0.08
Mof_C 	C 	0.8394	0.7478	0.5075	0.084
Mof_H 	H 	0.8591	0.7871	0.502	-0.022
Mof_N 	N 	0.8211	0.7664	0.5391	-0.272
Mof_C 	C 	0.7934	0.7131	0.5473	0.047
Mof_H 	H 	0.7798	0.7287	0.5701	-0.021
Mof_C 	C 	0.7833	0.6318	0.5226	-0.101
Mof_H 	H 	0.7634	0.5936	0.5283	0.036
Mof_N 	N 	0.8836	0.8128	0.6284	-0.27
Mof_C 	C 	0.9049	0.8547	0.6619	0.088
Mof_H 	H 	0.9056	0.9179	0.6609	-0.017
Mof_C 	C 	0.9262	0.8132	0.6981	-0.134
Mof_H 	H 	0.9408	0.8473	0.7218	0.086
Mof_C 	C 	0.9266	0.7213	0.7005	0.058
Mof_C 	C 	0.9068	0.6778	0.6633	-0.114
Mof_H 	H 	0.909	0.615	0.6616	0.09
Mof_C 	C 	0.884	0.7223	0.6288	0.054
Mof_H 	H 	0.8684	0.6901	0.6051	0.001
Mof_C 	C 	0.9477	0.672	0.7409	0.107
Mof_N 	N 	0.9729	0.7111	0.7694	-0.145
Mof_C 	C 	0.9901	0.6621	0.804	0.091
Mof_N 	N 	0.9828	0.5755	0.8094	-0.139
Mof_C 	C 	0.9546	0.5427	0.7783	0.105
Mof_N 	N 	0.935	0.5855	0.7431	-0.134
Mof_C 	C 	0.9452	0.4418	0.7777	0.071
Mof_C 	C 	0.968	0.3849	0.8052	-0.133
Mof_H 	H 	0.9891	0.407	0.8267	0.084
Mof_C 	C 	0.9606	0.2928	0.8021	0.087
Mof_H 	H 	0.9775	0.2524	0.8203	-0.016
Mof_N 	N 	0.9305	0.2634	0.7742	-0.273
Mof_C 	C 	0.9079	0.321	0.747	0.066
Mof_H 	H 	0.8875	0.2974	0.7251	-0.019
Mof_C 	C 	0.9124	0.4124	0.7488	-0.128
Mof_H 	H 	0.8943	0.4518	0.7316	0.086
Mof_C 	C 	0.0242	0.7051	0.8356	0.059
Mof_C 	C 	0.0293	0.791	0.8337	-0.128
Mof_H 	H 	0.0113	0.8262	0.8137	0.095
Mof_C 	C 	0.0617	0.8316	0.8612	0.059
Mof_H 	H 	0.0675	0.8924	0.8573	-0.002
Mof_N 	N 	0.0844	0.7821	0.8932	-0.271
Mof_C 	C 	0.0785	0.6978	0.8957	0.079
Mof_H 	H 	0.0958	0.6637	0.9172	-0.006
Mof_C 	C 	0.0468	0.6543	0.8672	-0.128
Mof_H 	H 	0.0418	0.5927	0.8702	0.084
Mof_I 	I 	0.60213	0.168	0.5333	1.595
Mof_I 	I 	0.27824	0.11107	0.12764	0.081
Mof_I 	I 	0.4123	0.585	0.6952	0.503
Mof_C 	C 	0.3135	0.4783	0.242	0.047
Mof_H 	H 	0.3216	0.5068	0.2699	0.027
Mof_C 	C 	0.3083	0.3867	0.24	0.133
Mof_H 	H 	0.313	0.3525	0.2666	-0.013
Mof_C 	C 	0.2964	0.345	0.1991	-0.024
Mof_H 	H 	0.2928	0.2823	0.1977	0.221
Mof_C 	C 	0.2895	0.395	0.1602	0.139
Mof_H 	H 	0.2814	0.3664	0.1322	0.015
Mof_C 	C 	0.2947	0.487	0.1622	-0.144
Mof_H 	H 	0.29	0.5207	0.1356	0.074
Mof_C 	C 	0.3066	0.5283	0.2031	0.158
Mof_N 	N 	0.3116	0.6233	0.2058	-0.023
Mof_O 	O 	0.3025	0.664	0.1713	-0.14
Mof_O 	O 	0.319	0.656	0.2428	-0.142
Mof_Zn	Zn	0.4297	0.615	0.7643	0.307
Mof_I 	I 	0.4901	0.5207	0.7923	-0.767
Mof_Zn	Zn	0.41	0.6175	0.7791	0.958
Mof_I 	I 	0.4699	0.5192	0.8041	-0.675
Mof_Zn	Zn	0.3467	0.119	0.0713	1.477
Mof_I 	I 	0.3739	0.998	0.0291	14.138
Mof_Zn	Zn	0.6352	0.1537	0.4263	1.02
Mof_I 	I 	0.6512	0.0093	0.3911	0.345
Mof_I 	I 	0.6199	0.1587	0.5039	-2.473
Mof_I 	I 	0.6085	0.299	0.5752	-0.745
Mof_I 	I 	0.6175	0.433	0.6375	0.17
Mof_I 	I 	0.3689	0.5945	0.7019	0.266
Mof_I 	I 	0.3061	0.278	0.1721	-0.416
Mof_I 	I 	0.3271	0.435	0.217	-0.333
Mof_I 	I 	0.3933	0.5988	0.6847	-0.726
Mof_I 	I 	0.2969	0.086	0.1183	-0.133
Mof_C 	C 	0.573	0.614	0.581	0.38
Mof_H 	H 	0.5597	0.6567	0.5606	-0.175
Mof_C 	C 	0.569	0.524	0.572	-0.156
Mof_H 	H 	0.5523	0.5048	0.5446	-0.21
Mof_C 	C 	0.588	0.462	0.601	0.336
Mof_H 	H 	0.5849	0.4	0.595	0.042
Mof_C 	C 	0.612	0.49	0.641	-0.065
Mof_H 	H 	0.6249	0.447	0.6613	0.014
Mof_C 	C 	0.616	0.58	0.65	0.088
Mof_H 	H 	0.6323	0.5989	0.6773	0.089
Mof_C 	C 	0.597	0.642	0.6205	-0.594
Mof_N 	N 	0.5981	0.735	0.6318	0.004
Mof_O 	O 	0.622	0.755	0.6652	-0.097
Mof_O 	O 	0.586	0.787	0.602	-0.1
Mof_C 	C 	0.603	0.538	0.59	-0.291
Mof_H 	H 	0.5909	0.5669	0.5632	-0.241
Mof_C 	C 	0.607	0.446	0.591	-0.382
Mof_H 	H 	0.5979	0.4122	0.5649	-0.14
Mof_C 	C 	0.624	0.404	0.63	-0.282
Mof_H 	H 	0.6271	0.3411	0.631	0.165
Mof_C 	C 	0.637	0.454	0.669	0.085
Mof_H 	H 	0.6493	0.4248	0.6954	0.008
Mof_C 	C 	0.633	0.546	0.668	-0.423
Mof_H 	H 	0.6423	0.5796	0.6936	0.127
Mof_C 	C 	0.616	0.588	0.628	0.329
Mof_N 	N 	0.607	0.681	0.629	0.279
Mof_O 	O 	0.604	0.712	0.665	-0.089
Mof_O 	O 	0.593	0.716	0.593	-0.143
_end
