data_functionalizedCrystal
_audit_creation_method	'EQeq! by Chris Wilmer'
_symmetry_space_group_name_H-M	'P1'
_symmetry_Int_Tables_number	1
_symmetry_cell_setting	triclinic
loop_
_symmetry_equiv_pos_as_xyz
  x,y,z
_cell_length_a	31.102
_cell_length_b	31.102
_cell_length_c	31.102
_cell_angle_alpha	90
_cell_angle_beta	90
_cell_angle_gamma	90
loop_
_atom_site_label
_atom_site_type_symbol
_atom_site_fract_x
_atom_site_fract_y
_atom_site_fract_z
_atom_site_charge
Mof_O 	O 	0.4572	0.4581	0.1403	-0.487
Mof_O 	O 	0.4562	0.4569	0.2113	-0.496
Mof_O 	O 	0.3581	0.3585	0.2858	-0.533
Mof_O 	O 	0.3151	0.3178	0.2473	-0.522
Mof_O 	O 	0.3218	0.2767	0.1038	-0.215
Mof_N 	N 	0.3854	0.3101	0.1034	-0.214
Mof_H 	H 	0.4101	0.3061	0.0901	0.114
Mof_C 	C 	0.4191	0.4034	0.1718	-0.153
Mof_C 	C 	0.3957	0.3969	0.2093	0.088
Mof_H 	H 	0.3969	0.4175	0.2319	0.011
Mof_C 	C 	0.3705	0.3603	0.2139	-0.168
Mof_C 	C 	0.3687	0.3302	0.1809	-0.013
Mof_H 	H 	0.3514	0.3052	0.184	0.049
Mof_C 	C 	0.3921	0.3367	0.1434	0.052
Mof_C 	C 	0.4173	0.3733	0.1389	-0.007
Mof_H 	H 	0.4334	0.3777	0.1133	0.038
Mof_C 	C 	0.4447	0.4405	0.1758	0.417
Mof_C 	C 	0.347	0.3448	0.2488	0.433
Mof_C 	C 	0.354	0.2909	0.082	0.197
Mof_C 	C 	0.3619	0.2735	0.0388	-0.054
Mof_C 	C 	0.373	0.2304	0.0387	-0.018
Mof_H 	H 	0.3767	0.2156	0.0651	0.041
Mof_O 	O 	0.5428	0.5419	0.1403	-0.487
Mof_O 	O 	0.5438	0.5431	0.2113	-0.496
Mof_O 	O 	0.6419	0.6415	0.2858	-0.533
Mof_O 	O 	0.6849	0.6822	0.2473	-0.522
Mof_O 	O 	0.6782	0.7233	0.1038	-0.214
Mof_N 	N 	0.6146	0.6899	0.1034	-0.213
Mof_H 	H 	0.5899	0.6939	0.0901	0.115
Mof_C 	C 	0.5809	0.5966	0.1718	-0.152
Mof_C 	C 	0.6043	0.6031	0.2093	0.089
Mof_H 	H 	0.6031	0.5825	0.2319	0.012
Mof_C 	C 	0.6295	0.6397	0.2139	-0.167
Mof_C 	C 	0.6313	0.6698	0.1809	-0.012
Mof_H 	H 	0.6486	0.6948	0.184	0.05
Mof_C 	C 	0.6079	0.6633	0.1434	0.053
Mof_C 	C 	0.5827	0.6267	0.1389	-0.006
Mof_H 	H 	0.5666	0.6223	0.1133	0.039
Mof_C 	C 	0.5553	0.5595	0.1758	0.418
Mof_C 	C 	0.653	0.6552	0.2488	0.434
Mof_C 	C 	0.646	0.7091	0.082	0.198
Mof_C 	C 	0.6381	0.7265	0.0388	-0.053
Mof_C 	C 	0.627	0.7696	0.0387	-0.017
Mof_H 	H 	0.6233	0.7844	0.0651	0.042
Mof_O 	O 	0.5428	0.4581	0.8597	-0.486
Mof_O 	O 	0.5438	0.4569	0.7887	-0.495
Mof_O 	O 	0.6419	0.3585	0.7142	-0.532
Mof_O 	O 	0.6849	0.3178	0.7527	-0.521
Mof_O 	O 	0.6782	0.2767	0.8962	-0.214
Mof_N 	N 	0.6146	0.3101	0.8966	-0.213
Mof_H 	H 	0.5899	0.3061	0.9099	0.116
Mof_C 	C 	0.5809	0.4034	0.8282	-0.152
Mof_C 	C 	0.6043	0.3969	0.7907	0.089
Mof_H 	H 	0.6031	0.4175	0.7681	0.012
Mof_C 	C 	0.6295	0.3603	0.7861	-0.167
Mof_C 	C 	0.6313	0.3302	0.8191	-0.012
Mof_H 	H 	0.6486	0.3052	0.816	0.05
Mof_C 	C 	0.6079	0.3367	0.8566	0.054
Mof_C 	C 	0.5827	0.3733	0.8611	-0.006
Mof_H 	H 	0.5666	0.3777	0.8867	0.039
Mof_C 	C 	0.5553	0.4405	0.8242	0.418
Mof_C 	C 	0.653	0.3448	0.7512	0.434
Mof_C 	C 	0.646	0.2909	0.918	0.198
Mof_C 	C 	0.6381	0.2735	0.9612	-0.053
Mof_C 	C 	0.627	0.2304	0.9613	-0.017
Mof_H 	H 	0.6233	0.2156	0.9349	0.042
Mof_O 	O 	0.4572	0.5419	0.8597	-0.486
Mof_O 	O 	0.4562	0.5431	0.7887	-0.495
Mof_O 	O 	0.3581	0.6415	0.7142	-0.532
Mof_O 	O 	0.3151	0.6822	0.7527	-0.521
Mof_O 	O 	0.3218	0.7233	0.8962	-0.214
Mof_N 	N 	0.3854	0.6899	0.8966	-0.213
Mof_H 	H 	0.4101	0.6939	0.9099	0.116
Mof_C 	C 	0.4191	0.5966	0.8282	-0.152
Mof_C 	C 	0.3957	0.6031	0.7907	0.089
Mof_H 	H 	0.3969	0.5825	0.7681	0.012
Mof_C 	C 	0.3705	0.6397	0.7861	-0.167
Mof_C 	C 	0.3687	0.6698	0.8191	-0.012
Mof_H 	H 	0.3514	0.6948	0.816	0.05
Mof_C 	C 	0.3921	0.6633	0.8566	0.054
Mof_C 	C 	0.4173	0.6267	0.8611	-0.006
Mof_H 	H 	0.4334	0.6223	0.8867	0.039
Mof_C 	C 	0.4447	0.5595	0.8242	0.418
Mof_C 	C 	0.347	0.6552	0.7512	0.434
Mof_C 	C 	0.354	0.7091	0.918	0.198
Mof_C 	C 	0.3619	0.7265	0.9612	-0.053
Mof_C 	C 	0.373	0.7696	0.9613	-0.017
Mof_H 	H 	0.3767	0.7844	0.9349	0.042
Mof_O 	O 	0.1403	0.4572	0.4581	-0.486
Mof_O 	O 	0.2113	0.4562	0.4569	-0.495
Mof_O 	O 	0.2858	0.3581	0.3585	-0.532
Mof_O 	O 	0.2473	0.3151	0.3178	-0.521
Mof_O 	O 	0.1038	0.3218	0.2767	-0.214
Mof_N 	N 	0.1034	0.3854	0.3101	-0.213
Mof_H 	H 	0.0901	0.4101	0.3061	0.115
Mof_C 	C 	0.1718	0.4191	0.4034	-0.152
Mof_C 	C 	0.2093	0.3957	0.3969	0.089
Mof_H 	H 	0.2319	0.3969	0.4175	0.012
Mof_C 	C 	0.2139	0.3705	0.3603	-0.167
Mof_C 	C 	0.1809	0.3687	0.3302	-0.012
Mof_H 	H 	0.184	0.3514	0.3052	0.05
Mof_C 	C 	0.1434	0.3921	0.3367	0.053
Mof_C 	C 	0.1389	0.4173	0.3733	-0.006
Mof_H 	H 	0.1133	0.4334	0.3777	0.039
Mof_C 	C 	0.1758	0.4447	0.4405	0.418
Mof_C 	C 	0.2488	0.347	0.3448	0.434
Mof_C 	C 	0.082	0.354	0.2909	0.198
Mof_C 	C 	0.0388	0.3619	0.2735	-0.053
Mof_C 	C 	0.0387	0.373	0.2304	-0.017
Mof_H 	H 	0.0651	0.3767	0.2156	0.042
Mof_O 	O 	0.1403	0.5428	0.5419	-0.486
Mof_O 	O 	0.2113	0.5438	0.5431	-0.495
Mof_O 	O 	0.2858	0.6419	0.6415	-0.532
Mof_O 	O 	0.2473	0.6849	0.6822	-0.521
Mof_O 	O 	0.1038	0.6782	0.7233	-0.214
Mof_N 	N 	0.1034	0.6146	0.6899	-0.213
Mof_H 	H 	0.0901	0.5899	0.6939	0.115
Mof_C 	C 	0.1718	0.5809	0.5966	-0.152
Mof_C 	C 	0.2093	0.6043	0.6031	0.089
Mof_H 	H 	0.2319	0.6031	0.5825	0.012
Mof_C 	C 	0.2139	0.6295	0.6397	-0.167
Mof_C 	C 	0.1809	0.6313	0.6698	-0.012
Mof_H 	H 	0.184	0.6486	0.6948	0.05
Mof_C 	C 	0.1434	0.6079	0.6633	0.053
Mof_C 	C 	0.1389	0.5827	0.6267	-0.006
Mof_H 	H 	0.1133	0.5666	0.6223	0.039
Mof_C 	C 	0.1758	0.5553	0.5595	0.418
Mof_C 	C 	0.2488	0.653	0.6552	0.434
Mof_C 	C 	0.082	0.646	0.7091	0.198
Mof_C 	C 	0.0388	0.6381	0.7265	-0.053
Mof_C 	C 	0.0387	0.627	0.7696	-0.017
Mof_H 	H 	0.0651	0.6233	0.7844	0.042
Mof_O 	O 	0.8597	0.5428	0.4581	-0.486
Mof_O 	O 	0.7887	0.5438	0.4569	-0.495
Mof_O 	O 	0.7142	0.6419	0.3585	-0.532
Mof_O 	O 	0.7527	0.6849	0.3178	-0.521
Mof_O 	O 	0.8962	0.6782	0.2767	-0.214
Mof_N 	N 	0.8966	0.6146	0.3101	-0.213
Mof_H 	H 	0.9099	0.5899	0.3061	0.116
Mof_C 	C 	0.8282	0.5809	0.4034	-0.152
Mof_C 	C 	0.7907	0.6043	0.3969	0.089
Mof_H 	H 	0.7681	0.6031	0.4175	0.012
Mof_C 	C 	0.7861	0.6295	0.3603	-0.167
Mof_C 	C 	0.8191	0.6313	0.3302	-0.012
Mof_H 	H 	0.816	0.6486	0.3052	0.05
Mof_C 	C 	0.8566	0.6079	0.3367	0.054
Mof_C 	C 	0.8611	0.5827	0.3733	-0.006
Mof_H 	H 	0.8867	0.5666	0.3777	0.039
Mof_C 	C 	0.8242	0.5553	0.4405	0.418
Mof_C 	C 	0.7512	0.653	0.3448	0.434
Mof_C 	C 	0.918	0.646	0.2909	0.198
Mof_C 	C 	0.9612	0.6381	0.2735	-0.053
Mof_C 	C 	0.9613	0.627	0.2304	-0.017
Mof_H 	H 	0.9349	0.6233	0.2156	0.042
Mof_O 	O 	0.8597	0.4572	0.5419	-0.486
Mof_O 	O 	0.7887	0.4562	0.5431	-0.495
Mof_O 	O 	0.7142	0.3581	0.6415	-0.532
Mof_O 	O 	0.7527	0.3151	0.6822	-0.521
Mof_O 	O 	0.8962	0.3218	0.7233	-0.214
Mof_N 	N 	0.8966	0.3854	0.6899	-0.213
Mof_H 	H 	0.9099	0.4101	0.6939	0.116
Mof_C 	C 	0.8282	0.4191	0.5966	-0.152
Mof_C 	C 	0.7907	0.3957	0.6031	0.089
Mof_H 	H 	0.7681	0.3969	0.5825	0.012
Mof_C 	C 	0.7861	0.3705	0.6397	-0.167
Mof_C 	C 	0.8191	0.3687	0.6698	-0.012
Mof_H 	H 	0.816	0.3514	0.6948	0.05
Mof_C 	C 	0.8566	0.3921	0.6633	0.054
Mof_C 	C 	0.8611	0.4173	0.6267	-0.006
Mof_H 	H 	0.8867	0.4334	0.6223	0.039
Mof_C 	C 	0.8242	0.4447	0.5595	0.418
Mof_C 	C 	0.7512	0.347	0.6552	0.434
Mof_C 	C 	0.918	0.354	0.7091	0.198
Mof_C 	C 	0.9612	0.3619	0.7265	-0.053
Mof_C 	C 	0.9613	0.373	0.7696	-0.017
Mof_H 	H 	0.9349	0.3767	0.7844	0.042
Mof_O 	O 	0.4581	0.1403	0.4572	-0.486
Mof_O 	O 	0.4569	0.2113	0.4562	-0.495
Mof_O 	O 	0.3585	0.2858	0.3581	-0.532
Mof_O 	O 	0.3178	0.2473	0.3151	-0.521
Mof_O 	O 	0.2767	0.1038	0.3218	-0.214
Mof_N 	N 	0.3101	0.1034	0.3854	-0.213
Mof_H 	H 	0.3061	0.0901	0.4101	0.115
Mof_C 	C 	0.4034	0.1718	0.4191	-0.152
Mof_C 	C 	0.3969	0.2093	0.3957	0.089
Mof_H 	H 	0.4175	0.2319	0.3969	0.012
Mof_C 	C 	0.3603	0.2139	0.3705	-0.167
Mof_C 	C 	0.3302	0.1809	0.3687	-0.012
Mof_H 	H 	0.3052	0.184	0.3514	0.05
Mof_C 	C 	0.3367	0.1434	0.3921	0.053
Mof_C 	C 	0.3733	0.1389	0.4173	-0.006
Mof_H 	H 	0.3777	0.1133	0.4334	0.039
Mof_C 	C 	0.4405	0.1758	0.4447	0.418
Mof_C 	C 	0.3448	0.2488	0.347	0.434
Mof_C 	C 	0.2909	0.082	0.354	0.198
Mof_C 	C 	0.2735	0.0388	0.3619	-0.053
Mof_C 	C 	0.2304	0.0387	0.373	-0.017
Mof_H 	H 	0.2156	0.0651	0.3767	0.042
Mof_O 	O 	0.5419	0.1403	0.5428	-0.486
Mof_O 	O 	0.5431	0.2113	0.5438	-0.495
Mof_O 	O 	0.6415	0.2858	0.6419	-0.532
Mof_O 	O 	0.6822	0.2473	0.6849	-0.521
Mof_O 	O 	0.7233	0.1038	0.6782	-0.214
Mof_N 	N 	0.6899	0.1034	0.6146	-0.213
Mof_H 	H 	0.6939	0.0901	0.5899	0.115
Mof_C 	C 	0.5966	0.1718	0.5809	-0.152
Mof_C 	C 	0.6031	0.2093	0.6043	0.089
Mof_H 	H 	0.5825	0.2319	0.6031	0.012
Mof_C 	C 	0.6397	0.2139	0.6295	-0.167
Mof_C 	C 	0.6698	0.1809	0.6313	-0.012
Mof_H 	H 	0.6948	0.184	0.6486	0.05
Mof_C 	C 	0.6633	0.1434	0.6079	0.053
Mof_C 	C 	0.6267	0.1389	0.5827	-0.006
Mof_H 	H 	0.6223	0.1133	0.5666	0.039
Mof_C 	C 	0.5595	0.1758	0.5553	0.418
Mof_C 	C 	0.6552	0.2488	0.653	0.434
Mof_C 	C 	0.7091	0.082	0.646	0.198
Mof_C 	C 	0.7265	0.0388	0.6381	-0.053
Mof_C 	C 	0.7696	0.0387	0.627	-0.017
Mof_H 	H 	0.7844	0.0651	0.6233	0.042
Mof_O 	O 	0.4581	0.8597	0.5428	-0.486
Mof_O 	O 	0.4569	0.7887	0.5438	-0.495
Mof_O 	O 	0.3585	0.7142	0.6419	-0.532
Mof_O 	O 	0.3178	0.7527	0.6849	-0.521
Mof_O 	O 	0.2767	0.8962	0.6782	-0.214
Mof_N 	N 	0.3101	0.8966	0.6146	-0.213
Mof_H 	H 	0.3061	0.9099	0.5899	0.116
Mof_C 	C 	0.4034	0.8282	0.5809	-0.152
Mof_C 	C 	0.3969	0.7907	0.6043	0.089
Mof_H 	H 	0.4175	0.7681	0.6031	0.012
Mof_C 	C 	0.3603	0.7861	0.6295	-0.167
Mof_C 	C 	0.3302	0.8191	0.6313	-0.012
Mof_H 	H 	0.3052	0.816	0.6486	0.05
Mof_C 	C 	0.3367	0.8566	0.6079	0.054
Mof_C 	C 	0.3733	0.8611	0.5827	-0.006
Mof_H 	H 	0.3777	0.8867	0.5666	0.039
Mof_C 	C 	0.4405	0.8242	0.5553	0.418
Mof_C 	C 	0.3448	0.7512	0.653	0.434
Mof_C 	C 	0.2909	0.918	0.646	0.198
Mof_C 	C 	0.2735	0.9612	0.6381	-0.053
Mof_C 	C 	0.2304	0.9613	0.627	-0.017
Mof_H 	H 	0.2156	0.9349	0.6233	0.042
Mof_O 	O 	0.5419	0.8597	0.4572	-0.486
Mof_O 	O 	0.5431	0.7887	0.4562	-0.495
Mof_O 	O 	0.6415	0.7142	0.3581	-0.532
Mof_O 	O 	0.6822	0.7527	0.3151	-0.521
Mof_O 	O 	0.7233	0.8962	0.3218	-0.214
Mof_N 	N 	0.6899	0.8966	0.3854	-0.213
Mof_H 	H 	0.6939	0.9099	0.4101	0.116
Mof_C 	C 	0.5966	0.8282	0.4191	-0.152
Mof_C 	C 	0.6031	0.7907	0.3957	0.089
Mof_H 	H 	0.5825	0.7681	0.3969	0.012
Mof_C 	C 	0.6397	0.7861	0.3705	-0.167
Mof_C 	C 	0.6698	0.8191	0.3687	-0.012
Mof_H 	H 	0.6948	0.816	0.3514	0.05
Mof_C 	C 	0.6633	0.8566	0.3921	0.054
Mof_C 	C 	0.6267	0.8611	0.4173	-0.006
Mof_H 	H 	0.6223	0.8867	0.4334	0.039
Mof_C 	C 	0.5595	0.8242	0.4447	0.418
Mof_C 	C 	0.6552	0.7512	0.347	0.434
Mof_C 	C 	0.7091	0.918	0.354	0.198
Mof_C 	C 	0.7265	0.9612	0.3619	-0.053
Mof_C 	C 	0.7696	0.9613	0.373	-0.017
Mof_H 	H 	0.7844	0.9349	0.3767	0.042
Mof_O 	O 	0.5428	0.5419	0.8597	-0.486
Mof_O 	O 	0.5438	0.5431	0.7887	-0.495
Mof_O 	O 	0.6419	0.6415	0.7142	-0.532
Mof_O 	O 	0.6849	0.6822	0.7527	-0.521
Mof_O 	O 	0.6782	0.7233	0.8962	-0.214
Mof_N 	N 	0.6146	0.6899	0.8966	-0.213
Mof_H 	H 	0.5899	0.6939	0.9099	0.116
Mof_C 	C 	0.5809	0.5966	0.8282	-0.152
Mof_C 	C 	0.6043	0.6031	0.7907	0.089
Mof_H 	H 	0.6031	0.5825	0.7681	0.012
Mof_C 	C 	0.6295	0.6397	0.7861	-0.167
Mof_C 	C 	0.6313	0.6698	0.8191	-0.012
Mof_H 	H 	0.6486	0.6948	0.816	0.05
Mof_C 	C 	0.6079	0.6633	0.8566	0.054
Mof_C 	C 	0.5827	0.6267	0.8611	-0.006
Mof_H 	H 	0.5666	0.6223	0.8867	0.039
Mof_C 	C 	0.5553	0.5595	0.8242	0.418
Mof_C 	C 	0.653	0.6552	0.7512	0.434
Mof_C 	C 	0.646	0.7091	0.918	0.198
Mof_C 	C 	0.6381	0.7265	0.9612	-0.052
Mof_C 	C 	0.627	0.7696	0.9613	-0.017
Mof_H 	H 	0.6233	0.7844	0.9349	0.042
Mof_O 	O 	0.4572	0.4581	0.8597	-0.486
Mof_O 	O 	0.4562	0.4569	0.7887	-0.495
Mof_O 	O 	0.3581	0.3585	0.7142	-0.532
Mof_O 	O 	0.3151	0.3178	0.7527	-0.521
Mof_O 	O 	0.3218	0.2767	0.8962	-0.214
Mof_N 	N 	0.3854	0.3101	0.8966	-0.213
Mof_H 	H 	0.4101	0.3061	0.9099	0.116
Mof_C 	C 	0.4191	0.4034	0.8282	-0.152
Mof_C 	C 	0.3957	0.3969	0.7907	0.089
Mof_H 	H 	0.3969	0.4175	0.7681	0.012
Mof_C 	C 	0.3705	0.3603	0.7861	-0.167
Mof_C 	C 	0.3687	0.3302	0.8191	-0.012
Mof_H 	H 	0.3514	0.3052	0.816	0.05
Mof_C 	C 	0.3921	0.3367	0.8566	0.053
Mof_C 	C 	0.4173	0.3733	0.8611	-0.006
Mof_H 	H 	0.4334	0.3777	0.8867	0.039
Mof_C 	C 	0.4447	0.4405	0.8242	0.418
Mof_C 	C 	0.347	0.3448	0.7512	0.434
Mof_C 	C 	0.354	0.2909	0.918	0.198
Mof_C 	C 	0.3619	0.2735	0.9612	-0.053
Mof_C 	C 	0.373	0.2304	0.9613	-0.017
Mof_H 	H 	0.3767	0.2156	0.9349	0.042
Mof_O 	O 	0.4572	0.5419	0.1403	-0.486
Mof_O 	O 	0.4562	0.5431	0.2113	-0.495
Mof_O 	O 	0.3581	0.6415	0.2858	-0.532
Mof_O 	O 	0.3151	0.6822	0.2473	-0.521
Mof_O 	O 	0.3218	0.7233	0.1038	-0.214
Mof_N 	N 	0.3854	0.6899	0.1034	-0.213
Mof_H 	H 	0.4101	0.6939	0.0901	0.115
Mof_C 	C 	0.4191	0.5966	0.1718	-0.152
Mof_C 	C 	0.3957	0.6031	0.2093	0.089
Mof_H 	H 	0.3969	0.5825	0.2319	0.012
Mof_C 	C 	0.3705	0.6397	0.2139	-0.167
Mof_C 	C 	0.3687	0.6698	0.1809	-0.012
Mof_H 	H 	0.3514	0.6948	0.184	0.05
Mof_C 	C 	0.3921	0.6633	0.1434	0.053
Mof_C 	C 	0.4173	0.6267	0.1389	-0.006
Mof_H 	H 	0.4334	0.6223	0.1133	0.039
Mof_C 	C 	0.4447	0.5595	0.1758	0.418
Mof_C 	C 	0.347	0.6552	0.2488	0.434
Mof_C 	C 	0.354	0.7091	0.082	0.198
Mof_C 	C 	0.3619	0.7265	0.0388	-0.053
Mof_C 	C 	0.373	0.7696	0.0387	-0.017
Mof_H 	H 	0.3767	0.7844	0.0651	0.042
Mof_O 	O 	0.5428	0.4581	0.1403	-0.486
Mof_O 	O 	0.5438	0.4569	0.2113	-0.495
Mof_O 	O 	0.6419	0.3585	0.2858	-0.532
Mof_O 	O 	0.6849	0.3178	0.2473	-0.521
Mof_O 	O 	0.6782	0.2767	0.1038	-0.214
Mof_N 	N 	0.6146	0.3101	0.1034	-0.213
Mof_H 	H 	0.5899	0.3061	0.0901	0.115
Mof_C 	C 	0.5809	0.4034	0.1718	-0.152
Mof_C 	C 	0.6043	0.3969	0.2093	0.089
Mof_H 	H 	0.6031	0.4175	0.2319	0.012
Mof_C 	C 	0.6295	0.3603	0.2139	-0.167
Mof_C 	C 	0.6313	0.3302	0.1809	-0.012
Mof_H 	H 	0.6486	0.3052	0.184	0.05
Mof_C 	C 	0.6079	0.3367	0.1434	0.053
Mof_C 	C 	0.5827	0.3733	0.1389	-0.006
Mof_H 	H 	0.5666	0.3777	0.1133	0.039
Mof_C 	C 	0.5553	0.4405	0.1758	0.418
Mof_C 	C 	0.653	0.3448	0.2488	0.434
Mof_C 	C 	0.646	0.2909	0.082	0.198
Mof_C 	C 	0.6381	0.2735	0.0388	-0.053
Mof_C 	C 	0.627	0.2304	0.0387	-0.018
Mof_H 	H 	0.6233	0.2156	0.0651	0.042
Mof_O 	O 	0.8597	0.5428	0.5419	-0.486
Mof_O 	O 	0.7887	0.5438	0.5431	-0.495
Mof_O 	O 	0.7142	0.6419	0.6415	-0.532
Mof_O 	O 	0.7527	0.6849	0.6822	-0.521
Mof_O 	O 	0.8962	0.6782	0.7233	-0.214
Mof_N 	N 	0.8966	0.6146	0.6899	-0.213
Mof_H 	H 	0.9099	0.5899	0.6939	0.116
Mof_C 	C 	0.8282	0.5809	0.5966	-0.152
Mof_C 	C 	0.7907	0.6043	0.6031	0.089
Mof_H 	H 	0.7681	0.6031	0.5825	0.012
Mof_C 	C 	0.7861	0.6295	0.6397	-0.167
Mof_C 	C 	0.8191	0.6313	0.6698	-0.012
Mof_H 	H 	0.816	0.6486	0.6948	0.05
Mof_C 	C 	0.8566	0.6079	0.6633	0.054
Mof_C 	C 	0.8611	0.5827	0.6267	-0.006
Mof_H 	H 	0.8867	0.5666	0.6223	0.039
Mof_C 	C 	0.8242	0.5553	0.5595	0.418
Mof_C 	C 	0.7512	0.653	0.6552	0.434
Mof_C 	C 	0.918	0.646	0.7091	0.198
Mof_C 	C 	0.9612	0.6381	0.7265	-0.052
Mof_C 	C 	0.9613	0.627	0.7696	-0.017
Mof_H 	H 	0.9349	0.6233	0.7844	0.042
Mof_O 	O 	0.8597	0.4572	0.4581	-0.486
Mof_O 	O 	0.7887	0.4562	0.4569	-0.495
Mof_O 	O 	0.7142	0.3581	0.3585	-0.532
Mof_O 	O 	0.7527	0.3151	0.3178	-0.521
Mof_O 	O 	0.8962	0.3218	0.2767	-0.214
Mof_N 	N 	0.8966	0.3854	0.3101	-0.213
Mof_H 	H 	0.9099	0.4101	0.3061	0.116
Mof_C 	C 	0.8282	0.4191	0.4034	-0.152
Mof_C 	C 	0.7907	0.3957	0.3969	0.089
Mof_H 	H 	0.7681	0.3969	0.4175	0.012
Mof_C 	C 	0.7861	0.3705	0.3603	-0.167
Mof_C 	C 	0.8191	0.3687	0.3302	-0.012
Mof_H 	H 	0.816	0.3514	0.3052	0.05
Mof_C 	C 	0.8566	0.3921	0.3367	0.053
Mof_C 	C 	0.8611	0.4173	0.3733	-0.006
Mof_H 	H 	0.8867	0.4334	0.3777	0.039
Mof_C 	C 	0.8242	0.4447	0.4405	0.418
Mof_C 	C 	0.7512	0.347	0.3448	0.434
Mof_C 	C 	0.918	0.354	0.2909	0.198
Mof_C 	C 	0.9612	0.3619	0.2735	-0.053
Mof_C 	C 	0.9613	0.373	0.2304	-0.017
Mof_H 	H 	0.9349	0.3767	0.2156	0.042
Mof_O 	O 	0.1403	0.4572	0.5419	-0.486
Mof_O 	O 	0.2113	0.4562	0.5431	-0.495
Mof_O 	O 	0.2858	0.3581	0.6415	-0.532
Mof_O 	O 	0.2473	0.3151	0.6822	-0.521
Mof_O 	O 	0.1038	0.3218	0.7233	-0.214
Mof_N 	N 	0.1034	0.3854	0.6899	-0.213
Mof_H 	H 	0.0901	0.4101	0.6939	0.115
Mof_C 	C 	0.1718	0.4191	0.5966	-0.152
Mof_C 	C 	0.2093	0.3957	0.6031	0.089
Mof_H 	H 	0.2319	0.3969	0.5825	0.012
Mof_C 	C 	0.2139	0.3705	0.6397	-0.167
Mof_C 	C 	0.1809	0.3687	0.6698	-0.012
Mof_H 	H 	0.184	0.3514	0.6948	0.05
Mof_C 	C 	0.1434	0.3921	0.6633	0.053
Mof_C 	C 	0.1389	0.4173	0.6267	-0.006
Mof_H 	H 	0.1133	0.4334	0.6223	0.039
Mof_C 	C 	0.1758	0.4447	0.5595	0.418
Mof_C 	C 	0.2488	0.347	0.6552	0.434
Mof_C 	C 	0.082	0.354	0.7091	0.198
Mof_C 	C 	0.0388	0.3619	0.7265	-0.053
Mof_C 	C 	0.0387	0.373	0.7696	-0.017
Mof_H 	H 	0.0651	0.3767	0.7844	0.042
Mof_O 	O 	0.1403	0.5428	0.4581	-0.486
Mof_O 	O 	0.2113	0.5438	0.4569	-0.495
Mof_O 	O 	0.2858	0.6419	0.3585	-0.532
Mof_O 	O 	0.2473	0.6849	0.3178	-0.521
Mof_O 	O 	0.1038	0.6782	0.2767	-0.214
Mof_N 	N 	0.1034	0.6146	0.3101	-0.213
Mof_H 	H 	0.0901	0.5899	0.3061	0.115
Mof_C 	C 	0.1718	0.5809	0.4034	-0.152
Mof_C 	C 	0.2093	0.6043	0.3969	0.089
Mof_H 	H 	0.2319	0.6031	0.4175	0.012
Mof_C 	C 	0.2139	0.6295	0.3603	-0.167
Mof_C 	C 	0.1809	0.6313	0.3302	-0.012
Mof_H 	H 	0.184	0.6486	0.3052	0.05
Mof_C 	C 	0.1434	0.6079	0.3367	0.053
Mof_C 	C 	0.1389	0.5827	0.3733	-0.006
Mof_H 	H 	0.1133	0.5666	0.3777	0.039
Mof_C 	C 	0.1758	0.5553	0.4405	0.418
Mof_C 	C 	0.2488	0.653	0.3448	0.434
Mof_C 	C 	0.082	0.646	0.2909	0.198
Mof_C 	C 	0.0388	0.6381	0.2735	-0.053
Mof_C 	C 	0.0387	0.627	0.2304	-0.018
Mof_H 	H 	0.0651	0.6233	0.2156	0.042
Mof_O 	O 	0.5419	0.8597	0.5428	-0.486
Mof_O 	O 	0.5431	0.7887	0.5438	-0.495
Mof_O 	O 	0.6415	0.7142	0.6419	-0.532
Mof_O 	O 	0.6822	0.7527	0.6849	-0.521
Mof_O 	O 	0.7233	0.8962	0.6782	-0.214
Mof_N 	N 	0.6899	0.8966	0.6146	-0.213
Mof_H 	H 	0.6939	0.9099	0.5899	0.116
Mof_C 	C 	0.5966	0.8282	0.5809	-0.152
Mof_C 	C 	0.6031	0.7907	0.6043	0.089
Mof_H 	H 	0.5825	0.7681	0.6031	0.012
Mof_C 	C 	0.6397	0.7861	0.6295	-0.167
Mof_C 	C 	0.6698	0.8191	0.6313	-0.012
Mof_H 	H 	0.6948	0.816	0.6486	0.05
Mof_C 	C 	0.6633	0.8566	0.6079	0.054
Mof_C 	C 	0.6267	0.8611	0.5827	-0.006
Mof_H 	H 	0.6223	0.8867	0.5666	0.039
Mof_C 	C 	0.5595	0.8242	0.5553	0.418
Mof_C 	C 	0.6552	0.7512	0.653	0.434
Mof_C 	C 	0.7091	0.918	0.646	0.198
Mof_C 	C 	0.7265	0.9612	0.6381	-0.052
Mof_C 	C 	0.7696	0.9613	0.627	-0.017
Mof_H 	H 	0.7844	0.9349	0.6233	0.042
Mof_O 	O 	0.4581	0.8597	0.4572	-0.486
Mof_O 	O 	0.4569	0.7887	0.4562	-0.495
Mof_O 	O 	0.3585	0.7142	0.3581	-0.532
Mof_O 	O 	0.3178	0.7527	0.3151	-0.521
Mof_O 	O 	0.2767	0.8962	0.3218	-0.214
Mof_N 	N 	0.3101	0.8966	0.3854	-0.213
Mof_H 	H 	0.3061	0.9099	0.4101	0.116
Mof_C 	C 	0.4034	0.8282	0.4191	-0.152
Mof_C 	C 	0.3969	0.7907	0.3957	0.089
Mof_H 	H 	0.4175	0.7681	0.3969	0.012
Mof_C 	C 	0.3603	0.7861	0.3705	-0.167
Mof_C 	C 	0.3302	0.8191	0.3687	-0.012
Mof_H 	H 	0.3052	0.816	0.3514	0.05
Mof_C 	C 	0.3367	0.8566	0.3921	0.053
Mof_C 	C 	0.3733	0.8611	0.4173	-0.006
Mof_H 	H 	0.3777	0.8867	0.4334	0.039
Mof_C 	C 	0.4405	0.8242	0.4447	0.418
Mof_C 	C 	0.3448	0.7512	0.347	0.434
Mof_C 	C 	0.2909	0.918	0.354	0.198
Mof_C 	C 	0.2735	0.9612	0.3619	-0.053
Mof_C 	C 	0.2304	0.9613	0.373	-0.017
Mof_H 	H 	0.2156	0.9349	0.3767	0.042
Mof_O 	O 	0.5419	0.1403	0.4572	-0.486
Mof_O 	O 	0.5431	0.2113	0.4562	-0.495
Mof_O 	O 	0.6415	0.2858	0.3581	-0.532
Mof_O 	O 	0.6822	0.2473	0.3151	-0.521
Mof_O 	O 	0.7233	0.1038	0.3218	-0.214
Mof_N 	N 	0.6899	0.1034	0.3854	-0.213
Mof_H 	H 	0.6939	0.0901	0.4101	0.115
Mof_C 	C 	0.5966	0.1718	0.4191	-0.152
Mof_C 	C 	0.6031	0.2093	0.3957	0.089
Mof_H 	H 	0.5825	0.2319	0.3969	0.012
Mof_C 	C 	0.6397	0.2139	0.3705	-0.167
Mof_C 	C 	0.6698	0.1809	0.3687	-0.012
Mof_H 	H 	0.6948	0.184	0.3514	0.05
Mof_C 	C 	0.6633	0.1434	0.3921	0.053
Mof_C 	C 	0.6267	0.1389	0.4173	-0.006
Mof_H 	H 	0.6223	0.1133	0.4334	0.039
Mof_C 	C 	0.5595	0.1758	0.4447	0.418
Mof_C 	C 	0.6552	0.2488	0.347	0.434
Mof_C 	C 	0.7091	0.082	0.354	0.198
Mof_C 	C 	0.7265	0.0388	0.3619	-0.053
Mof_C 	C 	0.7696	0.0387	0.373	-0.017
Mof_H 	H 	0.7844	0.0651	0.3767	0.042
Mof_O 	O 	0.4581	0.1403	0.5428	-0.486
Mof_O 	O 	0.4569	0.2113	0.5438	-0.495
Mof_O 	O 	0.3585	0.2858	0.6419	-0.532
Mof_O 	O 	0.3178	0.2473	0.6849	-0.521
Mof_O 	O 	0.2767	0.1038	0.6782	-0.214
Mof_N 	N 	0.3101	0.1034	0.6146	-0.213
Mof_H 	H 	0.3061	0.0901	0.5899	0.115
Mof_C 	C 	0.4034	0.1718	0.5809	-0.152
Mof_C 	C 	0.3969	0.2093	0.6043	0.089
Mof_H 	H 	0.4175	0.2319	0.6031	0.012
Mof_C 	C 	0.3603	0.2139	0.6295	-0.167
Mof_C 	C 	0.3302	0.1809	0.6313	-0.012
Mof_H 	H 	0.3052	0.184	0.6486	0.05
Mof_C 	C 	0.3367	0.1434	0.6079	0.053
Mof_C 	C 	0.3733	0.1389	0.5827	-0.006
Mof_H 	H 	0.3777	0.1133	0.5666	0.039
Mof_C 	C 	0.4405	0.1758	0.5553	0.418
Mof_C 	C 	0.3448	0.2488	0.653	0.434
Mof_C 	C 	0.2909	0.082	0.646	0.198
Mof_C 	C 	0.2735	0.0388	0.6381	-0.053
Mof_C 	C 	0.2304	0.0387	0.627	-0.018
Mof_H 	H 	0.2156	0.0651	0.6233	0.042
Mof_Zn	Zn	0.5	0.5	0.12743	1.227
Mof_Zn	Zn	0.5	0.5	0.22334	1.216
Mof_Zn	Zn	0.5	0.5	0.87257	1.227
Mof_Zn	Zn	0.5	0.5	0.77666	1.216
Mof_Zn	Zn	0.12743	0.5	0.5	1.227
Mof_Zn	Zn	0.22334	0.5	0.5	1.216
Mof_Zn	Zn	0.87257	0.5	0.5	1.227
Mof_Zn	Zn	0.77666	0.5	0.5	1.216
Mof_Zn	Zn	0.5	0.12743	0.5	1.227
Mof_Zn	Zn	0.5	0.22334	0.5	1.216
Mof_Zn	Zn	0.5	0.87257	0.5	1.227
Mof_Zn	Zn	0.5	0.77666	0.5	1.216
Mof_Zn	Zn	0.34329	0.34329	0.34329	1.198
Mof_Zn	Zn	0.27804	0.27804	0.27804	1.192
Mof_Zn	Zn	0.65671	0.65671	0.34329	1.198
Mof_Zn	Zn	0.72196	0.72196	0.27804	1.193
Mof_Zn	Zn	0.65671	0.34329	0.65671	1.198
Mof_Zn	Zn	0.72196	0.27804	0.72196	1.193
Mof_Zn	Zn	0.34329	0.65671	0.65671	1.198
Mof_Zn	Zn	0.27804	0.72196	0.72196	1.193
Mof_Zn	Zn	0.65671	0.65671	0.65671	1.198
Mof_Zn	Zn	0.72196	0.72196	0.72196	1.193
Mof_Zn	Zn	0.34329	0.34329	0.65671	1.198
Mof_Zn	Zn	0.27804	0.27804	0.72196	1.193
Mof_Zn	Zn	0.34329	0.65671	0.34329	1.198
Mof_Zn	Zn	0.27804	0.72196	0.27804	1.193
Mof_Zn	Zn	0.65671	0.34329	0.34329	1.198
Mof_Zn	Zn	0.72196	0.27804	0.27804	1.193
Mof_C 	C 	0.3568	0.2955	-0	-0.013
Mof_H 	H 	0.3499	0.3253	-0	0.038
Mof_C 	C 	0.3788	0.2087	-0	-0.052
Mof_H 	H 	0.3867	0.1791	-0	0.048
Mof_C 	C 	0.6432	0.7045	-0	-0.013
Mof_H 	H 	0.6501	0.6747	-0	0.038
Mof_C 	C 	0.6212	0.7913	-0	-0.052
Mof_H 	H 	0.6133	0.8209	-0	0.048
Mof_C 	C 	0.6432	0.2955	-0	-0.013
Mof_H 	H 	0.6501	0.3253	-0	0.038
Mof_C 	C 	0.6212	0.2087	-0	-0.052
Mof_H 	H 	0.6133	0.1791	-0	0.048
Mof_C 	C 	0.3568	0.7045	-0	-0.013
Mof_H 	H 	0.3499	0.6747	-0	0.038
Mof_C 	C 	0.3788	0.7913	-0	-0.052
Mof_H 	H 	0.3867	0.8209	-0	0.048
Mof_C 	C 	1.45327e-32	0.3568	0.2955	-0.013
Mof_H 	H 	7.93204e-33	0.3499	0.3253	0.038
Mof_C 	C 	9.17295e-33	0.3788	0.2087	-0.052
Mof_H 	H 	6.71517e-34	0.3867	0.1791	0.048
Mof_C 	C 	1.60662e-32	0.6432	0.7045	-0.013
Mof_H 	H 	1.59544e-32	0.6501	0.6747	0.038
Mof_C 	C 	2.3104e-32	0.6212	0.7913	-0.052
Mof_H 	H 	-3.63448e-33	0.6133	0.8209	0.048
Mof_C 	C 	7.82031e-33	0.6432	0.2955	-0.013
Mof_H 	H 	1.21968e-33	0.6501	0.3253	0.038
Mof_C 	C 	1.25291e-32	0.6212	0.2087	-0.052
Mof_H 	H 	6.71517e-34	0.6133	0.1791	0.048
Mof_C 	C 	9.35382e-33	0.3568	0.7045	-0.013
Mof_H 	H 	2.52972e-33	0.3499	0.6747	0.038
Mof_C 	C 	9.67926e-33	0.3788	0.7913	-0.052
Mof_H 	H 	3.07788e-33	0.3867	0.8209	0.048
Mof_C 	C 	0.2955	0	0.3568	-0.013
Mof_H 	H 	0.3253	3.35618e-33	0.3499	0.038
Mof_C 	C 	0.2087	3.35618e-33	0.3788	-0.052
Mof_H 	H 	0.1791	3.35618e-33	0.3867	0.048
Mof_C 	C 	0.7045	6.71236e-33	0.6432	-0.013
Mof_H 	H 	0.6747	0	0.6501	0.038
Mof_C 	C 	0.7913	6.71236e-33	0.6212	-0.052
Mof_H 	H 	0.8209	0	0.6133	0.048
Mof_C 	C 	0.2955	6.71236e-33	0.6432	-0.013
Mof_H 	H 	0.3253	0	0.6501	0.038
Mof_C 	C 	0.2087	6.71236e-33	0.6212	-0.052
Mof_H 	H 	0.1791	0	0.6133	0.048
Mof_C 	C 	0.7045	0	0.3568	-0.013
Mof_H 	H 	0.6747	3.35618e-33	0.3499	0.038
Mof_C 	C 	0.7913	3.35618e-33	0.3788	-0.052
Mof_H 	H 	0.8209	3.35618e-33	0.3867	0.048
_end
