data_functionalizedCrystal
_audit_creation_method	'EQeq! by Chris Wilmer'
_symmetry_space_group_name_H-M	'P1'
_symmetry_Int_Tables_number	1
_symmetry_cell_setting	triclinic
loop_
_symmetry_equiv_pos_as_xyz
  x,y,z
_cell_length_a	7.1722
_cell_length_b	12.8109
_cell_length_c	17.3162
_cell_angle_alpha	90
_cell_angle_beta	90.933
_cell_angle_gamma	90
loop_
_atom_site_label
_atom_site_type_symbol
_atom_site_fract_x
_atom_site_fract_y
_atom_site_fract_z
_atom_site_charge
Mof_O 	O 	0.1044	0.38175	0.06817	-0.591
Mof_O 	O 	0.40913	0.40769	0.08749	-0.536
Mof_O 	O 	0.08254	0.07144	0.39912	-0.583
Mof_O 	O 	0.38757	0.09719	0.41828	-0.533
Mof_O 	O 	0.74973	0.40901	0.00547	-1.366
Mof_H 	H 	0.7586	0.3523	0.9803	0.601
Mof_H 	H 	0.7489	0.391	0.0515	0.484
Mof_C 	C 	0.2571	0.36354	0.10175	0.415
Mof_C 	C 	0.2389	0.10445	0.37877	0.403
Mof_C 	C 	0.2556	0.28494	0.16699	-0.104
Mof_C 	C 	0.1022	0.28266	0.21314	-0.126
Mof_H 	H 	0.9991	0.3234	0.2002	0.135
Mof_C 	C 	0.0977	0.21981	0.27971	-0.125
Mof_H 	H 	0.9904	0.2184	0.3091	0.137
Mof_C 	C 	0.2485	0.16061	0.30203	-0.102
Mof_C 	C 	0.4083	0.15625	0.25359	0.03
Mof_C 	C 	0.4098	0.21744	0.18448	0.026
Mof_C 	C 	0.5616	0.20563	0.1338	-0.083
Mof_H 	H 	0.5621	0.2431	0.0878	0.015
Mof_C 	C 	0.7068	0.14072	0.15099	-0.055
Mof_H 	H 	0.8057	0.135	0.1172	0.017
Mof_C 	C 	0.7077	0.08256	0.21955	-0.036
Mof_H 	H 	0.808	0.039	0.2314	0.017
Mof_C 	C 	0.5628	0.08942	0.26884	-0.095
Mof_H 	H 	0.5647	0.0494	0.3137	0.037
Mof_O 	O 	0.8956	0.88175	0.43183	-0.402
Mof_O 	O 	0.59087	0.90769	0.41251	-0.421
Mof_O 	O 	0.91746	0.57144	0.10088	-0.468
Mof_O 	O 	0.61243	0.59719	0.08172	-0.525
Mof_O 	O 	0.25027	0.90901	0.49453	-1.013
Mof_H 	H 	0.2414	0.8523	0.5197	0.374
Mof_H 	H 	0.2511	0.891	0.4485	0.398
Mof_C 	C 	0.7429	0.86354	0.39825	0.439
Mof_C 	C 	0.7611	0.60445	0.12123	0.443
Mof_C 	C 	0.7444	0.78494	0.33301	-0.115
Mof_C 	C 	0.8978	0.78266	0.28686	0.096
Mof_H 	H 	0.0009	0.8234	0.2998	-0.026
Mof_C 	C 	0.9023	0.71981	0.22029	0.131
Mof_H 	H 	0.0096	0.7184	0.1909	-0.059
Mof_C 	C 	0.7515	0.66061	0.19797	-0.155
Mof_C 	C 	0.5917	0.65625	0.24641	0.076
Mof_C 	C 	0.5902	0.71744	0.31552	0.046
Mof_C 	C 	0.4384	0.70563	0.3662	-0.063
Mof_H 	H 	0.4379	0.7431	0.4122	0.049
Mof_C 	C 	0.2932	0.64072	0.34901	-0.048
Mof_H 	H 	0.1943	0.635	0.3828	0.026
Mof_C 	C 	0.2923	0.58256	0.28045	-0.004
Mof_H 	H 	0.192	0.539	0.2686	0.019
Mof_C 	C 	0.4372	0.58942	0.23116	-0.105
Mof_H 	H 	0.4353	0.5494	0.1863	0.081
Mof_O 	O 	0.8956	0.61825	0.93183	-0.399
Mof_O 	O 	0.59087	0.59231	0.91251	-0.458
Mof_O 	O 	0.91746	0.92856	0.60088	-0.376
Mof_O 	O 	0.61243	0.90281	0.58172	-0.441
Mof_O 	O 	0.25027	0.59099	0.99453	-0.802
Mof_H 	H 	0.2414	0.6477	0.0197	0.202
Mof_H 	H 	0.2511	0.609	0.9485	0.317
Mof_C 	C 	0.7429	0.63646	0.89825	0.445
Mof_C 	C 	0.7611	0.89555	0.62123	0.428
Mof_C 	C 	0.7444	0.71506	0.83301	-0.129
Mof_C 	C 	0.8978	0.71734	0.78686	0.103
Mof_H 	H 	0.0009	0.6766	0.7998	-0.051
Mof_C 	C 	0.9023	0.78019	0.72029	0.104
Mof_H 	H 	0.0096	0.7816	0.6909	-0.05
Mof_C 	C 	0.7515	0.83939	0.69797	-0.126
Mof_C 	C 	0.5917	0.84375	0.74641	0.076
Mof_C 	C 	0.5902	0.78256	0.81552	0.064
Mof_C 	C 	0.4384	0.79437	0.8662	-0.063
Mof_H 	H 	0.4379	0.7569	0.9122	0.087
Mof_C 	C 	0.2932	0.85928	0.84901	-0.023
Mof_H 	H 	0.1943	0.865	0.8828	0.068
Mof_C 	C 	0.2923	0.91744	0.78045	0.01
Mof_H 	H 	0.192	0.961	0.7686	0.067
Mof_C 	C 	0.4372	0.91058	0.73116	-0.089
Mof_H 	H 	0.4353	0.9506	0.6863	0.124
Mof_O 	O 	0.1044	0.11825	0.56817	-0.581
Mof_O 	O 	0.40913	0.09231	0.58749	-0.571
Mof_O 	O 	0.08254	0.42856	0.89912	-0.488
Mof_O 	O 	0.38757	0.40281	0.91828	-0.449
Mof_O 	O 	0.74973	0.09099	0.50547	-1.16
Mof_H 	H 	0.7586	0.1477	0.4803	0.436
Mof_H 	H 	0.7489	0.109	0.5515	0.404
Mof_C 	C 	0.2571	0.13646	0.60175	0.422
Mof_C 	C 	0.2389	0.39555	0.87877	0.391
Mof_C 	C 	0.2556	0.21506	0.66699	-0.12
Mof_C 	C 	0.1022	0.21734	0.71314	-0.11
Mof_H 	H 	0.9991	0.1766	0.7002	0.102
Mof_C 	C 	0.0977	0.28019	0.77971	-0.139
Mof_H 	H 	0.9904	0.2816	0.8091	0.135
Mof_C 	C 	0.2485	0.33939	0.80203	-0.077
Mof_C 	C 	0.4083	0.34375	0.75359	0.031
Mof_C 	C 	0.4098	0.28256	0.68448	0.043
Mof_C 	C 	0.5616	0.29437	0.6338	-0.083
Mof_H 	H 	0.5621	0.2569	0.5878	0.052
Mof_C 	C 	0.7068	0.35928	0.65099	-0.031
Mof_H 	H 	0.8057	0.365	0.6172	0.056
Mof_C 	C 	0.7077	0.41744	0.71955	-0.022
Mof_H 	H 	0.808	0.461	0.7314	0.062
Mof_C 	C 	0.5628	0.41058	0.76884	-0.08
Mof_H 	H 	0.5647	0.4506	0.8137	0.079
Mof_Mg	Mg	0.5	0.5	-0	1.47
Mof_Mg	Mg	0.5	0	0.5	1.466
Mof_Mg	Mg	-0	0.5	-0	1.461
Mof_Mg	Mg	4.59988e-33	0	0.5	1.457
_end
