data_functionalizedCrystal
_audit_creation_method	'EQeq! by Chris Wilmer'
_symmetry_space_group_name_H-M	'P1'
_symmetry_Int_Tables_number	1
_symmetry_cell_setting	triclinic
loop_
_symmetry_equiv_pos_as_xyz
  x,y,z
_cell_length_a	8.9778
_cell_length_b	9.873
_cell_length_c	17.253
_cell_angle_alpha	90
_cell_angle_beta	90
_cell_angle_gamma	92.618
loop_
_atom_site_label
_atom_site_type_symbol
_atom_site_fract_x
_atom_site_fract_y
_atom_site_fract_z
_atom_site_charge
Mof_Mg	Mg	0.62229	0.39732	0.9799	1.47
Mof_Mg	Mg	0.87771	0.10268	0.4799	1.461
Mof_Mg	Mg	0.37771	0.60268	0.0201	1.46
Mof_Mg	Mg	0.12229	0.89732	0.5201	1.468
Mof_Mg	Mg	-4.65115e-18	0.5	-0	1.47
Mof_Mg	Mg	0.5	-8.2621e-33	0.5	1.473
Mof_H 	H 	0.0165	0.7075	0.7883	0.011
Mof_H 	H 	0.0097	0.8356	0.6746	-0.013
Mof_H 	H 	0.5826	0.7006	0.6391	0.043
Mof_H 	H 	0.5897	0.5724	0.7526	0.049
Mof_H 	H 	0.808	0.9839	0.9081	0.072
Mof_H 	H 	0.0382	0.198	0.0732	0.06
Mof_H 	H 	0.4835	0.7925	0.2883	0.059
Mof_H 	H 	0.4903	0.6644	0.1746	0.011
Mof_H 	H 	0.9174	0.7994	0.1391	0.054
Mof_H 	H 	0.9103	0.9276	0.2526	0.083
Mof_H 	H 	0.692	0.5161	0.4081	0.052
Mof_H 	H 	0.4618	0.302	0.5732	0.044
Mof_H 	H 	0.9835	0.2925	0.2117	0.097
Mof_H 	H 	0.9903	0.1644	0.3254	0.031
Mof_H 	H 	0.4174	0.2994	0.3609	0.03
Mof_H 	H 	0.4103	0.4276	0.2474	0.051
Mof_H 	H 	0.192	0.0161	0.0919	0.021
Mof_H 	H 	0.9618	0.802	0.9268	0.024
Mof_H 	H 	0.5165	0.2075	0.7117	0.044
Mof_H 	H 	0.5097	0.3356	0.8254	0.02
Mof_H 	H 	0.0826	0.2006	0.8609	0.028
Mof_H 	H 	0.0897	0.0724	0.7474	0.019
Mof_H 	H 	0.308	0.4839	0.5919	0.045
Mof_H 	H 	0.5382	0.698	0.4268	0.045
Mof_C 	C 	0.8068	0.55305	0.85804	0.42
Mof_C 	C 	0.8035	0.62881	0.78242	-0.096
Mof_C 	C 	0.92786	0.7064	0.75821	0.031
Mof_C 	C 	0.92411	0.78251	0.69039	0.075
Mof_C 	C 	0.79552	0.7809	0.64593	-0.146
Mof_C 	C 	0.6709	0.7023	0.66953	0.024
Mof_C 	C 	0.6749	0.6263	0.73715	-0.021
Mof_C 	C 	0.78328	0.86801	0.57514	0.472
Mof_C 	C 	0.80828	0.22342	0.97772	0.397
Mof_C 	C 	0.9095	0.10854	0.98871	-0.044
Mof_C 	C 	0.886	0.99041	0.94531	0.024
Mof_C 	C 	0.0229	0.1176	0.04341	-0.155
Mof_C 	C 	0.6932	0.94695	0.35804	0.405
Mof_C 	C 	0.6965	0.87119	0.28242	-0.061
Mof_C 	C 	0.57214	0.7936	0.25821	-0.037
Mof_C 	C 	0.57589	0.71749	0.19039	0.029
Mof_C 	C 	0.70448	0.7191	0.14593	-0.155
Mof_C 	C 	0.8291	0.7977	0.16953	0.036
Mof_C 	C 	0.8251	0.8737	0.23715	-0.037
Mof_C 	C 	0.71672	0.63199	0.07514	0.473
Mof_C 	C 	0.69172	0.27658	0.47772	0.341
Mof_C 	C 	0.5905	0.39146	0.48871	-0.08
Mof_C 	C 	0.614	0.50959	0.44531	-0.019
Mof_C 	C 	0.4771	0.3824	0.54341	-0.019
Mof_C 	C 	0.1932	0.44695	0.14196	0.405
Mof_C 	C 	0.1965	0.37119	0.21758	-0.068
Mof_C 	C 	0.07214	0.2936	0.24179	-0.1
Mof_C 	C 	0.07589	0.21749	0.30961	-0.019
Mof_C 	C 	0.20448	0.2191	0.35407	-0.159
Mof_C 	C 	0.3291	0.2977	0.33047	0.023
Mof_C 	C 	0.3251	0.3737	0.26285	-0.049
Mof_C 	C 	0.21672	0.13199	0.42486	0.468
Mof_C 	C 	0.19172	0.77658	0.02228	0.278
Mof_C 	C 	0.0905	0.89146	0.01129	-0.148
Mof_C 	C 	0.114	0.00959	0.05469	-0.042
Mof_C 	C 	0.9771	0.8824	0.95659	0.133
Mof_C 	C 	0.3068	0.05305	0.64196	0.423
Mof_C 	C 	0.3035	0.12881	0.71758	-0.108
Mof_C 	C 	0.42786	0.2064	0.74179	-0.02
Mof_C 	C 	0.42411	0.28251	0.80961	0.004
Mof_C 	C 	0.29552	0.2809	0.85407	-0.139
Mof_C 	C 	0.1709	0.2023	0.83047	0.004
Mof_C 	C 	0.1749	0.1263	0.76285	-0.025
Mof_C 	C 	0.28328	0.36801	0.92486	0.462
Mof_C 	C 	0.30828	0.72342	0.52228	0.339
Mof_C 	C 	0.4095	0.60854	0.51129	-0.081
Mof_C 	C 	0.386	0.49041	0.55469	-0.018
Mof_C 	C 	0.5229	0.6176	0.45659	-0.017
Mof_O 	O 	0.68219	0.50744	0.88436	-0.503
Mof_O 	O 	0.93006	0.5426	0.88999	-0.454
Mof_O 	O 	0.90165	0.92851	0.54779	-0.645
Mof_O 	O 	0.65733	0.88185	0.54755	-0.497
Mof_O 	O 	0.68745	0.20538	0.9418	-0.477
Mof_O 	O 	0.84206	0.33853	0.0084	-0.663
Mof_O 	O 	0.81781	0.99256	0.38436	-0.468
Mof_O 	O 	0.56994	0.9574	0.38999	-0.453
Mof_O 	O 	0.59835	0.57149	0.04779	-0.728
Mof_O 	O 	0.84267	0.61815	0.04755	-0.533
Mof_O 	O 	0.81255	0.29462	0.4418	-0.46
Mof_O 	O 	0.65794	0.16147	0.5084	-0.637
Mof_O 	O 	0.31781	0.49256	0.11564	-0.537
Mof_O 	O 	0.06994	0.4574	0.11001	-0.522
Mof_O 	O 	0.09835	0.07149	0.45221	-0.757
Mof_O 	O 	0.34267	0.11815	0.45245	-0.55
Mof_O 	O 	0.31255	0.79462	0.0582	-0.442
Mof_O 	O 	0.15794	0.66147	0.9916	-0.545
Mof_O 	O 	0.18219	0.00744	0.61564	-0.566
Mof_O 	O 	0.43006	0.0426	0.61001	-0.52
Mof_O 	O 	0.40165	0.42851	0.95221	-0.675
Mof_O 	O 	0.15733	0.38185	0.95245	-0.507
Mof_O 	O 	0.18745	0.70538	0.5582	-0.461
Mof_O 	O 	0.34206	0.83853	0.4916	-0.585
_end
