data_functionalizedCrystal
_audit_creation_method	'EQeq! by Chris Wilmer'
_symmetry_space_group_name_H-M	'P1'
_symmetry_Int_Tables_number	1
_symmetry_cell_setting	triclinic
loop_
_symmetry_equiv_pos_as_xyz
  x,y,z
_cell_length_a	27.26
_cell_length_b	27.26
_cell_length_c	27.26
_cell_angle_alpha	90
_cell_angle_beta	90
_cell_angle_gamma	90
loop_
_atom_site_label
_atom_site_type_symbol
_atom_site_fract_x
_atom_site_fract_y
_atom_site_fract_z
_atom_site_charge
Mof_N 	N 	0.24823	0.2947	0.38923	-0.18
Mof_H 	H 	0.25672	0.26601	0.41323	0.091
Mof_N 	N 	0.27777	0.34275	0.32001	-0.158
Mof_C 	C 	0.1305	0.38806	0.43326	-0.143
Mof_C 	C 	0.20914	0.32738	0.40316	0.122
Mof_C 	C 	0.28113	0.30223	0.34877	0.176
Mof_C 	C 	0.15994	0.36383	0.46803	0.057
Mof_H 	H 	0.15306	0.36798	0.50693	0.03
Mof_C 	C 	0.1986	0.33373	0.45307	-0.113
Mof_H 	H 	0.2206	0.31532	0.48056	0.061
Mof_C 	C 	0.14069	0.38129	0.38311	0.055
Mof_H 	H 	0.11831	0.39885	0.35539	0.03
Mof_C 	C 	0.17941	0.35094	0.36818	-0.107
Mof_H 	H 	0.18513	0.34503	0.32937	0.069
Mof_N 	N 	0.38733	0.24061	0.29295	-0.18
Mof_H 	H 	0.40364	0.24162	0.25826	0.09
Mof_N 	N 	0.31734	0.2691	0.3402	-0.158
Mof_C 	C 	0.43153	0.12397	0.38741	-0.141
Mof_C 	C 	0.40056	0.20118	0.32545	0.121
Mof_C 	C 	0.34999	0.27628	0.30322	0.174
Mof_C 	C 	0.42846	0.11714	0.33635	0.056
Mof_H 	H 	0.43822	0.08231	0.31992	0.031
Mof_C 	C 	0.41363	0.15554	0.30574	-0.113
Mof_H 	H 	0.41216	0.14966	0.26648	0.061
Mof_C 	C 	0.41894	0.17	0.4071	0.054
Mof_H 	H 	0.42118	0.17656	0.44622	0.03
Mof_C 	C 	0.40356	0.20823	0.37642	-0.107
Mof_H 	H 	0.3952	0.24358	0.39242	0.067
Mof_N 	N 	0.30511	0.39344	0.25294	-0.181
Mof_H 	H 	0.2797	0.41952	0.265	0.09
Mof_N 	N 	0.34589	0.31669	0.27432	-0.158
Mof_C 	C 	0.39261	0.43692	0.13056	-0.144
Mof_C 	C 	0.37238	0.47169	0.16281	0.057
Mof_H 	H 	0.37824	0.51056	0.1571	0.029
Mof_C 	C 	0.34439	0.45678	0.20302	-0.114
Mof_H 	H 	0.32913	0.48434	0.22724	0.06
Mof_C 	C 	0.33602	0.40688	0.21223	0.121
Mof_C 	C 	0.35543	0.37193	0.17958	-0.108
Mof_H 	H 	0.34768	0.33331	0.18403	0.068
Mof_C 	C 	0.3839	0.38682	0.13942	0.055
Mof_H 	H 	0.39837	0.35917	0.11485	0.029
Mof_C 	C 	0.30963	0.34995	0.28238	0.174
Mof_N 	N 	0.23704	0.68727	0.88898	-0.181
Mof_H 	H 	0.22712	0.71482	0.91376	0.09
Mof_N 	N 	0.21132	0.64219	0.81619	-0.159
Mof_C 	C 	0.35611	0.59591	0.93393	-0.145
Mof_C 	C 	0.27659	0.65516	0.90307	0.121
Mof_C 	C 	0.20509	0.68035	0.84762	0.174
Mof_C 	C 	0.32534	0.61884	0.96841	0.062
Mof_H 	H 	0.33145	0.61418	0.00739	0.025
Mof_C 	C 	0.28624	0.64819	0.95309	-0.116
Mof_H 	H 	0.26322	0.66556	0.98041	0.062
Mof_C 	C 	0.34681	0.60327	0.88368	0.055
Mof_H 	H 	0.37023	0.58672	0.85619	0.029
Mof_C 	C 	0.30769	0.63295	0.86837	-0.109
Mof_H 	H 	0.30279	0.63944	0.82956	0.068
Mof_N 	N 	0.09397	0.73724	0.79586	-0.18
Mof_H 	H 	0.06919	0.72732	0.76832	0.089
Mof_N 	N 	0.16676	0.71151	0.84095	-0.159
Mof_C 	C 	0.04902	0.8563	0.88723	-0.138
Mof_C 	C 	0.07988	0.77679	0.82798	0.118
Mof_C 	C 	0.13533	0.70528	0.80279	0.174
Mof_C 	C 	0.01454	0.82553	0.8643	0.046
Mof_H 	H 	0.97556	0.83163	0.86896	0.036
Mof_C 	C 	0.02986	0.78643	0.83495	-0.11
Mof_H 	H 	0.00254	0.76341	0.81758	0.058
Mof_C 	C 	0.09926	0.847	0.87987	0.051
Mof_H 	H 	0.12676	0.87042	0.89642	0.029
Mof_C 	C 	0.11458	0.80788	0.85019	-0.107
Mof_H 	H 	0.15339	0.80298	0.8437	0.067
Mof_N 	N 	0.18708	0.59416	0.7459	-0.181
Mof_H 	H 	0.21463	0.56938	0.75582	0.09
Mof_N 	N 	0.142	0.66695	0.77163	-0.159
Mof_C 	C 	0.09572	0.54921	0.62684	-0.143
Mof_C 	C 	0.11865	0.51473	0.65761	0.056
Mof_H 	H 	0.11399	0.47575	0.6515	0.029
Mof_C 	C 	0.148	0.53005	0.6967	-0.114
Mof_H 	H 	0.16537	0.50273	0.71973	0.06
Mof_C 	C 	0.15497	0.58007	0.70635	0.12
Mof_C 	C 	0.13276	0.61477	0.67526	-0.108
Mof_H 	H 	0.13925	0.65358	0.68016	0.068
Mof_C 	C 	0.10308	0.59946	0.63614	0.054
Mof_H 	H 	0.08653	0.62695	0.61272	0.029
Mof_C 	C 	0.18016	0.63552	0.77786	0.174
Mof_N 	N 	0.73001	0.8053	0.0897	-0.181
Mof_H 	H 	0.71795	0.77989	0.06362	0.089
Mof_N 	N 	0.70863	0.84608	0.16645	-0.159
Mof_C 	C 	0.85238	0.8928	0.04622	-0.141
Mof_C 	C 	0.77071	0.83621	0.07626	0.121
Mof_C 	C 	0.70057	0.80982	0.13319	0.174
Mof_C 	C 	0.82013	0.87257	0.01145	0.051
Mof_H 	H 	0.82585	0.87844	0.97258	0.033
Mof_C 	C 	0.77992	0.84458	0.02636	-0.117
Mof_H 	H 	0.75571	0.82933	0.99881	0.065
Mof_C 	C 	0.84352	0.88409	0.09632	0.053
Mof_H 	H 	0.8681	0.89856	0.12397	0.029
Mof_C 	C 	0.80337	0.85563	0.11121	-0.108
Mof_H 	H 	0.79892	0.84788	0.14983	0.068
Mof_N 	N 	0.59372	0.74842	0.18844	-0.181
Mof_H 	H 	0.56972	0.7569	0.21713	0.09
Mof_N 	N 	0.66294	0.77796	0.14039	-0.159
Mof_C 	C 	0.54969	0.63069	0.09508	-0.144
Mof_C 	C 	0.57979	0.70933	0.15575	0.12
Mof_C 	C 	0.63418	0.78132	0.18091	0.174
Mof_C 	C 	0.51492	0.66013	0.1193	0.056
Mof_H 	H 	0.47602	0.65325	0.11516	0.029
Mof_C 	C 	0.52988	0.69879	0.14941	-0.114
Mof_H 	H 	0.50239	0.72079	0.16781	0.06
Mof_C 	C 	0.59984	0.64088	0.10185	0.054
Mof_H 	H 	0.62756	0.6185	0.08429	0.029
Mof_C 	C 	0.61477	0.6796	0.13219	-0.108
Mof_H 	H 	0.65358	0.68532	0.13811	0.068
Mof_N 	N 	0.69	0.88752	0.24253	-0.181
Mof_H 	H 	0.72469	0.90383	0.24152	0.089
Mof_N 	N 	0.64274	0.81753	0.21404	-0.158
Mof_C 	C 	0.59554	0.93172	0.35917	-0.144
Mof_C 	C 	0.57585	0.91913	0.31314	0.054
Mof_H 	H 	0.53673	0.92137	0.30657	0.028
Mof_C 	C 	0.60652	0.90375	0.27491	-0.108
Mof_H 	H 	0.59052	0.89539	0.23956	0.066
Mof_C 	C 	0.6575	0.90075	0.28196	0.121
Mof_C 	C 	0.67721	0.91382	0.3276	-0.114
Mof_H 	H 	0.71647	0.91235	0.33348	0.06
Mof_C 	C 	0.64659	0.92865	0.366	0.056
Mof_H 	H 	0.66302	0.93841	0.40082	0.028
Mof_C 	C 	0.67972	0.85018	0.20686	0.173
Mof_N 	N 	0.74041	0.19019	0.59562	-0.181
Mof_H 	H 	0.74143	0.22488	0.57931	0.09
Mof_N 	N 	0.76891	0.14294	0.66561	-0.158
Mof_C 	C 	0.62377	0.09573	0.55142	-0.141
Mof_C 	C 	0.70099	0.15769	0.58238	0.122
Mof_C 	C 	0.77608	0.17992	0.63296	0.175
Mof_C 	C 	0.61695	0.14679	0.55449	0.056
Mof_H 	H 	0.58212	0.16321	0.54473	0.03
Mof_C 	C 	0.65534	0.1774	0.56933	-0.113
Mof_H 	H 	0.64947	0.21666	0.57079	0.061
Mof_C 	C 	0.66981	0.07604	0.56401	0.055
Mof_H 	H 	0.67637	0.03692	0.56177	0.031
Mof_C 	C 	0.70803	0.10672	0.57939	-0.107
Mof_H 	H 	0.74339	0.09072	0.58774	0.068
Mof_N 	N 	0.89325	0.2302	0.67783	-0.181
Mof_H 	H 	0.91933	0.21814	0.70325	0.091
Mof_N 	N 	0.8165	0.20882	0.63706	-0.158
Mof_C 	C 	0.93673	0.35258	0.59034	-0.146
Mof_C 	C 	0.90669	0.2709	0.64693	0.123
Mof_C 	C 	0.84976	0.20076	0.67332	0.175
Mof_C 	C 	0.9715	0.32033	0.61057	0.065
Mof_H 	H 	0.01037	0.32605	0.60471	0.024
Mof_C 	C 	0.95659	0.28012	0.63856	-0.116
Mof_H 	H 	0.98414	0.2559	0.65382	0.063
Mof_C 	C 	0.88663	0.34372	0.59905	0.056
Mof_H 	H 	0.85898	0.36829	0.58457	0.029
Mof_C 	C 	0.87174	0.30356	0.62751	-0.109
Mof_H 	H 	0.83312	0.29911	0.63526	0.069
Mof_N 	N 	0.79451	0.09391	0.73472	-0.181
Mof_H 	H 	0.76582	0.06991	0.72623	0.091
Mof_N 	N 	0.84256	0.16313	0.70518	-0.158
Mof_C 	C 	0.88787	0.04988	0.85245	-0.149
Mof_C 	C 	0.86364	0.01512	0.82301	0.071
Mof_H 	H 	0.86779	0.97621	0.82989	0.021
Mof_C 	C 	0.83354	0.03007	0.78435	-0.119
Mof_H 	H 	0.81514	0.00258	0.76235	0.064
Mof_C 	C 	0.82719	0.07998	0.77381	0.125
Mof_C 	C 	0.85075	0.11496	0.80354	-0.11
Mof_H 	H 	0.84483	0.15377	0.79782	0.07
Mof_C 	C 	0.8811	0.10003	0.84226	0.059
Mof_H 	H 	0.89865	0.12775	0.86464	0.03
Mof_C 	C 	0.80203	0.13437	0.70182	0.175
Mof_N 	N 	0.74036	0.68678	0.59508	-0.181
Mof_H 	H 	0.73786	0.72076	0.57748	0.089
Mof_N 	N 	0.7148	0.64162	0.66769	-0.158
Mof_C 	C 	0.85862	0.59505	0.54962	-0.142
Mof_C 	C 	0.78055	0.65519	0.582	0.121
Mof_C 	C 	0.70597	0.67712	0.63378	0.174
Mof_C 	C 	0.81374	0.57419	0.56438	0.054
Mof_H 	H 	0.80839	0.53485	0.56323	0.029
Mof_C 	C 	0.77511	0.60397	0.58054	-0.108
Mof_H 	H 	0.7406	0.58709	0.59055	0.068
Mof_C 	C 	0.86395	0.64631	0.55147	0.056
Mof_H 	H 	0.89787	0.66358	0.54007	0.029
Mof_C 	C 	0.8251	0.67602	0.56696	-0.113
Mof_H 	H 	0.8297	0.71547	0.56724	0.06
Mof_N 	N 	0.59053	0.72889	0.68124	-0.18
Mof_H 	H 	0.56494	0.71734	0.70738	0.089
Mof_N 	N 	0.66551	0.70587	0.63829	-0.159
Mof_C 	C 	0.54667	0.85102	0.59351	-0.143
Mof_C 	C 	0.57687	0.76944	0.6502	0.12
Mof_C 	C 	0.63392	0.69938	0.67629	0.174
Mof_C 	C 	0.51195	0.81907	0.61433	0.056
Mof_H 	H 	0.47304	0.82502	0.60894	0.029
Mof_C 	C 	0.52694	0.77892	0.6424	-0.114
Mof_H 	H 	0.49943	0.75499	0.65816	0.06
Mof_C 	C 	0.59681	0.84186	0.60166	0.054
Mof_H 	H 	0.62446	0.86615	0.58672	0.028
Mof_C 	C 	0.61178	0.80173	0.63012	-0.108
Mof_H 	H 	0.65048	0.79698	0.63736	0.068
Mof_N 	N 	0.69376	0.59767	0.74174	-0.181
Mof_H 	H 	0.7293	0.58328	0.74217	0.091
Mof_N 	N 	0.64286	0.66347	0.70965	-0.158
Mof_C 	C 	0.59899	0.55189	0.85765	-0.141
Mof_C 	C 	0.6497	0.55761	0.86535	0.056
Mof_H 	H 	0.66586	0.5497	0.90077	0.03
Mof_C 	C 	0.68036	0.57289	0.82717	-0.113
Mof_H 	H 	0.71935	0.5765	0.83381	0.061
Mof_C 	C 	0.66104	0.58373	0.78077	0.121
Mof_C 	C 	0.61044	0.57792	0.77278	-0.108
Mof_H 	H 	0.59481	0.58441	0.73688	0.067
Mof_C 	C 	0.57971	0.56216	0.81086	0.053
Mof_H 	H 	0.5409	0.55782	0.80359	0.029
Mof_C 	C 	0.68303	0.63428	0.70541	0.174
Mof_N 	N 	0.74558	0.29558	0.09447	-0.181
Mof_H 	H 	0.74697	0.26112	0.0777	0.091
Mof_N 	N 	0.77322	0.34275	0.16499	-0.158
Mof_C 	C 	0.62812	0.38891	0.05012	-0.143
Mof_C 	C 	0.70587	0.32774	0.08131	0.121
Mof_C 	C 	0.77995	0.30486	0.13328	0.174
Mof_C 	C 	0.67385	0.40908	0.06307	0.054
Mof_H 	H 	0.67997	0.44828	0.06103	0.029
Mof_C 	C 	0.71235	0.37879	0.07859	-0.108
Mof_H 	H 	0.74748	0.39513	0.08724	0.067
Mof_C 	C 	0.62185	0.33778	0.05297	0.056
Mof_H 	H 	0.58727	0.321	0.04294	0.029
Mof_C 	C 	0.66052	0.30757	0.0679	-0.113
Mof_H 	H 	0.6551	0.26823	0.06915	0.061
Mof_N 	N 	0.88848	0.24577	0.18756	-0.181
Mof_H 	H 	0.90525	0.24716	0.22202	0.091
Mof_N 	N 	0.81796	0.27341	0.14039	-0.158
Mof_C 	C 	0.93283	0.12831	0.09424	-0.141
Mof_C 	C 	0.90164	0.20606	0.1554	0.122
Mof_C 	C 	0.84967	0.28015	0.17828	0.174
Mof_C 	C 	0.91988	0.17404	0.07406	0.054
Mof_H 	H 	0.92191	0.18016	0.03486	0.03
Mof_C 	C 	0.90436	0.21254	0.10435	-0.108
Mof_H 	H 	0.89571	0.24767	0.08801	0.068
Mof_C 	C 	0.92998	0.12204	0.14536	0.056
Mof_H 	H 	0.94001	0.08746	0.16215	0.032
Mof_C 	C 	0.91505	0.16071	0.17557	-0.112
Mof_H 	H 	0.91379	0.15529	0.21491	0.063
Mof_N 	N 	0.79539	0.38867	0.23737	-0.181
Mof_H 	H 	0.76093	0.40544	0.23598	0.091
Mof_N 	N 	0.84256	0.31815	0.20973	-0.158
Mof_C 	C 	0.88871	0.43302	0.35483	-0.142
Mof_C 	C 	0.83759	0.43016	0.3611	0.056
Mof_H 	H 	0.82081	0.44019	0.39568	0.03
Mof_C 	C 	0.80738	0.41524	0.32243	-0.113
Mof_H 	H 	0.76804	0.41398	0.32786	0.061
Mof_C 	C 	0.82755	0.40183	0.27708	0.121
Mof_C 	C 	0.8786	0.40455	0.2706	-0.108
Mof_H 	H 	0.89494	0.39591	0.23546	0.068
Mof_C 	C 	0.90889	0.42007	0.30909	0.054
Mof_H 	H 	0.94809	0.42211	0.30298	0.03
Mof_C 	C 	0.80467	0.34986	0.20299	0.174
Mof_N 	N 	0.24121	0.19395	0.88547	-0.181
Mof_H 	H 	0.24078	0.22949	0.89986	0.09
Mof_N 	N 	0.2733	0.14305	0.81967	-0.158
Mof_C 	C 	0.12529	0.09918	0.93125	-0.141
Mof_C 	C 	0.20218	0.16123	0.89941	0.121
Mof_C 	C 	0.27754	0.18322	0.84886	0.174
Mof_C 	C 	0.17208	0.07991	0.92098	0.054
Mof_H 	H 	0.17936	0.04109	0.92532	0.031
Mof_C 	C 	0.21016	0.11063	0.90522	-0.107
Mof_H 	H 	0.24607	0.095	0.89873	0.068
Mof_C 	C 	0.1176	0.14989	0.92554	0.055
Mof_H 	H 	0.08218	0.16605	0.93345	0.029
Mof_C 	C 	0.15578	0.18055	0.91025	-0.113
Mof_H 	H 	0.14914	0.21955	0.90664	0.061
Mof_N 	N 	0.38787	0.24055	0.79636	-0.181
Mof_H 	H 	0.40547	0.23805	0.76238	0.09
Mof_N 	N 	0.31526	0.21499	0.84152	-0.158
Mof_C 	C 	0.43333	0.35881	0.88809	-0.142
Mof_C 	C 	0.40095	0.28074	0.82795	0.121
Mof_C 	C 	0.34917	0.20616	0.80602	0.174
Mof_C 	C 	0.41857	0.31393	0.90894	0.055
Mof_H 	H 	0.41972	0.30858	0.94829	0.03
Mof_C 	C 	0.40241	0.2753	0.87917	-0.108
Mof_H 	H 	0.39241	0.24079	0.89605	0.068
Mof_C 	C 	0.43147	0.36414	0.83682	0.056
Mof_H 	H 	0.44287	0.39806	0.81956	0.029
Mof_C 	C 	0.41599	0.32529	0.80712	-0.113
Mof_H 	H 	0.41571	0.32989	0.76766	0.06
Mof_N 	N 	0.30171	0.09072	0.75425	-0.18
Mof_H 	H 	0.27557	0.06513	0.7658	0.091
Mof_N 	N 	0.34466	0.1657	0.77727	-0.158
Mof_C 	C 	0.38944	0.04685	0.63211	-0.148
Mof_C 	C 	0.36862	0.01213	0.66407	0.066
Mof_H 	H 	0.37401	0.97323	0.65812	0.022
Mof_C 	C 	0.34055	0.02713	0.70422	-0.106
Mof_H 	H 	0.32479	0.99962	0.72815	0.052
Mof_C 	C 	0.33275	0.07706	0.7137	0.12
Mof_C 	C 	0.35283	0.11197	0.68142	-0.108
Mof_H 	H 	0.34559	0.15067	0.68617	0.068
Mof_C 	C 	0.38129	0.097	0.64128	0.057
Mof_H 	H 	0.39624	0.12465	0.61699	0.029
Mof_C 	C 	0.30666	0.13411	0.78376	0.175
Mof_N 	N 	0.2287	0.8019	0.39242	-0.181
Mof_H 	H 	0.21715	0.77577	0.41801	0.089
Mof_N 	N 	0.20568	0.84485	0.31744	-0.159
Mof_C 	C 	0.35083	0.88963	0.43628	-0.144
Mof_C 	C 	0.26924	0.83294	0.40608	0.12
Mof_C 	C 	0.19919	0.80685	0.34903	0.173
Mof_C 	C 	0.31888	0.86881	0.471	0.056
Mof_H 	H 	0.32483	0.8742	0.50991	0.029
Mof_C 	C 	0.27873	0.84074	0.45601	-0.114
Mof_H 	H 	0.2548	0.82498	0.48352	0.059
Mof_C 	C 	0.34167	0.88148	0.38614	0.054
Mof_H 	H 	0.36596	0.89643	0.35849	0.028
Mof_C 	C 	0.30153	0.85303	0.37116	-0.108
Mof_H 	H 	0.29678	0.84579	0.33247	0.068
Mof_N 	N 	0.09747	0.7414	0.28919	-0.181
Mof_H 	H 	0.08308	0.74097	0.25365	0.089
Mof_N 	N 	0.16328	0.77349	0.34009	-0.158
Mof_C 	C 	0.0517	0.62549	0.38396	-0.143
Mof_C 	C 	0.08353	0.70237	0.32191	0.12
Mof_C 	C 	0.13409	0.77773	0.29992	0.173
Mof_C 	C 	0.06197	0.67228	0.40324	0.053
Mof_H 	H 	0.05762	0.67955	0.44205	0.029
Mof_C 	C 	0.07772	0.71036	0.37252	-0.108
Mof_H 	H 	0.08421	0.74626	0.38814	0.066
Mof_C 	C 	0.05741	0.61779	0.33325	0.055
Mof_H 	H 	0.0495	0.58238	0.31709	0.029
Mof_C 	C 	0.0727	0.65598	0.30259	-0.113
Mof_H 	H 	0.07631	0.64934	0.2636	0.06
Mof_N 	N 	0.18659	0.88806	0.24258	-0.181
Mof_H 	H 	0.22057	0.90565	0.24509	0.088
Mof_N 	N 	0.14143	0.81545	0.26815	-0.158
Mof_C 	C 	0.09486	0.93352	0.12433	-0.145
Mof_C 	C 	0.14613	0.93167	0.11899	0.055
Mof_H 	H 	0.16339	0.94307	0.08508	0.026
Mof_C 	C 	0.17583	0.91618	0.15784	-0.114
Mof_H 	H 	0.21529	0.91591	0.15325	0.059
Mof_C 	C 	0.155	0.90114	0.2024	0.12
Mof_C 	C 	0.10378	0.9026	0.20784	-0.109
Mof_H 	H 	0.0869	0.89259	0.24235	0.066
Mof_C 	C 	0.074	0.91876	0.16921	0.054
Mof_H 	H 	0.03466	0.91991	0.17456	0.027
Mof_C 	C 	0.17693	0.84936	0.27697	0.173
Mof_Zn	Zn	0.05534	0.9744	0.98325	1.248
Mof_Zn	Zn	0.98433	0.05749	0.97	1.254
Mof_Zn	Zn	0.95268	0.9546	0.95088	1.253
Mof_Zn	Zn	0.97157	0.98706	0.05355	1.249
Mof_O 	O 	0.99107	0.99345	0.98948	-1.022
Mof_O 	O 	0.09404	0.02277	0.96034	-0.523
Mof_O 	O 	0.94328	0.06483	0.9187	-0.527
Mof_O 	O 	0.98679	0.90807	0.91959	-0.526
Mof_O 	O 	0.04163	0.08412	0.95135	-0.529
Mof_O 	O 	0.0632	0.92314	0.94216	-0.527
Mof_O 	O 	0.92111	0.98821	0.90427	-0.54
Mof_O 	O 	0.91975	0.94676	0.06101	-0.527
Mof_O 	O 	0.96115	0.09629	0.01799	-0.528
Mof_O 	O 	0.90585	0.92344	0.98463	-0.527
Mof_O 	O 	0.95343	0.04459	0.0801	-0.523
Mof_O 	O 	0.01921	0.96314	0.09227	-0.534
Mof_O 	O 	0.08151	0.9554	0.04077	-0.533
Mof_C 	C 	0.08488	0.06694	0.94848	0.414
Mof_C 	C 	0.91914	0.03356	0.89394	0.428
Mof_C 	C 	0.03224	0.89803	0.91797	0.407
Mof_C 	C 	0.89496	0.92252	0.02989	0.41
Mof_C 	C 	0.94996	0.08759	0.0624	0.414
Mof_C 	C 	0.06352	0.95155	0.08363	0.415
Mof_Zn	Zn	0.4707	0.98318	0.42903	1.249
Mof_Zn	Zn	0.45115	0.95134	0.5318	1.252
Mof_Zn	Zn	0.55392	0.97089	0.49996	1.249
Mof_Zn	Zn	0.48299	0.05411	0.51225	1.252
Mof_O 	O 	0.48976	0.98995	0.49319	-1.027
Mof_O 	O 	0.41894	0.94275	0.42149	-0.529
Mof_O 	O 	0.48488	0.90403	0.56233	-0.532
Mof_O 	O 	0.58073	0.95258	0.44266	-0.531
Mof_O 	O 	0.40384	0.92081	0.49807	-0.532
Mof_O 	O 	0.51889	0.95974	0.39056	-0.53
Mof_O 	O 	0.56146	0.91913	0.54039	-0.528
Mof_O 	O 	0.54029	0.08092	0.53056	-0.527
Mof_O 	O 	0.42062	0.98507	0.57911	-0.541
Mof_O 	O 	0.59239	0.01908	0.5234	-0.523
Mof_O 	O 	0.44255	0.06165	0.56401	-0.528
Mof_O 	O 	0.45955	0.09258	0.46406	-0.527
Mof_O 	O 	0.45239	0.04048	0.40222	-0.524
Mof_C 	C 	0.39347	0.91927	0.45269	0.415
Mof_C 	C 	0.53026	0.89366	0.56387	0.415
Mof_C 	C 	0.5633	0.9488	0.39959	0.415
Mof_C 	C 	0.58336	0.06349	0.53434	0.415
Mof_C 	C 	0.41908	0.03045	0.58947	0.428
Mof_C 	C 	0.44861	0.08355	0.41965	0.415
Mof_Zn	Zn	0.9294	0.47176	0.49608	1.251
Mof_Zn	Zn	0.03207	0.45287	0.52854	1.251
Mof_Zn	Zn	0.01295	0.48453	0.42565	1.249
Mof_Zn	Zn	0.9997	0.55553	0.50874	1.252
Mof_O 	O 	0.99347	0.49126	0.48969	-1.02
Mof_O 	O 	0.92194	0.41994	0.53638	-0.527
Mof_O 	O 	0.07868	0.4213	0.49493	-0.533
Mof_O 	O 	0.96496	0.46134	0.38685	-0.526
Mof_O 	O 	0.99832	0.40605	0.5597	-0.529
Mof_O 	O 	0.90285	0.45362	0.43855	-0.528
Mof_O 	O 	0.06425	0.44347	0.41831	-0.528
Mof_O 	O 	0.02261	0.59423	0.46037	-0.53
Mof_O 	O 	0.06336	0.48698	0.57506	-0.533
Mof_O 	O 	0.0316	0.54182	0.39902	-0.53
Mof_O 	O 	0.04079	0.56339	0.56	-0.529
Mof_O 	O 	0.94218	0.5817	0.52774	-0.526
Mof_O 	O 	0.89068	0.5194	0.52	-0.528
Mof_C 	C 	0.95306	0.39515	0.56062	0.418
Mof_C 	C 	0.08901	0.41934	0.44958	0.416
Mof_C 	C 	0.92055	0.45016	0.39555	0.414
Mof_C 	C 	0.03447	0.58507	0.4162	0.414
Mof_C 	C 	0.06498	0.53243	0.58511	0.415
Mof_C 	C 	0.89932	0.56371	0.53159	0.414
Mof_Zn	Zn	0.48687	0.42959	0.01138	1.249
Mof_Zn	Zn	0.47421	0.49989	0.92761	1.25
Mof_Zn	Zn	0.45441	0.53226	0.03027	1.252
Mof_Zn	Zn	0.5573	0.51314	0.99861	1.252
Mof_O 	O 	0.49326	0.49366	0.99188	-1.02
Mof_O 	O 	0.46295	0.39087	0.96374	-0.527
Mof_O 	O 	0.42295	0.54098	0.91975	-0.526
Mof_O 	O 	0.42325	0.49851	0.07709	-0.533
Mof_O 	O 	0.45521	0.44237	0.90144	-0.528
Mof_O 	O 	0.44657	0.42213	0.06319	-0.528
Mof_O 	O 	0.40789	0.56355	0.99616	-0.529
Mof_O 	O 	0.56464	0.56444	0.03966	-0.529
Mof_O 	O 	0.52258	0.5228	0.88891	-0.527
Mof_O 	O 	0.48802	0.57887	0.06184	-0.533
Mof_O 	O 	0.58393	0.53179	0.94132	-0.527
Mof_O 	O 	0.5961	0.46515	0.0218	-0.53
Mof_O 	O 	0.5444	0.40304	0.02951	-0.529
Mof_C 	C 	0.45136	0.39951	0.91943	0.414
Mof_C 	C 	0.39784	0.56517	0.95071	0.416
Mof_C 	C 	0.42232	0.45325	0.08799	0.417
Mof_C 	C 	0.53337	0.5892	0.0638	0.416
Mof_C 	C 	0.56675	0.53466	0.89806	0.414
Mof_C 	C 	0.5874	0.42074	0.03298	0.415
_end
