data_functionalizedCrystal
_audit_creation_method	'EQeq! by Chris Wilmer'
_symmetry_space_group_name_H-M	'P1'
_symmetry_Int_Tables_number	1
_symmetry_cell_setting	triclinic
loop_
_symmetry_equiv_pos_as_xyz
  x,y,z
_cell_length_a	7.663
_cell_length_b	10.104
_cell_length_c	17.426
_cell_angle_alpha	90
_cell_angle_beta	90
_cell_angle_gamma	90
loop_
_atom_site_label
_atom_site_type_symbol
_atom_site_fract_x
_atom_site_fract_y
_atom_site_fract_z
_atom_site_charge
Mof_N 	N 	0.15	0.4029	0.79243	-0.235
Mof_N 	N 	0.3258	0.4017	0.80764	-0.238
Mof_N 	N 	0.2123	0.5836	0.85905	-0.329
Mof_C 	C 	0.0894	0.5117	0.82387	0.079
Mof_H 	H 	0.9725	0.5364	0.8219	-0.073
Mof_C 	C 	0.3576	0.5111	0.84677	0.095
Mof_H 	H 	0.4679	0.5355	0.864	-0.065
Mof_N 	N 	0.35	0.5971	0.29243	-0.235
Mof_N 	N 	0.1742	0.5983	0.30764	-0.239
Mof_N 	N 	0.2877	0.4164	0.35905	-0.329
Mof_C 	C 	0.4106	0.4883	0.32387	0.079
Mof_H 	H 	0.5275	0.4636	0.3219	-0.073
Mof_C 	C 	0.1424	0.4889	0.34677	0.095
Mof_H 	H 	0.0321	0.4645	0.364	-0.065
Mof_N 	N 	0.85	0.9029	0.20757	-0.23
Mof_N 	N 	0.6742	0.9017	0.19236	-0.236
Mof_N 	N 	0.7877	0.0836	0.14095	-0.327
Mof_C 	C 	0.9106	0.0117	0.17613	0.064
Mof_H 	H 	0.0275	0.0364	0.1781	-0.065
Mof_C 	C 	0.6424	0.0111	0.15323	0.09
Mof_H 	H 	0.5321	0.0355	0.136	-0.064
Mof_N 	N 	0.65	0.0971	0.70757	-0.235
Mof_N 	N 	0.8258	0.0983	0.69236	-0.24
Mof_N 	N 	0.7123	0.9164	0.64095	-0.329
Mof_C 	C 	0.5894	0.9883	0.67613	0.078
Mof_H 	H 	0.4725	0.9636	0.6781	-0.074
Mof_C 	C 	0.8576	0.9889	0.65323	0.096
Mof_H 	H 	0.9679	0.9645	0.636	-0.064
Mof_N 	N 	0.85	0.5971	0.20757	-0.235
Mof_N 	N 	0.6742	0.5983	0.19236	-0.238
Mof_N 	N 	0.7877	0.4164	0.14095	-0.329
Mof_C 	C 	0.9106	0.4883	0.17613	0.079
Mof_H 	H 	0.0275	0.4636	0.1781	-0.073
Mof_C 	C 	0.6424	0.4889	0.15323	0.095
Mof_H 	H 	0.5321	0.4645	0.136	-0.065
Mof_N 	N 	0.65	0.4029	0.70757	-0.235
Mof_N 	N 	0.8258	0.4017	0.69236	-0.239
Mof_N 	N 	0.7123	0.5836	0.64095	-0.329
Mof_C 	C 	0.5894	0.5117	0.67613	0.079
Mof_H 	H 	0.4725	0.5364	0.6781	-0.073
Mof_C 	C 	0.8576	0.5111	0.65323	0.095
Mof_H 	H 	0.9679	0.5355	0.636	-0.065
Mof_N 	N 	0.15	0.0971	0.79243	-0.23
Mof_N 	N 	0.3258	0.0983	0.80764	-0.236
Mof_N 	N 	0.2123	0.9164	0.85905	-0.327
Mof_C 	C 	0.0894	0.9883	0.82387	0.064
Mof_H 	H 	0.9725	0.9636	0.8219	-0.065
Mof_C 	C 	0.3576	0.9889	0.84677	0.09
Mof_H 	H 	0.4679	0.9645	0.864	-0.064
Mof_N 	N 	0.35	0.9029	0.29243	-0.235
Mof_N 	N 	0.1742	0.9017	0.30764	-0.24
Mof_N 	N 	0.2877	0.0836	0.35905	-0.329
Mof_C 	C 	0.4106	0.0117	0.32387	0.078
Mof_H 	H 	0.5275	0.0364	0.3219	-0.074
Mof_C 	C 	0.1424	0.0111	0.34677	0.096
Mof_H 	H 	0.0321	0.0355	0.364	-0.064
Mof_Zn	Zn	0.15692	0.75	0.91555	1.133
Mof_Zn	Zn	0.0075	0.75	0.26119	1.164
Mof_N 	N 	0.339	0.75	0.14161	-0.243
Mof_N 	N 	0.1621	0.75	0.15229	-0.226
Mof_N 	N 	0.213	0.75	0.02704	-0.33
Mof_C 	C 	0.3633	0.75	0.0668	0.099
Mof_H 	H 	0.4729	0.75	0.0439	-0.068
Mof_C 	C 	0.0931	0.75	0.0832	0.07
Mof_H 	H 	0.9734	0.75	0.0742	-0.065
Mof_Zn	Zn	0.34308	0.25	0.41555	1.133
Mof_Zn	Zn	0.4925	0.25	0.76119	1.165
Mof_N 	N 	0.161	0.25	0.64161	-0.242
Mof_N 	N 	0.3379	0.25	0.65229	-0.226
Mof_N 	N 	0.287	0.25	0.52704	-0.331
Mof_C 	C 	0.1367	0.25	0.5668	0.099
Mof_H 	H 	0.0271	0.25	0.5439	-0.068
Mof_C 	C 	0.4069	0.25	0.5832	0.075
Mof_H 	H 	0.5266	0.25	0.5742	-0.07
Mof_Zn	Zn	0.84308	0.25	0.08445	1.133
Mof_Zn	Zn	0.9925	0.25	0.73881	1.164
Mof_N 	N 	0.661	0.25	0.85839	-0.243
Mof_N 	N 	0.8379	0.25	0.84771	-0.226
Mof_N 	N 	0.787	0.25	0.97296	-0.33
Mof_C 	C 	0.6367	0.25	0.9332	0.099
Mof_H 	H 	0.5271	0.25	0.9561	-0.068
Mof_C 	C 	0.9069	0.25	0.9168	0.07
Mof_H 	H 	0.0266	0.25	0.9258	-0.065
Mof_Zn	Zn	0.65692	0.75	0.58445	1.133
Mof_Zn	Zn	0.5075	0.75	0.23881	1.165
Mof_N 	N 	0.839	0.75	0.35839	-0.242
Mof_N 	N 	0.6621	0.75	0.34771	-0.226
Mof_N 	N 	0.713	0.75	0.47296	-0.331
Mof_C 	C 	0.8633	0.75	0.4332	0.099
Mof_H 	H 	0.9729	0.75	0.4561	-0.068
Mof_C 	C 	0.5931	0.75	0.4168	0.075
Mof_H 	H 	0.4734	0.75	0.4258	-0.07
_end
