data_functionalizedCrystal
_audit_creation_method	'EQeq! by Chris Wilmer'
_symmetry_space_group_name_H-M	'P1'
_symmetry_Int_Tables_number	1
_symmetry_cell_setting	triclinic
loop_
_symmetry_equiv_pos_as_xyz
  x,y,z
_cell_length_a	26.16
_cell_length_b	26.16
_cell_length_c	26.16
_cell_angle_alpha	90
_cell_angle_beta	90
_cell_angle_gamma	90
loop_
_atom_site_label
_atom_site_type_symbol
_atom_site_fract_x
_atom_site_fract_y
_atom_site_fract_z
_atom_site_charge
Mof_O 	O 	0.0141	0.4169	0.9773	-0.293
Mof_O 	O 	0.0089	0.3343	0.9699	-0.404
Mof_C 	C 	0.0087	0.3733	0.9987	0.526
Mof_C 	C 	0.0034	0.3672	0.0542	-0.482
Mof_H 	H 	0.0328	0.3819	0.0714	0.172
Mof_H 	H 	0.973	0.3848	0.066	0.241
Mof_O 	O 	0.0141	0.9169	0.4773	-0.279
Mof_O 	O 	0.0089	0.8343	0.4699	-0.427
Mof_C 	C 	0.0087	0.8733	0.4987	0.414
Mof_C 	C 	0.0034	0.8672	0.5542	-0.34
Mof_H 	H 	0.0328	0.8819	0.5714	0.141
Mof_H 	H 	0.973	0.8848	0.566	0.21
Mof_O 	O 	0.5141	0.4169	0.4773	-0.282
Mof_O 	O 	0.5089	0.3343	0.4699	-0.418
Mof_C 	C 	0.5087	0.3733	0.4987	0.386
Mof_C 	C 	0.5034	0.3672	0.5542	-0.203
Mof_H 	H 	0.5328	0.3819	0.5714	0.104
Mof_H 	H 	0.473	0.3848	0.566	0.109
Mof_O 	O 	0.5141	0.9169	0.9773	-0.234
Mof_O 	O 	0.5089	0.8343	0.9699	-0.386
Mof_C 	C 	0.5087	0.8733	0.9987	0.484
Mof_C 	C 	0.5034	0.8672	0.0542	-0.33
Mof_H 	H 	0.5328	0.8819	0.0714	0.139
Mof_H 	H 	0.473	0.8848	0.066	0.145
Mof_O 	O 	0.2359	0.3331	0.4773	-0.282
Mof_O 	O 	0.2411	0.4157	0.4699	-0.418
Mof_C 	C 	0.2413	0.3767	0.4987	0.386
Mof_C 	C 	0.2466	0.3828	0.5542	-0.202
Mof_H 	H 	0.2172	0.3681	0.5714	0.104
Mof_H 	H 	0.277	0.3652	0.566	0.109
Mof_O 	O 	0.2359	0.8331	0.9773	-0.259
Mof_O 	O 	0.2411	0.9157	0.9699	-0.344
Mof_C 	C 	0.2413	0.8767	0.9987	0.479
Mof_C 	C 	0.2466	0.8828	0.0542	-0.324
Mof_H 	H 	0.2172	0.8681	0.0714	0.134
Mof_H 	H 	0.277	0.8652	0.066	0.14
Mof_O 	O 	0.7359	0.3331	0.9773	-0.264
Mof_O 	O 	0.7411	0.4157	0.9699	-0.39
Mof_C 	C 	0.7413	0.3767	0.9987	0.491
Mof_C 	C 	0.7466	0.3828	0.0542	-0.335
Mof_H 	H 	0.7172	0.3681	0.0714	0.136
Mof_H 	H 	0.777	0.3652	0.066	0.142
Mof_O 	O 	0.7359	0.8331	0.4773	-0.276
Mof_O 	O 	0.7411	0.9157	0.4699	-0.37
Mof_C 	C 	0.7413	0.8767	0.4987	0.377
Mof_C 	C 	0.7466	0.8828	0.5542	-0.195
Mof_H 	H 	0.7172	0.8681	0.5714	0.103
Mof_H 	H 	0.777	0.8652	0.566	0.11
Mof_O 	O 	0.7359	0.9169	0.2727	-0.25
Mof_O 	O 	0.7411	0.8343	0.2801	-0.412
Mof_C 	C 	0.7413	0.8733	0.2513	0.382
Mof_C 	C 	0.7466	0.8672	0.1958	-0.202
Mof_H 	H 	0.7172	0.8819	0.1786	0.107
Mof_H 	H 	0.777	0.8848	0.184	0.116
Mof_O 	O 	0.7359	0.4169	0.7727	-0.28
Mof_O 	O 	0.7411	0.3343	0.7801	-0.415
Mof_C 	C 	0.7413	0.3733	0.7513	0.387
Mof_C 	C 	0.7466	0.3672	0.6958	-0.204
Mof_H 	H 	0.7172	0.3819	0.6786	0.104
Mof_H 	H 	0.777	0.3848	0.684	0.111
Mof_O 	O 	0.2359	0.9169	0.7727	-0.249
Mof_O 	O 	0.2411	0.8343	0.7801	-0.411
Mof_C 	C 	0.2413	0.8733	0.7513	0.381
Mof_C 	C 	0.2466	0.8672	0.6958	-0.2
Mof_H 	H 	0.2172	0.8819	0.6786	0.107
Mof_H 	H 	0.277	0.8848	0.684	0.114
Mof_O 	O 	0.2359	0.4169	0.2727	-0.282
Mof_O 	O 	0.2411	0.3343	0.2801	-0.418
Mof_C 	C 	0.2413	0.3733	0.2513	0.385
Mof_C 	C 	0.2466	0.3672	0.1958	-0.202
Mof_H 	H 	0.2172	0.3819	0.1786	0.103
Mof_H 	H 	0.277	0.3848	0.184	0.109
Mof_O 	O 	0.5141	0.8331	0.7727	-0.275
Mof_O 	O 	0.5089	0.9157	0.7801	-0.369
Mof_C 	C 	0.5087	0.8767	0.7513	0.376
Mof_C 	C 	0.5034	0.8828	0.6958	-0.194
Mof_H 	H 	0.5328	0.8681	0.6786	0.103
Mof_H 	H 	0.473	0.8652	0.684	0.109
Mof_O 	O 	0.5141	0.3331	0.2727	-0.282
Mof_O 	O 	0.5089	0.4157	0.2801	-0.418
Mof_C 	C 	0.5087	0.3767	0.2513	0.386
Mof_C 	C 	0.5034	0.3828	0.1958	-0.202
Mof_H 	H 	0.5328	0.3681	0.1786	0.104
Mof_H 	H 	0.473	0.3652	0.184	0.109
Mof_O 	O 	0.0141	0.8331	0.2727	-0.306
Mof_O 	O 	0.0089	0.9157	0.2801	-0.384
Mof_C 	C 	0.0087	0.8767	0.2513	0.408
Mof_C 	C 	0.0034	0.8828	0.1958	-0.335
Mof_H 	H 	0.0328	0.8681	0.1786	0.137
Mof_H 	H 	0.973	0.8652	0.184	0.206
Mof_O 	O 	0.0141	0.3331	0.7727	-0.31
Mof_O 	O 	0.0089	0.4157	0.7801	-0.43
Mof_C 	C 	0.0087	0.3767	0.7513	0.419
Mof_C 	C 	0.0034	0.3828	0.6958	-0.345
Mof_H 	H 	0.0328	0.3681	0.6786	0.139
Mof_H 	H 	0.973	0.3652	0.684	0.207
Mof_O 	O 	0.9773	0.0141	0.4169	-0.294
Mof_O 	O 	0.9699	0.0089	0.3343	-0.404
Mof_C 	C 	0.9987	0.0087	0.3733	0.526
Mof_C 	C 	0.0542	0.0034	0.3672	-0.482
Mof_H 	H 	0.0714	0.0328	0.3819	0.172
Mof_H 	H 	0.066	0.973	0.3848	0.241
Mof_O 	O 	0.9773	0.5141	0.9169	-0.234
Mof_O 	O 	0.9699	0.5089	0.8343	-0.386
Mof_C 	C 	0.9987	0.5087	0.8733	0.484
Mof_C 	C 	0.0542	0.5034	0.8672	-0.33
Mof_H 	H 	0.0714	0.5328	0.8819	0.139
Mof_H 	H 	0.066	0.473	0.8848	0.145
Mof_O 	O 	0.4773	0.0141	0.9169	-0.279
Mof_O 	O 	0.4699	0.0089	0.8343	-0.427
Mof_C 	C 	0.4987	0.0087	0.8733	0.414
Mof_C 	C 	0.5542	0.0034	0.8672	-0.34
Mof_H 	H 	0.5714	0.0328	0.8819	0.141
Mof_H 	H 	0.566	0.973	0.8848	0.21
Mof_O 	O 	0.4773	0.5141	0.4169	-0.282
Mof_O 	O 	0.4699	0.5089	0.3343	-0.418
Mof_C 	C 	0.4987	0.5087	0.3733	0.386
Mof_C 	C 	0.5542	0.5034	0.3672	-0.203
Mof_H 	H 	0.5714	0.5328	0.3819	0.104
Mof_H 	H 	0.566	0.473	0.3848	0.109
Mof_O 	O 	0.4773	0.2359	0.3331	-0.282
Mof_O 	O 	0.4699	0.2411	0.4157	-0.418
Mof_C 	C 	0.4987	0.2413	0.3767	0.386
Mof_C 	C 	0.5542	0.2466	0.3828	-0.202
Mof_H 	H 	0.5714	0.2172	0.3681	0.104
Mof_H 	H 	0.566	0.277	0.3652	0.109
Mof_O 	O 	0.4773	0.7359	0.8331	-0.276
Mof_O 	O 	0.4699	0.7411	0.9157	-0.37
Mof_C 	C 	0.4987	0.7413	0.8767	0.377
Mof_C 	C 	0.5542	0.7466	0.8828	-0.195
Mof_H 	H 	0.5714	0.7172	0.8681	0.103
Mof_H 	H 	0.566	0.777	0.8652	0.11
Mof_O 	O 	0.9773	0.2359	0.8331	-0.259
Mof_O 	O 	0.9699	0.2411	0.9157	-0.344
Mof_C 	C 	0.9987	0.2413	0.8767	0.479
Mof_C 	C 	0.0542	0.2466	0.8828	-0.324
Mof_H 	H 	0.0714	0.2172	0.8681	0.134
Mof_H 	H 	0.066	0.277	0.8652	0.14
Mof_O 	O 	0.9773	0.7359	0.3331	-0.264
Mof_O 	O 	0.9699	0.7411	0.4157	-0.39
Mof_C 	C 	0.9987	0.7413	0.3767	0.491
Mof_C 	C 	0.0542	0.7466	0.3828	-0.335
Mof_H 	H 	0.0714	0.7172	0.3681	0.136
Mof_H 	H 	0.066	0.777	0.3652	0.142
Mof_O 	O 	0.2727	0.7359	0.9169	-0.25
Mof_O 	O 	0.2801	0.7411	0.8343	-0.412
Mof_C 	C 	0.2513	0.7413	0.8733	0.382
Mof_C 	C 	0.1958	0.7466	0.8672	-0.202
Mof_H 	H 	0.1786	0.7172	0.8819	0.107
Mof_H 	H 	0.184	0.777	0.8848	0.116
Mof_O 	O 	0.2727	0.2359	0.4169	-0.282
Mof_O 	O 	0.2801	0.2411	0.3343	-0.418
Mof_C 	C 	0.2513	0.2413	0.3733	0.385
Mof_C 	C 	0.1958	0.2466	0.3672	-0.202
Mof_H 	H 	0.1786	0.2172	0.3819	0.103
Mof_H 	H 	0.184	0.277	0.3848	0.109
Mof_O 	O 	0.7727	0.7359	0.4169	-0.28
Mof_O 	O 	0.7801	0.7411	0.3343	-0.415
Mof_C 	C 	0.7513	0.7413	0.3733	0.387
Mof_C 	C 	0.6958	0.7466	0.3672	-0.204
Mof_H 	H 	0.6786	0.7172	0.3819	0.104
Mof_H 	H 	0.684	0.777	0.3848	0.111
Mof_O 	O 	0.7727	0.2359	0.9169	-0.249
Mof_O 	O 	0.7801	0.2411	0.8343	-0.411
Mof_C 	C 	0.7513	0.2413	0.8733	0.381
Mof_C 	C 	0.6958	0.2466	0.8672	-0.2
Mof_H 	H 	0.6786	0.2172	0.8819	0.107
Mof_H 	H 	0.684	0.277	0.8848	0.114
Mof_O 	O 	0.7727	0.5141	0.8331	-0.275
Mof_O 	O 	0.7801	0.5089	0.9157	-0.369
Mof_C 	C 	0.7513	0.5087	0.8767	0.376
Mof_C 	C 	0.6958	0.5034	0.8828	-0.194
Mof_H 	H 	0.6786	0.5328	0.8681	0.103
Mof_H 	H 	0.684	0.473	0.8652	0.109
Mof_O 	O 	0.7727	0.0141	0.3331	-0.31
Mof_O 	O 	0.7801	0.0089	0.4157	-0.43
Mof_C 	C 	0.7513	0.0087	0.3767	0.419
Mof_C 	C 	0.6958	0.0034	0.3828	-0.345
Mof_H 	H 	0.6786	0.0328	0.3681	0.139
Mof_H 	H 	0.684	0.973	0.3652	0.207
Mof_O 	O 	0.2727	0.5141	0.3331	-0.282
Mof_O 	O 	0.2801	0.5089	0.4157	-0.418
Mof_C 	C 	0.2513	0.5087	0.3767	0.386
Mof_C 	C 	0.1958	0.5034	0.3828	-0.202
Mof_H 	H 	0.1786	0.5328	0.3681	0.104
Mof_H 	H 	0.184	0.473	0.3652	0.109
Mof_O 	O 	0.2727	0.0141	0.8331	-0.306
Mof_O 	O 	0.2801	0.0089	0.9157	-0.384
Mof_C 	C 	0.2513	0.0087	0.8767	0.408
Mof_C 	C 	0.1958	0.0034	0.8828	-0.335
Mof_H 	H 	0.1786	0.0328	0.8681	0.137
Mof_H 	H 	0.184	0.973	0.8652	0.206
Mof_O 	O 	0.4169	0.9773	0.0141	-0.294
Mof_O 	O 	0.3343	0.9699	0.0089	-0.404
Mof_C 	C 	0.3733	0.9987	0.0087	0.526
Mof_C 	C 	0.3672	0.0542	0.0034	-0.482
Mof_H 	H 	0.3819	0.0714	0.0328	0.172
Mof_H 	H 	0.3848	0.066	0.973	0.241
Mof_O 	O 	0.4169	0.4773	0.5141	-0.282
Mof_O 	O 	0.3343	0.4699	0.5089	-0.418
Mof_C 	C 	0.3733	0.4987	0.5087	0.386
Mof_C 	C 	0.3672	0.5542	0.5034	-0.203
Mof_H 	H 	0.3819	0.5714	0.5328	0.104
Mof_H 	H 	0.3848	0.566	0.473	0.109
Mof_O 	O 	0.9169	0.9773	0.5141	-0.234
Mof_O 	O 	0.8343	0.9699	0.5089	-0.386
Mof_C 	C 	0.8733	0.9987	0.5087	0.484
Mof_C 	C 	0.8672	0.0542	0.5034	-0.33
Mof_H 	H 	0.8819	0.0714	0.5328	0.139
Mof_H 	H 	0.8848	0.066	0.473	0.145
Mof_O 	O 	0.9169	0.4773	0.0141	-0.279
Mof_O 	O 	0.8343	0.4699	0.0089	-0.427
Mof_C 	C 	0.8733	0.4987	0.0087	0.414
Mof_C 	C 	0.8672	0.5542	0.0034	-0.34
Mof_H 	H 	0.8819	0.5714	0.0328	0.141
Mof_H 	H 	0.8848	0.566	0.973	0.21
Mof_O 	O 	0.3331	0.4773	0.2359	-0.282
Mof_O 	O 	0.4157	0.4699	0.2411	-0.418
Mof_C 	C 	0.3767	0.4987	0.2413	0.386
Mof_C 	C 	0.3828	0.5542	0.2466	-0.202
Mof_H 	H 	0.3681	0.5714	0.2172	0.104
Mof_H 	H 	0.3652	0.566	0.277	0.109
Mof_O 	O 	0.3331	0.9773	0.7359	-0.264
Mof_O 	O 	0.4157	0.9699	0.7411	-0.39
Mof_C 	C 	0.3767	0.9987	0.7413	0.491
Mof_C 	C 	0.3828	0.0542	0.7466	-0.335
Mof_H 	H 	0.3681	0.0714	0.7172	0.136
Mof_H 	H 	0.3652	0.066	0.777	0.142
Mof_O 	O 	0.8331	0.4773	0.7359	-0.276
Mof_O 	O 	0.9157	0.4699	0.7411	-0.37
Mof_C 	C 	0.8767	0.4987	0.7413	0.377
Mof_C 	C 	0.8828	0.5542	0.7466	-0.195
Mof_H 	H 	0.8681	0.5714	0.7172	0.103
Mof_H 	H 	0.8652	0.566	0.777	0.11
Mof_O 	O 	0.8331	0.9773	0.2359	-0.259
Mof_O 	O 	0.9157	0.9699	0.2411	-0.344
Mof_C 	C 	0.8767	0.9987	0.2413	0.479
Mof_C 	C 	0.8828	0.0542	0.2466	-0.324
Mof_H 	H 	0.8681	0.0714	0.2172	0.134
Mof_H 	H 	0.8652	0.066	0.277	0.14
Mof_O 	O 	0.9169	0.2727	0.7359	-0.25
Mof_O 	O 	0.8343	0.2801	0.7411	-0.412
Mof_C 	C 	0.8733	0.2513	0.7413	0.382
Mof_C 	C 	0.8672	0.1958	0.7466	-0.202
Mof_H 	H 	0.8819	0.1786	0.7172	0.107
Mof_H 	H 	0.8848	0.184	0.777	0.116
Mof_O 	O 	0.9169	0.7727	0.2359	-0.249
Mof_O 	O 	0.8343	0.7801	0.2411	-0.411
Mof_C 	C 	0.8733	0.7513	0.2413	0.381
Mof_C 	C 	0.8672	0.6958	0.2466	-0.2
Mof_H 	H 	0.8819	0.6786	0.2172	0.107
Mof_H 	H 	0.8848	0.684	0.277	0.114
Mof_O 	O 	0.4169	0.2727	0.2359	-0.282
Mof_O 	O 	0.3343	0.2801	0.2411	-0.418
Mof_C 	C 	0.3733	0.2513	0.2413	0.385
Mof_C 	C 	0.3672	0.1958	0.2466	-0.202
Mof_H 	H 	0.3819	0.1786	0.2172	0.103
Mof_H 	H 	0.3848	0.184	0.277	0.109
Mof_O 	O 	0.4169	0.7727	0.7359	-0.28
Mof_O 	O 	0.3343	0.7801	0.7411	-0.415
Mof_C 	C 	0.3733	0.7513	0.7413	0.387
Mof_C 	C 	0.3672	0.6958	0.7466	-0.204
Mof_H 	H 	0.3819	0.6786	0.7172	0.104
Mof_H 	H 	0.3848	0.684	0.777	0.111
Mof_O 	O 	0.8331	0.7727	0.5141	-0.275
Mof_O 	O 	0.9157	0.7801	0.5089	-0.369
Mof_C 	C 	0.8767	0.7513	0.5087	0.376
Mof_C 	C 	0.8828	0.6958	0.5034	-0.194
Mof_H 	H 	0.8681	0.6786	0.5328	0.103
Mof_H 	H 	0.8652	0.684	0.473	0.109
Mof_O 	O 	0.8331	0.2727	0.0141	-0.306
Mof_O 	O 	0.9157	0.2801	0.0089	-0.384
Mof_C 	C 	0.8767	0.2513	0.0087	0.408
Mof_C 	C 	0.8828	0.1958	0.0034	-0.335
Mof_H 	H 	0.8681	0.1786	0.0328	0.137
Mof_H 	H 	0.8652	0.184	0.973	0.206
Mof_O 	O 	0.3331	0.7727	0.0141	-0.31
Mof_O 	O 	0.4157	0.7801	0.0089	-0.43
Mof_C 	C 	0.3767	0.7513	0.0087	0.419
Mof_C 	C 	0.3828	0.6958	0.0034	-0.345
Mof_H 	H 	0.3681	0.6786	0.0328	0.139
Mof_H 	H 	0.3652	0.684	0.973	0.207
Mof_O 	O 	0.3331	0.2727	0.5141	-0.282
Mof_O 	O 	0.4157	0.2801	0.5089	-0.418
Mof_C 	C 	0.3767	0.2513	0.5087	0.386
Mof_C 	C 	0.3828	0.1958	0.5034	-0.202
Mof_H 	H 	0.3681	0.1786	0.5328	0.104
Mof_H 	H 	0.3652	0.184	0.473	0.109
Mof_O 	O 	0.1669	0.2641	0.0227	-0.277
Mof_O 	O 	0.0843	0.2589	0.0301	-0.393
Mof_C 	C 	0.1233	0.2587	0.0013	0.276
Mof_C 	C 	0.1172	0.2534	0.9458	-0.096
Mof_H 	H 	0.1319	0.2828	0.9286	0.086
Mof_H 	H 	0.1348	0.223	0.934	0.089
Mof_O 	O 	0.1669	0.7641	0.5227	-0.284
Mof_O 	O 	0.0843	0.7589	0.5301	-0.412
Mof_C 	C 	0.1233	0.7587	0.5013	0.39
Mof_C 	C 	0.1172	0.7534	0.4458	-0.222
Mof_H 	H 	0.1319	0.7828	0.4286	0.112
Mof_H 	H 	0.1348	0.723	0.434	0.115
Mof_O 	O 	0.6669	0.2641	0.5227	-0.283
Mof_O 	O 	0.5843	0.2589	0.5301	-0.419
Mof_C 	C 	0.6233	0.2587	0.5013	0.386
Mof_C 	C 	0.6172	0.2534	0.4458	-0.203
Mof_H 	H 	0.6319	0.2828	0.4286	0.104
Mof_H 	H 	0.6348	0.223	0.434	0.109
Mof_O 	O 	0.6669	0.7641	0.0227	-0.274
Mof_O 	O 	0.5843	0.7589	0.0301	-0.399
Mof_C 	C 	0.6233	0.7587	0.0013	0.277
Mof_C 	C 	0.6172	0.7534	0.9458	-0.083
Mof_H 	H 	0.6319	0.7828	0.9286	0.082
Mof_H 	H 	0.6348	0.723	0.934	0.086
Mof_O 	O 	0.0831	0.4859	0.5227	-0.29
Mof_O 	O 	0.1657	0.4911	0.5301	-0.42
Mof_C 	C 	0.1267	0.4913	0.5013	0.386
Mof_C 	C 	0.1328	0.4966	0.4458	-0.202
Mof_H 	H 	0.1181	0.4672	0.4286	0.103
Mof_H 	H 	0.1152	0.527	0.434	0.108
Mof_O 	O 	0.0831	0.9859	0.0227	-0.214
Mof_O 	O 	0.1657	0.9911	0.0301	-0.318
Mof_C 	C 	0.1267	0.9913	0.0013	0.187
Mof_C 	C 	0.1328	0.9966	0.9458	0.221
Mof_H 	H 	0.1181	0.9672	0.9286	0.006
Mof_H 	H 	0.1152	0.027	0.934	-0.05
Mof_O 	O 	0.5831	0.4859	0.0227	-0.274
Mof_O 	O 	0.6657	0.4911	0.0301	-0.399
Mof_C 	C 	0.6267	0.4913	0.0013	0.275
Mof_C 	C 	0.6328	0.4966	0.9458	-0.08
Mof_H 	H 	0.6181	0.4672	0.9286	0.08
Mof_H 	H 	0.6152	0.527	0.934	0.085
Mof_O 	O 	0.5831	0.9859	0.5227	-0.214
Mof_O 	O 	0.6657	0.9911	0.5301	-0.336
Mof_C 	C 	0.6267	0.9913	0.5013	0.294
Mof_C 	C 	0.6328	0.9966	0.4458	0.107
Mof_H 	H 	0.6181	0.9672	0.4286	0.029
Mof_H 	H 	0.6152	0.027	0.434	-0.029
Mof_O 	O 	0.6669	0.9859	0.7273	-0.215
Mof_O 	O 	0.5843	0.9911	0.7199	-0.337
Mof_C 	C 	0.6233	0.9913	0.7487	0.297
Mof_C 	C 	0.6172	0.9966	0.8042	0.098
Mof_H 	H 	0.6319	0.9672	0.8214	0.032
Mof_H 	H 	0.6348	0.027	0.816	-0.024
Mof_O 	O 	0.6669	0.4859	0.2273	-0.283
Mof_O 	O 	0.5843	0.4911	0.2199	-0.419
Mof_C 	C 	0.6233	0.4913	0.2487	0.386
Mof_C 	C 	0.6172	0.4966	0.3042	-0.203
Mof_H 	H 	0.6319	0.4672	0.3214	0.105
Mof_H 	H 	0.6348	0.527	0.316	0.109
Mof_O 	O 	0.1669	0.9859	0.2273	-0.215
Mof_O 	O 	0.0843	0.9911	0.2199	-0.328
Mof_C 	C 	0.1233	0.9913	0.2487	0.295
Mof_C 	C 	0.1172	0.9966	0.3042	0.095
Mof_H 	H 	0.1319	0.9672	0.3214	0.033
Mof_H 	H 	0.1348	0.027	0.316	-0.027
Mof_O 	O 	0.1669	0.4859	0.7273	-0.285
Mof_O 	O 	0.0843	0.4911	0.7199	-0.412
Mof_C 	C 	0.1233	0.4913	0.7487	0.39
Mof_C 	C 	0.1172	0.4966	0.8042	-0.223
Mof_H 	H 	0.1319	0.4672	0.8214	0.112
Mof_H 	H 	0.1348	0.527	0.816	0.116
Mof_O 	O 	0.5831	0.7641	0.2273	-0.283
Mof_O 	O 	0.6657	0.7589	0.2199	-0.419
Mof_C 	C 	0.6267	0.7587	0.2487	0.387
Mof_C 	C 	0.6328	0.7534	0.3042	-0.204
Mof_H 	H 	0.6181	0.7828	0.3214	0.106
Mof_H 	H 	0.6152	0.723	0.316	0.11
Mof_O 	O 	0.5831	0.2641	0.7273	-0.283
Mof_O 	O 	0.6657	0.2589	0.7199	-0.419
Mof_C 	C 	0.6267	0.2587	0.7487	0.386
Mof_C 	C 	0.6328	0.2534	0.8042	-0.205
Mof_H 	H 	0.6181	0.2828	0.8214	0.107
Mof_H 	H 	0.6152	0.223	0.816	0.11
Mof_O 	O 	0.0831	0.7641	0.7273	-0.29
Mof_O 	O 	0.1657	0.7589	0.7199	-0.42
Mof_C 	C 	0.1267	0.7587	0.7487	0.387
Mof_C 	C 	0.1328	0.7534	0.8042	-0.205
Mof_H 	H 	0.1181	0.7828	0.8214	0.107
Mof_H 	H 	0.1152	0.723	0.816	0.11
Mof_O 	O 	0.0831	0.2641	0.2273	-0.292
Mof_O 	O 	0.1657	0.2589	0.2199	-0.422
Mof_C 	C 	0.1267	0.2587	0.2487	0.386
Mof_C 	C 	0.1328	0.2534	0.3042	-0.202
Mof_H 	H 	0.1181	0.2828	0.3214	0.103
Mof_H 	H 	0.1152	0.223	0.316	0.108
Mof_O 	O 	0.7641	0.2273	0.5831	-0.283
Mof_O 	O 	0.7589	0.2199	0.6657	-0.419
Mof_C 	C 	0.7587	0.2487	0.6267	0.387
Mof_C 	C 	0.7534	0.3042	0.6328	-0.204
Mof_H 	H 	0.7828	0.3214	0.6181	0.106
Mof_H 	H 	0.723	0.316	0.6152	0.11
Mof_O 	O 	0.7641	0.7273	0.0831	-0.29
Mof_O 	O 	0.7589	0.7199	0.1657	-0.42
Mof_C 	C 	0.7587	0.7487	0.1267	0.387
Mof_C 	C 	0.7534	0.8042	0.1328	-0.205
Mof_H 	H 	0.7828	0.8214	0.1181	0.107
Mof_H 	H 	0.723	0.816	0.1152	0.11
Mof_O 	O 	0.2641	0.2273	0.0831	-0.292
Mof_O 	O 	0.2589	0.2199	0.1657	-0.422
Mof_C 	C 	0.2587	0.2487	0.1267	0.386
Mof_C 	C 	0.2534	0.3042	0.1328	-0.202
Mof_H 	H 	0.2828	0.3214	0.1181	0.103
Mof_H 	H 	0.223	0.316	0.1152	0.108
Mof_O 	O 	0.2641	0.7273	0.5831	-0.283
Mof_O 	O 	0.2589	0.7199	0.6657	-0.419
Mof_C 	C 	0.2587	0.7487	0.6267	0.386
Mof_C 	C 	0.2534	0.8042	0.6328	-0.205
Mof_H 	H 	0.2828	0.8214	0.6181	0.107
Mof_H 	H 	0.223	0.816	0.6152	0.11
Mof_O 	O 	0.9859	0.7273	0.6669	-0.215
Mof_O 	O 	0.9911	0.7199	0.5843	-0.337
Mof_C 	C 	0.9913	0.7487	0.6233	0.297
Mof_C 	C 	0.9966	0.8042	0.6172	0.098
Mof_H 	H 	0.9672	0.8214	0.6319	0.032
Mof_H 	H 	0.027	0.816	0.6348	-0.024
Mof_O 	O 	0.9859	0.2273	0.1669	-0.215
Mof_O 	O 	0.9911	0.2199	0.0843	-0.328
Mof_C 	C 	0.9913	0.2487	0.1233	0.295
Mof_C 	C 	0.9966	0.3042	0.1172	0.095
Mof_H 	H 	0.9672	0.3214	0.1319	0.033
Mof_H 	H 	0.027	0.316	0.1348	-0.027
Mof_O 	O 	0.4859	0.7273	0.1669	-0.285
Mof_O 	O 	0.4911	0.7199	0.0843	-0.412
Mof_C 	C 	0.4913	0.7487	0.1233	0.39
Mof_C 	C 	0.4966	0.8042	0.1172	-0.223
Mof_H 	H 	0.4672	0.8214	0.1319	0.112
Mof_H 	H 	0.527	0.816	0.1348	0.116
Mof_O 	O 	0.4859	0.2273	0.6669	-0.283
Mof_O 	O 	0.4911	0.2199	0.5843	-0.419
Mof_C 	C 	0.4913	0.2487	0.6233	0.386
Mof_C 	C 	0.4966	0.3042	0.6172	-0.203
Mof_H 	H 	0.4672	0.3214	0.6319	0.105
Mof_H 	H 	0.527	0.316	0.6348	0.109
Mof_O 	O 	0.4859	0.5227	0.0831	-0.29
Mof_O 	O 	0.4911	0.5301	0.1657	-0.42
Mof_C 	C 	0.4913	0.5013	0.1267	0.386
Mof_C 	C 	0.4966	0.4458	0.1328	-0.202
Mof_H 	H 	0.4672	0.4286	0.1181	0.103
Mof_H 	H 	0.527	0.434	0.1152	0.108
Mof_O 	O 	0.4859	0.0227	0.5831	-0.274
Mof_O 	O 	0.4911	0.0301	0.6657	-0.399
Mof_C 	C 	0.4913	0.0013	0.6267	0.275
Mof_C 	C 	0.4966	0.9458	0.6328	-0.08
Mof_H 	H 	0.4672	0.9286	0.6181	0.08
Mof_H 	H 	0.527	0.934	0.6152	0.085
Mof_O 	O 	0.9859	0.5227	0.5831	-0.214
Mof_O 	O 	0.9911	0.5301	0.6657	-0.336
Mof_C 	C 	0.9913	0.5013	0.6267	0.294
Mof_C 	C 	0.9966	0.4458	0.6328	0.107
Mof_H 	H 	0.9672	0.4286	0.6181	0.029
Mof_H 	H 	0.027	0.434	0.6152	-0.029
Mof_O 	O 	0.9859	0.0227	0.0831	-0.214
Mof_O 	O 	0.9911	0.0301	0.1657	-0.318
Mof_C 	C 	0.9913	0.0013	0.1267	0.187
Mof_C 	C 	0.9966	0.9458	0.1328	0.221
Mof_H 	H 	0.9672	0.9286	0.1181	0.006
Mof_H 	H 	0.027	0.934	0.1152	-0.05
Mof_O 	O 	0.2641	0.0227	0.1669	-0.277
Mof_O 	O 	0.2589	0.0301	0.0843	-0.393
Mof_C 	C 	0.2587	0.0013	0.1233	0.276
Mof_C 	C 	0.2534	0.9458	0.1172	-0.096
Mof_H 	H 	0.2828	0.9286	0.1319	0.086
Mof_H 	H 	0.223	0.934	0.1348	0.089
Mof_O 	O 	0.2641	0.5227	0.6669	-0.283
Mof_O 	O 	0.2589	0.5301	0.5843	-0.419
Mof_C 	C 	0.2587	0.5013	0.6233	0.386
Mof_C 	C 	0.2534	0.4458	0.6172	-0.203
Mof_H 	H 	0.2828	0.4286	0.6319	0.104
Mof_H 	H 	0.223	0.434	0.6348	0.109
Mof_O 	O 	0.7641	0.0227	0.6669	-0.274
Mof_O 	O 	0.7589	0.0301	0.5843	-0.399
Mof_C 	C 	0.7587	0.0013	0.6233	0.277
Mof_C 	C 	0.7534	0.9458	0.6172	-0.083
Mof_H 	H 	0.7828	0.9286	0.6319	0.082
Mof_H 	H 	0.723	0.934	0.6348	0.086
Mof_O 	O 	0.7641	0.5227	0.1669	-0.284
Mof_O 	O 	0.7589	0.5301	0.0843	-0.412
Mof_C 	C 	0.7587	0.5013	0.1233	0.39
Mof_C 	C 	0.7534	0.4458	0.1172	-0.222
Mof_H 	H 	0.7828	0.4286	0.1319	0.112
Mof_H 	H 	0.723	0.434	0.1348	0.115
Mof_O 	O 	0.7273	0.6669	0.9859	-0.215
Mof_O 	O 	0.7199	0.5843	0.9911	-0.337
Mof_C 	C 	0.7487	0.6233	0.9913	0.297
Mof_C 	C 	0.8042	0.6172	0.9966	0.098
Mof_H 	H 	0.8214	0.6319	0.9672	0.032
Mof_H 	H 	0.816	0.6348	0.027	-0.024
Mof_O 	O 	0.7273	0.1669	0.4859	-0.285
Mof_O 	O 	0.7199	0.0843	0.4911	-0.412
Mof_C 	C 	0.7487	0.1233	0.4913	0.39
Mof_C 	C 	0.8042	0.1172	0.4966	-0.223
Mof_H 	H 	0.8214	0.1319	0.4672	0.112
Mof_H 	H 	0.816	0.1348	0.527	0.116
Mof_O 	O 	0.2273	0.6669	0.4859	-0.283
Mof_O 	O 	0.2199	0.5843	0.4911	-0.419
Mof_C 	C 	0.2487	0.6233	0.4913	0.386
Mof_C 	C 	0.3042	0.6172	0.4966	-0.203
Mof_H 	H 	0.3214	0.6319	0.4672	0.105
Mof_H 	H 	0.316	0.6348	0.527	0.109
Mof_O 	O 	0.2273	0.1669	0.9859	-0.215
Mof_O 	O 	0.2199	0.0843	0.9911	-0.328
Mof_C 	C 	0.2487	0.1233	0.9913	0.295
Mof_C 	C 	0.3042	0.1172	0.9966	0.095
Mof_H 	H 	0.3214	0.1319	0.9672	0.033
Mof_H 	H 	0.316	0.1348	0.027	-0.027
Mof_O 	O 	0.2273	0.5831	0.7641	-0.283
Mof_O 	O 	0.2199	0.6657	0.7589	-0.419
Mof_C 	C 	0.2487	0.6267	0.7587	0.387
Mof_C 	C 	0.3042	0.6328	0.7534	-0.204
Mof_H 	H 	0.3214	0.6181	0.7828	0.106
Mof_H 	H 	0.316	0.6152	0.723	0.11
Mof_O 	O 	0.2273	0.0831	0.2641	-0.292
Mof_O 	O 	0.2199	0.1657	0.2589	-0.422
Mof_C 	C 	0.2487	0.1267	0.2587	0.386
Mof_C 	C 	0.3042	0.1328	0.2534	-0.202
Mof_H 	H 	0.3214	0.1181	0.2828	0.103
Mof_H 	H 	0.316	0.1152	0.223	0.108
Mof_O 	O 	0.7273	0.5831	0.2641	-0.283
Mof_O 	O 	0.7199	0.6657	0.2589	-0.419
Mof_C 	C 	0.7487	0.6267	0.2587	0.386
Mof_C 	C 	0.8042	0.6328	0.2534	-0.205
Mof_H 	H 	0.8214	0.6181	0.2828	0.107
Mof_H 	H 	0.816	0.6152	0.223	0.11
Mof_O 	O 	0.7273	0.0831	0.7641	-0.29
Mof_O 	O 	0.7199	0.1657	0.7589	-0.42
Mof_C 	C 	0.7487	0.1267	0.7587	0.387
Mof_C 	C 	0.8042	0.1328	0.7534	-0.205
Mof_H 	H 	0.8214	0.1181	0.7828	0.107
Mof_H 	H 	0.816	0.1152	0.723	0.11
Mof_O 	O 	0.0227	0.1669	0.2641	-0.277
Mof_O 	O 	0.0301	0.0843	0.2589	-0.393
Mof_C 	C 	0.0013	0.1233	0.2587	0.276
Mof_C 	C 	0.9458	0.1172	0.2534	-0.096
Mof_H 	H 	0.9286	0.1319	0.2828	0.086
Mof_H 	H 	0.934	0.1348	0.223	0.089
Mof_O 	O 	0.0227	0.6669	0.7641	-0.274
Mof_O 	O 	0.0301	0.5843	0.7589	-0.399
Mof_C 	C 	0.0013	0.6233	0.7587	0.277
Mof_C 	C 	0.9458	0.6172	0.7534	-0.083
Mof_H 	H 	0.9286	0.6319	0.7828	0.082
Mof_H 	H 	0.934	0.6348	0.723	0.086
Mof_O 	O 	0.5227	0.1669	0.7641	-0.284
Mof_O 	O 	0.5301	0.0843	0.7589	-0.412
Mof_C 	C 	0.5013	0.1233	0.7587	0.39
Mof_C 	C 	0.4458	0.1172	0.7534	-0.222
Mof_H 	H 	0.4286	0.1319	0.7828	0.112
Mof_H 	H 	0.434	0.1348	0.723	0.115
Mof_O 	O 	0.5227	0.6669	0.2641	-0.283
Mof_O 	O 	0.5301	0.5843	0.2589	-0.419
Mof_C 	C 	0.5013	0.6233	0.2587	0.386
Mof_C 	C 	0.4458	0.6172	0.2534	-0.203
Mof_H 	H 	0.4286	0.6319	0.2828	0.104
Mof_H 	H 	0.434	0.6348	0.223	0.109
Mof_O 	O 	0.5227	0.0831	0.4859	-0.29
Mof_O 	O 	0.5301	0.1657	0.4911	-0.42
Mof_C 	C 	0.5013	0.1267	0.4913	0.386
Mof_C 	C 	0.4458	0.1328	0.4966	-0.202
Mof_H 	H 	0.4286	0.1181	0.4672	0.103
Mof_H 	H 	0.434	0.1152	0.527	0.108
Mof_O 	O 	0.5227	0.5831	0.9859	-0.214
Mof_O 	O 	0.5301	0.6657	0.9911	-0.336
Mof_C 	C 	0.5013	0.6267	0.9913	0.294
Mof_C 	C 	0.4458	0.6328	0.9966	0.107
Mof_H 	H 	0.4286	0.6181	0.9672	0.029
Mof_H 	H 	0.434	0.6152	0.027	-0.029
Mof_O 	O 	0.0227	0.0831	0.9859	-0.214
Mof_O 	O 	0.0301	0.1657	0.9911	-0.318
Mof_C 	C 	0.0013	0.1267	0.9913	0.187
Mof_C 	C 	0.9458	0.1328	0.9966	0.221
Mof_H 	H 	0.9286	0.1181	0.9672	0.006
Mof_H 	H 	0.934	0.1152	0.027	-0.05
Mof_O 	O 	0.0227	0.5831	0.4859	-0.274
Mof_O 	O 	0.0301	0.6657	0.4911	-0.399
Mof_C 	C 	0.0013	0.6267	0.4913	0.275
Mof_C 	C 	0.9458	0.6328	0.4966	-0.08
Mof_H 	H 	0.9286	0.6181	0.4672	0.08
Mof_H 	H 	0.934	0.6152	0.527	0.085
Mof_O 	O 	0.9859	0.5831	0.0227	-0.207
Mof_O 	O 	0.9911	0.6657	0.0301	-0.318
Mof_C 	C 	0.9913	0.6267	0.0013	0.19
Mof_C 	C 	0.9966	0.6328	0.9458	0.214
Mof_H 	H 	0.9672	0.6181	0.9286	0.009
Mof_H 	H 	0.027	0.6152	0.934	-0.047
Mof_O 	O 	0.9859	0.0831	0.5227	-0.22
Mof_O 	O 	0.9911	0.1657	0.5301	-0.336
Mof_C 	C 	0.9913	0.1267	0.5013	0.292
Mof_C 	C 	0.9966	0.1328	0.4458	0.113
Mof_H 	H 	0.9672	0.1181	0.4286	0.026
Mof_H 	H 	0.027	0.1152	0.434	-0.032
Mof_O 	O 	0.4859	0.5831	0.5227	-0.282
Mof_O 	O 	0.4911	0.6657	0.5301	-0.418
Mof_C 	C 	0.4913	0.6267	0.5013	0.386
Mof_C 	C 	0.4966	0.6328	0.4458	-0.203
Mof_H 	H 	0.4672	0.6181	0.4286	0.104
Mof_H 	H 	0.527	0.6152	0.434	0.109
Mof_O 	O 	0.4859	0.0831	0.0227	-0.282
Mof_O 	O 	0.4911	0.1657	0.0301	-0.401
Mof_C 	C 	0.4913	0.1267	0.0013	0.273
Mof_C 	C 	0.4966	0.1328	0.9458	-0.078
Mof_H 	H 	0.4672	0.1181	0.9286	0.079
Mof_H 	H 	0.527	0.1152	0.934	0.084
Mof_O 	O 	0.7641	0.6669	0.5227	-0.282
Mof_O 	O 	0.7589	0.5843	0.5301	-0.418
Mof_C 	C 	0.7587	0.6233	0.5013	0.387
Mof_C 	C 	0.7534	0.6172	0.4458	-0.204
Mof_H 	H 	0.7828	0.6319	0.4286	0.106
Mof_H 	H 	0.723	0.6348	0.434	0.11
Mof_O 	O 	0.7641	0.1669	0.0227	-0.276
Mof_O 	O 	0.7589	0.0843	0.0301	-0.393
Mof_C 	C 	0.7587	0.1233	0.0013	0.279
Mof_C 	C 	0.7534	0.1172	0.9458	-0.1
Mof_H 	H 	0.7828	0.1319	0.9286	0.087
Mof_H 	H 	0.723	0.1348	0.934	0.09
Mof_O 	O 	0.2641	0.6669	0.0227	-0.275
Mof_O 	O 	0.2589	0.5843	0.0301	-0.399
Mof_C 	C 	0.2587	0.6233	0.0013	0.274
Mof_C 	C 	0.2534	0.6172	0.9458	-0.079
Mof_H 	H 	0.2828	0.6319	0.9286	0.08
Mof_H 	H 	0.223	0.6348	0.934	0.084
Mof_O 	O 	0.2641	0.1669	0.5227	-0.285
Mof_O 	O 	0.2589	0.0843	0.5301	-0.412
Mof_C 	C 	0.2587	0.1233	0.5013	0.389
Mof_C 	C 	0.2534	0.1172	0.4458	-0.221
Mof_H 	H 	0.2828	0.1319	0.4286	0.11
Mof_H 	H 	0.223	0.1348	0.434	0.114
Mof_O 	O 	0.2641	0.0831	0.7273	-0.291
Mof_O 	O 	0.2589	0.1657	0.7199	-0.421
Mof_C 	C 	0.2587	0.1267	0.7487	0.386
Mof_C 	C 	0.2534	0.1328	0.8042	-0.204
Mof_H 	H 	0.2828	0.1181	0.8214	0.105
Mof_H 	H 	0.223	0.1152	0.816	0.109
Mof_O 	O 	0.2641	0.5831	0.2273	-0.284
Mof_O 	O 	0.2589	0.6657	0.2199	-0.42
Mof_C 	C 	0.2587	0.6267	0.2487	0.386
Mof_C 	C 	0.2534	0.6328	0.3042	-0.203
Mof_H 	H 	0.2828	0.6181	0.3214	0.104
Mof_H 	H 	0.223	0.6152	0.316	0.109
Mof_O 	O 	0.7641	0.0831	0.2273	-0.291
Mof_O 	O 	0.7589	0.1657	0.2199	-0.421
Mof_C 	C 	0.7587	0.1267	0.2487	0.387
Mof_C 	C 	0.7534	0.1328	0.3042	-0.204
Mof_H 	H 	0.7828	0.1181	0.3214	0.105
Mof_H 	H 	0.723	0.1152	0.316	0.109
Mof_O 	O 	0.7641	0.5831	0.7273	-0.282
Mof_O 	O 	0.7589	0.6657	0.7199	-0.418
Mof_C 	C 	0.7587	0.6267	0.7487	0.387
Mof_C 	C 	0.7534	0.6328	0.8042	-0.206
Mof_H 	H 	0.7828	0.6181	0.8214	0.108
Mof_H 	H 	0.723	0.6152	0.816	0.111
Mof_O 	O 	0.4859	0.1669	0.2273	-0.285
Mof_O 	O 	0.4911	0.0843	0.2199	-0.413
Mof_C 	C 	0.4913	0.1233	0.2487	0.389
Mof_C 	C 	0.4966	0.1172	0.3042	-0.222
Mof_H 	H 	0.4672	0.1319	0.3214	0.11
Mof_H 	H 	0.527	0.1348	0.316	0.114
Mof_O 	O 	0.4859	0.6669	0.7273	-0.283
Mof_O 	O 	0.4911	0.5843	0.7199	-0.418
Mof_C 	C 	0.4913	0.6233	0.7487	0.387
Mof_C 	C 	0.4966	0.6172	0.8042	-0.205
Mof_H 	H 	0.4672	0.6319	0.8214	0.107
Mof_H 	H 	0.527	0.6348	0.816	0.111
Mof_O 	O 	0.9859	0.1669	0.7273	-0.216
Mof_O 	O 	0.9911	0.0843	0.7199	-0.33
Mof_C 	C 	0.9913	0.1233	0.7487	0.299
Mof_C 	C 	0.9966	0.1172	0.8042	0.085
Mof_H 	H 	0.9672	0.1319	0.8214	0.037
Mof_H 	H 	0.027	0.1348	0.816	-0.021
Mof_O 	O 	0.9859	0.6669	0.2273	-0.214
Mof_O 	O 	0.9911	0.5843	0.2199	-0.336
Mof_C 	C 	0.9913	0.6233	0.2487	0.294
Mof_C 	C 	0.9966	0.6172	0.3042	0.109
Mof_H 	H 	0.9672	0.6319	0.3214	0.028
Mof_H 	H 	0.027	0.6348	0.316	-0.03
Mof_O 	O 	0.0227	0.9859	0.5831	-0.207
Mof_O 	O 	0.0301	0.9911	0.6657	-0.318
Mof_C 	C 	0.0013	0.9913	0.6267	0.19
Mof_C 	C 	0.9458	0.9966	0.6328	0.214
Mof_H 	H 	0.9286	0.9672	0.6181	0.009
Mof_H 	H 	0.934	0.027	0.6152	-0.047
Mof_O 	O 	0.0227	0.4859	0.0831	-0.282
Mof_O 	O 	0.0301	0.4911	0.1657	-0.401
Mof_C 	C 	0.0013	0.4913	0.1267	0.273
Mof_C 	C 	0.9458	0.4966	0.1328	-0.078
Mof_H 	H 	0.9286	0.4672	0.1181	0.079
Mof_H 	H 	0.934	0.527	0.1152	0.084
Mof_O 	O 	0.5227	0.9859	0.0831	-0.22
Mof_O 	O 	0.5301	0.9911	0.1657	-0.336
Mof_C 	C 	0.5013	0.9913	0.1267	0.292
Mof_C 	C 	0.4458	0.9966	0.1328	0.113
Mof_H 	H 	0.4286	0.9672	0.1181	0.026
Mof_H 	H 	0.434	0.027	0.1152	-0.032
Mof_O 	O 	0.5227	0.4859	0.5831	-0.282
Mof_O 	O 	0.5301	0.4911	0.6657	-0.418
Mof_C 	C 	0.5013	0.4913	0.6267	0.386
Mof_C 	C 	0.4458	0.4966	0.6328	-0.203
Mof_H 	H 	0.4286	0.4672	0.6181	0.104
Mof_H 	H 	0.434	0.527	0.6152	0.109
Mof_O 	O 	0.5227	0.7641	0.6669	-0.282
Mof_O 	O 	0.5301	0.7589	0.5843	-0.418
Mof_C 	C 	0.5013	0.7587	0.6233	0.387
Mof_C 	C 	0.4458	0.7534	0.6172	-0.204
Mof_H 	H 	0.4286	0.7828	0.6319	0.106
Mof_H 	H 	0.434	0.723	0.6348	0.11
Mof_O 	O 	0.5227	0.2641	0.1669	-0.285
Mof_O 	O 	0.5301	0.2589	0.0843	-0.412
Mof_C 	C 	0.5013	0.2587	0.1233	0.389
Mof_C 	C 	0.4458	0.2534	0.1172	-0.221
Mof_H 	H 	0.4286	0.2828	0.1319	0.11
Mof_H 	H 	0.434	0.223	0.1348	0.114
Mof_O 	O 	0.0227	0.7641	0.1669	-0.276
Mof_O 	O 	0.0301	0.7589	0.0843	-0.393
Mof_C 	C 	0.0013	0.7587	0.1233	0.279
Mof_C 	C 	0.9458	0.7534	0.1172	-0.1
Mof_H 	H 	0.9286	0.7828	0.1319	0.087
Mof_H 	H 	0.934	0.723	0.1348	0.09
Mof_O 	O 	0.0227	0.2641	0.6669	-0.275
Mof_O 	O 	0.0301	0.2589	0.5843	-0.399
Mof_C 	C 	0.0013	0.2587	0.6233	0.274
Mof_C 	C 	0.9458	0.2534	0.6172	-0.079
Mof_H 	H 	0.9286	0.2828	0.6319	0.08
Mof_H 	H 	0.934	0.223	0.6348	0.084
Mof_O 	O 	0.7273	0.2641	0.0831	-0.291
Mof_O 	O 	0.7199	0.2589	0.1657	-0.421
Mof_C 	C 	0.7487	0.2587	0.1267	0.386
Mof_C 	C 	0.8042	0.2534	0.1328	-0.204
Mof_H 	H 	0.8214	0.2828	0.1181	0.105
Mof_H 	H 	0.816	0.223	0.1152	0.109
Mof_O 	O 	0.7273	0.7641	0.5831	-0.282
Mof_O 	O 	0.7199	0.7589	0.6657	-0.418
Mof_C 	C 	0.7487	0.7587	0.6267	0.387
Mof_C 	C 	0.8042	0.7534	0.6328	-0.206
Mof_H 	H 	0.8214	0.7828	0.6181	0.108
Mof_H 	H 	0.816	0.723	0.6152	0.111
Mof_O 	O 	0.2273	0.2641	0.5831	-0.284
Mof_O 	O 	0.2199	0.2589	0.6657	-0.42
Mof_C 	C 	0.2487	0.2587	0.6267	0.386
Mof_C 	C 	0.3042	0.2534	0.6328	-0.203
Mof_H 	H 	0.3214	0.2828	0.6181	0.104
Mof_H 	H 	0.316	0.223	0.6152	0.109
Mof_O 	O 	0.2273	0.7641	0.0831	-0.291
Mof_O 	O 	0.2199	0.7589	0.1657	-0.421
Mof_C 	C 	0.2487	0.7587	0.1267	0.387
Mof_C 	C 	0.3042	0.7534	0.1328	-0.204
Mof_H 	H 	0.3214	0.7828	0.1181	0.105
Mof_H 	H 	0.316	0.723	0.1152	0.109
Mof_O 	O 	0.2273	0.4859	0.1669	-0.285
Mof_O 	O 	0.2199	0.4911	0.0843	-0.413
Mof_C 	C 	0.2487	0.4913	0.1233	0.389
Mof_C 	C 	0.3042	0.4966	0.1172	-0.222
Mof_H 	H 	0.3214	0.4672	0.1319	0.11
Mof_H 	H 	0.316	0.527	0.1348	0.114
Mof_O 	O 	0.2273	0.9859	0.6669	-0.214
Mof_O 	O 	0.2199	0.9911	0.5843	-0.336
Mof_C 	C 	0.2487	0.9913	0.6233	0.294
Mof_C 	C 	0.3042	0.9966	0.6172	0.109
Mof_H 	H 	0.3214	0.9672	0.6319	0.028
Mof_H 	H 	0.316	0.027	0.6348	-0.03
Mof_O 	O 	0.7273	0.4859	0.6669	-0.283
Mof_O 	O 	0.7199	0.4911	0.5843	-0.418
Mof_C 	C 	0.7487	0.4913	0.6233	0.387
Mof_C 	C 	0.8042	0.4966	0.6172	-0.205
Mof_H 	H 	0.8214	0.4672	0.6319	0.107
Mof_H 	H 	0.816	0.527	0.6348	0.111
Mof_O 	O 	0.7273	0.9859	0.1669	-0.216
Mof_O 	O 	0.7199	0.9911	0.0843	-0.33
Mof_C 	C 	0.7487	0.9913	0.1233	0.299
Mof_C 	C 	0.8042	0.9966	0.1172	0.085
Mof_H 	H 	0.8214	0.9672	0.1319	0.037
Mof_H 	H 	0.816	0.027	0.1348	-0.021
Mof_O 	O 	0.5831	0.0227	0.9859	-0.207
Mof_O 	O 	0.6657	0.0301	0.9911	-0.318
Mof_C 	C 	0.6267	0.0013	0.9913	0.19
Mof_C 	C 	0.6328	0.9458	0.9966	0.214
Mof_H 	H 	0.6181	0.9286	0.9672	0.009
Mof_H 	H 	0.6152	0.934	0.027	-0.047
Mof_O 	O 	0.5831	0.5227	0.4859	-0.282
Mof_O 	O 	0.6657	0.5301	0.4911	-0.418
Mof_C 	C 	0.6267	0.5013	0.4913	0.386
Mof_C 	C 	0.6328	0.4458	0.4966	-0.203
Mof_H 	H 	0.6181	0.4286	0.4672	0.104
Mof_H 	H 	0.6152	0.434	0.527	0.109
Mof_O 	O 	0.0831	0.0227	0.4859	-0.282
Mof_O 	O 	0.1657	0.0301	0.4911	-0.401
Mof_C 	C 	0.1267	0.0013	0.4913	0.273
Mof_C 	C 	0.1328	0.9458	0.4966	-0.078
Mof_H 	H 	0.1181	0.9286	0.4672	0.079
Mof_H 	H 	0.1152	0.934	0.527	0.084
Mof_O 	O 	0.0831	0.5227	0.9859	-0.22
Mof_O 	O 	0.1657	0.5301	0.9911	-0.336
Mof_C 	C 	0.1267	0.5013	0.9913	0.292
Mof_C 	C 	0.1328	0.4458	0.9966	0.113
Mof_H 	H 	0.1181	0.4286	0.9672	0.026
Mof_H 	H 	0.1152	0.434	0.027	-0.032
Mof_O 	O 	0.6669	0.5227	0.7641	-0.282
Mof_O 	O 	0.5843	0.5301	0.7589	-0.418
Mof_C 	C 	0.6233	0.5013	0.7587	0.387
Mof_C 	C 	0.6172	0.4458	0.7534	-0.204
Mof_H 	H 	0.6319	0.4286	0.7828	0.106
Mof_H 	H 	0.6348	0.434	0.723	0.11
Mof_O 	O 	0.6669	0.0227	0.2641	-0.275
Mof_O 	O 	0.5843	0.0301	0.2589	-0.399
Mof_C 	C 	0.6233	0.0013	0.2587	0.274
Mof_C 	C 	0.6172	0.9458	0.2534	-0.079
Mof_H 	H 	0.6319	0.9286	0.2828	0.08
Mof_H 	H 	0.6348	0.934	0.223	0.084
Mof_O 	O 	0.1669	0.5227	0.2641	-0.285
Mof_O 	O 	0.0843	0.5301	0.2589	-0.412
Mof_C 	C 	0.1233	0.5013	0.2587	0.389
Mof_C 	C 	0.1172	0.4458	0.2534	-0.221
Mof_H 	H 	0.1319	0.4286	0.2828	0.11
Mof_H 	H 	0.1348	0.434	0.223	0.114
Mof_O 	O 	0.1669	0.0227	0.7641	-0.276
Mof_O 	O 	0.0843	0.0301	0.7589	-0.393
Mof_C 	C 	0.1233	0.0013	0.7587	0.279
Mof_C 	C 	0.1172	0.9458	0.7534	-0.1
Mof_H 	H 	0.1319	0.9286	0.7828	0.087
Mof_H 	H 	0.1348	0.934	0.723	0.09
Mof_O 	O 	0.0831	0.7273	0.2641	-0.291
Mof_O 	O 	0.1657	0.7199	0.2589	-0.421
Mof_C 	C 	0.1267	0.7487	0.2587	0.386
Mof_C 	C 	0.1328	0.8042	0.2534	-0.204
Mof_H 	H 	0.1181	0.8214	0.2828	0.105
Mof_H 	H 	0.1152	0.816	0.223	0.109
Mof_O 	O 	0.0831	0.2273	0.7641	-0.291
Mof_O 	O 	0.1657	0.2199	0.7589	-0.421
Mof_C 	C 	0.1267	0.2487	0.7587	0.387
Mof_C 	C 	0.1328	0.3042	0.7534	-0.204
Mof_H 	H 	0.1181	0.3214	0.7828	0.105
Mof_H 	H 	0.1152	0.316	0.723	0.109
Mof_O 	O 	0.5831	0.7273	0.7641	-0.282
Mof_O 	O 	0.6657	0.7199	0.7589	-0.418
Mof_C 	C 	0.6267	0.7487	0.7587	0.387
Mof_C 	C 	0.6328	0.8042	0.7534	-0.206
Mof_H 	H 	0.6181	0.8214	0.7828	0.108
Mof_H 	H 	0.6152	0.816	0.723	0.111
Mof_O 	O 	0.5831	0.2273	0.2641	-0.284
Mof_O 	O 	0.6657	0.2199	0.2589	-0.42
Mof_C 	C 	0.6267	0.2487	0.2587	0.386
Mof_C 	C 	0.6328	0.3042	0.2534	-0.203
Mof_H 	H 	0.6181	0.3214	0.2828	0.104
Mof_H 	H 	0.6152	0.316	0.223	0.109
Mof_O 	O 	0.1669	0.2273	0.4859	-0.285
Mof_O 	O 	0.0843	0.2199	0.4911	-0.413
Mof_C 	C 	0.1233	0.2487	0.4913	0.389
Mof_C 	C 	0.1172	0.3042	0.4966	-0.222
Mof_H 	H 	0.1319	0.3214	0.4672	0.11
Mof_H 	H 	0.1348	0.316	0.527	0.114
Mof_O 	O 	0.1669	0.7273	0.9859	-0.216
Mof_O 	O 	0.0843	0.7199	0.9911	-0.33
Mof_C 	C 	0.1233	0.7487	0.9913	0.299
Mof_C 	C 	0.1172	0.8042	0.9966	0.085
Mof_H 	H 	0.1319	0.8214	0.9672	0.037
Mof_H 	H 	0.1348	0.816	0.027	-0.021
Mof_O 	O 	0.6669	0.2273	0.9859	-0.214
Mof_O 	O 	0.5843	0.2199	0.9911	-0.336
Mof_C 	C 	0.6233	0.2487	0.9913	0.294
Mof_C 	C 	0.6172	0.3042	0.9966	0.109
Mof_H 	H 	0.6319	0.3214	0.9672	0.028
Mof_H 	H 	0.6348	0.316	0.027	-0.03
Mof_O 	O 	0.6669	0.7273	0.4859	-0.283
Mof_O 	O 	0.5843	0.7199	0.4911	-0.418
Mof_C 	C 	0.6233	0.7487	0.4913	0.387
Mof_C 	C 	0.6172	0.8042	0.4966	-0.205
Mof_H 	H 	0.6319	0.8214	0.4672	0.107
Mof_H 	H 	0.6348	0.816	0.527	0.111
Mof_O 	O 	0.8331	0.7359	0.9773	-0.259
Mof_O 	O 	0.9157	0.7411	0.9699	-0.344
Mof_C 	C 	0.8767	0.7413	0.9987	0.478
Mof_C 	C 	0.8828	0.7466	0.0542	-0.322
Mof_H 	H 	0.8681	0.7172	0.0714	0.134
Mof_H 	H 	0.8652	0.777	0.066	0.14
Mof_O 	O 	0.8331	0.2359	0.4773	-0.276
Mof_O 	O 	0.9157	0.2411	0.4699	-0.37
Mof_C 	C 	0.8767	0.2413	0.4987	0.376
Mof_C 	C 	0.8828	0.2466	0.5542	-0.193
Mof_H 	H 	0.8681	0.2172	0.5714	0.102
Mof_H 	H 	0.8652	0.277	0.566	0.109
Mof_O 	O 	0.3331	0.7359	0.4773	-0.281
Mof_O 	O 	0.4157	0.7411	0.4699	-0.417
Mof_C 	C 	0.3767	0.7413	0.4987	0.387
Mof_C 	C 	0.3828	0.7466	0.5542	-0.204
Mof_H 	H 	0.3681	0.7172	0.5714	0.105
Mof_H 	H 	0.3652	0.777	0.566	0.111
Mof_O 	O 	0.3331	0.2359	0.9773	-0.265
Mof_O 	O 	0.4157	0.2411	0.9699	-0.391
Mof_C 	C 	0.3767	0.2413	0.9987	0.492
Mof_C 	C 	0.3828	0.2466	0.0542	-0.337
Mof_H 	H 	0.3681	0.2172	0.0714	0.136
Mof_H 	H 	0.3652	0.277	0.066	0.141
Mof_O 	O 	0.9169	0.5141	0.4773	-0.251
Mof_O 	O 	0.8343	0.5089	0.4699	-0.413
Mof_C 	C 	0.8733	0.5087	0.4987	0.382
Mof_C 	C 	0.8672	0.5034	0.5542	-0.201
Mof_H 	H 	0.8819	0.5328	0.5714	0.107
Mof_H 	H 	0.8848	0.473	0.566	0.114
Mof_O 	O 	0.9169	0.0141	0.9773	-0.263
Mof_O 	O 	0.8343	0.0089	0.9699	-0.4
Mof_C 	C 	0.8733	0.0087	0.9987	0.517
Mof_C 	C 	0.8672	0.0034	0.0542	-0.472
Mof_H 	H 	0.8819	0.0328	0.0714	0.173
Mof_H 	H 	0.8848	0.973	0.066	0.242
Mof_O 	O 	0.4169	0.5141	0.9773	-0.265
Mof_O 	O 	0.3343	0.5089	0.9699	-0.39
Mof_C 	C 	0.3733	0.5087	0.9987	0.492
Mof_C 	C 	0.3672	0.5034	0.0542	-0.336
Mof_H 	H 	0.3819	0.5328	0.0714	0.137
Mof_H 	H 	0.3848	0.473	0.066	0.141
Mof_O 	O 	0.4169	0.0141	0.4773	-0.312
Mof_O 	O 	0.3343	0.0089	0.4699	-0.432
Mof_C 	C 	0.3733	0.0087	0.4987	0.419
Mof_C 	C 	0.3672	0.0034	0.5542	-0.346
Mof_H 	H 	0.3819	0.0328	0.5714	0.139
Mof_H 	H 	0.3848	0.973	0.566	0.208
Mof_O 	O 	0.3331	0.0141	0.2727	-0.312
Mof_O 	O 	0.4157	0.0089	0.2801	-0.432
Mof_C 	C 	0.3767	0.0087	0.2513	0.419
Mof_C 	C 	0.3828	0.0034	0.1958	-0.347
Mof_H 	H 	0.3681	0.0328	0.1786	0.14
Mof_H 	H 	0.3652	0.973	0.184	0.209
Mof_O 	O 	0.3331	0.5141	0.7727	-0.28
Mof_O 	O 	0.4157	0.5089	0.7801	-0.416
Mof_C 	C 	0.3767	0.5087	0.7513	0.386
Mof_C 	C 	0.3828	0.5034	0.6958	-0.203
Mof_H 	H 	0.3681	0.5328	0.6786	0.104
Mof_H 	H 	0.3652	0.473	0.684	0.109
Mof_O 	O 	0.8331	0.0141	0.7727	-0.303
Mof_O 	O 	0.9157	0.0089	0.7801	-0.382
Mof_C 	C 	0.8767	0.0087	0.7513	0.408
Mof_C 	C 	0.8828	0.0034	0.6958	-0.333
Mof_H 	H 	0.8681	0.0328	0.6786	0.137
Mof_H 	H 	0.8652	0.973	0.684	0.204
Mof_O 	O 	0.8331	0.5141	0.2727	-0.276
Mof_O 	O 	0.9157	0.5089	0.2801	-0.37
Mof_C 	C 	0.8767	0.5087	0.2513	0.376
Mof_C 	C 	0.8828	0.5034	0.1958	-0.193
Mof_H 	H 	0.8681	0.5328	0.1786	0.103
Mof_H 	H 	0.8652	0.473	0.184	0.109
Mof_O 	O 	0.4169	0.2359	0.7727	-0.28
Mof_O 	O 	0.3343	0.2411	0.7801	-0.416
Mof_C 	C 	0.3733	0.2413	0.7513	0.385
Mof_C 	C 	0.3672	0.2466	0.6958	-0.202
Mof_H 	H 	0.3819	0.2172	0.6786	0.104
Mof_H 	H 	0.3848	0.277	0.684	0.109
Mof_O 	O 	0.4169	0.7359	0.2727	-0.281
Mof_O 	O 	0.3343	0.7411	0.2801	-0.417
Mof_C 	C 	0.3733	0.7413	0.2513	0.387
Mof_C 	C 	0.3672	0.7466	0.1958	-0.203
Mof_H 	H 	0.3819	0.7172	0.1786	0.104
Mof_H 	H 	0.3848	0.777	0.184	0.111
Mof_O 	O 	0.9169	0.2359	0.2727	-0.25
Mof_O 	O 	0.8343	0.2411	0.2801	-0.413
Mof_C 	C 	0.8733	0.2413	0.2513	0.381
Mof_C 	C 	0.8672	0.2466	0.1958	-0.2
Mof_H 	H 	0.8819	0.2172	0.1786	0.107
Mof_H 	H 	0.8848	0.277	0.184	0.114
Mof_O 	O 	0.9169	0.7359	0.7727	-0.249
Mof_O 	O 	0.8343	0.7411	0.7801	-0.41
Mof_C 	C 	0.8733	0.7413	0.7513	0.383
Mof_C 	C 	0.8672	0.7466	0.6958	-0.202
Mof_H 	H 	0.8819	0.7172	0.6786	0.108
Mof_H 	H 	0.8848	0.777	0.684	0.116
Mof_O 	O 	0.2359	0.7727	0.4169	-0.28
Mof_O 	O 	0.2411	0.7801	0.3343	-0.416
Mof_C 	C 	0.2413	0.7513	0.3733	0.385
Mof_C 	C 	0.2466	0.6958	0.3672	-0.202
Mof_H 	H 	0.2172	0.6786	0.3819	0.104
Mof_H 	H 	0.277	0.684	0.3848	0.109
Mof_O 	O 	0.2359	0.2727	0.9169	-0.25
Mof_O 	O 	0.2411	0.2801	0.8343	-0.413
Mof_C 	C 	0.2413	0.2513	0.8733	0.381
Mof_C 	C 	0.2466	0.1958	0.8672	-0.2
Mof_H 	H 	0.2172	0.1786	0.8819	0.107
Mof_H 	H 	0.277	0.184	0.8848	0.114
Mof_O 	O 	0.7359	0.7727	0.9169	-0.249
Mof_O 	O 	0.7411	0.7801	0.8343	-0.41
Mof_C 	C 	0.7413	0.7513	0.8733	0.383
Mof_C 	C 	0.7466	0.6958	0.8672	-0.202
Mof_H 	H 	0.7172	0.6786	0.8819	0.108
Mof_H 	H 	0.777	0.684	0.8848	0.116
Mof_O 	O 	0.7359	0.2727	0.4169	-0.281
Mof_O 	O 	0.7411	0.2801	0.3343	-0.417
Mof_C 	C 	0.7413	0.2513	0.3733	0.387
Mof_C 	C 	0.7466	0.1958	0.3672	-0.203
Mof_H 	H 	0.7172	0.1786	0.3819	0.104
Mof_H 	H 	0.777	0.184	0.3848	0.111
Mof_O 	O 	0.0141	0.2727	0.3331	-0.312
Mof_O 	O 	0.0089	0.2801	0.4157	-0.432
Mof_C 	C 	0.0087	0.2513	0.3767	0.419
Mof_C 	C 	0.0034	0.1958	0.3828	-0.347
Mof_H 	H 	0.0328	0.1786	0.3681	0.14
Mof_H 	H 	0.973	0.184	0.3652	0.209
Mof_O 	O 	0.0141	0.7727	0.8331	-0.303
Mof_O 	O 	0.0089	0.7801	0.9157	-0.382
Mof_C 	C 	0.0087	0.7513	0.8767	0.408
Mof_C 	C 	0.0034	0.6958	0.8828	-0.333
Mof_H 	H 	0.0328	0.6786	0.8681	0.137
Mof_H 	H 	0.973	0.684	0.8652	0.204
Mof_O 	O 	0.5141	0.2727	0.8331	-0.276
Mof_O 	O 	0.5089	0.2801	0.9157	-0.37
Mof_C 	C 	0.5087	0.2513	0.8767	0.376
Mof_C 	C 	0.5034	0.1958	0.8828	-0.193
Mof_H 	H 	0.5328	0.1786	0.8681	0.103
Mof_H 	H 	0.473	0.184	0.8652	0.109
Mof_O 	O 	0.5141	0.7727	0.3331	-0.28
Mof_O 	O 	0.5089	0.7801	0.4157	-0.416
Mof_C 	C 	0.5087	0.7513	0.3767	0.386
Mof_C 	C 	0.5034	0.6958	0.3828	-0.203
Mof_H 	H 	0.5328	0.6786	0.3681	0.104
Mof_H 	H 	0.473	0.684	0.3652	0.109
Mof_O 	O 	0.5141	0.4773	0.9169	-0.251
Mof_O 	O 	0.5089	0.4699	0.8343	-0.413
Mof_C 	C 	0.5087	0.4987	0.8733	0.382
Mof_C 	C 	0.5034	0.5542	0.8672	-0.201
Mof_H 	H 	0.5328	0.5714	0.8819	0.107
Mof_H 	H 	0.473	0.566	0.8848	0.114
Mof_O 	O 	0.5141	0.9773	0.4169	-0.265
Mof_O 	O 	0.5089	0.9699	0.3343	-0.39
Mof_C 	C 	0.5087	0.9987	0.3733	0.492
Mof_C 	C 	0.5034	0.0542	0.3672	-0.336
Mof_H 	H 	0.5328	0.0714	0.3819	0.137
Mof_H 	H 	0.473	0.066	0.3848	0.141
Mof_O 	O 	0.0141	0.4773	0.4169	-0.312
Mof_O 	O 	0.0089	0.4699	0.3343	-0.432
Mof_C 	C 	0.0087	0.4987	0.3733	0.419
Mof_C 	C 	0.0034	0.5542	0.3672	-0.346
Mof_H 	H 	0.0328	0.5714	0.3819	0.139
Mof_H 	H 	0.973	0.566	0.3848	0.208
Mof_O 	O 	0.0141	0.9773	0.9169	-0.263
Mof_O 	O 	0.0089	0.9699	0.8343	-0.4
Mof_C 	C 	0.0087	0.9987	0.8733	0.517
Mof_C 	C 	0.0034	0.0542	0.8672	-0.472
Mof_H 	H 	0.0328	0.0714	0.8819	0.173
Mof_H 	H 	0.973	0.066	0.8848	0.242
Mof_O 	O 	0.7359	0.9773	0.8331	-0.259
Mof_O 	O 	0.7411	0.9699	0.9157	-0.344
Mof_C 	C 	0.7413	0.9987	0.8767	0.478
Mof_C 	C 	0.7466	0.0542	0.8828	-0.322
Mof_H 	H 	0.7172	0.0714	0.8681	0.134
Mof_H 	H 	0.777	0.066	0.8652	0.14
Mof_O 	O 	0.7359	0.4773	0.3331	-0.281
Mof_O 	O 	0.7411	0.4699	0.4157	-0.417
Mof_C 	C 	0.7413	0.4987	0.3767	0.387
Mof_C 	C 	0.7466	0.5542	0.3828	-0.204
Mof_H 	H 	0.7172	0.5714	0.3681	0.105
Mof_H 	H 	0.777	0.566	0.3652	0.111
Mof_O 	O 	0.2359	0.9773	0.3331	-0.265
Mof_O 	O 	0.2411	0.9699	0.4157	-0.391
Mof_C 	C 	0.2413	0.9987	0.3767	0.492
Mof_C 	C 	0.2466	0.0542	0.3828	-0.337
Mof_H 	H 	0.2172	0.0714	0.3681	0.136
Mof_H 	H 	0.277	0.066	0.3652	0.141
Mof_O 	O 	0.2359	0.4773	0.8331	-0.276
Mof_O 	O 	0.2411	0.4699	0.9157	-0.37
Mof_C 	C 	0.2413	0.4987	0.8767	0.376
Mof_C 	C 	0.2466	0.5542	0.8828	-0.193
Mof_H 	H 	0.2172	0.5714	0.8681	0.102
Mof_H 	H 	0.277	0.566	0.8652	0.109
Mof_O 	O 	0.2727	0.3331	0.0141	-0.312
Mof_O 	O 	0.2801	0.4157	0.0089	-0.432
Mof_C 	C 	0.2513	0.3767	0.0087	0.419
Mof_C 	C 	0.1958	0.3828	0.0034	-0.347
Mof_H 	H 	0.1786	0.3681	0.0328	0.14
Mof_H 	H 	0.184	0.3652	0.973	0.209
Mof_O 	O 	0.2727	0.8331	0.5141	-0.276
Mof_O 	O 	0.2801	0.9157	0.5089	-0.37
Mof_C 	C 	0.2513	0.8767	0.5087	0.376
Mof_C 	C 	0.1958	0.8828	0.5034	-0.193
Mof_H 	H 	0.1786	0.8681	0.5328	0.103
Mof_H 	H 	0.184	0.8652	0.473	0.109
Mof_O 	O 	0.7727	0.3331	0.5141	-0.28
Mof_O 	O 	0.7801	0.4157	0.5089	-0.416
Mof_C 	C 	0.7513	0.3767	0.5087	0.386
Mof_C 	C 	0.6958	0.3828	0.5034	-0.203
Mof_H 	H 	0.6786	0.3681	0.5328	0.104
Mof_H 	H 	0.684	0.3652	0.473	0.109
Mof_O 	O 	0.7727	0.8331	0.0141	-0.303
Mof_O 	O 	0.7801	0.9157	0.0089	-0.382
Mof_C 	C 	0.7513	0.8767	0.0087	0.408
Mof_C 	C 	0.6958	0.8828	0.0034	-0.333
Mof_H 	H 	0.6786	0.8681	0.0328	0.137
Mof_H 	H 	0.684	0.8652	0.973	0.204
Mof_O 	O 	0.7727	0.4169	0.2359	-0.28
Mof_O 	O 	0.7801	0.3343	0.2411	-0.416
Mof_C 	C 	0.7513	0.3733	0.2413	0.385
Mof_C 	C 	0.6958	0.3672	0.2466	-0.202
Mof_H 	H 	0.6786	0.3819	0.2172	0.104
Mof_H 	H 	0.684	0.3848	0.277	0.109
Mof_O 	O 	0.7727	0.9169	0.7359	-0.249
Mof_O 	O 	0.7801	0.8343	0.7411	-0.41
Mof_C 	C 	0.7513	0.8733	0.7413	0.383
Mof_C 	C 	0.6958	0.8672	0.7466	-0.202
Mof_H 	H 	0.6786	0.8819	0.7172	0.108
Mof_H 	H 	0.684	0.8848	0.777	0.116
Mof_O 	O 	0.2727	0.4169	0.7359	-0.281
Mof_O 	O 	0.2801	0.3343	0.7411	-0.417
Mof_C 	C 	0.2513	0.3733	0.7413	0.387
Mof_C 	C 	0.1958	0.3672	0.7466	-0.203
Mof_H 	H 	0.1786	0.3819	0.7172	0.104
Mof_H 	H 	0.184	0.3848	0.777	0.111
Mof_O 	O 	0.2727	0.9169	0.2359	-0.25
Mof_O 	O 	0.2801	0.8343	0.2411	-0.413
Mof_C 	C 	0.2513	0.8733	0.2413	0.381
Mof_C 	C 	0.1958	0.8672	0.2466	-0.2
Mof_H 	H 	0.1786	0.8819	0.2172	0.107
Mof_H 	H 	0.184	0.8848	0.277	0.114
Mof_O 	O 	0.9773	0.8331	0.7359	-0.259
Mof_O 	O 	0.9699	0.9157	0.7411	-0.344
Mof_C 	C 	0.9987	0.8767	0.7413	0.478
Mof_C 	C 	0.0542	0.8828	0.7466	-0.322
Mof_H 	H 	0.0714	0.8681	0.7172	0.134
Mof_H 	H 	0.066	0.8652	0.777	0.14
Mof_O 	O 	0.9773	0.3331	0.2359	-0.265
Mof_O 	O 	0.9699	0.4157	0.2411	-0.391
Mof_C 	C 	0.9987	0.3767	0.2413	0.492
Mof_C 	C 	0.0542	0.3828	0.2466	-0.337
Mof_H 	H 	0.0714	0.3681	0.2172	0.136
Mof_H 	H 	0.066	0.3652	0.277	0.141
Mof_O 	O 	0.4773	0.8331	0.2359	-0.276
Mof_O 	O 	0.4699	0.9157	0.2411	-0.37
Mof_C 	C 	0.4987	0.8767	0.2413	0.376
Mof_C 	C 	0.5542	0.8828	0.2466	-0.193
Mof_H 	H 	0.5714	0.8681	0.2172	0.102
Mof_H 	H 	0.566	0.8652	0.277	0.109
Mof_O 	O 	0.4773	0.3331	0.7359	-0.281
Mof_O 	O 	0.4699	0.4157	0.7411	-0.417
Mof_C 	C 	0.4987	0.3767	0.7413	0.387
Mof_C 	C 	0.5542	0.3828	0.7466	-0.204
Mof_H 	H 	0.5714	0.3681	0.7172	0.105
Mof_H 	H 	0.566	0.3652	0.777	0.111
Mof_O 	O 	0.4773	0.9169	0.5141	-0.251
Mof_O 	O 	0.4699	0.8343	0.5089	-0.413
Mof_C 	C 	0.4987	0.8733	0.5087	0.382
Mof_C 	C 	0.5542	0.8672	0.5034	-0.201
Mof_H 	H 	0.5714	0.8819	0.5328	0.107
Mof_H 	H 	0.566	0.8848	0.473	0.114
Mof_O 	O 	0.4773	0.4169	0.0141	-0.312
Mof_O 	O 	0.4699	0.3343	0.0089	-0.432
Mof_C 	C 	0.4987	0.3733	0.0087	0.419
Mof_C 	C 	0.5542	0.3672	0.0034	-0.346
Mof_H 	H 	0.5714	0.3819	0.0328	0.139
Mof_H 	H 	0.566	0.3848	0.973	0.208
Mof_O 	O 	0.9773	0.9169	0.0141	-0.263
Mof_O 	O 	0.9699	0.8343	0.0089	-0.4
Mof_C 	C 	0.9987	0.8733	0.0087	0.517
Mof_C 	C 	0.0542	0.8672	0.0034	-0.472
Mof_H 	H 	0.0714	0.8819	0.0328	0.173
Mof_H 	H 	0.066	0.8848	0.973	0.242
Mof_O 	O 	0.9773	0.4169	0.5141	-0.265
Mof_O 	O 	0.9699	0.3343	0.5089	-0.39
Mof_C 	C 	0.9987	0.3733	0.5087	0.492
Mof_C 	C 	0.0542	0.3672	0.5034	-0.336
Mof_H 	H 	0.0714	0.3819	0.5328	0.137
Mof_H 	H 	0.066	0.3848	0.473	0.141
Mof_Er	Er	-0	0.25	-0	1.66
Mof_Er	Er	1.8747e-33	0.75	0.5	1.85
Mof_Er	Er	0.5	0.25	0.5	2.031
Mof_Er	Er	0.25	0.5	0.5	2.031
Mof_Er	Er	0.75	0	0.5	1.85
Mof_Er	Er	0.75	0.75	0.25	2.032
Mof_Er	Er	0.5	0	0.75	1.85
Mof_Er	Er	9.3735e-34	0	0.25	1.66
Mof_Er	Er	-2.82819e-33	0.5	0.75	1.85
Mof_Er	Er	0.5	0.5	0.25	2.031
Mof_Er	Er	0.5	0.75	-0	1.85
Mof_Er	Er	0.25	0.75	0.75	2.032
Mof_Er	Er	0.25	0.25	0.25	2.03
Mof_Er	Er	0.75	0.5	-0	1.85
Mof_Er	Er	0.25	0	-0	1.66
Mof_Er	Er	0.75	0.25	0.75	2.032
Mof_Er	Er	-0	0.75	-0	1.668
Mof_Er	Er	0.75	0.5	0.5	2.032
Mof_Er	Er	0.25	0.25	0.75	2.031
Mof_Er	Er	0.75	0.75	0.75	2.032
Mof_Er	Er	0.5	0	0.25	1.846
Mof_Er	Er	2.81205e-33	0	0.75	1.668
Mof_Er	Er	9.3735e-34	0.5	0.25	1.846
Mof_Er	Er	0.5	0.75	0.5	2.032
Mof_Er	Er	0.5	0.25	-0	1.846
Mof_Er	Er	0.75	0.25	0.25	2.031
Mof_Er	Er	0.25	0.5	-0	1.846
Mof_Er	Er	0.25	0	0.5	1.846
Mof_Er	Er	0.75	0	-0	1.668
Mof_Er	Er	0.5	0.5	0.75	2.032
Mof_Er	Er	0.25	0.75	0.25	2.031
Mof_Er	Er	1.8747e-33	0.25	0.5	1.846
Mof_Cd	Cd	-0	0.5	-0	0.356
Mof_Cd	Cd	0.5	0.5	0.5	0.513
Mof_Cd	Cd	0.25	0.25	0.5	0.513
Mof_Cd	Cd	0.25	0.75	-0	0.435
Mof_Cd	Cd	0.75	0	0.25	0.435
Mof_Cd	Cd	0.5	0.75	0.75	0.513
Mof_Cd	Cd	2.81205e-33	0.25	0.75	0.435
Mof_Cd	Cd	1.8747e-33	0	0.5	0.356
Mof_Cd	Cd	0.5	0.25	0.25	0.513
Mof_Cd	Cd	0.75	0.5	0.75	0.513
Mof_Cd	Cd	0.5	0	-0	0.356
Mof_Cd	Cd	0.25	0.5	0.25	0.513
Mof_Cd	Cd	0.75	0.75	0.5	0.513
Mof_Cd	Cd	0.25	0.25	-0	0.433
Mof_Cd	Cd	1.8747e-33	0.5	0.5	0.435
Mof_Cd	Cd	-0	0	-0	0.278
Mof_Cd	Cd	0.75	0	0.75	0.437
Mof_Cd	Cd	0.5	0.75	0.25	0.513
Mof_Cd	Cd	2.81205e-33	0.75	0.75	0.437
Mof_Cd	Cd	9.3735e-34	0.25	0.25	0.433
Mof_Cd	Cd	0.75	0.25	0.5	0.513
Mof_Cd	Cd	0.75	0.75	-0	0.437
Mof_Cd	Cd	0.5	0.5	-0	0.435
Mof_Cd	Cd	0.25	0	0.25	0.433
Mof_Cd	Cd	0.25	0.5	0.75	0.513
Mof_Cd	Cd	0.5	0	0.5	0.435
Mof_Cd	Cd	0.25	0	0.75	0.435
Mof_Cd	Cd	0.75	0.25	-0	0.435
Mof_Cd	Cd	9.3735e-34	0.75	0.25	0.435
Mof_Cd	Cd	0.25	0.75	0.5	0.513
Mof_Cd	Cd	0.75	0.5	0.25	0.513
Mof_Cd	Cd	0.5	0.25	0.75	0.513
Mof_O 	O 	-4.59819e-34	0.3154	0.0654	-0.281
Mof_O 	O 	-3.52032e-33	0.8154	0.5654	-0.31
Mof_O 	O 	0.5	0.3154	0.5654	-0.242
Mof_O 	O 	0.25	0.4346	0.5654	-0.243
Mof_O 	O 	0.75	0.4346	0.0654	-0.21
Mof_O 	O 	0.75	0.8154	0.1846	-0.241
Mof_O 	O 	0.25	0.8154	0.6846	-0.242
Mof_O 	O 	0.5	0.9346	0.6846	-0.233
Mof_O 	O 	2.1022e-33	0.9346	0.1846	-0.3
Mof_O 	O 	2.56684e-33	0.4346	0.6846	-0.313
Mof_O 	O 	0.0654	2.82012e-33	0.3154	-0.281
Mof_O 	O 	0.0654	0.5	0.8154	-0.21
Mof_O 	O 	0.5654	0	0.8154	-0.31
Mof_O 	O 	0.5654	0.25	0.4346	-0.243
Mof_O 	O 	0.5654	0.75	0.9346	-0.232
Mof_O 	O 	0.0654	0.75	0.4346	-0.21
Mof_O 	O 	0.1846	0.75	0.8154	-0.241
Mof_O 	O 	0.1846	0.25	0.3154	-0.243
Mof_O 	O 	0.6846	0.5	0.9346	-0.233
Mof_O 	O 	0.6846	0	0.4346	-0.313
Mof_O 	O 	0.3154	0.0654	-0	-0.281
Mof_O 	O 	0.3154	0.5654	0.5	-0.242
Mof_O 	O 	0.8154	0.5654	-0	-0.31
Mof_O 	O 	0.4346	0.5654	0.25	-0.243
Mof_O 	O 	0.4346	0.0654	0.75	-0.21
Mof_O 	O 	0.8154	0.1846	0.75	-0.241
Mof_O 	O 	0.8154	0.6846	0.25	-0.242
Mof_O 	O 	0.9346	0.6846	0.5	-0.233
Mof_O 	O 	0.9346	0.1846	-0	-0.3
Mof_O 	O 	0.4346	0.6846	-0	-0.313
Mof_O 	O 	0.0654	0.25	0.9346	-0.2
Mof_O 	O 	0.1846	0.5	0.4346	-0.243
Mof_O 	O 	0.1846	0	0.9346	-0.3
Mof_O 	O 	0.5654	0.5	0.3154	-0.242
Mof_O 	O 	0.6846	0.75	0.3154	-0.242
Mof_O 	O 	0.6846	0.25	0.8154	-0.242
Mof_O 	O 	0.75	0.3154	0.6846	-0.242
Mof_O 	O 	0.25	0.3154	0.1846	-0.243
Mof_O 	O 	0.5	0.8154	0.0654	-0.21
Mof_O 	O 	0.5	0.4346	0.1846	-0.243
Mof_O 	O 	0.25	0.9346	0.0654	-0.2
Mof_O 	O 	0.75	0.9346	0.5654	-0.232
Mof_O 	O 	0.8154	0.0654	0.5	-0.21
Mof_O 	O 	0.3154	0.6846	0.75	-0.242
Mof_O 	O 	0.3154	0.1846	0.25	-0.243
Mof_O 	O 	0.9346	0.0654	0.25	-0.2
Mof_O 	O 	0.9346	0.5654	0.75	-0.232
Mof_O 	O 	0.4346	0.1846	0.5	-0.243
Mof_O 	O 	-7.77628e-33	0.6846	0.9346	-0.299
Mof_O 	O 	7.26972e-33	0.1846	0.4346	-0.314
Mof_O 	O 	0.5	0.6846	0.4346	-0.242
Mof_O 	O 	0.75	0.5654	0.4346	-0.242
Mof_O 	O 	0.25	0.5654	0.9346	-0.233
Mof_O 	O 	0.25	0.1846	0.8154	-0.242
Mof_O 	O 	0.75	0.1846	0.3154	-0.242
Mof_O 	O 	0.75	0.6846	0.8154	-0.241
Mof_O 	O 	0.5	0.0654	0.3154	-0.21
Mof_O 	O 	-8.22321e-33	0.0654	0.8154	-0.28
Mof_O 	O 	0.9346	0	0.6846	-0.299
Mof_O 	O 	0.9346	0.5	0.1846	-0.233
Mof_O 	O 	0.4346	0	0.1846	-0.314
Mof_O 	O 	0.4346	0.75	0.5654	-0.242
Mof_O 	O 	0.4346	0.25	0.0654	-0.21
Mof_O 	O 	0.8154	0.25	0.1846	-0.242
Mof_O 	O 	0.8154	0.75	0.6846	-0.241
Mof_O 	O 	0.3154	0.5	0.0654	-0.21
Mof_O 	O 	0.3154	5.64023e-33	0.5654	-0.313
Mof_O 	O 	0.8154	7.05029e-34	0.0654	-0.28
Mof_O 	O 	0.6846	0.9346	-0	-0.299
Mof_O 	O 	0.6846	0.4346	0.5	-0.242
Mof_O 	O 	0.1846	0.4346	-0	-0.314
Mof_O 	O 	0.5654	0.4346	0.75	-0.242
Mof_O 	O 	0.5654	0.9346	0.25	-0.233
Mof_O 	O 	0.1846	0.8154	0.25	-0.242
Mof_O 	O 	0.1846	0.3154	0.75	-0.242
Mof_O 	O 	0.6846	0.8154	0.75	-0.241
Mof_O 	O 	0.0654	0.3154	0.5	-0.21
Mof_O 	O 	0.0654	0.8154	-0	-0.28
Mof_O 	O 	0.9346	0.75	0.0654	-0.2
Mof_O 	O 	0.9346	0.25	0.5654	-0.233
Mof_O 	O 	0.8154	0.5	0.5654	-0.242
Mof_O 	O 	0.4346	0.5	0.6846	-0.242
Mof_O 	O 	0.3154	0.25	0.6846	-0.243
Mof_O 	O 	0.3154	0.75	0.1846	-0.242
Mof_O 	O 	0.25	0.6846	0.3154	-0.243
Mof_O 	O 	0.5	0.1846	0.9346	-0.233
Mof_O 	O 	0.5	0.5654	0.8154	-0.242
Mof_O 	O 	1.18256e-33	0.5654	0.3154	-0.313
Mof_O 	O 	0.75	0.0654	0.9346	-0.2
Mof_O 	O 	0.25	0.0654	0.4346	-0.21
Mof_O 	O 	0.1846	0.9346	0.5	-0.233
Mof_O 	O 	0.6846	0.3154	0.25	-0.243
Mof_O 	O 	0.0654	0.9346	0.75	-0.2
Mof_O 	O 	0.0654	0.4346	0.25	-0.21
Mof_O 	O 	0.5654	0.8154	0.5	-0.242
Mof_O 	O 	0.5654	0.3154	-0	-0.313
_end
