# CIF file generated by openbabel 3.1.0, see https://openbabel.org
data_I
_chemical_name_common 'image0'
_cell_length_a 11.6531
_cell_length_b 21.9875
_cell_length_c 15.3104
_cell_angle_alpha 90
_cell_angle_beta 110.029
_cell_angle_gamma 90
_space_group_name_H-M_alt 'P 1'
_space_group_name_Hall 'P 1'
loop_
    _symmetry_equiv_pos_as_xyz
    x,y,z
loop_
    _atom_site_label
    _atom_site_type_symbol
    _atom_site_fract_x
    _atom_site_fract_y
    _atom_site_fract_z
    _atom_site_occupancy
    Cu1      Cu       0.69515    0.16599    0.70722    1.000
    Cu2      Cu       0.15121    0.19202    0.10725    1.000
    C1       C        0.38420    0.15010    0.21860    1.000
    C2       C        0.94170    0.18460    0.82640    1.000
    C3       C        0.46670    0.11060    0.26750    1.000
    H1       H        0.54790    0.12160    0.28030    1.000
    C4       C        0.04430    0.18800    0.90470    1.000
    H2       H        0.11330    0.20860    0.90310    1.000
    C5       C        0.24140    0.07910    0.22160    1.000
    C6       C        0.84870    0.12680    0.90680    1.000
    C7       C        0.11360    0.05740    0.19530    1.000
    H3       H        0.05910    0.08870    0.16130    1.000
    H4       H        0.10320    0.02180    0.15710    1.000
    H5       H        0.09560    0.04770    0.25040    1.000
    C8       C        0.74010    0.09290    0.90980    1.000
    H6       H        0.67640    0.09520    0.85030    1.000
    H7       H        0.71200    0.11030    0.95630    1.000
    H8       H        0.76170    0.05100    0.92490    1.000
    C9       C        0.41100    0.21060    0.18900    1.000
    C10      C        0.93600    0.21190    0.73520    1.000
    C11      C        0.55940    0.01530    0.52460    1.000
    C12      C        0.52560    0.23560    0.21420    1.000
    H9       H        0.59380    0.21330    0.24910    1.000
    C13      C        0.03320    0.23860    0.72070    1.000
    H10      H        0.10740    0.24090    0.76950    1.000
    C14      C        0.56650    0.06290    0.58410    1.000
    H11      H        0.49600    0.07570    0.59410    1.000
    C15      C        0.33090    0.29770    0.11310    1.000
    C16      C        0.82380    0.22910    0.58320    1.000
    C17      C        0.76110    0.02500    0.55650    1.000
    C18      C        0.22470    0.33580    0.06070    1.000
    H12      H        0.15120    0.31220    0.04600    1.000
    H13      H        0.21970    0.37020    0.09790    1.000
    H14      H        0.23450    0.34970    0.00420    1.000
    C19      C        0.71110    0.22170    0.50350    1.000
    H15      H        0.64940    0.20370    0.52370    1.000
    H16      H        0.72630    0.19580    0.45820    1.000
    H17      H        0.68360    0.26070    0.47630    1.000
    C20      C        0.87550    0.00390    0.54350    1.000
    H18      H        0.85770    0.97000    0.50140    1.000
    H19      H        0.93320    0.99160    0.60240    1.000
    H20      H        0.90960    0.03640    0.51840    1.000
    N1       N        0.26580    0.13360    0.19340    1.000
    N2       N        0.84020    0.15650    0.82760    1.000
    N3       N        0.44700    0.05680    0.30070    1.000
    N4       N        0.04390    0.16110    0.98410    1.000
    N5       N        0.32430    0.03810    0.27070    1.000
    N6       N        0.94690    0.12910    0.98230    1.000
    N7       N        0.31080    0.24030    0.13550    1.000
    N8       N        0.82900    0.20850    0.66800    1.000
    N9       N        0.65710    0.99610    0.50960    1.000
    N10      N        0.53730    0.20840    0.68810    1.000
    N11      N        0.02420    0.26140    0.63840    1.000
    N12      N        0.66950    0.09080    0.62710    1.000
    N13      N        0.44070    0.32500    0.13890    1.000
    N14      N        0.91770    0.25440    0.56680    1.000
    N15      N        0.77030    0.07110    0.61160    1.000
    Cu3      Cu       0.30485    0.66599    0.79278    1.000
    Cu4      Cu       0.84879    0.69202    0.39275    1.000
    C21      C        0.61580    0.65010    0.28140    1.000
    C22      C        0.05830    0.68460    0.67360    1.000
    C23      C        0.53330    0.61060    0.23250    1.000
    H21      H        0.45210    0.62160    0.21970    1.000
    C24      C        0.95570    0.68800    0.59530    1.000
    H22      H        0.88670    0.70860    0.59690    1.000
    C25      C        0.75860    0.57910    0.27840    1.000
    C26      C        0.15130    0.62680    0.59320    1.000
    C27      C        0.88640    0.55740    0.30470    1.000
    H23      H        0.94090    0.58870    0.33870    1.000
    H24      H        0.89680    0.52180    0.34290    1.000
    H25      H        0.90440    0.54770    0.24960    1.000
    C28      C        0.25990    0.59290    0.59020    1.000
    H26      H        0.32360    0.59520    0.64970    1.000
    H27      H        0.28800    0.61030    0.54370    1.000
    H28      H        0.23830    0.55100    0.57510    1.000
    C29      C        0.58900    0.71060    0.31100    1.000
    C30      C        0.06400    0.71190    0.76480    1.000
    C31      C        0.44060    0.51530    0.97540    1.000
    C32      C        0.47440    0.73560    0.28580    1.000
    H29      H        0.40620    0.71330    0.25090    1.000
    C33      C        0.96680    0.73860    0.77930    1.000
    H30      H        0.89260    0.74090    0.73050    1.000
    C34      C        0.43350    0.56290    0.91590    1.000
    H31      H        0.50400    0.57570    0.90590    1.000
    C35      C        0.66910    0.79770    0.38690    1.000
    C36      C        0.17620    0.72910    0.91680    1.000
    C37      C        0.23890    0.52500    0.94350    1.000
    C38      C        0.77530    0.83580    0.43930    1.000
    H32      H        0.84880    0.81220    0.45400    1.000
    H33      H        0.78030    0.87020    0.40210    1.000
    H34      H        0.76550    0.84970    0.49580    1.000
    C39      C        0.28890    0.72170    0.99650    1.000
    H35      H        0.35060    0.70370    0.97630    1.000
    H36      H        0.27370    0.69580    0.04180    1.000
    H37      H        0.31640    0.76070    0.02370    1.000
    C40      C        0.12450    0.50390    0.95650    1.000
    H38      H        0.14230    0.47000    0.99860    1.000
    H39      H        0.06680    0.49160    0.89760    1.000
    H40      H        0.09040    0.53640    0.98160    1.000
    N16      N        0.73420    0.63360    0.30660    1.000
    N17      N        0.15980    0.65650    0.67240    1.000
    N18      N        0.55300    0.55680    0.19930    1.000
    N19      N        0.95610    0.66110    0.51590    1.000
    N20      N        0.67570    0.53810    0.22930    1.000
    N21      N        0.05310    0.62910    0.51770    1.000
    N22      N        0.68920    0.74030    0.36450    1.000
    N23      N        0.17100    0.70850    0.83200    1.000
    N24      N        0.34290    0.49610    0.99040    1.000
    N25      N        0.46270    0.70840    0.81190    1.000
    N26      N        0.97580    0.76140    0.86160    1.000
    N27      N        0.33050    0.59080    0.87290    1.000
    N28      N        0.55930    0.82500    0.36110    1.000
    N29      N        0.08230    0.75440    0.93320    1.000
    N30      N        0.22970    0.57110    0.88840    1.000
    Cu5      Cu       0.30485    0.83401    0.29278    1.000
    Cu6      Cu       0.84879    0.80798    0.89275    1.000
    C41      C        0.61580    0.84990    0.78140    1.000
    C42      C        0.05830    0.81540    0.17360    1.000
    C43      C        0.53330    0.88940    0.73250    1.000
    H41      H        0.45210    0.87840    0.71970    1.000
    C44      C        0.95570    0.81200    0.09530    1.000
    H42      H        0.88670    0.79140    0.09690    1.000
    C45      C        0.75860    0.92090    0.77840    1.000
    C46      C        0.15130    0.87320    0.09320    1.000
    C47      C        0.88640    0.94260    0.80470    1.000
    H43      H        0.94090    0.91130    0.83870    1.000
    H44      H        0.89680    0.97820    0.84290    1.000
    H45      H        0.90440    0.95230    0.74960    1.000
    C48      C        0.25990    0.90710    0.09020    1.000
    H46      H        0.32360    0.90480    0.14970    1.000
    H47      H        0.28800    0.88970    0.04370    1.000
    H48      H        0.23830    0.94900    0.07510    1.000
    C49      C        0.58900    0.78940    0.81100    1.000
    C50      C        0.06400    0.78810    0.26480    1.000
    C51      C        0.44060    0.98470    0.47540    1.000
    C52      C        0.47440    0.76440    0.78580    1.000
    H49      H        0.40620    0.78670    0.75090    1.000
    C53      C        0.96680    0.76140    0.27930    1.000
    H50      H        0.89260    0.75910    0.23050    1.000
    C54      C        0.43350    0.93710    0.41590    1.000
    H51      H        0.50400    0.92430    0.40590    1.000
    C55      C        0.66910    0.70230    0.88690    1.000
    C56      C        0.17620    0.77090    0.41680    1.000
    C57      C        0.23890    0.97500    0.44350    1.000
    C58      C        0.77530    0.66420    0.93930    1.000
    H52      H        0.84880    0.68780    0.95400    1.000
    H53      H        0.78030    0.62980    0.90210    1.000
    H54      H        0.76550    0.65030    0.99580    1.000
    C59      C        0.28890    0.77830    0.49650    1.000
    H55      H        0.35060    0.79630    0.47630    1.000
    H56      H        0.27370    0.80420    0.54180    1.000
    H57      H        0.31640    0.73930    0.52370    1.000
    C60      C        0.12450    0.99610    0.45650    1.000
    H58      H        0.14230    0.03000    0.49860    1.000
    H59      H        0.06680    0.00840    0.39760    1.000
    H60      H        0.09040    0.96360    0.48160    1.000
    N31      N        0.73420    0.86640    0.80660    1.000
    N32      N        0.15980    0.84350    0.17240    1.000
    N33      N        0.55300    0.94320    0.69930    1.000
    N34      N        0.95610    0.83890    0.01590    1.000
    N35      N        0.67570    0.96190    0.72930    1.000
    N36      N        0.05310    0.87090    0.01770    1.000
    N37      N        0.68920    0.75970    0.86450    1.000
    N38      N        0.17100    0.79150    0.33200    1.000
    N39      N        0.34290    0.00390    0.49040    1.000
    N40      N        0.46270    0.79160    0.31190    1.000
    N41      N        0.97580    0.73860    0.36160    1.000
    N42      N        0.33050    0.90920    0.37290    1.000
    N43      N        0.55930    0.67500    0.86110    1.000
    N44      N        0.08230    0.74560    0.43320    1.000
    N45      N        0.22970    0.92890    0.38840    1.000
    Cu7      Cu       0.69515    0.33401    0.20722    1.000
    Cu8      Cu       0.15121    0.30798    0.60725    1.000
    C61      C        0.38420    0.34990    0.71860    1.000
    C62      C        0.94170    0.31540    0.32640    1.000
    C63      C        0.46670    0.38940    0.76750    1.000
    H61      H        0.54790    0.37840    0.78030    1.000
    C64      C        0.04430    0.31200    0.40470    1.000
    H62      H        0.11330    0.29140    0.40310    1.000
    C65      C        0.24140    0.42090    0.72160    1.000
    C66      C        0.84870    0.37320    0.40680    1.000
    C67      C        0.11360    0.44260    0.69530    1.000
    H63      H        0.05910    0.41130    0.66130    1.000
    H64      H        0.10320    0.47820    0.65710    1.000
    H65      H        0.09560    0.45230    0.75040    1.000
    C68      C        0.74010    0.40710    0.40980    1.000
    H66      H        0.67640    0.40480    0.35030    1.000
    H67      H        0.71200    0.38970    0.45630    1.000
    H68      H        0.76170    0.44900    0.42490    1.000
    C69      C        0.41100    0.28940    0.68900    1.000
    C70      C        0.93600    0.28810    0.23520    1.000
    C71      C        0.55940    0.48470    0.02460    1.000
    C72      C        0.52560    0.26440    0.71420    1.000
    H69      H        0.59380    0.28670    0.74910    1.000
    C73      C        0.03320    0.26140    0.22070    1.000
    H70      H        0.10740    0.25910    0.26950    1.000
    C74      C        0.56650    0.43710    0.08410    1.000
    H71      H        0.49600    0.42430    0.09410    1.000
    C75      C        0.33090    0.20230    0.61310    1.000
    C76      C        0.82380    0.27090    0.08320    1.000
    C77      C        0.76110    0.47500    0.05650    1.000
    C78      C        0.22470    0.16420    0.56070    1.000
    H72      H        0.15120    0.18780    0.54600    1.000
    H73      H        0.21970    0.12980    0.59790    1.000
    H74      H        0.23450    0.15030    0.50420    1.000
    C79      C        0.71110    0.27830    0.00350    1.000
    H75      H        0.64940    0.29630    0.02370    1.000
    H76      H        0.72630    0.30420    0.95820    1.000
    H77      H        0.68360    0.23930    0.97630    1.000
    C80      C        0.87550    0.49610    0.04350    1.000
    H78      H        0.85770    0.53000    0.00140    1.000
    H79      H        0.93320    0.50840    0.10240    1.000
    H80      H        0.90960    0.46360    0.01840    1.000
    N46      N        0.26580    0.36640    0.69340    1.000
    N47      N        0.84020    0.34350    0.32760    1.000
    N48      N        0.44700    0.44320    0.80070    1.000
    N49      N        0.04390    0.33890    0.48410    1.000
    N50      N        0.32430    0.46190    0.77070    1.000
    N51      N        0.94690    0.37090    0.48230    1.000
    N52      N        0.31080    0.25970    0.63550    1.000
    N53      N        0.82900    0.29150    0.16800    1.000
    N54      N        0.65710    0.50390    0.00960    1.000
    N55      N        0.53730    0.29160    0.18810    1.000
    N56      N        0.02420    0.23860    0.13840    1.000
    N57      N        0.66950    0.40920    0.12710    1.000
    N58      N        0.44070    0.17500    0.63890    1.000
    N59      N        0.91770    0.24560    0.06680    1.000
    N60      N        0.77030    0.42890    0.11160    1.000
