data_functionalizedCrystal
_audit_creation_method	'EQeq! by Chris Wilmer'
_symmetry_space_group_name_H-M	'P1'
_symmetry_Int_Tables_number	1
_symmetry_cell_setting	triclinic
loop_
_symmetry_equiv_pos_as_xyz
  x,y,z
_cell_length_a	14.2256
_cell_length_b	14.4645
_cell_length_c	30.4429
_cell_angle_alpha	90
_cell_angle_beta	96.104
_cell_angle_gamma	90
loop_
_atom_site_label
_atom_site_type_symbol
_atom_site_fract_x
_atom_site_fract_y
_atom_site_fract_z
_atom_site_charge
Mof_Fe	Fe	0.69945	0.51999	0.45031	0.768
Mof_Au	Au	0.45018	0.76886	0.45599	0.034
Mof_Au	Au	0.95604	0.76354	0.44735	0.044
Mof_C 	C 	0.8589	0.6657	0.4504	0.051
Mof_C 	C 	0.549	0.6747	0.4488	0.053
Mof_C 	C 	0.5477	0.3655	0.4441	0.057
Mof_C 	C 	0.8503	0.3641	0.4587	0.055
Mof_N 	N 	0.7998	0.6116	0.45203	-0.205
Mof_N 	N 	0.6053	0.618	0.44623	-0.204
Mof_N 	N 	0.6012	0.4261	0.44576	-0.204
Mof_N 	N 	0.7936	0.421	0.45664	-0.204
Mof_N 	N 	0.698	0.5156	0.38451	-0.207
Mof_C 	C 	0.7789	0.5117	0.3659	0.093
Mof_H 	H 	0.8368	0.5152	0.3845	-0.006
Mof_C 	C 	0.7824	0.5027	0.321	-0.148
Mof_H 	H 	0.8416	0.4993	0.3093	0.077
Mof_C 	C 	0.6986	0.4986	0.293	0.077
Mof_C 	C 	0.6147	0.5057	0.3119	-0.144
Mof_H 	H 	0.556	0.5047	0.2939	0.095
Mof_C 	C 	0.6167	0.5144	0.3573	0.091
Mof_H 	H 	0.5585	0.5197	0.3698	0.005
Mof_C 	C 	0.7013	0.4853	0.2447	0.038
Mof_C 	C 	0.7739	0.4347	0.2284	-0.053
Mof_H 	H 	0.8231	0.4077	0.2477	0.047
Mof_N 	N 	0.6302	0.5161	0.1742	-0.084
Mof_N 	N 	0.6307	0.5222	0.2183	-0.084
Mof_C 	C 	0.7715	0.4255	0.1838	-0.053
Mof_H 	H 	0.8183	0.3906	0.1712	0.047
Mof_C 	C 	0.6988	0.4685	0.1574	0.036
Mof_C 	C 	0.6962	0.4688	0.1085	0.077
Mof_C 	C 	0.6671	0.5468	0.0844	-0.145
Mof_H 	H 	0.6445	0.5993	0.0988	0.084
Mof_C 	C 	0.6711	0.5479	0.0393	0.091
Mof_H 	H 	0.6534	0.603	0.0236	-0.006
Mof_C 	C 	0.7233	0.3989	0.0398	0.09
Mof_H 	H 	0.7408	0.3455	0.0244	-0.005
Mof_C 	C 	0.7247	0.3937	0.0854	-0.15
Mof_H 	H 	0.7451	0.3387	0.1006	0.078
Mof_N 	N 	0.6986	0.4751	0.01636	-0.206
Mof_Fe	Fe	0.19945	0.01999	0.45031	0.769
Mof_Au	Au	0.95018	0.26886	0.45599	0.035
Mof_Au	Au	0.45604	0.26354	0.44735	0.045
Mof_C 	C 	0.3589	0.1657	0.4504	0.052
Mof_C 	C 	0.049	0.1747	0.4488	0.054
Mof_C 	C 	0.0477	0.8655	0.4441	0.058
Mof_C 	C 	0.3503	0.8641	0.4587	0.056
Mof_N 	N 	0.2998	0.1116	0.45203	-0.204
Mof_N 	N 	0.1053	0.118	0.44623	-0.203
Mof_N 	N 	0.1012	0.9261	0.44576	-0.203
Mof_N 	N 	0.2936	0.921	0.45664	-0.203
Mof_N 	N 	0.198	0.0156	0.38451	-0.206
Mof_C 	C 	0.2789	0.0117	0.3659	0.094
Mof_H 	H 	0.3368	0.0152	0.3845	-0.005
Mof_C 	C 	0.2824	0.0027	0.321	-0.146
Mof_H 	H 	0.3416	0.9993	0.3093	0.078
Mof_C 	C 	0.1986	0.9986	0.293	0.077
Mof_C 	C 	0.1147	0.0057	0.3119	-0.143
Mof_H 	H 	0.056	0.0047	0.2939	0.096
Mof_C 	C 	0.1167	0.0144	0.3573	0.092
Mof_H 	H 	0.0585	0.0197	0.3698	0.006
Mof_C 	C 	0.2013	0.9853	0.2447	0.039
Mof_C 	C 	0.2739	0.9347	0.2284	-0.053
Mof_H 	H 	0.3231	0.9077	0.2477	0.048
Mof_N 	N 	0.1302	0.0161	0.1742	-0.084
Mof_N 	N 	0.1307	0.0222	0.2183	-0.084
Mof_C 	C 	0.2715	0.9255	0.1838	-0.052
Mof_H 	H 	0.3183	0.8906	0.1712	0.047
Mof_C 	C 	0.1988	0.9685	0.1574	0.036
Mof_C 	C 	0.1962	0.9688	0.1085	0.077
Mof_C 	C 	0.1671	0.0468	0.0844	-0.145
Mof_H 	H 	0.1445	0.0993	0.0988	0.084
Mof_C 	C 	0.1711	0.0479	0.0393	0.091
Mof_H 	H 	0.1534	0.103	0.0236	-0.006
Mof_C 	C 	0.2233	0.8989	0.0398	0.09
Mof_H 	H 	0.2408	0.8455	0.0244	-0.005
Mof_C 	C 	0.2247	0.8937	0.0854	-0.15
Mof_H 	H 	0.2451	0.8387	0.1006	0.078
Mof_N 	N 	0.1986	0.9751	0.01636	-0.206
Mof_Fe	Fe	0.69945	0.48001	0.95031	0.769
Mof_Au	Au	0.45018	0.23114	0.95599	0.035
Mof_Au	Au	0.95604	0.23646	0.94735	0.045
Mof_C 	C 	0.8589	0.3343	0.9504	0.052
Mof_C 	C 	0.549	0.3253	0.9488	0.054
Mof_C 	C 	0.5477	0.6345	0.9441	0.058
Mof_C 	C 	0.8503	0.6359	0.9587	0.056
Mof_N 	N 	0.7998	0.3884	0.95203	-0.204
Mof_N 	N 	0.6053	0.382	0.94623	-0.203
Mof_N 	N 	0.6012	0.5739	0.94576	-0.203
Mof_N 	N 	0.7936	0.579	0.95664	-0.203
Mof_N 	N 	0.698	0.4844	0.88451	-0.206
Mof_C 	C 	0.7789	0.4883	0.8659	0.094
Mof_H 	H 	0.8368	0.4848	0.8845	-0.005
Mof_C 	C 	0.7824	0.4973	0.821	-0.147
Mof_H 	H 	0.8416	0.5007	0.8093	0.078
Mof_C 	C 	0.6986	0.5014	0.793	0.078
Mof_C 	C 	0.6147	0.4943	0.8119	-0.143
Mof_H 	H 	0.556	0.4953	0.7939	0.096
Mof_C 	C 	0.6167	0.4856	0.8573	0.092
Mof_H 	H 	0.5585	0.4803	0.8698	0.006
Mof_C 	C 	0.7013	0.5147	0.7447	0.039
Mof_C 	C 	0.7739	0.5653	0.7284	-0.053
Mof_H 	H 	0.8231	0.5923	0.7477	0.047
Mof_N 	N 	0.6302	0.4839	0.6742	-0.084
Mof_N 	N 	0.6307	0.4778	0.7183	-0.084
Mof_C 	C 	0.7715	0.5745	0.6838	-0.053
Mof_H 	H 	0.8183	0.6094	0.6712	0.047
Mof_C 	C 	0.6988	0.5315	0.6574	0.036
Mof_C 	C 	0.6962	0.5312	0.6085	0.077
Mof_C 	C 	0.6671	0.4532	0.5844	-0.145
Mof_H 	H 	0.6445	0.4007	0.5988	0.084
Mof_C 	C 	0.6711	0.4521	0.5393	0.091
Mof_H 	H 	0.6534	0.397	0.5236	-0.006
Mof_C 	C 	0.7233	0.6011	0.5398	0.09
Mof_H 	H 	0.7408	0.6545	0.5244	-0.005
Mof_C 	C 	0.7247	0.6063	0.5854	-0.15
Mof_H 	H 	0.7451	0.6613	0.6006	0.078
Mof_N 	N 	0.6986	0.5249	0.51636	-0.206
Mof_Fe	Fe	0.19945	0.98001	0.95031	0.769
Mof_Au	Au	0.95018	0.73114	0.95599	0.035
Mof_Au	Au	0.45604	0.73646	0.94735	0.045
Mof_C 	C 	0.3589	0.8343	0.9504	0.052
Mof_C 	C 	0.049	0.8253	0.9488	0.054
Mof_C 	C 	0.0477	0.1345	0.9441	0.058
Mof_C 	C 	0.3503	0.1359	0.9587	0.056
Mof_N 	N 	0.2998	0.8884	0.95203	-0.204
Mof_N 	N 	0.1053	0.882	0.94623	-0.203
Mof_N 	N 	0.1012	0.0739	0.94576	-0.203
Mof_N 	N 	0.2936	0.079	0.95664	-0.202
Mof_N 	N 	0.198	0.9844	0.88451	-0.206
Mof_C 	C 	0.2789	0.9883	0.8659	0.094
Mof_H 	H 	0.3368	0.9848	0.8845	-0.005
Mof_C 	C 	0.2824	0.9973	0.821	-0.147
Mof_H 	H 	0.3416	0.0007	0.8093	0.078
Mof_C 	C 	0.1986	0.0014	0.793	0.078
Mof_C 	C 	0.1147	0.9943	0.8119	-0.143
Mof_H 	H 	0.056	0.9953	0.7939	0.096
Mof_C 	C 	0.1167	0.9856	0.8573	0.092
Mof_H 	H 	0.0585	0.9803	0.8698	0.006
Mof_C 	C 	0.2013	0.0147	0.7447	0.039
Mof_C 	C 	0.2739	0.0653	0.7284	-0.053
Mof_H 	H 	0.3231	0.0923	0.7477	0.047
Mof_N 	N 	0.1302	0.9839	0.6742	-0.084
Mof_N 	N 	0.1307	0.9778	0.7183	-0.084
Mof_C 	C 	0.2715	0.0745	0.6838	-0.053
Mof_H 	H 	0.3183	0.1094	0.6712	0.047
Mof_C 	C 	0.1988	0.0315	0.6574	0.036
Mof_C 	C 	0.1962	0.0312	0.6085	0.077
Mof_C 	C 	0.1671	0.9532	0.5844	-0.145
Mof_H 	H 	0.1445	0.9007	0.5988	0.084
Mof_C 	C 	0.1711	0.9521	0.5393	0.091
Mof_H 	H 	0.1534	0.897	0.5236	-0.006
Mof_C 	C 	0.2233	0.1011	0.5398	0.09
Mof_H 	H 	0.2408	0.1545	0.5244	-0.005
Mof_C 	C 	0.2247	0.1063	0.5854	-0.15
Mof_H 	H 	0.2451	0.1613	0.6006	0.078
Mof_N 	N 	0.1986	0.0249	0.51636	-0.206
Mof_Fe	Fe	0.30055	0.51999	0.04969	0.769
Mof_Au	Au	0.54982	0.76886	0.04401	0.035
Mof_Au	Au	0.04396	0.76354	0.05265	0.045
Mof_C 	C 	0.1411	0.6657	0.0496	0.052
Mof_C 	C 	0.451	0.6747	0.0512	0.054
Mof_C 	C 	0.4523	0.3655	0.0559	0.058
Mof_C 	C 	0.1497	0.3641	0.0413	0.056
Mof_N 	N 	0.2002	0.6116	0.04797	-0.204
Mof_N 	N 	0.3947	0.618	0.05377	-0.203
Mof_N 	N 	0.3988	0.4261	0.05424	-0.203
Mof_N 	N 	0.2064	0.421	0.04336	-0.203
Mof_N 	N 	0.302	0.5156	0.11549	-0.206
Mof_C 	C 	0.2211	0.5117	0.1341	0.094
Mof_H 	H 	0.1632	0.5152	0.1155	-0.005
Mof_C 	C 	0.2176	0.5027	0.179	-0.147
Mof_H 	H 	0.1584	0.4993	0.1907	0.078
Mof_C 	C 	0.3014	0.4986	0.207	0.078
Mof_C 	C 	0.3853	0.5057	0.1881	-0.143
Mof_H 	H 	0.444	0.5047	0.2061	0.096
Mof_C 	C 	0.3833	0.5144	0.1427	0.092
Mof_H 	H 	0.4415	0.5197	0.1302	0.006
Mof_C 	C 	0.2987	0.4853	0.2553	0.039
Mof_C 	C 	0.2261	0.4347	0.2716	-0.053
Mof_H 	H 	0.1769	0.4077	0.2523	0.047
Mof_N 	N 	0.3698	0.5161	0.3258	-0.084
Mof_N 	N 	0.3693	0.5222	0.2817	-0.084
Mof_C 	C 	0.2285	0.4255	0.3162	-0.053
Mof_H 	H 	0.1817	0.3906	0.3288	0.047
Mof_C 	C 	0.3012	0.4685	0.3426	0.036
Mof_C 	C 	0.3038	0.4688	0.3915	0.077
Mof_C 	C 	0.3329	0.5468	0.4156	-0.145
Mof_H 	H 	0.3555	0.5993	0.4012	0.084
Mof_C 	C 	0.3289	0.5479	0.4607	0.091
Mof_H 	H 	0.3466	0.603	0.4764	-0.006
Mof_C 	C 	0.2767	0.3989	0.4602	0.09
Mof_H 	H 	0.2592	0.3455	0.4756	-0.005
Mof_C 	C 	0.2753	0.3937	0.4146	-0.15
Mof_H 	H 	0.2549	0.3387	0.3994	0.078
Mof_N 	N 	0.3014	0.4751	0.48364	-0.206
Mof_Fe	Fe	0.80055	0.01999	0.04969	0.769
Mof_Au	Au	0.04982	0.26886	0.04401	0.035
Mof_Au	Au	0.54396	0.26354	0.05265	0.045
Mof_C 	C 	0.6411	0.1657	0.0496	0.052
Mof_C 	C 	0.951	0.1747	0.0512	0.054
Mof_C 	C 	0.9523	0.8655	0.0559	0.058
Mof_C 	C 	0.6497	0.8641	0.0413	0.056
Mof_N 	N 	0.7002	0.1116	0.04797	-0.204
Mof_N 	N 	0.8947	0.118	0.05377	-0.203
Mof_N 	N 	0.8988	0.9261	0.05424	-0.203
Mof_N 	N 	0.7064	0.921	0.04336	-0.202
Mof_N 	N 	0.802	0.0156	0.11549	-0.206
Mof_C 	C 	0.7211	0.0117	0.1341	0.094
Mof_H 	H 	0.6632	0.0152	0.1155	-0.005
Mof_C 	C 	0.7176	0.0027	0.179	-0.147
Mof_H 	H 	0.6584	0.9993	0.1907	0.078
Mof_C 	C 	0.8014	0.9986	0.207	0.078
Mof_C 	C 	0.8853	0.0057	0.1881	-0.143
Mof_H 	H 	0.944	0.0047	0.2061	0.096
Mof_C 	C 	0.8833	0.0144	0.1427	0.092
Mof_H 	H 	0.9415	0.0197	0.1302	0.006
Mof_C 	C 	0.7987	0.9853	0.2553	0.039
Mof_C 	C 	0.7261	0.9347	0.2716	-0.053
Mof_H 	H 	0.6769	0.9077	0.2523	0.047
Mof_N 	N 	0.8698	0.0161	0.3258	-0.084
Mof_N 	N 	0.8693	0.0222	0.2817	-0.084
Mof_C 	C 	0.7285	0.9255	0.3162	-0.053
Mof_H 	H 	0.6817	0.8906	0.3288	0.047
Mof_C 	C 	0.8012	0.9685	0.3426	0.036
Mof_C 	C 	0.8038	0.9688	0.3915	0.077
Mof_C 	C 	0.8329	0.0468	0.4156	-0.145
Mof_H 	H 	0.8555	0.0993	0.4012	0.084
Mof_C 	C 	0.8289	0.0479	0.4607	0.091
Mof_H 	H 	0.8466	0.103	0.4764	-0.006
Mof_C 	C 	0.7767	0.8989	0.4602	0.09
Mof_H 	H 	0.7592	0.8455	0.4756	-0.005
Mof_C 	C 	0.7753	0.8937	0.4146	-0.15
Mof_H 	H 	0.7549	0.8387	0.3994	0.078
Mof_N 	N 	0.8014	0.9751	0.48364	-0.206
Mof_Fe	Fe	0.30055	0.48001	0.54969	0.769
Mof_Au	Au	0.54982	0.23114	0.54401	0.035
Mof_Au	Au	0.04396	0.23646	0.55265	0.045
Mof_C 	C 	0.1411	0.3343	0.5496	0.052
Mof_C 	C 	0.451	0.3253	0.5512	0.054
Mof_C 	C 	0.4523	0.6345	0.5559	0.058
Mof_C 	C 	0.1497	0.6359	0.5413	0.056
Mof_N 	N 	0.2002	0.3884	0.54797	-0.204
Mof_N 	N 	0.3947	0.382	0.55377	-0.203
Mof_N 	N 	0.3988	0.5739	0.55424	-0.203
Mof_N 	N 	0.2064	0.579	0.54336	-0.203
Mof_N 	N 	0.302	0.4844	0.61549	-0.206
Mof_C 	C 	0.2211	0.4883	0.6341	0.094
Mof_H 	H 	0.1632	0.4848	0.6155	-0.005
Mof_C 	C 	0.2176	0.4973	0.679	-0.147
Mof_H 	H 	0.1584	0.5007	0.6907	0.078
Mof_C 	C 	0.3014	0.5014	0.707	0.078
Mof_C 	C 	0.3853	0.4943	0.6881	-0.143
Mof_H 	H 	0.444	0.4953	0.7061	0.096
Mof_C 	C 	0.3833	0.4856	0.6427	0.092
Mof_H 	H 	0.4415	0.4803	0.6302	0.006
Mof_C 	C 	0.2987	0.5147	0.7553	0.039
Mof_C 	C 	0.2261	0.5653	0.7716	-0.053
Mof_H 	H 	0.1769	0.5923	0.7523	0.047
Mof_N 	N 	0.3698	0.4839	0.8258	-0.084
Mof_N 	N 	0.3693	0.4778	0.7817	-0.084
Mof_C 	C 	0.2285	0.5745	0.8162	-0.053
Mof_H 	H 	0.1817	0.6094	0.8288	0.047
Mof_C 	C 	0.3012	0.5315	0.8426	0.036
Mof_C 	C 	0.3038	0.5312	0.8915	0.077
Mof_C 	C 	0.3329	0.4532	0.9156	-0.145
Mof_H 	H 	0.3555	0.4007	0.9012	0.084
Mof_C 	C 	0.3289	0.4521	0.9607	0.091
Mof_H 	H 	0.3466	0.397	0.9764	-0.006
Mof_C 	C 	0.2767	0.6011	0.9602	0.09
Mof_H 	H 	0.2592	0.6545	0.9756	-0.005
Mof_C 	C 	0.2753	0.6063	0.9146	-0.15
Mof_H 	H 	0.2549	0.6613	0.8994	0.078
Mof_N 	N 	0.3014	0.5249	0.98364	-0.206
Mof_Fe	Fe	0.80055	0.98001	0.54969	0.769
Mof_Au	Au	0.04982	0.73114	0.54401	0.035
Mof_Au	Au	0.54396	0.73646	0.55265	0.045
Mof_C 	C 	0.6411	0.8343	0.5496	0.052
Mof_C 	C 	0.951	0.8253	0.5512	0.054
Mof_C 	C 	0.9523	0.1345	0.5559	0.058
Mof_C 	C 	0.6497	0.1359	0.5413	0.056
Mof_N 	N 	0.7002	0.8884	0.54797	-0.204
Mof_N 	N 	0.8947	0.882	0.55377	-0.203
Mof_N 	N 	0.8988	0.0739	0.55424	-0.203
Mof_N 	N 	0.7064	0.079	0.54336	-0.203
Mof_N 	N 	0.802	0.9844	0.61549	-0.206
Mof_C 	C 	0.7211	0.9883	0.6341	0.094
Mof_H 	H 	0.6632	0.9848	0.6155	-0.005
Mof_C 	C 	0.7176	0.9973	0.679	-0.146
Mof_H 	H 	0.6584	0.0007	0.6907	0.078
Mof_C 	C 	0.8014	0.0014	0.707	0.077
Mof_C 	C 	0.8853	0.9943	0.6881	-0.143
Mof_H 	H 	0.944	0.9953	0.7061	0.096
Mof_C 	C 	0.8833	0.9856	0.6427	0.092
Mof_H 	H 	0.9415	0.9803	0.6302	0.006
Mof_C 	C 	0.7987	0.0147	0.7553	0.039
Mof_C 	C 	0.7261	0.0653	0.7716	-0.053
Mof_H 	H 	0.6769	0.0923	0.7523	0.048
Mof_N 	N 	0.8698	0.9839	0.8258	-0.084
Mof_N 	N 	0.8693	0.9778	0.7817	-0.084
Mof_C 	C 	0.7285	0.0745	0.8162	-0.052
Mof_H 	H 	0.6817	0.1094	0.8288	0.047
Mof_C 	C 	0.8012	0.0315	0.8426	0.036
Mof_C 	C 	0.8038	0.0312	0.8915	0.077
Mof_C 	C 	0.8329	0.9532	0.9156	-0.145
Mof_H 	H 	0.8555	0.9007	0.9012	0.084
Mof_C 	C 	0.8289	0.9521	0.9607	0.091
Mof_H 	H 	0.8466	0.897	0.9764	-0.006
Mof_C 	C 	0.7767	0.1011	0.9602	0.09
Mof_H 	H 	0.7592	0.1545	0.9756	-0.005
Mof_C 	C 	0.7753	0.1063	0.9146	-0.15
Mof_H 	H 	0.7549	0.1613	0.8994	0.078
Mof_N 	N 	0.8014	0.0249	0.98364	-0.206
_end
