# CIF file generated by openbabel 3.1.0, see https://openbabel.org
data_I
_chemical_name_common 'HUZFOY_charged'
_cell_length_a 13.9793
_cell_length_b 13.9793
_cell_length_c 13.9793
_cell_angle_alpha 100.816
_cell_angle_beta 100.816
_cell_angle_gamma 100.816
_space_group_name_H-M_alt 'P 1'
_space_group_name_Hall 'P 1'
loop_
    _symmetry_equiv_pos_as_xyz
    x,y,z
loop_
    _atom_site_label
    _atom_site_type_symbol
    _atom_site_fract_x
    _atom_site_fract_y
    _atom_site_fract_z
    _atom_site_occupancy
    Cd1      Cd       0.00000    0.00000    0.00000    1.000
    H1       H        0.77640    0.82480    0.93530    1.000
    H2       H        0.87230    0.17160    0.09650    1.000
    H3       H        0.77420    0.24260    0.19320    1.000
    H4       H        0.63300    0.14530    0.21990    1.000
    H5       H        0.58240    0.97860    0.14950    1.000
    H6       H        0.58960    0.73550    0.86820    1.000
    H7       H        0.47060    0.59610    0.86020    1.000
    H8       H        0.49070    0.67860    0.15210    1.000
    H9       H        0.61600    0.81430    0.16560    1.000
    H10      H        0.93530    0.77640    0.82480    1.000
    H11      H        0.09650    0.87230    0.17160    1.000
    H12      H        0.19320    0.77420    0.24260    1.000
    H13      H        0.21990    0.63300    0.14530    1.000
    H14      H        0.14950    0.58240    0.97860    1.000
    H15      H        0.86820    0.58960    0.73550    1.000
    H16      H        0.86020    0.47060    0.59610    1.000
    H17      H        0.15210    0.49070    0.67860    1.000
    H18      H        0.16560    0.61600    0.81430    1.000
    H19      H        0.82480    0.93530    0.77640    1.000
    H20      H        0.17160    0.09650    0.87230    1.000
    H21      H        0.24260    0.19320    0.77420    1.000
    H22      H        0.14530    0.21990    0.63300    1.000
    H23      H        0.97860    0.14950    0.58240    1.000
    H24      H        0.73550    0.86820    0.58960    1.000
    H25      H        0.59610    0.86020    0.47060    1.000
    H26      H        0.67860    0.15210    0.49070    1.000
    H27      H        0.81430    0.16560    0.61600    1.000
    H28      H        0.17520    0.22360    0.06470    1.000
    H29      H        0.82840    0.12770    0.90350    1.000
    H30      H        0.75740    0.22580    0.80680    1.000
    H31      H        0.85470    0.36700    0.78010    1.000
    H32      H        0.02140    0.41760    0.85050    1.000
    H33      H        0.26450    0.41040    0.13180    1.000
    H34      H        0.40390    0.52940    0.13980    1.000
    H35      H        0.32140    0.50930    0.84790    1.000
    H36      H        0.18570    0.38400    0.83440    1.000
    H37      H        0.22360    0.06470    0.17520    1.000
    H38      H        0.12770    0.90350    0.82840    1.000
    H39      H        0.22580    0.80680    0.75740    1.000
    H40      H        0.36700    0.78010    0.85470    1.000
    H41      H        0.41760    0.85050    0.02140    1.000
    H42      H        0.41040    0.13180    0.26450    1.000
    H43      H        0.52940    0.13980    0.40390    1.000
    H44      H        0.50930    0.84790    0.32140    1.000
    H45      H        0.38400    0.83440    0.18570    1.000
    H46      H        0.06470    0.17520    0.22360    1.000
    H47      H        0.90350    0.82840    0.12770    1.000
    H48      H        0.80680    0.75740    0.22580    1.000
    H49      H        0.78010    0.85470    0.36700    1.000
    H50      H        0.85050    0.02140    0.41760    1.000
    H51      H        0.13180    0.26450    0.41040    1.000
    H52      H        0.13980    0.40390    0.52940    1.000
    H53      H        0.84790    0.32140    0.50930    1.000
    H54      H        0.83440    0.18570    0.38400    1.000
    C1       C        0.76680    0.88040    0.97750    1.000
    C2       C        0.78300    0.03090    0.06040    1.000
    C3       C        0.81430    0.13280    0.10540    1.000
    C4       C        0.75610    0.17450    0.16390    1.000
    C5       C        0.67000    0.11530    0.17960    1.000
    C6       C        0.63980    0.01670    0.13860    1.000
    C7       C        0.69750    0.97260    0.07850    1.000
    C8       C        0.61430    0.79170    0.01830    1.000
    C9       C        0.57000    0.72410    0.92590    1.000
    C10      C        0.49750    0.64150    0.92140    1.000
    C11      C        0.46250    0.62260    0.00320    1.000
    C12      C        0.51050    0.69020    0.09460    1.000
    C13      C        0.58520    0.77210    0.10330    1.000
    C14      C        0.97750    0.76680    0.88040    1.000
    C15      C        0.06040    0.78300    0.03090    1.000
    C16      C        0.10540    0.81430    0.13280    1.000
    C17      C        0.16390    0.75610    0.17450    1.000
    C18      C        0.17960    0.67000    0.11530    1.000
    C19      C        0.13860    0.63980    0.01670    1.000
    C20      C        0.07850    0.69750    0.97260    1.000
    C21      C        0.01830    0.61430    0.79170    1.000
    C22      C        0.92590    0.57000    0.72410    1.000
    C23      C        0.92140    0.49750    0.64150    1.000
    C24      C        0.00320    0.46250    0.62260    1.000
    C25      C        0.09460    0.51050    0.69020    1.000
    C26      C        0.10330    0.58520    0.77210    1.000
    C27      C        0.88040    0.97750    0.76680    1.000
    C28      C        0.03090    0.06040    0.78300    1.000
    C29      C        0.13280    0.10540    0.81430    1.000
    C30      C        0.17450    0.16390    0.75610    1.000
    C31      C        0.11530    0.17960    0.67000    1.000
    C32      C        0.01670    0.13860    0.63980    1.000
    C33      C        0.97260    0.07850    0.69750    1.000
    C34      C        0.79170    0.01830    0.61430    1.000
    C35      C        0.72410    0.92590    0.57000    1.000
    C36      C        0.64150    0.92140    0.49750    1.000
    C37      C        0.62260    0.00320    0.46250    1.000
    C38      C        0.69020    0.09460    0.51050    1.000
    C39      C        0.77210    0.10330    0.58520    1.000
    C40      C        0.11960    0.23320    0.02250    1.000
    C41      C        0.96910    0.21700    0.93960    1.000
    C42      C        0.86720    0.18570    0.89460    1.000
    C43      C        0.82550    0.24390    0.83610    1.000
    C44      C        0.88470    0.33000    0.82040    1.000
    C45      C        0.98330    0.36020    0.86140    1.000
    C46      C        0.02740    0.30250    0.92150    1.000
    C47      C        0.20830    0.38570    0.98170    1.000
    C48      C        0.27590    0.43000    0.07410    1.000
    C49      C        0.35850    0.50250    0.07860    1.000
    C50      C        0.37740    0.53750    0.99680    1.000
    C51      C        0.30980    0.48950    0.90540    1.000
    C52      C        0.22790    0.41480    0.89670    1.000
    C53      C        0.23320    0.02250    0.11960    1.000
    C54      C        0.21700    0.93960    0.96910    1.000
    C55      C        0.18570    0.89460    0.86720    1.000
    C56      C        0.24390    0.83610    0.82550    1.000
    C57      C        0.33000    0.82040    0.88470    1.000
    C58      C        0.36020    0.86140    0.98330    1.000
    C59      C        0.30250    0.92150    0.02740    1.000
    C60      C        0.38570    0.98170    0.20830    1.000
    C61      C        0.43000    0.07410    0.27590    1.000
    C62      C        0.50250    0.07860    0.35850    1.000
    C63      C        0.53750    0.99680    0.37740    1.000
    C64      C        0.48950    0.90540    0.30980    1.000
    C65      C        0.41480    0.89670    0.22790    1.000
    C66      C        0.02250    0.11960    0.23320    1.000
    C67      C        0.93960    0.96910    0.21700    1.000
    C68      C        0.89460    0.86720    0.18570    1.000
    C69      C        0.83610    0.82550    0.24390    1.000
    C70      C        0.82040    0.88470    0.33000    1.000
    C71      C        0.86140    0.98330    0.36020    1.000
    C72      C        0.92150    0.02740    0.30250    1.000
    C73      C        0.98170    0.20830    0.38570    1.000
    C74      C        0.07410    0.27590    0.43000    1.000
    C75      C        0.07860    0.35850    0.50250    1.000
    C76      C        0.99680    0.37740    0.53750    1.000
    C77      C        0.90540    0.30980    0.48950    1.000
    C78      C        0.89670    0.22790    0.41480    1.000
    N1       N        0.82590    0.97130    0.99850    1.000
    N2       N        0.68920    0.87820    0.02580    1.000
    N3       N        0.99850    0.82590    0.97130    1.000
    N4       N        0.02580    0.68920    0.87820    1.000
    N5       N        0.97130    0.99850    0.82590    1.000
    N6       N        0.87820    0.02580    0.68920    1.000
    N7       N        0.02870    0.17410    0.00150    1.000
    N8       N        0.12180    0.31080    0.97420    1.000
    N9       N        0.17410    0.00150    0.02870    1.000
    N10      N        0.31080    0.97420    0.12180    1.000
    N11      N        0.00150    0.02870    0.17410    1.000
    N12      N        0.97420    0.12180    0.31080    1.000
    Cl1      Cl       0.70280    0.70280    0.70280    1.000
    O1       O        0.66840    0.78910    0.74240    1.000
    O2       O        0.74240    0.66840    0.78910    1.000
    O3       O        0.78910    0.74240    0.66840    1.000
    O4       O        0.62760    0.62760    0.62760    1.000
    Cl2      Cl       0.29720    0.29720    0.29720    1.000
    O5       O        0.21090    0.33160    0.25760    1.000
    O6       O        0.33160    0.25760    0.21090    1.000
    O7       O        0.25760    0.21090    0.33160    1.000
    O8       O        0.37240    0.37240    0.37240    1.000
