# CIF file generated by openbabel 3.1.0, see https://openbabel.org
data_I
_chemical_name_common 'image0'
_cell_length_a 9.417
_cell_length_b 15.289
_cell_length_c 16.75
_cell_angle_alpha 68.978
_cell_angle_beta 79.291
_cell_angle_gamma 89.359
_space_group_name_H-M_alt 'P 1'
_space_group_name_Hall 'P 1'
loop_
    _symmetry_equiv_pos_as_xyz
    x,y,z
loop_
    _atom_site_label
    _atom_site_type_symbol
    _atom_site_fract_x
    _atom_site_fract_y
    _atom_site_fract_z
    _atom_site_occupancy
    Pr1      Pr       0.08383    0.17215    0.89228    1.000
    Pr2      Pr       0.38327    0.23849    0.47817    1.000
    Pr3      Pr       0.50094    0.32236    0.10905    1.000
    O1       O        0.25060    0.19560    0.75320    1.000
    O2       O        0.39250    0.23530    0.62360    1.000
    O3       O        0.89130    0.21390    0.79670    1.000
    O4       O        0.80510    0.12880    0.93530    1.000
    O5       O        0.49210    0.84860    0.79570    1.000
    O6       O        0.58980    0.82660    0.90930    1.000
    O7       O        0.67230    0.47050    0.50500    1.000
    H1       H        0.70360    0.51110    0.45720    1.000
    O8       O        0.63300    0.59350    0.54400    1.000
    O9       O        0.57300    0.53830    0.86180    1.000
    O10      O        0.51670    0.39280    0.95690    1.000
    O11      O        0.59910    0.31650    0.36710    1.000
    O12      O        0.58390    0.30140    0.24270    1.000
    O13      O        0.24580    0.27880    0.20770    1.000
    O14      O        0.24780    0.36410    0.07120    1.000
    O15      O        0.03200    0.67530    0.08730    1.000
    O16      O        0.84960    0.65840    0.19500    1.000
    O17      O        0.01370    0.10980    0.04450    1.000
    O18      O        0.96410    0.96550    0.14090    1.000
    O19      O        0.73520    0.90880    0.43900    1.000
    O20      O        0.73470    0.01940    0.49550    1.000
    C1       C        0.36540    0.19340    0.70450    1.000
    C2       C        0.48160    0.13740    0.74990    1.000
    C3       C        0.58330    0.17930    0.77830    1.000
    C4       C        0.67480    0.11980    0.82930    1.000
    C5       C        0.66100    0.02380    0.85130    1.000
    H2       H        0.71730    0.98550    0.88840    1.000
    C6       C        0.56430    0.98290    0.81890    1.000
    C7       C        0.47540    0.04160    0.76740    1.000
    H3       H        0.41110    0.01610    0.74440    1.000
    C8       C        0.79450    0.15830    0.85500    1.000
    C9       C        0.55140    0.87900    0.84320    1.000
    C10      C        0.59030    0.28200    0.75870    1.000
    C11      C        0.61250    0.34630    0.67220    1.000
    H4       H        0.62550    0.32420    0.62650    1.000
    C12      C        0.61530    0.44100    0.65440    1.000
    C13      C        0.59660    0.47510    0.72210    1.000
    H5       H        0.59780    0.53960    0.70940    1.000
    C14      C        0.57630    0.41450    0.80800    1.000
    C15      C        0.57370    0.31860    0.82590    1.000
    H6       H        0.56070    0.27750    0.88360    1.000
    C16      C        0.63950    0.50970    0.56350    1.000
    C17      C        0.55460    0.45030    0.88080    1.000
    C18      C        0.64900    0.32480    0.29120    1.000
    C19      C        0.80120    0.36990    0.25000    1.000
    C20      C        0.91860    0.32200    0.22410    1.000
    C21      C        0.04820    0.37660    0.17540    1.000
    C22      C        0.05370    0.47340    0.14980    1.000
    H7       H        0.13630    0.50810    0.11290    1.000
    C23      C        0.93870    0.52040    0.17790    1.000
    C24      C        0.81220    0.46640    0.22910    1.000
    H8       H        0.73430    0.49570    0.24930    1.000
    C25      C        0.18690    0.33590    0.15020    1.000
    C26      C        0.94280    0.62460    0.15120    1.000
    C27      C        0.90530    0.21920    0.24350    1.000
    C28      C        0.94700    0.18500    0.17720    1.000
    H9       H        0.98630    0.22650    0.12140    1.000
    C29      C        0.93110    0.08850    0.19280    1.000
    C30      C        0.86910    0.02920    0.27600    1.000
    H10      H        0.85670    0.96530    0.28730    1.000
    C31      C        0.82570    0.06180    0.34170    1.000
    C32      C        0.84590    0.15720    0.32620    1.000
    H11      H        0.81930    0.17920    0.37160    1.000
    C33      C        0.97190    0.05050    0.12130    1.000
    C34      C        0.76040    0.99170    0.43330    1.000
    Pr4      Pr       0.91617    0.82785    0.10772    1.000
    Pr5      Pr       0.61673    0.76151    0.52183    1.000
    Pr6      Pr       0.49906    0.67764    0.89095    1.000
    O21      O        0.74940    0.80440    0.24680    1.000
    O22      O        0.60750    0.76470    0.37640    1.000
    O23      O        0.10870    0.78610    0.20330    1.000
    O24      O        0.19490    0.87120    0.06470    1.000
    O25      O        0.50790    0.15140    0.20430    1.000
    O26      O        0.41020    0.17340    0.09070    1.000
    O27      O        0.32770    0.52950    0.49500    1.000
    H12      H        0.29640    0.48890    0.54280    1.000
    O28      O        0.36700    0.40650    0.45600    1.000
    O29      O        0.42700    0.46170    0.13820    1.000
    O30      O        0.48330    0.60720    0.04310    1.000
    O31      O        0.40090    0.68350    0.63290    1.000
    O32      O        0.41610    0.69860    0.75730    1.000
    O33      O        0.75420    0.72120    0.79230    1.000
    O34      O        0.75220    0.63590    0.92880    1.000
    O35      O        0.96800    0.32470    0.91270    1.000
    O36      O        0.15040    0.34160    0.80500    1.000
    O37      O        0.98630    0.89020    0.95550    1.000
    O38      O        0.03590    0.03450    0.85910    1.000
    O39      O        0.26480    0.09120    0.56100    1.000
    O40      O        0.26530    0.98060    0.50450    1.000
    C35      C        0.63460    0.80660    0.29550    1.000
    C36      C        0.51840    0.86260    0.25010    1.000
    C37      C        0.41670    0.82070    0.22170    1.000
    C38      C        0.32520    0.88020    0.17070    1.000
    C39      C        0.33900    0.97620    0.14870    1.000
    H13      H        0.28270    0.01450    0.11160    1.000
    C40      C        0.43570    0.01710    0.18110    1.000
    C41      C        0.52460    0.95840    0.23260    1.000
    H14      H        0.58890    0.98390    0.25560    1.000
    C42      C        0.20550    0.84170    0.14500    1.000
    C43      C        0.44860    0.12100    0.15680    1.000
    C44      C        0.40970    0.71800    0.24130    1.000
    C45      C        0.38750    0.65370    0.32780    1.000
    H15      H        0.37450    0.67580    0.37350    1.000
    C46      C        0.38470    0.55900    0.34560    1.000
    C47      C        0.40340    0.52490    0.27790    1.000
    H16      H        0.40220    0.46040    0.29060    1.000
    C48      C        0.42370    0.58550    0.19200    1.000
    C49      C        0.42630    0.68140    0.17410    1.000
    H17      H        0.43930    0.72250    0.11640    1.000
    C50      C        0.36050    0.49030    0.43650    1.000
    C51      C        0.44540    0.54970    0.11920    1.000
    C52      C        0.35100    0.67520    0.70880    1.000
    C53      C        0.19880    0.63010    0.75000    1.000
    C54      C        0.08140    0.67800    0.77590    1.000
    C55      C        0.95180    0.62340    0.82460    1.000
    C56      C        0.94630    0.52660    0.85020    1.000
    H18      H        0.86370    0.49190    0.88710    1.000
    C57      C        0.06130    0.47960    0.82210    1.000
    C58      C        0.18780    0.53360    0.77090    1.000
    H19      H        0.26570    0.50430    0.75070    1.000
    C59      C        0.81310    0.66410    0.84980    1.000
    C60      C        0.05720    0.37540    0.84880    1.000
    C61      C        0.09470    0.78080    0.75650    1.000
    C62      C        0.05300    0.81500    0.82280    1.000
    H20      H        0.01370    0.77350    0.87860    1.000
    C63      C        0.06890    0.91150    0.80720    1.000
    C64      C        0.13090    0.97080    0.72400    1.000
    H21      H        0.14330    0.03470    0.71270    1.000
    C65      C        0.17430    0.93820    0.65830    1.000
    C66      C        0.15410    0.84280    0.67380    1.000
    H22      H        0.18070    0.82080    0.62840    1.000
    C67      C        0.02810    0.94950    0.87870    1.000
    C68      C        0.23960    0.00830    0.56670    1.000
