data_functionalizedCrystal
_audit_creation_method	'EQeq! by Chris Wilmer'
_symmetry_space_group_name_H-M	'P1'
_symmetry_Int_Tables_number	1
_symmetry_cell_setting	triclinic
loop_
_symmetry_equiv_pos_as_xyz
  x,y,z
_cell_length_a	44.482
_cell_length_b	44.482
_cell_length_c	21.283
_cell_angle_alpha	90
_cell_angle_beta	90
_cell_angle_gamma	120
loop_
_atom_site_label
_atom_site_type_symbol
_atom_site_fract_x
_atom_site_fract_y
_atom_site_fract_z
_atom_site_charge
Mof_Cu	Cu	0.74058	0.27966	0.41705	0.782
Mof_Cu	Cu	0.82707	0.2494	0.49119	0.791
Mof_Cu	Cu	0.80143	0.16325	0.64875	0.826
Mof_Cu	Cu	0.70941	0.04962	0.58363	0.8
Mof_Cu	Cu	0.64322	0.02618	0.38581	0.796
Mof_Cu	Cu	0.58364	0.08908	0.32132	0.8
Mof_Cu	Cu	0.6131	0.20552	0.39355	0.801
Mof_Cu	Cu	0.95062	0.31021	0.42489	0.802
Mof_Cu	Cu	0.05021	0.34184	0.55979	0.771
Mof_Cu	Cu	0.49493	0.0234	0.1583	0.798
Mof_C 	C 	0.7743	0.2628	0.4271	-0.28
Mof_N 	N 	0.7923	0.2587	0.4671	-0.265
Mof_C 	C 	0.814	0.2242	0.5761	-0.251
Mof_N 	N 	0.8146	0.2007	0.5944	-0.264
Mof_N 	N 	0.7631	0.1204	0.6259	-0.25
Mof_C 	C 	0.7507	0.0907	0.6048	-0.299
Mof_C 	C 	0.6912	0.0447	0.5049	-0.318
Mof_N 	N 	0.6758	0.0405	0.4566	-0.234
Mof_N 	N 	0.6219	0.0466	0.3666	-0.297
Mof_C 	C 	0.6048	0.0594	0.3518	-0.244
Mof_C 	C 	0.5917	0.1316	0.3672	-0.276
Mof_N 	N 	0.5999	0.1611	0.3604	-0.248
Mof_N 	N 	0.6611	0.2355	0.3853	-0.243
Mof_C 	C 	0.6909	0.2511	0.4011	-0.289
Mof_N 	N 	0.873	0.2726	0.4662	-0.256
Mof_C 	C 	0.8997	0.2865	0.4515	-0.245
Mof_C 	C 	0.9861	0.3157	0.472	-0.342
Mof_N 	N 	0.0026	0.3132	0.4971	-0.167
Mof_C 	C 	0.9675	0.3453	0.3016	-0.258
Mof_N 	N 	0.961	0.3308	0.347	-0.255
Mof_N 	N 	0.7629	0.3297	0.3874	-0.223
Mof_C 	C 	0.7755	0.3598	0.3824	-0.297
Mof_N 	N 	0.5534	0.0676	0.2658	-0.293
Mof_C 	C 	0.5378	0.0591	0.2223	-0.193
Mof_C 	C 	0.8375	0.1576	0.7446	-0.263
Mof_N 	N 	0.8235	0.1605	0.7017	-0.313
Mof_C 	C 	0.0988	0.358	0.5331	-0.325
Mof_N 	N 	0.1219	0.3412	0.5235	-0.312
Mof_C 	C 	0.6825	0.9861	0.6657	-0.226
Mof_N 	N 	0.6912	0.0072	0.6386	-0.239
Mof_Cu	Cu	0.40725	0.61299	0.75038	0.782
Mof_Cu	Cu	0.49374	0.58273	0.82452	0.791
Mof_Cu	Cu	0.4681	0.49658	0.98208	0.819
Mof_Cu	Cu	0.37608	0.38295	0.91696	0.799
Mof_Cu	Cu	0.30989	0.35951	0.71914	0.795
Mof_Cu	Cu	0.25031	0.42241	0.65465	0.799
Mof_Cu	Cu	0.27977	0.53885	0.72688	0.8
Mof_Cu	Cu	0.61729	0.64354	0.75822	0.801
Mof_Cu	Cu	0.71688	0.67517	0.89312	0.77
Mof_Cu	Cu	0.1616	0.35673	0.49163	0.796
Mof_C 	C 	0.44097	0.59613	0.76043	-0.283
Mof_N 	N 	0.45897	0.59203	0.80043	-0.266
Mof_C 	C 	0.48067	0.55753	0.90943	-0.256
Mof_N 	N 	0.48127	0.53403	0.92773	-0.266
Mof_N 	N 	0.42977	0.45373	0.95923	-0.253
Mof_C 	C 	0.41737	0.42403	0.93813	-0.305
Mof_C 	C 	0.35787	0.37803	0.83823	-0.322
Mof_N 	N 	0.34247	0.37383	0.78993	-0.235
Mof_N 	N 	0.28857	0.37993	0.69993	-0.299
Mof_C 	C 	0.27147	0.39273	0.68513	-0.248
Mof_C 	C 	0.25837	0.46493	0.70053	-0.279
Mof_N 	N 	0.26657	0.49443	0.69373	-0.249
Mof_N 	N 	0.32777	0.56883	0.71863	-0.244
Mof_C 	C 	0.35757	0.58443	0.73443	-0.292
Mof_N 	N 	0.53967	0.60593	0.79953	-0.257
Mof_C 	C 	0.56637	0.61983	0.78483	-0.248
Mof_C 	C 	0.65277	0.64903	0.80533	-0.345
Mof_N 	N 	0.66927	0.64653	0.83043	-0.168
Mof_C 	C 	0.63417	0.67863	0.63493	-0.261
Mof_N 	N 	0.62767	0.66413	0.68033	-0.255
Mof_N 	N 	0.42957	0.66303	0.72073	-0.224
Mof_C 	C 	0.44217	0.69313	0.71573	-0.299
Mof_N 	N 	0.22007	0.40093	0.59913	-0.294
Mof_C 	C 	0.20447	0.39243	0.55563	-0.197
Mof_C 	C 	0.50417	0.49093	0.07793	-0.252
Mof_N 	N 	0.49017	0.49383	0.03503	-0.302
Mof_C 	C 	0.76547	0.69133	0.86643	-0.33
Mof_N 	N 	0.78857	0.67453	0.85683	-0.314
Mof_C 	C 	0.34917	0.31943	0.99903	-0.245
Mof_N 	N 	0.35787	0.34053	0.97193	-0.237
Mof_Cu	Cu	0.07391	0.94633	0.08372	0.784
Mof_Cu	Cu	0.1604	0.91607	0.15786	0.794
Mof_Cu	Cu	0.13476	0.82992	0.31542	0.829
Mof_Cu	Cu	0.04274	0.71629	0.2503	0.803
Mof_Cu	Cu	0.97655	0.69285	0.05248	0.804
Mof_Cu	Cu	0.91697	0.75575	0.98799	0.785
Mof_Cu	Cu	0.94643	0.87219	0.06022	0.802
Mof_Cu	Cu	0.28395	0.97688	0.09156	0.804
Mof_Cu	Cu	0.38354	0.00851	0.22646	0.772
Mof_Cu	Cu	0.82826	0.69007	0.82497	0.794
Mof_C 	C 	0.10763	0.92947	0.09377	-0.276
Mof_N 	N 	0.12563	0.92537	0.13377	-0.264
Mof_C 	C 	0.14733	0.89087	0.24277	-0.248
Mof_N 	N 	0.14793	0.86737	0.26107	-0.263
Mof_N 	N 	0.09643	0.78707	0.29257	-0.249
Mof_C 	C 	0.08403	0.75737	0.27147	-0.295
Mof_C 	C 	0.02453	0.71137	0.17157	-0.313
Mof_N 	N 	0.00913	0.70717	0.12327	-0.231
Mof_N 	N 	0.95523	0.71327	0.03327	-0.296
Mof_C 	C 	0.93813	0.72607	0.01847	-0.229
Mof_C 	C 	0.92503	0.79827	0.03387	-0.264
Mof_N 	N 	0.93323	0.82777	0.02707	-0.248
Mof_N 	N 	0.99443	0.90217	0.05197	-0.243
Mof_C 	C 	0.02423	0.91777	0.06777	-0.286
Mof_N 	N 	0.20633	0.93927	0.13287	-0.255
Mof_C 	C 	0.23303	0.95317	0.11817	-0.239
Mof_C 	C 	0.31943	0.98237	0.13867	-0.335
Mof_N 	N 	0.33593	0.97987	0.16377	-0.166
Mof_C 	C 	0.30083	0.01197	0.96827	-0.294
Mof_N 	N 	0.29433	0.99747	0.01367	-0.23
Mof_N 	N 	0.09623	0.99637	0.05407	-0.222
Mof_C 	C 	0.10883	0.02647	0.04907	-0.294
Mof_N 	N 	0.88673	0.73427	0.93247	-0.299
Mof_C 	C 	0.87113	0.72577	0.88897	-0.205
Mof_C 	C 	0.17083	0.82427	0.41127	-0.259
Mof_N 	N 	0.15683	0.82717	0.36837	-0.313
Mof_C 	C 	0.43213	0.02467	0.19977	-0.32
Mof_N 	N 	0.45523	0.00787	0.19017	-0.309
Mof_C 	C 	0.01583	0.65277	0.33237	-0.222
Mof_N 	N 	0.02453	0.67387	0.30527	-0.237
Mof_Cu	Cu	0.72034	0.46092	0.41705	0.783
Mof_Cu	Cu	0.7506	0.57767	0.49119	0.792
Mof_Cu	Cu	0.83675	0.63818	0.64875	0.827
Mof_Cu	Cu	0.95038	0.65979	0.58363	0.801
Mof_Cu	Cu	0.97382	0.61704	0.38581	0.796
Mof_Cu	Cu	0.91092	0.49456	0.32132	0.8
Mof_Cu	Cu	0.79448	0.40758	0.39355	0.801
Mof_Cu	Cu	0.68979	0.64041	0.42489	0.802
Mof_Cu	Cu	0.65816	0.70837	0.55979	0.771
Mof_Cu	Cu	0.9766	0.47153	0.1583	0.798
Mof_C 	C 	0.7372	0.5115	0.4271	-0.28
Mof_N 	N 	0.7413	0.5336	0.4671	-0.265
Mof_C 	C 	0.7758	0.5898	0.5761	-0.251
Mof_N 	N 	0.7993	0.6139	0.5944	-0.264
Mof_N 	N 	0.8796	0.6427	0.6259	-0.25
Mof_C 	C 	0.9093	0.66	0.6048	-0.299
Mof_C 	C 	0.9553	0.6465	0.5049	-0.318
Mof_N 	N 	0.9595	0.6353	0.4566	-0.234
Mof_N 	N 	0.9534	0.5753	0.3666	-0.297
Mof_C 	C 	0.9406	0.5454	0.3518	-0.244
Mof_C 	C 	0.8684	0.4601	0.3672	-0.276
Mof_N 	N 	0.8389	0.4388	0.3604	-0.248
Mof_N 	N 	0.7645	0.4256	0.3853	-0.243
Mof_C 	C 	0.7489	0.4398	0.4011	-0.289
Mof_N 	N 	0.7274	0.6004	0.4662	-0.256
Mof_C 	C 	0.7135	0.6132	0.4515	-0.245
Mof_C 	C 	0.6843	0.6704	0.472	-0.341
Mof_N 	N 	0.6868	0.6894	0.4971	-0.167
Mof_C 	C 	0.6547	0.6222	0.3016	-0.258
Mof_N 	N 	0.6692	0.6302	0.347	-0.255
Mof_N 	N 	0.6703	0.4332	0.3874	-0.223
Mof_C 	C 	0.6402	0.4157	0.3824	-0.297
Mof_N 	N 	0.9324	0.4858	0.2658	-0.293
Mof_C 	C 	0.9409	0.4787	0.2223	-0.193
Mof_C 	C 	0.8424	0.6799	0.7446	-0.263
Mof_N 	N 	0.8395	0.663	0.7017	-0.313
Mof_C 	C 	0.642	0.7408	0.5331	-0.325
Mof_N 	N 	0.6588	0.7807	0.5235	-0.312
Mof_C 	C 	0.0139	0.6964	0.6657	-0.226
Mof_N 	N 	0.9928	0.684	0.6386	-0.239
Mof_Cu	Cu	0.38701	0.79425	0.75038	0.782
Mof_Cu	Cu	0.41727	0.911	0.82452	0.791
Mof_Cu	Cu	0.50342	0.97151	0.98208	0.819
Mof_Cu	Cu	0.61705	0.99312	0.91696	0.799
Mof_Cu	Cu	0.64049	0.95037	0.71914	0.795
Mof_Cu	Cu	0.57759	0.82789	0.65465	0.799
Mof_Cu	Cu	0.46115	0.74091	0.72688	0.8
Mof_Cu	Cu	0.35646	0.97374	0.75822	0.801
Mof_Cu	Cu	0.32483	0.0417	0.89312	0.77
Mof_Cu	Cu	0.64327	0.80486	0.49163	0.796
Mof_C 	C 	0.40387	0.84483	0.76043	-0.283
Mof_N 	N 	0.40797	0.86693	0.80043	-0.266
Mof_C 	C 	0.44247	0.92313	0.90943	-0.256
Mof_N 	N 	0.46597	0.94723	0.92773	-0.266
Mof_N 	N 	0.54627	0.97603	0.95923	-0.253
Mof_C 	C 	0.57597	0.99333	0.93813	-0.305
Mof_C 	C 	0.62197	0.97983	0.83823	-0.322
Mof_N 	N 	0.62617	0.96863	0.78993	-0.235
Mof_N 	N 	0.62007	0.90863	0.69993	-0.299
Mof_C 	C 	0.60727	0.87873	0.68513	-0.248
Mof_C 	C 	0.53507	0.79343	0.70053	-0.279
Mof_N 	N 	0.50557	0.77213	0.69373	-0.249
Mof_N 	N 	0.43117	0.75893	0.71863	-0.244
Mof_C 	C 	0.41557	0.77313	0.73443	-0.292
Mof_N 	N 	0.39407	0.93373	0.79953	-0.257
Mof_C 	C 	0.38017	0.94653	0.78483	-0.248
Mof_C 	C 	0.35097	0.00373	0.80533	-0.345
Mof_N 	N 	0.35347	0.02273	0.83043	-0.168
Mof_C 	C 	0.32137	0.95553	0.63493	-0.261
Mof_N 	N 	0.33587	0.96353	0.68033	-0.255
Mof_N 	N 	0.33697	0.76653	0.72073	-0.224
Mof_C 	C 	0.30687	0.74903	0.71573	-0.299
Mof_N 	N 	0.59907	0.81913	0.59913	-0.294
Mof_C 	C 	0.60757	0.81203	0.55563	-0.197
Mof_C 	C 	0.50907	0.01323	0.07793	-0.252
Mof_N 	N 	0.50617	0.99633	0.03503	-0.302
Mof_C 	C 	0.30867	0.07413	0.86643	-0.33
Mof_N 	N 	0.32547	0.11403	0.85683	-0.314
Mof_C 	C 	0.68057	0.02973	0.99903	-0.245
Mof_N 	N 	0.65947	0.01733	0.97193	-0.237
Mof_Cu	Cu	0.05367	0.12759	0.08372	0.784
Mof_Cu	Cu	0.08393	0.24434	0.15786	0.794
Mof_Cu	Cu	0.17008	0.30485	0.31542	0.829
Mof_Cu	Cu	0.28371	0.32646	0.2503	0.803
Mof_Cu	Cu	0.30715	0.28371	0.05248	0.804
Mof_Cu	Cu	0.24425	0.16123	0.98799	0.785
Mof_Cu	Cu	0.12781	0.07425	0.06022	0.802
Mof_Cu	Cu	0.02312	0.30708	0.09156	0.804
Mof_Cu	Cu	0.99149	0.37504	0.22646	0.772
Mof_Cu	Cu	0.30993	0.1382	0.82497	0.794
Mof_C 	C 	0.07053	0.17817	0.09377	-0.276
Mof_N 	N 	0.07463	0.20027	0.13377	-0.264
Mof_C 	C 	0.10913	0.25647	0.24277	-0.248
Mof_N 	N 	0.13263	0.28057	0.26107	-0.263
Mof_N 	N 	0.21293	0.30937	0.29257	-0.249
Mof_C 	C 	0.24263	0.32667	0.27147	-0.295
Mof_C 	C 	0.28863	0.31317	0.17157	-0.313
Mof_N 	N 	0.29283	0.30197	0.12327	-0.231
Mof_N 	N 	0.28673	0.24197	0.03327	-0.296
Mof_C 	C 	0.27393	0.21207	0.01847	-0.229
Mof_C 	C 	0.20173	0.12677	0.03387	-0.264
Mof_N 	N 	0.17223	0.10547	0.02707	-0.247
Mof_N 	N 	0.09783	0.09227	0.05197	-0.242
Mof_C 	C 	0.08223	0.10647	0.06777	-0.287
Mof_N 	N 	0.06073	0.26707	0.13287	-0.255
Mof_C 	C 	0.04683	0.27987	0.11817	-0.239
Mof_C 	C 	0.01763	0.33707	0.13867	-0.335
Mof_N 	N 	0.02013	0.35607	0.16377	-0.166
Mof_C 	C 	0.98803	0.28887	0.96827	-0.293
Mof_N 	N 	0.00253	0.29687	0.01367	-0.23
Mof_N 	N 	0.00363	0.09987	0.05407	-0.222
Mof_C 	C 	0.97353	0.08237	0.04907	-0.294
Mof_N 	N 	0.26573	0.15247	0.93247	-0.299
Mof_C 	C 	0.27423	0.14537	0.88897	-0.205
Mof_C 	C 	0.17573	0.34657	0.41127	-0.259
Mof_N 	N 	0.17283	0.32967	0.36837	-0.313
Mof_C 	C 	0.97533	0.40747	0.19977	-0.32
Mof_N 	N 	0.99213	0.44737	0.19017	-0.309
Mof_C 	C 	0.34723	0.36307	0.33237	-0.222
Mof_N 	N 	0.32613	0.35067	0.30527	-0.237
Mof_Cu	Cu	0.53908	0.25942	0.41705	0.783
Mof_Cu	Cu	0.42233	0.17293	0.49119	0.792
Mof_Cu	Cu	0.36182	0.19857	0.64875	0.827
Mof_Cu	Cu	0.34021	0.29059	0.58363	0.801
Mof_Cu	Cu	0.38296	0.35678	0.38581	0.796
Mof_Cu	Cu	0.50544	0.41636	0.32132	0.8
Mof_Cu	Cu	0.59242	0.3869	0.39355	0.801
Mof_Cu	Cu	0.35959	0.04938	0.42489	0.802
Mof_Cu	Cu	0.29163	0.94979	0.55979	0.771
Mof_Cu	Cu	0.52847	0.50507	0.1583	0.798
Mof_C 	C 	0.4885	0.2257	0.4271	-0.28
Mof_N 	N 	0.4664	0.2077	0.4671	-0.265
Mof_C 	C 	0.4102	0.186	0.5761	-0.251
Mof_N 	N 	0.3861	0.1854	0.5944	-0.264
Mof_N 	N 	0.3573	0.2369	0.6259	-0.25
Mof_C 	C 	0.34	0.2493	0.6048	-0.299
Mof_C 	C 	0.3535	0.3088	0.5049	-0.318
Mof_N 	N 	0.3647	0.3242	0.4566	-0.234
Mof_N 	N 	0.4247	0.3781	0.3666	-0.297
Mof_C 	C 	0.4546	0.3952	0.3518	-0.244
Mof_C 	C 	0.5399	0.4083	0.3672	-0.276
Mof_N 	N 	0.5612	0.4001	0.3604	-0.248
Mof_N 	N 	0.5744	0.3389	0.3853	-0.243
Mof_C 	C 	0.5602	0.3091	0.4011	-0.289
Mof_N 	N 	0.3996	0.127	0.4662	-0.256
Mof_C 	C 	0.3868	0.1003	0.4515	-0.245
Mof_C 	C 	0.3296	0.0139	0.472	-0.342
Mof_N 	N 	0.3106	0.9974	0.4971	-0.167
Mof_C 	C 	0.3778	0.0325	0.3016	-0.258
Mof_N 	N 	0.3698	0.039	0.347	-0.255
Mof_N 	N 	0.5668	0.2371	0.3874	-0.223
Mof_C 	C 	0.5843	0.2245	0.3824	-0.297
Mof_N 	N 	0.5142	0.4466	0.2658	-0.293
Mof_C 	C 	0.5213	0.4622	0.2223	-0.193
Mof_C 	C 	0.3201	0.1625	0.7446	-0.263
Mof_N 	N 	0.337	0.1765	0.7017	-0.313
Mof_C 	C 	0.2592	0.9012	0.5331	-0.325
Mof_N 	N 	0.2193	0.8781	0.5235	-0.312
Mof_C 	C 	0.3036	0.3175	0.6657	-0.227
Mof_N 	N 	0.316	0.3088	0.6386	-0.238
Mof_Cu	Cu	0.20575	0.59275	0.75038	0.782
Mof_Cu	Cu	0.089	0.50626	0.82452	0.791
Mof_Cu	Cu	0.02849	0.5319	0.98208	0.819
Mof_Cu	Cu	0.00688	0.62392	0.91696	0.799
Mof_Cu	Cu	0.04963	0.69011	0.71914	0.795
Mof_Cu	Cu	0.17211	0.74969	0.65465	0.799
Mof_Cu	Cu	0.25909	0.72023	0.72688	0.8
Mof_Cu	Cu	0.02626	0.38271	0.75822	0.801
Mof_Cu	Cu	0.9583	0.28312	0.89312	0.77
Mof_Cu	Cu	0.19514	0.8384	0.49163	0.796
Mof_C 	C 	0.15517	0.55903	0.76043	-0.283
Mof_N 	N 	0.13307	0.54103	0.80043	-0.266
Mof_C 	C 	0.07687	0.51933	0.90943	-0.256
Mof_N 	N 	0.05277	0.51873	0.92773	-0.266
Mof_N 	N 	0.02397	0.57023	0.95923	-0.253
Mof_C 	C 	0.00667	0.58263	0.93813	-0.305
Mof_C 	C 	0.02017	0.64213	0.83823	-0.322
Mof_N 	N 	0.03137	0.65753	0.78993	-0.235
Mof_N 	N 	0.09137	0.71143	0.69993	-0.299
Mof_C 	C 	0.12127	0.72853	0.68513	-0.248
Mof_C 	C 	0.20657	0.74163	0.70053	-0.279
Mof_N 	N 	0.22787	0.73343	0.69373	-0.249
Mof_N 	N 	0.24107	0.67223	0.71863	-0.244
Mof_C 	C 	0.22687	0.64243	0.73443	-0.292
Mof_N 	N 	0.06627	0.46033	0.79953	-0.257
Mof_C 	C 	0.05347	0.43363	0.78483	-0.248
Mof_C 	C 	0.99627	0.34723	0.80533	-0.345
Mof_N 	N 	0.97727	0.33073	0.83043	-0.168
Mof_C 	C 	0.04447	0.36583	0.63493	-0.261
Mof_N 	N 	0.03647	0.37233	0.68033	-0.255
Mof_N 	N 	0.23347	0.57043	0.72073	-0.224
Mof_C 	C 	0.25097	0.55783	0.71573	-0.299
Mof_N 	N 	0.18087	0.77993	0.59913	-0.294
Mof_C 	C 	0.18797	0.79553	0.55563	-0.197
Mof_C 	C 	0.98677	0.49583	0.07793	-0.252
Mof_N 	N 	0.00367	0.50983	0.03503	-0.302
Mof_C 	C 	0.92587	0.23453	0.86643	-0.33
Mof_N 	N 	0.88597	0.21143	0.85683	-0.314
Mof_C 	C 	0.97027	0.65083	0.99903	-0.245
Mof_N 	N 	0.98267	0.64213	0.97193	-0.237
Mof_Cu	Cu	0.87241	0.92609	0.08372	0.784
Mof_Cu	Cu	0.75566	0.8396	0.15786	0.793
Mof_Cu	Cu	0.69515	0.86524	0.31542	0.829
Mof_Cu	Cu	0.67354	0.95726	0.2503	0.803
Mof_Cu	Cu	0.71629	0.02345	0.05248	0.804
Mof_Cu	Cu	0.83877	0.08303	0.98799	0.785
Mof_Cu	Cu	0.92575	0.05357	0.06022	0.802
Mof_Cu	Cu	0.69292	0.71605	0.09156	0.804
Mof_Cu	Cu	0.62496	0.61646	0.22646	0.773
Mof_Cu	Cu	0.8618	0.17174	0.82497	0.794
Mof_C 	C 	0.82183	0.89237	0.09377	-0.276
Mof_N 	N 	0.79973	0.87437	0.13377	-0.264
Mof_C 	C 	0.74353	0.85267	0.24277	-0.248
Mof_N 	N 	0.71943	0.85207	0.26107	-0.263
Mof_N 	N 	0.69063	0.90357	0.29257	-0.249
Mof_C 	C 	0.67333	0.91597	0.27147	-0.295
Mof_C 	C 	0.68683	0.97547	0.17157	-0.313
Mof_N 	N 	0.69803	0.99087	0.12327	-0.231
Mof_N 	N 	0.75803	0.04477	0.03327	-0.296
Mof_C 	C 	0.78793	0.06187	0.01847	-0.23
Mof_C 	C 	0.87323	0.07497	0.03387	-0.264
Mof_N 	N 	0.89453	0.06677	0.02707	-0.248
Mof_N 	N 	0.90773	0.00557	0.05197	-0.243
Mof_C 	C 	0.89353	0.97577	0.06777	-0.286
Mof_N 	N 	0.73293	0.79367	0.13287	-0.255
Mof_C 	C 	0.72013	0.76697	0.11817	-0.239
Mof_C 	C 	0.66293	0.68057	0.13867	-0.335
Mof_N 	N 	0.64393	0.66407	0.16377	-0.166
Mof_C 	C 	0.71113	0.69917	0.96827	-0.293
Mof_N 	N 	0.70313	0.70567	0.01367	-0.23
Mof_N 	N 	0.90013	0.90377	0.05407	-0.222
Mof_C 	C 	0.91763	0.89117	0.04907	-0.293
Mof_N 	N 	0.84753	0.11327	0.93247	-0.299
Mof_C 	C 	0.85463	0.12887	0.88897	-0.205
Mof_C 	C 	0.65343	0.82917	0.41127	-0.259
Mof_N 	N 	0.67033	0.84317	0.36837	-0.313
Mof_C 	C 	0.59253	0.56787	0.19977	-0.32
Mof_N 	N 	0.55263	0.54477	0.19017	-0.309
Mof_C 	C 	0.63693	0.98417	0.33237	-0.222
Mof_N 	N 	0.64933	0.97547	0.30527	-0.237
_end
