# CIF file generated by openbabel 3.1.0, see https://openbabel.org
data_I
_chemical_name_common 'image0'
_cell_length_a 9.3415
_cell_length_b 9.3415
_cell_length_c 6.9955
_cell_angle_alpha 90
_cell_angle_beta 90
_cell_angle_gamma 120
_space_group_name_H-M_alt 'P 1'
_space_group_name_Hall 'P 1'
loop_
    _symmetry_equiv_pos_as_xyz
    x,y,z
loop_
    _atom_site_label
    _atom_site_type_symbol
    _atom_site_fract_x
    _atom_site_fract_y
    _atom_site_fract_z
    _atom_site_occupancy
    Al1      Al       0.16196    0.52127    0.05625    1.000
    O1       O        0.30180    0.73020    0.95990    1.000
    H1       H        0.36050    0.83100    0.04290    1.000
    O2       O        0.27830    0.42700    0.95920    1.000
    O3       O        0.53250    0.56580    0.16910    1.000
    Al2      Al       0.47873    0.64069    0.38958    1.000
    O4       O        0.26980    0.57160    0.29323    1.000
    H2       H        0.16900    0.52950    0.37623    1.000
    O5       O        0.57300    0.85130    0.29253    1.000
    O6       O        0.43420    0.96670    0.50243    1.000
    Al3      Al       0.35931    0.83804    0.72292    1.000
    O7       O        0.42840    0.69820    0.62657    1.000
    H3       H        0.47050    0.63950    0.70957    1.000
    O8       O        0.14870    0.72170    0.62587    1.000
    O9       O        0.03330    0.46750    0.83577    1.000
    Al4      Al       0.52127    0.16196    0.94375    1.000
    O10      O        0.73020    0.30180    0.04010    1.000
    H4       H        0.83100    0.36050    0.95710    1.000
    O11      O        0.42700    0.27830    0.04080    1.000
    O12      O        0.56580    0.53250    0.83090    1.000
    Al5      Al       0.64069    0.47873    0.61042    1.000
    O13      O        0.57160    0.26980    0.70677    1.000
    H5       H        0.52950    0.16900    0.62377    1.000
    O14      O        0.85130    0.57300    0.70747    1.000
    O15      O        0.96670    0.43420    0.49757    1.000
    Al6      Al       0.83804    0.35931    0.27708    1.000
    O16      O        0.69820    0.42840    0.37343    1.000
    H6       H        0.63950    0.47050    0.29043    1.000
    O17      O        0.72170    0.14870    0.37413    1.000
    O18      O        0.46750    0.03330    0.16423    1.000
    P1       P        0.44930    0.44930    0.00000    1.000
    P2       P        0.55070    0.00000    0.33333    1.000
    P3       P        0.00000    0.55070    0.66667    1.000
    F1       F        0.00000    0.31830    0.16667    1.000
    F2       F        0.00000    0.56860    0.16667    1.000
    F3       F        0.68170    0.68170    0.50000    1.000
    F4       F        0.43140    0.43140    0.50000    1.000
    F5       F        0.31830    0.00000    0.83333    1.000
    F6       F        0.56860    0.00000    0.83333    1.000
