data_functionalizedCrystal
_audit_creation_method	'EQeq! by Chris Wilmer'
_symmetry_space_group_name_H-M	'P1'
_symmetry_Int_Tables_number	1
_symmetry_cell_setting	triclinic
loop_
_symmetry_equiv_pos_as_xyz
  x,y,z
_cell_length_a	25.299
_cell_length_b	25.299
_cell_length_c	166.828
_cell_angle_alpha	90
_cell_angle_beta	90
_cell_angle_gamma	120
loop_
_atom_site_label
_atom_site_type_symbol
_atom_site_fract_x
_atom_site_fract_y
_atom_site_fract_z
_atom_site_charge
Mof_Zn	Zn	0.65912	0.99951	0.41159	1.214
Mof_Zn	Zn	0.68825	0.93074	0.42511	1.214
Mof_Zn	Zn	0.75766	0.07301	0.42518	1.213
Mof_Zn	Zn	0.78537	0.00073	0.41143	1.213
Mof_Zn	Zn	0.58766	0.26879	0.49539	1.217
Mof_Zn	Zn	0.93925	0.91943	0.33393	1.218
Mof_O 	O 	0.72291	0.00149	0.41806	-0.957
Mof_O 	O 	0.72679	0.1259	0.42074	-0.497
Mof_O 	O 	0.6057	0.87474	0.42165	-0.519
Mof_O 	O 	0.67178	0.9903	0.40016	-0.508
Mof_O 	O 	0.57831	0.9256	0.41354	-0.521
Mof_O 	O 	0.6791	0.9444	0.43631	-0.52
Mof_O 	O 	0.65238	0.07375	0.41201	-0.509
Mof_O 	O 	0.7277	0.8836	0.42453	-0.501
Mof_O 	O 	0.7954	0.9297	0.41435	-0.489
Mof_O 	O 	0.7578	0.9852	0.40032	-0.508
Mof_C 	C 	0.6812	0.1752	0.41483	-0.232
Mof_O 	O 	0.7044	0.0416	0.43482	-0.523
Mof_C 	C 	0.6868	0.1209	0.4157	0.454
Mof_O 	O 	0.4106	0.7312	0.35254	-0.529
Mof_O 	O 	0.4006	0.7403	0.48458	-0.513
Mof_O 	O 	0.442	0.7892	0.34203	-0.553
Mof_O 	O 	0.4589	0.7806	0.49553	-0.506
Mof_O 	O 	0.5978	0.2105	0.48906	-0.495
Mof_C 	C 	0.5673	0.8795	0.41714	0.473
Mof_C 	C 	0.5059	0.8244	0.41644	-0.27
Mof_C 	C 	0.7195	0.2282	0.41891	0.163
Mof_H 	H 	0.7481	0.2292	0.4225	-0.011
Mof_O 	O 	0.7001	0.2484	0.48883	-0.536
Mof_C 	C 	0.711	0.9819	0.39693	0.436
Mof_S 	S 	0.85243	0.85249	0.41516	0.082
Mof_C 	C 	0.6728	0.2814	0.4127	0.224
Mof_C 	C 	0.3924	0.7195	0.41509	0.263
Mof_C 	C 	0.6658	0.9958	0.44715	-0.213
Mof_N 	N 	0.678	0.9214	0.36365	-0.208
Mof_C 	C 	0.6402	0.1775	0.40967	0.164
Mof_H 	H 	0.6148	0.1426	0.4067	-0.01
Mof_C 	C 	0.4362	0.7203	0.41961	-0.308
Mof_H 	H 	0.4285	0.6852	0.4224	0.14
Mof_C 	C 	0.715	0.2808	0.4176	-0.261
Mof_H 	H 	0.7422	0.3166	0.4202	0.126
Mof_C 	C 	0.4933	0.7724	0.42028	0.212
Mof_H 	H 	0.5232	0.7715	0.4234	-0.028
Mof_N 	N 	0.6039	0.9951	0.4706	-0.218
Mof_C 	C 	0.6249	0.994	0.46286	0.21
Mof_C 	C 	0.6345	0.2289	0.40859	-0.256
Mof_H 	H 	0.605	0.2277	0.4051	0.123
Mof_C 	C 	0.4616	0.824	0.41174	0.215
Mof_H 	H 	0.4692	0.8588	0.4089	-0.03
Mof_C 	C 	0.6551	0.9638	0.38409	0.142
Mof_H 	H 	0.628	0.9723	0.3868	-0.002
Mof_C 	C 	0.4058	0.7719	0.41123	-0.309
Mof_H 	H 	0.3757	0.7724	0.4081	0.141
Mof_C 	C 	0.4454	0.7812	0.48797	0.421
Mof_C 	C 	0.6508	0.9472	0.45245	0.144
Mof_H 	H 	0.6529	0.9134	0.4507	-0.006
Mof_C 	C 	0.704	0.9672	0.3883	-0.213
Mof_C 	C 	0.6372	0.1566	0.48236	-0.304
Mof_C 	C 	0.6136	0.0496	0.47434	0.273
Mof_C 	C 	0.6838	0.9923	0.43884	0.434
Mof_C 	C 	0.6452	0.9486	0.37617	-0.228
Mof_H 	H 	0.611	0.9445	0.3735	0.114
Mof_C 	C 	0.507	0.8145	0.35312	-0.354
Mof_C 	C 	0.633	0.9483	0.46029	-0.25
Mof_H 	H 	0.6267	0.917	0.4638	0.12
Mof_C 	C 	0.4875	0.8348	0.48349	-0.195
Mof_C 	C 	0.4774	0.8387	0.47533	0.124
Mof_H 	H 	0.4453	0.8058	0.4727	0.002
Mof_C 	C 	0.7304	0.9354	0.35881	0.202
Mof_C 	C 	0.6891	0.9394	0.37217	0.184
Mof_C 	C 	0.4516	0.7759	0.34897	0.521
Mof_C 	C 	0.7712	0.8916	0.41974	0.377
Mof_C 	C 	0.8772	0.9725	0.34337	0.411
Mof_C 	C 	0.5667	0.9402	0.47474	0.178
Mof_C 	C 	0.5186	0.8031	0.36069	0.301
Mof_H 	H 	0.4875	0.7707	0.3635	-0.059
Mof_C 	C 	0.6397	0.0443	0.45762	-0.243
Mof_H 	H 	0.6367	0.0775	0.4594	0.118
Mof_C 	C 	0.6583	0.0429	0.44999	0.152
Mof_H 	H 	0.6662	0.075	0.4466	-0.011
Mof_C 	C 	0.5677	0.054	0.47747	-0.308
Mof_H 	H 	0.5281	0.0214	0.477	0.141
Mof_C 	C 	0.5776	0.1072	0.48157	0.205
Mof_H 	H 	0.5449	0.1093	0.4837	-0.027
Mof_C 	C 	0.7801	0.9937	0.35793	-0.26
Mof_H 	H 	0.7822	0.0258	0.3609	0.123
Mof_C 	C 	0.6707	0.0981	0.47493	-0.337
Mof_H 	H 	0.7036	0.0967	0.4727	0.15
Mof_C 	C 	0.7793	0.8998	0.34988	0.158
Mof_H 	H 	0.7797	0.8681	0.3471	-0.01
Mof_C 	C 	0.5729	0.8366	0.36428	-0.387
Mof_H 	H 	0.579	0.8265	0.3694	0.169
Mof_C 	C 	0.7308	0.8867	0.35493	-0.242
Mof_H 	H 	0.6994	0.8468	0.3557	0.119
Mof_C 	C 	0.6178	0.8839	0.36055	0.282
Mof_C 	C 	0.6478	0.2082	0.4868	0.45
Mof_C 	C 	0.7452	0.9573	0.38414	0.156
Mof_H 	H 	0.7773	0.9579	0.3869	-0.007
Mof_C 	C 	0.5518	0.8629	0.34929	0.252
Mof_H 	H 	0.5442	0.8724	0.3442	-0.045
Mof_C 	C 	0.8251	0.0039	0.35287	0.171
Mof_H 	H 	0.8566	0.0437	0.352	-0.015
Mof_C 	C 	0.5787	0.9352	0.48262	-0.203
Mof_H 	H 	0.6121	0.9676	0.4851	0.105
Mof_C 	C 	0.7408	0.9469	0.37619	-0.24
Mof_H 	H 	0.7715	0.9447	0.3734	0.12
Mof_C 	C 	0.6094	0.8996	0.35272	-0.316
Mof_H 	H 	0.6405	0.9325	0.35	0.146
Mof_C 	C 	0.6797	0.1498	0.47891	0.255
Mof_H 	H 	0.7194	0.1826	0.4792	-0.045
Mof_C 	C 	0.897	0.7718	0.41784	0.374
Mof_C 	C 	0.5147	0.8908	0.47117	-0.213
Mof_H 	H 	0.5057	0.8938	0.4658	0.106
Mof_C 	C 	0.5396	0.8797	0.48714	0.109
Mof_H 	H 	0.5495	0.8748	0.4923	0.006
Mof_O 	O 	0.8847	0.725	0.42459	-0.356
Mof_C 	C 	0.7934	0.7591	0.42295	0.089
Mof_H 	H 	0.7787	0.7193	0.4247	0.019
Mof_C 	C 	0.7611	0.7906	0.42403	0.008
Mof_H 	H 	0.7243	0.7756	0.4267	0.034
Mof_C 	C 	0.7919	0.8456	0.42051	-0.1
Mof_C 	C 	0.8471	0.7909	0.41914	-0.091
Mof_O 	O 	0.8809	0.9262	0.3409	-0.492
Mof_O 	O 	0.9143	0.0277	0.34127	-0.516
Mof_C 	C 	0.8263	0.9576	0.34889	-0.225
Mof_O 	O 	0.934	0.8019	0.41285	-0.498
Mof_O 	O 	0.8389	0.1247	0.41846	-0.277
Mof_C 	C 	0.7759	0.8065	0.42864	-0.046
Mof_H 	H 	0.7493	0.8032	0.4327	0.047
Mof_C 	C 	0.8158	0.7755	0.42801	-0.121
Mof_H 	H 	0.8208	0.7524	0.432	0.076
Mof_Zn	Zn	0.32579	0.33284	0.74492	1.213
Mof_Zn	Zn	0.35492	0.26407	0.75844	1.213
Mof_Zn	Zn	0.42433	0.40634	0.75852	1.212
Mof_Zn	Zn	0.45204	0.33406	0.74477	1.212
Mof_Zn	Zn	0.25433	0.60212	0.82872	1.216
Mof_Zn	Zn	0.60592	0.25276	0.66727	1.217
Mof_O 	O 	0.38958	0.33482	0.7514	-0.957
Mof_O 	O 	0.39346	0.45923	0.75407	-0.498
Mof_O 	O 	0.27237	0.20807	0.75498	-0.52
Mof_O 	O 	0.33845	0.32363	0.73349	-0.51
Mof_O 	O 	0.24498	0.25893	0.74687	-0.523
Mof_O 	O 	0.34577	0.27773	0.76964	-0.521
Mof_O 	O 	0.31905	0.40708	0.74534	-0.51
Mof_O 	O 	0.39437	0.21693	0.75786	-0.502
Mof_O 	O 	0.46207	0.26303	0.74768	-0.49
Mof_O 	O 	0.42447	0.31853	0.73365	-0.509
Mof_C 	C 	0.34787	0.50853	0.74816	-0.232
Mof_O 	O 	0.37107	0.37493	0.76815	-0.524
Mof_C 	C 	0.35347	0.45423	0.74903	0.453
Mof_O 	O 	0.07727	0.06453	0.68587	-0.531
Mof_O 	O 	0.06727	0.07363	0.81791	-0.514
Mof_O 	O 	0.10867	0.12253	0.67536	-0.555
Mof_O 	O 	0.12557	0.11393	0.82886	-0.507
Mof_O 	O 	0.26447	0.54383	0.82239	-0.495
Mof_C 	C 	0.23397	0.21283	0.75047	0.472
Mof_C 	C 	0.17257	0.15773	0.74977	-0.271
Mof_C 	C 	0.38617	0.56153	0.75224	0.162
Mof_H 	H 	0.41477	0.56253	0.75583	-0.012
Mof_O 	O 	0.36677	0.58173	0.82216	-0.537
Mof_C 	C 	0.37767	0.31523	0.73026	0.435
Mof_S 	S 	0.5191	0.18582	0.74849	0.08
Mof_C 	C 	0.33947	0.61473	0.74603	0.223
Mof_C 	C 	0.05907	0.05283	0.74842	0.261
Mof_C 	C 	0.33247	0.32913	0.78048	-0.215
Mof_N 	N 	0.34467	0.25473	0.69698	-0.21
Mof_C 	C 	0.30687	0.51083	0.743	0.163
Mof_H 	H 	0.28147	0.47593	0.74003	-0.01
Mof_C 	C 	0.10287	0.05363	0.75294	-0.308
Mof_H 	H 	0.09517	0.01853	0.75573	0.14
Mof_C 	C 	0.38167	0.61413	0.75093	-0.261
Mof_H 	H 	0.40887	0.64993	0.75353	0.126
Mof_C 	C 	0.15997	0.10573	0.75361	0.212
Mof_H 	H 	0.18987	0.10483	0.75673	-0.028
Mof_N 	N 	0.27057	0.32843	0.80393	-0.218
Mof_C 	C 	0.29157	0.32733	0.79619	0.209
Mof_C 	C 	0.30117	0.56223	0.74192	-0.256
Mof_H 	H 	0.27167	0.56103	0.73843	0.123
Mof_C 	C 	0.12827	0.15733	0.74507	0.215
Mof_H 	H 	0.13587	0.19213	0.74223	-0.03
Mof_C 	C 	0.32177	0.29713	0.71742	0.142
Mof_H 	H 	0.29467	0.30563	0.72013	-0.002
Mof_C 	C 	0.07247	0.10523	0.74456	-0.308
Mof_H 	H 	0.04237	0.10573	0.74143	0.141
Mof_C 	C 	0.11207	0.11453	0.8213	0.421
Mof_C 	C 	0.31747	0.28053	0.78578	0.144
Mof_H 	H 	0.31957	0.24673	0.78403	-0.006
Mof_C 	C 	0.37067	0.30053	0.72163	-0.213
Mof_C 	C 	0.30387	0.48993	0.81569	-0.305
Mof_C 	C 	0.28027	0.38293	0.80767	0.273
Mof_C 	C 	0.35047	0.32563	0.77217	0.433
Mof_C 	C 	0.31187	0.28193	0.7095	-0.228
Mof_H 	H 	0.27767	0.27783	0.70683	0.114
Mof_C 	C 	0.17367	0.14783	0.68645	-0.354
Mof_C 	C 	0.29967	0.28163	0.79362	-0.25
Mof_H 	H 	0.29337	0.25033	0.79713	0.12
Mof_C 	C 	0.15417	0.16813	0.81682	-0.195
Mof_C 	C 	0.14407	0.17203	0.80866	0.124
Mof_H 	H 	0.11197	0.13913	0.80603	0.002
Mof_C 	C 	0.39707	0.26873	0.69214	0.205
Mof_C 	C 	0.35577	0.27273	0.7055	0.184
Mof_C 	C 	0.11827	0.10923	0.6823	0.521
Mof_C 	C 	0.43787	0.22493	0.75307	0.376
Mof_C 	C 	0.54387	0.30583	0.6767	0.412
Mof_C 	C 	0.23337	0.27353	0.80807	0.178
Mof_C 	C 	0.18527	0.13643	0.69402	0.302
Mof_H 	H 	0.15417	0.10403	0.69683	-0.059
Mof_C 	C 	0.30637	0.37763	0.79095	-0.243
Mof_H 	H 	0.30337	0.41083	0.79273	0.118
Mof_C 	C 	0.32497	0.37623	0.78332	0.153
Mof_H 	H 	0.33287	0.40833	0.77993	-0.012
Mof_C 	C 	0.23437	0.38733	0.8108	-0.309
Mof_H 	H 	0.19477	0.35473	0.81033	0.141
Mof_C 	C 	0.24427	0.44053	0.8149	0.205
Mof_H 	H 	0.21157	0.44263	0.81703	-0.027
Mof_C 	C 	0.44677	0.32703	0.69126	-0.267
Mof_H 	H 	0.44887	0.35913	0.69423	0.126
Mof_C 	C 	0.33737	0.43143	0.80826	-0.338
Mof_H 	H 	0.37027	0.43003	0.80603	0.15
Mof_C 	C 	0.44597	0.23313	0.68321	0.162
Mof_H 	H 	0.44637	0.20143	0.68043	-0.011
Mof_C 	C 	0.23957	0.16993	0.69761	-0.388
Mof_H 	H 	0.24567	0.15983	0.70273	0.169
Mof_C 	C 	0.39747	0.22003	0.68826	-0.246
Mof_H 	H 	0.36607	0.18013	0.68903	0.12
Mof_C 	C 	0.28447	0.21723	0.69388	0.282
Mof_C 	C 	0.31447	0.54153	0.82013	0.45
Mof_C 	C 	0.41187	0.29063	0.71747	0.156
Mof_H 	H 	0.44397	0.29123	0.72023	-0.008
Mof_C 	C 	0.21847	0.19623	0.68262	0.252
Mof_H 	H 	0.21087	0.20573	0.67753	-0.045
Mof_C 	C 	0.49177	0.33723	0.6862	0.179
Mof_H 	H 	0.52327	0.37703	0.68533	-0.018
Mof_C 	C 	0.24537	0.26853	0.81595	-0.203
Mof_H 	H 	0.27877	0.30093	0.81843	0.105
Mof_C 	C 	0.40747	0.28023	0.70952	-0.24
Mof_H 	H 	0.43817	0.27803	0.70673	0.119
Mof_C 	C 	0.27607	0.23293	0.68605	-0.317
Mof_H 	H 	0.30717	0.26583	0.68333	0.146
Mof_C 	C 	0.34637	0.48313	0.81224	0.256
Mof_H 	H 	0.38607	0.51593	0.81253	-0.045
Mof_C 	C 	0.56367	0.10513	0.75117	0.374
Mof_C 	C 	0.18137	0.22413	0.8045	-0.213
Mof_H 	H 	0.17237	0.22713	0.79913	0.106
Mof_C 	C 	0.20627	0.21303	0.82047	0.109
Mof_H 	H 	0.21617	0.20813	0.82563	0.006
Mof_O 	O 	0.55137	0.05833	0.75792	-0.356
Mof_C 	C 	0.46007	0.09243	0.75628	0.089
Mof_H 	H 	0.44537	0.05263	0.75803	0.019
Mof_C 	C 	0.42777	0.12393	0.75736	0.008
Mof_H 	H 	0.39097	0.10893	0.76003	0.034
Mof_C 	C 	0.45857	0.17893	0.75384	-0.101
Mof_C 	C 	0.51377	0.12423	0.75247	-0.091
Mof_O 	O 	0.54757	0.25953	0.67423	-0.493
Mof_O 	O 	0.58097	0.36103	0.6746	-0.517
Mof_C 	C 	0.49297	0.29093	0.68222	-0.23
Mof_O 	O 	0.60067	0.13523	0.74618	-0.499
Mof_O 	O 	0.50557	0.45803	0.75179	-0.277
Mof_C 	C 	0.44257	0.13983	0.76197	-0.046
Mof_H 	H 	0.41597	0.13653	0.76603	0.047
Mof_C 	C 	0.48247	0.10883	0.76134	-0.121
Mof_H 	H 	0.48747	0.08573	0.76533	0.075
Mof_Zn	Zn	0.99245	0.66618	0.07826	1.213
Mof_Zn	Zn	0.02158	0.59741	0.09177	1.213
Mof_Zn	Zn	0.09099	0.73968	0.09185	1.212
Mof_Zn	Zn	0.1187	0.6674	0.0781	1.212
Mof_Zn	Zn	0.92099	0.93546	0.16205	1.216
Mof_Zn	Zn	0.27258	0.5861	0.0006	1.217
Mof_O 	O 	0.05624	0.66816	0.08473	-0.958
Mof_O 	O 	0.06012	0.79257	0.08741	-0.498
Mof_O 	O 	0.93903	0.54141	0.08832	-0.52
Mof_O 	O 	0.00511	0.65697	0.06683	-0.51
Mof_O 	O 	0.91164	0.59227	0.08021	-0.522
Mof_O 	O 	0.01243	0.61107	0.10298	-0.521
Mof_O 	O 	0.98571	0.74042	0.07868	-0.509
Mof_O 	O 	0.06103	0.55027	0.0912	-0.502
Mof_O 	O 	0.12873	0.59637	0.08102	-0.49
Mof_O 	O 	0.09113	0.65187	0.06699	-0.51
Mof_C 	C 	0.01453	0.84187	0.0815	-0.232
Mof_O 	O 	0.03773	0.70827	0.10149	-0.524
Mof_C 	C 	0.02013	0.78757	0.08237	0.451
Mof_O 	O 	0.74393	0.39787	0.01921	-0.53
Mof_O 	O 	0.73393	0.40697	0.15125	-0.514
Mof_O 	O 	0.77533	0.45587	0.0087	-0.555
Mof_O 	O 	0.79223	0.44727	0.1622	-0.507
Mof_O 	O 	0.93113	0.87717	0.15573	-0.496
Mof_C 	C 	0.90063	0.54617	0.08381	0.472
Mof_C 	C 	0.83923	0.49107	0.08311	-0.271
Mof_C 	C 	0.05283	0.89487	0.08558	0.16
Mof_H 	H 	0.08143	0.89587	0.08917	-0.011
Mof_O 	O 	0.03343	0.91507	0.1555	-0.541
Mof_C 	C 	0.04433	0.64857	0.0636	0.435
Mof_S 	S 	0.18576	0.51916	0.08182	0.08
Mof_C 	C 	0.00613	0.94807	0.07937	0.217
Mof_C 	C 	0.72573	0.38617	0.08176	0.262
Mof_C 	C 	0.99913	0.66247	0.11382	-0.211
Mof_N 	N 	0.01133	0.58807	0.03032	-0.21
Mof_C 	C 	0.97353	0.84417	0.07634	0.162
Mof_H 	H 	0.94813	0.80927	0.07337	-0.01
Mof_C 	C 	0.76953	0.38697	0.08628	-0.308
Mof_H 	H 	0.76183	0.35187	0.08907	0.14
Mof_C 	C 	0.04833	0.94747	0.08427	-0.258
Mof_H 	H 	0.07553	0.98327	0.08687	0.124
Mof_C 	C 	0.82663	0.43907	0.08695	0.212
Mof_H 	H 	0.85653	0.43817	0.09007	-0.028
Mof_N 	N 	0.93723	0.66177	0.13727	-0.218
Mof_C 	C 	0.95823	0.66067	0.12953	0.208
Mof_C 	C 	0.96783	0.89557	0.07526	-0.252
Mof_H 	H 	0.93833	0.89437	0.07177	0.122
Mof_C 	C 	0.79493	0.49067	0.07841	0.215
Mof_H 	H 	0.80253	0.52547	0.07557	-0.03
Mof_C 	C 	0.98843	0.63047	0.05076	0.143
Mof_H 	H 	0.96133	0.63897	0.05347	-0.002
Mof_C 	C 	0.73913	0.43857	0.0779	-0.309
Mof_H 	H 	0.70903	0.43907	0.07477	0.141
Mof_C 	C 	0.77873	0.44787	0.15464	0.421
Mof_C 	C 	0.98413	0.61387	0.11912	0.142
Mof_H 	H 	0.98623	0.58007	0.11737	-0.005
Mof_C 	C 	0.03733	0.63387	0.05497	-0.214
Mof_C 	C 	0.97053	0.82327	0.14903	-0.303
Mof_C 	C 	0.94693	0.71627	0.14101	0.277
Mof_C 	C 	0.01713	0.65897	0.10551	0.43
Mof_C 	C 	0.97853	0.61527	0.04284	-0.229
Mof_H 	H 	0.94433	0.61117	0.04017	0.114
Mof_C 	C 	0.84033	0.48117	0.01979	-0.354
Mof_C 	C 	0.96633	0.61497	0.12696	-0.248
Mof_H 	H 	0.96003	0.58367	0.13047	0.12
Mof_C 	C 	0.82083	0.50147	0.15016	-0.195
Mof_C 	C 	0.81073	0.50537	0.142	0.124
Mof_H 	H 	0.77863	0.47247	0.13937	0.002
Mof_C 	C 	0.06373	0.60207	0.02548	0.205
Mof_C 	C 	0.02243	0.60607	0.03884	0.184
Mof_C 	C 	0.78493	0.44257	0.01564	0.52
Mof_C 	C 	0.10453	0.55827	0.08641	0.376
Mof_C 	C 	0.21053	0.63917	0.01004	0.412
Mof_C 	C 	0.90003	0.60687	0.14141	0.179
Mof_C 	C 	0.85193	0.46977	0.02736	0.301
Mof_H 	H 	0.82083	0.43737	0.03017	-0.058
Mof_C 	C 	0.97303	0.71097	0.12429	-0.241
Mof_H 	H 	0.97003	0.74417	0.12607	0.118
Mof_C 	C 	0.99163	0.70957	0.11666	0.151
Mof_H 	H 	0.99953	0.74167	0.11327	-0.01
Mof_C 	C 	0.90103	0.72067	0.14414	-0.31
Mof_H 	H 	0.86143	0.68807	0.14367	0.142
Mof_C 	C 	0.91093	0.77387	0.14824	0.206
Mof_H 	H 	0.87823	0.77597	0.15037	-0.027
Mof_C 	C 	0.11343	0.66037	0.0246	-0.267
Mof_H 	H 	0.11553	0.69247	0.02757	0.126
Mof_C 	C 	0.00403	0.76477	0.1416	-0.341
Mof_H 	H 	0.03693	0.76337	0.13937	0.15
Mof_C 	C 	0.11263	0.56647	0.01655	0.162
Mof_H 	H 	0.11303	0.53477	0.01377	-0.011
Mof_C 	C 	0.90623	0.50327	0.03095	-0.387
Mof_H 	H 	0.91233	0.49317	0.03607	0.169
Mof_C 	C 	0.06413	0.55337	0.0216	-0.246
Mof_H 	H 	0.03273	0.51347	0.02237	0.12
Mof_C 	C 	0.95113	0.55057	0.02722	0.282
Mof_C 	C 	0.98113	0.87487	0.15347	0.453
Mof_C 	C 	0.07853	0.62397	0.05081	0.157
Mof_H 	H 	0.11063	0.62457	0.05357	-0.008
Mof_C 	C 	0.88513	0.52957	0.01596	0.251
Mof_H 	H 	0.87753	0.53907	0.01087	-0.045
Mof_C 	C 	0.15843	0.67057	0.01954	0.179
Mof_H 	H 	0.18993	0.71037	0.01867	-0.018
Mof_C 	C 	0.91203	0.60187	0.14929	-0.203
Mof_H 	H 	0.94543	0.63427	0.15177	0.105
Mof_C 	C 	0.07413	0.61357	0.04286	-0.24
Mof_H 	H 	0.10483	0.61137	0.04007	0.12
Mof_C 	C 	0.94273	0.56627	0.01939	-0.316
Mof_H 	H 	0.97383	0.59917	0.01667	0.146
Mof_C 	C 	0.01303	0.81647	0.14558	0.253
Mof_H 	H 	0.05273	0.84927	0.14587	-0.045
Mof_C 	C 	0.23033	0.43847	0.08451	0.373
Mof_C 	C 	0.84803	0.55747	0.13784	-0.213
Mof_H 	H 	0.83903	0.56047	0.13247	0.106
Mof_C 	C 	0.87293	0.54637	0.15381	0.109
Mof_H 	H 	0.88283	0.54147	0.15897	0.006
Mof_O 	O 	0.21803	0.39167	0.09126	-0.356
Mof_C 	C 	0.12673	0.42577	0.08962	0.089
Mof_H 	H 	0.11203	0.38597	0.09137	0.019
Mof_C 	C 	0.09443	0.45727	0.0907	0.008
Mof_H 	H 	0.05763	0.44227	0.09337	0.034
Mof_C 	C 	0.12523	0.51227	0.08718	-0.101
Mof_C 	C 	0.18043	0.45757	0.08581	-0.091
Mof_O 	O 	0.21423	0.59287	0.00757	-0.492
Mof_O 	O 	0.24763	0.69437	0.00794	-0.516
Mof_C 	C 	0.15963	0.62427	0.01556	-0.23
Mof_O 	O 	0.26733	0.46857	0.07952	-0.499
Mof_O 	O 	0.17223	0.79137	0.08513	-0.278
Mof_C 	C 	0.10923	0.47317	0.09531	-0.046
Mof_H 	H 	0.08263	0.46987	0.09937	0.046
Mof_C 	C 	0.14913	0.44217	0.09468	-0.122
Mof_H 	H 	0.15413	0.41907	0.09867	0.076
Mof_Zn	Zn	0.00049	0.65961	0.41159	1.213
Mof_Zn	Zn	0.06926	0.75751	0.42511	1.213
Mof_Zn	Zn	0.92699	0.68465	0.42518	1.212
Mof_Zn	Zn	0.99927	0.78464	0.41143	1.212
Mof_Zn	Zn	0.73121	0.31887	0.49539	1.216
Mof_Zn	Zn	0.08057	0.01982	0.33393	1.217
Mof_O 	O 	0.99851	0.72142	0.41806	-0.957
Mof_O 	O 	0.8741	0.60089	0.42074	-0.498
Mof_O 	O 	0.12526	0.73096	0.42165	-0.52
Mof_O 	O 	0.0097	0.68148	0.40016	-0.51
Mof_O 	O 	0.0744	0.65271	0.41354	-0.523
Mof_O 	O 	0.0556	0.7347	0.43631	-0.521
Mof_O 	O 	0.92625	0.57863	0.41201	-0.51
Mof_O 	O 	0.1164	0.8441	0.42453	-0.502
Mof_O 	O 	0.0703	0.8657	0.41435	-0.49
Mof_O 	O 	0.0148	0.7726	0.40032	-0.51
Mof_C 	C 	0.8248	0.506	0.41483	-0.232
Mof_O 	O 	0.9584	0.6628	0.43482	-0.523
Mof_C 	C 	0.8791	0.5659	0.4157	0.453
Mof_O 	O 	0.2688	0.6794	0.35254	-0.53
Mof_O 	O 	0.2597	0.6603	0.48458	-0.514
Mof_O 	O 	0.2108	0.6528	0.34203	-0.555
Mof_O 	O 	0.2194	0.6783	0.49553	-0.507
Mof_O 	O 	0.7895	0.3873	0.48906	-0.496
Mof_C 	C 	0.1205	0.6878	0.41714	0.472
Mof_C 	C 	0.1756	0.6815	0.41644	-0.271
Mof_C 	C 	0.7718	0.4913	0.41891	0.162
Mof_H 	H 	0.7708	0.5189	0.4225	-0.012
Mof_O 	O 	0.7516	0.4517	0.48883	-0.537
Mof_C 	C 	0.0181	0.7291	0.39693	0.435
Mof_S 	S 	0.14751	0.99994	0.41516	0.082
Mof_C 	C 	0.7186	0.3914	0.4127	0.223
Mof_C 	C 	0.2805	0.6729	0.41509	0.262
Mof_C 	C 	0.0042	0.67	0.44715	-0.215
Mof_N 	N 	0.0786	0.7566	0.36365	-0.21
Mof_C 	C 	0.8225	0.4627	0.40967	0.163
Mof_H 	H 	0.8574	0.4722	0.4067	-0.01
Mof_C 	C 	0.2797	0.7159	0.41961	-0.308
Mof_H 	H 	0.3148	0.7433	0.4224	0.14
Mof_C 	C 	0.7192	0.4342	0.4176	-0.261
Mof_H 	H 	0.6834	0.4256	0.4202	0.126
Mof_C 	C 	0.2276	0.7209	0.42028	0.212
Mof_H 	H 	0.2285	0.7517	0.4234	-0.028
Mof_N 	N 	0.0049	0.6088	0.4706	-0.218
Mof_C 	C 	0.006	0.6309	0.46286	0.208
Mof_C 	C 	0.7711	0.4056	0.40859	-0.256
Mof_H 	H 	0.7723	0.3773	0.4051	0.123
Mof_C 	C 	0.176	0.6376	0.41174	0.215
Mof_H 	H 	0.1412	0.6104	0.4089	-0.03
Mof_C 	C 	0.0362	0.6913	0.38409	0.142
Mof_H 	H 	0.0277	0.6557	0.3868	-0.002
Mof_C 	C 	0.2281	0.6339	0.41123	-0.309
Mof_H 	H 	0.2276	0.6033	0.4081	0.141
Mof_C 	C 	0.2188	0.6642	0.48797	0.421
Mof_C 	C 	0.0528	0.7036	0.45245	0.144
Mof_H 	H 	0.0866	0.7395	0.4507	-0.006
Mof_C 	C 	0.0328	0.7368	0.3883	-0.213
Mof_C 	C 	0.8434	0.4806	0.48236	-0.305
Mof_C 	C 	0.9504	0.564	0.47434	0.274
Mof_C 	C 	0.0077	0.6915	0.43884	0.433
Mof_C 	C 	0.0514	0.6966	0.37617	-0.228
Mof_H 	H 	0.0555	0.6665	0.3735	0.114
Mof_C 	C 	0.1855	0.6925	0.35312	-0.354
Mof_C 	C 	0.0517	0.6847	0.46029	-0.25
Mof_H 	H 	0.083	0.7097	0.4638	0.12
Mof_C 	C 	0.1652	0.6527	0.48349	-0.195
Mof_C 	C 	0.1613	0.6387	0.47533	0.124
Mof_H 	H 	0.1942	0.6395	0.4727	0.002
Mof_C 	C 	0.0646	0.795	0.35881	0.207
Mof_C 	C 	0.0606	0.7497	0.37217	0.184
Mof_C 	C 	0.2241	0.6757	0.34897	0.521
Mof_C 	C 	0.1084	0.8796	0.41974	0.377
Mof_C 	C 	0.0275	0.9047	0.34337	0.412
Mof_C 	C 	0.0598	0.6265	0.47474	0.178
Mof_C 	C 	0.1969	0.7155	0.36069	0.302
Mof_H 	H 	0.2293	0.7168	0.3635	-0.059
Mof_C 	C 	0.9557	0.5954	0.45762	-0.242
Mof_H 	H 	0.9225	0.5592	0.4594	0.118
Mof_C 	C 	0.9571	0.6154	0.44999	0.153
Mof_H 	H 	0.925	0.5912	0.4466	-0.012
Mof_C 	C 	0.946	0.5137	0.47747	-0.309
Mof_H 	H 	0.9786	0.5067	0.477	0.142
Mof_C 	C 	0.8928	0.4704	0.48157	0.206
Mof_H 	H 	0.8907	0.4356	0.4837	-0.027
Mof_C 	C 	0.0063	0.7864	0.35793	-0.272
Mof_H 	H 	0.9742	0.7564	0.3609	0.129
Mof_C 	C 	0.9019	0.5726	0.47493	-0.338
Mof_H 	H 	0.9033	0.6069	0.4727	0.15
Mof_C 	C 	0.1002	0.8795	0.34988	0.164
Mof_H 	H 	0.1319	0.9116	0.3471	-0.012
Mof_C 	C 	0.1634	0.7363	0.36428	-0.388
Mof_H 	H 	0.1735	0.7525	0.3694	0.169
Mof_C 	C 	0.1133	0.8441	0.35493	-0.248
Mof_H 	H 	0.1532	0.8526	0.3557	0.121
Mof_C 	C 	0.1161	0.7339	0.36055	0.282
Mof_C 	C 	0.7918	0.4396	0.4868	0.45
Mof_C 	C 	0.0427	0.7879	0.38414	0.156
Mof_H 	H 	0.0421	0.8194	0.3869	-0.008
Mof_C 	C 	0.1371	0.6889	0.34929	0.252
Mof_H 	H 	0.1276	0.6718	0.3442	-0.045
Mof_C 	C 	0.9961	0.8212	0.35287	0.184
Mof_H 	H 	0.9563	0.8129	0.352	-0.02
Mof_C 	C 	0.0648	0.6435	0.48262	-0.203
Mof_H 	H 	0.0324	0.6445	0.4851	0.105
Mof_C 	C 	0.0531	0.7939	0.37619	-0.24
Mof_H 	H 	0.0553	0.8268	0.3734	0.12
Mof_C 	C 	0.1004	0.7098	0.35272	-0.317
Mof_H 	H 	0.0675	0.708	0.35	0.146
Mof_C 	C 	0.8502	0.5299	0.47891	0.256
Mof_H 	H 	0.8174	0.5368	0.4792	-0.045
Mof_C 	C 	0.2282	0.1252	0.41784	0.374
Mof_C 	C 	0.1092	0.6239	0.47117	-0.213
Mof_H 	H 	0.1062	0.6119	0.4658	0.106
Mof_C 	C 	0.1203	0.6599	0.48714	0.109
Mof_H 	H 	0.1252	0.6747	0.4923	0.006
Mof_O 	O 	0.275	0.1597	0.42459	-0.356
Mof_C 	C 	0.2409	0.0343	0.42295	0.089
Mof_H 	H 	0.2807	0.0594	0.4247	0.019
Mof_C 	C 	0.2094	0.9705	0.42403	0.008
Mof_H 	H 	0.2244	0.9487	0.4267	0.034
Mof_C 	C 	0.1544	0.9463	0.42051	-0.101
Mof_C 	C 	0.2091	0.0562	0.41914	-0.092
Mof_O 	O 	0.0738	0.9547	0.3409	-0.492
Mof_O 	O 	0.9723	0.8866	0.34127	-0.516
Mof_C 	C 	0.0424	0.8687	0.34889	-0.233
Mof_O 	O 	0.1981	0.1321	0.41285	-0.499
Mof_O 	O 	0.8753	0.7142	0.41846	-0.277
Mof_C 	C 	0.1935	0.9694	0.42864	-0.045
Mof_H 	H 	0.1968	0.9461	0.4327	0.047
Mof_C 	C 	0.2245	0.0403	0.42801	-0.122
Mof_H 	H 	0.2476	0.0684	0.432	0.076
Mof_Zn	Zn	0.66716	0.99294	0.74492	1.214
Mof_Zn	Zn	0.73593	0.09084	0.75844	1.213
Mof_Zn	Zn	0.59366	0.01798	0.75852	1.211
Mof_Zn	Zn	0.66594	0.11797	0.74477	1.212
Mof_Zn	Zn	0.39788	0.6522	0.82872	1.216
Mof_Zn	Zn	0.74724	0.35315	0.66727	1.217
Mof_O 	O 	0.66518	0.05475	0.7514	-0.958
Mof_O 	O 	0.54077	0.93422	0.75407	-0.496
Mof_O 	O 	0.79193	0.06429	0.75498	-0.52
Mof_O 	O 	0.67637	0.01481	0.73349	-0.511
Mof_O 	O 	0.74107	0.98604	0.74687	-0.52
Mof_O 	O 	0.72227	0.06803	0.76964	-0.521
Mof_O 	O 	0.59292	0.91196	0.74534	-0.509
Mof_O 	O 	0.78307	0.17743	0.75786	-0.502
Mof_O 	O 	0.73697	0.19903	0.74768	-0.49
Mof_O 	O 	0.68147	0.10593	0.73365	-0.509
Mof_C 	C 	0.49147	0.83933	0.74816	-0.232
Mof_O 	O 	0.62507	0.99613	0.76815	-0.521
Mof_C 	C 	0.54577	0.89923	0.74903	0.453
Mof_O 	O 	0.93547	0.01273	0.68587	-0.53
Mof_O 	O 	0.92637	0.99363	0.81791	-0.515
Mof_O 	O 	0.87747	0.98613	0.67536	-0.553
Mof_O 	O 	0.88607	0.01163	0.82886	-0.511
Mof_O 	O 	0.45617	0.72063	0.82239	-0.496
Mof_C 	C 	0.78717	0.02113	0.75047	0.469
Mof_C 	C 	0.84227	0.01483	0.74977	-0.272
Mof_C 	C 	0.43847	0.82463	0.75224	0.162
Mof_H 	H 	0.43747	0.85223	0.75583	-0.011
Mof_O 	O 	0.41827	0.78503	0.82216	-0.537
Mof_C 	C 	0.68477	0.06243	0.73026	0.435
Mof_S 	S 	0.81418	0.33327	0.74849	0.08
Mof_C 	C 	0.38527	0.72473	0.74603	0.223
Mof_C 	C 	0.94717	0.00623	0.74842	0.257
Mof_C 	C 	0.67087	0.00333	0.78048	-0.224
Mof_N 	N 	0.74527	0.08993	0.69698	-0.21
Mof_C 	C 	0.48917	0.79603	0.743	0.163
Mof_H 	H 	0.52407	0.80553	0.74003	-0.01
Mof_C 	C 	0.94637	0.04923	0.75294	-0.306
Mof_H 	H 	0.98147	0.07663	0.75573	0.139
Mof_C 	C 	0.38587	0.76753	0.75093	-0.261
Mof_H 	H 	0.35007	0.75893	0.75353	0.126
Mof_C 	C 	0.89427	0.05423	0.75361	0.21
Mof_H 	H 	0.89517	0.08503	0.75673	-0.028
Mof_N 	N 	0.67157	0.94213	0.80393	-0.22
Mof_C 	C 	0.67267	0.96423	0.79619	0.218
Mof_C 	C 	0.43777	0.73893	0.74192	-0.256
Mof_H 	H 	0.43897	0.71063	0.73843	0.123
Mof_C 	C 	0.84267	0.97093	0.74507	0.216
Mof_H 	H 	0.80787	0.94373	0.74223	-0.03
Mof_C 	C 	0.70287	0.02463	0.71742	0.139
Mof_H 	H 	0.69437	0.98903	0.72013	0.001
Mof_C 	C 	0.89477	0.96723	0.74456	-0.304
Mof_H 	H 	0.89427	0.93663	0.74143	0.14
Mof_C 	C 	0.88547	0.99753	0.8213	0.427
Mof_C 	C 	0.71947	0.03693	0.78578	0.151
Mof_H 	H 	0.75327	0.07283	0.78403	-0.009
Mof_C 	C 	0.69947	0.07013	0.72163	-0.212
Mof_C 	C 	0.51007	0.81393	0.81569	-0.305
Mof_C 	C 	0.61707	0.89733	0.80767	0.274
Mof_C 	C 	0.67437	0.02483	0.77217	0.432
Mof_C 	C 	0.71807	0.02993	0.7095	-0.23
Mof_H 	H 	0.72217	0.99983	0.70683	0.116
Mof_C 	C 	0.85217	0.02583	0.68645	-0.353
Mof_C 	C 	0.71837	0.01803	0.79362	-0.261
Mof_H 	H 	0.74967	0.04303	0.79713	0.123
Mof_C 	C 	0.83187	0.98603	0.81682	-0.201
Mof_C 	C 	0.82797	0.97203	0.80866	0.129
Mof_H 	H 	0.86087	0.97283	0.80603	0
Mof_C 	C 	0.73127	0.12833	0.69214	0.205
Mof_C 	C 	0.72727	0.08303	0.7055	0.184
Mof_C 	C 	0.89077	0.00903	0.6823	0.519
Mof_C 	C 	0.77507	0.21293	0.75307	0.377
Mof_C 	C 	0.69417	0.23803	0.6767	0.412
Mof_C 	C 	0.72647	0.95983	0.80807	0.182
Mof_C 	C 	0.86357	0.04883	0.69402	0.301
Mof_H 	H 	0.89597	0.05013	0.69683	-0.058
Mof_C 	C 	0.62237	0.92873	0.79095	-0.251
Mof_H 	H 	0.58917	0.89253	0.79273	0.121
Mof_C 	C 	0.62377	0.94873	0.78332	0.164
Mof_H 	H 	0.59167	0.92453	0.77993	-0.015
Mof_C 	C 	0.61267	0.84703	0.8108	-0.309
Mof_H 	H 	0.64527	0.84003	0.81033	0.141
Mof_C 	C 	0.55947	0.80373	0.8149	0.206
Mof_H 	H 	0.55737	0.76893	0.81703	-0.027
Mof_C 	C 	0.67297	0.11973	0.69126	-0.267
Mof_H 	H 	0.64087	0.08973	0.69423	0.126
Mof_C 	C 	0.56857	0.90593	0.80826	-0.338
Mof_H 	H 	0.56997	0.94023	0.80603	0.15
Mof_C 	C 	0.76687	0.21283	0.68321	0.162
Mof_H 	H 	0.79857	0.24493	0.68043	-0.011
Mof_C 	C 	0.83007	0.06963	0.69761	-0.387
Mof_H 	H 	0.84017	0.08583	0.70273	0.169
Mof_C 	C 	0.77997	0.17743	0.68826	-0.246
Mof_H 	H 	0.81987	0.18593	0.68903	0.12
Mof_C 	C 	0.78277	0.06723	0.69388	0.282
Mof_C 	C 	0.45847	0.77293	0.82013	0.45
Mof_C 	C 	0.70937	0.12123	0.71747	0.155
Mof_H 	H 	0.70877	0.15273	0.72023	-0.008
Mof_C 	C 	0.80377	0.02223	0.68262	0.251
Mof_H 	H 	0.79427	0.00513	0.67753	-0.045
Mof_C 	C 	0.66277	0.15453	0.6862	0.179
Mof_H 	H 	0.62297	0.14623	0.68533	-0.018
Mof_C 	C 	0.73147	0.97683	0.81595	-0.209
Mof_H 	H 	0.69907	0.97783	0.81843	0.108
Mof_C 	C 	0.71977	0.12723	0.70952	-0.24
Mof_H 	H 	0.72197	0.16013	0.70673	0.119
Mof_C 	C 	0.76707	0.04313	0.68605	-0.316
Mof_H 	H 	0.73417	0.04133	0.68333	0.146
Mof_C 	C 	0.51687	0.86323	0.81224	0.257
Mof_H 	H 	0.48407	0.87013	0.81253	-0.045
Mof_C 	C 	0.89487	0.45853	0.75117	0.373
Mof_C 	C 	0.77587	0.95723	0.8045	-0.217
Mof_H 	H 	0.77287	0.94523	0.79913	0.108
Mof_C 	C 	0.78697	0.99323	0.82047	0.12
Mof_H 	H 	0.79187	0.00803	0.82563	-0.001
Mof_O 	O 	0.94167	0.49303	0.75792	-0.356
Mof_C 	C 	0.90757	0.36763	0.75628	0.089
Mof_H 	H 	0.94737	0.39273	0.75803	0.019
Mof_C 	C 	0.87607	0.30383	0.75736	0.008
Mof_H 	H 	0.89107	0.28203	0.76003	0.034
Mof_C 	C 	0.82107	0.27963	0.75384	-0.101
Mof_C 	C 	0.87577	0.38953	0.75247	-0.091
Mof_O 	O 	0.74047	0.28803	0.67423	-0.493
Mof_O 	O 	0.63897	0.21993	0.6746	-0.517
Mof_C 	C 	0.70907	0.20203	0.68222	-0.23
Mof_O 	O 	0.86477	0.46543	0.74618	-0.499
Mof_O 	O 	0.54197	0.04753	0.75179	-0.278
Mof_C 	C 	0.86017	0.30273	0.76197	-0.046
Mof_H 	H 	0.86347	0.27943	0.76603	0.047
Mof_C 	C 	0.89117	0.37363	0.76134	-0.122
Mof_H 	H 	0.91427	0.40173	0.76533	0.076
Mof_Zn	Zn	0.33382	0.32628	0.07826	1.213
Mof_Zn	Zn	0.40259	0.42418	0.09177	1.213
Mof_Zn	Zn	0.26032	0.35132	0.09185	1.212
Mof_Zn	Zn	0.3326	0.45131	0.0781	1.212
Mof_Zn	Zn	0.06454	0.98554	0.16205	1.215
Mof_Zn	Zn	0.4139	0.68649	0.0006	1.217
Mof_O 	O 	0.33184	0.38809	0.08473	-0.957
Mof_O 	O 	0.20743	0.26756	0.08741	-0.498
Mof_O 	O 	0.45859	0.39763	0.08832	-0.52
Mof_O 	O 	0.34303	0.34815	0.06683	-0.509
Mof_O 	O 	0.40773	0.31938	0.08021	-0.523
Mof_O 	O 	0.38893	0.40137	0.10298	-0.521
Mof_O 	O 	0.25958	0.2453	0.07868	-0.51
Mof_O 	O 	0.44973	0.51077	0.0912	-0.502
Mof_O 	O 	0.40363	0.53237	0.08102	-0.49
Mof_O 	O 	0.34813	0.43927	0.06699	-0.51
Mof_C 	C 	0.15813	0.17267	0.0815	-0.232
Mof_O 	O 	0.29173	0.32947	0.10149	-0.524
Mof_C 	C 	0.21243	0.23257	0.08237	0.453
Mof_O 	O 	0.60213	0.34607	0.01921	-0.53
Mof_O 	O 	0.59303	0.32697	0.15125	-0.513
Mof_O 	O 	0.54413	0.31947	0.0087	-0.554
Mof_O 	O 	0.55273	0.34497	0.1622	-0.507
Mof_O 	O 	0.12283	0.05397	0.15573	-0.495
Mof_C 	C 	0.45383	0.35447	0.08381	0.472
Mof_C 	C 	0.50893	0.34817	0.08311	-0.271
Mof_C 	C 	0.10513	0.15797	0.08558	0.162
Mof_H 	H 	0.10413	0.18557	0.08917	-0.012
Mof_O 	O 	0.08493	0.11837	0.1555	-0.538
Mof_C 	C 	0.35143	0.39577	0.0636	0.435
Mof_S 	S 	0.48084	0.66661	0.08182	0.08
Mof_C 	C 	0.05193	0.05807	0.07937	0.223
Mof_C 	C 	0.61383	0.33957	0.08176	0.262
Mof_C 	C 	0.33753	0.33667	0.11382	-0.215
Mof_N 	N 	0.41193	0.42327	0.03032	-0.21
Mof_C 	C 	0.15583	0.12937	0.07634	0.163
Mof_H 	H 	0.19073	0.13887	0.07337	-0.01
Mof_C 	C 	0.61303	0.38257	0.08628	-0.308
Mof_H 	H 	0.64813	0.40997	0.08907	0.14
Mof_C 	C 	0.05253	0.10087	0.08427	-0.261
Mof_H 	H 	0.01673	0.09227	0.08687	0.126
Mof_C 	C 	0.56093	0.38757	0.08695	0.212
Mof_H 	H 	0.56183	0.41837	0.09007	-0.028
Mof_N 	N 	0.33823	0.27547	0.13727	-0.218
Mof_C 	C 	0.33933	0.29757	0.12953	0.209
Mof_C 	C 	0.10443	0.07227	0.07526	-0.256
Mof_H 	H 	0.10563	0.04397	0.07177	0.124
Mof_C 	C 	0.50933	0.30427	0.07841	0.215
Mof_H 	H 	0.47453	0.27707	0.07557	-0.03
Mof_C 	C 	0.36953	0.35797	0.05076	0.142
Mof_H 	H 	0.36103	0.32237	0.05347	-0.002
Mof_C 	C 	0.56143	0.30057	0.0779	-0.309
Mof_H 	H 	0.56093	0.26997	0.07477	0.141
Mof_C 	C 	0.55213	0.33087	0.15464	0.421
Mof_C 	C 	0.38613	0.37027	0.11912	0.144
Mof_H 	H 	0.41993	0.40617	0.11737	-0.006
Mof_C 	C 	0.36613	0.40347	0.05497	-0.213
Mof_C 	C 	0.17673	0.14727	0.14903	-0.304
Mof_C 	C 	0.28373	0.23067	0.14101	0.273
Mof_C 	C 	0.34103	0.35817	0.10551	0.433
Mof_C 	C 	0.38473	0.36327	0.04284	-0.228
Mof_H 	H 	0.38883	0.33317	0.04017	0.114
Mof_C 	C 	0.51883	0.35917	0.01979	-0.354
Mof_C 	C 	0.38503	0.35137	0.12696	-0.25
Mof_H 	H 	0.41633	0.37637	0.13047	0.12
Mof_C 	C 	0.49853	0.31937	0.15016	-0.195
Mof_C 	C 	0.49463	0.30537	0.142	0.124
Mof_H 	H 	0.52753	0.30617	0.13937	0.002
Mof_C 	C 	0.39793	0.46167	0.02548	0.205
Mof_C 	C 	0.39393	0.41637	0.03884	0.184
Mof_C 	C 	0.55743	0.34237	0.01564	0.52
Mof_C 	C 	0.44173	0.54627	0.08641	0.376
Mof_C 	C 	0.36083	0.57137	0.01004	0.412
Mof_C 	C 	0.39313	0.29317	0.14141	0.178
Mof_C 	C 	0.53023	0.38217	0.02736	0.301
Mof_H 	H 	0.56263	0.38347	0.03017	-0.058
Mof_C 	C 	0.28903	0.26207	0.12429	-0.243
Mof_H 	H 	0.25583	0.22587	0.12607	0.118
Mof_C 	C 	0.29043	0.28207	0.11666	0.152
Mof_H 	H 	0.25833	0.25787	0.11327	-0.012
Mof_C 	C 	0.27933	0.18037	0.14414	-0.308
Mof_H 	H 	0.31193	0.17337	0.14367	0.141
Mof_C 	C 	0.22613	0.13707	0.14824	0.205
Mof_H 	H 	0.22403	0.10227	0.15037	-0.026
Mof_C 	C 	0.33963	0.45307	0.0246	-0.267
Mof_H 	H 	0.30753	0.42307	0.02757	0.126
Mof_C 	C 	0.23523	0.23927	0.1416	-0.338
Mof_H 	H 	0.23663	0.27357	0.13937	0.15
Mof_C 	C 	0.43353	0.54617	0.01655	0.162
Mof_H 	H 	0.46523	0.57827	0.01377	-0.011
Mof_C 	C 	0.49673	0.40297	0.03095	-0.387
Mof_H 	H 	0.50683	0.41917	0.03607	0.169
Mof_C 	C 	0.44663	0.51077	0.0216	-0.246
Mof_H 	H 	0.48653	0.51927	0.02237	0.12
Mof_C 	C 	0.44943	0.40057	0.02722	0.282
Mof_C 	C 	0.12513	0.10627	0.15347	0.45
Mof_C 	C 	0.37603	0.45457	0.05081	0.156
Mof_H 	H 	0.37543	0.48607	0.05357	-0.008
Mof_C 	C 	0.47043	0.35557	0.01596	0.252
Mof_H 	H 	0.46093	0.33847	0.01087	-0.045
Mof_C 	C 	0.32943	0.48787	0.01954	0.179
Mof_H 	H 	0.28963	0.47957	0.01867	-0.018
Mof_C 	C 	0.39813	0.31017	0.14929	-0.203
Mof_H 	H 	0.36573	0.31117	0.15177	0.105
Mof_C 	C 	0.38643	0.46057	0.04286	-0.24
Mof_H 	H 	0.38863	0.49347	0.04007	0.119
Mof_C 	C 	0.43373	0.37647	0.01939	-0.316
Mof_H 	H 	0.40083	0.37467	0.01667	0.146
Mof_C 	C 	0.18353	0.19657	0.14558	0.256
Mof_H 	H 	0.15073	0.20347	0.14587	-0.046
Mof_C 	C 	0.56153	0.79187	0.08451	0.374
Mof_C 	C 	0.44253	0.29057	0.13784	-0.213
Mof_H 	H 	0.43953	0.27857	0.13247	0.106
Mof_C 	C 	0.45363	0.32657	0.15381	0.108
Mof_H 	H 	0.45853	0.34137	0.15897	0.006
Mof_O 	O 	0.60833	0.82637	0.09126	-0.356
Mof_C 	C 	0.57423	0.70097	0.08962	0.089
Mof_H 	H 	0.61403	0.72607	0.09137	0.019
Mof_C 	C 	0.54273	0.63717	0.0907	0.008
Mof_H 	H 	0.55773	0.61537	0.09337	0.034
Mof_C 	C 	0.48773	0.61297	0.08718	-0.1
Mof_C 	C 	0.54243	0.72287	0.08581	-0.091
Mof_O 	O 	0.40713	0.62137	0.00757	-0.492
Mof_O 	O 	0.30563	0.55327	0.00794	-0.516
Mof_C 	C 	0.37573	0.53537	0.01556	-0.23
Mof_O 	O 	0.53143	0.79877	0.07952	-0.499
Mof_O 	O 	0.20863	0.38087	0.08513	-0.277
Mof_C 	C 	0.52683	0.63607	0.09531	-0.046
Mof_H 	H 	0.53013	0.61277	0.09937	0.047
Mof_C 	C 	0.55783	0.70697	0.09468	-0.122
Mof_H 	H 	0.58093	0.73507	0.09867	0.076
Mof_Zn	Zn	0.34039	0.34088	0.41159	1.213
Mof_Zn	Zn	0.24249	0.31175	0.42511	1.213
Mof_Zn	Zn	0.31535	0.24234	0.42518	1.212
Mof_Zn	Zn	0.21536	0.21463	0.41143	1.212
Mof_Zn	Zn	0.68113	0.41234	0.49539	1.216
Mof_Zn	Zn	0.98018	0.06075	0.33393	1.217
Mof_O 	O 	0.27858	0.27709	0.41806	-0.957
Mof_O 	O 	0.39911	0.27321	0.42074	-0.498
Mof_O 	O 	0.26904	0.3943	0.42165	-0.52
Mof_O 	O 	0.31852	0.32822	0.40016	-0.51
Mof_O 	O 	0.34729	0.42169	0.41354	-0.523
Mof_O 	O 	0.2653	0.3209	0.43631	-0.521
Mof_O 	O 	0.42137	0.34762	0.41201	-0.51
Mof_O 	O 	0.1559	0.2723	0.42453	-0.502
Mof_O 	O 	0.1343	0.2046	0.41435	-0.49
Mof_O 	O 	0.2274	0.2422	0.40032	-0.51
Mof_C 	C 	0.494	0.3188	0.41483	-0.233
Mof_O 	O 	0.3372	0.2956	0.43482	-0.524
Mof_C 	C 	0.4341	0.3132	0.4157	0.453
Mof_O 	O 	0.3206	0.5894	0.35254	-0.53
Mof_O 	O 	0.3397	0.5994	0.48458	-0.514
Mof_O 	O 	0.3472	0.558	0.34203	-0.554
Mof_O 	O 	0.3217	0.5411	0.49553	-0.507
Mof_O 	O 	0.6127	0.4022	0.48906	-0.496
Mof_C 	C 	0.3122	0.4327	0.41714	0.472
Mof_C 	C 	0.3185	0.4941	0.41644	-0.271
Mof_C 	C 	0.5087	0.2805	0.41891	0.162
Mof_H 	H 	0.4811	0.2519	0.4225	-0.012
Mof_O 	O 	0.5483	0.2999	0.48883	-0.537
Mof_C 	C 	0.2709	0.289	0.39693	0.435
Mof_S 	S 	6e-05	0.14757	0.41516	0.08
Mof_C 	C 	0.6086	0.3272	0.4127	0.223
Mof_C 	C 	0.3271	0.6076	0.41509	0.262
Mof_C 	C 	0.33	0.3342	0.44715	-0.215
Mof_N 	N 	0.2434	0.322	0.36365	-0.21
Mof_C 	C 	0.5373	0.3598	0.40967	0.163
Mof_H 	H 	0.5278	0.3852	0.4067	-0.01
Mof_C 	C 	0.2841	0.5638	0.41961	-0.308
Mof_H 	H 	0.2567	0.5715	0.4224	0.14
Mof_C 	C 	0.5658	0.285	0.4176	-0.261
Mof_H 	H 	0.5744	0.2578	0.4202	0.126
Mof_C 	C 	0.2791	0.5067	0.42028	0.212
Mof_H 	H 	0.2483	0.4768	0.4234	-0.028
Mof_N 	N 	0.3912	0.3961	0.4706	-0.218
Mof_C 	C 	0.3691	0.3751	0.46286	0.209
Mof_C 	C 	0.5944	0.3655	0.40859	-0.256
Mof_H 	H 	0.6227	0.395	0.4051	0.123
Mof_C 	C 	0.3624	0.5384	0.41174	0.215
Mof_H 	H 	0.3896	0.5308	0.4089	-0.03
Mof_C 	C 	0.3087	0.3449	0.38409	0.142
Mof_H 	H 	0.3443	0.372	0.3868	-0.002
Mof_C 	C 	0.3661	0.5942	0.41123	-0.309
Mof_H 	H 	0.3967	0.6243	0.4081	0.141
Mof_C 	C 	0.3358	0.5546	0.48797	0.421
Mof_C 	C 	0.2964	0.3492	0.45245	0.144
Mof_H 	H 	0.2605	0.3471	0.4507	-0.006
Mof_C 	C 	0.2632	0.296	0.3883	-0.213
Mof_C 	C 	0.5194	0.3628	0.48236	-0.305
Mof_C 	C 	0.436	0.3864	0.47434	0.273
Mof_C 	C 	0.3085	0.3162	0.43884	0.433
Mof_C 	C 	0.3034	0.3548	0.37617	-0.228
Mof_H 	H 	0.3335	0.389	0.3735	0.114
Mof_C 	C 	0.3075	0.493	0.35312	-0.354
Mof_C 	C 	0.3153	0.367	0.46029	-0.25
Mof_H 	H 	0.2903	0.3733	0.4638	0.12
Mof_C 	C 	0.3473	0.5125	0.48349	-0.195
Mof_C 	C 	0.3613	0.5226	0.47533	0.124
Mof_H 	H 	0.3605	0.5547	0.4727	0.002
Mof_C 	C 	0.205	0.2696	0.35881	0.205
Mof_C 	C 	0.2503	0.3109	0.37217	0.184
Mof_C 	C 	0.3243	0.5484	0.34897	0.521
Mof_C 	C 	0.1204	0.2288	0.41974	0.376
Mof_C 	C 	0.0953	0.1228	0.34337	0.412
Mof_C 	C 	0.3735	0.4333	0.47474	0.178
Mof_C 	C 	0.2845	0.4814	0.36069	0.302
Mof_H 	H 	0.2832	0.5125	0.3635	-0.059
Mof_C 	C 	0.4046	0.3603	0.45762	-0.243
Mof_H 	H 	0.4408	0.3633	0.4594	0.118
Mof_C 	C 	0.3846	0.3417	0.44999	0.152
Mof_H 	H 	0.4088	0.3338	0.4466	-0.012
Mof_C 	C 	0.4863	0.4323	0.47747	-0.309
Mof_H 	H 	0.4933	0.4719	0.477	0.141
Mof_C 	C 	0.5296	0.4224	0.48157	0.205
Mof_H 	H 	0.5644	0.4551	0.4837	-0.027
Mof_C 	C 	0.2136	0.2199	0.35793	-0.267
Mof_H 	H 	0.2436	0.2178	0.3609	0.126
Mof_C 	C 	0.4274	0.3293	0.47493	-0.338
Mof_H 	H 	0.3931	0.2964	0.4727	0.15
Mof_C 	C 	0.1205	0.2207	0.34988	0.162
Mof_H 	H 	0.0884	0.2203	0.3471	-0.011
Mof_C 	C 	0.2637	0.4271	0.36428	-0.388
Mof_H 	H 	0.2475	0.421	0.3694	0.169
Mof_C 	C 	0.1559	0.2692	0.35493	-0.246
Mof_H 	H 	0.1474	0.3006	0.3557	0.12
Mof_C 	C 	0.2661	0.3822	0.36055	0.282
Mof_C 	C 	0.5604	0.3522	0.4868	0.45
Mof_C 	C 	0.2121	0.2548	0.38414	0.156
Mof_H 	H 	0.1806	0.2227	0.3869	-0.008
Mof_C 	C 	0.3111	0.4482	0.34929	0.252
Mof_H 	H 	0.3282	0.4558	0.3442	-0.045
Mof_C 	C 	0.1788	0.1749	0.35287	0.179
Mof_H 	H 	0.1871	0.1434	0.352	-0.018
Mof_C 	C 	0.3565	0.4213	0.48262	-0.203
Mof_H 	H 	0.3555	0.3879	0.4851	0.105
Mof_C 	C 	0.2061	0.2592	0.37619	-0.24
Mof_H 	H 	0.1732	0.2285	0.3734	0.119
Mof_C 	C 	0.2902	0.3906	0.35272	-0.317
Mof_H 	H 	0.292	0.3595	0.35	0.146
Mof_C 	C 	0.4701	0.3203	0.47891	0.256
Mof_H 	H 	0.4632	0.2806	0.4792	-0.045
Mof_C 	C 	0.8748	0.103	0.41784	0.373
Mof_C 	C 	0.3761	0.4853	0.47117	-0.213
Mof_H 	H 	0.3881	0.4943	0.4658	0.106
Mof_C 	C 	0.3401	0.4604	0.48714	0.109
Mof_H 	H 	0.3253	0.4505	0.4923	0.006
Mof_O 	O 	0.8403	0.1153	0.42459	-0.356
Mof_C 	C 	0.9657	0.2066	0.42295	0.089
Mof_H 	H 	0.9406	0.2213	0.4247	0.019
Mof_C 	C 	0.0295	0.2389	0.42403	0.008
Mof_H 	H 	0.0513	0.2757	0.4267	0.034
Mof_C 	C 	0.0537	0.2081	0.42051	-0.1
Mof_C 	C 	0.9438	0.1529	0.41914	-0.091
Mof_O 	O 	0.0453	0.1191	0.3409	-0.493
Mof_O 	O 	0.1134	0.0857	0.34127	-0.517
Mof_C 	C 	0.1313	0.1737	0.34889	-0.23
Mof_O 	O 	0.8679	0.066	0.41285	-0.499
Mof_O 	O 	0.2858	0.1611	0.41846	-0.278
Mof_C 	C 	0.0306	0.2241	0.42864	-0.046
Mof_H 	H 	0.0539	0.2507	0.4327	0.047
Mof_C 	C 	0.9597	0.1842	0.42801	-0.121
Mof_H 	H 	0.9316	0.1792	0.432	0.076
Mof_Zn	Zn	0.00706	0.67421	0.74492	1.213
Mof_Zn	Zn	0.90916	0.64508	0.75844	1.213
Mof_Zn	Zn	0.98202	0.57567	0.75852	1.212
Mof_Zn	Zn	0.88203	0.54796	0.74477	1.212
Mof_Zn	Zn	0.3478	0.74567	0.82872	1.216
Mof_Zn	Zn	0.64685	0.39408	0.66727	1.217
Mof_O 	O 	0.94525	0.61042	0.7514	-0.958
Mof_O 	O 	0.06578	0.60654	0.75407	-0.497
Mof_O 	O 	0.93571	0.72763	0.75498	-0.52
Mof_O 	O 	0.98519	0.66155	0.73349	-0.51
Mof_O 	O 	0.01396	0.75502	0.74687	-0.521
Mof_O 	O 	0.93197	0.65423	0.76964	-0.521
Mof_O 	O 	0.08804	0.68095	0.74534	-0.509
Mof_O 	O 	0.82257	0.60563	0.75786	-0.502
Mof_O 	O 	0.80097	0.53793	0.74768	-0.49
Mof_O 	O 	0.89407	0.57553	0.73365	-0.509
Mof_C 	C 	0.16067	0.65213	0.74816	-0.232
Mof_O 	O 	0.00387	0.62893	0.76815	-0.522
Mof_C 	C 	0.10077	0.64653	0.74903	0.453
Mof_O 	O 	0.98727	0.92273	0.68587	-0.529
Mof_O 	O 	0.00637	0.93273	0.81791	-0.513
Mof_O 	O 	0.01387	0.89133	0.67536	-0.555
Mof_O 	O 	0.98837	0.87443	0.82886	-0.51
Mof_O 	O 	0.27937	0.73553	0.82239	-0.495
Mof_C 	C 	0.97887	0.76603	0.75047	0.471
Mof_C 	C 	0.98517	0.82743	0.74977	-0.273
Mof_C 	C 	0.17537	0.61383	0.75224	0.162
Mof_H 	H 	0.14777	0.58523	0.75583	-0.012
Mof_O 	O 	0.21497	0.63323	0.82216	-0.537
Mof_C 	C 	0.93757	0.62233	0.73026	0.435
Mof_S 	S 	0.66673	0.4809	0.74849	0.08
Mof_C 	C 	0.27527	0.66053	0.74603	0.223
Mof_C 	C 	0.99377	0.94093	0.74842	0.262
Mof_C 	C 	0.99667	0.66753	0.78048	-0.221
Mof_N 	N 	0.91007	0.65533	0.69698	-0.21
Mof_C 	C 	0.20397	0.69313	0.743	0.163
Mof_H 	H 	0.19447	0.71853	0.74003	-0.01
Mof_C 	C 	0.95077	0.89713	0.75294	-0.309
Mof_H 	H 	0.92337	0.90483	0.75573	0.141
Mof_C 	C 	0.23247	0.61833	0.75093	-0.261
Mof_H 	H 	0.24107	0.59113	0.75353	0.126
Mof_C 	C 	0.94577	0.84003	0.75361	0.213
Mof_H 	H 	0.91497	0.81013	0.75673	-0.028
Mof_N 	N 	0.05787	0.72943	0.80393	-0.22
Mof_C 	C 	0.03577	0.70843	0.79619	0.216
Mof_C 	C 	0.26107	0.69883	0.74192	-0.256
Mof_H 	H 	0.28937	0.72833	0.73843	0.123
Mof_C 	C 	0.02907	0.87173	0.74507	0.217
Mof_H 	H 	0.05627	0.86413	0.74223	-0.03
Mof_C 	C 	0.97537	0.67823	0.71742	0.141
Mof_H 	H 	0.01097	0.70533	0.72013	-0.001
Mof_C 	C 	0.03277	0.92753	0.74456	-0.308
Mof_H 	H 	0.06337	0.95763	0.74143	0.142
Mof_C 	C 	0.00247	0.88793	0.8213	0.427
Mof_C 	C 	0.96307	0.68253	0.78578	0.149
Mof_H 	H 	0.92717	0.68043	0.78403	-0.008
Mof_C 	C 	0.92987	0.62933	0.72163	-0.212
Mof_C 	C 	0.18607	0.69613	0.81569	-0.305
Mof_C 	C 	0.10267	0.71973	0.80767	0.274
Mof_C 	C 	0.97517	0.64953	0.77217	0.433
Mof_C 	C 	0.97007	0.68813	0.7095	-0.228
Mof_H 	H 	0.00017	0.72233	0.70683	0.114
Mof_C 	C 	0.97417	0.82633	0.68645	-0.354
Mof_C 	C 	0.98197	0.70033	0.79362	-0.259
Mof_H 	H 	0.95697	0.70663	0.79713	0.122
Mof_C 	C 	0.01397	0.84583	0.81682	-0.2
Mof_C 	C 	0.02797	0.85593	0.80866	0.129
Mof_H 	H 	0.02717	0.88803	0.80603	0.001
Mof_C 	C 	0.87167	0.60293	0.69214	0.205
Mof_C 	C 	0.91697	0.64423	0.7055	0.183
Mof_C 	C 	0.99097	0.88173	0.6823	0.521
Mof_C 	C 	0.78707	0.56213	0.75307	0.377
Mof_C 	C 	0.76197	0.45613	0.6767	0.412
Mof_C 	C 	0.04017	0.76663	0.80807	0.182
Mof_C 	C 	0.95117	0.81473	0.69402	0.302
Mof_H 	H 	0.94987	0.84583	0.69683	-0.058
Mof_C 	C 	0.07127	0.69363	0.79095	-0.249
Mof_H 	H 	0.10747	0.69663	0.79273	0.121
Mof_C 	C 	0.05127	0.67503	0.78332	0.161
Mof_H 	H 	0.07547	0.66713	0.77993	-0.014
Mof_C 	C 	0.15297	0.76563	0.8108	-0.309
Mof_H 	H 	0.15997	0.80523	0.81033	0.142
Mof_C 	C 	0.19627	0.75573	0.8149	0.206
Mof_H 	H 	0.23107	0.78843	0.81703	-0.027
Mof_C 	C 	0.88027	0.55323	0.69126	-0.267
Mof_H 	H 	0.91027	0.55113	0.69423	0.126
Mof_C 	C 	0.09407	0.66263	0.80826	-0.338
Mof_H 	H 	0.05977	0.62973	0.80603	0.15
Mof_C 	C 	0.78717	0.55403	0.68321	0.162
Mof_H 	H 	0.75507	0.55363	0.68043	-0.011
Mof_C 	C 	0.93037	0.76043	0.69761	-0.387
Mof_H 	H 	0.91417	0.75433	0.70273	0.169
Mof_C 	C 	0.82257	0.60253	0.68826	-0.246
Mof_H 	H 	0.81407	0.63393	0.68903	0.12
Mof_C 	C 	0.93277	0.71553	0.69388	0.282
Mof_C 	C 	0.22707	0.68553	0.82013	0.45
Mof_C 	C 	0.87877	0.58813	0.71747	0.156
Mof_H 	H 	0.84727	0.55603	0.72023	-0.007
Mof_C 	C 	0.97777	0.78153	0.68262	0.252
Mof_H 	H 	0.99487	0.78913	0.67753	-0.045
Mof_C 	C 	0.84547	0.50823	0.6862	0.179
Mof_H 	H 	0.85377	0.47673	0.68533	-0.018
Mof_C 	C 	0.02317	0.75463	0.81595	-0.209
Mof_H 	H 	0.02217	0.72123	0.81843	0.108
Mof_C 	C 	0.87277	0.59253	0.70952	-0.24
Mof_H 	H 	0.83987	0.56183	0.70673	0.119
Mof_C 	C 	0.95687	0.72393	0.68605	-0.316
Mof_H 	H 	0.95867	0.69283	0.68333	0.146
Mof_C 	C 	0.13677	0.65363	0.81224	0.257
Mof_H 	H 	0.12987	0.61393	0.81253	-0.045
Mof_C 	C 	0.54147	0.43633	0.75117	0.373
Mof_C 	C 	0.04277	0.81863	0.8045	-0.216
Mof_H 	H 	0.05477	0.82763	0.79913	0.108
Mof_C 	C 	0.00677	0.79373	0.82047	0.119
Mof_H 	H 	0.99197	0.78383	0.82563	-0
Mof_O 	O 	0.50697	0.44863	0.75792	-0.356
Mof_C 	C 	0.63237	0.53993	0.75628	0.089
Mof_H 	H 	0.60727	0.55463	0.75803	0.019
Mof_C 	C 	0.69617	0.57223	0.75736	0.008
Mof_H 	H 	0.71797	0.60903	0.76003	0.034
Mof_C 	C 	0.72037	0.54143	0.75384	-0.1
Mof_C 	C 	0.61047	0.48623	0.75247	-0.091
Mof_O 	O 	0.71197	0.45243	0.67423	-0.493
Mof_O 	O 	0.78007	0.41903	0.6746	-0.517
Mof_C 	C 	0.79797	0.50703	0.68222	-0.23
Mof_O 	O 	0.53457	0.39933	0.74618	-0.499
Mof_O 	O 	0.95247	0.49443	0.75179	-0.277
Mof_C 	C 	0.69727	0.55743	0.76197	-0.046
Mof_H 	H 	0.72057	0.58403	0.76603	0.047
Mof_C 	C 	0.62637	0.51753	0.76134	-0.122
Mof_H 	H 	0.59827	0.51253	0.76533	0.076
Mof_Zn	Zn	0.67372	0.00755	0.07826	1.214
Mof_Zn	Zn	0.57582	0.97842	0.09177	1.212
Mof_Zn	Zn	0.64868	0.90901	0.09185	1.212
Mof_Zn	Zn	0.54869	0.8813	0.0781	1.212
Mof_Zn	Zn	0.01446	0.07901	0.16205	1.215
Mof_Zn	Zn	0.31351	0.72742	0.0006	1.217
Mof_O 	O 	0.61191	0.94376	0.08473	-0.958
Mof_O 	O 	0.73244	0.93988	0.08741	-0.497
Mof_O 	O 	0.60237	0.06097	0.08832	-0.519
Mof_O 	O 	0.65185	0.99489	0.06683	-0.512
Mof_O 	O 	0.68062	0.08836	0.08021	-0.522
Mof_O 	O 	0.59863	0.98757	0.10298	-0.521
Mof_O 	O 	0.7547	0.01429	0.07868	-0.506
Mof_O 	O 	0.48923	0.93897	0.0912	-0.503
Mof_O 	O 	0.46763	0.87127	0.08102	-0.491
Mof_O 	O 	0.56073	0.90887	0.06699	-0.51
Mof_C 	C 	0.82733	0.98547	0.0815	-0.234
Mof_O 	O 	0.67053	0.96227	0.10149	-0.524
Mof_C 	C 	0.76743	0.97987	0.08237	0.45
Mof_O 	O 	0.65393	0.25607	0.01921	-0.53
Mof_O 	O 	0.67303	0.26607	0.15125	-0.514
Mof_O 	O 	0.68053	0.22467	0.0087	-0.555
Mof_O 	O 	0.65503	0.20777	0.1622	-0.507
Mof_O 	O 	0.94603	0.06887	0.15573	-0.494
Mof_C 	C 	0.64553	0.09937	0.08381	0.472
Mof_C 	C 	0.65183	0.16077	0.08311	-0.27
Mof_C 	C 	0.84203	0.94717	0.08558	0.161
Mof_H 	H 	0.81443	0.91857	0.08917	-0.011
Mof_O 	O 	0.88163	0.96657	0.1555	-0.541
Mof_C 	C 	0.60423	0.95567	0.0636	0.436
Mof_S 	S 	0.33339	0.81424	0.08182	0.08
Mof_C 	C 	0.94193	0.99387	0.07937	0.217
Mof_C 	C 	0.66043	0.27427	0.08176	0.262
Mof_C 	C 	0.66333	0.00087	0.11382	-0.209
Mof_N 	N 	0.57673	0.98867	0.03032	-0.211
Mof_C 	C 	0.87063	0.02647	0.07634	0.165
Mof_H 	H 	0.86113	0.05187	0.07337	-0.01
Mof_C 	C 	0.61743	0.23047	0.08628	-0.308
Mof_H 	H 	0.59003	0.23817	0.08907	0.14
Mof_C 	C 	0.89913	0.95167	0.08427	-0.259
Mof_H 	H 	0.90773	0.92447	0.08687	0.125
Mof_C 	C 	0.61243	0.17337	0.08695	0.212
Mof_H 	H 	0.58163	0.14347	0.09007	-0.027
Mof_N 	N 	0.72453	0.06277	0.13727	-0.218
Mof_C 	C 	0.70243	0.04177	0.12953	0.208
Mof_C 	C 	0.92773	0.03217	0.07526	-0.251
Mof_H 	H 	0.95603	0.06167	0.07177	0.122
Mof_C 	C 	0.69573	0.20507	0.07841	0.215
Mof_H 	H 	0.72293	0.19747	0.07557	-0.03
Mof_C 	C 	0.64203	0.01157	0.05076	0.146
Mof_H 	H 	0.67763	0.03867	0.05347	-0.002
Mof_C 	C 	0.69943	0.26087	0.0779	-0.309
Mof_H 	H 	0.73003	0.29097	0.07477	0.141
Mof_C 	C 	0.66913	0.22127	0.15464	0.421
Mof_C 	C 	0.62973	0.01587	0.11912	0.141
Mof_H 	H 	0.59383	0.01377	0.11737	-0.004
Mof_C 	C 	0.59653	0.96267	0.05497	-0.217
Mof_C 	C 	0.85273	0.02947	0.14903	-0.301
Mof_C 	C 	0.76933	0.05307	0.14101	0.277
Mof_C 	C 	0.64183	0.98287	0.10551	0.428
Mof_C 	C 	0.63673	0.02147	0.04284	-0.227
Mof_H 	H 	0.66683	0.05567	0.04017	0.114
Mof_C 	C 	0.64083	0.15967	0.01979	-0.355
Mof_C 	C 	0.64863	0.03367	0.12696	-0.247
Mof_H 	H 	0.62363	0.03997	0.13047	0.12
Mof_C 	C 	0.68063	0.17917	0.15016	-0.195
Mof_C 	C 	0.69463	0.18927	0.142	0.124
Mof_H 	H 	0.69383	0.22137	0.13937	0.002
Mof_C 	C 	0.53833	0.93627	0.02548	0.205
Mof_C 	C 	0.58363	0.97757	0.03884	0.182
Mof_C 	C 	0.65763	0.21507	0.01564	0.521
Mof_C 	C 	0.45373	0.89547	0.08641	0.376
Mof_C 	C 	0.42863	0.78947	0.01004	0.412
Mof_C 	C 	0.70683	0.09997	0.14141	0.179
Mof_C 	C 	0.61783	0.14807	0.02736	0.304
Mof_H 	H 	0.61653	0.17917	0.03017	-0.059
Mof_C 	C 	0.73793	0.02697	0.12429	-0.24
Mof_H 	H 	0.77413	0.02997	0.12607	0.118
Mof_C 	C 	0.71793	0.00837	0.11666	0.149
Mof_H 	H 	0.74213	0.00047	0.11327	-0.009
Mof_C 	C 	0.81963	0.09897	0.14414	-0.31
Mof_H 	H 	0.82663	0.13857	0.14367	0.142
Mof_C 	C 	0.86293	0.08907	0.14824	0.206
Mof_H 	H 	0.89773	0.12177	0.15037	-0.026
Mof_C 	C 	0.54693	0.88657	0.0246	-0.267
Mof_H 	H 	0.57693	0.88447	0.02757	0.126
Mof_C 	C 	0.76073	0.99597	0.1416	-0.342
Mof_H 	H 	0.72643	0.96307	0.13937	0.15
Mof_C 	C 	0.45383	0.88737	0.01655	0.162
Mof_H 	H 	0.42173	0.88697	0.01377	-0.011
Mof_C 	C 	0.59703	0.09377	0.03095	-0.39
Mof_H 	H 	0.58083	0.08767	0.03607	0.17
Mof_C 	C 	0.48923	0.93587	0.0216	-0.246
Mof_H 	H 	0.48073	0.96727	0.02237	0.12
Mof_C 	C 	0.59943	0.04887	0.02722	0.285
Mof_C 	C 	0.89373	0.01887	0.15347	0.453
Mof_C 	C 	0.54543	0.92147	0.05081	0.157
Mof_H 	H 	0.51393	0.88937	0.05357	-0.008
Mof_C 	C 	0.64443	0.11487	0.01596	0.253
Mof_H 	H 	0.66153	0.12247	0.01087	-0.045
Mof_C 	C 	0.51213	0.84157	0.01954	0.178
Mof_H 	H 	0.52043	0.81007	0.01867	-0.018
Mof_C 	C 	0.68983	0.08797	0.14929	-0.203
Mof_H 	H 	0.68883	0.05457	0.15177	0.106
Mof_C 	C 	0.53943	0.92587	0.04286	-0.24
Mof_H 	H 	0.50653	0.89517	0.04007	0.12
Mof_C 	C 	0.62353	0.05727	0.01939	-0.318
Mof_H 	H 	0.62533	0.02617	0.01667	0.147
Mof_C 	C 	0.80343	0.98697	0.14558	0.252
Mof_H 	H 	0.79653	0.94727	0.14587	-0.045
Mof_C 	C 	0.20813	0.76967	0.08451	0.373
Mof_C 	C 	0.70943	0.15197	0.13784	-0.213
Mof_H 	H 	0.72143	0.16097	0.13247	0.106
Mof_C 	C 	0.67343	0.12707	0.15381	0.109
Mof_H 	H 	0.65863	0.11717	0.15897	0.006
Mof_O 	O 	0.17363	0.78197	0.09126	-0.356
Mof_C 	C 	0.29903	0.87327	0.08962	0.089
Mof_H 	H 	0.27393	0.88797	0.09137	0.019
Mof_C 	C 	0.36283	0.90557	0.0907	0.008
Mof_H 	H 	0.38463	0.94237	0.09337	0.034
Mof_C 	C 	0.38703	0.87477	0.08718	-0.101
Mof_C 	C 	0.27713	0.81957	0.08581	-0.091
Mof_O 	O 	0.37863	0.78577	0.00757	-0.492
Mof_O 	O 	0.44673	0.75237	0.00794	-0.517
Mof_C 	C 	0.46463	0.84037	0.01556	-0.23
Mof_O 	O 	0.20123	0.73267	0.07952	-0.499
Mof_O 	O 	0.61913	0.82777	0.08513	-0.278
Mof_C 	C 	0.36393	0.89077	0.09531	-0.046
Mof_H 	H 	0.38723	0.91737	0.09937	0.046
Mof_C 	C 	0.29303	0.85087	0.09468	-0.121
Mof_H 	H 	0.26493	0.84587	0.09867	0.075
Mof_Zn	Zn	0.34088	0.00049	0.58841	1.213
Mof_Zn	Zn	0.31175	0.06926	0.57489	1.213
Mof_Zn	Zn	0.24234	0.92699	0.57482	1.212
Mof_Zn	Zn	0.21463	0.99927	0.58857	1.212
Mof_Zn	Zn	0.41234	0.73121	0.50461	1.216
Mof_Zn	Zn	0.06075	0.08057	0.66607	1.217
Mof_O 	O 	0.27709	0.99851	0.58194	-0.957
Mof_O 	O 	0.27321	0.8741	0.57926	-0.498
Mof_O 	O 	0.3943	0.12526	0.57835	-0.52
Mof_O 	O 	0.32822	0.0097	0.59984	-0.51
Mof_O 	O 	0.42169	0.0744	0.58646	-0.523
Mof_O 	O 	0.3209	0.0556	0.56369	-0.521
Mof_O 	O 	0.34762	0.92625	0.58799	-0.51
Mof_O 	O 	0.2723	0.1164	0.57547	-0.502
Mof_O 	O 	0.2046	0.0703	0.58565	-0.49
Mof_O 	O 	0.2422	0.0148	0.59968	-0.51
Mof_C 	C 	0.3188	0.8248	0.58517	-0.232
Mof_O 	O 	0.2956	0.9584	0.56518	-0.523
Mof_C 	C 	0.3132	0.8791	0.5843	0.453
Mof_O 	O 	0.5894	0.2688	0.64746	-0.53
Mof_O 	O 	0.5994	0.2597	0.51542	-0.514
Mof_O 	O 	0.558	0.2108	0.65797	-0.555
Mof_O 	O 	0.5411	0.2194	0.50447	-0.507
Mof_O 	O 	0.4022	0.7895	0.51094	-0.496
Mof_C 	C 	0.4327	0.1205	0.58286	0.472
Mof_C 	C 	0.4941	0.1756	0.58356	-0.271
Mof_C 	C 	0.2805	0.7718	0.58109	0.162
Mof_H 	H 	0.2519	0.7708	0.5775	-0.012
Mof_O 	O 	0.2999	0.7516	0.51117	-0.537
Mof_C 	C 	0.289	0.0181	0.60307	0.435
Mof_S 	S 	0.14757	0.14751	0.58484	0.08
Mof_C 	C 	0.3272	0.7186	0.5873	0.223
Mof_C 	C 	0.6076	0.2805	0.58491	0.262
Mof_C 	C 	0.3342	0.0042	0.55285	-0.215
Mof_N 	N 	0.322	0.0786	0.63635	-0.21
Mof_C 	C 	0.3598	0.8225	0.59033	0.163
Mof_H 	H 	0.3852	0.8574	0.5933	-0.01
Mof_C 	C 	0.5638	0.2797	0.58039	-0.308
Mof_H 	H 	0.5715	0.3148	0.5776	0.14
Mof_C 	C 	0.285	0.7192	0.5824	-0.261
Mof_H 	H 	0.2578	0.6834	0.5798	0.126
Mof_C 	C 	0.5067	0.2276	0.57972	0.212
Mof_H 	H 	0.4768	0.2285	0.5766	-0.028
Mof_N 	N 	0.3961	0.0049	0.5294	-0.218
Mof_C 	C 	0.3751	0.006	0.53714	0.208
Mof_C 	C 	0.3655	0.7711	0.59141	-0.256
Mof_H 	H 	0.395	0.7723	0.5949	0.123
Mof_C 	C 	0.5384	0.176	0.58826	0.215
Mof_H 	H 	0.5308	0.1412	0.5911	-0.03
Mof_C 	C 	0.3449	0.0362	0.61591	0.142
Mof_H 	H 	0.372	0.0277	0.6132	-0.002
Mof_C 	C 	0.5942	0.2281	0.58877	-0.309
Mof_H 	H 	0.6243	0.2276	0.5919	0.141
Mof_C 	C 	0.5546	0.2188	0.51203	0.421
Mof_C 	C 	0.3492	0.0528	0.54755	0.144
Mof_H 	H 	0.3471	0.0866	0.5493	-0.006
Mof_C 	C 	0.296	0.0328	0.6117	-0.213
Mof_C 	C 	0.3628	0.8434	0.51764	-0.305
Mof_C 	C 	0.3864	0.9504	0.52566	0.274
Mof_C 	C 	0.3162	0.0077	0.56116	0.433
Mof_C 	C 	0.3548	0.0514	0.62383	-0.228
Mof_H 	H 	0.389	0.0555	0.6265	0.114
Mof_C 	C 	0.493	0.1855	0.64688	-0.354
Mof_C 	C 	0.367	0.0517	0.53971	-0.25
Mof_H 	H 	0.3733	0.083	0.5362	0.12
Mof_C 	C 	0.5125	0.1652	0.51651	-0.195
Mof_C 	C 	0.5226	0.1613	0.52467	0.124
Mof_H 	H 	0.5547	0.1942	0.5273	0.002
Mof_C 	C 	0.2696	0.0646	0.64119	0.208
Mof_C 	C 	0.3109	0.0606	0.62783	0.184
Mof_C 	C 	0.5484	0.2241	0.65103	0.521
Mof_C 	C 	0.2288	0.1084	0.58026	0.377
Mof_C 	C 	0.1228	0.0275	0.65663	0.412
Mof_C 	C 	0.4333	0.0598	0.52526	0.178
Mof_C 	C 	0.4814	0.1969	0.63931	0.302
Mof_H 	H 	0.5125	0.2293	0.6365	-0.059
Mof_C 	C 	0.3603	0.9557	0.54238	-0.242
Mof_H 	H 	0.3633	0.9225	0.5406	0.118
Mof_C 	C 	0.3417	0.9571	0.55001	0.153
Mof_H 	H 	0.3338	0.925	0.5534	-0.012
Mof_C 	C 	0.4323	0.946	0.52253	-0.309
Mof_H 	H 	0.4719	0.9786	0.523	0.142
Mof_C 	C 	0.4224	0.8928	0.51843	0.206
Mof_H 	H 	0.4551	0.8907	0.5163	-0.027
Mof_C 	C 	0.2199	0.0063	0.64207	-0.274
Mof_H 	H 	0.2178	0.9742	0.6391	0.129
Mof_C 	C 	0.3293	0.9019	0.52507	-0.338
Mof_H 	H 	0.2964	0.9033	0.5273	0.15
Mof_C 	C 	0.2207	0.1002	0.65012	0.166
Mof_H 	H 	0.2203	0.1319	0.6529	-0.013
Mof_C 	C 	0.4271	0.1634	0.63572	-0.388
Mof_H 	H 	0.421	0.1735	0.6306	0.169
Mof_C 	C 	0.2692	0.1133	0.64507	-0.249
Mof_H 	H 	0.3006	0.1532	0.6443	0.121
Mof_C 	C 	0.3822	0.1161	0.63945	0.282
Mof_C 	C 	0.3522	0.7918	0.5132	0.45
Mof_C 	C 	0.2548	0.0427	0.61586	0.156
Mof_H 	H 	0.2227	0.0421	0.6131	-0.008
Mof_C 	C 	0.4482	0.1371	0.65071	0.252
Mof_H 	H 	0.4558	0.1276	0.6558	-0.045
Mof_C 	C 	0.1749	0.9961	0.64713	0.186
Mof_H 	H 	0.1434	0.9563	0.648	-0.02
Mof_C 	C 	0.4213	0.0648	0.51738	-0.203
Mof_H 	H 	0.3879	0.0324	0.5149	0.105
Mof_C 	C 	0.2592	0.0531	0.62381	-0.24
Mof_H 	H 	0.2285	0.0553	0.6266	0.119
Mof_C 	C 	0.3906	0.1004	0.64728	-0.317
Mof_H 	H 	0.3595	0.0675	0.65	0.146
Mof_C 	C 	0.3203	0.8502	0.52109	0.256
Mof_H 	H 	0.2806	0.8174	0.5208	-0.045
Mof_C 	C 	0.103	0.2282	0.58216	0.374
Mof_C 	C 	0.4853	0.1092	0.52883	-0.213
Mof_H 	H 	0.4943	0.1062	0.5342	0.106
Mof_C 	C 	0.4604	0.1203	0.51286	0.108
Mof_H 	H 	0.4505	0.1252	0.5077	0.006
Mof_O 	O 	0.1153	0.275	0.57541	-0.356
Mof_C 	C 	0.2066	0.2409	0.57705	0.089
Mof_H 	H 	0.2213	0.2807	0.5753	0.019
Mof_C 	C 	0.2389	0.2094	0.57597	0.008
Mof_H 	H 	0.2757	0.2244	0.5733	0.034
Mof_C 	C 	0.2081	0.1544	0.57949	-0.1
Mof_C 	C 	0.1529	0.2091	0.58086	-0.091
Mof_O 	O 	0.1191	0.0738	0.6591	-0.492
Mof_O 	O 	0.0857	0.9723	0.65873	-0.516
Mof_C 	C 	0.1737	0.0424	0.65111	-0.234
Mof_O 	O 	0.066	0.1981	0.58715	-0.499
Mof_O 	O 	0.1611	0.8753	0.58154	-0.277
Mof_C 	C 	0.2241	0.1935	0.57136	-0.046
Mof_H 	H 	0.2507	0.1968	0.5673	0.047
Mof_C 	C 	0.1842	0.2245	0.57199	-0.122
Mof_H 	H 	0.1792	0.2476	0.568	0.076
Mof_Zn	Zn	0.00755	0.33382	0.92174	1.214
Mof_Zn	Zn	0.97842	0.40259	0.90823	1.212
Mof_Zn	Zn	0.90901	0.26032	0.90815	1.212
Mof_Zn	Zn	0.8813	0.3326	0.9219	1.212
Mof_Zn	Zn	0.07901	0.06454	0.83795	1.216
Mof_Zn	Zn	0.72742	0.4139	0.9994	1.217
Mof_O 	O 	0.94376	0.33184	0.91527	-0.958
Mof_O 	O 	0.93988	0.20743	0.91259	-0.497
Mof_O 	O 	0.06097	0.45859	0.91168	-0.519
Mof_O 	O 	0.99489	0.34303	0.93317	-0.512
Mof_O 	O 	0.08836	0.40773	0.91979	-0.522
Mof_O 	O 	0.98757	0.38893	0.89702	-0.521
Mof_O 	O 	0.01429	0.25958	0.92132	-0.506
Mof_O 	O 	0.93897	0.44973	0.9088	-0.503
Mof_O 	O 	0.87127	0.40363	0.91898	-0.491
Mof_O 	O 	0.90887	0.34813	0.93301	-0.51
Mof_C 	C 	0.98547	0.15813	0.9185	-0.233
Mof_O 	O 	0.96227	0.29173	0.89851	-0.524
Mof_C 	C 	0.97987	0.21243	0.91763	0.449
Mof_O 	O 	0.25607	0.60213	0.98079	-0.53
Mof_O 	O 	0.26607	0.59303	0.84875	-0.514
Mof_O 	O 	0.22467	0.54413	0.9913	-0.555
Mof_O 	O 	0.20777	0.55273	0.8378	-0.507
Mof_O 	O 	0.06887	0.12283	0.84427	-0.496
Mof_C 	C 	0.09937	0.45383	0.91619	0.472
Mof_C 	C 	0.16077	0.50893	0.91689	-0.27
Mof_C 	C 	0.94717	0.10513	0.91442	0.16
Mof_H 	H 	0.91857	0.10413	0.91083	-0.011
Mof_O 	O 	0.96657	0.08493	0.8445	-0.541
Mof_C 	C 	0.95567	0.35143	0.9364	0.436
Mof_S 	S 	0.81424	0.48084	0.91818	0.08
Mof_C 	C 	0.99387	0.05193	0.92063	0.215
Mof_C 	C 	0.27427	0.61383	0.91824	0.261
Mof_C 	C 	0.00087	0.33753	0.88618	-0.209
Mof_N 	N 	0.98867	0.41193	0.96968	-0.211
Mof_C 	C 	0.02647	0.15583	0.92366	0.164
Mof_H 	H 	0.05187	0.19073	0.92663	-0.01
Mof_C 	C 	0.23047	0.61303	0.91372	-0.308
Mof_H 	H 	0.23817	0.64813	0.91093	0.14
Mof_C 	C 	0.95167	0.05253	0.91573	-0.258
Mof_H 	H 	0.92447	0.01673	0.91313	0.124
Mof_C 	C 	0.17337	0.56093	0.91305	0.212
Mof_H 	H 	0.14347	0.56183	0.90993	-0.027
Mof_N 	N 	0.06277	0.33823	0.86273	-0.218
Mof_C 	C 	0.04177	0.33933	0.87047	0.208
Mof_C 	C 	0.03217	0.10443	0.92474	-0.25
Mof_H 	H 	0.06167	0.10563	0.92823	0.122
Mof_C 	C 	0.20507	0.50933	0.92159	0.215
Mof_H 	H 	0.19747	0.47453	0.92443	-0.03
Mof_C 	C 	0.01157	0.36953	0.94924	0.146
Mof_H 	H 	0.03867	0.36103	0.94653	-0.002
Mof_C 	C 	0.26087	0.56143	0.9221	-0.309
Mof_H 	H 	0.29097	0.56093	0.92523	0.141
Mof_C 	C 	0.22127	0.55213	0.84536	0.421
Mof_C 	C 	0.01587	0.38613	0.88088	0.141
Mof_H 	H 	0.01377	0.41993	0.88263	-0.004
Mof_C 	C 	0.96267	0.36613	0.94503	-0.217
Mof_C 	C 	0.02947	0.17673	0.85097	-0.302
Mof_C 	C 	0.05307	0.28373	0.85899	0.278
Mof_C 	C 	0.98287	0.34103	0.89449	0.428
Mof_C 	C 	0.02147	0.38473	0.95716	-0.227
Mof_H 	H 	0.05567	0.38883	0.95983	0.114
Mof_C 	C 	0.15967	0.51883	0.98021	-0.355
Mof_C 	C 	0.03367	0.38503	0.87304	-0.247
Mof_H 	H 	0.03997	0.41633	0.86953	0.12
Mof_C 	C 	0.17917	0.49853	0.84984	-0.195
Mof_C 	C 	0.18927	0.49463	0.858	0.124
Mof_H 	H 	0.22137	0.52753	0.86063	0.002
Mof_C 	C 	0.93627	0.39793	0.97452	0.205
Mof_C 	C 	0.97757	0.39393	0.96116	0.182
Mof_C 	C 	0.21507	0.55743	0.98436	0.521
Mof_C 	C 	0.89547	0.44173	0.91359	0.376
Mof_C 	C 	0.78947	0.36083	0.98996	0.412
Mof_C 	C 	0.09997	0.39313	0.85859	0.179
Mof_C 	C 	0.14807	0.53023	0.97264	0.303
Mof_H 	H 	0.17917	0.56263	0.96983	-0.059
Mof_C 	C 	0.02697	0.28903	0.87571	-0.24
Mof_H 	H 	0.02997	0.25583	0.87393	0.118
Mof_C 	C 	0.00837	0.29043	0.88334	0.149
Mof_H 	H 	0.00047	0.25833	0.88673	-0.01
Mof_C 	C 	0.09897	0.27933	0.85586	-0.31
Mof_H 	H 	0.13857	0.31193	0.85633	0.142
Mof_C 	C 	0.08907	0.22613	0.85176	0.206
Mof_H 	H 	0.12177	0.22403	0.84963	-0.027
Mof_C 	C 	0.88657	0.33963	0.9754	-0.267
Mof_H 	H 	0.88447	0.30753	0.97243	0.126
Mof_C 	C 	0.99597	0.23523	0.8584	-0.342
Mof_H 	H 	0.96307	0.23663	0.86063	0.15
Mof_C 	C 	0.88737	0.43353	0.98345	0.162
Mof_H 	H 	0.88697	0.46523	0.98623	-0.011
Mof_C 	C 	0.09377	0.49673	0.96905	-0.39
Mof_H 	H 	0.08767	0.50683	0.96393	0.17
Mof_C 	C 	0.93587	0.44663	0.9784	-0.246
Mof_H 	H 	0.96727	0.48653	0.97763	0.12
Mof_C 	C 	0.04887	0.44943	0.97278	0.285
Mof_C 	C 	0.01887	0.12513	0.84653	0.453
Mof_C 	C 	0.92147	0.37603	0.94919	0.157
Mof_H 	H 	0.88937	0.37543	0.94643	-0.008
Mof_C 	C 	0.11487	0.47043	0.98404	0.253
Mof_H 	H 	0.12247	0.46093	0.98913	-0.045
Mof_C 	C 	0.84157	0.32943	0.98046	0.178
Mof_H 	H 	0.81007	0.28963	0.98133	-0.018
Mof_C 	C 	0.08797	0.39813	0.85071	-0.203
Mof_H 	H 	0.05457	0.36573	0.84823	0.105
Mof_C 	C 	0.92587	0.38643	0.95714	-0.24
Mof_H 	H 	0.89517	0.38863	0.95993	0.12
Mof_C 	C 	0.05727	0.43373	0.98061	-0.318
Mof_H 	H 	0.02617	0.40083	0.98333	0.147
Mof_C 	C 	0.98697	0.18353	0.85442	0.253
Mof_H 	H 	0.94727	0.15073	0.85413	-0.045
Mof_C 	C 	0.76967	0.56153	0.91549	0.373
Mof_C 	C 	0.15197	0.44253	0.86216	-0.213
Mof_H 	H 	0.16097	0.43953	0.86753	0.106
Mof_C 	C 	0.12707	0.45363	0.84619	0.109
Mof_H 	H 	0.11717	0.45853	0.84103	0.006
Mof_O 	O 	0.78197	0.60833	0.90874	-0.356
Mof_C 	C 	0.87327	0.57423	0.91038	0.089
Mof_H 	H 	0.88797	0.61403	0.90863	0.019
Mof_C 	C 	0.90557	0.54273	0.9093	0.008
Mof_H 	H 	0.94237	0.55773	0.90663	0.034
Mof_C 	C 	0.87477	0.48773	0.91282	-0.101
Mof_C 	C 	0.81957	0.54243	0.91419	-0.091
Mof_O 	O 	0.78577	0.40713	0.99243	-0.492
Mof_O 	O 	0.75237	0.30563	0.99206	-0.516
Mof_C 	C 	0.84037	0.37573	0.98444	-0.23
Mof_O 	O 	0.73267	0.53143	0.92048	-0.499
Mof_O 	O 	0.82777	0.20863	0.91487	-0.278
Mof_C 	C 	0.89077	0.52683	0.90469	-0.046
Mof_H 	H 	0.91737	0.53013	0.90063	0.046
Mof_C 	C 	0.85087	0.55783	0.90532	-0.121
Mof_H 	H 	0.84587	0.58093	0.90133	0.075
Mof_Zn	Zn	0.67421	0.66716	0.25508	1.213
Mof_Zn	Zn	0.64508	0.73593	0.24156	1.213
Mof_Zn	Zn	0.57567	0.59366	0.24148	1.212
Mof_Zn	Zn	0.54796	0.66594	0.25523	1.212
Mof_Zn	Zn	0.74567	0.39788	0.17128	1.216
Mof_Zn	Zn	0.39408	0.74724	0.33273	1.217
Mof_O 	O 	0.61042	0.66518	0.2486	-0.957
Mof_O 	O 	0.60654	0.54077	0.24593	-0.498
Mof_O 	O 	0.72763	0.79193	0.24502	-0.52
Mof_O 	O 	0.66155	0.67637	0.26651	-0.509
Mof_O 	O 	0.75502	0.74107	0.25313	-0.523
Mof_O 	O 	0.65423	0.72227	0.23036	-0.521
Mof_O 	O 	0.68095	0.59292	0.25466	-0.51
Mof_O 	O 	0.60563	0.78307	0.24214	-0.502
Mof_O 	O 	0.53793	0.73697	0.25232	-0.49
Mof_O 	O 	0.57553	0.68147	0.26635	-0.509
Mof_C 	C 	0.65213	0.49147	0.25184	-0.232
Mof_O 	O 	0.62893	0.62507	0.23185	-0.524
Mof_C 	C 	0.64653	0.54577	0.25097	0.453
Mof_O 	O 	0.92273	0.93547	0.31413	-0.529
Mof_O 	O 	0.93273	0.92637	0.18209	-0.514
Mof_O 	O 	0.89133	0.87747	0.32464	-0.555
Mof_O 	O 	0.87443	0.88607	0.17114	-0.507
Mof_O 	O 	0.73553	0.45617	0.17761	-0.495
Mof_C 	C 	0.76603	0.78717	0.24953	0.473
Mof_C 	C 	0.82743	0.84227	0.25023	-0.272
Mof_C 	C 	0.61383	0.43847	0.24776	0.162
Mof_H 	H 	0.58523	0.43747	0.24417	-0.012
Mof_O 	O 	0.63323	0.41827	0.17784	-0.537
Mof_C 	C 	0.62233	0.68477	0.26974	0.435
Mof_S 	S 	0.4809	0.81418	0.25151	0.08
Mof_C 	C 	0.66053	0.38527	0.25397	0.223
Mof_C 	C 	0.94093	0.94717	0.25158	0.264
Mof_C 	C 	0.66753	0.67087	0.21952	-0.215
Mof_N 	N 	0.65533	0.74527	0.30302	-0.21
Mof_C 	C 	0.69313	0.48917	0.257	0.163
Mof_H 	H 	0.71853	0.52407	0.25997	-0.01
Mof_C 	C 	0.89713	0.94637	0.24706	-0.31
Mof_H 	H 	0.90483	0.98147	0.24427	0.141
Mof_C 	C 	0.61833	0.38587	0.24907	-0.261
Mof_H 	H 	0.59113	0.35007	0.24647	0.126
Mof_C 	C 	0.84003	0.89427	0.24639	0.213
Mof_H 	H 	0.81013	0.89517	0.24327	-0.028
Mof_N 	N 	0.72943	0.67157	0.19607	-0.218
Mof_C 	C 	0.70843	0.67267	0.20381	0.209
Mof_C 	C 	0.69883	0.43777	0.25808	-0.256
Mof_H 	H 	0.72833	0.43897	0.26157	0.123
Mof_C 	C 	0.87173	0.84267	0.25493	0.216
Mof_H 	H 	0.86413	0.80787	0.25777	-0.03
Mof_C 	C 	0.67823	0.70287	0.28258	0.142
Mof_H 	H 	0.70533	0.69437	0.27987	-0.002
Mof_C 	C 	0.92753	0.89477	0.25544	-0.31
Mof_H 	H 	0.95763	0.89427	0.25857	0.142
Mof_C 	C 	0.88793	0.88547	0.1787	0.421
Mof_C 	C 	0.68253	0.71947	0.21422	0.144
Mof_H 	H 	0.68043	0.75327	0.21597	-0.006
Mof_C 	C 	0.62933	0.69947	0.27837	-0.213
Mof_C 	C 	0.69613	0.51007	0.18431	-0.305
Mof_C 	C 	0.71973	0.61707	0.19233	0.273
Mof_C 	C 	0.64953	0.67437	0.22783	0.433
Mof_C 	C 	0.68813	0.71807	0.2905	-0.228
Mof_H 	H 	0.72233	0.72217	0.29317	0.114
Mof_C 	C 	0.82633	0.85217	0.31355	-0.353
Mof_C 	C 	0.70033	0.71837	0.20638	-0.25
Mof_H 	H 	0.70663	0.74967	0.20287	0.12
Mof_C 	C 	0.84583	0.83187	0.18318	-0.195
Mof_C 	C 	0.85593	0.82797	0.19134	0.124
Mof_H 	H 	0.88803	0.86087	0.19397	0.002
Mof_C 	C 	0.60293	0.73127	0.30786	0.205
Mof_C 	C 	0.64423	0.72727	0.2945	0.184
Mof_C 	C 	0.88173	0.89077	0.3177	0.52
Mof_C 	C 	0.56213	0.77507	0.24693	0.377
Mof_C 	C 	0.45613	0.69417	0.3233	0.412
Mof_C 	C 	0.76663	0.72647	0.19193	0.178
Mof_C 	C 	0.81473	0.86357	0.30598	0.301
Mof_H 	H 	0.84583	0.89597	0.30317	-0.058
Mof_C 	C 	0.69363	0.62237	0.20905	-0.243
Mof_H 	H 	0.69663	0.58917	0.20727	0.118
Mof_C 	C 	0.67503	0.62377	0.21668	0.153
Mof_H 	H 	0.66713	0.59167	0.22007	-0.012
Mof_C 	C 	0.76563	0.61267	0.1892	-0.309
Mof_H 	H 	0.80523	0.64527	0.18967	0.141
Mof_C 	C 	0.75573	0.55947	0.1851	0.205
Mof_H 	H 	0.78843	0.55737	0.18297	-0.026
Mof_C 	C 	0.55323	0.67297	0.30874	-0.267
Mof_H 	H 	0.55113	0.64087	0.30577	0.126
Mof_C 	C 	0.66263	0.56857	0.19174	-0.338
Mof_H 	H 	0.62973	0.56997	0.19397	0.15
Mof_C 	C 	0.55403	0.76687	0.31679	0.162
Mof_H 	H 	0.55363	0.79857	0.31957	-0.011
Mof_C 	C 	0.76043	0.83007	0.30239	-0.387
Mof_H 	H 	0.75433	0.84017	0.29727	0.169
Mof_C 	C 	0.60253	0.77997	0.31174	-0.246
Mof_H 	H 	0.63393	0.81987	0.31097	0.12
Mof_C 	C 	0.71553	0.78277	0.30612	0.282
Mof_C 	C 	0.68553	0.45847	0.17987	0.45
Mof_C 	C 	0.58813	0.70937	0.28253	0.156
Mof_H 	H 	0.55603	0.70877	0.27977	-0.008
Mof_C 	C 	0.78153	0.80377	0.31738	0.252
Mof_H 	H 	0.78913	0.79427	0.32247	-0.045
Mof_C 	C 	0.50823	0.66277	0.3138	0.179
Mof_H 	H 	0.47673	0.62297	0.31467	-0.018
Mof_C 	C 	0.75463	0.73147	0.18405	-0.203
Mof_H 	H 	0.72123	0.69907	0.18157	0.105
Mof_C 	C 	0.59253	0.71977	0.29048	-0.24
Mof_H 	H 	0.56183	0.72197	0.29327	0.119
Mof_C 	C 	0.72393	0.76707	0.31395	-0.316
Mof_H 	H 	0.69283	0.73417	0.31667	0.146
Mof_C 	C 	0.65363	0.51687	0.18776	0.256
Mof_H 	H 	0.61393	0.48407	0.18747	-0.045
Mof_C 	C 	0.43633	0.89487	0.24883	0.373
Mof_C 	C 	0.81863	0.77587	0.1955	-0.213
Mof_H 	H 	0.82763	0.77287	0.20087	0.106
Mof_C 	C 	0.79373	0.78697	0.17953	0.108
Mof_H 	H 	0.78383	0.79187	0.17437	0.006
Mof_O 	O 	0.44863	0.94167	0.24208	-0.356
Mof_C 	C 	0.53993	0.90757	0.24372	0.089
Mof_H 	H 	0.55463	0.94737	0.24197	0.019
Mof_C 	C 	0.57223	0.87607	0.24264	0.008
Mof_H 	H 	0.60903	0.89107	0.23997	0.034
Mof_C 	C 	0.54143	0.82107	0.24616	-0.1
Mof_C 	C 	0.48623	0.87577	0.24753	-0.091
Mof_O 	O 	0.45243	0.74047	0.32577	-0.493
Mof_O 	O 	0.41903	0.63897	0.3254	-0.517
Mof_C 	C 	0.50703	0.70907	0.31778	-0.23
Mof_O 	O 	0.39933	0.86477	0.25382	-0.499
Mof_O 	O 	0.49443	0.54197	0.24821	-0.277
Mof_C 	C 	0.55743	0.86017	0.23803	-0.046
Mof_H 	H 	0.58403	0.86347	0.23397	0.047
Mof_C 	C 	0.51753	0.89117	0.23866	-0.122
Mof_H 	H 	0.51253	0.91427	0.23467	0.076
Mof_Zn	Zn	0.99951	0.34039	0.58841	1.213
Mof_Zn	Zn	0.93074	0.24249	0.57489	1.213
Mof_Zn	Zn	0.07301	0.31535	0.57482	1.212
Mof_Zn	Zn	0.00073	0.21536	0.58857	1.212
Mof_Zn	Zn	0.26879	0.68113	0.50461	1.216
Mof_Zn	Zn	0.91943	0.98018	0.66607	1.217
Mof_O 	O 	0.00149	0.27858	0.58194	-0.958
Mof_O 	O 	0.1259	0.39911	0.57926	-0.498
Mof_O 	O 	0.87474	0.26904	0.57835	-0.52
Mof_O 	O 	0.9903	0.31852	0.59984	-0.509
Mof_O 	O 	0.9256	0.34729	0.58646	-0.522
Mof_O 	O 	0.9444	0.2653	0.56369	-0.521
Mof_O 	O 	0.07375	0.42137	0.58799	-0.51
Mof_O 	O 	0.8836	0.1559	0.57547	-0.502
Mof_O 	O 	0.9297	0.1343	0.58565	-0.49
Mof_O 	O 	0.9852	0.2274	0.59968	-0.509
Mof_C 	C 	0.1752	0.494	0.58517	-0.233
Mof_O 	O 	0.0416	0.3372	0.56518	-0.525
Mof_C 	C 	0.1209	0.4341	0.5843	0.453
Mof_O 	O 	0.7312	0.3206	0.64746	-0.53
Mof_O 	O 	0.7403	0.3397	0.51542	-0.514
Mof_O 	O 	0.7892	0.3472	0.65797	-0.554
Mof_O 	O 	0.7806	0.3217	0.50447	-0.507
Mof_O 	O 	0.2105	0.6127	0.51094	-0.496
Mof_C 	C 	0.8795	0.3122	0.58286	0.472
Mof_C 	C 	0.8244	0.3185	0.58356	-0.271
Mof_C 	C 	0.2282	0.5087	0.58109	0.162
Mof_H 	H 	0.2292	0.4811	0.5775	-0.012
Mof_O 	O 	0.2484	0.5483	0.51117	-0.537
Mof_C 	C 	0.9819	0.2709	0.60307	0.435
Mof_S 	S 	0.85249	6e-05	0.58484	0.081
Mof_C 	C 	0.2814	0.6086	0.5873	0.223
Mof_C 	C 	0.7195	0.3271	0.58491	0.262
Mof_C 	C 	0.9958	0.33	0.55285	-0.214
Mof_N 	N 	0.9214	0.2434	0.63635	-0.209
Mof_C 	C 	0.1775	0.5373	0.59033	0.163
Mof_H 	H 	0.1426	0.5278	0.5933	-0.011
Mof_C 	C 	0.7203	0.2841	0.58039	-0.308
Mof_H 	H 	0.6852	0.2567	0.5776	0.14
Mof_C 	C 	0.2808	0.5658	0.5824	-0.261
Mof_H 	H 	0.3166	0.5744	0.5798	0.126
Mof_C 	C 	0.7724	0.2791	0.57972	0.212
Mof_H 	H 	0.7715	0.2483	0.5766	-0.028
Mof_N 	N 	0.9951	0.3912	0.5294	-0.218
Mof_C 	C 	0.994	0.3691	0.53714	0.21
Mof_C 	C 	0.2289	0.5944	0.59141	-0.256
Mof_H 	H 	0.2277	0.6227	0.5949	0.123
Mof_C 	C 	0.824	0.3624	0.58826	0.215
Mof_H 	H 	0.8588	0.3896	0.5911	-0.03
Mof_C 	C 	0.9638	0.3087	0.61591	0.142
Mof_H 	H 	0.9723	0.3443	0.6132	-0.002
Mof_C 	C 	0.7719	0.3661	0.58877	-0.309
Mof_H 	H 	0.7724	0.3967	0.5919	0.141
Mof_C 	C 	0.7812	0.3358	0.51203	0.421
Mof_C 	C 	0.9472	0.2964	0.54755	0.144
Mof_H 	H 	0.9134	0.2605	0.5493	-0.006
Mof_C 	C 	0.9672	0.2632	0.6117	-0.213
Mof_C 	C 	0.1566	0.5194	0.51764	-0.304
Mof_C 	C 	0.0496	0.436	0.52566	0.272
Mof_C 	C 	0.9923	0.3085	0.56116	0.434
Mof_C 	C 	0.9486	0.3034	0.62383	-0.228
Mof_H 	H 	0.9445	0.3335	0.6265	0.114
Mof_C 	C 	0.8145	0.3075	0.64688	-0.354
Mof_C 	C 	0.9483	0.3153	0.53971	-0.25
Mof_H 	H 	0.917	0.2903	0.5362	0.12
Mof_C 	C 	0.8348	0.3473	0.51651	-0.195
Mof_C 	C 	0.8387	0.3613	0.52467	0.124
Mof_H 	H 	0.8058	0.3605	0.5273	0.002
Mof_C 	C 	0.9354	0.205	0.64119	0.201
Mof_C 	C 	0.9394	0.2503	0.62783	0.184
Mof_C 	C 	0.7759	0.3243	0.65103	0.521
Mof_C 	C 	0.8916	0.1204	0.58026	0.377
Mof_C 	C 	0.9725	0.0953	0.65663	0.411
Mof_C 	C 	0.9402	0.3735	0.52526	0.178
Mof_C 	C 	0.8031	0.2845	0.63931	0.301
Mof_H 	H 	0.7707	0.2832	0.6365	-0.059
Mof_C 	C 	0.0443	0.4046	0.54238	-0.243
Mof_H 	H 	0.0775	0.4408	0.5406	0.118
Mof_C 	C 	0.0429	0.3846	0.55001	0.152
Mof_H 	H 	0.075	0.4088	0.5534	-0.011
Mof_C 	C 	0.054	0.4863	0.52253	-0.308
Mof_H 	H 	0.0214	0.4933	0.523	0.141
Mof_C 	C 	0.1072	0.5296	0.51843	0.205
Mof_H 	H 	0.1093	0.5644	0.5163	-0.027
Mof_C 	C 	0.9937	0.2136	0.64207	-0.258
Mof_H 	H 	0.0258	0.2436	0.6391	0.122
Mof_C 	C 	0.0981	0.4274	0.52507	-0.337
Mof_H 	H 	0.0967	0.3931	0.5273	0.149
Mof_C 	C 	0.8998	0.1205	0.65012	0.157
Mof_H 	H 	0.8681	0.0884	0.6529	-0.01
Mof_C 	C 	0.8366	0.2637	0.63572	-0.387
Mof_H 	H 	0.8265	0.2475	0.6306	0.169
Mof_C 	C 	0.8867	0.1559	0.64507	-0.241
Mof_H 	H 	0.8468	0.1474	0.6443	0.119
Mof_C 	C 	0.8839	0.2661	0.63945	0.282
Mof_C 	C 	0.2082	0.5604	0.5132	0.45
Mof_C 	C 	0.9573	0.2121	0.61586	0.156
Mof_H 	H 	0.9579	0.1806	0.6131	-0.007
Mof_C 	C 	0.8629	0.3111	0.65071	0.252
Mof_H 	H 	0.8724	0.3282	0.6558	-0.045
Mof_C 	C 	0.0039	0.1788	0.64713	0.17
Mof_H 	H 	0.0437	0.1871	0.648	-0.015
Mof_C 	C 	0.9352	0.3565	0.51738	-0.203
Mof_H 	H 	0.9676	0.3555	0.5149	0.105
Mof_C 	C 	0.9469	0.2061	0.62381	-0.24
Mof_H 	H 	0.9447	0.1732	0.6266	0.12
Mof_C 	C 	0.8996	0.2902	0.64728	-0.316
Mof_H 	H 	0.9325	0.292	0.65	0.146
Mof_C 	C 	0.1498	0.4701	0.52109	0.255
Mof_H 	H 	0.1826	0.4632	0.5208	-0.045
Mof_C 	C 	0.7718	0.8748	0.58216	0.374
Mof_C 	C 	0.8908	0.3761	0.52883	-0.213
Mof_H 	H 	0.8938	0.3881	0.5342	0.106
Mof_C 	C 	0.8797	0.3401	0.51286	0.109
Mof_H 	H 	0.8748	0.3253	0.5077	0.006
Mof_O 	O 	0.725	0.8403	0.57541	-0.356
Mof_C 	C 	0.7591	0.9657	0.57705	0.089
Mof_H 	H 	0.7193	0.9406	0.5753	0.019
Mof_C 	C 	0.7906	0.0295	0.57597	0.008
Mof_H 	H 	0.7756	0.0513	0.5733	0.034
Mof_C 	C 	0.8456	0.0537	0.57949	-0.1
Mof_C 	C 	0.7909	0.9438	0.58086	-0.091
Mof_O 	O 	0.9262	0.0453	0.6591	-0.492
Mof_O 	O 	0.0277	0.1134	0.65873	-0.517
Mof_C 	C 	0.9576	0.1313	0.65111	-0.224
Mof_O 	O 	0.8019	0.8679	0.58715	-0.498
Mof_O 	O 	0.1247	0.2858	0.58154	-0.277
Mof_C 	C 	0.8065	0.0306	0.57136	-0.046
Mof_H 	H 	0.8032	0.0539	0.5673	0.047
Mof_C 	C 	0.7755	0.9597	0.57199	-0.121
Mof_H 	H 	0.7524	0.9316	0.568	0.076
Mof_Zn	Zn	0.66618	0.67372	0.92174	1.213
Mof_Zn	Zn	0.59741	0.57582	0.90823	1.213
Mof_Zn	Zn	0.73968	0.64868	0.90815	1.212
Mof_Zn	Zn	0.6674	0.54869	0.9219	1.212
Mof_Zn	Zn	0.93546	0.01446	0.83795	1.215
Mof_Zn	Zn	0.5861	0.31351	0.9994	1.217
Mof_O 	O 	0.66816	0.61191	0.91527	-0.957
Mof_O 	O 	0.79257	0.73244	0.91259	-0.498
Mof_O 	O 	0.54141	0.60237	0.91168	-0.52
Mof_O 	O 	0.65697	0.65185	0.93317	-0.51
Mof_O 	O 	0.59227	0.68062	0.91979	-0.523
Mof_O 	O 	0.61107	0.59863	0.89702	-0.521
Mof_O 	O 	0.74042	0.7547	0.92132	-0.51
Mof_O 	O 	0.55027	0.48923	0.9088	-0.502
Mof_O 	O 	0.59637	0.46763	0.91898	-0.49
Mof_O 	O 	0.65187	0.56073	0.93301	-0.51
Mof_C 	C 	0.84187	0.82733	0.9185	-0.232
Mof_O 	O 	0.70827	0.67053	0.89851	-0.524
Mof_C 	C 	0.78757	0.76743	0.91763	0.453
Mof_O 	O 	0.39787	0.65393	0.98079	-0.53
Mof_O 	O 	0.40697	0.67303	0.84875	-0.513
Mof_O 	O 	0.45587	0.68053	0.9913	-0.555
Mof_O 	O 	0.44727	0.65503	0.8378	-0.507
Mof_O 	O 	0.87717	0.94603	0.84427	-0.495
Mof_C 	C 	0.54617	0.64553	0.91619	0.472
Mof_C 	C 	0.49107	0.65183	0.91689	-0.271
Mof_C 	C 	0.89487	0.84203	0.91442	0.161
Mof_H 	H 	0.89587	0.81443	0.91083	-0.012
Mof_O 	O 	0.91507	0.88163	0.8445	-0.538
Mof_C 	C 	0.64857	0.60423	0.9364	0.435
Mof_S 	S 	0.51916	0.33339	0.91818	0.08
Mof_C 	C 	0.94807	0.94193	0.92063	0.22
Mof_C 	C 	0.38617	0.66043	0.91824	0.262
Mof_C 	C 	0.66247	0.66333	0.88618	-0.215
Mof_N 	N 	0.58807	0.57673	0.96968	-0.21
Mof_C 	C 	0.84417	0.87063	0.92366	0.162
Mof_H 	H 	0.80927	0.86113	0.92663	-0.01
Mof_C 	C 	0.38697	0.61743	0.91372	-0.308
Mof_H 	H 	0.35187	0.59003	0.91093	0.14
Mof_C 	C 	0.94747	0.89913	0.91573	-0.26
Mof_H 	H 	0.98327	0.90773	0.91313	0.125
Mof_C 	C 	0.43907	0.61243	0.91305	0.212
Mof_H 	H 	0.43817	0.58163	0.90993	-0.028
Mof_N 	N 	0.66177	0.72453	0.86273	-0.218
Mof_C 	C 	0.66067	0.70243	0.87047	0.209
Mof_C 	C 	0.89557	0.92773	0.92474	-0.254
Mof_H 	H 	0.89437	0.95603	0.92823	0.123
Mof_C 	C 	0.49067	0.69573	0.92159	0.215
Mof_H 	H 	0.52547	0.72293	0.92443	-0.03
Mof_C 	C 	0.63047	0.64203	0.94924	0.142
Mof_H 	H 	0.63897	0.67763	0.94653	-0.002
Mof_C 	C 	0.43857	0.69943	0.9221	-0.309
Mof_H 	H 	0.43907	0.73003	0.92523	0.141
Mof_C 	C 	0.44787	0.66913	0.84536	0.421
Mof_C 	C 	0.61387	0.62973	0.88088	0.144
Mof_H 	H 	0.58007	0.59383	0.88263	-0.006
Mof_C 	C 	0.63387	0.59653	0.94503	-0.213
Mof_C 	C 	0.82327	0.85273	0.85097	-0.305
Mof_C 	C 	0.71627	0.76933	0.85899	0.273
Mof_C 	C 	0.65897	0.64183	0.89449	0.433
Mof_C 	C 	0.61527	0.63673	0.95716	-0.228
Mof_H 	H 	0.61117	0.66683	0.95983	0.114
Mof_C 	C 	0.48117	0.64083	0.98021	-0.354
Mof_C 	C 	0.61497	0.64863	0.87304	-0.25
Mof_H 	H 	0.58367	0.62363	0.86953	0.12
Mof_C 	C 	0.50147	0.68063	0.84984	-0.195
Mof_C 	C 	0.50537	0.69463	0.858	0.124
Mof_H 	H 	0.47247	0.69383	0.86063	0.002
Mof_C 	C 	0.60207	0.53833	0.97452	0.205
Mof_C 	C 	0.60607	0.58363	0.96116	0.184
Mof_C 	C 	0.44257	0.65763	0.98436	0.52
Mof_C 	C 	0.55827	0.45373	0.91359	0.376
Mof_C 	C 	0.63917	0.42863	0.98996	0.412
Mof_C 	C 	0.60687	0.70683	0.85859	0.178
Mof_C 	C 	0.46977	0.61783	0.97264	0.301
Mof_H 	H 	0.43737	0.61653	0.96983	-0.059
Mof_C 	C 	0.71097	0.73793	0.87571	-0.243
Mof_H 	H 	0.74417	0.77413	0.87393	0.118
Mof_C 	C 	0.70957	0.71793	0.88334	0.152
Mof_H 	H 	0.74167	0.74213	0.88673	-0.012
Mof_C 	C 	0.72067	0.81963	0.85586	-0.308
Mof_H 	H 	0.68807	0.82663	0.85633	0.141
Mof_C 	C 	0.77387	0.86293	0.85176	0.205
Mof_H 	H 	0.77597	0.89773	0.84963	-0.026
Mof_C 	C 	0.66037	0.54693	0.9754	-0.267
Mof_H 	H 	0.69247	0.57693	0.97243	0.126
Mof_C 	C 	0.76477	0.76073	0.8584	-0.338
Mof_H 	H 	0.76337	0.72643	0.86063	0.15
Mof_C 	C 	0.56647	0.45383	0.98345	0.162
Mof_H 	H 	0.53477	0.42173	0.98623	-0.011
Mof_C 	C 	0.50327	0.59703	0.96905	-0.387
Mof_H 	H 	0.49317	0.58083	0.96393	0.169
Mof_C 	C 	0.55337	0.48923	0.9784	-0.246
Mof_H 	H 	0.51347	0.48073	0.97763	0.12
Mof_C 	C 	0.55057	0.59943	0.97278	0.282
Mof_C 	C 	0.87487	0.89373	0.84653	0.45
Mof_C 	C 	0.62397	0.54543	0.94919	0.156
Mof_H 	H 	0.62457	0.51393	0.94643	-0.008
Mof_C 	C 	0.52957	0.64443	0.98404	0.252
Mof_H 	H 	0.53907	0.66153	0.98913	-0.045
Mof_C 	C 	0.67057	0.51213	0.98046	0.179
Mof_H 	H 	0.71037	0.52043	0.98133	-0.018
Mof_C 	C 	0.60187	0.68983	0.85071	-0.203
Mof_H 	H 	0.63427	0.68883	0.84823	0.105
Mof_C 	C 	0.61357	0.53943	0.95714	-0.24
Mof_H 	H 	0.61137	0.50653	0.95993	0.119
Mof_C 	C 	0.56627	0.62353	0.98061	-0.317
Mof_H 	H 	0.59917	0.62533	0.98333	0.146
Mof_C 	C 	0.81647	0.80343	0.85442	0.256
Mof_H 	H 	0.84927	0.79653	0.85413	-0.046
Mof_C 	C 	0.43847	0.20813	0.91549	0.374
Mof_C 	C 	0.55747	0.70943	0.86216	-0.212
Mof_H 	H 	0.56047	0.72143	0.86753	0.106
Mof_C 	C 	0.54637	0.67343	0.84619	0.108
Mof_H 	H 	0.54147	0.65863	0.84103	0.006
Mof_O 	O 	0.39167	0.17363	0.90874	-0.356
Mof_C 	C 	0.42577	0.29903	0.91038	0.089
Mof_H 	H 	0.38597	0.27393	0.90863	0.019
Mof_C 	C 	0.45727	0.36283	0.9093	0.008
Mof_H 	H 	0.44227	0.38463	0.90663	0.034
Mof_C 	C 	0.51227	0.38703	0.91282	-0.1
Mof_C 	C 	0.45757	0.27713	0.91419	-0.091
Mof_O 	O 	0.59287	0.37863	0.99243	-0.492
Mof_O 	O 	0.69437	0.44673	0.99206	-0.517
Mof_C 	C 	0.62427	0.46463	0.98444	-0.23
Mof_O 	O 	0.46857	0.20123	0.92048	-0.499
Mof_O 	O 	0.79137	0.61913	0.91487	-0.278
Mof_C 	C 	0.47317	0.36393	0.90469	-0.046
Mof_H 	H 	0.46987	0.38723	0.90063	0.047
Mof_C 	C 	0.44217	0.29303	0.90532	-0.122
Mof_H 	H 	0.41907	0.26493	0.90133	0.076
Mof_Zn	Zn	0.33284	0.00706	0.25508	1.213
Mof_Zn	Zn	0.26407	0.90916	0.24156	1.213
Mof_Zn	Zn	0.40634	0.98202	0.24148	1.212
Mof_Zn	Zn	0.33406	0.88203	0.25523	1.212
Mof_Zn	Zn	0.60212	0.3478	0.17128	1.216
Mof_Zn	Zn	0.25276	0.64685	0.33273	1.217
Mof_O 	O 	0.33482	0.94525	0.2486	-0.958
Mof_O 	O 	0.45923	0.06578	0.24593	-0.497
Mof_O 	O 	0.20807	0.93571	0.24502	-0.52
Mof_O 	O 	0.32363	0.98519	0.26651	-0.51
Mof_O 	O 	0.25893	0.01396	0.25313	-0.521
Mof_O 	O 	0.27773	0.93197	0.23036	-0.521
Mof_O 	O 	0.40708	0.08804	0.25466	-0.51
Mof_O 	O 	0.21693	0.82257	0.24214	-0.502
Mof_O 	O 	0.26303	0.80097	0.25232	-0.491
Mof_O 	O 	0.31853	0.89407	0.26635	-0.509
Mof_C 	C 	0.50853	0.16067	0.25184	-0.232
Mof_O 	O 	0.37493	0.00387	0.23185	-0.522
Mof_C 	C 	0.45423	0.10077	0.25097	0.453
Mof_O 	O 	0.06453	0.98727	0.31413	-0.53
Mof_O 	O 	0.07363	0.00637	0.18209	-0.515
Mof_O 	O 	0.12253	0.01387	0.32464	-0.556
Mof_O 	O 	0.11393	0.98837	0.17114	-0.511
Mof_O 	O 	0.54383	0.27937	0.17761	-0.496
Mof_C 	C 	0.21283	0.97887	0.24953	0.471
Mof_C 	C 	0.15773	0.98517	0.25023	-0.271
Mof_C 	C 	0.56153	0.17537	0.24776	0.162
Mof_H 	H 	0.56253	0.14777	0.24417	-0.012
Mof_O 	O 	0.58173	0.21497	0.17784	-0.537
Mof_C 	C 	0.31523	0.93757	0.26974	0.435
Mof_S 	S 	0.18582	0.66673	0.25151	0.08
Mof_C 	C 	0.61473	0.27527	0.25397	0.223
Mof_C 	C 	0.05283	0.99377	0.25158	0.258
Mof_C 	C 	0.32913	0.99667	0.21952	-0.221
Mof_N 	N 	0.25473	0.91007	0.30302	-0.21
Mof_C 	C 	0.51083	0.20397	0.257	0.163
Mof_H 	H 	0.47593	0.19447	0.25997	-0.01
Mof_C 	C 	0.05363	0.95077	0.24706	-0.307
Mof_H 	H 	0.01853	0.92337	0.24427	0.139
Mof_C 	C 	0.61413	0.23247	0.24907	-0.261
Mof_H 	H 	0.64993	0.24107	0.24647	0.126
Mof_C 	C 	0.10573	0.94577	0.24639	0.211
Mof_H 	H 	0.10483	0.91497	0.24327	-0.028
Mof_N 	N 	0.32843	0.05787	0.19607	-0.22
Mof_C 	C 	0.32733	0.03577	0.20381	0.215
Mof_C 	C 	0.56223	0.26107	0.25808	-0.256
Mof_H 	H 	0.56103	0.28937	0.26157	0.123
Mof_C 	C 	0.15733	0.02907	0.25493	0.215
Mof_H 	H 	0.19213	0.05627	0.25777	-0.03
Mof_C 	C 	0.29713	0.97537	0.28258	0.141
Mof_H 	H 	0.30563	0.01097	0.27987	-0.001
Mof_C 	C 	0.10523	0.03277	0.25544	-0.306
Mof_H 	H 	0.10573	0.06337	0.25857	0.14
Mof_C 	C 	0.11453	0.00247	0.1787	0.427
Mof_C 	C 	0.28053	0.96307	0.21422	0.149
Mof_H 	H 	0.24673	0.92717	0.21597	-0.008
Mof_C 	C 	0.30053	0.92987	0.27837	-0.213
Mof_C 	C 	0.48993	0.18607	0.18431	-0.305
Mof_C 	C 	0.38293	0.10267	0.19233	0.274
Mof_C 	C 	0.32563	0.97517	0.22783	0.433
Mof_C 	C 	0.28193	0.97007	0.2905	-0.227
Mof_H 	H 	0.27783	0.00017	0.29317	0.114
Mof_C 	C 	0.14783	0.97417	0.31355	-0.354
Mof_C 	C 	0.28163	0.98197	0.20638	-0.258
Mof_H 	H 	0.25033	0.95697	0.20287	0.122
Mof_C 	C 	0.16813	0.01397	0.18318	-0.201
Mof_C 	C 	0.17203	0.02797	0.19134	0.129
Mof_H 	H 	0.13913	0.02717	0.19397	0
Mof_C 	C 	0.26873	0.87167	0.30786	0.205
Mof_C 	C 	0.27273	0.91697	0.2945	0.183
Mof_C 	C 	0.10923	0.99097	0.3177	0.522
Mof_C 	C 	0.22493	0.78707	0.24693	0.376
Mof_C 	C 	0.30583	0.76197	0.3233	0.412
Mof_C 	C 	0.27353	0.04017	0.19193	0.182
Mof_C 	C 	0.13643	0.95117	0.30598	0.302
Mof_H 	H 	0.10403	0.94987	0.30317	-0.059
Mof_C 	C 	0.37763	0.07127	0.20905	-0.248
Mof_H 	H 	0.41083	0.10747	0.20727	0.12
Mof_C 	C 	0.37623	0.05127	0.21668	0.16
Mof_H 	H 	0.40833	0.07547	0.22007	-0.014
Mof_C 	C 	0.38733	0.15297	0.1892	-0.309
Mof_H 	H 	0.35473	0.15997	0.18967	0.141
Mof_C 	C 	0.44053	0.19627	0.1851	0.206
Mof_H 	H 	0.44263	0.23107	0.18297	-0.027
Mof_C 	C 	0.32703	0.88027	0.30874	-0.267
Mof_H 	H 	0.35913	0.91027	0.30577	0.126
Mof_C 	C 	0.43143	0.09407	0.19174	-0.338
Mof_H 	H 	0.43003	0.05977	0.19397	0.15
Mof_C 	C 	0.23313	0.78717	0.31679	0.162
Mof_H 	H 	0.20143	0.75507	0.31957	-0.011
Mof_C 	C 	0.16993	0.93037	0.30239	-0.388
Mof_H 	H 	0.15983	0.91417	0.29727	0.169
Mof_C 	C 	0.22003	0.82257	0.31174	-0.246
Mof_H 	H 	0.18013	0.81407	0.31097	0.12
Mof_C 	C 	0.21723	0.93277	0.30612	0.282
Mof_C 	C 	0.54153	0.22707	0.17987	0.45
Mof_C 	C 	0.29063	0.87877	0.28253	0.156
Mof_H 	H 	0.29123	0.84727	0.27977	-0.008
Mof_C 	C 	0.19623	0.97777	0.31738	0.252
Mof_H 	H 	0.20573	0.99487	0.32247	-0.045
Mof_C 	C 	0.33723	0.84547	0.3138	0.179
Mof_H 	H 	0.37703	0.85377	0.31467	-0.018
Mof_C 	C 	0.26853	0.02317	0.18405	-0.209
Mof_H 	H 	0.30093	0.02217	0.18157	0.107
Mof_C 	C 	0.28023	0.87277	0.29048	-0.24
Mof_H 	H 	0.27803	0.83987	0.29327	0.119
Mof_C 	C 	0.23293	0.95687	0.31395	-0.317
Mof_H 	H 	0.26583	0.95867	0.31667	0.146
Mof_C 	C 	0.48313	0.13677	0.18776	0.256
Mof_H 	H 	0.51593	0.12987	0.18747	-0.045
Mof_C 	C 	0.10513	0.54147	0.24883	0.374
Mof_C 	C 	0.22413	0.04277	0.1955	-0.216
Mof_H 	H 	0.22713	0.05477	0.20087	0.108
Mof_C 	C 	0.21303	0.00677	0.17953	0.119
Mof_H 	H 	0.20813	0.99197	0.17437	-0
Mof_O 	O 	0.05833	0.50697	0.24208	-0.356
Mof_C 	C 	0.09243	0.63237	0.24372	0.089
Mof_H 	H 	0.05263	0.60727	0.24197	0.019
Mof_C 	C 	0.12393	0.69617	0.24264	0.008
Mof_H 	H 	0.10893	0.71797	0.23997	0.034
Mof_C 	C 	0.17893	0.72037	0.24616	-0.101
Mof_C 	C 	0.12423	0.61047	0.24753	-0.091
Mof_O 	O 	0.25953	0.71197	0.32577	-0.493
Mof_O 	O 	0.36103	0.78007	0.3254	-0.517
Mof_C 	C 	0.29093	0.79797	0.31778	-0.23
Mof_O 	O 	0.13523	0.53457	0.25382	-0.499
Mof_O 	O 	0.45803	0.95247	0.24821	-0.277
Mof_C 	C 	0.13983	0.69727	0.23803	-0.046
Mof_H 	H 	0.13653	0.72057	0.23397	0.046
Mof_C 	C 	0.10883	0.62637	0.23866	-0.121
Mof_H 	H 	0.08573	0.59827	0.23467	0.075
Mof_Zn	Zn	0.65961	0.65912	0.58841	1.213
Mof_Zn	Zn	0.75751	0.68825	0.57489	1.213
Mof_Zn	Zn	0.68465	0.75766	0.57482	1.212
Mof_Zn	Zn	0.78464	0.78537	0.58857	1.212
Mof_Zn	Zn	0.31887	0.58766	0.50461	1.216
Mof_Zn	Zn	0.01982	0.93925	0.66607	1.217
Mof_O 	O 	0.72142	0.72291	0.58194	-0.957
Mof_O 	O 	0.60089	0.72679	0.57926	-0.498
Mof_O 	O 	0.73096	0.6057	0.57835	-0.52
Mof_O 	O 	0.68148	0.67178	0.59984	-0.51
Mof_O 	O 	0.65271	0.57831	0.58646	-0.523
Mof_O 	O 	0.7347	0.6791	0.56369	-0.521
Mof_O 	O 	0.57863	0.65238	0.58799	-0.51
Mof_O 	O 	0.8441	0.7277	0.57547	-0.502
Mof_O 	O 	0.8657	0.7954	0.58565	-0.49
Mof_O 	O 	0.7726	0.7578	0.59968	-0.509
Mof_C 	C 	0.506	0.6812	0.58517	-0.232
Mof_O 	O 	0.6628	0.7044	0.56518	-0.524
Mof_C 	C 	0.5659	0.6868	0.5843	0.453
Mof_O 	O 	0.6794	0.4106	0.64746	-0.53
Mof_O 	O 	0.6603	0.4006	0.51542	-0.514
Mof_O 	O 	0.6528	0.442	0.65797	-0.554
Mof_O 	O 	0.6783	0.4589	0.50447	-0.507
Mof_O 	O 	0.3873	0.5978	0.51094	-0.496
Mof_C 	C 	0.6878	0.5673	0.58286	0.472
Mof_C 	C 	0.6815	0.5059	0.58356	-0.271
Mof_C 	C 	0.4913	0.7195	0.58109	0.162
Mof_H 	H 	0.5189	0.7481	0.5775	-0.012
Mof_O 	O 	0.4517	0.7001	0.51117	-0.537
Mof_C 	C 	0.7291	0.711	0.60307	0.435
Mof_S 	S 	0.99994	0.85243	0.58484	0.082
Mof_C 	C 	0.3914	0.6728	0.5873	0.223
Mof_C 	C 	0.6729	0.3924	0.58491	0.262
Mof_C 	C 	0.67	0.6658	0.55285	-0.215
Mof_N 	N 	0.7566	0.678	0.63635	-0.21
Mof_C 	C 	0.4627	0.6402	0.59033	0.163
Mof_H 	H 	0.4722	0.6148	0.5933	-0.01
Mof_C 	C 	0.7159	0.4362	0.58039	-0.308
Mof_H 	H 	0.7433	0.4285	0.5776	0.14
Mof_C 	C 	0.4342	0.715	0.5824	-0.261
Mof_H 	H 	0.4256	0.7422	0.5798	0.126
Mof_C 	C 	0.7209	0.4933	0.57972	0.212
Mof_H 	H 	0.7517	0.5232	0.5766	-0.028
Mof_N 	N 	0.6088	0.6039	0.5294	-0.218
Mof_C 	C 	0.6309	0.6249	0.53714	0.209
Mof_C 	C 	0.4056	0.6345	0.59141	-0.256
Mof_H 	H 	0.3773	0.605	0.5949	0.123
Mof_C 	C 	0.6376	0.4616	0.58826	0.215
Mof_H 	H 	0.6104	0.4692	0.5911	-0.03
Mof_C 	C 	0.6913	0.6551	0.61591	0.142
Mof_H 	H 	0.6557	0.628	0.6132	-0.002
Mof_C 	C 	0.6339	0.4058	0.58877	-0.309
Mof_H 	H 	0.6033	0.3757	0.5919	0.141
Mof_C 	C 	0.6642	0.4454	0.51203	0.421
Mof_C 	C 	0.7036	0.6508	0.54755	0.144
Mof_H 	H 	0.7395	0.6529	0.5493	-0.006
Mof_C 	C 	0.7368	0.704	0.6117	-0.213
Mof_C 	C 	0.4806	0.6372	0.51764	-0.305
Mof_C 	C 	0.564	0.6136	0.52566	0.273
Mof_C 	C 	0.6915	0.6838	0.56116	0.433
Mof_C 	C 	0.6966	0.6452	0.62383	-0.228
Mof_H 	H 	0.6665	0.611	0.6265	0.114
Mof_C 	C 	0.6925	0.507	0.64688	-0.354
Mof_C 	C 	0.6847	0.633	0.53971	-0.25
Mof_H 	H 	0.7097	0.6267	0.5362	0.12
Mof_C 	C 	0.6527	0.4875	0.51651	-0.195
Mof_C 	C 	0.6387	0.4774	0.52467	0.124
Mof_H 	H 	0.6395	0.4453	0.5273	0.002
Mof_C 	C 	0.795	0.7304	0.64119	0.205
Mof_C 	C 	0.7497	0.6891	0.62783	0.184
Mof_C 	C 	0.6757	0.4516	0.65103	0.521
Mof_C 	C 	0.8796	0.7712	0.58026	0.377
Mof_C 	C 	0.9047	0.8772	0.65663	0.412
Mof_C 	C 	0.6265	0.5667	0.52526	0.178
Mof_C 	C 	0.7155	0.5186	0.63931	0.302
Mof_H 	H 	0.7168	0.4875	0.6365	-0.059
Mof_C 	C 	0.5954	0.6397	0.54238	-0.243
Mof_H 	H 	0.5592	0.6367	0.5406	0.118
Mof_C 	C 	0.6154	0.6583	0.55001	0.152
Mof_H 	H 	0.5912	0.6662	0.5534	-0.012
Mof_C 	C 	0.5137	0.5677	0.52253	-0.309
Mof_H 	H 	0.5067	0.5281	0.523	0.141
Mof_C 	C 	0.4704	0.5776	0.51843	0.205
Mof_H 	H 	0.4356	0.5449	0.5163	-0.027
Mof_C 	C 	0.7864	0.7801	0.64207	-0.267
Mof_H 	H 	0.7564	0.7822	0.6391	0.126
Mof_C 	C 	0.5726	0.6707	0.52507	-0.338
Mof_H 	H 	0.6069	0.7036	0.5273	0.15
Mof_C 	C 	0.8795	0.7793	0.65012	0.162
Mof_H 	H 	0.9116	0.7797	0.6529	-0.011
Mof_C 	C 	0.7363	0.5729	0.63572	-0.388
Mof_H 	H 	0.7525	0.579	0.6306	0.169
Mof_C 	C 	0.8441	0.7308	0.64507	-0.245
Mof_H 	H 	0.8526	0.6994	0.6443	0.12
Mof_C 	C 	0.7339	0.6178	0.63945	0.282
Mof_C 	C 	0.4396	0.6478	0.5132	0.45
Mof_C 	C 	0.7879	0.7452	0.61586	0.156
Mof_H 	H 	0.8194	0.7773	0.6131	-0.008
Mof_C 	C 	0.6889	0.5518	0.65071	0.252
Mof_H 	H 	0.6718	0.5442	0.6558	-0.045
Mof_C 	C 	0.8212	0.8251	0.64713	0.179
Mof_H 	H 	0.8129	0.8566	0.648	-0.018
Mof_C 	C 	0.6435	0.5787	0.51738	-0.203
Mof_H 	H 	0.6445	0.6121	0.5149	0.105
Mof_C 	C 	0.7939	0.7408	0.62381	-0.24
Mof_H 	H 	0.8268	0.7715	0.6266	0.12
Mof_C 	C 	0.7098	0.6094	0.64728	-0.317
Mof_H 	H 	0.708	0.6405	0.65	0.146
Mof_C 	C 	0.5299	0.6797	0.52109	0.256
Mof_H 	H 	0.5368	0.7194	0.5208	-0.045
Mof_C 	C 	0.1252	0.897	0.58216	0.374
Mof_C 	C 	0.6239	0.5147	0.52883	-0.213
Mof_H 	H 	0.6119	0.5057	0.5342	0.106
Mof_C 	C 	0.6599	0.5396	0.51286	0.109
Mof_H 	H 	0.6747	0.5495	0.5077	0.006
Mof_O 	O 	0.1597	0.8847	0.57541	-0.356
Mof_C 	C 	0.0343	0.7934	0.57705	0.089
Mof_H 	H 	0.0594	0.7787	0.5753	0.019
Mof_C 	C 	0.9705	0.7611	0.57597	0.008
Mof_H 	H 	0.9487	0.7243	0.5733	0.034
Mof_C 	C 	0.9463	0.7919	0.57949	-0.101
Mof_C 	C 	0.0562	0.8471	0.58086	-0.092
Mof_O 	O 	0.9547	0.8809	0.6591	-0.492
Mof_O 	O 	0.8866	0.9143	0.65873	-0.516
Mof_C 	C 	0.8687	0.8263	0.65111	-0.23
Mof_O 	O 	0.1321	0.934	0.58715	-0.499
Mof_O 	O 	0.7142	0.8389	0.58154	-0.277
Mof_C 	C 	0.9694	0.7759	0.57136	-0.045
Mof_H 	H 	0.9461	0.7493	0.5673	0.047
Mof_C 	C 	0.0403	0.8158	0.57199	-0.122
Mof_H 	H 	0.0684	0.8208	0.568	0.076
Mof_Zn	Zn	0.32628	0.99245	0.92174	1.213
Mof_Zn	Zn	0.42418	0.02158	0.90823	1.213
Mof_Zn	Zn	0.35132	0.09099	0.90815	1.212
Mof_Zn	Zn	0.45131	0.1187	0.9219	1.212
Mof_Zn	Zn	0.98554	0.92099	0.83795	1.215
Mof_Zn	Zn	0.68649	0.27258	0.9994	1.217
Mof_O 	O 	0.38809	0.05624	0.91527	-0.958
Mof_O 	O 	0.26756	0.06012	0.91259	-0.498
Mof_O 	O 	0.39763	0.93903	0.91168	-0.52
Mof_O 	O 	0.34815	0.00511	0.93317	-0.51
Mof_O 	O 	0.31938	0.91164	0.91979	-0.522
Mof_O 	O 	0.40137	0.01243	0.89702	-0.521
Mof_O 	O 	0.2453	0.98571	0.92132	-0.508
Mof_O 	O 	0.51077	0.06103	0.9088	-0.502
Mof_O 	O 	0.53237	0.12873	0.91898	-0.49
Mof_O 	O 	0.43927	0.09113	0.93301	-0.51
Mof_C 	C 	0.17267	0.01453	0.9185	-0.233
Mof_O 	O 	0.32947	0.03773	0.89851	-0.524
Mof_C 	C 	0.23257	0.02013	0.91763	0.452
Mof_O 	O 	0.34607	0.74393	0.98079	-0.53
Mof_O 	O 	0.32697	0.73393	0.84875	-0.514
Mof_O 	O 	0.31947	0.77533	0.9913	-0.555
Mof_O 	O 	0.34497	0.79223	0.8378	-0.507
Mof_O 	O 	0.05397	0.93113	0.84427	-0.494
Mof_C 	C 	0.35447	0.90063	0.91619	0.472
Mof_C 	C 	0.34817	0.83923	0.91689	-0.271
Mof_C 	C 	0.15797	0.05283	0.91442	0.162
Mof_H 	H 	0.18557	0.08143	0.91083	-0.012
Mof_O 	O 	0.11837	0.03343	0.8445	-0.54
Mof_C 	C 	0.39577	0.04433	0.9364	0.435
Mof_S 	S 	0.66661	0.18576	0.91818	0.08
Mof_C 	C 	0.05807	0.00613	0.92063	0.222
Mof_C 	C 	0.33957	0.72573	0.91824	0.262
Mof_C 	C 	0.33667	0.99913	0.88618	-0.211
Mof_N 	N 	0.42327	0.01133	0.96968	-0.21
Mof_C 	C 	0.12937	0.97353	0.92366	0.165
Mof_H 	H 	0.13887	0.94813	0.92663	-0.01
Mof_C 	C 	0.38257	0.76953	0.91372	-0.308
Mof_H 	H 	0.40997	0.76183	0.91093	0.14
Mof_C 	C 	0.10087	0.04833	0.91573	-0.261
Mof_H 	H 	0.09227	0.07553	0.91313	0.126
Mof_C 	C 	0.38757	0.82663	0.91305	0.212
Mof_H 	H 	0.41837	0.85653	0.90993	-0.028
Mof_N 	N 	0.27547	0.93723	0.86273	-0.218
Mof_C 	C 	0.29757	0.95823	0.87047	0.208
Mof_C 	C 	0.07227	0.96783	0.92474	-0.254
Mof_H 	H 	0.04397	0.93833	0.92823	0.124
Mof_C 	C 	0.30427	0.79493	0.92159	0.215
Mof_H 	H 	0.27707	0.80253	0.92443	-0.03
Mof_C 	C 	0.35797	0.98843	0.94924	0.143
Mof_H 	H 	0.32237	0.96133	0.94653	-0.002
Mof_C 	C 	0.30057	0.73913	0.9221	-0.309
Mof_H 	H 	0.26997	0.70903	0.92523	0.141
Mof_C 	C 	0.33087	0.77873	0.84536	0.421
Mof_C 	C 	0.37027	0.98413	0.88088	0.142
Mof_H 	H 	0.40617	0.98623	0.88263	-0.005
Mof_C 	C 	0.40347	0.03733	0.94503	-0.214
Mof_C 	C 	0.14727	0.97053	0.85097	-0.301
Mof_C 	C 	0.23067	0.94693	0.85899	0.277
Mof_C 	C 	0.35817	0.01713	0.89449	0.43
Mof_C 	C 	0.36327	0.97853	0.95716	-0.229
Mof_H 	H 	0.33317	0.94433	0.95983	0.115
Mof_C 	C 	0.35917	0.84033	0.98021	-0.354
Mof_C 	C 	0.35137	0.96633	0.87304	-0.248
Mof_H 	H 	0.37637	0.96003	0.86953	0.12
Mof_C 	C 	0.31937	0.82083	0.84984	-0.195
Mof_C 	C 	0.30537	0.81073	0.858	0.124
Mof_H 	H 	0.30617	0.77863	0.86063	0.002
Mof_C 	C 	0.46167	0.06373	0.97452	0.205
Mof_C 	C 	0.41637	0.02243	0.96116	0.184
Mof_C 	C 	0.34237	0.78493	0.98436	0.52
Mof_C 	C 	0.54627	0.10453	0.91359	0.376
Mof_C 	C 	0.57137	0.21053	0.98996	0.412
Mof_C 	C 	0.29317	0.90003	0.85859	0.179
Mof_C 	C 	0.38217	0.85193	0.97264	0.301
Mof_H 	H 	0.38347	0.82083	0.96983	-0.058
Mof_C 	C 	0.26207	0.97303	0.87571	-0.241
Mof_H 	H 	0.22587	0.97003	0.87393	0.118
Mof_C 	C 	0.28207	0.99163	0.88334	0.151
Mof_H 	H 	0.25787	0.99953	0.88673	-0.01
Mof_C 	C 	0.18037	0.90103	0.85586	-0.309
Mof_H 	H 	0.17337	0.86143	0.85633	0.142
Mof_C 	C 	0.13707	0.91093	0.85176	0.206
Mof_H 	H 	0.10227	0.87823	0.84963	-0.026
Mof_C 	C 	0.45307	0.11343	0.9754	-0.267
Mof_H 	H 	0.42307	0.11553	0.97243	0.126
Mof_C 	C 	0.23927	0.00403	0.8584	-0.341
Mof_H 	H 	0.27357	0.03693	0.86063	0.15
Mof_C 	C 	0.54617	0.11263	0.98345	0.162
Mof_H 	H 	0.57827	0.11303	0.98623	-0.011
Mof_C 	C 	0.40297	0.90623	0.96905	-0.387
Mof_H 	H 	0.41917	0.91233	0.96393	0.169
Mof_C 	C 	0.51077	0.06413	0.9784	-0.246
Mof_H 	H 	0.51927	0.03273	0.97763	0.12
Mof_C 	C 	0.40057	0.95113	0.97278	0.282
Mof_C 	C 	0.10627	0.98113	0.84653	0.453
Mof_C 	C 	0.45457	0.07853	0.94919	0.157
Mof_H 	H 	0.48607	0.11063	0.94643	-0.008
Mof_C 	C 	0.35557	0.88513	0.98404	0.252
Mof_H 	H 	0.33847	0.87753	0.98913	-0.045
Mof_C 	C 	0.48787	0.15843	0.98046	0.179
Mof_H 	H 	0.47957	0.18993	0.98133	-0.018
Mof_C 	C 	0.31017	0.91203	0.85071	-0.203
Mof_H 	H 	0.31117	0.94543	0.84823	0.106
Mof_C 	C 	0.46057	0.07413	0.95714	-0.24
Mof_H 	H 	0.49347	0.10483	0.95993	0.12
Mof_C 	C 	0.37647	0.94273	0.98061	-0.316
Mof_H 	H 	0.37467	0.97383	0.98333	0.146
Mof_C 	C 	0.19657	0.01303	0.85442	0.253
Mof_H 	H 	0.20347	0.05273	0.85413	-0.045
Mof_C 	C 	0.79187	0.23033	0.91549	0.374
Mof_C 	C 	0.29057	0.84803	0.86216	-0.213
Mof_H 	H 	0.27857	0.83903	0.86753	0.106
Mof_C 	C 	0.32657	0.87293	0.84619	0.109
Mof_H 	H 	0.34137	0.88283	0.84103	0.006
Mof_O 	O 	0.82637	0.21803	0.90874	-0.356
Mof_C 	C 	0.70097	0.12673	0.91038	0.089
Mof_H 	H 	0.72607	0.11203	0.90863	0.019
Mof_C 	C 	0.63717	0.09443	0.9093	0.008
Mof_H 	H 	0.61537	0.05763	0.90663	0.034
Mof_C 	C 	0.61297	0.12523	0.91282	-0.101
Mof_C 	C 	0.72287	0.18043	0.91419	-0.091
Mof_O 	O 	0.62137	0.21423	0.99243	-0.492
Mof_O 	O 	0.55327	0.24763	0.99206	-0.516
Mof_C 	C 	0.53537	0.15963	0.98444	-0.23
Mof_O 	O 	0.79877	0.26733	0.92048	-0.499
Mof_O 	O 	0.38087	0.17223	0.91487	-0.277
Mof_C 	C 	0.63607	0.10923	0.90469	-0.046
Mof_H 	H 	0.61277	0.08263	0.90063	0.046
Mof_C 	C 	0.70697	0.14913	0.90532	-0.121
Mof_H 	H 	0.73507	0.15413	0.90133	0.075
Mof_Zn	Zn	0.99294	0.32579	0.25508	1.214
Mof_Zn	Zn	0.09084	0.35492	0.24156	1.213
Mof_Zn	Zn	0.01798	0.42433	0.24148	1.211
Mof_Zn	Zn	0.11797	0.45204	0.25523	1.212
Mof_Zn	Zn	0.6522	0.25433	0.17128	1.216
Mof_Zn	Zn	0.35315	0.60592	0.33273	1.217
Mof_O 	O 	0.05475	0.38958	0.2486	-0.958
Mof_O 	O 	0.93422	0.39346	0.24593	-0.496
Mof_O 	O 	0.06429	0.27237	0.24502	-0.52
Mof_O 	O 	0.01481	0.33845	0.26651	-0.511
Mof_O 	O 	0.98604	0.24498	0.25313	-0.519
Mof_O 	O 	0.06803	0.34577	0.23036	-0.521
Mof_O 	O 	0.91196	0.31905	0.25466	-0.509
Mof_O 	O 	0.17743	0.39437	0.24214	-0.502
Mof_O 	O 	0.19903	0.46207	0.25232	-0.49
Mof_O 	O 	0.10593	0.42447	0.26635	-0.509
Mof_C 	C 	0.83933	0.34787	0.25184	-0.232
Mof_O 	O 	0.99613	0.37107	0.23185	-0.521
Mof_C 	C 	0.89923	0.35347	0.25097	0.453
Mof_O 	O 	0.01273	0.07727	0.31413	-0.53
Mof_O 	O 	0.99363	0.06727	0.18209	-0.513
Mof_O 	O 	0.98613	0.10867	0.32464	-0.553
Mof_O 	O 	0.01163	0.12557	0.17114	-0.51
Mof_O 	O 	0.72063	0.26447	0.17761	-0.495
Mof_C 	C 	0.02113	0.23397	0.24953	0.469
Mof_C 	C 	0.01483	0.17257	0.25023	-0.273
Mof_C 	C 	0.82463	0.38617	0.24776	0.162
Mof_H 	H 	0.85223	0.41477	0.24417	-0.011
Mof_O 	O 	0.78503	0.36677	0.17784	-0.537
Mof_C 	C 	0.06243	0.37767	0.26974	0.435
Mof_S 	S 	0.33327	0.5191	0.25151	0.08
Mof_C 	C 	0.72473	0.33947	0.25397	0.223
Mof_C 	C 	0.00623	0.05907	0.25158	0.258
Mof_C 	C 	0.00333	0.33247	0.21952	-0.224
Mof_N 	N 	0.08993	0.34467	0.30302	-0.21
Mof_C 	C 	0.79603	0.30687	0.257	0.163
Mof_H 	H 	0.80553	0.28147	0.25997	-0.01
Mof_C 	C 	0.04923	0.10287	0.24706	-0.307
Mof_H 	H 	0.07663	0.09517	0.24427	0.14
Mof_C 	C 	0.76753	0.38167	0.24907	-0.261
Mof_H 	H 	0.75893	0.40887	0.24647	0.126
Mof_C 	C 	0.05423	0.15997	0.24639	0.211
Mof_H 	H 	0.08503	0.18987	0.24327	-0.028
Mof_N 	N 	0.94213	0.27057	0.19607	-0.22
Mof_C 	C 	0.96423	0.29157	0.20381	0.218
Mof_C 	C 	0.73893	0.30117	0.25808	-0.256
Mof_H 	H 	0.71063	0.27167	0.26157	0.123
Mof_C 	C 	0.97093	0.12827	0.25493	0.217
Mof_H 	H 	0.94373	0.13587	0.25777	-0.03
Mof_C 	C 	0.02463	0.32177	0.28258	0.138
Mof_H 	H 	0.98903	0.29467	0.27987	0.001
Mof_C 	C 	0.96723	0.07247	0.25544	-0.305
Mof_H 	H 	0.93663	0.04237	0.25857	0.14
Mof_C 	C 	0.99753	0.11207	0.1787	0.428
Mof_C 	C 	0.03693	0.31747	0.21422	0.152
Mof_H 	H 	0.07283	0.31957	0.21597	-0.009
Mof_C 	C 	0.07013	0.37067	0.27837	-0.212
Mof_C 	C 	0.81393	0.30387	0.18431	-0.305
Mof_C 	C 	0.89733	0.28027	0.19233	0.274
Mof_C 	C 	0.02483	0.35047	0.22783	0.432
Mof_C 	C 	0.02993	0.31187	0.2905	-0.23
Mof_H 	H 	0.99983	0.27767	0.29317	0.117
Mof_C 	C 	0.02583	0.17367	0.31355	-0.353
Mof_C 	C 	0.01803	0.29967	0.20638	-0.262
Mof_H 	H 	0.04303	0.29337	0.20287	0.123
Mof_C 	C 	0.98603	0.15417	0.18318	-0.201
Mof_C 	C 	0.97203	0.14407	0.19134	0.13
Mof_H 	H 	0.97283	0.11197	0.19397	0.001
Mof_C 	C 	0.12833	0.39707	0.30786	0.205
Mof_C 	C 	0.08303	0.35577	0.2945	0.184
Mof_C 	C 	0.00903	0.11827	0.3177	0.519
Mof_C 	C 	0.21293	0.43787	0.24693	0.376
Mof_C 	C 	0.23803	0.54387	0.3233	0.412
Mof_C 	C 	0.95983	0.23337	0.19193	0.183
Mof_C 	C 	0.04883	0.18527	0.30598	0.301
Mof_H 	H 	0.05013	0.15417	0.30317	-0.058
Mof_C 	C 	0.92873	0.30637	0.20905	-0.251
Mof_H 	H 	0.89253	0.30337	0.20727	0.121
Mof_C 	C 	0.94873	0.32497	0.21668	0.164
Mof_H 	H 	0.92453	0.33287	0.22007	-0.015
Mof_C 	C 	0.84703	0.23437	0.1892	-0.309
Mof_H 	H 	0.84003	0.19477	0.18967	0.142
Mof_C 	C 	0.80373	0.24427	0.1851	0.206
Mof_H 	H 	0.76893	0.21157	0.18297	-0.027
Mof_C 	C 	0.11973	0.44677	0.30874	-0.267
Mof_H 	H 	0.08973	0.44887	0.30577	0.126
Mof_C 	C 	0.90593	0.33737	0.19174	-0.338
Mof_H 	H 	0.94023	0.37027	0.19397	0.151
Mof_C 	C 	0.21283	0.44597	0.31679	0.162
Mof_H 	H 	0.24493	0.44637	0.31957	-0.011
Mof_C 	C 	0.06963	0.23957	0.30239	-0.387
Mof_H 	H 	0.08583	0.24567	0.29727	0.169
Mof_C 	C 	0.17743	0.39747	0.31174	-0.246
Mof_H 	H 	0.18593	0.36607	0.31097	0.12
Mof_C 	C 	0.06723	0.28447	0.30612	0.281
Mof_C 	C 	0.77293	0.31447	0.17987	0.45
Mof_C 	C 	0.12123	0.41187	0.28253	0.155
Mof_H 	H 	0.15273	0.44397	0.27977	-0.008
Mof_C 	C 	0.02223	0.21847	0.31738	0.251
Mof_H 	H 	0.00513	0.21087	0.32247	-0.045
Mof_C 	C 	0.15453	0.49177	0.3138	0.179
Mof_H 	H 	0.14623	0.52327	0.31467	-0.018
Mof_C 	C 	0.97683	0.24537	0.18405	-0.209
Mof_H 	H 	0.97783	0.27877	0.18157	0.108
Mof_C 	C 	0.12723	0.40747	0.29048	-0.24
Mof_H 	H 	0.16013	0.43817	0.29327	0.119
Mof_C 	C 	0.04313	0.27607	0.31395	-0.316
Mof_H 	H 	0.04133	0.30717	0.31667	0.146
Mof_C 	C 	0.86323	0.34637	0.18776	0.257
Mof_H 	H 	0.87013	0.38607	0.18747	-0.045
Mof_C 	C 	0.45853	0.56367	0.24883	0.373
Mof_C 	C 	0.95723	0.18137	0.1955	-0.217
Mof_H 	H 	0.94523	0.17237	0.20087	0.108
Mof_C 	C 	0.99323	0.20627	0.17953	0.12
Mof_H 	H 	0.00803	0.21617	0.17437	-0.001
Mof_O 	O 	0.49303	0.55137	0.24208	-0.356
Mof_C 	C 	0.36763	0.46007	0.24372	0.089
Mof_H 	H 	0.39273	0.44537	0.24197	0.019
Mof_C 	C 	0.30383	0.42777	0.24264	0.008
Mof_H 	H 	0.28203	0.39097	0.23997	0.034
Mof_C 	C 	0.27963	0.45857	0.24616	-0.101
Mof_C 	C 	0.38953	0.51377	0.24753	-0.091
Mof_O 	O 	0.28803	0.54757	0.32577	-0.493
Mof_O 	O 	0.21993	0.58097	0.3254	-0.517
Mof_C 	C 	0.20203	0.49297	0.31778	-0.23
Mof_O 	O 	0.46543	0.60067	0.25382	-0.499
Mof_O 	O 	0.04753	0.50557	0.24821	-0.278
Mof_C 	C 	0.30273	0.44257	0.23803	-0.046
Mof_H 	H 	0.27943	0.41597	0.23397	0.047
Mof_C 	C 	0.37363	0.48247	0.23866	-0.122
Mof_H 	H 	0.40173	0.48747	0.23467	0.076
Mof_Zn	Zn	-0	3.49425e-32	0.31853	1.216
Mof_O 	O 	-0	0	0.33009	-0.952
Mof_Zn	Zn	0.66667	0.33333	0.65186	1.216
Mof_O 	O 	0.66667	0.33333	0.66342	-0.95
Mof_Zn	Zn	0.33333	0.66667	0.9852	1.216
Mof_O 	O 	0.33333	0.66667	0.99676	-0.951
Mof_Zn	Zn	3.49425e-32	6.9885e-32	0.68147	1.216
Mof_O 	O 	-6.9885e-32	0	0.66991	-0.952
Mof_Zn	Zn	0.66667	0.33333	0.0148	1.216
Mof_O 	O 	0.66667	0.33333	0.00324	-0.951
Mof_Zn	Zn	0.33333	0.66667	0.34814	1.216
Mof_O 	O 	0.33333	0.66667	0.33658	-0.95
Mof_Zn	Zn	0.66667	0.33333	0.5107	1.212
Mof_O 	O 	0.66667	0.33333	0.49922	-0.96
Mof_N 	N 	0.66667	0.33333	0.41183	-0.221
Mof_Zn	Zn	0.33333	0.66667	0.84403	1.212
Mof_O 	O 	0.33333	0.66667	0.83255	-0.96
Mof_N 	N 	0.33333	0.66667	0.74516	-0.22
Mof_Zn	Zn	-0	1.74713e-32	0.17737	1.212
Mof_O 	O 	2.62069e-32	1.74713e-32	0.16589	-0.959
Mof_N 	N 	-0	0	0.0785	-0.217
Mof_Zn	Zn	0.33333	0.66667	0.4893	1.212
Mof_O 	O 	0.33333	0.66667	0.50078	-0.96
Mof_N 	N 	0.33333	0.66667	0.58817	-0.221
Mof_Zn	Zn	-6.9885e-32	0	0.82263	1.212
Mof_O 	O 	-0	0	0.83411	-0.959
Mof_N 	N 	6.9885e-32	0	0.9215	-0.217
Mof_Zn	Zn	0.66667	0.33333	0.15597	1.212
Mof_O 	O 	0.66667	0.33333	0.16745	-0.96
Mof_N 	N 	0.66667	0.33333	0.25484	-0.22
Mof_N 	N 	0.33333	0.66667	0.41448	-0.235
Mof_N 	N 	-3.49425e-32	6.9885e-32	0.74781	-0.235
Mof_N 	N 	0.66667	0.33333	0.08115	-0.235
Mof_N 	N 	0.66667	0.33333	0.58552	-0.235
Mof_N 	N 	0.33333	0.66667	0.91885	-0.235
Mof_N 	N 	1.74713e-32	0	0.25219	-0.235
_end
