# CIF file generated by openbabel 3.1.0, see https://openbabel.org
data_I
_chemical_name_common 'image0'
_cell_length_a 43.986
_cell_length_b 14.1893
_cell_length_c 26.3617
_cell_angle_alpha 90
_cell_angle_beta 107.283
_cell_angle_gamma 90
_space_group_name_H-M_alt 'P 1'
_space_group_name_Hall 'P 1'
loop_
    _symmetry_equiv_pos_as_xyz
    x,y,z
loop_
    _atom_site_label
    _atom_site_type_symbol
    _atom_site_fract_x
    _atom_site_fract_y
    _atom_site_fract_z
    _atom_site_occupancy
    O1       O        0.26000    0.09190    0.72810    1.000
    H1       H        0.25540    0.06640    0.75370    1.000
    Ca1      Ca       0.13716    0.15554    0.43964    1.000
    Ca2      Ca       0.20968    0.30803    0.45716    1.000
    Ca3      Ca       0.05499    0.22706    0.34374    1.000
    C1       C        0.05722    0.44810    0.11353    1.000
    C2       C        0.07011    0.44130    0.16890    1.000
    C3       C        0.06039    0.37030    0.19601    1.000
    H2       H        0.06970    0.36650    0.23340    1.000
    C4       C        0.03796    0.30480    0.17162    1.000
    C5       C        0.02610    0.30740    0.11740    1.000
    H3       H        0.01110    0.26170    0.09890    1.000
    C6       C        0.03645    0.37900    0.09000    1.000
    H4       H        0.02840    0.37920    0.05230    1.000
    O2       O        0.09292    0.50260    0.19529    1.000
    C7       C        0.02611    0.23360    0.20301    1.000
    O3       O        0.04203    0.21670    0.25001    1.000
    O4       O        0.00075    0.18910    0.18061    1.000
    C8       C        0.06454    0.52860    0.08176    1.000
    C9       C        0.09456    0.56730    0.08900    1.000
    C10      C        0.09925    0.63620    0.05490    1.000
    H5       H        0.11990    0.66220    0.06060    1.000
    C11      C        0.07444    0.66760    0.01273    1.000
    C12      C        0.04448    0.63300    0.00700    1.000
    H6       H        0.02690    0.65510    0.97900    1.000
    C13      C        0.03985    0.56670    0.04170    1.000
    H7       H        0.01880    0.54600    0.03800    1.000
    O5       O        0.12028    0.53870    0.12840    1.000
    H8       H        0.11490    0.49630    0.14630    1.000
    C14      C        0.08005    0.74230    0.97478    1.000
    O6       O        0.05816    0.75450    0.93236    1.000
    O7       O        0.10626    0.78320    0.98834    1.000
    C15      C        0.10980    0.63730    0.35880    1.000
    C16      C        0.09941    0.57020    0.31830    1.000
    C17      C        0.10640    0.47490    0.33040    1.000
    H9       H        0.09890    0.42910    0.30330    1.000
    C18      C        0.12369    0.44590    0.38024    1.000
    C19      C        0.13577    0.51300    0.41950    1.000
    H10      H        0.14920    0.49440    0.45330    1.000
    C20      C        0.12814    0.60680    0.40910    1.000
    H11      H        0.13550    0.65170    0.43670    1.000
    O8       O        0.08397    0.59640    0.26900    1.000
    H12      H        0.07960    0.54860    0.24940    1.000
    C21      C        0.12892    0.34330    0.39246    1.000
    O9       O        0.15356    0.31722    0.42710    1.000
    O10      O        0.10780    0.28545    0.36810    1.000
    C22      C        0.10074    0.73970    0.35040    1.000
    C23      C        0.07029    0.76980    0.32360    1.000
    C24      C        0.06206    0.86350    0.32400    1.000
    H13      H        0.04070    0.88230    0.30720    1.000
    C25      C        0.08454    0.93100    0.34864    1.000
    C26      C        0.11540    0.90300    0.37210    1.000
    H14      H        0.13130    0.94860    0.38730    1.000
    C27      C        0.12352    0.80800    0.37360    1.000
    H15      H        0.14490    0.78940    0.39060    1.000
    O11      O        0.04704    0.70800    0.29520    1.000
    H16      H        0.03020    0.73790    0.28090    1.000
    C28      C        0.07495    0.03130    0.34748    1.000
    O12      O        0.09385    0.09165    0.37473    1.000
    O13      O        0.04699    0.05577    0.32040    1.000
    C29      C        0.20488    0.06290    0.68850    1.000
    C30      C        0.23286    0.09430    0.68360    1.000
    C31      C        0.23510    0.13400    0.63710    1.000
    H17      H        0.25510    0.15510    0.63470    1.000
    C32      C        0.20803    0.14310    0.59398    1.000
    C33      C        0.17882    0.12360    0.60030    1.000
    H18      H        0.15990    0.14060    0.57330    1.000
    C34      C        0.17688    0.07880    0.64620    1.000
    H19      H        0.15680    0.05900    0.64900    1.000
    C35      C        0.20995    0.18100    0.54173    1.000
    O14      O        0.23622    0.20090    0.53589    1.000
    O15      O        0.18458    0.19590    0.50604    1.000
    C36      C        0.20202    0.01370    0.73750    1.000
    O16      O        0.17200    0.15710    0.76310    1.000
    H20      H        0.17500    0.18230    0.73610    1.000
    C37      C        0.18160    0.05510    0.76550    1.000
    C38      C        0.17810    0.00270    0.80920    1.000
    H21      H        0.16370    0.02460    0.82720    1.000
    C39      C        0.19506    0.92070    0.82680    1.000
    C40      C        0.21301    0.88540    0.79830    1.000
    H22      H        0.22340    0.82650    0.80800    1.000
    C41      C        0.21670    0.93460    0.75420    1.000
    H23      H        0.23040    0.90920    0.73580    1.000
    C42      C        0.18965    0.86750    0.87278    1.000
    O17      O        0.20575    0.79580    0.88874    1.000
    O18      O        0.16918    0.90120    0.89221    1.000
    H24      H        0.25150    0.08880    0.71300    1.000
    O19      O        0.14590    0.06980    0.65310    1.000
    H25      H        0.13220    0.09230    0.62650    1.000
    H26      H        0.17110    0.11360    0.75520    1.000
    O20      O        0.23720    0.89000    0.72720    1.000
    H27      H        0.24470    0.84000    0.74310    1.000
    O21      O        0.76000    0.59190    0.72810    1.000
    H28      H        0.75540    0.56640    0.75370    1.000
    Ca4      Ca       0.63716    0.65554    0.43964    1.000
    Ca5      Ca       0.70968    0.80803    0.45716    1.000
    Ca6      Ca       0.55499    0.72706    0.34374    1.000
    C43      C        0.55722    0.94810    0.11353    1.000
    C44      C        0.57011    0.94130    0.16890    1.000
    C45      C        0.56039    0.87030    0.19601    1.000
    H29      H        0.56970    0.86650    0.23340    1.000
    C46      C        0.53796    0.80480    0.17162    1.000
    C47      C        0.52610    0.80740    0.11740    1.000
    H30      H        0.51110    0.76170    0.09890    1.000
    C48      C        0.53645    0.87900    0.09000    1.000
    H31      H        0.52840    0.87920    0.05230    1.000
    O22      O        0.59292    0.00260    0.19529    1.000
    C49      C        0.52611    0.73360    0.20301    1.000
    O23      O        0.54203    0.71670    0.25001    1.000
    O24      O        0.50075    0.68910    0.18061    1.000
    C50      C        0.56454    0.02860    0.08176    1.000
    C51      C        0.59456    0.06730    0.08900    1.000
    C52      C        0.59925    0.13620    0.05490    1.000
    H32      H        0.61990    0.16220    0.06060    1.000
    C53      C        0.57444    0.16760    0.01273    1.000
    C54      C        0.54448    0.13300    0.00700    1.000
    H33      H        0.52690    0.15510    0.97900    1.000
    C55      C        0.53985    0.06670    0.04170    1.000
    H34      H        0.51880    0.04600    0.03800    1.000
    O25      O        0.62028    0.03870    0.12840    1.000
    H35      H        0.61490    0.99630    0.14630    1.000
    C56      C        0.58005    0.24230    0.97478    1.000
    O26      O        0.55816    0.25450    0.93236    1.000
    O27      O        0.60626    0.28320    0.98834    1.000
    C57      C        0.60980    0.13730    0.35880    1.000
    C58      C        0.59941    0.07020    0.31830    1.000
    C59      C        0.60640    0.97490    0.33040    1.000
    H36      H        0.59890    0.92910    0.30330    1.000
    C60      C        0.62369    0.94590    0.38024    1.000
    C61      C        0.63577    0.01300    0.41950    1.000
    H37      H        0.64920    0.99440    0.45330    1.000
    C62      C        0.62814    0.10680    0.40910    1.000
    H38      H        0.63550    0.15170    0.43670    1.000
    O28      O        0.58397    0.09640    0.26900    1.000
    H39      H        0.57960    0.04860    0.24940    1.000
    C63      C        0.62892    0.84330    0.39246    1.000
    O29      O        0.65356    0.81722    0.42710    1.000
    O30      O        0.60780    0.78545    0.36810    1.000
    C64      C        0.60074    0.23970    0.35040    1.000
    C65      C        0.57029    0.26980    0.32360    1.000
    C66      C        0.56206    0.36350    0.32400    1.000
    H40      H        0.54070    0.38230    0.30720    1.000
    C67      C        0.58454    0.43100    0.34864    1.000
    C68      C        0.61540    0.40300    0.37210    1.000
    H41      H        0.63130    0.44860    0.38730    1.000
    C69      C        0.62352    0.30800    0.37360    1.000
    H42      H        0.64490    0.28940    0.39060    1.000
    O31      O        0.54704    0.20800    0.29520    1.000
    H43      H        0.53020    0.23790    0.28090    1.000
    C70      C        0.57495    0.53130    0.34748    1.000
    O32      O        0.59385    0.59165    0.37473    1.000
    O33      O        0.54699    0.55577    0.32040    1.000
    C71      C        0.70488    0.56290    0.68850    1.000
    C72      C        0.73286    0.59430    0.68360    1.000
    C73      C        0.73510    0.63400    0.63710    1.000
    H44      H        0.75510    0.65510    0.63470    1.000
    C74      C        0.70803    0.64310    0.59398    1.000
    C75      C        0.67882    0.62360    0.60030    1.000
    H45      H        0.65990    0.64060    0.57330    1.000
    C76      C        0.67688    0.57880    0.64620    1.000
    H46      H        0.65680    0.55900    0.64900    1.000
    C77      C        0.70995    0.68100    0.54173    1.000
    O34      O        0.73622    0.70090    0.53589    1.000
    O35      O        0.68458    0.69590    0.50604    1.000
    C78      C        0.70202    0.51370    0.73750    1.000
    O36      O        0.67200    0.65710    0.76310    1.000
    H47      H        0.67500    0.68230    0.73610    1.000
    C79      C        0.68160    0.55510    0.76550    1.000
    C80      C        0.67810    0.50270    0.80920    1.000
    H48      H        0.66370    0.52460    0.82720    1.000
    C81      C        0.69506    0.42070    0.82680    1.000
    C82      C        0.71301    0.38540    0.79830    1.000
    H49      H        0.72340    0.32650    0.80800    1.000
    C83      C        0.71670    0.43460    0.75420    1.000
    H50      H        0.73040    0.40920    0.73580    1.000
    C84      C        0.68965    0.36750    0.87278    1.000
    O37      O        0.70575    0.29580    0.88874    1.000
    O38      O        0.66918    0.40120    0.89221    1.000
    H51      H        0.75150    0.58880    0.71300    1.000
    O39      O        0.64590    0.56980    0.65310    1.000
    H52      H        0.63220    0.59230    0.62650    1.000
    H53      H        0.67110    0.61360    0.75520    1.000
    O40      O        0.73720    0.39000    0.72720    1.000
    H54      H        0.74470    0.34000    0.74310    1.000
    O41      O        0.74000    0.09190    0.77190    1.000
    H55      H        0.74460    0.06640    0.74630    1.000
    Ca7      Ca       0.86284    0.15554    0.06036    1.000
    Ca8      Ca       0.79032    0.30803    0.04284    1.000
    Ca9      Ca       0.94501    0.22706    0.15626    1.000
    C85      C        0.94278    0.44810    0.38647    1.000
    C86      C        0.92989    0.44130    0.33110    1.000
    C87      C        0.93961    0.37030    0.30399    1.000
    H56      H        0.93030    0.36650    0.26660    1.000
    C88      C        0.96204    0.30480    0.32838    1.000
    C89      C        0.97390    0.30740    0.38260    1.000
    H57      H        0.98890    0.26170    0.40110    1.000
    C90      C        0.96355    0.37900    0.41000    1.000
    H58      H        0.97160    0.37920    0.44770    1.000
    O42      O        0.90708    0.50260    0.30471    1.000
    C91      C        0.97389    0.23360    0.29699    1.000
    O43      O        0.95797    0.21670    0.24999    1.000
    O44      O        0.99925    0.18910    0.31939    1.000
    C92      C        0.93546    0.52860    0.41824    1.000
    C93      C        0.90544    0.56730    0.41100    1.000
    C94      C        0.90075    0.63620    0.44510    1.000
    H59      H        0.88010    0.66220    0.43940    1.000
    C95      C        0.92556    0.66760    0.48727    1.000
    C96      C        0.95552    0.63300    0.49300    1.000
    H60      H        0.97310    0.65510    0.52100    1.000
    C97      C        0.96015    0.56670    0.45830    1.000
    H61      H        0.98120    0.54600    0.46200    1.000
    O45      O        0.87972    0.53870    0.37160    1.000
    H62      H        0.88510    0.49630    0.35370    1.000
    C98      C        0.91995    0.74230    0.52522    1.000
    O46      O        0.94184    0.75450    0.56764    1.000
    O47      O        0.89374    0.78320    0.51166    1.000
    C99      C        0.89020    0.63730    0.14120    1.000
    C100     C        0.90059    0.57020    0.18170    1.000
    C101     C        0.89360    0.47490    0.16960    1.000
    H63      H        0.90110    0.42910    0.19670    1.000
    C102     C        0.87631    0.44590    0.11976    1.000
    C103     C        0.86423    0.51300    0.08050    1.000
    H64      H        0.85080    0.49440    0.04670    1.000
    C104     C        0.87186    0.60680    0.09090    1.000
    H65      H        0.86450    0.65170    0.06330    1.000
    O48      O        0.91603    0.59640    0.23100    1.000
    H66      H        0.92040    0.54860    0.25060    1.000
    C105     C        0.87108    0.34330    0.10754    1.000
    O49      O        0.84644    0.31722    0.07290    1.000
    O50      O        0.89220    0.28545    0.13190    1.000
    C106     C        0.89926    0.73970    0.14960    1.000
    C107     C        0.92971    0.76980    0.17640    1.000
    C108     C        0.93794    0.86350    0.17600    1.000
    H67      H        0.95930    0.88230    0.19280    1.000
    C109     C        0.91546    0.93100    0.15136    1.000
    C110     C        0.88460    0.90300    0.12790    1.000
    H68      H        0.86870    0.94860    0.11270    1.000
    C111     C        0.87648    0.80800    0.12640    1.000
    H69      H        0.85510    0.78940    0.10940    1.000
    O51      O        0.95296    0.70800    0.20480    1.000
    H70      H        0.96980    0.73790    0.21910    1.000
    C112     C        0.92505    0.03130    0.15252    1.000
    O52      O        0.90615    0.09165    0.12527    1.000
    O53      O        0.95301    0.05577    0.17960    1.000
    C113     C        0.79512    0.06290    0.81150    1.000
    C114     C        0.76714    0.09430    0.81640    1.000
    C115     C        0.76490    0.13400    0.86290    1.000
    H71      H        0.74490    0.15510    0.86530    1.000
    C116     C        0.79197    0.14310    0.90602    1.000
    C117     C        0.82118    0.12360    0.89970    1.000
    H72      H        0.84010    0.14060    0.92670    1.000
    C118     C        0.82312    0.07880    0.85380    1.000
    H73      H        0.84320    0.05900    0.85100    1.000
    C119     C        0.79005    0.18100    0.95827    1.000
    O54      O        0.76378    0.20090    0.96411    1.000
    O55      O        0.81542    0.19590    0.99396    1.000
    C120     C        0.79798    0.01370    0.76250    1.000
    O56      O        0.82800    0.15710    0.73690    1.000
    H74      H        0.82500    0.18230    0.76390    1.000
    C121     C        0.81840    0.05510    0.73450    1.000
    C122     C        0.82190    0.00270    0.69080    1.000
    H75      H        0.83630    0.02460    0.67280    1.000
    C123     C        0.80494    0.92070    0.67320    1.000
    C124     C        0.78699    0.88540    0.70170    1.000
    H76      H        0.77660    0.82650    0.69200    1.000
    C125     C        0.78330    0.93460    0.74580    1.000
    H77      H        0.76960    0.90920    0.76420    1.000
    C126     C        0.81035    0.86750    0.62722    1.000
    O57      O        0.79425    0.79580    0.61126    1.000
    O58      O        0.83082    0.90120    0.60779    1.000
    H78      H        0.74850    0.08880    0.78700    1.000
    O59      O        0.85410    0.06980    0.84690    1.000
    H79      H        0.86780    0.09230    0.87350    1.000
    H80      H        0.82890    0.11360    0.74480    1.000
    O60      O        0.76280    0.89000    0.77280    1.000
    H81      H        0.75530    0.84000    0.75690    1.000
    O61      O        0.24000    0.59190    0.77190    1.000
    H82      H        0.24460    0.56640    0.74630    1.000
    Ca10     Ca       0.36284    0.65554    0.06036    1.000
    Ca11     Ca       0.29032    0.80803    0.04284    1.000
    Ca12     Ca       0.44501    0.72706    0.15626    1.000
    C127     C        0.44278    0.94810    0.38647    1.000
    C128     C        0.42989    0.94130    0.33110    1.000
    C129     C        0.43961    0.87030    0.30399    1.000
    H83      H        0.43030    0.86650    0.26660    1.000
    C130     C        0.46204    0.80480    0.32838    1.000
    C131     C        0.47390    0.80740    0.38260    1.000
    H84      H        0.48890    0.76170    0.40110    1.000
    C132     C        0.46355    0.87900    0.41000    1.000
    H85      H        0.47160    0.87920    0.44770    1.000
    O62      O        0.40708    0.00260    0.30471    1.000
    C133     C        0.47389    0.73360    0.29699    1.000
    O63      O        0.45797    0.71670    0.24999    1.000
    O64      O        0.49925    0.68910    0.31939    1.000
    C134     C        0.43546    0.02860    0.41824    1.000
    C135     C        0.40544    0.06730    0.41100    1.000
    C136     C        0.40075    0.13620    0.44510    1.000
    H86      H        0.38010    0.16220    0.43940    1.000
    C137     C        0.42556    0.16760    0.48727    1.000
    C138     C        0.45552    0.13300    0.49300    1.000
    H87      H        0.47310    0.15510    0.52100    1.000
    C139     C        0.46015    0.06670    0.45830    1.000
    H88      H        0.48120    0.04600    0.46200    1.000
    O65      O        0.37972    0.03870    0.37160    1.000
    H89      H        0.38510    0.99630    0.35370    1.000
    C140     C        0.41995    0.24230    0.52522    1.000
    O66      O        0.44184    0.25450    0.56764    1.000
    O67      O        0.39374    0.28320    0.51166    1.000
    C141     C        0.39020    0.13730    0.14120    1.000
    C142     C        0.40059    0.07020    0.18170    1.000
    C143     C        0.39360    0.97490    0.16960    1.000
    H90      H        0.40110    0.92910    0.19670    1.000
    C144     C        0.37631    0.94590    0.11976    1.000
    C145     C        0.36423    0.01300    0.08050    1.000
    H91      H        0.35080    0.99440    0.04670    1.000
    C146     C        0.37186    0.10680    0.09090    1.000
    H92      H        0.36450    0.15170    0.06330    1.000
    O68      O        0.41603    0.09640    0.23100    1.000
    H93      H        0.42040    0.04860    0.25060    1.000
    C147     C        0.37108    0.84330    0.10754    1.000
    O69      O        0.34644    0.81722    0.07290    1.000
    O70      O        0.39220    0.78545    0.13190    1.000
    C148     C        0.39926    0.23970    0.14960    1.000
    C149     C        0.42971    0.26980    0.17640    1.000
    C150     C        0.43794    0.36350    0.17600    1.000
    H94      H        0.45930    0.38230    0.19280    1.000
    C151     C        0.41546    0.43100    0.15136    1.000
    C152     C        0.38460    0.40300    0.12790    1.000
    H95      H        0.36870    0.44860    0.11270    1.000
    C153     C        0.37648    0.30800    0.12640    1.000
    H96      H        0.35510    0.28940    0.10940    1.000
    O71      O        0.45296    0.20800    0.20480    1.000
    H97      H        0.46980    0.23790    0.21910    1.000
    C154     C        0.42505    0.53130    0.15252    1.000
    O72      O        0.40615    0.59165    0.12527    1.000
    O73      O        0.45301    0.55577    0.17960    1.000
    C155     C        0.29512    0.56290    0.81150    1.000
    C156     C        0.26714    0.59430    0.81640    1.000
    C157     C        0.26490    0.63400    0.86290    1.000
    H98      H        0.24490    0.65510    0.86530    1.000
    C158     C        0.29197    0.64310    0.90602    1.000
    C159     C        0.32118    0.62360    0.89970    1.000
    H99      H        0.34010    0.64060    0.92670    1.000
    C160     C        0.32312    0.57880    0.85380    1.000
    H100     H        0.34320    0.55900    0.85100    1.000
    C161     C        0.29005    0.68100    0.95827    1.000
    O74      O        0.26378    0.70090    0.96411    1.000
    O75      O        0.31542    0.69590    0.99396    1.000
    C162     C        0.29798    0.51370    0.76250    1.000
    O76      O        0.32800    0.65710    0.73690    1.000
    H101     H        0.32500    0.68230    0.76390    1.000
    C163     C        0.31840    0.55510    0.73450    1.000
    C164     C        0.32190    0.50270    0.69080    1.000
    H102     H        0.33630    0.52460    0.67280    1.000
    C165     C        0.30494    0.42070    0.67320    1.000
    C166     C        0.28699    0.38540    0.70170    1.000
    H103     H        0.27660    0.32650    0.69200    1.000
    C167     C        0.28330    0.43460    0.74580    1.000
    H104     H        0.26960    0.40920    0.76420    1.000
    C168     C        0.31035    0.36750    0.62722    1.000
    O77      O        0.29425    0.29580    0.61126    1.000
    O78      O        0.33082    0.40120    0.60779    1.000
    H105     H        0.24850    0.58880    0.78700    1.000
    O79      O        0.35410    0.56980    0.84690    1.000
    H106     H        0.36780    0.59230    0.87350    1.000
    H107     H        0.32890    0.61360    0.74480    1.000
    O80      O        0.26280    0.39000    0.77280    1.000
    H108     H        0.25530    0.34000    0.75690    1.000
    O81      O        0.74000    0.90810    0.27190    1.000
    H109     H        0.74460    0.93360    0.24630    1.000
    Ca13     Ca       0.86284    0.84446    0.56036    1.000
    Ca14     Ca       0.79032    0.69197    0.54284    1.000
    Ca15     Ca       0.94501    0.77294    0.65626    1.000
    C169     C        0.94278    0.55190    0.88647    1.000
    C170     C        0.92989    0.55870    0.83110    1.000
    C171     C        0.93961    0.62970    0.80399    1.000
    H110     H        0.93030    0.63350    0.76660    1.000
    C172     C        0.96204    0.69520    0.82838    1.000
    C173     C        0.97390    0.69260    0.88260    1.000
    H111     H        0.98890    0.73830    0.90110    1.000
    C174     C        0.96355    0.62100    0.91000    1.000
    H112     H        0.97160    0.62080    0.94770    1.000
    O82      O        0.90708    0.49740    0.80471    1.000
    C175     C        0.97389    0.76640    0.79699    1.000
    O83      O        0.95797    0.78330    0.74999    1.000
    O84      O        0.99925    0.81090    0.81939    1.000
    C176     C        0.93546    0.47140    0.91824    1.000
    C177     C        0.90544    0.43270    0.91100    1.000
    C178     C        0.90075    0.36380    0.94510    1.000
    H113     H        0.88010    0.33780    0.93940    1.000
    C179     C        0.92556    0.33240    0.98727    1.000
    C180     C        0.95552    0.36700    0.99300    1.000
    H114     H        0.97310    0.34490    0.02100    1.000
    C181     C        0.96015    0.43330    0.95830    1.000
    H115     H        0.98120    0.45400    0.96200    1.000
    O85      O        0.87972    0.46130    0.87160    1.000
    H116     H        0.88510    0.50370    0.85370    1.000
    C182     C        0.91995    0.25770    0.02522    1.000
    O86      O        0.94184    0.24550    0.06764    1.000
    O87      O        0.89374    0.21680    0.01166    1.000
    C183     C        0.89020    0.36270    0.64120    1.000
    C184     C        0.90059    0.42980    0.68170    1.000
    C185     C        0.89360    0.52510    0.66960    1.000
    H117     H        0.90110    0.57090    0.69670    1.000
    C186     C        0.87631    0.55410    0.61976    1.000
    C187     C        0.86423    0.48700    0.58050    1.000
    H118     H        0.85080    0.50560    0.54670    1.000
    C188     C        0.87186    0.39320    0.59090    1.000
    H119     H        0.86450    0.34830    0.56330    1.000
    O88      O        0.91603    0.40360    0.73100    1.000
    H120     H        0.92040    0.45140    0.75060    1.000
    C189     C        0.87108    0.65670    0.60754    1.000
    O89      O        0.84644    0.68278    0.57290    1.000
    O90      O        0.89220    0.71455    0.63190    1.000
    C190     C        0.89926    0.26030    0.64960    1.000
    C191     C        0.92971    0.23020    0.67640    1.000
    C192     C        0.93794    0.13650    0.67600    1.000
    H121     H        0.95930    0.11770    0.69280    1.000
    C193     C        0.91546    0.06900    0.65136    1.000
    C194     C        0.88460    0.09700    0.62790    1.000
    H122     H        0.86870    0.05140    0.61270    1.000
    C195     C        0.87648    0.19200    0.62640    1.000
    H123     H        0.85510    0.21060    0.60940    1.000
    O91      O        0.95296    0.29200    0.70480    1.000
    H124     H        0.96980    0.26210    0.71910    1.000
    C196     C        0.92505    0.96870    0.65252    1.000
    O92      O        0.90615    0.90835    0.62527    1.000
    O93      O        0.95301    0.94423    0.67960    1.000
    C197     C        0.79512    0.93710    0.31150    1.000
    C198     C        0.76714    0.90570    0.31640    1.000
    C199     C        0.76490    0.86600    0.36290    1.000
    H125     H        0.74490    0.84490    0.36530    1.000
    C200     C        0.79197    0.85690    0.40602    1.000
    C201     C        0.82118    0.87640    0.39970    1.000
    H126     H        0.84010    0.85940    0.42670    1.000
    C202     C        0.82312    0.92120    0.35380    1.000
    H127     H        0.84320    0.94100    0.35100    1.000
    C203     C        0.79005    0.81900    0.45827    1.000
    O94      O        0.76378    0.79910    0.46411    1.000
    O95      O        0.81542    0.80410    0.49396    1.000
    C204     C        0.79798    0.98630    0.26250    1.000
    O96      O        0.82800    0.84290    0.23690    1.000
    H128     H        0.82500    0.81770    0.26390    1.000
    C205     C        0.81840    0.94490    0.23450    1.000
    C206     C        0.82190    0.99730    0.19080    1.000
    H129     H        0.83630    0.97540    0.17280    1.000
    C207     C        0.80494    0.07930    0.17320    1.000
    C208     C        0.78699    0.11460    0.20170    1.000
    H130     H        0.77660    0.17350    0.19200    1.000
    C209     C        0.78330    0.06540    0.24580    1.000
    H131     H        0.76960    0.09080    0.26420    1.000
    C210     C        0.81035    0.13250    0.12722    1.000
    O97      O        0.79425    0.20420    0.11126    1.000
    O98      O        0.83082    0.09880    0.10779    1.000
    H132     H        0.74850    0.91120    0.28700    1.000
    O99      O        0.85410    0.93020    0.34690    1.000
    H133     H        0.86780    0.90770    0.37350    1.000
    H134     H        0.82890    0.88640    0.24480    1.000
    O100     O        0.76280    0.11000    0.27280    1.000
    H135     H        0.75530    0.16000    0.25690    1.000
    O101     O        0.24000    0.40810    0.27190    1.000
    H136     H        0.24460    0.43360    0.24630    1.000
    Ca16     Ca       0.36284    0.34446    0.56036    1.000
    Ca17     Ca       0.29032    0.19197    0.54284    1.000
    Ca18     Ca       0.44501    0.27294    0.65626    1.000
    C211     C        0.44278    0.05190    0.88647    1.000
    C212     C        0.42989    0.05870    0.83110    1.000
    C213     C        0.43961    0.12970    0.80399    1.000
    H137     H        0.43030    0.13350    0.76660    1.000
    C214     C        0.46204    0.19520    0.82838    1.000
    C215     C        0.47390    0.19260    0.88260    1.000
    H138     H        0.48890    0.23830    0.90110    1.000
    C216     C        0.46355    0.12100    0.91000    1.000
    H139     H        0.47160    0.12080    0.94770    1.000
    O102     O        0.40708    0.99740    0.80471    1.000
    C217     C        0.47389    0.26640    0.79699    1.000
    O103     O        0.45797    0.28330    0.74999    1.000
    O104     O        0.49925    0.31090    0.81939    1.000
    C218     C        0.43546    0.97140    0.91824    1.000
    C219     C        0.40544    0.93270    0.91100    1.000
    C220     C        0.40075    0.86380    0.94510    1.000
    H140     H        0.38010    0.83780    0.93940    1.000
    C221     C        0.42556    0.83240    0.98727    1.000
    C222     C        0.45552    0.86700    0.99300    1.000
    H141     H        0.47310    0.84490    0.02100    1.000
    C223     C        0.46015    0.93330    0.95830    1.000
    H142     H        0.48120    0.95400    0.96200    1.000
    O105     O        0.37972    0.96130    0.87160    1.000
    H143     H        0.38510    0.00370    0.85370    1.000
    C224     C        0.41995    0.75770    0.02522    1.000
    O106     O        0.44184    0.74550    0.06764    1.000
    O107     O        0.39374    0.71680    0.01166    1.000
    C225     C        0.39020    0.86270    0.64120    1.000
    C226     C        0.40059    0.92980    0.68170    1.000
    C227     C        0.39360    0.02510    0.66960    1.000
    H144     H        0.40110    0.07090    0.69670    1.000
    C228     C        0.37631    0.05410    0.61976    1.000
    C229     C        0.36423    0.98700    0.58050    1.000
    H145     H        0.35080    0.00560    0.54670    1.000
    C230     C        0.37186    0.89320    0.59090    1.000
    H146     H        0.36450    0.84830    0.56330    1.000
    O108     O        0.41603    0.90360    0.73100    1.000
    H147     H        0.42040    0.95140    0.75060    1.000
    C231     C        0.37108    0.15670    0.60754    1.000
    O109     O        0.34644    0.18278    0.57290    1.000
    O110     O        0.39220    0.21455    0.63190    1.000
    C232     C        0.39926    0.76030    0.64960    1.000
    C233     C        0.42971    0.73020    0.67640    1.000
    C234     C        0.43794    0.63650    0.67600    1.000
    H148     H        0.45930    0.61770    0.69280    1.000
    C235     C        0.41546    0.56900    0.65136    1.000
    C236     C        0.38460    0.59700    0.62790    1.000
    H149     H        0.36870    0.55140    0.61270    1.000
    C237     C        0.37648    0.69200    0.62640    1.000
    H150     H        0.35510    0.71060    0.60940    1.000
    O111     O        0.45296    0.79200    0.70480    1.000
    H151     H        0.46980    0.76210    0.71910    1.000
    C238     C        0.42505    0.46870    0.65252    1.000
    O112     O        0.40615    0.40835    0.62527    1.000
    O113     O        0.45301    0.44423    0.67960    1.000
    C239     C        0.29512    0.43710    0.31150    1.000
    C240     C        0.26714    0.40570    0.31640    1.000
    C241     C        0.26490    0.36600    0.36290    1.000
    H152     H        0.24490    0.34490    0.36530    1.000
    C242     C        0.29197    0.35690    0.40602    1.000
    C243     C        0.32118    0.37640    0.39970    1.000
    H153     H        0.34010    0.35940    0.42670    1.000
    C244     C        0.32312    0.42120    0.35380    1.000
    H154     H        0.34320    0.44100    0.35100    1.000
    C245     C        0.29005    0.31900    0.45827    1.000
    O114     O        0.26378    0.29910    0.46411    1.000
    O115     O        0.31542    0.30410    0.49396    1.000
    C246     C        0.29798    0.48630    0.26250    1.000
    O116     O        0.32800    0.34290    0.23690    1.000
    H155     H        0.32500    0.31770    0.26390    1.000
    C247     C        0.31840    0.44490    0.23450    1.000
    C248     C        0.32190    0.49730    0.19080    1.000
    H156     H        0.33630    0.47540    0.17280    1.000
    C249     C        0.30494    0.57930    0.17320    1.000
    C250     C        0.28699    0.61460    0.20170    1.000
    H157     H        0.27660    0.67350    0.19200    1.000
    C251     C        0.28330    0.56540    0.24580    1.000
    H158     H        0.26960    0.59080    0.26420    1.000
    C252     C        0.31035    0.63250    0.12722    1.000
    O117     O        0.29425    0.70420    0.11126    1.000
    O118     O        0.33082    0.59880    0.10779    1.000
    H159     H        0.24850    0.41120    0.28700    1.000
    O119     O        0.35410    0.43020    0.34690    1.000
    H160     H        0.36780    0.40770    0.37350    1.000
    H161     H        0.32890    0.38640    0.24480    1.000
    O120     O        0.26280    0.61000    0.27280    1.000
    H162     H        0.25530    0.66000    0.25690    1.000
    O121     O        0.26000    0.90810    0.22810    1.000
    H163     H        0.25540    0.93360    0.25370    1.000
    Ca19     Ca       0.13716    0.84446    0.93964    1.000
    Ca20     Ca       0.20968    0.69197    0.95716    1.000
    Ca21     Ca       0.05499    0.77294    0.84374    1.000
    C253     C        0.05722    0.55190    0.61353    1.000
    C254     C        0.07011    0.55870    0.66890    1.000
    C255     C        0.06039    0.62970    0.69601    1.000
    H164     H        0.06970    0.63350    0.73340    1.000
    C256     C        0.03796    0.69520    0.67162    1.000
    C257     C        0.02610    0.69260    0.61740    1.000
    H165     H        0.01110    0.73830    0.59890    1.000
    C258     C        0.03645    0.62100    0.59000    1.000
    H166     H        0.02840    0.62080    0.55230    1.000
    O122     O        0.09292    0.49740    0.69529    1.000
    C259     C        0.02611    0.76640    0.70301    1.000
    O123     O        0.04203    0.78330    0.75001    1.000
    O124     O        0.00075    0.81090    0.68061    1.000
    C260     C        0.06454    0.47140    0.58176    1.000
    C261     C        0.09456    0.43270    0.58900    1.000
    C262     C        0.09925    0.36380    0.55490    1.000
    H167     H        0.11990    0.33780    0.56060    1.000
    C263     C        0.07444    0.33240    0.51273    1.000
    C264     C        0.04448    0.36700    0.50700    1.000
    H168     H        0.02690    0.34490    0.47900    1.000
    C265     C        0.03985    0.43330    0.54170    1.000
    H169     H        0.01880    0.45400    0.53800    1.000
    O125     O        0.12028    0.46130    0.62840    1.000
    H170     H        0.11490    0.50370    0.64630    1.000
    C266     C        0.08005    0.25770    0.47478    1.000
    O126     O        0.05816    0.24550    0.43236    1.000
    O127     O        0.10626    0.21680    0.48834    1.000
    C267     C        0.10980    0.36270    0.85880    1.000
    C268     C        0.09941    0.42980    0.81830    1.000
    C269     C        0.10640    0.52510    0.83040    1.000
    H171     H        0.09890    0.57090    0.80330    1.000
    C270     C        0.12369    0.55410    0.88024    1.000
    C271     C        0.13577    0.48700    0.91950    1.000
    H172     H        0.14920    0.50560    0.95330    1.000
    C272     C        0.12814    0.39320    0.90910    1.000
    H173     H        0.13550    0.34830    0.93670    1.000
    O128     O        0.08397    0.40360    0.76900    1.000
    H174     H        0.07960    0.45140    0.74940    1.000
    C273     C        0.12892    0.65670    0.89246    1.000
    O129     O        0.15356    0.68278    0.92710    1.000
    O130     O        0.10780    0.71455    0.86810    1.000
    C274     C        0.10074    0.26030    0.85040    1.000
    C275     C        0.07029    0.23020    0.82360    1.000
    C276     C        0.06206    0.13650    0.82400    1.000
    H175     H        0.04070    0.11770    0.80720    1.000
    C277     C        0.08454    0.06900    0.84864    1.000
    C278     C        0.11540    0.09700    0.87210    1.000
    H176     H        0.13130    0.05140    0.88730    1.000
    C279     C        0.12352    0.19200    0.87360    1.000
    H177     H        0.14490    0.21060    0.89060    1.000
    O131     O        0.04704    0.29200    0.79520    1.000
    H178     H        0.03020    0.26210    0.78090    1.000
    C280     C        0.07495    0.96870    0.84748    1.000
    O132     O        0.09385    0.90835    0.87473    1.000
    O133     O        0.04699    0.94423    0.82040    1.000
    C281     C        0.20488    0.93710    0.18850    1.000
    C282     C        0.23286    0.90570    0.18360    1.000
    C283     C        0.23510    0.86600    0.13710    1.000
    H179     H        0.25510    0.84490    0.13470    1.000
    C284     C        0.20803    0.85690    0.09398    1.000
    C285     C        0.17882    0.87640    0.10030    1.000
    H180     H        0.15990    0.85940    0.07330    1.000
    C286     C        0.17688    0.92120    0.14620    1.000
    H181     H        0.15680    0.94100    0.14900    1.000
    C287     C        0.20995    0.81900    0.04173    1.000
    O134     O        0.23622    0.79910    0.03589    1.000
    O135     O        0.18458    0.80410    0.00604    1.000
    C288     C        0.20202    0.98630    0.23750    1.000
    O136     O        0.17200    0.84290    0.26310    1.000
    H182     H        0.17500    0.81770    0.23610    1.000
    C289     C        0.18160    0.94490    0.26550    1.000
    C290     C        0.17810    0.99730    0.30920    1.000
    H183     H        0.16370    0.97540    0.32720    1.000
    C291     C        0.19506    0.07930    0.32680    1.000
    C292     C        0.21301    0.11460    0.29830    1.000
    H184     H        0.22340    0.17350    0.30800    1.000
    C293     C        0.21670    0.06540    0.25420    1.000
    H185     H        0.23040    0.09080    0.23580    1.000
    C294     C        0.18965    0.13250    0.37278    1.000
    O137     O        0.20575    0.20420    0.38874    1.000
    O138     O        0.16918    0.09880    0.39221    1.000
    H186     H        0.25150    0.91120    0.21300    1.000
    O139     O        0.14590    0.93020    0.15310    1.000
    H187     H        0.13220    0.90770    0.12650    1.000
    H188     H        0.17110    0.88640    0.25520    1.000
    O140     O        0.23720    0.11000    0.22720    1.000
    H189     H        0.24470    0.16000    0.24310    1.000
    O141     O        0.76000    0.40810    0.22810    1.000
    H190     H        0.75540    0.43360    0.25370    1.000
    Ca22     Ca       0.63716    0.34446    0.93964    1.000
    Ca23     Ca       0.70968    0.19197    0.95716    1.000
    Ca24     Ca       0.55499    0.27294    0.84374    1.000
    C295     C        0.55722    0.05190    0.61353    1.000
    C296     C        0.57011    0.05870    0.66890    1.000
    C297     C        0.56039    0.12970    0.69601    1.000
    H191     H        0.56970    0.13350    0.73340    1.000
    C298     C        0.53796    0.19520    0.67162    1.000
    C299     C        0.52610    0.19260    0.61740    1.000
    H192     H        0.51110    0.23830    0.59890    1.000
    C300     C        0.53645    0.12100    0.59000    1.000
    H193     H        0.52840    0.12080    0.55230    1.000
    O142     O        0.59292    0.99740    0.69529    1.000
    C301     C        0.52611    0.26640    0.70301    1.000
    O143     O        0.54203    0.28330    0.75001    1.000
    O144     O        0.50075    0.31090    0.68061    1.000
    C302     C        0.56454    0.97140    0.58176    1.000
    C303     C        0.59456    0.93270    0.58900    1.000
    C304     C        0.59925    0.86380    0.55490    1.000
    H194     H        0.61990    0.83780    0.56060    1.000
    C305     C        0.57444    0.83240    0.51273    1.000
    C306     C        0.54448    0.86700    0.50700    1.000
    H195     H        0.52690    0.84490    0.47900    1.000
    C307     C        0.53985    0.93330    0.54170    1.000
    H196     H        0.51880    0.95400    0.53800    1.000
    O145     O        0.62028    0.96130    0.62840    1.000
    H197     H        0.61490    0.00370    0.64630    1.000
    C308     C        0.58005    0.75770    0.47478    1.000
    O146     O        0.55816    0.74550    0.43236    1.000
    O147     O        0.60626    0.71680    0.48834    1.000
    C309     C        0.60980    0.86270    0.85880    1.000
    C310     C        0.59941    0.92980    0.81830    1.000
    C311     C        0.60640    0.02510    0.83040    1.000
    H198     H        0.59890    0.07090    0.80330    1.000
    C312     C        0.62369    0.05410    0.88024    1.000
    C313     C        0.63577    0.98700    0.91950    1.000
    H199     H        0.64920    0.00560    0.95330    1.000
    C314     C        0.62814    0.89320    0.90910    1.000
    H200     H        0.63550    0.84830    0.93670    1.000
    O148     O        0.58397    0.90360    0.76900    1.000
    H201     H        0.57960    0.95140    0.74940    1.000
    C315     C        0.62892    0.15670    0.89246    1.000
    O149     O        0.65356    0.18278    0.92710    1.000
    O150     O        0.60780    0.21455    0.86810    1.000
    C316     C        0.60074    0.76030    0.85040    1.000
    C317     C        0.57029    0.73020    0.82360    1.000
    C318     C        0.56206    0.63650    0.82400    1.000
    H202     H        0.54070    0.61770    0.80720    1.000
    C319     C        0.58454    0.56900    0.84864    1.000
    C320     C        0.61540    0.59700    0.87210    1.000
    H203     H        0.63130    0.55140    0.88730    1.000
    C321     C        0.62352    0.69200    0.87360    1.000
    H204     H        0.64490    0.71060    0.89060    1.000
    O151     O        0.54704    0.79200    0.79520    1.000
    H205     H        0.53020    0.76210    0.78090    1.000
    C322     C        0.57495    0.46870    0.84748    1.000
    O152     O        0.59385    0.40835    0.87473    1.000
    O153     O        0.54699    0.44423    0.82040    1.000
    C323     C        0.70488    0.43710    0.18850    1.000
    C324     C        0.73286    0.40570    0.18360    1.000
    C325     C        0.73510    0.36600    0.13710    1.000
    H206     H        0.75510    0.34490    0.13470    1.000
    C326     C        0.70803    0.35690    0.09398    1.000
    C327     C        0.67882    0.37640    0.10030    1.000
    H207     H        0.65990    0.35940    0.07330    1.000
    C328     C        0.67688    0.42120    0.14620    1.000
    H208     H        0.65680    0.44100    0.14900    1.000
    C329     C        0.70995    0.31900    0.04173    1.000
    O154     O        0.73622    0.29910    0.03589    1.000
    O155     O        0.68458    0.30410    0.00604    1.000
    C330     C        0.70202    0.48630    0.23750    1.000
    O156     O        0.67200    0.34290    0.26310    1.000
    H209     H        0.67500    0.31770    0.23610    1.000
    C331     C        0.68160    0.44490    0.26550    1.000
    C332     C        0.67810    0.49730    0.30920    1.000
    H210     H        0.66370    0.47540    0.32720    1.000
    C333     C        0.69506    0.57930    0.32680    1.000
    C334     C        0.71301    0.61460    0.29830    1.000
    H211     H        0.72340    0.67350    0.30800    1.000
    C335     C        0.71670    0.56540    0.25420    1.000
    H212     H        0.73040    0.59080    0.23580    1.000
    C336     C        0.68965    0.63250    0.37278    1.000
    O157     O        0.70575    0.70420    0.38874    1.000
    O158     O        0.66918    0.59880    0.39221    1.000
    H213     H        0.75150    0.41120    0.21300    1.000
    O159     O        0.64590    0.43020    0.15310    1.000
    H214     H        0.63220    0.40770    0.12650    1.000
    H215     H        0.67110    0.38640    0.25520    1.000
    O160     O        0.73720    0.61000    0.22720    1.000
    H216     H        0.74470    0.66000    0.24310    1.000
    Ca25     Ca       0.00000    0.07505    0.25000    1.000
    Ca26     Ca       0.50000    0.57505    0.25000    1.000
    Ca27     Ca       0.00000    0.92495    0.75000    1.000
    Ca28     Ca       0.50000    0.42495    0.75000    1.000
