# CIF file generated by openbabel 3.1.0, see https://openbabel.org
data_I
_chemical_name_common 'DOTTUC_charged'
_cell_length_a 12.9913
_cell_length_b 12.9913
_cell_length_c 17.3911
_cell_angle_alpha 90
_cell_angle_beta 90
_cell_angle_gamma 120
_space_group_name_H-M_alt 'P 1'
_space_group_name_Hall 'P 1'
loop_
    _symmetry_equiv_pos_as_xyz
    x,y,z
loop_
    _atom_site_label
    _atom_site_type_symbol
    _atom_site_fract_x
    _atom_site_fract_y
    _atom_site_fract_z
    _atom_site_occupancy
    In1      In       0.37710    0.00000    0.50000    1.000
    In2      In       0.62290    0.62290    0.83333    1.000
    In3      In       0.00000    0.37710    0.16667    1.000
    H1       H        0.56310    0.57570    0.56960    1.000
    H2       H        0.34090    0.42350    0.64140    1.000
    H3       H        0.36770    0.52020    0.57740    1.000
    H4       H        0.33090    0.39190    0.48760    1.000
    H5       H        0.28950    0.29310    0.55090    1.000
    H6       H        0.45230    0.37570    0.39810    1.000
    H7       H        0.58240    0.42130    0.42710    1.000
    H8       H        0.52060    0.49660    0.44260    1.000
    H9       H        0.71790    0.49020    0.61340    1.000
    H10      H        0.69530    0.51380    0.52830    1.000
    H11      H        0.68060    0.39040    0.55120    1.000
    H12      H        0.57310    0.36610    0.68970    1.000
    H13      H        0.53370    0.26420    0.62880    1.000
    H14      H        0.43980    0.29300    0.66390    1.000
    H15      H        0.01260    0.43690    0.90293    1.000
    H16      H        0.08260    0.65910    0.97473    1.000
    H17      H        0.15250    0.63230    0.91073    1.000
    H18      H        0.06100    0.66910    0.82093    1.000
    H19      H        0.00360    0.71050    0.88423    1.000
    H20      H        0.92340    0.54770    0.73143    1.000
    H21      H        0.83890    0.41760    0.76043    1.000
    H22      H        0.97600    0.47940    0.77593    1.000
    H23      H        0.77230    0.28210    0.94673    1.000
    H24      H        0.81850    0.30470    0.86163    1.000
    H25      H        0.70980    0.31940    0.88453    1.000
    H26      H        0.79300    0.42690    0.02303    1.000
    H27      H        0.73050    0.46630    0.96213    1.000
    H28      H        0.85320    0.56020    0.99723    1.000
    H29      H        0.42430    0.98740    0.23627    1.000
    H30      H        0.57650    0.91740    0.30807    1.000
    H31      H        0.47980    0.84750    0.24407    1.000
    H32      H        0.60810    0.93900    0.15427    1.000
    H33      H        0.70690    0.99640    0.21757    1.000
    H34      H        0.62430    0.07660    0.06477    1.000
    H35      H        0.57870    0.16110    0.09377    1.000
    H36      H        0.50340    0.02400    0.10927    1.000
    H37      H        0.50980    0.22770    0.28007    1.000
    H38      H        0.48620    0.18150    0.19497    1.000
    H39      H        0.60960    0.29020    0.21787    1.000
    H40      H        0.63390    0.20700    0.35637    1.000
    H41      H        0.73580    0.26950    0.29547    1.000
    H42      H        0.70700    0.14680    0.33057    1.000
    H43      H        0.98740    0.42430    0.43040    1.000
    H44      H        0.91740    0.57650    0.35860    1.000
    H45      H        0.84750    0.47980    0.42260    1.000
    H46      H        0.93900    0.60810    0.51240    1.000
    H47      H        0.99640    0.70690    0.44910    1.000
    H48      H        0.07660    0.62430    0.60190    1.000
    H49      H        0.16110    0.57870    0.57290    1.000
    H50      H        0.02400    0.50340    0.55740    1.000
    H51      H        0.22770    0.50980    0.38660    1.000
    H52      H        0.18150    0.48620    0.47170    1.000
    H53      H        0.29020    0.60960    0.44880    1.000
    H54      H        0.20700    0.63390    0.31030    1.000
    H55      H        0.26950    0.73580    0.37120    1.000
    H56      H        0.14680    0.70700    0.33610    1.000
    H57      H        0.57570    0.56310    0.09707    1.000
    H58      H        0.42350    0.34090    0.02527    1.000
    H59      H        0.52020    0.36770    0.08927    1.000
    H60      H        0.39190    0.33090    0.17907    1.000
    H61      H        0.29310    0.28950    0.11577    1.000
    H62      H        0.37570    0.45230    0.26857    1.000
    H63      H        0.42130    0.58240    0.23957    1.000
    H64      H        0.49660    0.52060    0.22407    1.000
    H65      H        0.49020    0.71790    0.05327    1.000
    H66      H        0.51380    0.69530    0.13837    1.000
    H67      H        0.39040    0.68060    0.11547    1.000
    H68      H        0.36610    0.57310    0.97697    1.000
    H69      H        0.26420    0.53370    0.03787    1.000
    H70      H        0.29300    0.43980    0.00277    1.000
    H71      H        0.43690    0.01260    0.76373    1.000
    H72      H        0.65910    0.08260    0.69193    1.000
    H73      H        0.63230    0.15250    0.75593    1.000
    H74      H        0.66910    0.06100    0.84573    1.000
    H75      H        0.71050    0.00360    0.78243    1.000
    H76      H        0.54770    0.92340    0.93523    1.000
    H77      H        0.41760    0.83890    0.90623    1.000
    H78      H        0.47940    0.97600    0.89073    1.000
    H79      H        0.28210    0.77230    0.71993    1.000
    H80      H        0.30470    0.81850    0.80503    1.000
    H81      H        0.31940    0.70980    0.78213    1.000
    H82      H        0.42690    0.79300    0.64363    1.000
    H83      H        0.46630    0.73050    0.70453    1.000
    H84      H        0.56020    0.85320    0.66943    1.000
    C1       C        0.45930    0.35170    0.51510    1.000
    C2       C        0.54420    0.41040    0.58650    1.000
    C3       C        0.52090    0.51160    0.60700    1.000
    C4       C        0.38490    0.45920    0.59450    1.000
    C5       C        0.35560    0.36820    0.53380    1.000
    C6       C        0.50820    0.41750    0.43850    1.000
    C7       C        0.67050    0.45510    0.56820    1.000
    C8       C        0.52070    0.32640    0.64730    1.000
    C9       C        0.42890    0.22330    0.50370    1.000
    C10      C        0.56450    0.56240    0.68670    1.000
    C11      C        0.89240    0.54070    0.84843    1.000
    C12      C        0.86620    0.45580    0.91983    1.000
    C13      C        0.99070    0.47910    0.94033    1.000
    C14      C        0.07430    0.61510    0.92783    1.000
    C15      C        0.01260    0.64440    0.86713    1.000
    C16      C        0.90930    0.49180    0.77183    1.000
    C17      C        0.78460    0.32950    0.90153    1.000
    C18      C        0.80570    0.47930    0.98063    1.000
    C19      C        0.79440    0.57110    0.83703    1.000
    C20      C        0.99790    0.43550    0.02003    1.000
    C21      C        0.64830    0.10760    0.18177    1.000
    C22      C        0.58960    0.13380    0.25317    1.000
    C23      C        0.48840    0.00930    0.27367    1.000
    C24      C        0.54080    0.92570    0.26117    1.000
    C25      C        0.63180    0.98740    0.20047    1.000
    C26      C        0.58250    0.09070    0.10517    1.000
    C27      C        0.54490    0.21540    0.23487    1.000
    C28      C        0.67360    0.19430    0.31397    1.000
    C29      C        0.77670    0.20560    0.17037    1.000
    C30      C        0.43760    0.00210    0.35337    1.000
    C31      C        0.10760    0.64830    0.48490    1.000
    C32      C        0.13380    0.58960    0.41350    1.000
    C33      C        0.00930    0.48840    0.39300    1.000
    C34      C        0.92570    0.54080    0.40550    1.000
    C35      C        0.98740    0.63180    0.46620    1.000
    C36      C        0.09070    0.58250    0.56150    1.000
    C37      C        0.21540    0.54490    0.43180    1.000
    C38      C        0.19430    0.67360    0.35270    1.000
    C39      C        0.20560    0.77670    0.49630    1.000
    C40      C        0.00210    0.43760    0.31330    1.000
    C41      C        0.35170    0.45930    0.15157    1.000
    C42      C        0.41040    0.54420    0.08017    1.000
    C43      C        0.51160    0.52090    0.05967    1.000
    C44      C        0.45920    0.38490    0.07217    1.000
    C45      C        0.36820    0.35560    0.13287    1.000
    C46      C        0.41750    0.50820    0.22817    1.000
    C47      C        0.45510    0.67050    0.09847    1.000
    C48      C        0.32640    0.52070    0.01937    1.000
    C49      C        0.22330    0.42890    0.16297    1.000
    C50      C        0.56240    0.56450    0.97997    1.000
    C51      C        0.54070    0.89240    0.81823    1.000
    C52      C        0.45580    0.86620    0.74683    1.000
    C53      C        0.47910    0.99070    0.72633    1.000
    C54      C        0.61510    0.07430    0.73883    1.000
    C55      C        0.64440    0.01260    0.79953    1.000
    C56      C        0.49180    0.90930    0.89483    1.000
    C57      C        0.32950    0.78460    0.76513    1.000
    C58      C        0.47930    0.80570    0.68603    1.000
    C59      C        0.57110    0.79440    0.82963    1.000
    C60      C        0.43550    0.99790    0.64663    1.000
    O1       O        0.32450    0.13800    0.51430    1.000
    O2       O        0.51160    0.20300    0.48710    1.000
    O3       O        0.49710    0.51570    0.74330    1.000
    O4       O        0.66730    0.64370    0.69790    1.000
    O5       O        0.81350    0.67550    0.84763    1.000
    O6       O        0.69140    0.48840    0.82043    1.000
    O7       O        0.01860    0.50290    0.07663    1.000
    O8       O        0.97640    0.33270    0.03123    1.000
    O9       O        0.86200    0.18650    0.18097    1.000
    O10      O        0.79700    0.30860    0.15377    1.000
    O11      O        0.48430    0.98140    0.40997    1.000
    O12      O        0.35630    0.02360    0.36457    1.000
    O13      O        0.18650    0.86200    0.48570    1.000
    O14      O        0.30860    0.79700    0.51290    1.000
    O15      O        0.98140    0.48430    0.25670    1.000
    O16      O        0.02360    0.35630    0.30210    1.000
    O17      O        0.13800    0.32450    0.15237    1.000
    O18      O        0.20300    0.51160    0.17957    1.000
    O19      O        0.51570    0.49710    0.92337    1.000
    O20      O        0.64370    0.66730    0.96877    1.000
    O21      O        0.67550    0.81350    0.81903    1.000
    O22      O        0.48840    0.69140    0.84623    1.000
    O23      O        0.50290    0.01860    0.59003    1.000
    O24      O        0.33270    0.97640    0.63543    1.000
    H85      H        0.98940    0.83160    0.78260    1.000
    H86      H        0.06840    0.97020    0.78820    1.000
    H87      H        0.12040    0.89540    0.75190    1.000
    H88      H        0.06530    0.02120    0.57870    1.000
    H89      H        0.16070    0.00940    0.62710    1.000
    H90      H        0.10720    0.08610    0.65820    1.000
    H91      H        0.01060    0.84220    0.55073    1.000
    H92      H        0.93160    0.90180    0.54513    1.000
    H93      H        0.87960    0.77500    0.58143    1.000
    H94      H        0.93470    0.95590    0.75463    1.000
    H95      H        0.83930    0.84870    0.70623    1.000
    H96      H        0.89280    0.97890    0.67513    1.000
    C61      C        0.05000    0.90100    0.75760    1.000
    C62      C        0.09040    0.01600    0.62980    1.000
    C63      C        0.95000    0.85100    0.57573    1.000
    C64      C        0.90960    0.92560    0.70353    1.000
    N1       N        0.00000    0.91590    0.66667    1.000
    H97      H        0.84220    0.01060    0.11593    1.000
    H98      H        0.90180    0.93160    0.12153    1.000
    H99      H        0.77500    0.87960    0.08523    1.000
    H100     H        0.95590    0.93470    0.91203    1.000
    H101     H        0.84870    0.83930    0.96043    1.000
    H102     H        0.97890    0.89280    0.99153    1.000
    H103     H        0.83160    0.98940    0.88407    1.000
    H104     H        0.97020    0.06840    0.87847    1.000
    H105     H        0.89540    0.12040    0.91477    1.000
    H106     H        0.02120    0.06530    0.08797    1.000
    H107     H        0.00940    0.16070    0.03957    1.000
    H108     H        0.08610    0.10720    0.00847    1.000
    C65      C        0.85100    0.95000    0.09093    1.000
    C66      C        0.92560    0.90960    0.96313    1.000
    C67      C        0.90100    0.05000    0.90907    1.000
    C68      C        0.01600    0.09040    0.03687    1.000
    N2       N        0.91590    0.00000    0.00000    1.000
    H109     H        0.16840    0.15780    0.44927    1.000
    H110     H        0.02980    0.09820    0.45487    1.000
    H111     H        0.10460    0.22500    0.41857    1.000
    H112     H        0.97880    0.04410    0.24537    1.000
    H113     H        0.99060    0.15130    0.29377    1.000
    H114     H        0.91390    0.02110    0.32487    1.000
    H115     H        0.15780    0.16840    0.21740    1.000
    H116     H        0.09820    0.02980    0.21180    1.000
    H117     H        0.22500    0.10460    0.24810    1.000
    H118     H        0.04410    0.97880    0.42130    1.000
    H119     H        0.15130    0.99060    0.37290    1.000
    H120     H        0.02110    0.91390    0.34180    1.000
    C69      C        0.09900    0.14900    0.42427    1.000
    C70      C        0.98400    0.07440    0.29647    1.000
    C71      C        0.14900    0.09900    0.24240    1.000
    C72      C        0.07440    0.98400    0.37020    1.000
    N3       N        0.08410    0.08410    0.33333    1.000
