# CIF file generated by openbabel 3.1.0, see https://openbabel.org
data_I
_chemical_name_common 'image0'
_cell_length_a 7.6957
_cell_length_b 10.2182
_cell_length_c 15.9408
_cell_angle_alpha 86.945
_cell_angle_beta 86.035
_cell_angle_gamma 76.831
_space_group_name_H-M_alt 'P 1'
_space_group_name_Hall 'P 1'
loop_
    _symmetry_equiv_pos_as_xyz
    x,y,z
loop_
    _atom_site_label
    _atom_site_type_symbol
    _atom_site_fract_x
    _atom_site_fract_y
    _atom_site_fract_z
    _atom_site_occupancy
    Tb1      Tb       0.35401    0.33674    0.06341    1.000
    Tb2      Tb       0.61275    0.87052    0.32443    1.000
    O1       O        0.21020    0.29600    0.77690    1.000
    O2       O        0.10490    0.07100    0.70580    1.000
    O3       O        0.48940    0.35480    0.65150    1.000
    O4       O        0.63860    0.18600    0.72860    1.000
    O5       O        0.75420    0.44400    0.88250    1.000
    O6       O        0.58850    0.33660    0.96860    1.000
    O7       O        0.78500    0.51620    0.04740    1.000
    O8       O        0.03910    0.37120    0.07820    1.000
    O9       O        0.33880    0.96940    0.57680    1.000
    O10      O        0.40650    0.89050    0.44680    1.000
    O11      O        0.39640    0.09050    0.29990    1.000
    O12      O        0.61360    0.95440    0.18160    1.000
    O13      O        0.29080    0.25180    0.20250    1.000
    O14      O        0.49910    0.10700    0.08320    1.000
    C1       C        0.06010    0.48800    0.70520    1.000
    H1       H        0.16200    0.52570    0.70580    1.000
    C2       C        0.91120    0.55740    0.66480    1.000
    H2       H        0.90870    0.64420    0.63970    1.000
    C3       C        0.76630    0.49970    0.66140    1.000
    H3       H        0.66620    0.54430    0.63110    1.000
    C4       C        0.76740    0.37650    0.70220    1.000
    C5       C        0.91450    0.31420    0.74680    1.000
    C6       C        0.62100    0.30130    0.69430    1.000
    C7       C        0.02320    0.96280    0.82810    1.000
    H4       H        0.09590    0.88030    0.80940    1.000
    C8       C        0.92310    0.96600    0.90330    1.000
    H5       H        0.92370    0.88560    0.93630    1.000
    C9       C        0.82210    0.08750    0.93000    1.000
    H6       H        0.75270    0.09070    0.98180    1.000
    C10      C        0.82030    0.20420    0.88260    1.000
    C11      C        0.91880    0.19770    0.80590    1.000
    C12      C        0.71210    0.34000    0.91210    1.000
    C13      C        0.95000    0.46690    0.03620    1.000
    C14      C        0.42730    0.95880    0.50650    1.000
    C15      C        0.51050    0.06080    0.15840    1.000
    C16      C        0.38830    0.14270    0.22650    1.000
    N1       N        0.06150    0.36770    0.74350    1.000
    N2       N        0.01760    0.07730    0.78130    1.000
    Tb3      Tb       0.64599    0.66326    0.93659    1.000
    Tb4      Tb       0.38725    0.12948    0.67557    1.000
    O15      O        0.78980    0.70400    0.22310    1.000
    O16      O        0.89510    0.92900    0.29420    1.000
    O17      O        0.51060    0.64520    0.34850    1.000
    O18      O        0.36140    0.81400    0.27140    1.000
    O19      O        0.24580    0.55600    0.11750    1.000
    O20      O        0.41150    0.66340    0.03140    1.000
    O21      O        0.21500    0.48380    0.95260    1.000
    O22      O        0.96090    0.62880    0.92180    1.000
    O23      O        0.66120    0.03060    0.42320    1.000
    O24      O        0.59350    0.10950    0.55320    1.000
    O25      O        0.60360    0.90950    0.70010    1.000
    O26      O        0.38640    0.04560    0.81840    1.000
    O27      O        0.70920    0.74820    0.79750    1.000
    O28      O        0.50090    0.89300    0.91680    1.000
    C17      C        0.93990    0.51200    0.29480    1.000
    H7       H        0.83800    0.47430    0.29420    1.000
    C18      C        0.08880    0.44260    0.33520    1.000
    H8       H        0.09130    0.35580    0.36030    1.000
    C19      C        0.23370    0.50030    0.33860    1.000
    H9       H        0.33380    0.45570    0.36890    1.000
    C20      C        0.23260    0.62350    0.29780    1.000
    C21      C        0.08550    0.68580    0.25320    1.000
    C22      C        0.37900    0.69870    0.30570    1.000
    C23      C        0.97680    0.03720    0.17190    1.000
    H10      H        0.90410    0.11970    0.19060    1.000
    C24      C        0.07690    0.03400    0.09670    1.000
    H11      H        0.07630    0.11440    0.06370    1.000
    C25      C        0.17790    0.91250    0.07000    1.000
    H12      H        0.24730    0.90930    0.01820    1.000
    C26      C        0.17970    0.79580    0.11740    1.000
    C27      C        0.08120    0.80230    0.19410    1.000
    C28      C        0.28790    0.66000    0.08790    1.000
    C29      C        0.05000    0.53310    0.96380    1.000
    C30      C        0.57270    0.04120    0.49350    1.000
    C31      C        0.48950    0.93920    0.84160    1.000
    C32      C        0.61170    0.85730    0.77350    1.000
    N3       N        0.93850    0.63230    0.25650    1.000
    N4       N        0.98240    0.92270    0.21870    1.000
