# CIF file generated by openbabel 3.1.0, see https://openbabel.org
data_I
_chemical_name_common 'image0'
_cell_length_a 19.764
_cell_length_b 19.948
_cell_length_c 12.039
_cell_angle_alpha 90
_cell_angle_beta 90
_cell_angle_gamma 90
_space_group_name_H-M_alt 'P 1'
_space_group_name_Hall 'P 1'
loop_
    _symmetry_equiv_pos_as_xyz
    x,y,z
loop_
    _atom_site_label
    _atom_site_type_symbol
    _atom_site_fract_x
    _atom_site_fract_y
    _atom_site_fract_z
    _atom_site_occupancy
    Zn1      Zn       0.25821    0.99203    0.03076    1.000
    K1       K        0.19622    0.94407    0.28540    1.000
    O1       O        0.28590    0.91650    0.12670    1.000
    O2       O        0.12480    0.94260    0.09700    1.000
    O3       O        0.31870    0.85990    0.97770    1.000
    O4       O        0.29490    0.61260    0.98750    1.000
    O5       O        0.17780    0.96240    0.93910    1.000
    O6       O        0.26790    0.56200    0.14470    1.000
    C1       C        0.30500    0.74160    0.32370    1.000
    H1       H        0.30930    0.74280    0.40060    1.000
    C2       C        0.30130    0.73810    0.09250    1.000
    H2       H        0.30170    0.73670    0.01530    1.000
    C3       C        0.29810    0.67850    0.15220    1.000
    C4       C        0.30390    0.79890    0.14620    1.000
    C5       C        0.30440    0.80190    0.26200    1.000
    H3       H        0.30440    0.84310    0.29810    1.000
    C6       C        0.06060    0.93840    0.81450    1.000
    H4       H        0.10140    0.93780    0.77590    1.000
    C7       C        0.06040    0.94250    0.92880    1.000
    C8       C        0.28640    0.61380    0.09030    1.000
    C9       C        0.30150    0.86400    0.07740    1.000
    C10      C        0.12480    0.94630    0.99580    1.000
    C11      C        0.29910    0.67970    0.26810    1.000
    H5       H        0.29590    0.64000    0.30830    1.000
    O7       O        0.32300    0.01720    0.90960    1.000
    O8       O        0.37500    0.04670    0.06110    1.000
    C12      C        0.37530    0.03740    0.96240    1.000
    C13      C        0.43800    0.04740    0.89160    1.000
    C14      C        0.43950    0.05250    0.77670    1.000
    H6       H        0.39890    0.05360    0.73770    1.000
    K2       K        0.35800    0.90066    0.77280    1.000
    Zn2      Zn       0.75821    0.49203    0.03076    1.000
    K3       K        0.69622    0.44407    0.28540    1.000
    O9       O        0.78590    0.41650    0.12670    1.000
    O10      O        0.62480    0.44260    0.09700    1.000
    O11      O        0.81870    0.35990    0.97770    1.000
    O12      O        0.79490    0.11260    0.98750    1.000
    O13      O        0.67780    0.46240    0.93910    1.000
    O14      O        0.76790    0.06200    0.14470    1.000
    C15      C        0.80500    0.24160    0.32370    1.000
    H7       H        0.80930    0.24280    0.40060    1.000
    C16      C        0.80130    0.23810    0.09250    1.000
    H8       H        0.80170    0.23670    0.01530    1.000
    C17      C        0.79810    0.17850    0.15220    1.000
    C18      C        0.80390    0.29890    0.14620    1.000
    C19      C        0.80440    0.30190    0.26200    1.000
    H9       H        0.80440    0.34310    0.29810    1.000
    C20      C        0.56060    0.43840    0.81450    1.000
    H10      H        0.60140    0.43780    0.77590    1.000
    C21      C        0.56040    0.44250    0.92880    1.000
    C22      C        0.78640    0.11380    0.09030    1.000
    C23      C        0.80150    0.36400    0.07740    1.000
    C24      C        0.62480    0.44630    0.99580    1.000
    C25      C        0.79910    0.17970    0.26810    1.000
    H11      H        0.79590    0.14000    0.30830    1.000
    O15      O        0.82300    0.51720    0.90960    1.000
    O16      O        0.87500    0.54670    0.06110    1.000
    C26      C        0.87530    0.53740    0.96240    1.000
    C27      C        0.93800    0.54740    0.89160    1.000
    C28      C        0.93950    0.55250    0.77670    1.000
    H12      H        0.89890    0.55360    0.73770    1.000
    K4       K        0.85800    0.40066    0.77280    1.000
    Zn3      Zn       0.74179    0.00797    0.53076    1.000
    K5       K        0.80378    0.05593    0.78540    1.000
    O17      O        0.71410    0.08350    0.62670    1.000
    O18      O        0.87520    0.05740    0.59700    1.000
    O19      O        0.68130    0.14010    0.47770    1.000
    O20      O        0.70510    0.38740    0.48750    1.000
    O21      O        0.82220    0.03760    0.43910    1.000
    O22      O        0.73210    0.43800    0.64470    1.000
    C29      C        0.69500    0.25840    0.82370    1.000
    H13      H        0.69070    0.25720    0.90060    1.000
    C30      C        0.69870    0.26190    0.59250    1.000
    H14      H        0.69830    0.26330    0.51530    1.000
    C31      C        0.70190    0.32150    0.65220    1.000
    C32      C        0.69610    0.20110    0.64620    1.000
    C33      C        0.69560    0.19810    0.76200    1.000
    H15      H        0.69560    0.15690    0.79810    1.000
    C34      C        0.93940    0.06160    0.31450    1.000
    H16      H        0.89860    0.06220    0.27590    1.000
    C35      C        0.93960    0.05750    0.42880    1.000
    C36      C        0.71360    0.38620    0.59030    1.000
    C37      C        0.69850    0.13600    0.57740    1.000
    C38      C        0.87520    0.05370    0.49580    1.000
    C39      C        0.70090    0.32030    0.76810    1.000
    H17      H        0.70410    0.36000    0.80830    1.000
    O23      O        0.67700    0.98280    0.40960    1.000
    O24      O        0.62500    0.95330    0.56110    1.000
    C40      C        0.62470    0.96260    0.46240    1.000
    C41      C        0.56200    0.95260    0.39160    1.000
    C42      C        0.56050    0.94750    0.27670    1.000
    H18      H        0.60110    0.94640    0.23770    1.000
    K6       K        0.64200    0.09934    0.27280    1.000
    Zn4      Zn       0.24179    0.50797    0.53076    1.000
    K7       K        0.30378    0.55593    0.78540    1.000
    O25      O        0.21410    0.58350    0.62670    1.000
    O26      O        0.37520    0.55740    0.59700    1.000
    O27      O        0.18130    0.64010    0.47770    1.000
    O28      O        0.20510    0.88740    0.48750    1.000
    O29      O        0.32220    0.53760    0.43910    1.000
    O30      O        0.23210    0.93800    0.64470    1.000
    C43      C        0.19500    0.75840    0.82370    1.000
    H19      H        0.19070    0.75720    0.90060    1.000
    C44      C        0.19870    0.76190    0.59250    1.000
    H20      H        0.19830    0.76330    0.51530    1.000
    C45      C        0.20190    0.82150    0.65220    1.000
    C46      C        0.19610    0.70110    0.64620    1.000
    C47      C        0.19560    0.69810    0.76200    1.000
    H21      H        0.19560    0.65690    0.79810    1.000
    C48      C        0.43940    0.56160    0.31450    1.000
    H22      H        0.39860    0.56220    0.27590    1.000
    C49      C        0.43960    0.55750    0.42880    1.000
    C50      C        0.21360    0.88620    0.59030    1.000
    C51      C        0.19850    0.63600    0.57740    1.000
    C52      C        0.37520    0.55370    0.49580    1.000
    C53      C        0.20090    0.82030    0.76810    1.000
    H23      H        0.20410    0.86000    0.80830    1.000
    O31      O        0.17700    0.48280    0.40960    1.000
    O32      O        0.12500    0.45330    0.56110    1.000
    C54      C        0.12470    0.46260    0.46240    1.000
    C55      C        0.06200    0.45260    0.39160    1.000
    C56      C        0.06050    0.44750    0.27670    1.000
    H24      H        0.10110    0.44640    0.23770    1.000
    K8       K        0.14200    0.59934    0.27280    1.000
    Zn5      Zn       0.25821    0.00797    0.53076    1.000
    K9       K        0.19622    0.05593    0.78540    1.000
    O33      O        0.28590    0.08350    0.62670    1.000
    O34      O        0.12480    0.05740    0.59700    1.000
    O35      O        0.31870    0.14010    0.47770    1.000
    O36      O        0.29490    0.38740    0.48750    1.000
    O37      O        0.17780    0.03760    0.43910    1.000
    O38      O        0.26790    0.43800    0.64470    1.000
    C57      C        0.30500    0.25840    0.82370    1.000
    H25      H        0.30930    0.25720    0.90060    1.000
    C58      C        0.30130    0.26190    0.59250    1.000
    H26      H        0.30170    0.26330    0.51530    1.000
    C59      C        0.29810    0.32150    0.65220    1.000
    C60      C        0.30390    0.20110    0.64620    1.000
    C61      C        0.30440    0.19810    0.76200    1.000
    H27      H        0.30440    0.15690    0.79810    1.000
    C62      C        0.06060    0.06160    0.31450    1.000
    H28      H        0.10140    0.06220    0.27590    1.000
    C63      C        0.06040    0.05750    0.42880    1.000
    C64      C        0.28640    0.38620    0.59030    1.000
    C65      C        0.30150    0.13600    0.57740    1.000
    C66      C        0.12480    0.05370    0.49580    1.000
    C67      C        0.29910    0.32030    0.76810    1.000
    H29      H        0.29590    0.36000    0.80830    1.000
    O39      O        0.32300    0.98280    0.40960    1.000
    O40      O        0.37500    0.95330    0.56110    1.000
    C68      C        0.37530    0.96260    0.46240    1.000
    C69      C        0.43800    0.95260    0.39160    1.000
    C70      C        0.43950    0.94750    0.27670    1.000
    H30      H        0.39890    0.94640    0.23770    1.000
    K10      K        0.35800    0.09934    0.27280    1.000
    Zn6      Zn       0.75821    0.50797    0.53076    1.000
    K11      K        0.69622    0.55593    0.78540    1.000
    O41      O        0.78590    0.58350    0.62670    1.000
    O42      O        0.62480    0.55740    0.59700    1.000
    O43      O        0.81870    0.64010    0.47770    1.000
    O44      O        0.79490    0.88740    0.48750    1.000
    O45      O        0.67780    0.53760    0.43910    1.000
    O46      O        0.76790    0.93800    0.64470    1.000
    C71      C        0.80500    0.75840    0.82370    1.000
    H31      H        0.80930    0.75720    0.90060    1.000
    C72      C        0.80130    0.76190    0.59250    1.000
    H32      H        0.80170    0.76330    0.51530    1.000
    C73      C        0.79810    0.82150    0.65220    1.000
    C74      C        0.80390    0.70110    0.64620    1.000
    C75      C        0.80440    0.69810    0.76200    1.000
    H33      H        0.80440    0.65690    0.79810    1.000
    C76      C        0.56060    0.56160    0.31450    1.000
    H34      H        0.60140    0.56220    0.27590    1.000
    C77      C        0.56040    0.55750    0.42880    1.000
    C78      C        0.78640    0.88620    0.59030    1.000
    C79      C        0.80150    0.63600    0.57740    1.000
    C80      C        0.62480    0.55370    0.49580    1.000
    C81      C        0.79910    0.82030    0.76810    1.000
    H35      H        0.79590    0.86000    0.80830    1.000
    O47      O        0.82300    0.48280    0.40960    1.000
    O48      O        0.87500    0.45330    0.56110    1.000
    C82      C        0.87530    0.46260    0.46240    1.000
    C83      C        0.93800    0.45260    0.39160    1.000
    C84      C        0.93950    0.44750    0.27670    1.000
    H36      H        0.89890    0.44640    0.23770    1.000
    K12      K        0.85800    0.59934    0.27280    1.000
    Zn7      Zn       0.74179    0.99203    0.03076    1.000
    K13      K        0.80378    0.94407    0.28540    1.000
    O49      O        0.71410    0.91650    0.12670    1.000
    O50      O        0.87520    0.94260    0.09700    1.000
    O51      O        0.68130    0.85990    0.97770    1.000
    O52      O        0.70510    0.61260    0.98750    1.000
    O53      O        0.82220    0.96240    0.93910    1.000
    O54      O        0.73210    0.56200    0.14470    1.000
    C85      C        0.69500    0.74160    0.32370    1.000
    H37      H        0.69070    0.74280    0.40060    1.000
    C86      C        0.69870    0.73810    0.09250    1.000
    H38      H        0.69830    0.73670    0.01530    1.000
    C87      C        0.70190    0.67850    0.15220    1.000
    C88      C        0.69610    0.79890    0.14620    1.000
    C89      C        0.69560    0.80190    0.26200    1.000
    H39      H        0.69560    0.84310    0.29810    1.000
    C90      C        0.93940    0.93840    0.81450    1.000
    H40      H        0.89860    0.93780    0.77590    1.000
    C91      C        0.93960    0.94250    0.92880    1.000
    C92      C        0.71360    0.61380    0.09030    1.000
    C93      C        0.69850    0.86400    0.07740    1.000
    C94      C        0.87520    0.94630    0.99580    1.000
    C95      C        0.70090    0.67970    0.26810    1.000
    H41      H        0.70410    0.64000    0.30830    1.000
    O55      O        0.67700    0.01720    0.90960    1.000
    O56      O        0.62500    0.04670    0.06110    1.000
    C96      C        0.62470    0.03740    0.96240    1.000
    C97      C        0.56200    0.04740    0.89160    1.000
    C98      C        0.56050    0.05250    0.77670    1.000
    H42      H        0.60110    0.05360    0.73770    1.000
    K14      K        0.64200    0.90066    0.77280    1.000
    Zn8      Zn       0.24179    0.49203    0.03076    1.000
    K15      K        0.30378    0.44407    0.28540    1.000
    O57      O        0.21410    0.41650    0.12670    1.000
    O58      O        0.37520    0.44260    0.09700    1.000
    O59      O        0.18130    0.35990    0.97770    1.000
    O60      O        0.20510    0.11260    0.98750    1.000
    O61      O        0.32220    0.46240    0.93910    1.000
    O62      O        0.23210    0.06200    0.14470    1.000
    C99      C        0.19500    0.24160    0.32370    1.000
    H43      H        0.19070    0.24280    0.40060    1.000
    C100     C        0.19870    0.23810    0.09250    1.000
    H44      H        0.19830    0.23670    0.01530    1.000
    C101     C        0.20190    0.17850    0.15220    1.000
    C102     C        0.19610    0.29890    0.14620    1.000
    C103     C        0.19560    0.30190    0.26200    1.000
    H45      H        0.19560    0.34310    0.29810    1.000
    C104     C        0.43940    0.43840    0.81450    1.000
    H46      H        0.39860    0.43780    0.77590    1.000
    C105     C        0.43960    0.44250    0.92880    1.000
    C106     C        0.21360    0.11380    0.09030    1.000
    C107     C        0.19850    0.36400    0.07740    1.000
    C108     C        0.37520    0.44630    0.99580    1.000
    C109     C        0.20090    0.17970    0.26810    1.000
    H47      H        0.20410    0.14000    0.30830    1.000
    O63      O        0.17700    0.51720    0.90960    1.000
    O64      O        0.12500    0.54670    0.06110    1.000
    C110     C        0.12470    0.53740    0.96240    1.000
    C111     C        0.06200    0.54740    0.89160    1.000
    C112     C        0.06050    0.55250    0.77670    1.000
    H48      H        0.10110    0.55360    0.73770    1.000
    K16      K        0.14200    0.40066    0.77280    1.000
    C113     C        0.00000    0.94250    0.98590    1.000
    H49      H        0.00000    0.94250    0.06320    1.000
    C114     C        0.00000    0.93520    0.75740    1.000
    H50      H        0.00000    0.93080    0.68050    1.000
    C115     C        0.50000    0.44250    0.98590    1.000
    H51      H        0.50000    0.44250    0.06320    1.000
    C116     C        0.50000    0.43520    0.75740    1.000
    H52      H        0.50000    0.43080    0.68050    1.000
    C117     C        0.00000    0.05750    0.48590    1.000
    H53      H        0.00000    0.05750    0.56320    1.000
    C118     C        0.00000    0.06480    0.25740    1.000
    H54      H        0.00000    0.06920    0.18050    1.000
    C119     C        0.50000    0.55750    0.48590    1.000
    H55      H        0.50000    0.55750    0.56320    1.000
    C120     C        0.50000    0.56480    0.25740    1.000
    H56      H        0.50000    0.56920    0.18050    1.000
    C121     C        0.50000    0.04570    0.95110    1.000
    H57      H        0.50000    0.04350    0.02830    1.000
    C122     C        0.50000    0.05600    0.71840    1.000
    H58      H        0.50000    0.06060    0.64150    1.000
    O65      O        0.50000    0.87690    0.82900    1.000
    C123     C        0.00000    0.54570    0.95110    1.000
    H59      H        0.00000    0.54350    0.02830    1.000
    C124     C        0.00000    0.55600    0.71840    1.000
    H60      H        0.00000    0.56060    0.64150    1.000
    O66      O        0.00000    0.37690    0.82900    1.000
    C125     C        0.50000    0.95430    0.45110    1.000
    H61      H        0.50000    0.95650    0.52830    1.000
    C126     C        0.50000    0.94400    0.21840    1.000
    H62      H        0.50000    0.93940    0.14150    1.000
    O67      O        0.50000    0.12310    0.32900    1.000
    C127     C        0.00000    0.45430    0.45110    1.000
    H63      H        0.00000    0.45650    0.52830    1.000
    C128     C        0.00000    0.44400    0.21840    1.000
    H64      H        0.00000    0.43940    0.14150    1.000
    O68      O        0.00000    0.62310    0.32900    1.000
