data_functionalizedCrystal
_audit_creation_method	'EQeq! by Chris Wilmer'
_symmetry_space_group_name_H-M	'P1'
_symmetry_Int_Tables_number	1
_symmetry_cell_setting	triclinic
loop_
_symmetry_equiv_pos_as_xyz
  x,y,z
_cell_length_a	12.3431
_cell_length_b	12.9544
_cell_length_c	19.3934
_cell_angle_alpha	90
_cell_angle_beta	91.944
_cell_angle_gamma	90
loop_
_atom_site_label
_atom_site_type_symbol
_atom_site_fract_x
_atom_site_fract_y
_atom_site_fract_z
_atom_site_charge
Mof_Nb	Nb	0.10101	0.89969	0.05461	0.789
Mof_Cl	Cl	0.97285	0.75622	0.06822	-0.453
Mof_N 	N 	0.2118	0.7941	0.1135	-0.142
Mof_Nb	Nb	0.12477	0.10701	0.99601	0.8
Mof_Cl	Cl	0.17676	0.80728	0.95662	-0.495
Mof_Nb	Nb	0.952	0.06401	0.09113	0.786
Mof_Cl	Cl	0.26537	0.00714	0.05895	-0.522
Mof_Cl	Cl	0.06079	0.95721	0.17169	-0.472
Mof_C 	C 	0.2793	0.7526	0.1458	0.131
Mof_N 	N 	0.2606	0.218	0.9917	-0.147
Mof_Cl	Cl	0.20176	0.05008	0.88721	-0.513
Mof_Cl	Cl	0.09085	0.20022	0.10345	-0.457
Mof_N 	N 	0.8988	0.1338	0.1881	-0.145
Mof_S 	S 	0.37418	0.69596	0.19265	-0.127
Mof_C 	C 	0.3408	0.2625	0.984	0.113
Mof_C 	C 	0.8642	0.1758	0.2348	0.124
Mof_Cu	Cu	0.51976	0.76125	0.13537	0.846
Mof_S 	S 	0.45543	0.32258	0.97174	-0.164
Mof_S 	S 	0.81592	0.23879	0.29988	-0.113
Mof_N 	N 	0.5165	0.9126	0.1164	-0.313
Mof_C 	C 	0.5291	0.9968	0.1022	0.393
Mof_C 	C 	0.5434	0.1039	0.0833	-0.852
Mof_H 	H 	0.6028	0.1339	0.1115	0.32
Mof_H 	H 	0.4764	0.1421	0.0911	0.311
Mof_H 	H 	0.5608	0.1083	0.0344	0.299
Mof_Nb	Nb	0.39899	0.39969	0.44539	0.797
Mof_Cl	Cl	0.52715	0.25622	0.43178	-0.455
Mof_N 	N 	0.2882	0.2941	0.3865	-0.142
Mof_Nb	Nb	0.37523	0.60701	0.50399	0.799
Mof_Cl	Cl	0.32324	0.30728	0.54338	-0.495
Mof_Nb	Nb	0.548	0.56401	0.40887	0.79
Mof_Cl	Cl	0.23463	0.50714	0.44105	-0.53
Mof_Cl	Cl	0.43921	0.45721	0.32831	-0.469
Mof_C 	C 	0.2207	0.2526	0.3542	0.132
Mof_N 	N 	0.2394	0.718	0.5083	-0.146
Mof_Cl	Cl	0.29824	0.55008	0.61279	-0.514
Mof_Cl	Cl	0.40915	0.70022	0.39655	-0.464
Mof_N 	N 	0.6012	0.6338	0.3119	-0.144
Mof_S 	S 	0.12582	0.19596	0.30735	-0.122
Mof_C 	C 	0.1592	0.7625	0.516	0.114
Mof_C 	C 	0.6358	0.6758	0.2652	0.125
Mof_Cu	Cu	0.98024	0.26125	0.36463	0.845
Mof_S 	S 	0.04457	0.82258	0.52826	-0.167
Mof_S 	S 	0.68408	0.73879	0.20012	-0.112
Mof_N 	N 	0.9835	0.4126	0.3836	-0.314
Mof_C 	C 	0.9709	0.4968	0.3978	0.398
Mof_C 	C 	0.9566	0.6039	0.4167	-0.855
Mof_H 	H 	0.8972	0.6339	0.3885	0.321
Mof_H 	H 	0.0236	0.6421	0.4089	0.311
Mof_H 	H 	0.9392	0.6083	0.4656	0.3
Mof_Nb	Nb	0.89899	0.10031	0.94539	0.789
Mof_Cl	Cl	0.02715	0.24378	0.93178	-0.453
Mof_N 	N 	0.7882	0.2059	0.8865	-0.142
Mof_Nb	Nb	0.87523	0.89299	0.00399	0.8
Mof_Cl	Cl	0.82324	0.19272	0.04338	-0.495
Mof_Nb	Nb	0.048	0.93599	0.90887	0.786
Mof_Cl	Cl	0.73463	0.99286	0.94105	-0.522
Mof_Cl	Cl	0.93921	0.04279	0.82831	-0.472
Mof_C 	C 	0.7207	0.2474	0.8542	0.131
Mof_N 	N 	0.7394	0.782	0.0083	-0.147
Mof_Cl	Cl	0.79824	0.94992	0.11279	-0.513
Mof_Cl	Cl	0.90915	0.79978	0.89655	-0.457
Mof_N 	N 	0.1012	0.8662	0.8119	-0.145
Mof_S 	S 	0.62582	0.30404	0.80735	-0.127
Mof_C 	C 	0.6592	0.7375	0.016	0.113
Mof_C 	C 	0.1358	0.8242	0.7652	0.124
Mof_Cu	Cu	0.48024	0.23875	0.86463	0.846
Mof_S 	S 	0.54457	0.67742	0.02826	-0.164
Mof_S 	S 	0.18408	0.76121	0.70012	-0.113
Mof_N 	N 	0.4835	0.0874	0.8836	-0.313
Mof_C 	C 	0.4709	0.0032	0.8978	0.393
Mof_C 	C 	0.4566	0.8961	0.9167	-0.852
Mof_H 	H 	0.3972	0.8661	0.8885	0.32
Mof_H 	H 	0.5236	0.8579	0.9089	0.311
Mof_H 	H 	0.4392	0.8917	0.9656	0.299
Mof_Nb	Nb	0.60101	0.60031	0.55461	0.797
Mof_Cl	Cl	0.47285	0.74378	0.56822	-0.455
Mof_N 	N 	0.7118	0.7059	0.6135	-0.142
Mof_Nb	Nb	0.62477	0.39299	0.49601	0.799
Mof_Cl	Cl	0.67676	0.69272	0.45662	-0.495
Mof_Nb	Nb	0.452	0.43599	0.59113	0.79
Mof_Cl	Cl	0.76537	0.49286	0.55895	-0.53
Mof_Cl	Cl	0.56079	0.54279	0.67169	-0.469
Mof_C 	C 	0.7793	0.7474	0.6458	0.132
Mof_N 	N 	0.7606	0.282	0.4917	-0.146
Mof_Cl	Cl	0.70176	0.44992	0.38721	-0.514
Mof_Cl	Cl	0.59085	0.29978	0.60345	-0.464
Mof_N 	N 	0.3988	0.3662	0.6881	-0.144
Mof_S 	S 	0.87418	0.80404	0.69265	-0.122
Mof_C 	C 	0.8408	0.2375	0.484	0.114
Mof_C 	C 	0.3642	0.3242	0.7348	0.125
Mof_Cu	Cu	0.01976	0.73875	0.63537	0.845
Mof_S 	S 	0.95543	0.17742	0.47174	-0.167
Mof_S 	S 	0.31592	0.26121	0.79988	-0.112
Mof_N 	N 	0.0165	0.5874	0.6164	-0.314
Mof_C 	C 	0.0291	0.5032	0.6022	0.398
Mof_C 	C 	0.0434	0.3961	0.5833	-0.855
Mof_H 	H 	0.1028	0.3661	0.6115	0.321
Mof_H 	H 	0.9764	0.3579	0.5911	0.311
Mof_H 	H 	0.0608	0.3917	0.5344	0.3
_end
