data_functionalizedCrystal
_audit_creation_method	'EQeq! by Chris Wilmer'
_symmetry_space_group_name_H-M	'P1'
_symmetry_Int_Tables_number	1
_symmetry_cell_setting	triclinic
loop_
_symmetry_equiv_pos_as_xyz
  x,y,z
_cell_length_a	17.446
_cell_length_b	18.762
_cell_length_c	27.758
_cell_angle_alpha	90
_cell_angle_beta	90
_cell_angle_gamma	90
loop_
_atom_site_label
_atom_site_type_symbol
_atom_site_fract_x
_atom_site_fract_y
_atom_site_fract_z
_atom_site_charge
Mof_Co	Co	0.50656	0.96678	0.68287	1.159
Mof_Co	Co	0.99344	0.46678	0.31713	1.159
Mof_Co	Co	0.50656	0.96678	0.81713	1.159
Mof_Co	Co	0.99344	0.46678	0.18287	1.158
Mof_Co	Co	0.61866	0.85474	0.75	1.173
Mof_Co	Co	0.88134	0.35474	0.25	1.173
Mof_H 	H 	0.243	0.0007	0.6828	0.039
Mof_H 	H 	0.1257	0.0296	0.65	0.066
Mof_H 	H 	0.2189	0.0511	0.5215	0.07
Mof_H 	H 	0.338	0.0255	0.554	0.039
Mof_H 	H 	0.6904	0.0446	0.5952	0.017
Mof_H 	H 	0.7986	0.0884	0.5582	0.078
Mof_H 	H 	0.9219	0.9347	0.6204	0.082
Mof_H 	H 	0.8161	0.9003	0.6633	0.02
Mof_H 	H 	0.0698	0.3102	0.4133	0.029
Mof_H 	H 	0.0821	0.2335	0.476	0.075
Mof_H 	H 	0.9136	0.1122	0.4228	0.077
Mof_H 	H 	0.9058	0.1847	0.3568	0.021
Mof_H 	H 	0.0205	0.0096	0.6119	0.063
Mof_H 	H 	0.8917	0.0973	0.5077	0.065
Mof_H 	H 	0.1203	0.1209	0.5068	0.067
Mof_H 	H 	0.257	0.5007	0.3172	0.037
Mof_H 	H 	0.3743	0.5296	0.35	0.065
Mof_H 	H 	0.2811	0.5511	0.4785	0.07
Mof_H 	H 	0.162	0.5255	0.446	0.038
Mof_H 	H 	0.8096	0.5446	0.4048	0.015
Mof_H 	H 	0.7014	0.5884	0.4418	0.078
Mof_H 	H 	0.5781	0.4347	0.3796	0.082
Mof_H 	H 	0.6839	0.4003	0.3367	0.018
Mof_H 	H 	0.4302	0.8102	0.5867	0.028
Mof_H 	H 	0.4179	0.7335	0.524	0.076
Mof_H 	H 	0.5864	0.6122	0.5772	0.078
Mof_H 	H 	0.5942	0.6847	0.6432	0.02
Mof_H 	H 	0.4795	0.5096	0.3881	0.062
Mof_H 	H 	0.6083	0.5973	0.4923	0.064
Mof_H 	H 	0.3797	0.6209	0.4932	0.066
Mof_H 	H 	0.243	0.0007	0.8172	0.039
Mof_H 	H 	0.1257	0.0296	0.85	0.064
Mof_H 	H 	0.2189	0.0511	0.9785	0.069
Mof_H 	H 	0.338	0.0255	0.946	0.039
Mof_H 	H 	0.6904	0.0446	0.9048	0.016
Mof_H 	H 	0.7986	0.0884	0.9418	0.077
Mof_H 	H 	0.9219	0.9347	0.8796	0.082
Mof_H 	H 	0.8161	0.9003	0.8367	0.019
Mof_H 	H 	0.0698	0.3102	0.0867	0.03
Mof_H 	H 	0.0821	0.2335	0.024	0.073
Mof_H 	H 	0.9136	0.1122	0.0772	0.075
Mof_H 	H 	0.9058	0.1847	0.1432	0.022
Mof_H 	H 	0.0205	0.0096	0.8881	0.064
Mof_H 	H 	0.8917	0.0973	0.9923	0.067
Mof_H 	H 	0.1203	0.1209	0.9932	0.069
Mof_H 	H 	0.257	0.5007	0.1828	0.037
Mof_H 	H 	0.3743	0.5296	0.15	0.066
Mof_H 	H 	0.2811	0.5511	0.0215	0.07
Mof_H 	H 	0.162	0.5255	0.054	0.038
Mof_H 	H 	0.8096	0.5446	0.0952	0.015
Mof_H 	H 	0.7014	0.5884	0.0582	0.078
Mof_H 	H 	0.5781	0.4347	0.1204	0.082
Mof_H 	H 	0.6839	0.4003	0.1633	0.018
Mof_H 	H 	0.4302	0.8102	0.9133	0.028
Mof_H 	H 	0.4179	0.7335	0.976	0.076
Mof_H 	H 	0.5864	0.6122	0.9228	0.078
Mof_H 	H 	0.5942	0.6847	0.8568	0.02
Mof_H 	H 	0.4795	0.5096	0.1119	0.062
Mof_H 	H 	0.6083	0.5973	0.0077	0.064
Mof_H 	H 	0.3797	0.6209	0.0068	0.066
Mof_C 	C 	0.3811	0.9992	0.6447	0.317
Mof_C 	C 	0.3038	0.0138	0.62208	-0.093
Mof_C 	C 	0.2394	0.0125	0.6503	0.026
Mof_C 	C 	0.1686	0.029	0.6302	-0.107
Mof_C 	C 	0.1599	0.044	0.58279	0.044
Mof_C 	C 	0.2234	0.0421	0.5544	-0.107
Mof_C 	C 	0.2953	0.0268	0.574	0.028
Mof_C 	C 	0.6734	0.9486	0.66508	0.425
Mof_C 	C 	0.7421	0.9718	0.63558	-0.154
Mof_C 	C 	0.7379	0.0247	0.6024	0.072
Mof_C 	C 	0.8027	0.0498	0.579	-0.138
Mof_C 	C 	0.8732	0.0182	0.58621	0.063
Mof_C 	C 	0.8762	0.9596	0.61683	-0.136
Mof_C 	C 	0.8123	0.9381	0.64182	0.072
Mof_C 	C 	0.9753	0.3083	0.33735	0.409
Mof_C 	C 	0.9847	0.2567	0.3775	-0.14
Mof_C 	C 	0.0388	0.27	0.4148	0.06
Mof_C 	C 	0.0453	0.2244	0.45256	-0.124
Mof_C 	C 	0.99931	0.1651	0.45724	0.054
Mof_C 	C 	0.9457	0.1516	0.42051	-0.13
Mof_C 	C 	0.9401	0.1958	0.38128	0.063
Mof_C 	C 	0.0826	0.0601	0.56128	0.038
Mof_C 	C 	0.0168	0.0348	0.58312	-0.1
Mof_C 	C 	0.9436	0.0469	0.56214	0.031
Mof_C 	C 	0.9394	0.0884	0.52137	-0.1
Mof_C 	C 	0.0049	0.1178	0.4999	0.037
Mof_C 	C 	0.0761	0.1023	0.52068	-0.104
Mof_C 	C 	0.1189	0.4992	0.3553	0.318
Mof_C 	C 	0.1962	0.5138	0.37792	-0.095
Mof_C 	C 	0.2606	0.5125	0.3497	0.027
Mof_C 	C 	0.3314	0.529	0.3698	-0.108
Mof_C 	C 	0.3401	0.544	0.41721	0.045
Mof_C 	C 	0.2766	0.5421	0.4456	-0.108
Mof_C 	C 	0.2047	0.5268	0.426	0.029
Mof_C 	C 	0.8266	0.4486	0.33492	0.425
Mof_C 	C 	0.7579	0.4718	0.36442	-0.157
Mof_C 	C 	0.7621	0.5247	0.3976	0.076
Mof_C 	C 	0.6973	0.5498	0.421	-0.141
Mof_C 	C 	0.6268	0.5182	0.41379	0.067
Mof_C 	C 	0.6238	0.4596	0.38317	-0.14
Mof_C 	C 	0.6877	0.4381	0.35818	0.074
Mof_C 	C 	0.5247	0.8083	0.66265	0.411
Mof_C 	C 	0.5153	0.7567	0.6225	-0.141
Mof_C 	C 	0.4612	0.77	0.5852	0.062
Mof_C 	C 	0.4547	0.7244	0.54744	-0.128
Mof_C 	C 	0.50069	0.6651	0.54276	0.059
Mof_C 	C 	0.5543	0.6516	0.57949	-0.133
Mof_C 	C 	0.5599	0.6958	0.61872	0.065
Mof_C 	C 	0.4174	0.5601	0.43872	0.036
Mof_C 	C 	0.4832	0.5348	0.41688	-0.1
Mof_C 	C 	0.5564	0.5469	0.43786	0.029
Mof_C 	C 	0.5606	0.5884	0.47863	-0.096
Mof_C 	C 	0.4951	0.6178	0.5001	0.031
Mof_C 	C 	0.4239	0.6023	0.47932	-0.101
Mof_C 	C 	0.3811	0.9992	0.8553	0.315
Mof_C 	C 	0.3038	0.0138	0.87792	-0.092
Mof_C 	C 	0.2394	0.0125	0.8497	0.024
Mof_C 	C 	0.1686	0.029	0.8698	-0.104
Mof_C 	C 	0.1599	0.044	0.91721	0.041
Mof_C 	C 	0.2234	0.0421	0.9456	-0.105
Mof_C 	C 	0.2953	0.0268	0.926	0.026
Mof_C 	C 	0.6734	0.9486	0.83492	0.425
Mof_C 	C 	0.7421	0.9718	0.86442	-0.155
Mof_C 	C 	0.7379	0.0247	0.8976	0.073
Mof_C 	C 	0.8027	0.0498	0.921	-0.138
Mof_C 	C 	0.8732	0.0182	0.91379	0.063
Mof_C 	C 	0.8762	0.9596	0.88317	-0.136
Mof_C 	C 	0.8123	0.9381	0.85818	0.072
Mof_C 	C 	0.9753	0.3083	0.16265	0.408
Mof_C 	C 	0.9847	0.2567	0.1225	-0.139
Mof_C 	C 	0.0388	0.27	0.0852	0.058
Mof_C 	C 	0.0453	0.2244	0.04744	-0.118
Mof_C 	C 	0.99931	0.1651	0.04276	0.047
Mof_C 	C 	0.9457	0.1516	0.07949	-0.126
Mof_C 	C 	0.9401	0.1958	0.11872	0.059
Mof_C 	C 	0.0826	0.0601	0.93872	0.041
Mof_C 	C 	0.0168	0.0348	0.91688	-0.105
Mof_C 	C 	0.9436	0.0469	0.93786	0.034
Mof_C 	C 	0.9394	0.0884	0.97863	-0.104
Mof_C 	C 	0.0049	0.1178	0.0001	0.043
Mof_C 	C 	0.0761	0.1023	0.97932	-0.11
Mof_C 	C 	0.1189	0.4992	0.1447	0.318
Mof_C 	C 	0.1962	0.5138	0.12208	-0.095
Mof_C 	C 	0.2606	0.5125	0.1503	0.027
Mof_C 	C 	0.3314	0.529	0.1302	-0.108
Mof_C 	C 	0.3401	0.544	0.08279	0.045
Mof_C 	C 	0.2766	0.5421	0.0544	-0.108
Mof_C 	C 	0.2047	0.5268	0.074	0.029
Mof_C 	C 	0.8266	0.4486	0.16508	0.426
Mof_C 	C 	0.7579	0.4718	0.13558	-0.157
Mof_C 	C 	0.7621	0.5247	0.1024	0.076
Mof_C 	C 	0.6973	0.5498	0.079	-0.141
Mof_C 	C 	0.6268	0.5182	0.08621	0.067
Mof_C 	C 	0.6238	0.4596	0.11683	-0.14
Mof_C 	C 	0.6877	0.4381	0.14182	0.074
Mof_C 	C 	0.5247	0.8083	0.83735	0.411
Mof_C 	C 	0.5153	0.7567	0.8775	-0.141
Mof_C 	C 	0.4612	0.77	0.9148	0.062
Mof_C 	C 	0.4547	0.7244	0.95256	-0.129
Mof_C 	C 	0.50069	0.6651	0.95724	0.059
Mof_C 	C 	0.5543	0.6516	0.92051	-0.133
Mof_C 	C 	0.5599	0.6958	0.88128	0.065
Mof_C 	C 	0.4174	0.5601	0.06128	0.035
Mof_C 	C 	0.4832	0.5348	0.08312	-0.099
Mof_C 	C 	0.5564	0.5469	0.06214	0.029
Mof_C 	C 	0.5606	0.5884	0.02137	-0.095
Mof_C 	C 	0.4951	0.6178	0.9999	0.031
Mof_C 	C 	0.4239	0.6023	0.02068	-0.101
Mof_O 	O 	0.43953	0.0041	0.61873	-0.362
Mof_O 	O 	0.38491	0.9801	0.68706	-0.39
Mof_O 	O 	0.68344	0.9077	0.69869	-0.465
Mof_O 	O 	0.60979	0.9721	0.65134	-0.472
Mof_O 	O 	0.93084	0.29303	0.304	-0.435
Mof_O 	O 	0.0132	0.3646	0.34021	-0.422
Mof_O 	O 	0.06047	0.5041	0.38127	-0.362
Mof_O 	O 	0.11509	0.4801	0.31294	-0.39
Mof_O 	O 	0.81656	0.4077	0.30131	-0.465
Mof_O 	O 	0.89021	0.4721	0.34866	-0.472
Mof_O 	O 	0.56916	0.79303	0.696	-0.435
Mof_O 	O 	0.4868	0.8646	0.65979	-0.424
Mof_O 	O 	0.43953	0.0041	0.88127	-0.361
Mof_O 	O 	0.38491	0.9801	0.81294	-0.39
Mof_O 	O 	0.68344	0.9077	0.80131	-0.465
Mof_O 	O 	0.60979	0.9721	0.84866	-0.472
Mof_O 	O 	0.93084	0.29303	0.196	-0.435
Mof_O 	O 	0.0132	0.3646	0.15979	-0.421
Mof_O 	O 	0.06047	0.5041	0.11873	-0.362
Mof_O 	O 	0.11509	0.4801	0.18706	-0.39
Mof_O 	O 	0.81656	0.4077	0.19869	-0.465
Mof_O 	O 	0.89021	0.4721	0.15134	-0.473
Mof_O 	O 	0.56916	0.79303	0.804	-0.435
Mof_O 	O 	0.4868	0.8646	0.84021	-0.424
Mof_O 	O 	0.5255	0.9277	0.75	-0.605
Mof_O 	O 	0.9745	0.4277	0.25	-0.606
Mof_Co	Co	0.49344	0.03322	0.18287	1.158
Mof_Co	Co	0.00656	0.53322	0.81713	1.157
Mof_Co	Co	0.49344	0.03322	0.31713	1.158
Mof_Co	Co	0.00656	0.53322	0.68287	1.158
Mof_Co	Co	0.38134	0.14526	0.25	1.172
Mof_Co	Co	0.11866	0.64526	0.75	1.172
Mof_H 	H 	0.757	0.9993	0.1828	0.039
Mof_H 	H 	0.8743	0.9704	0.15	0.064
Mof_H 	H 	0.7811	0.9489	0.0215	0.069
Mof_H 	H 	0.662	0.9745	0.054	0.039
Mof_H 	H 	0.3096	0.9554	0.0952	0.016
Mof_H 	H 	0.2014	0.9116	0.0582	0.077
Mof_H 	H 	0.0781	0.0653	0.1204	0.082
Mof_H 	H 	0.1839	0.0997	0.1633	0.019
Mof_H 	H 	0.9302	0.6898	0.9133	0.03
Mof_H 	H 	0.9179	0.7665	0.976	0.073
Mof_H 	H 	0.0864	0.8878	0.9228	0.075
Mof_H 	H 	0.0942	0.8153	0.8568	0.022
Mof_H 	H 	0.9795	0.9904	0.1119	0.064
Mof_H 	H 	0.1083	0.9027	0.0077	0.067
Mof_H 	H 	0.8797	0.8791	0.0068	0.069
Mof_H 	H 	0.743	0.4993	0.8172	0.037
Mof_H 	H 	0.6257	0.4704	0.85	0.066
Mof_H 	H 	0.7189	0.4489	0.9785	0.07
Mof_H 	H 	0.838	0.4745	0.946	0.038
Mof_H 	H 	0.1904	0.4554	0.9048	0.015
Mof_H 	H 	0.2986	0.4116	0.9418	0.078
Mof_H 	H 	0.4219	0.5653	0.8796	0.082
Mof_H 	H 	0.3161	0.5997	0.8367	0.018
Mof_H 	H 	0.5698	0.1898	0.0867	0.028
Mof_H 	H 	0.5821	0.2665	0.024	0.076
Mof_H 	H 	0.4136	0.3878	0.0772	0.078
Mof_H 	H 	0.4058	0.3153	0.1432	0.02
Mof_H 	H 	0.5205	0.4904	0.8881	0.062
Mof_H 	H 	0.3917	0.4027	0.9923	0.064
Mof_H 	H 	0.6203	0.3791	0.9932	0.066
Mof_H 	H 	0.757	0.9993	0.3172	0.038
Mof_H 	H 	0.8743	0.9704	0.35	0.065
Mof_H 	H 	0.7811	0.9489	0.4785	0.069
Mof_H 	H 	0.662	0.9745	0.446	0.038
Mof_H 	H 	0.3096	0.9554	0.4048	0.016
Mof_H 	H 	0.2014	0.9116	0.4418	0.077
Mof_H 	H 	0.0781	0.0653	0.3796	0.081
Mof_H 	H 	0.1839	0.0997	0.3367	0.019
Mof_H 	H 	0.9302	0.6898	0.5867	0.029
Mof_H 	H 	0.9179	0.7665	0.524	0.075
Mof_H 	H 	0.0864	0.8878	0.5772	0.077
Mof_H 	H 	0.0942	0.8153	0.6432	0.021
Mof_H 	H 	0.9795	0.9904	0.3881	0.063
Mof_H 	H 	0.1083	0.9027	0.4923	0.065
Mof_H 	H 	0.8797	0.8791	0.4932	0.067
Mof_H 	H 	0.743	0.4993	0.6828	0.037
Mof_H 	H 	0.6257	0.4704	0.65	0.065
Mof_H 	H 	0.7189	0.4489	0.5215	0.07
Mof_H 	H 	0.838	0.4745	0.554	0.038
Mof_H 	H 	0.1904	0.4554	0.5952	0.015
Mof_H 	H 	0.2986	0.4116	0.5582	0.078
Mof_H 	H 	0.4219	0.5653	0.6204	0.082
Mof_H 	H 	0.3161	0.5997	0.6633	0.018
Mof_H 	H 	0.5698	0.1898	0.4133	0.028
Mof_H 	H 	0.5821	0.2665	0.476	0.076
Mof_H 	H 	0.4136	0.3878	0.4228	0.078
Mof_H 	H 	0.4058	0.3153	0.3568	0.02
Mof_H 	H 	0.5205	0.4904	0.6119	0.062
Mof_H 	H 	0.3917	0.4027	0.5077	0.064
Mof_H 	H 	0.6203	0.3791	0.5068	0.066
Mof_C 	C 	0.6189	0.0008	0.1447	0.315
Mof_C 	C 	0.6962	0.9862	0.12208	-0.092
Mof_C 	C 	0.7606	0.9875	0.1503	0.024
Mof_C 	C 	0.8314	0.971	0.1302	-0.104
Mof_C 	C 	0.8401	0.956	0.08279	0.041
Mof_C 	C 	0.7766	0.9579	0.0544	-0.105
Mof_C 	C 	0.7047	0.9732	0.074	0.026
Mof_C 	C 	0.3266	0.0514	0.16508	0.425
Mof_C 	C 	0.2579	0.0282	0.13558	-0.155
Mof_C 	C 	0.2621	0.9753	0.1024	0.073
Mof_C 	C 	0.1973	0.9502	0.079	-0.138
Mof_C 	C 	0.1268	0.9818	0.08621	0.063
Mof_C 	C 	0.1238	0.0404	0.11683	-0.136
Mof_C 	C 	0.1877	0.0619	0.14182	0.072
Mof_C 	C 	0.0247	0.6917	0.83735	0.408
Mof_C 	C 	0.0153	0.7433	0.8775	-0.139
Mof_C 	C 	0.9612	0.73	0.9148	0.058
Mof_C 	C 	0.9547	0.7756	0.95256	-0.118
Mof_C 	C 	0.00069	0.8349	0.95724	0.047
Mof_C 	C 	0.0543	0.8484	0.92051	-0.126
Mof_C 	C 	0.0599	0.8042	0.88128	0.059
Mof_C 	C 	0.9174	0.9399	0.06128	0.041
Mof_C 	C 	0.9832	0.9652	0.08312	-0.105
Mof_C 	C 	0.0564	0.9531	0.06214	0.034
Mof_C 	C 	0.0606	0.9116	0.02137	-0.104
Mof_C 	C 	0.9951	0.8822	0.9999	0.043
Mof_C 	C 	0.9239	0.8977	0.02068	-0.11
Mof_C 	C 	0.8811	0.5008	0.8553	0.318
Mof_C 	C 	0.8038	0.4862	0.87792	-0.095
Mof_C 	C 	0.7394	0.4875	0.8497	0.027
Mof_C 	C 	0.6686	0.471	0.8698	-0.108
Mof_C 	C 	0.6599	0.456	0.91721	0.045
Mof_C 	C 	0.7234	0.4579	0.9456	-0.108
Mof_C 	C 	0.7953	0.4732	0.926	0.029
Mof_C 	C 	0.1734	0.5514	0.83492	0.426
Mof_C 	C 	0.2421	0.5282	0.86442	-0.157
Mof_C 	C 	0.2379	0.4753	0.8976	0.076
Mof_C 	C 	0.3027	0.4502	0.921	-0.141
Mof_C 	C 	0.3732	0.4818	0.91379	0.067
Mof_C 	C 	0.3762	0.5404	0.88317	-0.14
Mof_C 	C 	0.3123	0.5619	0.85818	0.074
Mof_C 	C 	0.4753	0.1917	0.16265	0.411
Mof_C 	C 	0.4847	0.2433	0.1225	-0.141
Mof_C 	C 	0.5388	0.23	0.0852	0.062
Mof_C 	C 	0.5453	0.2756	0.04744	-0.129
Mof_C 	C 	0.49931	0.3349	0.04276	0.059
Mof_C 	C 	0.4457	0.3484	0.07949	-0.133
Mof_C 	C 	0.4401	0.3042	0.11872	0.065
Mof_C 	C 	0.5826	0.4399	0.93872	0.035
Mof_C 	C 	0.5168	0.4652	0.91688	-0.099
Mof_C 	C 	0.4436	0.4531	0.93786	0.029
Mof_C 	C 	0.4394	0.4116	0.97863	-0.095
Mof_C 	C 	0.5049	0.3822	0.0001	0.031
Mof_C 	C 	0.5761	0.3977	0.97932	-0.101
Mof_C 	C 	0.6189	0.0008	0.3553	0.317
Mof_C 	C 	0.6962	0.9862	0.37792	-0.093
Mof_C 	C 	0.7606	0.9875	0.3497	0.026
Mof_C 	C 	0.8314	0.971	0.3698	-0.107
Mof_C 	C 	0.8401	0.956	0.41721	0.044
Mof_C 	C 	0.7766	0.9579	0.4456	-0.107
Mof_C 	C 	0.7047	0.9732	0.426	0.028
Mof_C 	C 	0.3266	0.0514	0.33492	0.425
Mof_C 	C 	0.2579	0.0282	0.36442	-0.154
Mof_C 	C 	0.2621	0.9753	0.3976	0.072
Mof_C 	C 	0.1973	0.9502	0.421	-0.138
Mof_C 	C 	0.1268	0.9818	0.41379	0.063
Mof_C 	C 	0.1238	0.0404	0.38317	-0.136
Mof_C 	C 	0.1877	0.0619	0.35818	0.072
Mof_C 	C 	0.0247	0.6917	0.66265	0.409
Mof_C 	C 	0.0153	0.7433	0.6225	-0.14
Mof_C 	C 	0.9612	0.73	0.5852	0.06
Mof_C 	C 	0.9547	0.7756	0.54744	-0.124
Mof_C 	C 	0.00069	0.8349	0.54276	0.054
Mof_C 	C 	0.0543	0.8484	0.57949	-0.13
Mof_C 	C 	0.0599	0.8042	0.61872	0.063
Mof_C 	C 	0.9174	0.9399	0.43872	0.038
Mof_C 	C 	0.9832	0.9652	0.41688	-0.1
Mof_C 	C 	0.0564	0.9531	0.43786	0.031
Mof_C 	C 	0.0606	0.9116	0.47863	-0.1
Mof_C 	C 	0.9951	0.8822	0.5001	0.037
Mof_C 	C 	0.9239	0.8977	0.47932	-0.104
Mof_C 	C 	0.8811	0.5008	0.6447	0.318
Mof_C 	C 	0.8038	0.4862	0.62208	-0.095
Mof_C 	C 	0.7394	0.4875	0.6503	0.027
Mof_C 	C 	0.6686	0.471	0.6302	-0.108
Mof_C 	C 	0.6599	0.456	0.58279	0.045
Mof_C 	C 	0.7234	0.4579	0.5544	-0.108
Mof_C 	C 	0.7953	0.4732	0.574	0.029
Mof_C 	C 	0.1734	0.5514	0.66508	0.425
Mof_C 	C 	0.2421	0.5282	0.63558	-0.157
Mof_C 	C 	0.2379	0.4753	0.6024	0.076
Mof_C 	C 	0.3027	0.4502	0.579	-0.141
Mof_C 	C 	0.3732	0.4818	0.58621	0.067
Mof_C 	C 	0.3762	0.5404	0.61683	-0.14
Mof_C 	C 	0.3123	0.5619	0.64182	0.074
Mof_C 	C 	0.4753	0.1917	0.33735	0.411
Mof_C 	C 	0.4847	0.2433	0.3775	-0.141
Mof_C 	C 	0.5388	0.23	0.4148	0.062
Mof_C 	C 	0.5453	0.2756	0.45256	-0.128
Mof_C 	C 	0.49931	0.3349	0.45724	0.059
Mof_C 	C 	0.4457	0.3484	0.42051	-0.133
Mof_C 	C 	0.4401	0.3042	0.38128	0.065
Mof_C 	C 	0.5826	0.4399	0.56128	0.036
Mof_C 	C 	0.5168	0.4652	0.58312	-0.1
Mof_C 	C 	0.4436	0.4531	0.56214	0.029
Mof_C 	C 	0.4394	0.4116	0.52137	-0.096
Mof_C 	C 	0.5049	0.3822	0.4999	0.031
Mof_C 	C 	0.5761	0.3977	0.52068	-0.101
Mof_O 	O 	0.56047	0.9959	0.11873	-0.361
Mof_O 	O 	0.61509	0.0199	0.18706	-0.39
Mof_O 	O 	0.31656	0.0923	0.19869	-0.465
Mof_O 	O 	0.39021	0.0279	0.15134	-0.472
Mof_O 	O 	0.06916	0.70697	0.804	-0.435
Mof_O 	O 	0.9868	0.6354	0.84021	-0.421
Mof_O 	O 	0.93953	0.4959	0.88127	-0.362
Mof_O 	O 	0.88491	0.5199	0.81294	-0.39
Mof_O 	O 	0.18344	0.5923	0.80131	-0.465
Mof_O 	O 	0.10979	0.5279	0.84866	-0.473
Mof_O 	O 	0.43084	0.20697	0.196	-0.435
Mof_O 	O 	0.5132	0.1354	0.15979	-0.424
Mof_O 	O 	0.56047	0.9959	0.38127	-0.362
Mof_O 	O 	0.61509	0.0199	0.31294	-0.39
Mof_O 	O 	0.31656	0.0923	0.30131	-0.465
Mof_O 	O 	0.39021	0.0279	0.34866	-0.472
Mof_O 	O 	0.06916	0.70697	0.696	-0.435
Mof_O 	O 	0.9868	0.6354	0.65979	-0.422
Mof_O 	O 	0.93953	0.4959	0.61873	-0.362
Mof_O 	O 	0.88491	0.5199	0.68706	-0.39
Mof_O 	O 	0.18344	0.5923	0.69869	-0.465
Mof_O 	O 	0.10979	0.5279	0.65134	-0.472
Mof_O 	O 	0.43084	0.20697	0.304	-0.435
Mof_O 	O 	0.5132	0.1354	0.34021	-0.424
Mof_O 	O 	0.4745	0.0723	0.25	-0.605
Mof_O 	O 	0.0255	0.5723	0.75	-0.606
_end
