data_functionalizedCrystal
_audit_creation_method	'EQeq! by Chris Wilmer'
_symmetry_space_group_name_H-M	'P1'
_symmetry_Int_Tables_number	1
_symmetry_cell_setting	triclinic
loop_
_symmetry_equiv_pos_as_xyz
  x,y,z
_cell_length_a	10.2304
_cell_length_b	10.5293
_cell_length_c	13.0853
_cell_angle_alpha	100.836
_cell_angle_beta	90.736
_cell_angle_gamma	113.42
loop_
_atom_site_label
_atom_site_type_symbol
_atom_site_fract_x
_atom_site_fract_y
_atom_site_fract_z
_atom_site_charge
Mof_Zn	Zn	0.3419	0.19524	0.43893	1.188
Mof_Zn	Zn	0.6581	0.80476	0.56107	1.195
Mof_Zn	Zn	0.5	-2.24795e-17	0.5	1.16
Mof_H 	H 	0.5795	0.5489	0.7173	0.023
Mof_H 	H 	0.8126	0.3216	0.7181	0.029
Mof_H 	H 	0.7146	0.7017	0.8702	0.097
Mof_H 	H 	0.357	0.4756	0.5528	-0.006
Mof_H 	H 	0.7384	0.6445	0.0647	0.06
Mof_H 	H 	0.226	0.9049	0.1152	0.073
Mof_H 	H 	0.1317	0.9405	0.8733	0.107
Mof_H 	H 	0.3	0.9796	0.7545	0.047
Mof_H 	H 	0.3804	0.6594	0.8092	0.037
Mof_H 	H 	0.2214	0.6283	0.9378	0.086
Mof_H 	H 	0.2189	0.6021	0.5823	0.093
Mof_H 	H 	0.9031	0.2815	0.3997	0.082
Mof_H 	H 	0.0528	0.1642	0.3717	-0.011
Mof_H 	H 	0.9406	0.4689	0.869	0.09
Mof_H 	H 	0.6523	0.6727	0.3086	0.301
Mof_H 	H 	0.4205	0.4511	0.2827	0.028
Mof_H 	H 	0.1874	0.6784	0.2819	0.039
Mof_H 	H 	0.2854	0.2983	0.1298	0.077
Mof_H 	H 	0.643	0.5244	0.4472	-0.003
Mof_H 	H 	0.2616	0.3555	0.9353	0.057
Mof_H 	H 	0.774	0.0951	0.8848	0.043
Mof_H 	H 	0.8683	0.0595	0.1267	0.08
Mof_H 	H 	0.7	0.0204	0.2455	0.002
Mof_H 	H 	0.6196	0.3406	0.1908	0.028
Mof_H 	H 	0.7786	0.3717	0.0622	0.09
Mof_H 	H 	0.7811	0.3979	0.4177	0.086
Mof_H 	H 	0.0969	0.7185	0.6003	0.079
Mof_H 	H 	0.9472	0.8358	0.6283	0.021
Mof_H 	H 	0.0594	0.5311	0.131	0.086
Mof_H 	H 	0.3477	0.3273	0.6914	0.298
Mof_C 	C 	0.5802	0.3069	0.6142	0.386
Mof_C 	C 	0.6731	0.4107	0.707	-0.147
Mof_C 	C 	0.6499	0.5304	0.7492	0.069
Mof_C 	C 	0.7884	0.3949	0.7501	0.076
Mof_C 	C 	0.7333	0.6239	0.8406	-0.141
Mof_C 	C 	0.8436	0.6013	0.8873	0.094
Mof_C 	C 	0.2635	0.4353	0.5215	0.107
Mof_C 	C 	0.9185	0.6902	0.9896	-0.032
Mof_C 	C 	0.8372	0.695	0.0749	-0.019
Mof_C 	C 	0.901	0.7736	0.1747	-0.05
Mof_C 	C 	0.805	0.7813	0.258	0.379
Mof_C 	C 	0.0477	0.8529	0.1913	-0.048
Mof_C 	C 	0.1233	0.933	0.2966	0.409
Mof_C 	C 	0.1277	0.8512	0.1059	-0.029
Mof_C 	C 	0.064	0.7709	0.0068	-0.005
Mof_C 	C 	0.4561	0.8426	0.6808	0.382
Mof_C 	C 	0.1834	0.8845	0.8626	-0.134
Mof_C 	C 	0.2822	0.9058	0.7891	0.065
Mof_C 	C 	0.3539	0.8199	0.7665	-0.125
Mof_C 	C 	0.3313	0.7176	0.8224	0.064
Mof_C 	C 	0.2352	0.6981	0.8997	-0.131
Mof_C 	C 	0.1612	0.7841	0.9186	0.086
Mof_C 	C 	0.1813	0.5128	0.5384	-0.147
Mof_C 	C 	0.0465	0.4598	0.4917	0.084
Mof_C 	C 	0.9967	0.3249	0.431	-0.143
Mof_C 	C 	0.0862	0.253	0.4161	0.098
Mof_C 	C 	0.8676	0.4861	0.8395	-0.15
Mof_C 	C 	0.4198	0.6931	0.3858	0.382
Mof_C 	C 	0.3269	0.5893	0.293	-0.128
Mof_C 	C 	0.3501	0.4696	0.2508	0.054
Mof_C 	C 	0.2116	0.6051	0.2499	0.065
Mof_C 	C 	0.2667	0.3761	0.1594	-0.124
Mof_C 	C 	0.1564	0.3987	0.1127	0.077
Mof_C 	C 	0.7365	0.5647	0.4785	0.097
Mof_C 	C 	0.0815	0.3098	0.0104	-0.017
Mof_C 	C 	0.1628	0.305	0.9251	-0.032
Mof_C 	C 	0.099	0.2264	0.8253	-0.076
Mof_C 	C 	0.195	0.2187	0.742	0.386
Mof_C 	C 	0.9523	0.1471	0.8087	-0.024
Mof_C 	C 	0.8767	0.067	0.7034	0.231
Mof_C 	C 	0.8723	0.1488	0.8941	-0.051
Mof_C 	C 	0.936	0.2291	0.9932	-0.03
Mof_C 	C 	0.5439	0.1574	0.3192	0.391
Mof_C 	C 	0.8166	0.1155	0.1374	-0.161
Mof_C 	C 	0.7178	0.0942	0.2109	0.075
Mof_C 	C 	0.6461	0.1801	0.2335	-0.155
Mof_C 	C 	0.6687	0.2824	0.1776	0.074
Mof_C 	C 	0.7648	0.3019	0.1003	-0.151
Mof_C 	C 	0.8388	0.2159	0.0814	0.095
Mof_C 	C 	0.8187	0.4872	0.4616	-0.128
Mof_C 	C 	0.9535	0.5402	0.5083	0.059
Mof_C 	C 	0.0033	0.6751	0.569	-0.112
Mof_C 	C 	0.9138	0.747	0.5839	0.08
Mof_C 	C 	0.1324	0.5139	0.1605	-0.132
Mof_N 	N 	0.2156	0.3075	0.4633	-0.269
Mof_N 	N 	0.7844	0.6925	0.5367	-0.26
Mof_O 	O 	0.8288	0.8892	0.3225	-0.287
Mof_O 	O 	0.6963	0.6625	0.258	-0.488
Mof_O 	O 	0.2077	0.0587	0.3054	-0.494
Mof_O 	O 	0.1003	0.8622	0.3685	-0.288
Mof_O 	O 	0.4666	0.3157	0.5837	-0.483
Mof_O 	O 	0.6185	0.2097	0.5714	-0.487
Mof_O 	O 	0.5037	0.7487	0.651	-0.471
Mof_O 	O 	0.4848	0.9524	0.6459	-0.471
Mof_O 	O 	0.1712	0.1108	0.6775	-0.348
Mof_O 	O 	0.3037	0.3375	0.742	-0.495
Mof_O 	O 	0.7923	0.9413	0.6946	-0.353
Mof_O 	O 	0.8997	0.1378	0.6315	-0.277
Mof_O 	O 	0.5334	0.6843	0.4163	-0.471
Mof_O 	O 	0.3815	0.7903	0.4286	-0.452
Mof_O 	O 	0.4963	0.2513	0.349	-0.479
Mof_O 	O 	0.5152	0.0476	0.3541	-0.532
_end
