# CIF file generated by openbabel 3.1.0, see https://openbabel.org
data_I
_chemical_name_common 'image0'
_cell_length_a 16.52
_cell_length_b 34.6
_cell_length_c 9.361
_cell_angle_alpha 90
_cell_angle_beta 112.4
_cell_angle_gamma 90
_space_group_name_H-M_alt 'P 1'
_space_group_name_Hall 'P 1'
loop_
    _symmetry_equiv_pos_as_xyz
    x,y,z
loop_
    _atom_site_label
    _atom_site_type_symbol
    _atom_site_fract_x
    _atom_site_fract_y
    _atom_site_fract_z
    _atom_site_occupancy
    N1       N        0.88700    0.01600    0.83000    1.000
    N2       N        0.97200    0.94500    0.94500    1.000
    C1       C        0.82700    0.99000    0.72900    1.000
    C2       C        0.82800    0.95300    0.72300    1.000
    C3       C        0.89500    0.92900    0.82100    1.000
    C4       C        0.90400    0.88800    0.80800    1.000
    C5       C        0.98000    0.87600    0.93100    1.000
    C6       C        0.02100    0.91300    0.99400    1.000
    C7       C        0.09400    0.91600    0.15100    1.000
    C8       C        0.86100    0.05200    0.78500    1.000
    C9       C        0.77800    0.05100    0.64800    1.000
    C10      C        0.75500    0.01700    0.62200    1.000
    C11      C        0.74400    0.93100    0.63100    1.000
    C12      C        0.70000    0.90400    0.66700    1.000
    C13      C        0.62500    0.88200    0.56800    1.000
    C14      C        0.64900    0.92100    0.37700    1.000
    C15      C        0.72400    0.94100    0.45800    1.000
    C16      C        0.13700    0.87600    0.20400    1.000
    C17      C        0.18400    0.85100    0.16900    1.000
    C18      C        0.22100    0.81600    0.23500    1.000
    C19      C        0.15800    0.83100    0.41500    1.000
    C20      C        0.13100    0.86800    0.33700    1.000
    N3       N        0.60700    0.89300    0.40800    1.000
    N4       N        0.20500    0.80600    0.37000    1.000
    N5       N        0.38700    0.51600    0.83000    1.000
    N6       N        0.47200    0.44500    0.94500    1.000
    C21      C        0.32700    0.49000    0.72900    1.000
    C22      C        0.32800    0.45300    0.72300    1.000
    C23      C        0.39500    0.42900    0.82100    1.000
    C24      C        0.40400    0.38800    0.80800    1.000
    C25      C        0.48000    0.37600    0.93100    1.000
    C26      C        0.52100    0.41300    0.99400    1.000
    C27      C        0.59400    0.41600    0.15100    1.000
    C28      C        0.36100    0.55200    0.78500    1.000
    C29      C        0.27800    0.55100    0.64800    1.000
    C30      C        0.25500    0.51700    0.62200    1.000
    C31      C        0.24400    0.43100    0.63100    1.000
    C32      C        0.20000    0.40400    0.66700    1.000
    C33      C        0.12500    0.38200    0.56800    1.000
    C34      C        0.14900    0.42100    0.37700    1.000
    C35      C        0.22400    0.44100    0.45800    1.000
    C36      C        0.63700    0.37600    0.20400    1.000
    C37      C        0.68400    0.35100    0.16900    1.000
    C38      C        0.72100    0.31600    0.23500    1.000
    C39      C        0.65800    0.33100    0.41500    1.000
    C40      C        0.63100    0.36800    0.33700    1.000
    N7       N        0.10700    0.39300    0.40800    1.000
    N8       N        0.70500    0.30600    0.37000    1.000
    N9       N        0.11300    0.01600    0.67000    1.000
    N10      N        0.02800    0.94500    0.55500    1.000
    C41      C        0.17300    0.99000    0.77100    1.000
    C42      C        0.17200    0.95300    0.77700    1.000
    C43      C        0.10500    0.92900    0.67900    1.000
    C44      C        0.09600    0.88800    0.69200    1.000
    C45      C        0.02000    0.87600    0.56900    1.000
    C46      C        0.97900    0.91300    0.50600    1.000
    C47      C        0.90600    0.91600    0.34900    1.000
    C48      C        0.13900    0.05200    0.71500    1.000
    C49      C        0.22200    0.05100    0.85200    1.000
    C50      C        0.24500    0.01700    0.87800    1.000
    C51      C        0.25600    0.93100    0.86900    1.000
    C52      C        0.30000    0.90400    0.83300    1.000
    C53      C        0.37500    0.88200    0.93200    1.000
    C54      C        0.35100    0.92100    0.12300    1.000
    C55      C        0.27600    0.94100    0.04200    1.000
    C56      C        0.86300    0.87600    0.29600    1.000
    C57      C        0.81600    0.85100    0.33100    1.000
    C58      C        0.77900    0.81600    0.26500    1.000
    C59      C        0.84200    0.83100    0.08500    1.000
    C60      C        0.86900    0.86800    0.16300    1.000
    N11      N        0.39300    0.89300    0.09200    1.000
    N12      N        0.79500    0.80600    0.13000    1.000
    N13      N        0.61300    0.51600    0.67000    1.000
    N14      N        0.52800    0.44500    0.55500    1.000
    C61      C        0.67300    0.49000    0.77100    1.000
    C62      C        0.67200    0.45300    0.77700    1.000
    C63      C        0.60500    0.42900    0.67900    1.000
    C64      C        0.59600    0.38800    0.69200    1.000
    C65      C        0.52000    0.37600    0.56900    1.000
    C66      C        0.47900    0.41300    0.50600    1.000
    C67      C        0.40600    0.41600    0.34900    1.000
    C68      C        0.63900    0.55200    0.71500    1.000
    C69      C        0.72200    0.55100    0.85200    1.000
    C70      C        0.74500    0.51700    0.87800    1.000
    C71      C        0.75600    0.43100    0.86900    1.000
    C72      C        0.80000    0.40400    0.83300    1.000
    C73      C        0.87500    0.38200    0.93200    1.000
    C74      C        0.85100    0.42100    0.12300    1.000
    C75      C        0.77600    0.44100    0.04200    1.000
    C76      C        0.36300    0.37600    0.29600    1.000
    C77      C        0.31600    0.35100    0.33100    1.000
    C78      C        0.27900    0.31600    0.26500    1.000
    C79      C        0.34200    0.33100    0.08500    1.000
    C80      C        0.36900    0.36800    0.16300    1.000
    N15      N        0.89300    0.39300    0.09200    1.000
    N16      N        0.29500    0.30600    0.13000    1.000
    N17      N        0.11300    0.98400    0.17000    1.000
    N18      N        0.02800    0.05500    0.05500    1.000
    C81      C        0.17300    0.01000    0.27100    1.000
    C82      C        0.17200    0.04700    0.27700    1.000
    C83      C        0.10500    0.07100    0.17900    1.000
    C84      C        0.09600    0.11200    0.19200    1.000
    C85      C        0.02000    0.12400    0.06900    1.000
    C86      C        0.97900    0.08700    0.00600    1.000
    C87      C        0.90600    0.08400    0.84900    1.000
    C88      C        0.13900    0.94800    0.21500    1.000
    C89      C        0.22200    0.94900    0.35200    1.000
    C90      C        0.24500    0.98300    0.37800    1.000
    C91      C        0.25600    0.06900    0.36900    1.000
    C92      C        0.30000    0.09600    0.33300    1.000
    C93      C        0.37500    0.11800    0.43200    1.000
    C94      C        0.35100    0.07900    0.62300    1.000
    C95      C        0.27600    0.05900    0.54200    1.000
    C96      C        0.86300    0.12400    0.79600    1.000
    C97      C        0.81600    0.14900    0.83100    1.000
    C98      C        0.77900    0.18400    0.76500    1.000
    C99      C        0.84200    0.16900    0.58500    1.000
    C100     C        0.86900    0.13200    0.66300    1.000
    N19      N        0.39300    0.10700    0.59200    1.000
    N20      N        0.79500    0.19400    0.63000    1.000
    N21      N        0.61300    0.48400    0.17000    1.000
    N22      N        0.52800    0.55500    0.05500    1.000
    C101     C        0.67300    0.51000    0.27100    1.000
    C102     C        0.67200    0.54700    0.27700    1.000
    C103     C        0.60500    0.57100    0.17900    1.000
    C104     C        0.59600    0.61200    0.19200    1.000
    C105     C        0.52000    0.62400    0.06900    1.000
    C106     C        0.47900    0.58700    0.00600    1.000
    C107     C        0.40600    0.58400    0.84900    1.000
    C108     C        0.63900    0.44800    0.21500    1.000
    C109     C        0.72200    0.44900    0.35200    1.000
    C110     C        0.74500    0.48300    0.37800    1.000
    C111     C        0.75600    0.56900    0.36900    1.000
    C112     C        0.80000    0.59600    0.33300    1.000
    C113     C        0.87500    0.61800    0.43200    1.000
    C114     C        0.85100    0.57900    0.62300    1.000
    C115     C        0.77600    0.55900    0.54200    1.000
    C116     C        0.36300    0.62400    0.79600    1.000
    C117     C        0.31600    0.64900    0.83100    1.000
    C118     C        0.27900    0.68400    0.76500    1.000
    C119     C        0.34200    0.66900    0.58500    1.000
    C120     C        0.36900    0.63200    0.66300    1.000
    N23      N        0.89300    0.60700    0.59200    1.000
    N24      N        0.29500    0.69400    0.63000    1.000
    N25      N        0.88700    0.98400    0.33000    1.000
    N26      N        0.97200    0.05500    0.44500    1.000
    C121     C        0.82700    0.01000    0.22900    1.000
    C122     C        0.82800    0.04700    0.22300    1.000
    C123     C        0.89500    0.07100    0.32100    1.000
    C124     C        0.90400    0.11200    0.30800    1.000
    C125     C        0.98000    0.12400    0.43100    1.000
    C126     C        0.02100    0.08700    0.49400    1.000
    C127     C        0.09400    0.08400    0.65100    1.000
    C128     C        0.86100    0.94800    0.28500    1.000
    C129     C        0.77800    0.94900    0.14800    1.000
    C130     C        0.75500    0.98300    0.12200    1.000
    C131     C        0.74400    0.06900    0.13100    1.000
    C132     C        0.70000    0.09600    0.16700    1.000
    C133     C        0.62500    0.11800    0.06800    1.000
    C134     C        0.64900    0.07900    0.87700    1.000
    C135     C        0.72400    0.05900    0.95800    1.000
    C136     C        0.13700    0.12400    0.70400    1.000
    C137     C        0.18400    0.14900    0.66900    1.000
    C138     C        0.22100    0.18400    0.73500    1.000
    C139     C        0.15800    0.16900    0.91500    1.000
    C140     C        0.13100    0.13200    0.83700    1.000
    N27      N        0.60700    0.10700    0.90800    1.000
    N28      N        0.20500    0.19400    0.87000    1.000
    N29      N        0.38700    0.48400    0.33000    1.000
    N30      N        0.47200    0.55500    0.44500    1.000
    C141     C        0.32700    0.51000    0.22900    1.000
    C142     C        0.32800    0.54700    0.22300    1.000
    C143     C        0.39500    0.57100    0.32100    1.000
    C144     C        0.40400    0.61200    0.30800    1.000
    C145     C        0.48000    0.62400    0.43100    1.000
    C146     C        0.52100    0.58700    0.49400    1.000
    C147     C        0.59400    0.58400    0.65100    1.000
    C148     C        0.36100    0.44800    0.28500    1.000
    C149     C        0.27800    0.44900    0.14800    1.000
    C150     C        0.25500    0.48300    0.12200    1.000
    C151     C        0.24400    0.56900    0.13100    1.000
    C152     C        0.20000    0.59600    0.16700    1.000
    C153     C        0.12500    0.61800    0.06800    1.000
    C154     C        0.14900    0.57900    0.87700    1.000
    C155     C        0.22400    0.55900    0.95800    1.000
    C156     C        0.63700    0.62400    0.70400    1.000
    C157     C        0.68400    0.64900    0.66900    1.000
    C158     C        0.72100    0.68400    0.73500    1.000
    C159     C        0.65800    0.66900    0.91500    1.000
    C160     C        0.63100    0.63200    0.83700    1.000
    N31      N        0.10700    0.60700    0.90800    1.000
    N32      N        0.70500    0.69400    0.87000    1.000
    Cd1      Cd       0.50000    0.14840    0.75000    1.000
    Cd2      Cd       0.00000    0.64840    0.75000    1.000
    Cd3      Cd       0.50000    0.85160    0.25000    1.000
    Cd4      Cd       0.00000    0.35160    0.25000    1.000
    Cd5      Cd       0.25000    0.75000    0.50000    1.000
    Cd6      Cd       0.75000    0.75000    0.00000    1.000
    Cd7      Cd       0.75000    0.25000    0.50000    1.000
    Cd8      Cd       0.25000    0.25000    0.00000    1.000
    Pd1      Pd       0.00000    0.00000    0.00000    1.000
    Pd2      Pd       0.50000    0.50000    0.00000    1.000
    Pd3      Pd       0.00000    0.00000    0.50000    1.000
    Pd4      Pd       0.50000    0.50000    0.50000    1.000
