data_functionalizedCrystal
_audit_creation_method	'EQeq! by Chris Wilmer'
_symmetry_space_group_name_H-M	'P1'
_symmetry_Int_Tables_number	1
_symmetry_cell_setting	triclinic
loop_
_symmetry_equiv_pos_as_xyz
  x,y,z
_cell_length_a	25.7599
_cell_length_b	25.7599
_cell_length_c	6.8766
_cell_angle_alpha	90
_cell_angle_beta	90
_cell_angle_gamma	120
loop_
_atom_site_label
_atom_site_type_symbol
_atom_site_fract_x
_atom_site_fract_y
_atom_site_fract_z
_atom_site_charge
Mof_Co	Co	0.31428	0.36412	0.47743	1.164
Mof_O 	O 	0.02929	0.32539	0.6415	-0.572
Mof_O 	O 	0.25231	0.31108	0.6705	-0.531
Mof_O 	O 	0.07257	0.30239	0.4047	-0.467
Mof_C 	C 	0.0716	0.3183	0.5754	0.414
Mof_C 	C 	0.1197	0.327	0.7134	-0.177
Mof_C 	C 	0.1649	0.3181	0.6431	-0.1
Mof_H 	H 	0.1636	0.3079	0.5097	0.077
Mof_C 	C 	0.2115	0.3229	0.754	0.194
Mof_Co	Co	0.98095	0.69745	0.81076	1.163
Mof_O 	O 	0.69596	0.65872	0.97483	-0.573
Mof_O 	O 	0.91898	0.64441	0.00383	-0.531
Mof_O 	O 	0.73924	0.63572	0.73803	-0.467
Mof_C 	C 	0.73827	0.65163	0.90873	0.414
Mof_C 	C 	0.78637	0.66033	0.04673	-0.178
Mof_C 	C 	0.83157	0.65143	0.97643	-0.099
Mof_H 	H 	0.83027	0.64123	0.84303	0.077
Mof_C 	C 	0.87817	0.65623	0.08733	0.193
Mof_Co	Co	0.64761	0.03079	0.1441	1.163
Mof_O 	O 	0.36262	0.99206	0.30817	-0.573
Mof_O 	O 	0.58564	0.97775	0.33717	-0.53
Mof_O 	O 	0.4059	0.96906	0.07137	-0.467
Mof_C 	C 	0.40493	0.98497	0.24207	0.414
Mof_C 	C 	0.45303	0.99367	0.38007	-0.177
Mof_C 	C 	0.49823	0.98477	0.30977	-0.1
Mof_H 	H 	0.49693	0.97457	0.17637	0.077
Mof_C 	C 	0.54483	0.98957	0.42067	0.193
Mof_Co	Co	0.63588	0.95016	0.47743	1.163
Mof_O 	O 	0.67461	0.7039	0.6415	-0.573
Mof_O 	O 	0.68892	0.94123	0.6705	-0.531
Mof_O 	O 	0.69761	0.77018	0.4047	-0.467
Mof_C 	C 	0.6817	0.7533	0.5754	0.414
Mof_C 	C 	0.673	0.7927	0.7134	-0.177
Mof_C 	C 	0.6819	0.8468	0.6431	-0.1
Mof_H 	H 	0.6921	0.8557	0.5097	0.077
Mof_C 	C 	0.6771	0.8886	0.754	0.194
Mof_Co	Co	0.30255	0.28349	0.81076	1.163
Mof_O 	O 	0.34128	0.03723	0.97483	-0.573
Mof_O 	O 	0.35559	0.27456	0.00383	-0.53
Mof_O 	O 	0.36428	0.10351	0.73803	-0.467
Mof_C 	C 	0.34837	0.08663	0.90873	0.414
Mof_C 	C 	0.33967	0.12603	0.04673	-0.178
Mof_C 	C 	0.34857	0.18013	0.97643	-0.099
Mof_H 	H 	0.35877	0.18903	0.84303	0.077
Mof_C 	C 	0.34377	0.22193	0.08733	0.193
Mof_Co	Co	0.96921	0.61683	0.1441	1.163
Mof_O 	O 	0.00794	0.37057	0.30817	-0.573
Mof_O 	O 	0.02225	0.6079	0.33717	-0.53
Mof_O 	O 	0.03094	0.43685	0.07137	-0.467
Mof_C 	C 	0.01503	0.41997	0.24207	0.414
Mof_C 	C 	0.00633	0.45937	0.38007	-0.177
Mof_C 	C 	0.01523	0.51347	0.30977	-0.1
Mof_H 	H 	0.02543	0.52237	0.17637	0.077
Mof_C 	C 	0.01043	0.55527	0.42067	0.193
Mof_Co	Co	0.04984	0.68572	0.47743	1.163
Mof_O 	O 	0.2961	0.97071	0.6415	-0.573
Mof_O 	O 	0.05877	0.74769	0.6705	-0.531
Mof_O 	O 	0.22982	0.92743	0.4047	-0.467
Mof_C 	C 	0.2467	0.9284	0.5754	0.414
Mof_C 	C 	0.2073	0.8803	0.7134	-0.177
Mof_C 	C 	0.1532	0.8351	0.6431	-0.1
Mof_H 	H 	0.1443	0.8364	0.5097	0.077
Mof_C 	C 	0.1114	0.7885	0.754	0.194
Mof_Co	Co	0.71651	0.01905	0.81076	1.164
Mof_O 	O 	0.96277	0.30404	0.97483	-0.573
Mof_O 	O 	0.72544	0.08102	0.00383	-0.53
Mof_O 	O 	0.89649	0.26076	0.73803	-0.467
Mof_C 	C 	0.91337	0.26173	0.90873	0.415
Mof_C 	C 	0.87397	0.21363	0.04673	-0.179
Mof_C 	C 	0.81987	0.16843	0.97643	-0.097
Mof_H 	H 	0.81097	0.16973	0.84303	0.076
Mof_C 	C 	0.77807	0.12183	0.08733	0.192
Mof_Co	Co	0.38317	0.35239	0.1441	1.163
Mof_O 	O 	0.62943	0.63738	0.30817	-0.573
Mof_O 	O 	0.3921	0.41436	0.33717	-0.531
Mof_O 	O 	0.56315	0.5941	0.07137	-0.467
Mof_C 	C 	0.58003	0.59507	0.24207	0.414
Mof_C 	C 	0.54063	0.54697	0.38007	-0.177
Mof_C 	C 	0.48653	0.50177	0.30977	-0.1
Mof_H 	H 	0.47763	0.50307	0.17637	0.077
Mof_C 	C 	0.44473	0.45517	0.42067	0.193
Mof_Co	Co	0.68572	0.63588	0.52257	1.163
Mof_O 	O 	0.97071	0.67461	0.3585	-0.573
Mof_O 	O 	0.74769	0.68892	0.3295	-0.531
Mof_O 	O 	0.92743	0.69761	0.5953	-0.467
Mof_C 	C 	0.9284	0.6817	0.4246	0.414
Mof_C 	C 	0.8803	0.673	0.2866	-0.177
Mof_C 	C 	0.8351	0.6819	0.3569	-0.1
Mof_H 	H 	0.8364	0.6921	0.4903	0.077
Mof_C 	C 	0.7885	0.6771	0.246	0.194
Mof_Co	Co	0.35239	0.96921	0.8559	1.163
Mof_O 	O 	0.63738	0.00794	0.69183	-0.573
Mof_O 	O 	0.41436	0.02225	0.66283	-0.53
Mof_O 	O 	0.5941	0.03094	0.92863	-0.467
Mof_C 	C 	0.59507	0.01503	0.75793	0.414
Mof_C 	C 	0.54697	0.00633	0.61993	-0.177
Mof_C 	C 	0.50177	0.01523	0.69023	-0.1
Mof_H 	H 	0.50307	0.02543	0.82363	0.077
Mof_C 	C 	0.45517	0.01043	0.57933	0.193
Mof_Co	Co	0.01905	0.30255	0.18924	1.163
Mof_O 	O 	0.30404	0.34128	0.02517	-0.573
Mof_O 	O 	0.08102	0.35559	0.99617	-0.531
Mof_O 	O 	0.26076	0.36428	0.26197	-0.467
Mof_C 	C 	0.26173	0.34837	0.09127	0.414
Mof_C 	C 	0.21363	0.33967	0.95327	-0.178
Mof_C 	C 	0.16843	0.34857	0.02357	-0.099
Mof_H 	H 	0.16973	0.35877	0.15697	0.077
Mof_C 	C 	0.12183	0.34377	0.91267	0.193
Mof_Co	Co	0.36412	0.04984	0.52257	1.163
Mof_O 	O 	0.32539	0.2961	0.3585	-0.573
Mof_O 	O 	0.31108	0.05877	0.3295	-0.531
Mof_O 	O 	0.30239	0.22982	0.5953	-0.467
Mof_C 	C 	0.3183	0.2467	0.4246	0.414
Mof_C 	C 	0.327	0.2073	0.2866	-0.177
Mof_C 	C 	0.3181	0.1532	0.3569	-0.1
Mof_H 	H 	0.3079	0.1443	0.4903	0.077
Mof_C 	C 	0.3229	0.1114	0.246	0.194
Mof_Co	Co	0.03079	0.38317	0.8559	1.163
Mof_O 	O 	0.99206	0.62943	0.69183	-0.573
Mof_O 	O 	0.97775	0.3921	0.66283	-0.53
Mof_O 	O 	0.96906	0.56315	0.92863	-0.467
Mof_C 	C 	0.98497	0.58003	0.75793	0.414
Mof_C 	C 	0.99367	0.54063	0.61993	-0.177
Mof_C 	C 	0.98477	0.48653	0.69023	-0.1
Mof_H 	H 	0.97457	0.47763	0.82363	0.077
Mof_C 	C 	0.98957	0.44473	0.57933	0.193
Mof_Co	Co	0.69745	0.71651	0.18924	1.163
Mof_O 	O 	0.65872	0.96277	0.02517	-0.573
Mof_O 	O 	0.64441	0.72544	0.99617	-0.53
Mof_O 	O 	0.63572	0.89649	0.26197	-0.467
Mof_C 	C 	0.65163	0.91337	0.09127	0.414
Mof_C 	C 	0.66033	0.87397	0.95327	-0.178
Mof_C 	C 	0.65143	0.81987	0.02357	-0.099
Mof_H 	H 	0.64123	0.81097	0.15697	0.077
Mof_C 	C 	0.65623	0.77807	0.91267	0.193
Mof_Co	Co	0.95016	0.31428	0.52257	1.163
Mof_O 	O 	0.7039	0.02929	0.3585	-0.573
Mof_O 	O 	0.94123	0.25231	0.3295	-0.531
Mof_O 	O 	0.77018	0.07257	0.5953	-0.467
Mof_C 	C 	0.7533	0.0716	0.4246	0.414
Mof_C 	C 	0.7927	0.1197	0.2866	-0.177
Mof_C 	C 	0.8468	0.1649	0.3569	-0.1
Mof_H 	H 	0.8557	0.1636	0.4903	0.077
Mof_C 	C 	0.8886	0.2115	0.246	0.194
Mof_Co	Co	0.61683	0.64761	0.8559	1.163
Mof_O 	O 	0.37057	0.36262	0.69183	-0.573
Mof_O 	O 	0.6079	0.58564	0.66283	-0.531
Mof_O 	O 	0.43685	0.4059	0.92863	-0.467
Mof_C 	C 	0.41997	0.40493	0.75793	0.414
Mof_C 	C 	0.45937	0.45303	0.61993	-0.177
Mof_C 	C 	0.51347	0.49823	0.69023	-0.1
Mof_H 	H 	0.52237	0.49693	0.82363	0.077
Mof_C 	C 	0.55527	0.54483	0.57933	0.193
Mof_Co	Co	0.28349	0.98095	0.18924	1.164
Mof_O 	O 	0.03723	0.69596	0.02517	-0.573
Mof_O 	O 	0.27456	0.91898	0.99617	-0.53
Mof_O 	O 	0.10351	0.73924	0.26197	-0.467
Mof_C 	C 	0.08663	0.73827	0.09127	0.415
Mof_C 	C 	0.12603	0.78637	0.95327	-0.179
Mof_C 	C 	0.18013	0.83157	0.02357	-0.097
Mof_H 	H 	0.18903	0.83027	0.15697	0.076
Mof_C 	C 	0.22193	0.87817	0.91267	0.192
_end
