# CIF file generated by openbabel 3.1.0, see https://openbabel.org
data_I
_chemical_name_common 'image0'
_cell_length_a 15.923
_cell_length_b 26.37
_cell_length_c 20.627
_cell_angle_alpha 90
_cell_angle_beta 91.005
_cell_angle_gamma 90
_space_group_name_H-M_alt 'P 1'
_space_group_name_Hall 'P 1'
loop_
    _symmetry_equiv_pos_as_xyz
    x,y,z
loop_
    _atom_site_label
    _atom_site_type_symbol
    _atom_site_fract_x
    _atom_site_fract_y
    _atom_site_fract_z
    _atom_site_occupancy
    S1       S        0.23739    0.01639    0.69862    1.000
    C1       C        0.14790    0.04150    0.65660    1.000
    C2       C        0.08050    0.01100    0.63560    1.000
    C3       C        0.01330    0.03270    0.60190    1.000
    C4       C        0.01610    0.08400    0.58380    1.000
    H1       H        0.97050    0.09810    0.55960    1.000
    C5       C        0.08550    0.11510    0.60070    1.000
    C6       C        0.14940    0.09250    0.63930    1.000
    H2       H        0.19510    0.11290    0.65390    1.000
    O1       O        0.08140    0.95906    0.64670    1.000
    C7       C        0.13130    0.93400    0.59730    1.000
    H3       H        0.19100    0.94420    0.60200    1.000
    H4       H        0.11100    0.94410    0.55350    1.000
    C8       C        0.12350    0.87750    0.60510    1.000
    C9       C        0.17490    0.84780    0.56760    1.000
    H5       H        0.21430    0.86450    0.54090    1.000
    N1       N        0.17260    0.79640    0.56650    1.000
    C10      C        0.11940    0.77400    0.60600    1.000
    H6       H        0.11760    0.73800    0.60640    1.000
    C11      C        0.06710    0.79970    0.64620    1.000
    H7       H        0.03030    0.78180    0.67390    1.000
    C12      C        0.06880    0.85280    0.64590    1.000
    H8       H        0.03290    0.87160    0.67330    1.000
    C13      C        0.09200    0.17020    0.57830    1.000
    C14      C        0.17410    0.17690    0.54140    1.000
    H9       H        0.22120    0.16450    0.56820    1.000
    H10      H        0.18250    0.21290    0.53160    1.000
    H11      H        0.17100    0.15750    0.50090    1.000
    C15      C        0.09540    0.20570    0.63790    1.000
    H12      H        0.04740    0.19870    0.66560    1.000
    H13      H        0.09350    0.24100    0.62340    1.000
    H14      H        0.14770    0.19970    0.66250    1.000
    C16      C        0.01770    0.18630    0.53520    1.000
    H15      H        0.01530    0.16490    0.49640    1.000
    H16      H        0.02470    0.22180    0.52230    1.000
    H17      H        0.96550    0.18260    0.55910    1.000
    S2       S        0.92828    0.99489    0.56965    1.000
    C17      C        0.87780    0.96960    0.63900    1.000
    C18      C        0.84990    0.99970    0.68800    1.000
    C19      C        0.80360    0.97830    0.73830    1.000
    C20      C        0.78440    0.92660    0.73620    1.000
    H18      H        0.75470    0.91210    0.77120    1.000
    C21      C        0.80660    0.89620    0.68610    1.000
    C22      C        0.85590    0.91820    0.63720    1.000
    H19      H        0.87450    0.89770    0.60240    1.000
    O2       O        0.86430    0.05200    0.68720    1.000
    C23      C        0.79260    0.07760    0.65560    1.000
    H20      H        0.74140    0.07310    0.68160    1.000
    H21      H        0.78200    0.06310    0.61200    1.000
    C24      C        0.81350    0.13300    0.65030    1.000
    C25      C        0.78110    0.16050    0.59820    1.000
    H22      H        0.74780    0.14310    0.56660    1.000
    N2       N        0.79440    0.21070    0.59000    1.000
    C26      C        0.84010    0.23540    0.63620    1.000
    H23      H        0.84920    0.27080    0.63150    1.000
    C27      C        0.87400    0.21100    0.68980    1.000
    H24      H        0.90550    0.22950    0.72140    1.000
    C28      C        0.86170    0.15930    0.69690    1.000
    H25      H        0.88560    0.14180    0.73300    1.000
    C29      C        0.77650    0.84140    0.67850    1.000
    C30      C        0.73450    0.82200    0.73950    1.000
    H26      H        0.72080    0.78600    0.73420    1.000
    H27      H        0.68280    0.84130    0.74670    1.000
    H28      H        0.77280    0.82630    0.77680    1.000
    C31      C        0.84650    0.80530    0.66290    1.000
    H29      H        0.88770    0.80490    0.69870    1.000
    H30      H        0.87390    0.81630    0.62310    1.000
    H31      H        0.82350    0.77110    0.65660    1.000
    C32      C        0.70990    0.84080    0.62260    1.000
    H32      H        0.73430    0.85510    0.58330    1.000
    H33      H        0.66120    0.86120    0.63500    1.000
    H34      H        0.69200    0.80580    0.61420    1.000
    N3       N        0.65160    0.19630    0.48940    1.000
    C33      C        0.58630    0.17800    0.47580    1.000
    S3       S        0.49690    0.15439    0.45660    1.000
    S4       S        0.73739    0.51639    0.69862    1.000
    C34      C        0.64790    0.54150    0.65660    1.000
    C35      C        0.58050    0.51100    0.63560    1.000
    C36      C        0.51330    0.53270    0.60190    1.000
    C37      C        0.51610    0.58400    0.58380    1.000
    H35      H        0.47050    0.59810    0.55960    1.000
    C38      C        0.58550    0.61510    0.60070    1.000
    C39      C        0.64940    0.59250    0.63930    1.000
    H36      H        0.69510    0.61290    0.65390    1.000
    O3       O        0.58140    0.45906    0.64670    1.000
    C40      C        0.63130    0.43400    0.59730    1.000
    H37      H        0.69100    0.44420    0.60200    1.000
    H38      H        0.61100    0.44410    0.55350    1.000
    C41      C        0.62350    0.37750    0.60510    1.000
    C42      C        0.67490    0.34780    0.56760    1.000
    H39      H        0.71430    0.36450    0.54090    1.000
    N4       N        0.67260    0.29640    0.56650    1.000
    C43      C        0.61940    0.27400    0.60600    1.000
    H40      H        0.61760    0.23800    0.60640    1.000
    C44      C        0.56710    0.29970    0.64620    1.000
    H41      H        0.53030    0.28180    0.67390    1.000
    C45      C        0.56880    0.35280    0.64590    1.000
    H42      H        0.53290    0.37160    0.67330    1.000
    C46      C        0.59200    0.67020    0.57830    1.000
    C47      C        0.67410    0.67690    0.54140    1.000
    H43      H        0.72120    0.66450    0.56820    1.000
    H44      H        0.68250    0.71290    0.53160    1.000
    H45      H        0.67100    0.65750    0.50090    1.000
    C48      C        0.59540    0.70570    0.63790    1.000
    H46      H        0.54740    0.69870    0.66560    1.000
    H47      H        0.59350    0.74100    0.62340    1.000
    H48      H        0.64770    0.69970    0.66250    1.000
    C49      C        0.51770    0.68630    0.53520    1.000
    H49      H        0.51530    0.66490    0.49640    1.000
    H50      H        0.52470    0.72180    0.52230    1.000
    H51      H        0.46550    0.68260    0.55910    1.000
    S5       S        0.42828    0.49489    0.56965    1.000
    C50      C        0.37780    0.46960    0.63900    1.000
    C51      C        0.34990    0.49970    0.68800    1.000
    C52      C        0.30360    0.47830    0.73830    1.000
    C53      C        0.28440    0.42660    0.73620    1.000
    H52      H        0.25470    0.41210    0.77120    1.000
    C54      C        0.30660    0.39620    0.68610    1.000
    C55      C        0.35590    0.41820    0.63720    1.000
    H53      H        0.37450    0.39770    0.60240    1.000
    O4       O        0.36430    0.55200    0.68720    1.000
    C56      C        0.29260    0.57760    0.65560    1.000
    H54      H        0.24140    0.57310    0.68160    1.000
    H55      H        0.28200    0.56310    0.61200    1.000
    C57      C        0.31350    0.63300    0.65030    1.000
    C58      C        0.28110    0.66050    0.59820    1.000
    H56      H        0.24780    0.64310    0.56660    1.000
    N5       N        0.29440    0.71070    0.59000    1.000
    C59      C        0.34010    0.73540    0.63620    1.000
    H57      H        0.34920    0.77080    0.63150    1.000
    C60      C        0.37400    0.71100    0.68980    1.000
    H58      H        0.40550    0.72950    0.72140    1.000
    C61      C        0.36170    0.65930    0.69690    1.000
    H59      H        0.38560    0.64180    0.73300    1.000
    C62      C        0.27650    0.34140    0.67850    1.000
    C63      C        0.23450    0.32200    0.73950    1.000
    H60      H        0.22080    0.28600    0.73420    1.000
    H61      H        0.18280    0.34130    0.74670    1.000
    H62      H        0.27280    0.32630    0.77680    1.000
    C64      C        0.34650    0.30530    0.66290    1.000
    H63      H        0.38770    0.30490    0.69870    1.000
    H64      H        0.37390    0.31630    0.62310    1.000
    H65      H        0.32350    0.27110    0.65660    1.000
    C65      C        0.20990    0.34080    0.62260    1.000
    H66      H        0.23430    0.35510    0.58330    1.000
    H67      H        0.16120    0.36120    0.63500    1.000
    H68      H        0.19200    0.30580    0.61420    1.000
    N6       N        0.15160    0.69630    0.48940    1.000
    C66      C        0.08630    0.67800    0.47580    1.000
    S6       S        0.99690    0.65439    0.45660    1.000
    S7       S        0.76261    0.01639    0.80138    1.000
    C67      C        0.85210    0.04150    0.84340    1.000
    C68      C        0.91950    0.01100    0.86440    1.000
    C69      C        0.98670    0.03270    0.89810    1.000
    C70      C        0.98390    0.08400    0.91620    1.000
    H69      H        0.02950    0.09810    0.94040    1.000
    C71      C        0.91450    0.11510    0.89930    1.000
    C72      C        0.85060    0.09250    0.86070    1.000
    H70      H        0.80490    0.11290    0.84610    1.000
    O5       O        0.91860    0.95906    0.85330    1.000
    C73      C        0.86870    0.93400    0.90270    1.000
    H71      H        0.80900    0.94420    0.89800    1.000
    H72      H        0.88900    0.94410    0.94650    1.000
    C74      C        0.87650    0.87750    0.89490    1.000
    C75      C        0.82510    0.84780    0.93240    1.000
    H73      H        0.78570    0.86450    0.95910    1.000
    N7       N        0.82740    0.79640    0.93350    1.000
    C76      C        0.88060    0.77400    0.89400    1.000
    H74      H        0.88240    0.73800    0.89360    1.000
    C77      C        0.93290    0.79970    0.85380    1.000
    H75      H        0.96970    0.78180    0.82610    1.000
    C78      C        0.93120    0.85280    0.85410    1.000
    H76      H        0.96710    0.87160    0.82670    1.000
    C79      C        0.90800    0.17020    0.92170    1.000
    C80      C        0.82590    0.17690    0.95860    1.000
    H77      H        0.77880    0.16450    0.93180    1.000
    H78      H        0.81750    0.21290    0.96840    1.000
    H79      H        0.82900    0.15750    0.99910    1.000
    C81      C        0.90460    0.20570    0.86210    1.000
    H80      H        0.95260    0.19870    0.83440    1.000
    H81      H        0.90650    0.24100    0.87660    1.000
    H82      H        0.85230    0.19970    0.83750    1.000
    C82      C        0.98230    0.18630    0.96480    1.000
    H83      H        0.98470    0.16490    0.00360    1.000
    H84      H        0.97530    0.22180    0.97770    1.000
    H85      H        0.03450    0.18260    0.94090    1.000
    S8       S        0.07172    0.99489    0.93035    1.000
    C83      C        0.12220    0.96960    0.86100    1.000
    C84      C        0.15010    0.99970    0.81200    1.000
    C85      C        0.19640    0.97830    0.76170    1.000
    C86      C        0.21560    0.92660    0.76380    1.000
    H86      H        0.24530    0.91210    0.72880    1.000
    C87      C        0.19340    0.89620    0.81390    1.000
    C88      C        0.14410    0.91820    0.86280    1.000
    H87      H        0.12550    0.89770    0.89760    1.000
    O6       O        0.13570    0.05200    0.81280    1.000
    C89      C        0.20740    0.07760    0.84440    1.000
    H88      H        0.25860    0.07310    0.81840    1.000
    H89      H        0.21800    0.06310    0.88800    1.000
    C90      C        0.18650    0.13300    0.84970    1.000
    C91      C        0.21890    0.16050    0.90180    1.000
    H90      H        0.25220    0.14310    0.93340    1.000
    N8       N        0.20560    0.21070    0.91000    1.000
    C92      C        0.15990    0.23540    0.86380    1.000
    H91      H        0.15080    0.27080    0.86850    1.000
    C93      C        0.12600    0.21100    0.81020    1.000
    H92      H        0.09450    0.22950    0.77860    1.000
    C94      C        0.13830    0.15930    0.80310    1.000
    H93      H        0.11440    0.14180    0.76700    1.000
    C95      C        0.22350    0.84140    0.82150    1.000
    C96      C        0.26550    0.82200    0.76050    1.000
    H94      H        0.27920    0.78600    0.76580    1.000
    H95      H        0.31720    0.84130    0.75330    1.000
    H96      H        0.22720    0.82630    0.72320    1.000
    C97      C        0.15350    0.80530    0.83710    1.000
    H97      H        0.11230    0.80490    0.80130    1.000
    H98      H        0.12610    0.81630    0.87690    1.000
    H99      H        0.17650    0.77110    0.84340    1.000
    C98      C        0.29010    0.84080    0.87740    1.000
    H100     H        0.26570    0.85510    0.91670    1.000
    H101     H        0.33880    0.86120    0.86500    1.000
    H102     H        0.30800    0.80580    0.88580    1.000
    N9       N        0.34840    0.19630    0.01060    1.000
    C99      C        0.41370    0.17800    0.02420    1.000
    S9       S        0.50310    0.15439    0.04340    1.000
    S10      S        0.26261    0.51639    0.80138    1.000
    C100     C        0.35210    0.54150    0.84340    1.000
    C101     C        0.41950    0.51100    0.86440    1.000
    C102     C        0.48670    0.53270    0.89810    1.000
    C103     C        0.48390    0.58400    0.91620    1.000
    H103     H        0.52950    0.59810    0.94040    1.000
    C104     C        0.41450    0.61510    0.89930    1.000
    C105     C        0.35060    0.59250    0.86070    1.000
    H104     H        0.30490    0.61290    0.84610    1.000
    O7       O        0.41860    0.45906    0.85330    1.000
    C106     C        0.36870    0.43400    0.90270    1.000
    H105     H        0.30900    0.44420    0.89800    1.000
    H106     H        0.38900    0.44410    0.94650    1.000
    C107     C        0.37650    0.37750    0.89490    1.000
    C108     C        0.32510    0.34780    0.93240    1.000
    H107     H        0.28570    0.36450    0.95910    1.000
    N10      N        0.32740    0.29640    0.93350    1.000
    C109     C        0.38060    0.27400    0.89400    1.000
    H108     H        0.38240    0.23800    0.89360    1.000
    C110     C        0.43290    0.29970    0.85380    1.000
    H109     H        0.46970    0.28180    0.82610    1.000
    C111     C        0.43120    0.35280    0.85410    1.000
    H110     H        0.46710    0.37160    0.82670    1.000
    C112     C        0.40800    0.67020    0.92170    1.000
    C113     C        0.32590    0.67690    0.95860    1.000
    H111     H        0.27880    0.66450    0.93180    1.000
    H112     H        0.31750    0.71290    0.96840    1.000
    H113     H        0.32900    0.65750    0.99910    1.000
    C114     C        0.40460    0.70570    0.86210    1.000
    H114     H        0.45260    0.69870    0.83440    1.000
    H115     H        0.40650    0.74100    0.87660    1.000
    H116     H        0.35230    0.69970    0.83750    1.000
    C115     C        0.48230    0.68630    0.96480    1.000
    H117     H        0.48470    0.66490    0.00360    1.000
    H118     H        0.47530    0.72180    0.97770    1.000
    H119     H        0.53450    0.68260    0.94090    1.000
    S11      S        0.57172    0.49489    0.93035    1.000
    C116     C        0.62220    0.46960    0.86100    1.000
    C117     C        0.65010    0.49970    0.81200    1.000
    C118     C        0.69640    0.47830    0.76170    1.000
    C119     C        0.71560    0.42660    0.76380    1.000
    H120     H        0.74530    0.41210    0.72880    1.000
    C120     C        0.69340    0.39620    0.81390    1.000
    C121     C        0.64410    0.41820    0.86280    1.000
    H121     H        0.62550    0.39770    0.89760    1.000
    O8       O        0.63570    0.55200    0.81280    1.000
    C122     C        0.70740    0.57760    0.84440    1.000
    H122     H        0.75860    0.57310    0.81840    1.000
    H123     H        0.71800    0.56310    0.88800    1.000
    C123     C        0.68650    0.63300    0.84970    1.000
    C124     C        0.71890    0.66050    0.90180    1.000
    H124     H        0.75220    0.64310    0.93340    1.000
    N11      N        0.70560    0.71070    0.91000    1.000
    C125     C        0.65990    0.73540    0.86380    1.000
    H125     H        0.65080    0.77080    0.86850    1.000
    C126     C        0.62600    0.71100    0.81020    1.000
    H126     H        0.59450    0.72950    0.77860    1.000
    C127     C        0.63830    0.65930    0.80310    1.000
    H127     H        0.61440    0.64180    0.76700    1.000
    C128     C        0.72350    0.34140    0.82150    1.000
    C129     C        0.76550    0.32200    0.76050    1.000
    H128     H        0.77920    0.28600    0.76580    1.000
    H129     H        0.81720    0.34130    0.75330    1.000
    H130     H        0.72720    0.32630    0.72320    1.000
    C130     C        0.65350    0.30530    0.83710    1.000
    H131     H        0.61230    0.30490    0.80130    1.000
    H132     H        0.62610    0.31630    0.87690    1.000
    H133     H        0.67650    0.27110    0.84340    1.000
    C131     C        0.79010    0.34080    0.87740    1.000
    H134     H        0.76570    0.35510    0.91670    1.000
    H135     H        0.83880    0.36120    0.86500    1.000
    H136     H        0.80800    0.30580    0.88580    1.000
    N12      N        0.84840    0.69630    0.01060    1.000
    C132     C        0.91370    0.67800    0.02420    1.000
    S12      S        0.00310    0.65439    0.04340    1.000
    S13      S        0.76261    0.98361    0.30138    1.000
    C133     C        0.85210    0.95850    0.34340    1.000
    C134     C        0.91950    0.98900    0.36440    1.000
    C135     C        0.98670    0.96730    0.39810    1.000
    C136     C        0.98390    0.91600    0.41620    1.000
    H137     H        0.02950    0.90190    0.44040    1.000
    C137     C        0.91450    0.88490    0.39930    1.000
    C138     C        0.85060    0.90750    0.36070    1.000
    H138     H        0.80490    0.88710    0.34610    1.000
    O9       O        0.91860    0.04094    0.35330    1.000
    C139     C        0.86870    0.06600    0.40270    1.000
    H139     H        0.80900    0.05580    0.39800    1.000
    H140     H        0.88900    0.05590    0.44650    1.000
    C140     C        0.87650    0.12250    0.39490    1.000
    C141     C        0.82510    0.15220    0.43240    1.000
    H141     H        0.78570    0.13550    0.45910    1.000
    N13      N        0.82740    0.20360    0.43350    1.000
    C142     C        0.88060    0.22600    0.39400    1.000
    H142     H        0.88240    0.26200    0.39360    1.000
    C143     C        0.93290    0.20030    0.35380    1.000
    H143     H        0.96970    0.21820    0.32610    1.000
    C144     C        0.93120    0.14720    0.35410    1.000
    H144     H        0.96710    0.12840    0.32670    1.000
    C145     C        0.90800    0.82980    0.42170    1.000
    C146     C        0.82590    0.82310    0.45860    1.000
    H145     H        0.77880    0.83550    0.43180    1.000
    H146     H        0.81750    0.78710    0.46840    1.000
    H147     H        0.82900    0.84250    0.49910    1.000
    C147     C        0.90460    0.79430    0.36210    1.000
    H148     H        0.95260    0.80130    0.33440    1.000
    H149     H        0.90650    0.75900    0.37660    1.000
    H150     H        0.85230    0.80030    0.33750    1.000
    C148     C        0.98230    0.81370    0.46480    1.000
    H151     H        0.98470    0.83510    0.50360    1.000
    H152     H        0.97530    0.77820    0.47770    1.000
    H153     H        0.03450    0.81740    0.44090    1.000
    S14      S        0.07172    0.00511    0.43035    1.000
    C149     C        0.12220    0.03040    0.36100    1.000
    C150     C        0.15010    0.00030    0.31200    1.000
    C151     C        0.19640    0.02170    0.26170    1.000
    C152     C        0.21560    0.07340    0.26380    1.000
    H154     H        0.24530    0.08790    0.22880    1.000
    C153     C        0.19340    0.10380    0.31390    1.000
    C154     C        0.14410    0.08180    0.36280    1.000
    H155     H        0.12550    0.10230    0.39760    1.000
    O10      O        0.13570    0.94800    0.31280    1.000
    C155     C        0.20740    0.92240    0.34440    1.000
    H156     H        0.25860    0.92690    0.31840    1.000
    H157     H        0.21800    0.93690    0.38800    1.000
    C156     C        0.18650    0.86700    0.34970    1.000
    C157     C        0.21890    0.83950    0.40180    1.000
    H158     H        0.25220    0.85690    0.43340    1.000
    N14      N        0.20560    0.78930    0.41000    1.000
    C158     C        0.15990    0.76460    0.36380    1.000
    H159     H        0.15080    0.72920    0.36850    1.000
    C159     C        0.12600    0.78900    0.31020    1.000
    H160     H        0.09450    0.77050    0.27860    1.000
    C160     C        0.13830    0.84070    0.30310    1.000
    H161     H        0.11440    0.85820    0.26700    1.000
    C161     C        0.22350    0.15860    0.32150    1.000
    C162     C        0.26550    0.17800    0.26050    1.000
    H162     H        0.27920    0.21400    0.26580    1.000
    H163     H        0.31720    0.15870    0.25330    1.000
    H164     H        0.22720    0.17370    0.22320    1.000
    C163     C        0.15350    0.19470    0.33710    1.000
    H165     H        0.11230    0.19510    0.30130    1.000
    H166     H        0.12610    0.18370    0.37690    1.000
    H167     H        0.17650    0.22890    0.34340    1.000
    C164     C        0.29010    0.15920    0.37740    1.000
    H168     H        0.26570    0.14490    0.41670    1.000
    H169     H        0.33880    0.13880    0.36500    1.000
    H170     H        0.30800    0.19420    0.38580    1.000
    N15      N        0.34840    0.80370    0.51060    1.000
    C165     C        0.41370    0.82200    0.52420    1.000
    S15      S        0.50310    0.84561    0.54340    1.000
    S16      S        0.26261    0.48361    0.30138    1.000
    C166     C        0.35210    0.45850    0.34340    1.000
    C167     C        0.41950    0.48900    0.36440    1.000
    C168     C        0.48670    0.46730    0.39810    1.000
    C169     C        0.48390    0.41600    0.41620    1.000
    H171     H        0.52950    0.40190    0.44040    1.000
    C170     C        0.41450    0.38490    0.39930    1.000
    C171     C        0.35060    0.40750    0.36070    1.000
    H172     H        0.30490    0.38710    0.34610    1.000
    O11      O        0.41860    0.54094    0.35330    1.000
    C172     C        0.36870    0.56600    0.40270    1.000
    H173     H        0.30900    0.55580    0.39800    1.000
    H174     H        0.38900    0.55590    0.44650    1.000
    C173     C        0.37650    0.62250    0.39490    1.000
    C174     C        0.32510    0.65220    0.43240    1.000
    H175     H        0.28570    0.63550    0.45910    1.000
    N16      N        0.32740    0.70360    0.43350    1.000
    C175     C        0.38060    0.72600    0.39400    1.000
    H176     H        0.38240    0.76200    0.39360    1.000
    C176     C        0.43290    0.70030    0.35380    1.000
    H177     H        0.46970    0.71820    0.32610    1.000
    C177     C        0.43120    0.64720    0.35410    1.000
    H178     H        0.46710    0.62840    0.32670    1.000
    C178     C        0.40800    0.32980    0.42170    1.000
    C179     C        0.32590    0.32310    0.45860    1.000
    H179     H        0.27880    0.33550    0.43180    1.000
    H180     H        0.31750    0.28710    0.46840    1.000
    H181     H        0.32900    0.34250    0.49910    1.000
    C180     C        0.40460    0.29430    0.36210    1.000
    H182     H        0.45260    0.30130    0.33440    1.000
    H183     H        0.40650    0.25900    0.37660    1.000
    H184     H        0.35230    0.30030    0.33750    1.000
    C181     C        0.48230    0.31370    0.46480    1.000
    H185     H        0.48470    0.33510    0.50360    1.000
    H186     H        0.47530    0.27820    0.47770    1.000
    H187     H        0.53450    0.31740    0.44090    1.000
    S17      S        0.57172    0.50511    0.43035    1.000
    C182     C        0.62220    0.53040    0.36100    1.000
    C183     C        0.65010    0.50030    0.31200    1.000
    C184     C        0.69640    0.52170    0.26170    1.000
    C185     C        0.71560    0.57340    0.26380    1.000
    H188     H        0.74530    0.58790    0.22880    1.000
    C186     C        0.69340    0.60380    0.31390    1.000
    C187     C        0.64410    0.58180    0.36280    1.000
    H189     H        0.62550    0.60230    0.39760    1.000
    O12      O        0.63570    0.44800    0.31280    1.000
    C188     C        0.70740    0.42240    0.34440    1.000
    H190     H        0.75860    0.42690    0.31840    1.000
    H191     H        0.71800    0.43690    0.38800    1.000
    C189     C        0.68650    0.36700    0.34970    1.000
    C190     C        0.71890    0.33950    0.40180    1.000
    H192     H        0.75220    0.35690    0.43340    1.000
    N17      N        0.70560    0.28930    0.41000    1.000
    C191     C        0.65990    0.26460    0.36380    1.000
    H193     H        0.65080    0.22920    0.36850    1.000
    C192     C        0.62600    0.28900    0.31020    1.000
    H194     H        0.59450    0.27050    0.27860    1.000
    C193     C        0.63830    0.34070    0.30310    1.000
    H195     H        0.61440    0.35820    0.26700    1.000
    C194     C        0.72350    0.65860    0.32150    1.000
    C195     C        0.76550    0.67800    0.26050    1.000
    H196     H        0.77920    0.71400    0.26580    1.000
    H197     H        0.81720    0.65870    0.25330    1.000
    H198     H        0.72720    0.67370    0.22320    1.000
    C196     C        0.65350    0.69470    0.33710    1.000
    H199     H        0.61230    0.69510    0.30130    1.000
    H200     H        0.62610    0.68370    0.37690    1.000
    H201     H        0.67650    0.72890    0.34340    1.000
    C197     C        0.79010    0.65920    0.37740    1.000
    H202     H        0.76570    0.64490    0.41670    1.000
    H203     H        0.83880    0.63880    0.36500    1.000
    H204     H        0.80800    0.69420    0.38580    1.000
    N18      N        0.84840    0.30370    0.51060    1.000
    C198     C        0.91370    0.32200    0.52420    1.000
    S18      S        0.00310    0.34561    0.54340    1.000
    S19      S        0.23739    0.98361    0.19862    1.000
    C199     C        0.14790    0.95850    0.15660    1.000
    C200     C        0.08050    0.98900    0.13560    1.000
    C201     C        0.01330    0.96730    0.10190    1.000
    C202     C        0.01610    0.91600    0.08380    1.000
    H205     H        0.97050    0.90190    0.05960    1.000
    C203     C        0.08550    0.88490    0.10070    1.000
    C204     C        0.14940    0.90750    0.13930    1.000
    H206     H        0.19510    0.88710    0.15390    1.000
    O13      O        0.08140    0.04094    0.14670    1.000
    C205     C        0.13130    0.06600    0.09730    1.000
    H207     H        0.19100    0.05580    0.10200    1.000
    H208     H        0.11100    0.05590    0.05350    1.000
    C206     C        0.12350    0.12250    0.10510    1.000
    C207     C        0.17490    0.15220    0.06760    1.000
    H209     H        0.21430    0.13550    0.04090    1.000
    N19      N        0.17260    0.20360    0.06650    1.000
    C208     C        0.11940    0.22600    0.10600    1.000
    H210     H        0.11760    0.26200    0.10640    1.000
    C209     C        0.06710    0.20030    0.14620    1.000
    H211     H        0.03030    0.21820    0.17390    1.000
    C210     C        0.06880    0.14720    0.14590    1.000
    H212     H        0.03290    0.12840    0.17330    1.000
    C211     C        0.09200    0.82980    0.07830    1.000
    C212     C        0.17410    0.82310    0.04140    1.000
    H213     H        0.22120    0.83550    0.06820    1.000
    H214     H        0.18250    0.78710    0.03160    1.000
    H215     H        0.17100    0.84250    0.00090    1.000
    C213     C        0.09540    0.79430    0.13790    1.000
    H216     H        0.04740    0.80130    0.16560    1.000
    H217     H        0.09350    0.75900    0.12340    1.000
    H218     H        0.14770    0.80030    0.16250    1.000
    C214     C        0.01770    0.81370    0.03520    1.000
    H219     H        0.01530    0.83510    0.99640    1.000
    H220     H        0.02470    0.77820    0.02230    1.000
    H221     H        0.96550    0.81740    0.05910    1.000
    S20      S        0.92828    0.00511    0.06965    1.000
    C215     C        0.87780    0.03040    0.13900    1.000
    C216     C        0.84990    0.00030    0.18800    1.000
    C217     C        0.80360    0.02170    0.23830    1.000
    C218     C        0.78440    0.07340    0.23620    1.000
    H222     H        0.75470    0.08790    0.27120    1.000
    C219     C        0.80660    0.10380    0.18610    1.000
    C220     C        0.85590    0.08180    0.13720    1.000
    H223     H        0.87450    0.10230    0.10240    1.000
    O14      O        0.86430    0.94800    0.18720    1.000
    C221     C        0.79260    0.92240    0.15560    1.000
    H224     H        0.74140    0.92690    0.18160    1.000
    H225     H        0.78200    0.93690    0.11200    1.000
    C222     C        0.81350    0.86700    0.15030    1.000
    C223     C        0.78110    0.83950    0.09820    1.000
    H226     H        0.74780    0.85690    0.06660    1.000
    N20      N        0.79440    0.78930    0.09000    1.000
    C224     C        0.84010    0.76460    0.13620    1.000
    H227     H        0.84920    0.72920    0.13150    1.000
    C225     C        0.87400    0.78900    0.18980    1.000
    H228     H        0.90550    0.77050    0.22140    1.000
    C226     C        0.86170    0.84070    0.19690    1.000
    H229     H        0.88560    0.85820    0.23300    1.000
    C227     C        0.77650    0.15860    0.17850    1.000
    C228     C        0.73450    0.17800    0.23950    1.000
    H230     H        0.72080    0.21400    0.23420    1.000
    H231     H        0.68280    0.15870    0.24670    1.000
    H232     H        0.77280    0.17370    0.27680    1.000
    C229     C        0.84650    0.19470    0.16290    1.000
    H233     H        0.88770    0.19510    0.19870    1.000
    H234     H        0.87390    0.18370    0.12310    1.000
    H235     H        0.82350    0.22890    0.15660    1.000
    C230     C        0.70990    0.15920    0.12260    1.000
    H236     H        0.73430    0.14490    0.08330    1.000
    H237     H        0.66120    0.13880    0.13500    1.000
    H238     H        0.69200    0.19420    0.11420    1.000
    N21      N        0.65160    0.80370    0.98940    1.000
    C231     C        0.58630    0.82200    0.97580    1.000
    S21      S        0.49690    0.84561    0.95660    1.000
    S22      S        0.73739    0.48361    0.19862    1.000
    C232     C        0.64790    0.45850    0.15660    1.000
    C233     C        0.58050    0.48900    0.13560    1.000
    C234     C        0.51330    0.46730    0.10190    1.000
    C235     C        0.51610    0.41600    0.08380    1.000
    H239     H        0.47050    0.40190    0.05960    1.000
    C236     C        0.58550    0.38490    0.10070    1.000
    C237     C        0.64940    0.40750    0.13930    1.000
    H240     H        0.69510    0.38710    0.15390    1.000
    O15      O        0.58140    0.54094    0.14670    1.000
    C238     C        0.63130    0.56600    0.09730    1.000
    H241     H        0.69100    0.55580    0.10200    1.000
    H242     H        0.61100    0.55590    0.05350    1.000
    C239     C        0.62350    0.62250    0.10510    1.000
    C240     C        0.67490    0.65220    0.06760    1.000
    H243     H        0.71430    0.63550    0.04090    1.000
    N22      N        0.67260    0.70360    0.06650    1.000
    C241     C        0.61940    0.72600    0.10600    1.000
    H244     H        0.61760    0.76200    0.10640    1.000
    C242     C        0.56710    0.70030    0.14620    1.000
    H245     H        0.53030    0.71820    0.17390    1.000
    C243     C        0.56880    0.64720    0.14590    1.000
    H246     H        0.53290    0.62840    0.17330    1.000
    C244     C        0.59200    0.32980    0.07830    1.000
    C245     C        0.67410    0.32310    0.04140    1.000
    H247     H        0.72120    0.33550    0.06820    1.000
    H248     H        0.68250    0.28710    0.03160    1.000
    H249     H        0.67100    0.34250    0.00090    1.000
    C246     C        0.59540    0.29430    0.13790    1.000
    H250     H        0.54740    0.30130    0.16560    1.000
    H251     H        0.59350    0.25900    0.12340    1.000
    H252     H        0.64770    0.30030    0.16250    1.000
    C247     C        0.51770    0.31370    0.03520    1.000
    H253     H        0.51530    0.33510    0.99640    1.000
    H254     H        0.52470    0.27820    0.02230    1.000
    H255     H        0.46550    0.31740    0.05910    1.000
    S23      S        0.42828    0.50511    0.06965    1.000
    C248     C        0.37780    0.53040    0.13900    1.000
    C249     C        0.34990    0.50030    0.18800    1.000
    C250     C        0.30360    0.52170    0.23830    1.000
    C251     C        0.28440    0.57340    0.23620    1.000
    H256     H        0.25470    0.58790    0.27120    1.000
    C252     C        0.30660    0.60380    0.18610    1.000
    C253     C        0.35590    0.58180    0.13720    1.000
    H257     H        0.37450    0.60230    0.10240    1.000
    O16      O        0.36430    0.44800    0.18720    1.000
    C254     C        0.29260    0.42240    0.15560    1.000
    H258     H        0.24140    0.42690    0.18160    1.000
    H259     H        0.28200    0.43690    0.11200    1.000
    C255     C        0.31350    0.36700    0.15030    1.000
    C256     C        0.28110    0.33950    0.09820    1.000
    H260     H        0.24780    0.35690    0.06660    1.000
    N23      N        0.29440    0.28930    0.09000    1.000
    C257     C        0.34010    0.26460    0.13620    1.000
    H261     H        0.34920    0.22920    0.13150    1.000
    C258     C        0.37400    0.28900    0.18980    1.000
    H262     H        0.40550    0.27050    0.22140    1.000
    C259     C        0.36170    0.34070    0.19690    1.000
    H263     H        0.38560    0.35820    0.23300    1.000
    C260     C        0.27650    0.65860    0.17850    1.000
    C261     C        0.23450    0.67800    0.23950    1.000
    H264     H        0.22080    0.71400    0.23420    1.000
    H265     H        0.18280    0.65870    0.24670    1.000
    H266     H        0.27280    0.67370    0.27680    1.000
    C262     C        0.34650    0.69470    0.16290    1.000
    H267     H        0.38770    0.69510    0.19870    1.000
    H268     H        0.37390    0.68370    0.12310    1.000
    H269     H        0.32350    0.72890    0.15660    1.000
    C263     C        0.20990    0.65920    0.12260    1.000
    H270     H        0.23430    0.64490    0.08330    1.000
    H271     H        0.16120    0.63880    0.13500    1.000
    H272     H        0.19200    0.69420    0.11420    1.000
    N24      N        0.15160    0.30370    0.98940    1.000
    C264     C        0.08630    0.32200    0.97580    1.000
    S24      S        0.99690    0.34561    0.95660    1.000
    Fe1      Fe       0.75000    0.25000    0.50000    1.000
    Fe2      Fe       0.25000    0.25000    0.00000    1.000
    Fe3      Fe       0.25000    0.75000    0.50000    1.000
    Fe4      Fe       0.75000    0.75000    0.00000    1.000
