data_functionalizedCrystal
_audit_creation_method	'EQeq! by Chris Wilmer'
_symmetry_space_group_name_H-M	'P1'
_symmetry_Int_Tables_number	1
_symmetry_cell_setting	triclinic
loop_
_symmetry_equiv_pos_as_xyz
  x,y,z
_cell_length_a	18.6296
_cell_length_b	18.6296
_cell_length_c	18.6296
_cell_angle_alpha	60
_cell_angle_beta	60
_cell_angle_gamma	60
loop_
_atom_site_label
_atom_site_type_symbol
_atom_site_fract_x
_atom_site_fract_y
_atom_site_fract_z
_atom_site_charge
Mof_Cu	Cu	0.42944	0.57056	-0	0.797
Mof_Cu	Cu	-0	0.42944	-0	0.681
Mof_Cu	Cu	0.57056	0.42944	-0	0.797
Mof_Cu	Cu	3.72997e-17	0.57056	0.42944	0.798
Mof_Cu	Cu	2.48665e-17	0.42944	0.57056	0.798
Mof_Cu	Cu	-0	0.57056	-0	0.694
Mof_Cu	Cu	0.57056	0	0.42944	0.798
Mof_Cu	Cu	-1.24332e-17	0	0.42944	0.682
Mof_Cu	Cu	0.42944	-4.9733e-17	0.57056	0.798
Mof_Cu	Cu	0.42944	0	-0	0.682
Mof_Cu	Cu	0.57056	0	-0	0.694
Mof_Cu	Cu	2.48665e-17	-4.9733e-17	0.57056	0.694
Mof_H 	H 	0.0315	0.7279	0.5127	0.028
Mof_H 	H 	0.7279	0.7279	0.5127	0.093
Mof_H 	H 	0.2721	0.9685	0.2721	0.052
Mof_H 	H 	0.7279	0.0315	0.5127	0.028
Mof_H 	H 	0.2721	0.2721	0.4873	0.004
Mof_H 	H 	0.9685	0.4873	0.2721	0.075
Mof_H 	H 	0.0315	0.5127	0.7279	0.028
Mof_H 	H 	0.7279	0.7279	0.0315	0.054
Mof_H 	H 	0.4873	0.2721	0.2721	0.004
Mof_H 	H 	0.0315	0.7279	0.7279	0.054
Mof_H 	H 	0.2721	0.2721	0.9685	0.052
Mof_H 	H 	0.7279	0.0315	0.7279	0.054
Mof_H 	H 	0.9685	0.2721	0.4873	0.075
Mof_H 	H 	0.2721	0.4873	0.9685	0.075
Mof_H 	H 	0.2721	0.4873	0.2721	0.004
Mof_H 	H 	0.4873	0.2721	0.9685	0.075
Mof_H 	H 	0.5127	0.0315	0.7279	0.028
Mof_H 	H 	0.7279	0.5127	0.7279	0.093
Mof_H 	H 	0.5127	0.7279	0.7279	0.093
Mof_H 	H 	0.9685	0.2721	0.2721	0.052
Mof_H 	H 	0.5127	0.7279	0.0315	0.028
Mof_H 	H 	0.2721	0.9685	0.4873	0.075
Mof_H 	H 	0.4873	0.9685	0.2721	0.075
Mof_H 	H 	0.7279	0.5127	0.0315	0.028
Mof_C 	C 	0.56898	0.02448	0.56898	0.375
Mof_C 	C 	0.02448	0.56898	0.56898	0.375
Mof_C 	C 	0.03112	0.69924	0.69924	0.054
Mof_C 	C 	0.61319	0.74277	0.61319	-0.039
Mof_C 	C 	0.03085	0.74277	0.61319	-0.116
Mof_C 	C 	0.56898	0.83756	0.56898	0.346
Mof_C 	C 	0.56898	0.83756	0.02448	0.355
Mof_C 	C 	0.03112	0.69924	0.5704	0.061
Mof_C 	C 	0.4296	0.30076	0.96888	0.037
Mof_C 	C 	0.5704	0.03112	0.69924	0.061
Mof_C 	C 	0.5704	0.69924	0.03112	0.061
Mof_C 	C 	0.61319	0.74277	0.03085	-0.116
Mof_C 	C 	0.03085	0.61319	0.74277	-0.116
Mof_C 	C 	0.38681	0.25723	0.38681	-0.177
Mof_C 	C 	0.03112	0.5704	0.69924	0.061
Mof_C 	C 	0.38681	0.96915	0.38681	-0.065
Mof_C 	C 	0.83756	0.56898	0.02448	0.355
Mof_C 	C 	0.25723	0.38681	0.96915	-0.083
Mof_C 	C 	0.69924	0.69924	0.03112	0.054
Mof_C 	C 	0.96915	0.25723	0.38681	-0.083
Mof_C 	C 	0.30076	0.30076	0.96888	0.041
Mof_C 	C 	0.43102	0.16244	0.43102	0.381
Mof_C 	C 	0.4296	0.96888	0.30076	0.037
Mof_C 	C 	0.74277	0.61319	0.03085	-0.116
Mof_C 	C 	0.83756	0.56898	0.56898	0.346
Mof_C 	C 	0.16244	0.43102	0.43102	0.381
Mof_C 	C 	0.74277	0.03085	0.61319	-0.116
Mof_C 	C 	0.02448	0.83756	0.56898	0.355
Mof_C 	C 	0.38681	0.25723	0.96915	-0.083
Mof_C 	C 	0.25723	0.38681	0.38681	-0.177
Mof_C 	C 	0.61319	0.03085	0.74277	-0.116
Mof_C 	C 	0.30076	0.30076	0.4296	0.085
Mof_C 	C 	0.25723	0.96915	0.38681	-0.083
Mof_C 	C 	0.16244	0.43102	0.97552	0.35
Mof_C 	C 	0.96888	0.4296	0.30076	0.037
Mof_C 	C 	0.43102	0.16244	0.97552	0.35
Mof_C 	C 	0.83756	0.02448	0.56898	0.355
Mof_C 	C 	0.96915	0.38681	0.38681	-0.065
Mof_C 	C 	0.30076	0.96888	0.30076	0.041
Mof_C 	C 	0.96915	0.38681	0.25723	-0.083
Mof_C 	C 	0.16244	0.97552	0.43102	0.35
Mof_C 	C 	0.30076	0.96888	0.4296	0.037
Mof_C 	C 	0.69924	0.5704	0.03112	0.061
Mof_C 	C 	0.56898	0.56898	0.02448	0.375
Mof_C 	C 	0.74277	0.61319	0.61319	-0.039
Mof_C 	C 	0.43102	0.43102	0.97552	0.35
Mof_C 	C 	0.4296	0.30076	0.30076	0.085
Mof_C 	C 	0.56898	0.56898	0.83756	0.346
Mof_C 	C 	0.56898	0.02448	0.83756	0.355
Mof_C 	C 	0.97552	0.43102	0.43102	0.35
Mof_C 	C 	0.97552	0.43102	0.16244	0.35
Mof_C 	C 	0.61319	0.61319	0.03085	-0.141
Mof_C 	C 	0.69924	0.03112	0.5704	0.061
Mof_C 	C 	0.38681	0.96915	0.25723	-0.083
Mof_C 	C 	0.97552	0.16244	0.43102	0.35
Mof_C 	C 	0.38681	0.38681	0.96915	-0.065
Mof_C 	C 	0.5704	0.69924	0.69924	0.024
Mof_C 	C 	0.30076	0.4296	0.30076	0.085
Mof_C 	C 	0.96888	0.30076	0.4296	0.037
Mof_C 	C 	0.30076	0.4296	0.96888	0.037
Mof_C 	C 	0.61319	0.61319	0.74277	-0.039
Mof_C 	C 	0.43102	0.43102	0.16244	0.381
Mof_C 	C 	0.43102	0.97552	0.16244	0.35
Mof_C 	C 	0.61319	0.03085	0.61319	-0.141
Mof_C 	C 	0.69924	0.03112	0.69924	0.054
Mof_C 	C 	0.43102	0.97552	0.43102	0.35
Mof_C 	C 	0.03085	0.61319	0.61319	-0.141
Mof_C 	C 	0.96888	0.30076	0.30076	0.041
Mof_C 	C 	0.02448	0.56898	0.83756	0.355
Mof_C 	C 	0.69924	0.69924	0.5704	0.024
Mof_C 	C 	0.38681	0.38681	0.25723	-0.177
Mof_C 	C 	0.69924	0.5704	0.69924	0.024
Mof_O 	O 	0.87375	0.61267	0.02087	-0.346
Mof_O 	O 	0.97913	0.12625	0.50729	-0.334
Mof_O 	O 	0.02087	0.87375	0.49271	-0.366
Mof_O 	O 	0.87375	0.02087	0.61267	-0.346
Mof_O 	O 	0.12625	0.50729	0.97913	-0.334
Mof_O 	O 	0.97913	0.12625	0.38733	-0.353
Mof_O 	O 	0.12625	0.97913	0.38733	-0.353
Mof_O 	O 	0.97913	0.50729	0.12625	-0.334
Mof_O 	O 	0.02087	0.49271	0.87375	-0.366
Mof_O 	O 	0.38733	0.12625	0.97913	-0.353
Mof_O 	O 	0.49271	0.02087	0.87375	-0.366
Mof_O 	O 	0.61267	0.02087	0.87375	-0.346
Mof_O 	O 	0.12625	0.38733	0.97913	-0.353
Mof_O 	O 	0.49271	0.61267	0.02087	-0.462
Mof_O 	O 	0.49271	0.61267	0.87375	-0.284
Mof_O 	O 	0.50729	0.97913	0.38733	-0.292
Mof_O 	O 	0.97913	0.38733	0.50729	-0.292
Mof_O 	O 	0.50729	0.38733	0.12625	-0.474
Mof_O 	O 	0.87375	0.02087	0.49271	-0.366
Mof_O 	O 	0.61267	0.02087	0.49271	-0.462
Mof_O 	O 	0.61267	0.87375	0.49271	-0.284
Mof_O 	O 	0.97913	0.50729	0.38733	-0.292
Mof_O 	O 	0.87375	0.49271	0.02087	-0.366
Mof_O 	O 	0.38733	0.50729	0.12625	-0.474
Mof_O 	O 	0.50729	0.12625	0.97913	-0.334
Mof_O 	O 	0.38733	0.97913	0.12625	-0.353
Mof_O 	O 	0.49271	0.87375	0.02087	-0.366
Mof_O 	O 	0.61267	0.87375	0.02087	-0.346
Mof_O 	O 	0.97913	0.38733	0.12625	-0.353
Mof_O 	O 	0.49271	0.87375	0.61267	-0.284
Mof_O 	O 	0.02087	0.49271	0.61267	-0.462
Mof_O 	O 	0.12625	0.50729	0.38733	-0.474
Mof_O 	O 	0.49271	0.02087	0.61267	-0.462
Mof_O 	O 	0.12625	0.38733	0.50729	-0.474
Mof_O 	O 	0.38733	0.97913	0.50729	-0.292
Mof_O 	O 	0.61267	0.49271	0.87375	-0.284
Mof_O 	O 	0.12625	0.97913	0.50729	-0.334
Mof_O 	O 	0.61267	0.49271	0.02087	-0.462
Mof_O 	O 	0.38733	0.50729	0.97913	-0.292
Mof_O 	O 	0.02087	0.61267	0.49271	-0.462
Mof_O 	O 	0.38733	0.12625	0.50729	-0.474
Mof_O 	O 	0.87375	0.61267	0.49271	-0.284
Mof_O 	O 	0.02087	0.87375	0.61267	-0.346
Mof_O 	O 	0.50729	0.97913	0.12625	-0.334
Mof_O 	O 	0.50729	0.38733	0.97913	-0.292
Mof_O 	O 	0.02087	0.61267	0.87375	-0.346
Mof_O 	O 	0.50729	0.12625	0.38733	-0.474
Mof_O 	O 	0.87375	0.49271	0.61267	-0.284
_end
