# CIF file generated by openbabel 3.1.0, see https://openbabel.org
data_I
_chemical_name_common 'IJISOK_charged'
_cell_length_a 10.409
_cell_length_b 11.154
_cell_length_c 22.258
_cell_angle_alpha 90
_cell_angle_beta 90
_cell_angle_gamma 90
_space_group_name_H-M_alt 'P 1'
_space_group_name_Hall 'P 1'
loop_
    _symmetry_equiv_pos_as_xyz
    x,y,z
loop_
    _atom_site_label
    _atom_site_type_symbol
    _atom_site_fract_x
    _atom_site_fract_y
    _atom_site_fract_z
    _atom_site_occupancy
    Ag1      Ag       0.15397    0.80858    0.30292    1.000
    Ag2      Ag       0.65397    0.19142    0.69708    1.000
    Ag3      Ag       0.15397    0.69142    0.80292    1.000
    Ag4      Ag       0.65397    0.30858    0.19708    1.000
    H1       H        0.33850    0.50320    0.30870    1.000
    H2       H        0.18910    0.45210    0.14150    1.000
    H3       H        0.55610    0.56810    0.15920    1.000
    H4       H        0.66010    0.69000    0.22930    1.000
    H5       H        0.71270    0.55470    0.22750    1.000
    H6       H        0.90530    0.70770    0.24870    1.000
    H7       H        0.66140    0.58640    0.37590    1.000
    H8       H        0.80820    0.65140    0.44880    1.000
    H9       H        0.00120    0.73320    0.41930    1.000
    H10      H        0.11850    0.51070    0.33040    1.000
    H11      H        0.17130    0.37540    0.33390    1.000
    H12      H        0.92100    0.39360    0.23530    1.000
    H13      H        0.98370    0.36130    0.41150    1.000
    H14      H        0.77390    0.28970    0.42360    1.000
    H15      H        0.64290    0.27510    0.33900    1.000
    H16      H        0.21700    0.55900    0.05960    1.000
    H17      H        0.26920    0.43800    0.02890    1.000
    H18      H        0.17400    0.56340    0.93740    1.000
    H19      H        0.51180    0.64190    0.01590    1.000
    H20      H        0.56730    0.74810    0.92980    1.000
    H21      H        0.42260    0.76280    0.85130    1.000
    H22      H        0.83850    0.49680    0.69130    1.000
    H23      H        0.68910    0.54790    0.85850    1.000
    H24      H        0.05610    0.43190    0.84080    1.000
    H25      H        0.16010    0.31000    0.77070    1.000
    H26      H        0.21270    0.44530    0.77250    1.000
    H27      H        0.40530    0.29230    0.75130    1.000
    H28      H        0.16140    0.41360    0.62410    1.000
    H29      H        0.30820    0.34860    0.55120    1.000
    H30      H        0.50120    0.26680    0.58070    1.000
    H31      H        0.61850    0.48930    0.66960    1.000
    H32      H        0.67130    0.62460    0.66610    1.000
    H33      H        0.42100    0.60640    0.76470    1.000
    H34      H        0.48370    0.63870    0.58850    1.000
    H35      H        0.27390    0.71030    0.57640    1.000
    H36      H        0.14290    0.72490    0.66100    1.000
    H37      H        0.71700    0.44100    0.94040    1.000
    H38      H        0.76920    0.56200    0.97110    1.000
    H39      H        0.67400    0.43660    0.06260    1.000
    H40      H        0.01180    0.35810    0.98410    1.000
    H41      H        0.06730    0.25190    0.07020    1.000
    H42      H        0.92260    0.23720    0.14870    1.000
    H43      H        0.33850    0.99680    0.80870    1.000
    H44      H        0.18910    0.04790    0.64150    1.000
    H45      H        0.55610    0.93190    0.65920    1.000
    H46      H        0.66010    0.81000    0.72930    1.000
    H47      H        0.71270    0.94530    0.72750    1.000
    H48      H        0.90530    0.79230    0.74870    1.000
    H49      H        0.66140    0.91360    0.87590    1.000
    H50      H        0.80820    0.84860    0.94880    1.000
    H51      H        0.00120    0.76680    0.91930    1.000
    H52      H        0.11850    0.98930    0.83040    1.000
    H53      H        0.17130    0.12460    0.83390    1.000
    H54      H        0.92100    0.10640    0.73530    1.000
    H55      H        0.98370    0.13870    0.91150    1.000
    H56      H        0.77390    0.21030    0.92360    1.000
    H57      H        0.64290    0.22490    0.83900    1.000
    H58      H        0.21700    0.94100    0.55960    1.000
    H59      H        0.26920    0.06200    0.52890    1.000
    H60      H        0.17400    0.93660    0.43740    1.000
    H61      H        0.51180    0.85810    0.51590    1.000
    H62      H        0.56730    0.75190    0.42980    1.000
    H63      H        0.42260    0.73720    0.35130    1.000
    H64      H        0.83850    0.00320    0.19130    1.000
    H65      H        0.68910    0.95210    0.35850    1.000
    H66      H        0.05610    0.06810    0.34080    1.000
    H67      H        0.16010    0.19000    0.27070    1.000
    H68      H        0.21270    0.05470    0.27250    1.000
    H69      H        0.40530    0.20770    0.25130    1.000
    H70      H        0.16140    0.08640    0.12410    1.000
    H71      H        0.30820    0.15140    0.05120    1.000
    H72      H        0.50120    0.23320    0.08070    1.000
    H73      H        0.61850    0.01070    0.16960    1.000
    H74      H        0.67130    0.87540    0.16610    1.000
    H75      H        0.42100    0.89360    0.26470    1.000
    H76      H        0.48370    0.86130    0.08850    1.000
    H77      H        0.27390    0.78970    0.07640    1.000
    H78      H        0.14290    0.77510    0.16100    1.000
    H79      H        0.71700    0.05900    0.44040    1.000
    H80      H        0.76920    0.93800    0.47110    1.000
    H81      H        0.67400    0.06340    0.56260    1.000
    H82      H        0.01180    0.14190    0.48410    1.000
    H83      H        0.06730    0.24810    0.57020    1.000
    H84      H        0.92260    0.26280    0.64870    1.000
    C1       C        0.46440    0.54190    0.23910    1.000
    C2       C        0.34740    0.50470    0.26620    1.000
    C3       C        0.24890    0.47130    0.23010    1.000
    C4       C        0.25870    0.47510    0.16660    1.000
    C5       C        0.37440    0.51380    0.14280    1.000
    C6       C        0.47720    0.54480    0.17723    1.000
    C7       C        0.67540    0.61720    0.25380    1.000
    C8       C        0.88490    0.69560    0.28983    1.000
    C9       C        0.76650    0.64540    0.30430    1.000
    C10      C        0.73920    0.62470    0.36440    1.000
    C11      C        0.82690    0.66080    0.40730    1.000
    C12      C        0.94090    0.71020    0.38940    1.000
    C13      C        0.10950    0.42900    0.31347    1.000
    C14      C        0.89120    0.37180    0.27420    1.000
    C15      C        0.97480    0.38410    0.32180    1.000
    C16      C        0.92920    0.35350    0.37750    1.000
    C17      C        0.80530    0.31150    0.38510    1.000
    C18      C        0.72870    0.30260    0.33440    1.000
    C19      C        0.29270    0.52070    0.04064    1.000
    C20      C        0.25500    0.60250    0.93650    1.000
    C21      C        0.33420    0.59060    0.98693    1.000
    C22      C        0.45320    0.64700    0.98330    1.000
    C23      C        0.48590    0.71010    0.93260    1.000
    C24      C        0.39950    0.71780    0.88590    1.000
    C25      C        0.96440    0.45810    0.76090    1.000
    C26      C        0.84740    0.49530    0.73380    1.000
    C27      C        0.74890    0.52870    0.76990    1.000
    C28      C        0.75870    0.52490    0.83340    1.000
    C29      C        0.87440    0.48620    0.85720    1.000
    C30      C        0.97720    0.45520    0.82277    1.000
    C31      C        0.17540    0.38280    0.74620    1.000
    C32      C        0.38490    0.30440    0.71017    1.000
    C33      C        0.26650    0.35460    0.69570    1.000
    C34      C        0.23920    0.37530    0.63560    1.000
    C35      C        0.32690    0.33920    0.59270    1.000
    C36      C        0.44090    0.28980    0.61060    1.000
    C37      C        0.60950    0.57100    0.68653    1.000
    C38      C        0.39120    0.62820    0.72580    1.000
    C39      C        0.47480    0.61590    0.67820    1.000
    C40      C        0.42920    0.64650    0.62250    1.000
    C41      C        0.30530    0.68850    0.61490    1.000
    C42      C        0.22870    0.69740    0.66560    1.000
    C43      C        0.79270    0.47930    0.95936    1.000
    C44      C        0.75500    0.39750    0.06350    1.000
    C45      C        0.83420    0.40940    0.01307    1.000
    C46      C        0.95320    0.35300    0.01670    1.000
    C47      C        0.98590    0.28990    0.06740    1.000
    C48      C        0.89950    0.28220    0.11410    1.000
    C49      C        0.46440    0.95810    0.73910    1.000
    C50      C        0.34740    0.99530    0.76620    1.000
    C51      C        0.24890    0.02870    0.73010    1.000
    C52      C        0.25870    0.02490    0.66660    1.000
    C53      C        0.37440    0.98620    0.64280    1.000
    C54      C        0.47720    0.95520    0.67723    1.000
    C55      C        0.67540    0.88280    0.75380    1.000
    C56      C        0.88490    0.80440    0.78983    1.000
    C57      C        0.76650    0.85460    0.80430    1.000
    C58      C        0.73920    0.87530    0.86440    1.000
    C59      C        0.82690    0.83920    0.90730    1.000
    C60      C        0.94090    0.78980    0.88940    1.000
    C61      C        0.10950    0.07100    0.81347    1.000
    C62      C        0.89120    0.12820    0.77420    1.000
    C63      C        0.97480    0.11590    0.82180    1.000
    C64      C        0.92920    0.14650    0.87750    1.000
    C65      C        0.80530    0.18850    0.88510    1.000
    C66      C        0.72870    0.19740    0.83440    1.000
    C67      C        0.29270    0.97930    0.54064    1.000
    C68      C        0.25500    0.89750    0.43650    1.000
    C69      C        0.33420    0.90940    0.48693    1.000
    C70      C        0.45320    0.85300    0.48330    1.000
    C71      C        0.48590    0.78990    0.43260    1.000
    C72      C        0.39950    0.78220    0.38590    1.000
    C73      C        0.96440    0.04190    0.26090    1.000
    C74      C        0.84740    0.00470    0.23380    1.000
    C75      C        0.74890    0.97130    0.26990    1.000
    C76      C        0.75870    0.97510    0.33340    1.000
    C77      C        0.87440    0.01380    0.35720    1.000
    C78      C        0.97720    0.04480    0.32277    1.000
    C79      C        0.17540    0.11720    0.24620    1.000
    C80      C        0.38490    0.19560    0.21017    1.000
    C81      C        0.26650    0.14540    0.19570    1.000
    C82      C        0.23920    0.12470    0.13560    1.000
    C83      C        0.32690    0.16080    0.09270    1.000
    C84      C        0.44090    0.21020    0.11060    1.000
    C85      C        0.60950    0.92900    0.18653    1.000
    C86      C        0.39120    0.87180    0.22580    1.000
    C87      C        0.47480    0.88410    0.17820    1.000
    C88      C        0.42920    0.85350    0.12250    1.000
    C89      C        0.30530    0.81150    0.11490    1.000
    C90      C        0.22870    0.80260    0.16560    1.000
    C91      C        0.79270    0.02070    0.45936    1.000
    C92      C        0.75500    0.10250    0.56350    1.000
    C93      C        0.83420    0.09060    0.51307    1.000
    C94      C        0.95320    0.14700    0.51670    1.000
    C95      C        0.98590    0.21010    0.56740    1.000
    C96      C        0.89950    0.21780    0.61410    1.000
    N1       N        0.97110    0.72770    0.33129    1.000
    N2       N        0.77030    0.33100    0.27916    1.000
    N3       N        0.28440    0.66450    0.88717    1.000
    N4       N        0.47110    0.27230    0.66871    1.000
    N5       N        0.27030    0.66900    0.72084    1.000
    N6       N        0.78440    0.33550    0.11283    1.000
    N7       N        0.97110    0.77230    0.83129    1.000
    N8       N        0.77030    0.16900    0.77916    1.000
    N9       N        0.28440    0.83550    0.38717    1.000
    N10      N        0.47110    0.22770    0.16871    1.000
    N11      N        0.27030    0.83100    0.22084    1.000
    N12      N        0.78440    0.16450    0.61283    1.000
    O1       O        0.55840    0.57620    0.27848    1.000
    O2       O        0.13300    0.43050    0.24988    1.000
    O3       O        0.39710    0.51920    0.08097    1.000
    O4       O        0.05840    0.42380    0.72152    1.000
    O5       O        0.63300    0.56950    0.75012    1.000
    O6       O        0.89710    0.48080    0.91903    1.000
    O7       O        0.55840    0.92380    0.77848    1.000
    O8       O        0.13300    0.06950    0.74988    1.000
    O9       O        0.39710    0.98080    0.58097    1.000
    O10      O        0.05840    0.07620    0.22152    1.000
    O11      O        0.63300    0.93050    0.25012    1.000
    O12      O        0.89710    0.01920    0.41903    1.000
    Cl1      Cl       0.38726    0.21560    0.40920    1.000
    O13      O        0.40990    0.33240    0.38870    1.000
    O14      O        0.41450    0.13350    0.36310    1.000
    O15      O        0.25910    0.20310    0.42890    1.000
    O16      O        0.46980    0.19020    0.45570    1.000
    Cl2      Cl       0.88726    0.78440    0.59080    1.000
    O17      O        0.90990    0.66760    0.61130    1.000
    O18      O        0.91450    0.86650    0.63690    1.000
    O19      O        0.75910    0.79690    0.57110    1.000
    O20      O        0.96980    0.80980    0.54430    1.000
    Cl3      Cl       0.38726    0.28440    0.90920    1.000
    O21      O        0.40990    0.16760    0.88870    1.000
    O22      O        0.41450    0.36650    0.86310    1.000
    O23      O        0.25910    0.29690    0.92890    1.000
    O24      O        0.46980    0.30980    0.95570    1.000
    Cl4      Cl       0.88726    0.71560    0.09080    1.000
    O25      O        0.90990    0.83240    0.11130    1.000
    O26      O        0.91450    0.63350    0.13690    1.000
    O27      O        0.75910    0.70310    0.07110    1.000
    O28      O        0.96980    0.69020    0.04430    1.000
