# CIF file generated by openbabel 3.1.0, see https://openbabel.org
data_I
_chemical_name_common 'image0'
_cell_length_a 7.0649
_cell_length_b 11.2771
_cell_length_c 11.8318
_cell_angle_alpha 67.37
_cell_angle_beta 80.035
_cell_angle_gamma 82.821
_space_group_name_H-M_alt 'P 1'
_space_group_name_Hall 'P 1'
loop_
    _symmetry_equiv_pos_as_xyz
    x,y,z
loop_
    _atom_site_label
    _atom_site_type_symbol
    _atom_site_fract_x
    _atom_site_fract_y
    _atom_site_fract_z
    _atom_site_occupancy
    Nd1      Nd       0.22242    0.54693    0.57401    1.000
    Nd2      Nd       0.28686    0.01011    0.75214    1.000
    S1       S        0.28932    0.32141    0.46149    1.000
    S2       S        0.44432    0.71615    0.25258    1.000
    O1       O        0.44090    0.39790    0.46940    1.000
    O2       O        0.10650    0.39390    0.48960    1.000
    O3       O        0.29900    0.19290    0.55680    1.000
    O4       O        0.30580    0.31670    0.34040    1.000
    O5       O        0.28600    0.65990    0.35120    1.000
    O6       O        0.47160    0.84540    0.24490    1.000
    O7       O        0.62260    0.63480    0.27570    1.000
    O8       O        0.39090    0.72190    0.13600    1.000
    O9       O        0.16980    0.77820    0.53090    1.000
    O10      O        0.23790    0.60960    0.75050    1.000
    O11      O        0.22860    0.93920    0.58320    1.000
    O12      O        0.30070    0.76950    0.80420    1.000
    O13      O        0.06490    0.88560    0.93540    1.000
    O14      O        0.87480    0.87110    0.11160    1.000
    C1       C        0.21320    0.82320    0.60370    1.000
    C2       C        0.25540    0.72650    0.73180    1.000
    C3       C        0.98040    0.93100    0.01350    1.000
    Nd3      Nd       0.77758    0.45307    0.42599    1.000
    Nd4      Nd       0.71314    0.98989    0.24786    1.000
    S3       S        0.71068    0.67859    0.53851    1.000
    S4       S        0.55568    0.28385    0.74742    1.000
    O15      O        0.55910    0.60210    0.53060    1.000
    O16      O        0.89350    0.60610    0.51040    1.000
    O17      O        0.70100    0.80710    0.44320    1.000
    O18      O        0.69420    0.68330    0.65960    1.000
    O19      O        0.71400    0.34010    0.64880    1.000
    O20      O        0.52840    0.15460    0.75510    1.000
    O21      O        0.37740    0.36520    0.72430    1.000
    O22      O        0.60910    0.27810    0.86400    1.000
    O23      O        0.83020    0.22180    0.46910    1.000
    O24      O        0.76210    0.39040    0.24950    1.000
    O25      O        0.77140    0.06080    0.41680    1.000
    O26      O        0.69930    0.23050    0.19580    1.000
    O27      O        0.93510    0.11440    0.06460    1.000
    O28      O        0.12520    0.12890    0.88840    1.000
    C4       C        0.78680    0.17680    0.39630    1.000
    C5       C        0.74460    0.27350    0.26820    1.000
    C6       C        0.01960    0.06900    0.98650    1.000
