data_functionalizedCrystal
_audit_creation_method	'EQeq! by Chris Wilmer'
_symmetry_space_group_name_H-M	'P1'
_symmetry_Int_Tables_number	1
_symmetry_cell_setting	triclinic
loop_
_symmetry_equiv_pos_as_xyz
  x,y,z
_cell_length_a	8.9042
_cell_length_b	12.7757
_cell_length_c	9.2004
_cell_angle_alpha	90
_cell_angle_beta	90
_cell_angle_gamma	90
loop_
_atom_site_label
_atom_site_type_symbol
_atom_site_fract_x
_atom_site_fract_y
_atom_site_fract_z
_atom_site_charge
Mof_O 	O 	0.29857	0.95799	0.62533	-0.365
Mof_O 	O 	0.13555	0.9582	0.80773	-0.354
Mof_O 	O 	0.48286	0.1631	0.58086	-0.429
Mof_C 	C 	0.25585	0.9822	0.74934	0.655
Mof_H 	H 	0.3214	0.0228	0.8043	-0.201
Mof_O 	O 	0.20143	0.04201	0.12533	-0.328
Mof_O 	O 	0.36445	0.0418	0.30773	-0.332
Mof_O 	O 	0.01714	0.8369	0.08086	-0.263
Mof_C 	C 	0.24415	0.0178	0.24934	0.291
Mof_H 	H 	0.1786	0.9772	0.3043	0.021
Mof_O 	O 	0.70143	0.45799	0.37467	-0.351
Mof_O 	O 	0.86445	0.4582	0.19227	-0.314
Mof_O 	O 	0.51714	0.6631	0.41914	-0.408
Mof_C 	C 	0.74415	0.4822	0.25066	0.486
Mof_H 	H 	0.6786	0.5228	0.1957	-0.097
Mof_O 	O 	0.79857	0.54201	0.87467	-0.31
Mof_O 	O 	0.63555	0.5418	0.69227	-0.353
Mof_O 	O 	0.98286	0.3369	0.91914	-0.453
Mof_C 	C 	0.75585	0.5178	0.75066	0.482
Mof_H 	H 	0.8214	0.4772	0.6957	-0.077
Mof_O 	O 	0.70143	0.04201	0.37467	-0.308
Mof_O 	O 	0.86445	0.0418	0.19227	-0.273
Mof_O 	O 	0.51714	0.8369	0.41914	-0.372
Mof_C 	C 	0.74415	0.0178	0.25066	0.282
Mof_H 	H 	0.6786	0.9772	0.1957	0.035
Mof_O 	O 	0.79857	0.95799	0.87467	-0.304
Mof_O 	O 	0.63555	0.9582	0.69227	-0.344
Mof_O 	O 	0.98286	0.1631	0.91914	-0.454
Mof_C 	C 	0.75585	0.9822	0.75066	0.634
Mof_H 	H 	0.8214	0.0228	0.6957	-0.179
Mof_O 	O 	0.29857	0.54201	0.62533	-0.371
Mof_O 	O 	0.13555	0.5418	0.80773	-0.363
Mof_O 	O 	0.48286	0.3369	0.58086	-0.426
Mof_C 	C 	0.25585	0.5178	0.74934	0.495
Mof_H 	H 	0.3214	0.4772	0.8043	-0.094
Mof_O 	O 	0.20143	0.45799	0.12533	-0.372
Mof_O 	O 	0.36445	0.4582	0.30773	-0.373
Mof_O 	O 	0.01714	0.6631	0.08086	-0.3
Mof_C 	C 	0.24415	0.4822	0.24934	0.503
Mof_H 	H 	0.1786	0.5228	0.3043	-0.116
Mof_Mn	Mn	0.5	0	0.5	0.95
Mof_Mn	Mn	-0	0	-0	0.777
Mof_Mn	Mn	0.5	0.5	0.5	1.071
Mof_Mn	Mn	6.02982e-33	0.5	-0	0.902
Mof_C 	C 	0.4891	0.25	0.5247	0.721
Mof_H 	H 	0.5003	0.25	0.4242	-0.081
Mof_H 	H 	0.4098	0.25	0.4525	-0.106
Mof_H 	H 	0.5825	0.25	0.4705	-0.095
Mof_C 	C 	0.0109	0.75	0.0247	0.137
Mof_H 	H 	0.9997	0.75	0.9242	0.047
Mof_H 	H 	0.0902	0.75	0.9525	0.031
Mof_H 	H 	0.9175	0.75	0.9705	0.086
Mof_C 	C 	0.5109	0.75	0.4753	0.668
Mof_H 	H 	0.4997	0.75	0.5758	-0.074
Mof_H 	H 	0.5902	0.75	0.5475	-0.078
Mof_H 	H 	0.4175	0.75	0.5295	-0.084
Mof_C 	C 	0.9891	0.25	0.9753	1.1
Mof_H 	H 	0.0003	0.25	0.0758	-0.194
Mof_H 	H 	0.9098	0.25	0.0475	-0.157
Mof_H 	H 	0.0825	0.25	0.0295	-0.221
_end
