# CIF file generated by openbabel 3.1.0, see https://openbabel.org
data_I
_chemical_name_common 'image0'
_cell_length_a 12.806
_cell_length_b 13.809
_cell_length_c 14.508
_cell_angle_alpha 113.57
_cell_angle_beta 96.71
_cell_angle_gamma 106.21
_space_group_name_H-M_alt 'P 1'
_space_group_name_Hall 'P 1'
loop_
    _symmetry_equiv_pos_as_xyz
    x,y,z
loop_
    _atom_site_label
    _atom_site_type_symbol
    _atom_site_fract_x
    _atom_site_fract_y
    _atom_site_fract_z
    _atom_site_occupancy
    Mo1      Mo       0.05688    0.42496    0.22506    1.000
    Mo2      Mo       0.84710    0.40609    0.21016    1.000
    P1       P        0.02902    0.68339    0.35205    1.000
    P2       P        0.87117    0.98745    0.36648    1.000
    P3       P        0.28039    0.59716    0.20117    1.000
    P4       P        0.68275    0.53818    0.15644    1.000
    O1       O        0.23530    0.68550    0.18050    1.000
    O2       O        0.56050    0.48710    0.08940    1.000
    O3       O        0.83780    0.87740    0.26790    1.000
    O4       O        0.05600    0.75460    0.47130    1.000
    O5       O        0.04710    0.75460    0.29550    1.000
    O6       O        0.78480    0.04440    0.36570    1.000
    O7       O        0.36700    0.58090    0.14280    1.000
    O8       O        0.86970    0.96480    0.46340    1.000
    O9       O        0.32980    0.65010    0.31870    1.000
    O10      O        0.71000    0.19150    0.51330    1.000
    O11      O        0.74740    0.63360    0.13630    1.000
    O12      O        0.90530    0.59810    0.31350    1.000
    O13      O        0.67700    0.57840    0.27130    1.000
    O14      O        0.99020    0.06550    0.38180    1.000
    O15      O        0.95300    0.45190    0.13770    1.000
    O16      O        0.73260    0.44350    0.12900    1.000
    O17      O        0.17840    0.48780    0.16100    1.000
    O18      O        0.10800    0.61410    0.33110    1.000
    O19      O        0.19460    0.47430    0.34930    1.000
    O20      O        0.75130    0.43210    0.31990    1.000
    O21      O        0.10860    0.39660    0.49280    1.000
    O22      O        0.92100    0.21770    0.33910    1.000
    O23      O        0.96200    0.41720    0.32100    1.000
    O24      O        0.16470    0.23580    0.54650    1.000
    O25      O        0.83430    0.36820    0.46890    1.000
    C1       C        0.30680    0.27480    0.03490    1.000
    H1       H        0.31390    0.35050    0.06310    1.000
    C2       C        0.24020    0.20580    0.06920    1.000
    H2       H        0.20370    0.23490    0.11970    1.000
    C3       C        0.22830    0.09170    0.02720    1.000
    C4       C        0.27940    0.05200    0.94820    1.000
    H3       H        0.26970    0.97570    0.91490    1.000
    C5       C        0.34530    0.12810    0.91960    1.000
    H4       H        0.37970    0.10010    0.86700    1.000
    C6       C        0.10390    0.84390    0.08180    1.000
    H5       H        0.11380    0.77620    0.07070    1.000
    C7       C        0.17290    0.91460    0.05070    1.000
    H6       H        0.22890    0.89520    0.02050    1.000
    C8       C        0.15800    0.01520    0.06490    1.000
    C9       C        0.07590    0.04110    0.11300    1.000
    H7       H        0.06350    0.10770    0.12410    1.000
    Cd1      Cd       0.91520    0.75344    0.18480    1.000
    Cd2      Cd       0.51195    0.63929    0.08284    1.000
    C10      C        0.01170    0.96650    0.14460    1.000
    H8       H        0.95850    0.98610    0.17940    1.000
    N1       N        0.36260    0.23670    0.96150    1.000
    N2       N        0.02330    0.86830    0.12720    1.000
    Mo3      Mo       0.73082    0.34951    0.55473    1.000
    Mo4      Mo       0.78567    0.20238    0.40624    1.000
    Mo5      Mo       0.07093    0.23276    0.42877    1.000
    Mo6      Mo       0.22675    0.39764    0.59198    1.000
    Mo7      Mo       0.94312    0.57504    0.77494    1.000
    Mo8      Mo       0.15290    0.59391    0.78984    1.000
    P5       P        0.97098    0.31661    0.64795    1.000
    P6       P        0.12883    0.01255    0.63352    1.000
    P7       P        0.71961    0.40284    0.79883    1.000
    P8       P        0.31725    0.46182    0.84356    1.000
    O26      O        0.76470    0.31450    0.81950    1.000
    O27      O        0.43950    0.51290    0.91060    1.000
    O28      O        0.16220    0.12260    0.73210    1.000
    O29      O        0.94400    0.24540    0.52870    1.000
    O30      O        0.95290    0.24540    0.70450    1.000
    O31      O        0.21520    0.95560    0.63430    1.000
    O32      O        0.63300    0.41910    0.85720    1.000
    O33      O        0.13030    0.03520    0.53660    1.000
    O34      O        0.67020    0.34990    0.68130    1.000
    O35      O        0.29000    0.80850    0.48670    1.000
    O36      O        0.25260    0.36640    0.86370    1.000
    O37      O        0.09470    0.40190    0.68650    1.000
    O38      O        0.32300    0.42160    0.72870    1.000
    O39      O        0.00980    0.93450    0.61820    1.000
    O40      O        0.04700    0.54810    0.86230    1.000
    O41      O        0.26740    0.55650    0.87100    1.000
    O42      O        0.82160    0.51220    0.83900    1.000
    O43      O        0.89200    0.38590    0.66890    1.000
    O44      O        0.80540    0.52570    0.65070    1.000
    O45      O        0.24870    0.56790    0.68010    1.000
    O46      O        0.89140    0.60340    0.50720    1.000
    O47      O        0.07900    0.78230    0.66090    1.000
    O48      O        0.03800    0.58280    0.67900    1.000
    O49      O        0.83530    0.76420    0.45350    1.000
    O50      O        0.16570    0.63180    0.53110    1.000
    C11      C        0.69320    0.72520    0.96510    1.000
    H9       H        0.68610    0.64950    0.93690    1.000
    C12      C        0.75980    0.79420    0.93080    1.000
    H10      H        0.79630    0.76510    0.88030    1.000
    C13      C        0.77170    0.90830    0.97280    1.000
    C14      C        0.72060    0.94800    0.05180    1.000
    H11      H        0.73030    0.02430    0.08510    1.000
    C15      C        0.65470    0.87190    0.08040    1.000
    H12      H        0.62030    0.89990    0.13300    1.000
    C16      C        0.89610    0.15610    0.91820    1.000
    H13      H        0.88620    0.22380    0.92930    1.000
    C17      C        0.82710    0.08540    0.94930    1.000
    H14      H        0.77110    0.10480    0.97950    1.000
    C18      C        0.84200    0.98480    0.93510    1.000
    C19      C        0.92410    0.95890    0.88700    1.000
    H15      H        0.93650    0.89230    0.87590    1.000
    Cd3      Cd       0.08480    0.24656    0.81520    1.000
    Cd4      Cd       0.48805    0.36071    0.91716    1.000
    C20      C        0.98830    0.03350    0.85540    1.000
    H16      H        0.04150    0.01390    0.82060    1.000
    N3       N        0.63740    0.76330    0.03850    1.000
    N4       N        0.97670    0.13170    0.87280    1.000
    Mo9      Mo       0.26918    0.65049    0.44527    1.000
    Mo10     Mo       0.21433    0.79762    0.59376    1.000
    Mo11     Mo       0.92907    0.76724    0.57123    1.000
    Mo12     Mo       0.77325    0.60236    0.40802    1.000
    Cd5      Cd       0.00000    0.50000    0.50000    1.000
