data_functionalizedCrystal
_audit_creation_method	'EQeq! by Chris Wilmer'
_symmetry_space_group_name_H-M	'P1'
_symmetry_Int_Tables_number	1
_symmetry_cell_setting	triclinic
loop_
_symmetry_equiv_pos_as_xyz
  x,y,z
_cell_length_a	13.6581
_cell_length_b	32.4156
_cell_length_c	40.5791
_cell_angle_alpha	90
_cell_angle_beta	90
_cell_angle_gamma	90
loop_
_atom_site_label
_atom_site_type_symbol
_atom_site_fract_x
_atom_site_fract_y
_atom_site_fract_z
_atom_site_charge
Mof_Ag	Ag	0.31588	0.69569	0.13017	0.628
Mof_Ag	Ag	0.73574	0.24452	0.00066	0.655
Mof_Ag	Ag	0.05127	0.71307	0.87639	0.674
Mof_Ag	Ag	0.18412	0.30431	0.63017	0.629
Mof_Ag	Ag	0.76426	0.75548	0.50066	0.655
Mof_Ag	Ag	0.44873	0.28693	0.37639	0.676
Mof_Ag	Ag	0.68412	0.19569	0.36983	0.627
Mof_Ag	Ag	0.26426	0.74452	0.49934	0.654
Mof_Ag	Ag	0.94873	0.21307	0.62361	0.673
Mof_Ag	Ag	0.81588	0.80431	0.86983	0.628
Mof_Ag	Ag	0.23574	0.25548	0.99934	0.654
Mof_Ag	Ag	0.55127	0.78693	0.12361	0.675
Mof_B 	B 	0.6866	0.5805	0.9978	1.186
Mof_B 	B 	0.2823	0.9086	0.3373	1.082
Mof_B 	B 	0.2199	0.0861	0.1751	1.075
Mof_B 	B 	0.8134	0.4195	0.4978	1.181
Mof_B 	B 	0.2177	0.0914	0.8373	1.082
Mof_B 	B 	0.2801	0.9139	0.6751	1.076
Mof_B 	B 	0.3134	0.0805	0.5022	1.186
Mof_B 	B 	0.7177	0.4086	0.1627	1.082
Mof_B 	B 	0.7801	0.5861	0.3249	1.075
Mof_B 	B 	0.1866	0.9195	0.0022	1.18
Mof_B 	B 	0.7823	0.5914	0.6627	1.083
Mof_B 	B 	0.7199	0.4139	0.8249	1.076
Mof_H 	H 	0.1969	0.7257	0.0646	0.025
Mof_H 	H 	0.066	0.7044	0.0324	0.156
Mof_H 	H 	0.9939	0.6204	0.101	0.075
Mof_H 	H 	0.1248	0.6417	0.1332	-0.025
Mof_H 	H 	0.7555	0.6943	0.0819	0.145
Mof_H 	H 	0.856	0.6823	0.0979	0.153
Mof_H 	H 	0.8523	0.7154	0.0698	0.184
Mof_H 	H 	0.6569	0.665	0.0653	0.309
Mof_H 	H 	0.6169	0.6551	0.03	0.326
Mof_H 	H 	0.6266	0.6198	0.0562	0.269
Mof_H 	H 	0.962	0.5659	0.9677	0.233
Mof_H 	H 	0.8672	0.5414	0.9774	0.235
Mof_H 	H 	0.8607	0.5783	0.9526	0.223
Mof_H 	H 	0.0593	0.5899	0.9875	0.149
Mof_H 	H 	0.0918	0.6339	0.9992	0.192
Mof_H 	H 	0.0944	0.5968	0.0239	0.159
Mof_H 	H 	0.2327	0.6561	0.8709	0.015
Mof_H 	H 	0.3661	0.6294	0.8992	0.107
Mof_H 	H 	0.2892	0.6945	0.9794	0.135
Mof_H 	H 	0.1559	0.7212	0.9511	0.047
Mof_H 	H 	0.313	0.5767	0.0073	0.113
Mof_H 	H 	0.2771	0.6215	0.9991	0.145
Mof_H 	H 	0.2778	0.5875	0.9716	0.133
Mof_H 	H 	0.4265	0.5541	0.0256	0.294
Mof_H 	H 	0.5255	0.5344	0.014	0.29
Mof_H 	H 	0.5257	0.569	0.041	0.277
Mof_H 	H 	0.701	0.6719	0.9344	0.323
Mof_H 	H 	0.7411	0.6603	0.9694	0.353
Mof_H 	H 	0.7414	0.6274	0.9411	0.293
Mof_H 	H 	0.5884	0.7008	0.9209	0.155
Mof_H 	H 	0.49	0.6862	0.9048	0.172
Mof_H 	H 	0.4881	0.7163	0.935	0.196
Mof_H 	H 	0.819	0.321	0.9612	0.021
Mof_H 	H 	0.8098	0.3924	0.9589	0.062
Mof_H 	H 	0.6128	0.3915	0.0325	0.07
Mof_H 	H 	0.6221	0.3201	0.0348	0.027
Mof_H 	H 	0.7928	0.415	0.0467	0.15
Mof_H 	H 	0.8583	0.4538	0.0534	0.132
Mof_H 	H 	0.7586	0.4485	0.0721	0.126
Mof_H 	H 	0.7785	0.5116	0.0726	0.247
Mof_H 	H 	0.8118	0.5503	0.0524	0.252
Mof_H 	H 	0.7033	0.5467	0.0647	0.232
Mof_H 	H 	0.6179	0.5149	0.92	0.249
Mof_H 	H 	0.5804	0.551	0.9423	0.254
Mof_H 	H 	0.6889	0.5509	0.9297	0.237
Mof_H 	H 	0.596	0.4585	0.9236	0.109
Mof_H 	H 	0.667	0.4218	0.9316	0.127
Mof_H 	H 	0.5659	0.4251	0.9497	0.134
Mof_H 	H 	0.3708	0.7019	0.2067	-0.024
Mof_H 	H 	0.3631	0.7496	0.2493	0.088
Mof_H 	H 	0.2796	0.8371	0.185	0.091
Mof_H 	H 	0.2873	0.7894	0.1424	-0.012
Mof_H 	H 	0.1495	0.8094	0.2239	0.254
Mof_H 	H 	0.0873	0.8126	0.2563	0.249
Mof_H 	H 	0.093	0.8502	0.2321	0.293
Mof_H 	H 	0.1081	0.9055	0.3116	0.237
Mof_H 	H 	0.0846	0.9021	0.2738	0.273
Mof_H 	H 	0.0625	0.8648	0.2973	0.269
Mof_H 	H 	0.4675	0.8999	0.3279	0.277
Mof_H 	H 	0.5154	0.8581	0.3171	0.302
Mof_H 	H 	0.5228	0.8968	0.2942	0.295
Mof_H 	H 	0.4883	0.8145	0.2333	0.214
Mof_H 	H 	0.5286	0.8568	0.2463	0.216
Mof_H 	H 	0.5293	0.8178	0.2693	0.211
Mof_H 	H 	0.7802	0.7932	0.4299	0.054
Mof_H 	H 	0.8863	0.8279	0.3949	0.083
Mof_H 	H 	0.0799	0.8397	0.4689	0.071
Mof_H 	H 	0.9737	0.805	0.5039	0.009
Mof_H 	H 	0.2213	0.7772	0.3962	0.142
Mof_H 	H 	0.1667	0.7866	0.4293	0.146
Mof_H 	H 	0.1075	0.7716	0.3985	0.148
Mof_H 	H 	0.3482	0.838	0.35	0.306
Mof_H 	H 	0.3432	0.8173	0.3849	0.344
Mof_H 	H 	0.2861	0.7978	0.3552	0.317
Mof_H 	H 	0.1665	0.9664	0.3497	0.25
Mof_H 	H 	0.0528	0.9601	0.3512	0.264
Mof_H 	H 	0.1094	0.9757	0.3824	0.261
Mof_H 	H 	0.9721	0.949	0.3982	0.122
Mof_H 	H 	0.9113	0.9081	0.4013	0.147
Mof_H 	H 	0.9758	0.9232	0.4309	0.135
Mof_H 	H 	0.6874	0.1131	0.329	-0.02
Mof_H 	H 	0.604	0.0512	0.3228	0.074
Mof_H 	H 	0.4294	0.081	0.3988	0.043
Mof_H 	H 	0.5128	0.1429	0.405	0.002
Mof_H 	H 	0.5643	0.9657	0.409	0.134
Mof_H 	H 	0.5791	0.0127	0.4014	0.144
Mof_H 	H 	0.4955	0.9985	0.4254	0.125
Mof_H 	H 	0.4624	0.9224	0.4131	0.284
Mof_H 	H 	0.3584	0.9063	0.4031	0.274
Mof_H 	H 	0.4507	0.893	0.3827	0.288
Mof_H 	H 	0.2713	0.0043	0.2791	0.243
Mof_H 	H 	0.2892	0.9566	0.2773	0.252
Mof_H 	H 	0.2026	0.9741	0.2985	0.225
Mof_H 	H 	0.3356	0.0493	0.2862	0.113
Mof_H 	H 	0.3552	0.0784	0.3163	0.133
Mof_H 	H 	0.4431	0.0619	0.2953	0.135
Mof_H 	H 	0.7307	0.2029	0.0718	0.005
Mof_H 	H 	0.8314	0.1716	0.1104	0.073
Mof_H 	H 	0.0558	0.176	0.0465	0.077
Mof_H 	H 	0.955	0.2073	0.0078	0.012
Mof_H 	H 	0.8982	0.0617	0.1143	0.138
Mof_H 	H 	0.8475	0.1044	0.1081	0.149
Mof_H 	H 	0.9126	0.0845	0.0806	0.147
Mof_H 	H 	0.0827	0.0393	0.1656	0.274
Mof_H 	H 	0.9704	0.0484	0.1622	0.286
Mof_H 	H 	0.0285	0.0299	0.1323	0.287
Mof_H 	H 	0.2643	0.1973	0.1423	0.31
Mof_H 	H 	0.2631	0.1708	0.1745	0.289
Mof_H 	H 	0.3161	0.1542	0.1429	0.272
Mof_H 	H 	0.1754	0.2249	0.1164	0.173
Mof_H 	H 	0.126	0.2141	0.0826	0.166
Mof_H 	H 	0.0623	0.231	0.1118	0.164
Mof_H 	H 	0.3639	0.8422	0.098	0.01
Mof_H 	H 	0.291	0.9055	0.1085	0.051
Mof_H 	H 	0.489	0.9276	0.1796	0.086
Mof_H 	H 	0.5619	0.8643	0.1691	0.015
Mof_H 	H 	0.167	0.9898	0.2291	0.254
Mof_H 	H 	0.2068	0.0351	0.2314	0.241
Mof_H 	H 	0.1129	0.0255	0.2105	0.238
Mof_H 	H 	0.2118	0.9412	0.2203	0.134
Mof_H 	H 	0.2192	0.912	0.1896	0.165
Mof_H 	H 	0.3124	0.921	0.211	0.148
Mof_H 	H 	0.4264	0.0137	0.0879	0.119
Mof_H 	H 	0.484	0.9806	0.1083	0.141
Mof_H 	H 	0.3927	0.9675	0.0873	0.126
Mof_H 	H 	0.371	0.0655	0.0967	0.251
Mof_H 	H 	0.2733	0.0862	0.1084	0.25
Mof_H 	H 	0.3706	0.0939	0.128	0.226
Mof_H 	H 	0.3909	0.2827	0.3002	0
Mof_H 	H 	0.3395	0.236	0.2605	0.087
Mof_H 	H 	0.351	0.1447	0.3273	0.072
Mof_H 	H 	0.4023	0.1914	0.3671	-0.016
Mof_H 	H 	0.5284	0.1253	0.2398	0.128
Mof_H 	H 	0.5043	0.1693	0.2535	0.152
Mof_H 	H 	0.4945	0.1306	0.2764	0.145
Mof_H 	H 	0.4901	0.0961	0.204	0.251
Mof_H 	H 	0.4157	0.0605	0.1965	0.26
Mof_H 	H 	0.4214	0.0988	0.1731	0.235
Mof_H 	H 	0.0584	0.1046	0.2038	0.208
Mof_H 	H 	0.0361	0.1129	0.2412	0.213
Mof_H 	H 	0.0416	0.1499	0.2163	0.223
Mof_H 	H 	0.0688	0.1657	0.2679	0.155
Mof_H 	H 	0.1374	0.1626	0.2987	0.164
Mof_H 	H 	0.142	0.2016	0.2759	0.174
Mof_H 	H 	0.3031	0.2743	0.5646	0.025
Mof_H 	H 	0.434	0.2956	0.5324	0.157
Mof_H 	H 	0.5061	0.3796	0.601	0.073
Mof_H 	H 	0.3752	0.3583	0.6332	-0.024
Mof_H 	H 	0.7445	0.3057	0.5819	0.145
Mof_H 	H 	0.644	0.3177	0.5979	0.153
Mof_H 	H 	0.6477	0.2846	0.5698	0.185
Mof_H 	H 	0.8431	0.335	0.5653	0.308
Mof_H 	H 	0.8831	0.3449	0.53	0.325
Mof_H 	H 	0.8734	0.3802	0.5562	0.268
Mof_H 	H 	0.538	0.4341	0.4677	0.232
Mof_H 	H 	0.6328	0.4586	0.4774	0.234
Mof_H 	H 	0.6393	0.4217	0.4526	0.223
Mof_H 	H 	0.4407	0.4101	0.4875	0.15
Mof_H 	H 	0.4082	0.3661	0.4992	0.193
Mof_H 	H 	0.4056	0.4032	0.5239	0.159
Mof_H 	H 	0.2673	0.3439	0.3709	0.015
Mof_H 	H 	0.1339	0.3706	0.3992	0.108
Mof_H 	H 	0.2108	0.3055	0.4794	0.136
Mof_H 	H 	0.3441	0.2788	0.4511	0.047
Mof_H 	H 	0.187	0.4233	0.5073	0.118
Mof_H 	H 	0.2229	0.3785	0.4991	0.15
Mof_H 	H 	0.2222	0.4125	0.4716	0.138
Mof_H 	H 	0.0735	0.4459	0.5256	0.28
Mof_H 	H 	0.9745	0.4656	0.514	0.274
Mof_H 	H 	0.9743	0.431	0.541	0.261
Mof_H 	H 	0.799	0.3281	0.4344	0.32
Mof_H 	H 	0.7589	0.3397	0.4694	0.35
Mof_H 	H 	0.7586	0.3726	0.4411	0.29
Mof_H 	H 	0.9116	0.2992	0.4209	0.163
Mof_H 	H 	0.01	0.3138	0.4048	0.182
Mof_H 	H 	0.0119	0.2837	0.435	0.206
Mof_H 	H 	0.681	0.679	0.4612	0.021
Mof_H 	H 	0.6902	0.6076	0.4589	0.062
Mof_H 	H 	0.8872	0.6085	0.5325	0.07
Mof_H 	H 	0.8779	0.6799	0.5348	0.027
Mof_H 	H 	0.7072	0.585	0.5467	0.15
Mof_H 	H 	0.6417	0.5462	0.5534	0.132
Mof_H 	H 	0.7414	0.5515	0.5721	0.126
Mof_H 	H 	0.7215	0.4884	0.5726	0.247
Mof_H 	H 	0.6882	0.4497	0.5524	0.251
Mof_H 	H 	0.7967	0.4533	0.5647	0.232
Mof_H 	H 	0.8821	0.4851	0.42	0.248
Mof_H 	H 	0.9196	0.449	0.4423	0.253
Mof_H 	H 	0.8111	0.4491	0.4297	0.237
Mof_H 	H 	0.904	0.5415	0.4236	0.109
Mof_H 	H 	0.833	0.5782	0.4316	0.127
Mof_H 	H 	0.9341	0.5749	0.4497	0.133
Mof_H 	H 	0.1292	0.2981	0.7067	-0.024
Mof_H 	H 	0.1369	0.2504	0.7493	0.088
Mof_H 	H 	0.2204	0.1629	0.685	0.091
Mof_H 	H 	0.2127	0.2106	0.6424	-0.012
Mof_H 	H 	0.3505	0.1906	0.7239	0.254
Mof_H 	H 	0.4127	0.1874	0.7563	0.249
Mof_H 	H 	0.407	0.1498	0.7321	0.293
Mof_H 	H 	0.3919	0.0945	0.8116	0.237
Mof_H 	H 	0.4154	0.0979	0.7738	0.273
Mof_H 	H 	0.4375	0.1352	0.7973	0.27
Mof_H 	H 	0.0325	0.1001	0.8279	0.278
Mof_H 	H 	0.9846	0.1419	0.8171	0.303
Mof_H 	H 	0.9772	0.1032	0.7942	0.296
Mof_H 	H 	0.0117	0.1855	0.7333	0.212
Mof_H 	H 	0.9714	0.1432	0.7463	0.214
Mof_H 	H 	0.9707	0.1822	0.7693	0.208
Mof_H 	H 	0.7198	0.2068	0.9299	0.053
Mof_H 	H 	0.6137	0.1721	0.8949	0.085
Mof_H 	H 	0.4201	0.1603	0.9689	0.073
Mof_H 	H 	0.5263	0.195	0.0039	0.008
Mof_H 	H 	0.2787	0.2228	0.8962	0.143
Mof_H 	H 	0.3333	0.2134	0.9293	0.146
Mof_H 	H 	0.3925	0.2284	0.8985	0.148
Mof_H 	H 	0.1518	0.162	0.85	0.306
Mof_H 	H 	0.1568	0.1827	0.8849	0.344
Mof_H 	H 	0.2139	0.2022	0.8552	0.317
Mof_H 	H 	0.3335	0.0336	0.8497	0.25
Mof_H 	H 	0.4472	0.0399	0.8512	0.263
Mof_H 	H 	0.3906	0.0243	0.8824	0.26
Mof_H 	H 	0.5279	0.051	0.8982	0.122
Mof_H 	H 	0.5887	0.0919	0.9013	0.147
Mof_H 	H 	0.5242	0.0768	0.9309	0.135
Mof_H 	H 	0.8126	0.8869	0.829	-0.021
Mof_H 	H 	0.896	0.9488	0.8228	0.076
Mof_H 	H 	0.0706	0.919	0.8988	0.047
Mof_H 	H 	0.9872	0.8571	0.905	0.001
Mof_H 	H 	0.9357	0.0343	0.909	0.134
Mof_H 	H 	0.9209	0.9873	0.9014	0.144
Mof_H 	H 	0.0045	0.0015	0.9254	0.124
Mof_H 	H 	0.0376	0.0776	0.9131	0.283
Mof_H 	H 	0.1416	0.0937	0.9031	0.274
Mof_H 	H 	0.0493	0.107	0.8827	0.288
Mof_H 	H 	0.2287	0.9957	0.7791	0.242
Mof_H 	H 	0.2108	0.0434	0.7773	0.252
Mof_H 	H 	0.2974	0.0259	0.7985	0.225
Mof_H 	H 	0.1644	0.9507	0.7862	0.113
Mof_H 	H 	0.1448	0.9216	0.8163	0.133
Mof_H 	H 	0.0569	0.9381	0.7953	0.135
Mof_H 	H 	0.7693	0.7971	0.5718	0.005
Mof_H 	H 	0.6686	0.8284	0.6104	0.072
Mof_H 	H 	0.4442	0.824	0.5465	0.078
Mof_H 	H 	0.545	0.7927	0.5078	0.011
Mof_H 	H 	0.6018	0.9383	0.6143	0.136
Mof_H 	H 	0.6525	0.8956	0.6081	0.147
Mof_H 	H 	0.5874	0.9155	0.5806	0.145
Mof_H 	H 	0.4173	0.9607	0.6656	0.274
Mof_H 	H 	0.5296	0.9516	0.6622	0.285
Mof_H 	H 	0.4715	0.9701	0.6323	0.287
Mof_H 	H 	0.2357	0.8027	0.6423	0.311
Mof_H 	H 	0.2369	0.8292	0.6745	0.29
Mof_H 	H 	0.1839	0.8458	0.6429	0.272
Mof_H 	H 	0.3246	0.7751	0.6164	0.172
Mof_H 	H 	0.374	0.7859	0.5826	0.166
Mof_H 	H 	0.4377	0.769	0.6118	0.164
Mof_H 	H 	0.1361	0.1578	0.598	0.011
Mof_H 	H 	0.209	0.0945	0.6085	0.05
Mof_H 	H 	0.011	0.0724	0.6796	0.085
Mof_H 	H 	0.9381	0.1357	0.6691	0.017
Mof_H 	H 	0.333	0.0102	0.7291	0.255
Mof_H 	H 	0.2932	0.9649	0.7314	0.241
Mof_H 	H 	0.3871	0.9745	0.7105	0.239
Mof_H 	H 	0.2882	0.0588	0.7203	0.134
Mof_H 	H 	0.2808	0.088	0.6896	0.165
Mof_H 	H 	0.1876	0.079	0.711	0.148
Mof_H 	H 	0.0736	0.9863	0.5879	0.119
Mof_H 	H 	0.016	0.0194	0.6083	0.141
Mof_H 	H 	0.1073	0.0325	0.5873	0.126
Mof_H 	H 	0.129	0.9345	0.5967	0.251
Mof_H 	H 	0.2267	0.9138	0.6084	0.25
Mof_H 	H 	0.1294	0.9061	0.628	0.226
Mof_H 	H 	0.1091	0.7173	0.8002	0
Mof_H 	H 	0.1605	0.764	0.7605	0.087
Mof_H 	H 	0.149	0.8553	0.8273	0.072
Mof_H 	H 	0.0977	0.8086	0.8671	-0.016
Mof_H 	H 	0.9716	0.8747	0.7398	0.131
Mof_H 	H 	0.9957	0.8307	0.7535	0.154
Mof_H 	H 	0.0055	0.8694	0.7764	0.147
Mof_H 	H 	0.0099	0.9039	0.704	0.25
Mof_H 	H 	0.0843	0.9395	0.6965	0.259
Mof_H 	H 	0.0786	0.9012	0.6731	0.234
Mof_H 	H 	0.4416	0.8954	0.7038	0.208
Mof_H 	H 	0.4639	0.8871	0.7412	0.213
Mof_H 	H 	0.4584	0.8501	0.7163	0.223
Mof_H 	H 	0.4312	0.8343	0.7679	0.155
Mof_H 	H 	0.3626	0.8374	0.7987	0.164
Mof_H 	H 	0.358	0.7984	0.7759	0.174
Mof_H 	H 	0.8031	0.2257	0.4354	0.025
Mof_H 	H 	0.934	0.2044	0.4676	0.156
Mof_H 	H 	0.0061	0.1204	0.399	0.076
Mof_H 	H 	0.8752	0.1417	0.3668	-0.025
Mof_H 	H 	0.2445	0.1943	0.4181	0.145
Mof_H 	H 	0.144	0.1823	0.4021	0.153
Mof_H 	H 	0.1477	0.2154	0.4302	0.184
Mof_H 	H 	0.3431	0.165	0.4347	0.309
Mof_H 	H 	0.3831	0.1551	0.47	0.326
Mof_H 	H 	0.3734	0.1198	0.4438	0.269
Mof_H 	H 	0.038	0.0659	0.5323	0.233
Mof_H 	H 	0.1328	0.0414	0.5226	0.235
Mof_H 	H 	0.1393	0.0783	0.5474	0.223
Mof_H 	H 	0.9407	0.0899	0.5125	0.15
Mof_H 	H 	0.9082	0.1339	0.5008	0.194
Mof_H 	H 	0.9056	0.0968	0.4761	0.16
Mof_H 	H 	0.7673	0.1561	0.6291	0.015
Mof_H 	H 	0.6339	0.1294	0.6008	0.107
Mof_H 	H 	0.7108	0.1945	0.5206	0.135
Mof_H 	H 	0.8441	0.2212	0.5489	0.047
Mof_H 	H 	0.687	0.0767	0.4927	0.112
Mof_H 	H 	0.7229	0.1215	0.5009	0.145
Mof_H 	H 	0.7222	0.0875	0.5284	0.133
Mof_H 	H 	0.5735	0.0541	0.4744	0.294
Mof_H 	H 	0.4745	0.0344	0.486	0.29
Mof_H 	H 	0.4743	0.069	0.459	0.277
Mof_H 	H 	0.299	0.1719	0.5656	0.323
Mof_H 	H 	0.2589	0.1603	0.5306	0.353
Mof_H 	H 	0.2586	0.1274	0.5589	0.293
Mof_H 	H 	0.4116	0.2008	0.5791	0.155
Mof_H 	H 	0.51	0.1862	0.5952	0.172
Mof_H 	H 	0.5119	0.2163	0.565	0.196
Mof_H 	H 	0.181	0.821	0.5388	0.021
Mof_H 	H 	0.1902	0.8924	0.5411	0.062
Mof_H 	H 	0.3872	0.8915	0.4675	0.07
Mof_H 	H 	0.3779	0.8201	0.4652	0.027
Mof_H 	H 	0.2072	0.915	0.4533	0.15
Mof_H 	H 	0.1417	0.9538	0.4466	0.132
Mof_H 	H 	0.2414	0.9485	0.4279	0.126
Mof_H 	H 	0.2215	0.0116	0.4274	0.248
Mof_H 	H 	0.1882	0.0503	0.4476	0.252
Mof_H 	H 	0.2967	0.0467	0.4353	0.232
Mof_H 	H 	0.3821	0.0149	0.58	0.249
Mof_H 	H 	0.4196	0.051	0.5577	0.254
Mof_H 	H 	0.3111	0.0509	0.5703	0.237
Mof_H 	H 	0.404	0.9585	0.5764	0.109
Mof_H 	H 	0.333	0.9218	0.5684	0.127
Mof_H 	H 	0.4341	0.9251	0.5503	0.134
Mof_H 	H 	0.6292	0.2019	0.2933	-0.024
Mof_H 	H 	0.6369	0.2496	0.2507	0.088
Mof_H 	H 	0.7204	0.3371	0.315	0.091
Mof_H 	H 	0.7127	0.2894	0.3576	-0.012
Mof_H 	H 	0.8505	0.3094	0.2761	0.254
Mof_H 	H 	0.9127	0.3126	0.2437	0.249
Mof_H 	H 	0.907	0.3502	0.2679	0.293
Mof_H 	H 	0.8919	0.4055	0.1884	0.237
Mof_H 	H 	0.9154	0.4021	0.2262	0.273
Mof_H 	H 	0.9375	0.3648	0.2027	0.269
Mof_H 	H 	0.5325	0.3999	0.1721	0.277
Mof_H 	H 	0.4846	0.3581	0.1829	0.302
Mof_H 	H 	0.4772	0.3968	0.2058	0.295
Mof_H 	H 	0.5117	0.3145	0.2667	0.214
Mof_H 	H 	0.4714	0.3568	0.2537	0.216
Mof_H 	H 	0.4707	0.3178	0.2307	0.211
Mof_H 	H 	0.2198	0.2932	0.0701	0.054
Mof_H 	H 	0.1137	0.3279	0.1051	0.084
Mof_H 	H 	0.9201	0.3397	0.0311	0.072
Mof_H 	H 	0.0263	0.305	0.9961	0.008
Mof_H 	H 	0.7787	0.2772	0.1038	0.142
Mof_H 	H 	0.8333	0.2866	0.0707	0.146
Mof_H 	H 	0.8925	0.2716	0.1015	0.148
Mof_H 	H 	0.6518	0.338	0.15	0.306
Mof_H 	H 	0.6568	0.3173	0.1151	0.344
Mof_H 	H 	0.7139	0.2978	0.1448	0.317
Mof_H 	H 	0.8335	0.4664	0.1503	0.25
Mof_H 	H 	0.9472	0.4601	0.1488	0.264
Mof_H 	H 	0.8906	0.4757	0.1176	0.261
Mof_H 	H 	0.0279	0.449	0.1018	0.122
Mof_H 	H 	0.0887	0.4081	0.0987	0.147
Mof_H 	H 	0.0242	0.4232	0.0691	0.135
Mof_H 	H 	0.3126	0.6131	0.171	-0.02
Mof_H 	H 	0.396	0.5512	0.1772	0.074
Mof_H 	H 	0.5706	0.581	0.1012	0.043
Mof_H 	H 	0.4872	0.6429	0.095	0.002
Mof_H 	H 	0.4357	0.4657	0.091	0.135
Mof_H 	H 	0.4209	0.5127	0.0986	0.144
Mof_H 	H 	0.5045	0.4985	0.0746	0.125
Mof_H 	H 	0.5376	0.4224	0.0869	0.284
Mof_H 	H 	0.6416	0.4063	0.0969	0.274
Mof_H 	H 	0.5493	0.393	0.1173	0.288
Mof_H 	H 	0.7287	0.5043	0.2209	0.242
Mof_H 	H 	0.7108	0.4566	0.2227	0.252
Mof_H 	H 	0.7974	0.4741	0.2015	0.225
Mof_H 	H 	0.6644	0.5493	0.2138	0.113
Mof_H 	H 	0.6448	0.5784	0.1837	0.133
Mof_H 	H 	0.5569	0.5619	0.2047	0.135
Mof_H 	H 	0.2693	0.7029	0.4282	0.005
Mof_H 	H 	0.1686	0.6716	0.3896	0.073
Mof_H 	H 	0.9442	0.676	0.4535	0.076
Mof_H 	H 	0.045	0.7073	0.4922	0.012
Mof_H 	H 	0.1018	0.5617	0.3857	0.138
Mof_H 	H 	0.1525	0.6044	0.3919	0.15
Mof_H 	H 	0.0874	0.5845	0.4194	0.148
Mof_H 	H 	0.9173	0.5393	0.3344	0.274
Mof_H 	H 	0.0296	0.5484	0.3378	0.287
Mof_H 	H 	0.9715	0.5299	0.3677	0.287
Mof_H 	H 	0.7357	0.6973	0.3577	0.31
Mof_H 	H 	0.7369	0.6708	0.3255	0.289
Mof_H 	H 	0.6839	0.6542	0.3571	0.272
Mof_H 	H 	0.8246	0.7249	0.3836	0.173
Mof_H 	H 	0.874	0.7141	0.4174	0.166
Mof_H 	H 	0.9377	0.731	0.3882	0.164
Mof_H 	H 	0.6361	0.3422	0.402	0.01
Mof_H 	H 	0.709	0.4055	0.3915	0.051
Mof_H 	H 	0.511	0.4276	0.3204	0.086
Mof_H 	H 	0.4381	0.3643	0.3309	0.015
Mof_H 	H 	0.833	0.4898	0.2709	0.254
Mof_H 	H 	0.7932	0.5351	0.2686	0.241
Mof_H 	H 	0.8871	0.5255	0.2895	0.238
Mof_H 	H 	0.7882	0.4412	0.2797	0.134
Mof_H 	H 	0.7808	0.412	0.3104	0.165
Mof_H 	H 	0.6876	0.421	0.289	0.148
Mof_H 	H 	0.5736	0.5137	0.4121	0.119
Mof_H 	H 	0.516	0.4806	0.3917	0.141
Mof_H 	H 	0.6073	0.4675	0.4127	0.126
Mof_H 	H 	0.629	0.5655	0.4033	0.251
Mof_H 	H 	0.7267	0.5862	0.3916	0.25
Mof_H 	H 	0.6294	0.5939	0.372	0.226
Mof_H 	H 	0.6091	0.7827	0.1998	0
Mof_H 	H 	0.6605	0.736	0.2395	0.087
Mof_H 	H 	0.649	0.6447	0.1727	0.072
Mof_H 	H 	0.5977	0.6914	0.1329	-0.016
Mof_H 	H 	0.4716	0.6253	0.2602	0.128
Mof_H 	H 	0.4957	0.6693	0.2465	0.152
Mof_H 	H 	0.5055	0.6306	0.2236	0.145
Mof_H 	H 	0.5099	0.5961	0.296	0.251
Mof_H 	H 	0.5843	0.5605	0.3035	0.26
Mof_H 	H 	0.5786	0.5988	0.3269	0.235
Mof_H 	H 	0.9416	0.6046	0.2962	0.208
Mof_H 	H 	0.9639	0.6129	0.2588	0.213
Mof_H 	H 	0.9584	0.6499	0.2837	0.222
Mof_H 	H 	0.9312	0.6657	0.2321	0.155
Mof_H 	H 	0.8626	0.6626	0.2013	0.164
Mof_H 	H 	0.858	0.7016	0.2241	0.174
Mof_H 	H 	0.6969	0.7743	0.9354	0.025
Mof_H 	H 	0.566	0.7956	0.9676	0.157
Mof_H 	H 	0.4939	0.8796	0.899	0.073
Mof_H 	H 	0.6248	0.8583	0.8668	-0.024
Mof_H 	H 	0.2555	0.8057	0.9181	0.145
Mof_H 	H 	0.356	0.8177	0.9021	0.153
Mof_H 	H 	0.3523	0.7846	0.9302	0.185
Mof_H 	H 	0.1569	0.835	0.9347	0.308
Mof_H 	H 	0.1169	0.8449	0.97	0.325
Mof_H 	H 	0.1266	0.8802	0.9438	0.268
Mof_H 	H 	0.462	0.9341	0.0323	0.231
Mof_H 	H 	0.3672	0.9586	0.0226	0.234
Mof_H 	H 	0.3607	0.9217	0.0474	0.223
Mof_H 	H 	0.5593	0.9101	0.0125	0.15
Mof_H 	H 	0.5918	0.8661	0.0008	0.193
Mof_H 	H 	0.5944	0.9032	0.9761	0.159
Mof_H 	H 	0.7327	0.8439	0.1291	0.015
Mof_H 	H 	0.8661	0.8706	0.1008	0.108
Mof_H 	H 	0.7892	0.8055	0.0206	0.136
Mof_H 	H 	0.6559	0.7788	0.0489	0.047
Mof_H 	H 	0.813	0.9233	0.9927	0.119
Mof_H 	H 	0.7771	0.8785	0.0009	0.15
Mof_H 	H 	0.7778	0.9125	0.0284	0.138
Mof_H 	H 	0.9265	0.9459	0.9744	0.278
Mof_H 	H 	0.0255	0.9656	0.986	0.272
Mof_H 	H 	0.0257	0.931	0.959	0.259
Mof_H 	H 	0.201	0.8281	0.0656	0.319
Mof_H 	H 	0.2411	0.8397	0.0306	0.35
Mof_H 	H 	0.2414	0.8726	0.0589	0.29
Mof_H 	H 	0.0884	0.7992	0.0791	0.163
Mof_H 	H 	0.99	0.8138	0.0952	0.182
Mof_H 	H 	0.9881	0.7837	0.065	0.205
Mof_H 	H 	0.319	0.179	0.0388	0.021
Mof_H 	H 	0.3098	0.1076	0.0411	0.062
Mof_H 	H 	0.1128	0.1085	0.9675	0.07
Mof_H 	H 	0.1221	0.1799	0.9652	0.027
Mof_H 	H 	0.2928	0.085	0.9533	0.15
Mof_H 	H 	0.3583	0.0462	0.9466	0.132
Mof_H 	H 	0.2586	0.0515	0.9279	0.126
Mof_H 	H 	0.2785	0.9884	0.9274	0.247
Mof_H 	H 	0.3118	0.9497	0.9476	0.251
Mof_H 	H 	0.2033	0.9533	0.9353	0.231
Mof_H 	H 	0.1179	0.9851	0.08	0.248
Mof_H 	H 	0.0804	0.949	0.0577	0.253
Mof_H 	H 	0.1889	0.9491	0.0703	0.237
Mof_H 	H 	0.096	0.0415	0.0764	0.11
Mof_H 	H 	0.167	0.0782	0.0684	0.127
Mof_H 	H 	0.0659	0.0749	0.0503	0.133
Mof_H 	H 	0.8708	0.7981	0.7933	-0.024
Mof_H 	H 	0.8631	0.7504	0.7507	0.088
Mof_H 	H 	0.7796	0.6629	0.815	0.091
Mof_H 	H 	0.7873	0.7106	0.8576	-0.012
Mof_H 	H 	0.6495	0.6906	0.7761	0.254
Mof_H 	H 	0.5873	0.6874	0.7437	0.249
Mof_H 	H 	0.593	0.6498	0.7679	0.293
Mof_H 	H 	0.6081	0.5945	0.6884	0.237
Mof_H 	H 	0.5846	0.5979	0.7262	0.273
Mof_H 	H 	0.5625	0.6352	0.7027	0.27
Mof_H 	H 	0.9675	0.6001	0.6721	0.279
Mof_H 	H 	0.0154	0.6419	0.6829	0.303
Mof_H 	H 	0.0228	0.6032	0.7058	0.297
Mof_H 	H 	0.9883	0.6855	0.7667	0.213
Mof_H 	H 	0.0286	0.6432	0.7537	0.214
Mof_H 	H 	0.0293	0.6822	0.7307	0.208
Mof_H 	H 	0.2802	0.7068	0.5701	0.053
Mof_H 	H 	0.3863	0.6721	0.6051	0.085
Mof_H 	H 	0.5799	0.6603	0.5311	0.073
Mof_H 	H 	0.4737	0.695	0.4961	0.008
Mof_H 	H 	0.7213	0.7228	0.6038	0.143
Mof_H 	H 	0.6667	0.7134	0.5707	0.146
Mof_H 	H 	0.6075	0.7284	0.6015	0.148
Mof_H 	H 	0.8482	0.662	0.65	0.306
Mof_H 	H 	0.8432	0.6827	0.6151	0.344
Mof_H 	H 	0.7861	0.7022	0.6448	0.317
Mof_H 	H 	0.6665	0.5336	0.6503	0.25
Mof_H 	H 	0.5528	0.5399	0.6488	0.263
Mof_H 	H 	0.6094	0.5243	0.6176	0.26
Mof_H 	H 	0.4721	0.551	0.6018	0.122
Mof_H 	H 	0.4113	0.5919	0.5987	0.147
Mof_H 	H 	0.4758	0.5768	0.5691	0.135
Mof_H 	H 	0.1874	0.3869	0.671	-0.02
Mof_H 	H 	0.104	0.4488	0.6772	0.076
Mof_H 	H 	0.9294	0.419	0.6012	0.046
Mof_H 	H 	0.0128	0.3571	0.595	0.001
Mof_H 	H 	0.0643	0.5343	0.591	0.132
Mof_H 	H 	0.0791	0.4873	0.5986	0.141
Mof_H 	H 	0.9955	0.5015	0.5746	0.121
Mof_H 	H 	0.9624	0.5776	0.5869	0.284
Mof_H 	H 	0.8584	0.5937	0.5969	0.274
Mof_H 	H 	0.9507	0.607	0.6173	0.288
Mof_H 	H 	0.7713	0.4957	0.7209	0.242
Mof_H 	H 	0.7892	0.5434	0.7227	0.252
Mof_H 	H 	0.7026	0.5259	0.7015	0.225
Mof_H 	H 	0.8356	0.4507	0.7138	0.113
Mof_H 	H 	0.8552	0.4216	0.6837	0.132
Mof_H 	H 	0.9431	0.4381	0.7047	0.135
Mof_H 	H 	0.2307	0.2971	0.9282	0.005
Mof_H 	H 	0.3314	0.3284	0.8896	0.072
Mof_H 	H 	0.5558	0.324	0.9535	0.078
Mof_H 	H 	0.455	0.2927	0.9922	0.011
Mof_H 	H 	0.3982	0.4383	0.8857	0.135
Mof_H 	H 	0.3475	0.3956	0.8919	0.147
Mof_H 	H 	0.4126	0.4155	0.9194	0.145
Mof_H 	H 	0.5827	0.4607	0.8344	0.274
Mof_H 	H 	0.4704	0.4516	0.8378	0.285
Mof_H 	H 	0.5285	0.4701	0.8677	0.287
Mof_H 	H 	0.7643	0.3027	0.8577	0.311
Mof_H 	H 	0.7631	0.3292	0.8255	0.29
Mof_H 	H 	0.8161	0.3458	0.8571	0.272
Mof_H 	H 	0.6754	0.2751	0.8836	0.172
Mof_H 	H 	0.626	0.2859	0.9174	0.166
Mof_H 	H 	0.5623	0.269	0.8882	0.164
Mof_H 	H 	0.8639	0.6578	0.902	0.011
Mof_H 	H 	0.791	0.5945	0.8915	0.051
Mof_H 	H 	0.989	0.5724	0.8204	0.085
Mof_H 	H 	0.0619	0.6357	0.8309	0.017
Mof_H 	H 	0.667	0.5102	0.7709	0.254
Mof_H 	H 	0.7068	0.4649	0.7686	0.241
Mof_H 	H 	0.6129	0.4745	0.7895	0.239
Mof_H 	H 	0.7118	0.5588	0.7797	0.134
Mof_H 	H 	0.7192	0.588	0.8104	0.165
Mof_H 	H 	0.8124	0.579	0.789	0.148
Mof_H 	H 	0.9264	0.4863	0.9121	0.12
Mof_H 	H 	0.984	0.5194	0.8917	0.141
Mof_H 	H 	0.8927	0.5325	0.9127	0.127
Mof_H 	H 	0.871	0.4345	0.9033	0.251
Mof_H 	H 	0.7733	0.4138	0.8916	0.251
Mof_H 	H 	0.8706	0.4061	0.872	0.226
Mof_H 	H 	0.8909	0.2173	0.6998	0
Mof_H 	H 	0.8395	0.264	0.7395	0.087
Mof_H 	H 	0.851	0.3553	0.6727	0.072
Mof_H 	H 	0.9023	0.3086	0.6329	-0.016
Mof_H 	H 	0.0284	0.3747	0.7602	0.13
Mof_H 	H 	0.0043	0.3307	0.7465	0.153
Mof_H 	H 	0.9945	0.3694	0.7236	0.146
Mof_H 	H 	0.9901	0.4039	0.796	0.251
Mof_H 	H 	0.9157	0.4395	0.8035	0.259
Mof_H 	H 	0.9214	0.4012	0.8269	0.234
Mof_H 	H 	0.5584	0.3954	0.7962	0.208
Mof_H 	H 	0.5361	0.3871	0.7588	0.213
Mof_H 	H 	0.5416	0.3501	0.7837	0.223
Mof_H 	H 	0.5688	0.3343	0.7321	0.155
Mof_H 	H 	0.6374	0.3374	0.7013	0.164
Mof_H 	H 	0.642	0.2984	0.7241	0.174
Mof_C 	C 	0.1562	0.7046	0.0719	0.088
Mof_C 	C 	0.0778	0.6919	0.0526	-0.185
Mof_C 	C 	0.017	0.6603	0.0635	0.112
Mof_C 	C 	0.0346	0.6415	0.0937	-0.177
Mof_C 	C 	0.113	0.6543	0.113	0.076
Mof_C 	C 	0.9348	0.6456	0.0422	-0.019
Mof_C 	C 	0.954	0.6184	0.0161	0.014
Mof_C 	C 	0.8754	0.5985	0.0012	0.286
Mof_C 	C 	0.7755	0.6076	0.0118	-0.644
Mof_C 	C 	0.7604	0.636	0.0361	0.387
Mof_C 	C 	0.8379	0.6554	0.0514	-0.042
Mof_C 	C 	0.8241	0.6903	0.0778	-0.433
Mof_C 	C 	0.6553	0.6448	0.0481	-0.916
Mof_C 	C 	0.893	0.5681	0.9719	-0.741
Mof_C 	C 	0.0598	0.6088	0.0057	-0.475
Mof_C 	C 	0.244	0.6638	0.8926	0.074
Mof_C 	C 	0.3239	0.6478	0.9096	-0.158
Mof_C 	C 	0.3409	0.6593	0.9421	0.096
Mof_C 	C 	0.2779	0.6868	0.9576	-0.158
Mof_C 	C 	0.198	0.7028	0.9407	0.081
Mof_C 	C 	0.4289	0.641	0.958	0.012
Mof_C 	C 	0.5183	0.655	0.9496	-0.056
Mof_C 	C 	0.603	0.636	0.9609	0.405
Mof_C 	C 	0.5972	0.6037	0.9845	-0.736
Mof_C 	C 	0.5033	0.5912	0.9953	0.412
Mof_C 	C 	0.4173	0.6102	0.9812	-0.074
Mof_C 	C 	0.3112	0.5978	0.9907	-0.379
Mof_C 	C 	0.4945	0.5594	0.0213	-0.954
Mof_C 	C 	0.7064	0.6502	0.9504	-0.949
Mof_C 	C 	0.5215	0.6934	0.9252	-0.446
Mof_C 	C 	0.7777	0.3351	0.9755	0.042
Mof_C 	C 	0.7721	0.3779	0.9741	-0.129
Mof_C 	C 	0.7104	0.399	0.9955	0.062
Mof_C 	C 	0.6541	0.3774	0.0182	-0.131
Mof_C 	C 	0.6597	0.3346	0.0196	0.044
Mof_C 	C 	0.7039	0.4453	0.9958	-0.007
Mof_C 	C 	0.6684	0.4669	0.9686	-0.082
Mof_C 	C 	0.6683	0.5091	0.9688	0.34
Mof_C 	C 	0.6985	0.5322	0.9957	-0.673
Mof_C 	C 	0.7311	0.5097	0.0246	0.323
Mof_C 	C 	0.7392	0.4674	0.0237	-0.061
Mof_C 	C 	0.7923	0.444	0.0516	-0.409
Mof_C 	C 	0.7587	0.5316	0.0565	-0.807
Mof_C 	C 	0.6357	0.5339	0.9371	-0.792
Mof_C 	C 	0.6196	0.4405	0.9407	-0.365
Mof_C 	C 	0.3525	0.729	0.2023	0.078
Mof_C 	C 	0.3479	0.7576	0.22785	-0.184
Mof_C 	C 	0.3206	0.7981	0.2214	0.113
Mof_C 	C 	0.2979	0.81	0.1894	-0.183
Mof_C 	C 	0.3025	0.7814	0.16385	0.072
Mof_C 	C 	0.3125	0.8297	0.25	-0.118
Mof_C 	C 	0.3945	0.8431	0.2644	0.061
Mof_C 	C 	0.3873	0.8699	0.2927	0.298
Mof_C 	C 	0.2933	0.8833	0.303	-0.588
Mof_C 	C 	0.2108	0.87	0.2865	0.269
Mof_C 	C 	0.2147	0.843	0.259	0.093
Mof_C 	C 	0.1287	0.8274	0.2413	-0.711
Mof_C 	C 	0.1065	0.8872	0.2929	-0.784
Mof_C 	C 	0.4819	0.8823	0.3095	-0.882
Mof_C 	C 	0.494	0.8321	0.2522	-0.595
Mof_C 	C 	0.8402	0.8026	0.4377	0.038
Mof_C 	C 	0.9038	0.8233	0.4168	-0.124
Mof_C 	C 	0.9936	0.8373	0.4284	0.063
Mof_C 	C 	0.0198	0.8304	0.4611	-0.135
Mof_C 	C 	0.9562	0.8096	0.4821	0.054
Mof_C 	C 	0.0669	0.8567	0.4057	-0.002
Mof_C 	C 	0.0572	0.8974	0.394	-0.073
Mof_C 	C 	0.1275	0.9144	0.3743	0.366
Mof_C 	C 	0.2069	0.8901	0.3628	-0.671
Mof_C 	C 	0.2164	0.8498	0.3738	0.388
Mof_C 	C 	0.1477	0.8328	0.3949	-0.072
Mof_C 	C 	0.1622	0.7878	0.4058	-0.408
Mof_C 	C 	0.3071	0.8232	0.3651	-0.946
Mof_C 	C 	0.1127	0.9581	0.3634	-0.872
Mof_C 	C 	0.9712	0.9216	0.4073	-0.393
Mof_C 	C 	0.6357	0.1066	0.343	0.061
Mof_C 	C 	0.5857	0.0696	0.3393	-0.153
Mof_C 	C 	0.5084	0.06	0.3602	0.072
Mof_C 	C 	0.4811	0.0875	0.3848	-0.143
Mof_C 	C 	0.5311	0.1245	0.3885	0.05
Mof_C 	C 	0.4535	0.0202	0.3556	-0.016
Mof_C 	C 	0.3875	0.0172	0.3269	-0.068
Mof_C 	C 	0.3374	0.9817	0.3217	0.332
Mof_C 	C 	0.3453	0.9483	0.3431	-0.642
Mof_C 	C 	0.4072	0.9532	0.3719	0.317
Mof_C 	C 	0.4612	0.9882	0.3767	-0.052
Mof_C 	C 	0.5316	0.9916	0.4058	-0.408
Mof_C 	C 	0.421	0.915	0.3949	-0.855
Mof_C 	C 	0.2685	0.9789	0.2912	-0.8
Mof_C 	C 	0.3796	0.0553	0.304	-0.377
Mof_C 	C 	0.7958	0.1975	0.0667	0.054
Mof_C 	C 	0.8562	0.1788	0.0899	-0.153
Mof_C 	C 	0.9536	0.1707	0.0823	0.086
Mof_C 	C 	0.9906	0.1814	0.0515	-0.151
Mof_C 	C 	0.9302	0.2001	0.0284	0.064
Mof_C 	C 	0.0174	0.1493	0.1055	-0.031
Mof_C 	C 	0.0996	0.1692	0.1183	-0.039
Mof_C 	C 	0.1652	0.149	0.1396	0.338
Mof_C 	C 	0.1436	0.1092	0.1507	-0.618
Mof_C 	C 	0.0542	0.09	0.1393	0.364
Mof_C 	C 	0.992	0.1095	0.1174	-0.053
Mof_C 	C 	0.9049	0.0881	0.1039	-0.426
Mof_C 	C 	0.0321	0.0483	0.1508	-0.911
Mof_C 	C 	0.2613	0.1698	0.1509	-0.884
Mof_C 	C 	0.1176	0.2141	0.1061	-0.457
Mof_C 	C 	0.389	0.8593	0.1144	0.056
Mof_C 	C 	0.3453	0.8972	0.1206	-0.141
Mof_C 	C 	0.3827	0.9228	0.1451	0.074
Mof_C 	C 	0.4639	0.9105	0.1632	-0.139
Mof_C 	C 	0.5076	0.8726	0.157	0.059
Mof_C 	C 	0.3347	0.9643	0.1533	-0.013
Mof_C 	C 	0.3532	0.9971	0.1306	-0.058
Mof_C 	C 	0.3117	0.0363	0.1375	0.338
Mof_C 	C 	0.2575	0.0417	0.1658	-0.647
Mof_C 	C 	0.2404	0.0076	0.1866	0.333
Mof_C 	C 	0.2771	0.97	0.1802	-0.057
Mof_C 	C 	0.1756	0.0152	0.2173	-0.801
Mof_C 	C 	0.2528	0.9325	0.2024	-0.417
Mof_C 	C 	0.4205	0.989	0.1007	-0.391
Mof_C 	C 	0.3337	0.074	0.1156	-0.803
Mof_C 	C 	0.3829	0.2551	0.3056	0.073
Mof_C 	C 	0.3521	0.2271	0.28184	-0.158
Mof_C 	C 	0.3402	0.1857	0.29	0.094
Mof_C 	C 	0.359	0.1723	0.3219	-0.163
Mof_C 	C 	0.3898	0.2003	0.3457	0.069
Mof_C 	C 	0.3107	0.1571	0.2628	-0.048
Mof_C 	C 	0.2092	0.1517	0.2558	0.005
Mof_C 	C 	0.1805	0.1277	0.2289	0.258
Mof_C 	C 	0.2527	0.1077	0.2086	-0.621
Mof_C 	C 	0.3471	0.1121	0.2167	0.335
Mof_C 	C 	0.3791	0.1355	0.2435	-0.044
Mof_C 	C 	0.4868	0.1407	0.2543	-0.418
Mof_C 	C 	0.4262	0.0897	0.1955	-0.805
Mof_C 	C 	0.0683	0.1234	0.2219	-0.702
Mof_C 	C 	0.1325	0.1722	0.2764	-0.485
Mof_C 	C 	0.935	0.7407	0.972	0.789
Mof_C 	C 	0.3438	0.2954	0.5719	0.089
Mof_C 	C 	0.4222	0.3081	0.5526	-0.185
Mof_C 	C 	0.483	0.3397	0.5635	0.114
Mof_C 	C 	0.4654	0.3585	0.5937	-0.174
Mof_C 	C 	0.387	0.3457	0.613	0.075
Mof_C 	C 	0.5652	0.3544	0.5422	-0.021
Mof_C 	C 	0.546	0.3816	0.5161	0.013
Mof_C 	C 	0.6246	0.4015	0.5012	0.285
Mof_C 	C 	0.7245	0.3924	0.5118	-0.641
Mof_C 	C 	0.7396	0.364	0.5361	0.385
Mof_C 	C 	0.6621	0.3446	0.5514	-0.04
Mof_C 	C 	0.6759	0.3097	0.5778	-0.435
Mof_C 	C 	0.8447	0.3552	0.5481	-0.914
Mof_C 	C 	0.607	0.4319	0.4719	-0.739
Mof_C 	C 	0.4402	0.3912	0.5057	-0.474
Mof_C 	C 	0.256	0.3362	0.3926	0.075
Mof_C 	C 	0.1761	0.3522	0.4096	-0.16
Mof_C 	C 	0.1591	0.3407	0.4421	0.1
Mof_C 	C 	0.2221	0.3132	0.4576	-0.16
Mof_C 	C 	0.302	0.2972	0.4407	0.082
Mof_C 	C 	0.0711	0.359	0.458	0.005
Mof_C 	C 	0.9817	0.345	0.4496	-0.047
Mof_C 	C 	0.897	0.364	0.4609	0.396
Mof_C 	C 	0.9028	0.3963	0.4845	-0.724
Mof_C 	C 	0.9967	0.4088	0.4953	0.389
Mof_C 	C 	0.0827	0.3898	0.4812	-0.06
Mof_C 	C 	0.1888	0.4022	0.4907	-0.394
Mof_C 	C 	0.0055	0.4406	0.5213	-0.905
Mof_C 	C 	0.7936	0.3498	0.4504	-0.939
Mof_C 	C 	0.9785	0.3066	0.4252	-0.474
Mof_C 	C 	0.7223	0.6649	0.4755	0.042
Mof_C 	C 	0.7279	0.6221	0.4741	-0.13
Mof_C 	C 	0.7896	0.601	0.4955	0.062
Mof_C 	C 	0.8459	0.6226	0.5182	-0.132
Mof_C 	C 	0.8403	0.6654	0.5196	0.044
Mof_C 	C 	0.7961	0.5547	0.4958	-0.007
Mof_C 	C 	0.8316	0.5331	0.4686	-0.082
Mof_C 	C 	0.8317	0.4909	0.4688	0.339
Mof_C 	C 	0.8015	0.4678	0.4957	-0.67
Mof_C 	C 	0.7689	0.4903	0.5246	0.322
Mof_C 	C 	0.7608	0.5326	0.5237	-0.06
Mof_C 	C 	0.7077	0.556	0.5516	-0.409
Mof_C 	C 	0.7413	0.4684	0.5565	-0.806
Mof_C 	C 	0.8643	0.4661	0.4371	-0.79
Mof_C 	C 	0.8804	0.5595	0.4407	-0.365
Mof_C 	C 	0.1475	0.271	0.7023	0.078
Mof_C 	C 	0.1521	0.2424	0.72785	-0.184
Mof_C 	C 	0.1794	0.2019	0.7214	0.113
Mof_C 	C 	0.2021	0.19	0.6894	-0.183
Mof_C 	C 	0.1975	0.2186	0.66385	0.073
Mof_C 	C 	0.1875	0.1703	0.75	-0.117
Mof_C 	C 	0.1055	0.1569	0.7644	0.059
Mof_C 	C 	0.1127	0.1301	0.7927	0.3
Mof_C 	C 	0.2067	0.1167	0.803	-0.589
Mof_C 	C 	0.2892	0.13	0.7865	0.27
Mof_C 	C 	0.2853	0.157	0.759	0.092
Mof_C 	C 	0.3713	0.1726	0.7413	-0.712
Mof_C 	C 	0.3935	0.1128	0.7929	-0.785
Mof_C 	C 	0.0181	0.1177	0.8095	-0.885
Mof_C 	C 	0.006	0.1679	0.7522	-0.588
Mof_C 	C 	0.6598	0.1974	0.9377	0.04
Mof_C 	C 	0.5962	0.1767	0.9168	-0.127
Mof_C 	C 	0.5064	0.1627	0.9284	0.068
Mof_C 	C 	0.4802	0.1696	0.9611	-0.141
Mof_C 	C 	0.5438	0.1904	0.9821	0.058
Mof_C 	C 	0.4331	0.1433	0.9057	-0.005
Mof_C 	C 	0.4428	0.1026	0.894	-0.073
Mof_C 	C 	0.3725	0.0856	0.8743	0.366
Mof_C 	C 	0.2931	0.1099	0.8628	-0.671
Mof_C 	C 	0.2836	0.1502	0.8738	0.388
Mof_C 	C 	0.3523	0.1672	0.8949	-0.071
Mof_C 	C 	0.3378	0.2122	0.9058	-0.409
Mof_C 	C 	0.1929	0.1768	0.8651	-0.945
Mof_C 	C 	0.3873	0.0419	0.8634	-0.872
Mof_C 	C 	0.5288	0.0784	0.9073	-0.393
Mof_C 	C 	0.8643	0.8934	0.843	0.064
Mof_C 	C 	0.9143	0.9304	0.8393	-0.158
Mof_C 	C 	0.9916	0.94	0.8602	0.081
Mof_C 	C 	0.0189	0.9125	0.8848	-0.154
Mof_C 	C 	0.9689	0.8755	0.8885	0.057
Mof_C 	C 	0.0465	0.9798	0.8556	-0.02
Mof_C 	C 	0.1125	0.9828	0.8269	-0.067
Mof_C 	C 	0.1626	0.0183	0.8217	0.332
Mof_C 	C 	0.1547	0.0517	0.8431	-0.642
Mof_C 	C 	0.0928	0.0468	0.8719	0.317
Mof_C 	C 	0.0388	0.0118	0.8767	-0.052
Mof_C 	C 	0.9684	0.0084	0.9058	-0.404
Mof_C 	C 	0.079	0.085	0.8949	-0.854
Mof_C 	C 	0.2315	0.0211	0.7912	-0.798
Mof_C 	C 	0.1204	0.9447	0.804	-0.378
Mof_C 	C 	0.7042	0.8025	0.5667	0.054
Mof_C 	C 	0.6438	0.8212	0.5899	-0.152
Mof_C 	C 	0.5464	0.8293	0.5823	0.084
Mof_C 	C 	0.5094	0.8186	0.5515	-0.153
Mof_C 	C 	0.5698	0.7999	0.5284	0.065
Mof_C 	C 	0.4826	0.8507	0.6055	-0.027
Mof_C 	C 	0.4004	0.8308	0.6183	-0.041
Mof_C 	C 	0.3348	0.851	0.6396	0.339
Mof_C 	C 	0.3564	0.8908	0.6507	-0.62
Mof_C 	C 	0.4458	0.91	0.6393	0.366
Mof_C 	C 	0.508	0.8905	0.6174	-0.058
Mof_C 	C 	0.5951	0.9119	0.6039	-0.42
Mof_C 	C 	0.4679	0.9517	0.6508	-0.911
Mof_C 	C 	0.2387	0.8302	0.6509	-0.886
Mof_C 	C 	0.3824	0.7859	0.6061	-0.455
Mof_C 	C 	0.111	0.1407	0.6144	0.055
Mof_C 	C 	0.1547	0.1028	0.6206	-0.139
Mof_C 	C 	0.1173	0.0772	0.6451	0.072
Mof_C 	C 	0.0361	0.0895	0.6632	-0.134
Mof_C 	C 	0.9924	0.1274	0.657	0.053
Mof_C 	C 	0.1653	0.0357	0.6533	-0.012
Mof_C 	C 	0.1468	0.0029	0.6306	-0.058
Mof_C 	C 	0.1883	0.9637	0.6375	0.338
Mof_C 	C 	0.2425	0.9583	0.6658	-0.647
Mof_C 	C 	0.2596	0.9924	0.6866	0.333
Mof_C 	C 	0.2229	0.03	0.6802	-0.057
Mof_C 	C 	0.3244	0.9848	0.7173	-0.803
Mof_C 	C 	0.2472	0.0675	0.7024	-0.417
Mof_C 	C 	0.0795	0.011	0.6007	-0.39
Mof_C 	C 	0.1663	0.926	0.6156	-0.803
Mof_C 	C 	0.1171	0.7449	0.8056	0.073
Mof_C 	C 	0.1479	0.7729	0.78184	-0.159
Mof_C 	C 	0.1598	0.8143	0.79	0.094
Mof_C 	C 	0.141	0.8277	0.8219	-0.164
Mof_C 	C 	0.1102	0.7997	0.8457	0.068
Mof_C 	C 	0.1893	0.8429	0.7628	-0.049
Mof_C 	C 	0.2908	0.8483	0.7558	0.005
Mof_C 	C 	0.3195	0.8723	0.7289	0.258
Mof_C 	C 	0.2473	0.8923	0.7086	-0.62
Mof_C 	C 	0.1529	0.8879	0.7167	0.334
Mof_C 	C 	0.1209	0.8645	0.7435	-0.042
Mof_C 	C 	0.0132	0.8593	0.7543	-0.426
Mof_C 	C 	0.0738	0.9103	0.6955	-0.803
Mof_C 	C 	0.4317	0.8766	0.7219	-0.702
Mof_C 	C 	0.3675	0.8278	0.7764	-0.486
Mof_C 	C 	0.565	0.2593	0.472	0.79
Mof_C 	C 	0.8438	0.2046	0.4281	0.088
Mof_C 	C 	0.9222	0.1919	0.4474	-0.185
Mof_C 	C 	0.983	0.1603	0.4365	0.112
Mof_C 	C 	0.9654	0.1415	0.4063	-0.178
Mof_C 	C 	0.887	0.1543	0.387	0.077
Mof_C 	C 	0.0652	0.1456	0.4578	-0.02
Mof_C 	C 	0.046	0.1184	0.4839	0.015
Mof_C 	C 	0.1246	0.0985	0.4988	0.286
Mof_C 	C 	0.2245	0.1076	0.4882	-0.644
Mof_C 	C 	0.2396	0.136	0.4639	0.387
Mof_C 	C 	0.1621	0.1554	0.4486	-0.041
Mof_C 	C 	0.1759	0.1903	0.4222	-0.434
Mof_C 	C 	0.3447	0.1448	0.4519	-0.916
Mof_C 	C 	0.107	0.0681	0.5281	-0.741
Mof_C 	C 	0.9402	0.1088	0.4943	-0.479
Mof_C 	C 	0.756	0.1638	0.6074	0.074
Mof_C 	C 	0.6761	0.1478	0.5904	-0.157
Mof_C 	C 	0.6591	0.1593	0.5579	0.096
Mof_C 	C 	0.7221	0.1868	0.5424	-0.158
Mof_C 	C 	0.802	0.2028	0.5593	0.081
Mof_C 	C 	0.5711	0.141	0.542	0.012
Mof_C 	C 	0.4817	0.155	0.5504	-0.056
Mof_C 	C 	0.397	0.136	0.5391	0.406
Mof_C 	C 	0.4028	0.1037	0.5155	-0.736
Mof_C 	C 	0.4967	0.0912	0.5047	0.412
Mof_C 	C 	0.5827	0.1102	0.5188	-0.075
Mof_C 	C 	0.6888	0.0978	0.5093	-0.378
Mof_C 	C 	0.5055	0.0594	0.4787	-0.954
Mof_C 	C 	0.2936	0.1502	0.5496	-0.949
Mof_C 	C 	0.4785	0.1934	0.5748	-0.446
Mof_C 	C 	0.2223	0.8351	0.5245	0.042
Mof_C 	C 	0.2279	0.8779	0.5259	-0.129
Mof_C 	C 	0.2896	0.899	0.5045	0.061
Mof_C 	C 	0.3459	0.8774	0.4818	-0.131
Mof_C 	C 	0.3403	0.8346	0.4804	0.044
Mof_C 	C 	0.2961	0.9453	0.5042	-0.007
Mof_C 	C 	0.3316	0.9669	0.5314	-0.082
Mof_C 	C 	0.3317	0.0091	0.5312	0.34
Mof_C 	C 	0.3015	0.0322	0.5043	-0.673
Mof_C 	C 	0.2689	0.0097	0.4754	0.323
Mof_C 	C 	0.2608	0.9674	0.4763	-0.061
Mof_C 	C 	0.2077	0.944	0.4484	-0.409
Mof_C 	C 	0.2413	0.0316	0.4435	-0.807
Mof_C 	C 	0.3643	0.0339	0.5629	-0.792
Mof_C 	C 	0.3804	0.9405	0.5593	-0.365
Mof_C 	C 	0.6475	0.229	0.2977	0.078
Mof_C 	C 	0.6521	0.2576	0.27215	-0.184
Mof_C 	C 	0.6794	0.2981	0.2786	0.113
Mof_C 	C 	0.7021	0.31	0.3106	-0.183
Mof_C 	C 	0.6975	0.2814	0.33615	0.072
Mof_C 	C 	0.6875	0.3297	0.25	-0.118
Mof_C 	C 	0.6055	0.3431	0.2356	0.061
Mof_C 	C 	0.6127	0.3699	0.2073	0.298
Mof_C 	C 	0.7067	0.3833	0.197	-0.588
Mof_C 	C 	0.7892	0.37	0.2135	0.269
Mof_C 	C 	0.7853	0.343	0.241	0.093
Mof_C 	C 	0.8713	0.3274	0.2587	-0.711
Mof_C 	C 	0.8935	0.3872	0.2071	-0.784
Mof_C 	C 	0.5181	0.3823	0.1905	-0.882
Mof_C 	C 	0.506	0.3321	0.2478	-0.595
Mof_C 	C 	0.1598	0.3026	0.0623	0.039
Mof_C 	C 	0.0962	0.3233	0.0832	-0.124
Mof_C 	C 	0.0064	0.3373	0.0716	0.064
Mof_C 	C 	0.9802	0.3304	0.0389	-0.136
Mof_C 	C 	0.0438	0.3096	0.0179	0.055
Mof_C 	C 	0.9331	0.3567	0.0943	-0.002
Mof_C 	C 	0.9428	0.3974	0.106	-0.073
Mof_C 	C 	0.8725	0.4144	0.1257	0.366
Mof_C 	C 	0.7931	0.3901	0.1372	-0.671
Mof_C 	C 	0.7836	0.3498	0.1262	0.388
Mof_C 	C 	0.8523	0.3328	0.1051	-0.072
Mof_C 	C 	0.8378	0.2878	0.0942	-0.408
Mof_C 	C 	0.6929	0.3232	0.1349	-0.946
Mof_C 	C 	0.8873	0.4581	0.1366	-0.872
Mof_C 	C 	0.0288	0.4216	0.0927	-0.393
Mof_C 	C 	0.3643	0.6066	0.157	0.061
Mof_C 	C 	0.4143	0.5696	0.1607	-0.153
Mof_C 	C 	0.4916	0.56	0.1398	0.072
Mof_C 	C 	0.5189	0.5875	0.1152	-0.143
Mof_C 	C 	0.4689	0.6245	0.1115	0.05
Mof_C 	C 	0.5465	0.5202	0.1444	-0.016
Mof_C 	C 	0.6125	0.5172	0.1731	-0.068
Mof_C 	C 	0.6626	0.4817	0.1783	0.332
Mof_C 	C 	0.6547	0.4483	0.1569	-0.642
Mof_C 	C 	0.5928	0.4532	0.1281	0.317
Mof_C 	C 	0.5388	0.4882	0.1233	-0.052
Mof_C 	C 	0.4684	0.4916	0.0942	-0.409
Mof_C 	C 	0.579	0.415	0.1051	-0.855
Mof_C 	C 	0.7315	0.4789	0.2088	-0.799
Mof_C 	C 	0.6204	0.5553	0.196	-0.378
Mof_C 	C 	0.2042	0.6975	0.4333	0.054
Mof_C 	C 	0.1438	0.6788	0.4101	-0.153
Mof_C 	C 	0.0464	0.6707	0.4177	0.086
Mof_C 	C 	0.0094	0.6814	0.4485	-0.15
Mof_C 	C 	0.0698	0.7001	0.4716	0.064
Mof_C 	C 	0.9826	0.6493	0.3945	-0.033
Mof_C 	C 	0.9004	0.6692	0.3817	-0.038
Mof_C 	C 	0.8348	0.649	0.3604	0.337
Mof_C 	C 	0.8564	0.6092	0.3493	-0.618
Mof_C 	C 	0.9458	0.59	0.3607	0.363
Mof_C 	C 	0.008	0.6095	0.3826	-0.051
Mof_C 	C 	0.0951	0.5881	0.3961	-0.428
Mof_C 	C 	0.9679	0.5483	0.3492	-0.912
Mof_C 	C 	0.7387	0.6698	0.3491	-0.884
Mof_C 	C 	0.8824	0.7141	0.3939	-0.457
Mof_C 	C 	0.611	0.3593	0.3856	0.056
Mof_C 	C 	0.6547	0.3972	0.3794	-0.141
Mof_C 	C 	0.6173	0.4228	0.3549	0.074
Mof_C 	C 	0.5361	0.4105	0.3368	-0.139
Mof_C 	C 	0.4924	0.3726	0.343	0.059
Mof_C 	C 	0.6653	0.4643	0.3467	-0.013
Mof_C 	C 	0.6468	0.4971	0.3694	-0.058
Mof_C 	C 	0.6883	0.5363	0.3625	0.338
Mof_C 	C 	0.7425	0.5417	0.3342	-0.647
Mof_C 	C 	0.7596	0.5076	0.3134	0.333
Mof_C 	C 	0.7229	0.47	0.3198	-0.057
Mof_C 	C 	0.8244	0.5152	0.2827	-0.802
Mof_C 	C 	0.7472	0.4325	0.2976	-0.417
Mof_C 	C 	0.5795	0.489	0.3993	-0.391
Mof_C 	C 	0.6663	0.574	0.3844	-0.803
Mof_C 	C 	0.6171	0.7551	0.1944	0.073
Mof_C 	C 	0.6479	0.7271	0.21816	-0.158
Mof_C 	C 	0.6598	0.6857	0.21	0.094
Mof_C 	C 	0.641	0.6723	0.1781	-0.163
Mof_C 	C 	0.6102	0.7003	0.1543	0.069
Mof_C 	C 	0.6893	0.6571	0.2372	-0.048
Mof_C 	C 	0.7908	0.6517	0.2442	0.005
Mof_C 	C 	0.8195	0.6277	0.2711	0.258
Mof_C 	C 	0.7473	0.6077	0.2914	-0.621
Mof_C 	C 	0.6529	0.6121	0.2833	0.335
Mof_C 	C 	0.6209	0.6355	0.2565	-0.044
Mof_C 	C 	0.5132	0.6407	0.2457	-0.418
Mof_C 	C 	0.5738	0.5897	0.3045	-0.805
Mof_C 	C 	0.9317	0.6234	0.2781	-0.702
Mof_C 	C 	0.8675	0.6722	0.2236	-0.485
Mof_C 	C 	0.065	0.2407	0.528	0.789
Mof_C 	C 	0.6562	0.7954	0.9281	0.089
Mof_C 	C 	0.5778	0.8081	0.9474	-0.185
Mof_C 	C 	0.517	0.8397	0.9365	0.114
Mof_C 	C 	0.5346	0.8585	0.9063	-0.174
Mof_C 	C 	0.613	0.8457	0.887	0.075
Mof_C 	C 	0.4348	0.8544	0.9578	-0.021
Mof_C 	C 	0.454	0.8816	0.9839	0.014
Mof_C 	C 	0.3754	0.9015	0.9988	0.285
Mof_C 	C 	0.2755	0.8924	0.9882	-0.641
Mof_C 	C 	0.2604	0.864	0.9639	0.385
Mof_C 	C 	0.3379	0.8446	0.9486	-0.04
Mof_C 	C 	0.3241	0.8097	0.9222	-0.435
Mof_C 	C 	0.1553	0.8552	0.9519	-0.914
Mof_C 	C 	0.393	0.9319	0.0281	-0.739
Mof_C 	C 	0.5598	0.8912	0.9943	-0.475
Mof_C 	C 	0.744	0.8362	0.1074	0.075
Mof_C 	C 	0.8239	0.8522	0.0904	-0.16
Mof_C 	C 	0.8409	0.8407	0.0579	0.1
Mof_C 	C 	0.7779	0.8132	0.0424	-0.161
Mof_C 	C 	0.698	0.7972	0.0593	0.083
Mof_C 	C 	0.9289	0.859	0.042	0.004
Mof_C 	C 	0.0183	0.845	0.0504	-0.047
Mof_C 	C 	0.103	0.864	0.0391	0.396
Mof_C 	C 	0.0972	0.8963	0.0155	-0.723
Mof_C 	C 	0.0033	0.9088	0.0047	0.387
Mof_C 	C 	0.9173	0.8898	0.0188	-0.059
Mof_C 	C 	0.8112	0.9022	0.0093	-0.395
Mof_C 	C 	0.9945	0.9406	0.9787	-0.899
Mof_C 	C 	0.2064	0.8498	0.0496	-0.939
Mof_C 	C 	0.0215	0.8066	0.0748	-0.473
Mof_C 	C 	0.2777	0.1649	0.0245	0.042
Mof_C 	C 	0.2721	0.1221	0.0259	-0.13
Mof_C 	C 	0.2104	0.101	0.0045	0.062
Mof_C 	C 	0.1541	0.1226	0.9818	-0.132
Mof_C 	C 	0.1597	0.1654	0.9804	0.044
Mof_C 	C 	0.2039	0.0547	0.0042	-0.007
Mof_C 	C 	0.1684	0.0331	0.0314	-0.081
Mof_C 	C 	0.1683	0.9909	0.0312	0.338
Mof_C 	C 	0.1985	0.9678	0.0043	-0.669
Mof_C 	C 	0.2311	0.9903	0.9754	0.321
Mof_C 	C 	0.2392	0.0326	0.9763	-0.06
Mof_C 	C 	0.2923	0.056	0.9484	-0.41
Mof_C 	C 	0.2587	0.9684	0.9435	-0.805
Mof_C 	C 	0.1357	0.9661	0.0629	-0.79
Mof_C 	C 	0.1196	0.0595	0.0593	-0.366
Mof_C 	C 	0.8525	0.771	0.7977	0.078
Mof_C 	C 	0.8479	0.7424	0.77215	-0.184
Mof_C 	C 	0.8206	0.7019	0.7786	0.113
Mof_C 	C 	0.7979	0.69	0.8106	-0.183
Mof_C 	C 	0.8025	0.7186	0.83615	0.073
Mof_C 	C 	0.8125	0.6703	0.75	-0.117
Mof_C 	C 	0.8945	0.6569	0.7356	0.059
Mof_C 	C 	0.8873	0.6301	0.7073	0.3
Mof_C 	C 	0.7933	0.6167	0.697	-0.589
Mof_C 	C 	0.7108	0.63	0.7135	0.27
Mof_C 	C 	0.7147	0.657	0.741	0.092
Mof_C 	C 	0.6287	0.6726	0.7587	-0.711
Mof_C 	C 	0.6065	0.6128	0.7071	-0.785
Mof_C 	C 	0.9819	0.6177	0.6905	-0.887
Mof_C 	C 	0.994	0.6679	0.7478	-0.589
Mof_C 	C 	0.3402	0.6974	0.5623	0.04
Mof_C 	C 	0.4038	0.6767	0.5832	-0.127
Mof_C 	C 	0.4936	0.6627	0.5716	0.068
Mof_C 	C 	0.5198	0.6696	0.5389	-0.141
Mof_C 	C 	0.4562	0.6904	0.5179	0.058
Mof_C 	C 	0.5669	0.6433	0.5943	-0.005
Mof_C 	C 	0.5572	0.6026	0.606	-0.073
Mof_C 	C 	0.6275	0.5856	0.6257	0.366
Mof_C 	C 	0.7069	0.6099	0.6372	-0.671
Mof_C 	C 	0.7164	0.6502	0.6262	0.388
Mof_C 	C 	0.6477	0.6672	0.6051	-0.071
Mof_C 	C 	0.6622	0.7122	0.5942	-0.409
Mof_C 	C 	0.8071	0.6768	0.6349	-0.945
Mof_C 	C 	0.6127	0.5419	0.6366	-0.872
Mof_C 	C 	0.4712	0.5784	0.5927	-0.393
Mof_C 	C 	0.1357	0.3934	0.657	0.063
Mof_C 	C 	0.0857	0.4304	0.6607	-0.156
Mof_C 	C 	0.0084	0.44	0.6398	0.079
Mof_C 	C 	0.9811	0.4125	0.6152	-0.152
Mof_C 	C 	0.0311	0.3755	0.6115	0.056
Mof_C 	C 	0.9535	0.4798	0.6444	-0.017
Mof_C 	C 	0.8875	0.4828	0.6731	-0.068
Mof_C 	C 	0.8374	0.5183	0.6783	0.333
Mof_C 	C 	0.8453	0.5517	0.6569	-0.643
Mof_C 	C 	0.9072	0.5468	0.6281	0.319
Mof_C 	C 	0.9612	0.5118	0.6233	-0.056
Mof_C 	C 	0.0316	0.5084	0.5942	-0.396
Mof_C 	C 	0.921	0.585	0.6051	-0.856
Mof_C 	C 	0.7685	0.5211	0.7088	-0.8
Mof_C 	C 	0.8796	0.4447	0.696	-0.377
Mof_C 	C 	0.2958	0.3025	0.9333	0.054
Mof_C 	C 	0.3562	0.3212	0.9101	-0.152
Mof_C 	C 	0.4536	0.3293	0.9177	0.084
Mof_C 	C 	0.4906	0.3186	0.9485	-0.153
Mof_C 	C 	0.4302	0.2999	0.9716	0.065
Mof_C 	C 	0.5174	0.3507	0.8945	-0.027
Mof_C 	C 	0.5996	0.3308	0.8817	-0.041
Mof_C 	C 	0.6652	0.351	0.8604	0.339
Mof_C 	C 	0.6436	0.3908	0.8493	-0.62
Mof_C 	C 	0.5542	0.41	0.8607	0.366
Mof_C 	C 	0.492	0.3905	0.8826	-0.058
Mof_C 	C 	0.4049	0.4119	0.8961	-0.42
Mof_C 	C 	0.5321	0.4517	0.8492	-0.911
Mof_C 	C 	0.7613	0.3302	0.8491	-0.886
Mof_C 	C 	0.6176	0.2859	0.8939	-0.455
Mof_C 	C 	0.889	0.6407	0.8856	0.055
Mof_C 	C 	0.8453	0.6028	0.8794	-0.139
Mof_C 	C 	0.8827	0.5772	0.8549	0.072
Mof_C 	C 	0.9639	0.5895	0.8368	-0.135
Mof_C 	C 	0.0076	0.6274	0.843	0.053
Mof_C 	C 	0.8347	0.5357	0.8467	-0.012
Mof_C 	C 	0.8532	0.5029	0.8694	-0.058
Mof_C 	C 	0.8117	0.4637	0.8625	0.338
Mof_C 	C 	0.7575	0.4583	0.8342	-0.647
Mof_C 	C 	0.7404	0.4924	0.8134	0.333
Mof_C 	C 	0.7771	0.53	0.8198	-0.057
Mof_C 	C 	0.6756	0.4848	0.7827	-0.803
Mof_C 	C 	0.7528	0.5675	0.7976	-0.417
Mof_C 	C 	0.9205	0.511	0.8993	-0.391
Mof_C 	C 	0.8337	0.426	0.8844	-0.803
Mof_C 	C 	0.8829	0.2449	0.6944	0.073
Mof_C 	C 	0.8521	0.2729	0.71816	-0.159
Mof_C 	C 	0.8402	0.3143	0.71	0.094
Mof_C 	C 	0.859	0.3277	0.6781	-0.163
Mof_C 	C 	0.8898	0.2997	0.6543	0.068
Mof_C 	C 	0.8107	0.3429	0.7372	-0.049
Mof_C 	C 	0.7092	0.3483	0.7442	0.005
Mof_C 	C 	0.6805	0.3723	0.7711	0.258
Mof_C 	C 	0.7527	0.3923	0.7914	-0.62
Mof_C 	C 	0.8471	0.3879	0.7833	0.334
Mof_C 	C 	0.8791	0.3645	0.7565	-0.043
Mof_C 	C 	0.9868	0.3593	0.7457	-0.423
Mof_C 	C 	0.9262	0.4103	0.8045	-0.804
Mof_C 	C 	0.5683	0.3766	0.7781	-0.702
Mof_C 	C 	0.6325	0.3278	0.7236	-0.485
Mof_C 	C 	0.435	0.7593	0.028	0.79
Mof_S 	S 	0.9286	0.76669	0.93374	0.267
Mof_S 	S 	0.5714	0.23331	0.43374	0.263
Mof_S 	S 	0.0714	0.26669	0.56626	0.267
Mof_S 	S 	0.4286	0.73331	0.06626	0.263
Mof_N 	N 	0.1738	0.6858	0.1021	-0.194
Mof_N 	N 	0.1811	0.6913	0.9082	-0.182
Mof_N 	N 	0.7215	0.3135	0.9982	-0.188
Mof_N 	N 	0.3298	0.7409	0.1703	-0.212
Mof_N 	N 	0.8664	0.7957	0.4704	-0.182
Mof_N 	N 	0.6084	0.1341	0.3676	-0.192
Mof_N 	N 	0.8329	0.2082	0.036	-0.188
Mof_N 	N 	0.4701	0.847	0.1326	-0.186
Mof_N 	N 	0.4017	0.2417	0.3376	-0.2
Mof_N 	N 	0.3262	0.3142	0.6021	-0.194
Mof_N 	N 	0.3189	0.3087	0.4082	-0.183
Mof_N 	N 	0.7785	0.6865	0.4982	-0.188
Mof_N 	N 	0.1702	0.2591	0.6703	-0.212
Mof_N 	N 	0.6336	0.2043	0.9704	-0.183
Mof_N 	N 	0.8916	0.8659	0.8676	-0.193
Mof_N 	N 	0.6671	0.7918	0.536	-0.188
Mof_N 	N 	0.0299	0.153	0.6326	-0.184
Mof_N 	N 	0.0983	0.7583	0.8376	-0.2
Mof_N 	N 	0.8262	0.1858	0.3979	-0.194
Mof_N 	N 	0.8189	0.1913	0.5918	-0.182
Mof_N 	N 	0.2785	0.8135	0.5018	-0.188
Mof_N 	N 	0.6702	0.2409	0.3297	-0.212
Mof_N 	N 	0.1336	0.2957	0.0296	-0.182
Mof_N 	N 	0.3916	0.6341	0.1324	-0.192
Mof_N 	N 	0.1671	0.7082	0.464	-0.188
Mof_N 	N 	0.5299	0.347	0.3674	-0.186
Mof_N 	N 	0.5983	0.7417	0.1624	-0.2
Mof_N 	N 	0.6738	0.8142	0.8979	-0.194
Mof_N 	N 	0.6811	0.8087	0.0918	-0.183
Mof_N 	N 	0.2215	0.1865	0.0018	-0.188
Mof_N 	N 	0.8298	0.7591	0.8297	-0.212
Mof_N 	N 	0.3664	0.7043	0.5296	-0.183
Mof_N 	N 	0.1084	0.3659	0.6324	-0.193
Mof_N 	N 	0.3329	0.2918	0.964	-0.188
Mof_N 	N 	0.9701	0.653	0.8674	-0.184
Mof_N 	N 	0.9017	0.2583	0.6624	-0.2
Mof_O 	O 	0.8594	0.7419	0.9147	-0.262
Mof_O 	O 	0.8894	0.8081	0.944	-0.209
Mof_O 	O 	0.0269	0.7684	0.922	-0.276
Mof_O 	O 	0.6406	0.2581	0.4147	-0.261
Mof_O 	O 	0.6106	0.1919	0.444	-0.209
Mof_O 	O 	0.4731	0.2316	0.422	-0.274
Mof_O 	O 	0.1406	0.2419	0.5853	-0.262
Mof_O 	O 	0.1106	0.3081	0.556	-0.209
Mof_O 	O 	0.9731	0.2684	0.578	-0.276
Mof_O 	O 	0.3594	0.7581	0.0853	-0.261
Mof_O 	O 	0.3894	0.6919	0.056	-0.209
Mof_O 	O 	0.5269	0.7316	0.078	-0.274
Mof_F 	F 	0.9634	0.7012	0.9666	-0.507
Mof_F 	F 	0.8431	0.7394	0.9856	-0.487
Mof_F 	F 	0.9921	0.7574	0.9931	-0.521
Mof_F 	F 	0.5366	0.2988	0.4666	-0.508
Mof_F 	F 	0.6569	0.2606	0.4856	-0.487
Mof_F 	F 	0.5079	0.2426	0.4931	-0.523
Mof_F 	F 	0.0366	0.2012	0.5334	-0.507
Mof_F 	F 	0.1569	0.2394	0.5144	-0.487
Mof_F 	F 	0.0079	0.2574	0.5069	-0.521
Mof_F 	F 	0.4634	0.7988	0.0334	-0.508
Mof_F 	F 	0.3431	0.7606	0.0144	-0.487
Mof_F 	F 	0.4921	0.7426	0.0069	-0.523
Mof_C 	C 	0.9443	0.2211	0.8992	0.677
Mof_S 	S 	0.9636	0.252	0.93286	0.325
Mof_O 	O 	0.936	0.2927	0.9191	-0.211
Mof_O 	O 	0.888	0.243	0.9558	-0.251
Mof_O 	O 	0.0639	0.2484	0.9437	-0.243
Mof_F 	F 	0.9947	0.23	0.8709	-0.483
Mof_F 	F 	0.9706	0.1821	0.9088	-0.49
Mof_F 	F 	0.8464	0.218	0.8895	-0.467
Mof_C 	C 	0.3683	0.6074	0.794	0.751
Mof_S 	S 	0.2423	0.6113	0.7854	0.211
Mof_O 	O 	0.227	0.6048	0.7485	-0.175
Mof_O 	O 	0.185	0.5775	0.8029	-0.178
Mof_O 	O 	0.203	0.652	0.7961	-0.19
Mof_F 	F 	0.4288	0.6304	0.7754	-0.486
Mof_F 	F 	0.4137	0.5713	0.7908	-0.479
Mof_F 	F 	0.4056	0.6183	0.8237	-0.465
Mof_C 	C 	0.5557	0.7789	0.3992	0.677
Mof_S 	S 	0.5364	0.748	0.43286	0.323
Mof_O 	O 	0.564	0.7073	0.4191	-0.211
Mof_O 	O 	0.612	0.757	0.4558	-0.251
Mof_O 	O 	0.4361	0.7516	0.4437	-0.242
Mof_F 	F 	0.5053	0.77	0.3709	-0.483
Mof_F 	F 	0.5294	0.8179	0.4088	-0.49
Mof_F 	F 	0.6536	0.782	0.3895	-0.467
Mof_C 	C 	0.1317	0.3926	0.294	0.751
Mof_S 	S 	0.2577	0.3887	0.2854	0.211
Mof_O 	O 	0.273	0.3952	0.2485	-0.175
Mof_O 	O 	0.315	0.4225	0.3029	-0.178
Mof_O 	O 	0.297	0.348	0.2961	-0.19
Mof_F 	F 	0.0712	0.3696	0.2754	-0.486
Mof_F 	F 	0.0863	0.4287	0.2908	-0.479
Mof_F 	F 	0.0944	0.3817	0.3237	-0.465
Mof_C 	C 	0.0557	0.7211	0.6008	0.677
Mof_S 	S 	0.0364	0.752	0.56714	0.325
Mof_O 	O 	0.064	0.7927	0.5809	-0.211
Mof_O 	O 	0.112	0.743	0.5442	-0.251
Mof_O 	O 	0.9361	0.7484	0.5563	-0.243
Mof_F 	F 	0.0053	0.73	0.6291	-0.483
Mof_F 	F 	0.0294	0.6821	0.5912	-0.49
Mof_F 	F 	0.1536	0.718	0.6105	-0.467
Mof_C 	C 	0.6317	0.1074	0.706	0.751
Mof_S 	S 	0.7577	0.1113	0.7146	0.211
Mof_O 	O 	0.773	0.1048	0.7515	-0.175
Mof_O 	O 	0.815	0.0775	0.6971	-0.178
Mof_O 	O 	0.797	0.152	0.7039	-0.19
Mof_F 	F 	0.5712	0.1304	0.7246	-0.486
Mof_F 	F 	0.5863	0.0713	0.7092	-0.479
Mof_F 	F 	0.5944	0.1183	0.6763	-0.465
Mof_C 	C 	0.4443	0.2789	0.1008	0.677
Mof_S 	S 	0.4636	0.248	0.06714	0.323
Mof_O 	O 	0.436	0.2073	0.0809	-0.211
Mof_O 	O 	0.388	0.257	0.0442	-0.251
Mof_O 	O 	0.5639	0.2516	0.0563	-0.242
Mof_F 	F 	0.4947	0.27	0.1291	-0.483
Mof_F 	F 	0.4706	0.3179	0.0912	-0.49
Mof_F 	F 	0.3464	0.282	0.1105	-0.467
Mof_C 	C 	0.8683	0.8926	0.206	0.751
Mof_S 	S 	0.7423	0.8887	0.2146	0.211
Mof_O 	O 	0.727	0.8952	0.2515	-0.175
Mof_O 	O 	0.685	0.9225	0.1971	-0.178
Mof_O 	O 	0.703	0.848	0.2039	-0.19
Mof_F 	F 	0.9288	0.8696	0.2246	-0.486
Mof_F 	F 	0.9137	0.9287	0.2092	-0.479
Mof_F 	F 	0.9056	0.8817	0.1763	-0.465
_end
