# CIF file generated by openbabel 3.1.0, see https://openbabel.org
data_I
_chemical_name_common 'image0'
_cell_length_a 10
_cell_length_b 10
_cell_length_c 10
_cell_angle_alpha 90
_cell_angle_beta 90
_cell_angle_gamma 90
_space_group_name_H-M_alt 'P 1'
_space_group_name_Hall 'P 1'
loop_
    _symmetry_equiv_pos_as_xyz
    x,y,z
loop_
    _atom_site_label
    _atom_site_type_symbol
    _atom_site_fract_x
    _atom_site_fract_y
    _atom_site_fract_z
    _atom_site_occupancy
    O1       O        0.05480    0.64725    0.58930    1.000
    O2       O        0.10084    0.58208    0.66850    1.000
    C1       C        0.09190    0.63140    0.64200    1.000
    C2       C        0.13166    0.67358    0.67640    1.000
    C3       C        0.17060    0.66031    0.74100    1.000
    H1       H        0.17120    0.62460    0.76640    1.000
    C4       C        0.20860    0.69934    0.76840    1.000
    H2       H        0.23530    0.69010    0.81230    1.000
    C5       C        0.16870    0.76483    0.66650    1.000
    C6       C        0.16960    0.81790    0.61410    1.000
    H3       H        0.19800    0.84200    0.63850    1.000
    H4       H        0.13380    0.83590    0.61900    1.000
    H5       H        0.17750    0.81010    0.55080    1.000
    C7       C        0.20763    0.75157    0.73120    1.000
    C8       C        0.13068    0.72581    0.63910    1.000
    H6       H        0.10410    0.73480    0.59500    1.000
    C9       C        0.24740    0.68170    0.84200    1.000
    H7       H        0.24220    0.64440    0.86090    1.000
    H8       H        0.28340    0.68580    0.81680    1.000
    H9       H        0.24350    0.70570    0.89270    1.000
    H10      H        0.16580    0.79950    0.64330    1.000
    O3       O        0.94520    0.35275    0.58930    1.000
    O4       O        0.89916    0.41792    0.66850    1.000
    C10      C        0.90810    0.36860    0.64200    1.000
    C11      C        0.86834    0.32642    0.67640    1.000
    C12      C        0.82940    0.33969    0.74100    1.000
    H11      H        0.82880    0.37540    0.76640    1.000
    C13      C        0.79140    0.30066    0.76840    1.000
    H12      H        0.76470    0.30990    0.81230    1.000
    C14      C        0.83130    0.23517    0.66650    1.000
    C15      C        0.83040    0.18210    0.61410    1.000
    H13      H        0.80200    0.15800    0.63850    1.000
    H14      H        0.86620    0.16410    0.61900    1.000
    H15      H        0.82250    0.18990    0.55080    1.000
    C16      C        0.79237    0.24843    0.73120    1.000
    C17      C        0.86932    0.27419    0.63910    1.000
    H16      H        0.89590    0.26520    0.59500    1.000
    C18      C        0.75260    0.31830    0.84200    1.000
    H17      H        0.75780    0.35560    0.86090    1.000
    H18      H        0.71660    0.31420    0.81680    1.000
    H19      H        0.75650    0.29430    0.89270    1.000
    H20      H        0.83420    0.20050    0.64330    1.000
    O5       O        0.35275    0.05480    0.08930    1.000
    O6       O        0.41792    0.10084    0.16850    1.000
    C19      C        0.36860    0.09190    0.14200    1.000
    C20      C        0.32642    0.13166    0.17640    1.000
    C21      C        0.33969    0.17060    0.24100    1.000
    H21      H        0.37540    0.17120    0.26640    1.000
    C22      C        0.30066    0.20860    0.26840    1.000
    H22      H        0.30990    0.23530    0.31230    1.000
    C23      C        0.23517    0.16870    0.16650    1.000
    C24      C        0.18210    0.16960    0.11410    1.000
    H23      H        0.15800    0.19800    0.13850    1.000
    H24      H        0.16410    0.13380    0.11900    1.000
    H25      H        0.18990    0.17750    0.05080    1.000
    C25      C        0.24843    0.20763    0.23120    1.000
    C26      C        0.27419    0.13068    0.13910    1.000
    H26      H        0.26520    0.10410    0.09500    1.000
    C27      C        0.31830    0.24740    0.34200    1.000
    H27      H        0.35560    0.24220    0.36090    1.000
    H28      H        0.31420    0.28340    0.31680    1.000
    H29      H        0.29430    0.24350    0.39270    1.000
    H30      H        0.20050    0.16580    0.14330    1.000
    O7       O        0.64725    0.94520    0.08930    1.000
    O8       O        0.58208    0.89916    0.16850    1.000
    C28      C        0.63140    0.90810    0.14200    1.000
    C29      C        0.67358    0.86834    0.17640    1.000
    C30      C        0.66031    0.82940    0.24100    1.000
    H31      H        0.62460    0.82880    0.26640    1.000
    C31      C        0.69934    0.79140    0.26840    1.000
    H32      H        0.69010    0.76470    0.31230    1.000
    C32      C        0.76483    0.83130    0.16650    1.000
    C33      C        0.81790    0.83040    0.11410    1.000
    H33      H        0.84200    0.80200    0.13850    1.000
    H34      H        0.83590    0.86620    0.11900    1.000
    H35      H        0.81010    0.82250    0.05080    1.000
    C34      C        0.75157    0.79237    0.23120    1.000
    C35      C        0.72581    0.86932    0.13910    1.000
    H36      H        0.73480    0.89590    0.09500    1.000
    C36      C        0.68170    0.75260    0.34200    1.000
    H37      H        0.64440    0.75780    0.36090    1.000
    H38      H        0.68580    0.71660    0.31680    1.000
    H39      H        0.70570    0.75650    0.39270    1.000
    H40      H        0.79950    0.83420    0.14330    1.000
    O9       O        0.94520    0.64725    0.41070    1.000
    O10      O        0.89916    0.58208    0.33150    1.000
    C37      C        0.90810    0.63140    0.35800    1.000
    C38      C        0.86834    0.67358    0.32360    1.000
    C39      C        0.82940    0.66031    0.25900    1.000
    H41      H        0.82880    0.62460    0.23360    1.000
    C40      C        0.79140    0.69934    0.23160    1.000
    H42      H        0.76470    0.69010    0.18770    1.000
    C41      C        0.83130    0.76483    0.33350    1.000
    C42      C        0.83040    0.81790    0.38590    1.000
    H43      H        0.80200    0.84200    0.36150    1.000
    H44      H        0.86620    0.83590    0.38100    1.000
    H45      H        0.82250    0.81010    0.44920    1.000
    C43      C        0.79237    0.75157    0.26880    1.000
    C44      C        0.86932    0.72581    0.36090    1.000
    H46      H        0.89590    0.73480    0.40500    1.000
    C45      C        0.75260    0.68170    0.15800    1.000
    H47      H        0.75780    0.64440    0.13910    1.000
    H48      H        0.71660    0.68580    0.18320    1.000
    H49      H        0.75650    0.70570    0.10730    1.000
    H50      H        0.83420    0.79950    0.35670    1.000
    O11      O        0.05480    0.35275    0.41070    1.000
    O12      O        0.10084    0.41792    0.33150    1.000
    C46      C        0.09190    0.36860    0.35800    1.000
    C47      C        0.13166    0.32642    0.32360    1.000
    C48      C        0.17060    0.33969    0.25900    1.000
    H51      H        0.17120    0.37540    0.23360    1.000
    C49      C        0.20860    0.30066    0.23160    1.000
    H52      H        0.23530    0.30990    0.18770    1.000
    C50      C        0.16870    0.23517    0.33350    1.000
    C51      C        0.16960    0.18210    0.38590    1.000
    H53      H        0.19800    0.15800    0.36150    1.000
    H54      H        0.13380    0.16410    0.38100    1.000
    H55      H        0.17750    0.18990    0.44920    1.000
    C52      C        0.20763    0.24843    0.26880    1.000
    C53      C        0.13068    0.27419    0.36090    1.000
    H56      H        0.10410    0.26520    0.40500    1.000
    C54      C        0.24740    0.31830    0.15800    1.000
    H57      H        0.24220    0.35560    0.13910    1.000
    H58      H        0.28340    0.31420    0.18320    1.000
    H59      H        0.24350    0.29430    0.10730    1.000
    H60      H        0.16580    0.20050    0.35670    1.000
    O13      O        0.64725    0.05480    0.91070    1.000
    O14      O        0.58208    0.10084    0.83150    1.000
    C55      C        0.63140    0.09190    0.85800    1.000
    C56      C        0.67358    0.13166    0.82360    1.000
    C57      C        0.66031    0.17060    0.75900    1.000
    H61      H        0.62460    0.17120    0.73360    1.000
    C58      C        0.69934    0.20860    0.73160    1.000
    H62      H        0.69010    0.23530    0.68770    1.000
    C59      C        0.76483    0.16870    0.83350    1.000
    C60      C        0.81790    0.16960    0.88590    1.000
    H63      H        0.84200    0.19800    0.86150    1.000
    H64      H        0.83590    0.13380    0.88100    1.000
    H65      H        0.81010    0.17750    0.94920    1.000
    C61      C        0.75157    0.20763    0.76880    1.000
    C62      C        0.72581    0.13068    0.86090    1.000
    H66      H        0.73480    0.10410    0.90500    1.000
    C63      C        0.68170    0.24740    0.65800    1.000
    H67      H        0.64440    0.24220    0.63910    1.000
    H68      H        0.68580    0.28340    0.68320    1.000
    H69      H        0.70570    0.24350    0.60730    1.000
    H70      H        0.79950    0.16580    0.85670    1.000
    O15      O        0.35275    0.94520    0.91070    1.000
    O16      O        0.41792    0.89916    0.83150    1.000
    C64      C        0.36860    0.90810    0.85800    1.000
    C65      C        0.32642    0.86834    0.82360    1.000
    C66      C        0.33969    0.82940    0.75900    1.000
    H71      H        0.37540    0.82880    0.73360    1.000
    C67      C        0.30066    0.79140    0.73160    1.000
    H72      H        0.30990    0.76470    0.68770    1.000
    C68      C        0.23517    0.83130    0.83350    1.000
    C69      C        0.18210    0.83040    0.88590    1.000
    H73      H        0.15800    0.80200    0.86150    1.000
    H74      H        0.16410    0.86620    0.88100    1.000
    H75      H        0.18990    0.82250    0.94920    1.000
    C70      C        0.24843    0.79237    0.76880    1.000
    C71      C        0.27419    0.86932    0.86090    1.000
    H76      H        0.26520    0.89590    0.90500    1.000
    C72      C        0.31830    0.75260    0.65800    1.000
    H77      H        0.35560    0.75780    0.63910    1.000
    H78      H        0.31420    0.71660    0.68320    1.000
    H79      H        0.29430    0.75650    0.60730    1.000
    H80      H        0.20050    0.83420    0.85670    1.000
    O17      O        0.94520    0.35275    0.41070    1.000
    O18      O        0.89916    0.41792    0.33150    1.000
    C73      C        0.90810    0.36860    0.35800    1.000
    C74      C        0.86834    0.32642    0.32360    1.000
    C75      C        0.82940    0.33969    0.25900    1.000
    H81      H        0.82880    0.37540    0.23360    1.000
    C76      C        0.79140    0.30066    0.23160    1.000
    H82      H        0.76470    0.30990    0.18770    1.000
    C77      C        0.83130    0.23517    0.33350    1.000
    C78      C        0.83040    0.18210    0.38590    1.000
    H83      H        0.80200    0.15800    0.36150    1.000
    H84      H        0.86620    0.16410    0.38100    1.000
    H85      H        0.82250    0.18990    0.44920    1.000
    C79      C        0.79237    0.24843    0.26880    1.000
    C80      C        0.86932    0.27419    0.36090    1.000
    H86      H        0.89590    0.26520    0.40500    1.000
    C81      C        0.75260    0.31830    0.15800    1.000
    H87      H        0.75780    0.35560    0.13910    1.000
    H88      H        0.71660    0.31420    0.18320    1.000
    H89      H        0.75650    0.29430    0.10730    1.000
    H90      H        0.83420    0.20050    0.35670    1.000
    O19      O        0.05480    0.64725    0.41070    1.000
    O20      O        0.10084    0.58208    0.33150    1.000
    C82      C        0.09190    0.63140    0.35800    1.000
    C83      C        0.13166    0.67358    0.32360    1.000
    C84      C        0.17060    0.66031    0.25900    1.000
    H91      H        0.17120    0.62460    0.23360    1.000
    C85      C        0.20860    0.69934    0.23160    1.000
    H92      H        0.23530    0.69010    0.18770    1.000
    C86      C        0.16870    0.76483    0.33350    1.000
    C87      C        0.16960    0.81790    0.38590    1.000
    H93      H        0.19800    0.84200    0.36150    1.000
    H94      H        0.13380    0.83590    0.38100    1.000
    H95      H        0.17750    0.81010    0.44920    1.000
    C88      C        0.20763    0.75157    0.26880    1.000
    C89      C        0.13068    0.72581    0.36090    1.000
    H96      H        0.10410    0.73480    0.40500    1.000
    C90      C        0.24740    0.68170    0.15800    1.000
    H97      H        0.24220    0.64440    0.13910    1.000
    H98      H        0.28340    0.68580    0.18320    1.000
    H99      H        0.24350    0.70570    0.10730    1.000
    H100     H        0.16580    0.79950    0.35670    1.000
    O21      O        0.64725    0.94520    0.91070    1.000
    O22      O        0.58208    0.89916    0.83150    1.000
    C91      C        0.63140    0.90810    0.85800    1.000
    C92      C        0.67358    0.86834    0.82360    1.000
    C93      C        0.66031    0.82940    0.75900    1.000
    H101     H        0.62460    0.82880    0.73360    1.000
    C94      C        0.69934    0.79140    0.73160    1.000
    H102     H        0.69010    0.76470    0.68770    1.000
    C95      C        0.76483    0.83130    0.83350    1.000
    C96      C        0.81790    0.83040    0.88590    1.000
    H103     H        0.84200    0.80200    0.86150    1.000
    H104     H        0.83590    0.86620    0.88100    1.000
    H105     H        0.81010    0.82250    0.94920    1.000
    C97      C        0.75157    0.79237    0.76880    1.000
    C98      C        0.72581    0.86932    0.86090    1.000
    H106     H        0.73480    0.89590    0.90500    1.000
    C99      C        0.68170    0.75260    0.65800    1.000
    H107     H        0.64440    0.75780    0.63910    1.000
    H108     H        0.68580    0.71660    0.68320    1.000
    H109     H        0.70570    0.75650    0.60730    1.000
    H110     H        0.79950    0.83420    0.85670    1.000
    O23      O        0.35275    0.05480    0.91070    1.000
    O24      O        0.41792    0.10084    0.83150    1.000
    C100     C        0.36860    0.09190    0.85800    1.000
    C101     C        0.32642    0.13166    0.82360    1.000
    C102     C        0.33969    0.17060    0.75900    1.000
    H111     H        0.37540    0.17120    0.73360    1.000
    C103     C        0.30066    0.20860    0.73160    1.000
    H112     H        0.30990    0.23530    0.68770    1.000
    C104     C        0.23517    0.16870    0.83350    1.000
    C105     C        0.18210    0.16960    0.88590    1.000
    H113     H        0.15800    0.19800    0.86150    1.000
    H114     H        0.16410    0.13380    0.88100    1.000
    H115     H        0.18990    0.17750    0.94920    1.000
    C106     C        0.24843    0.20763    0.76880    1.000
    C107     C        0.27419    0.13068    0.86090    1.000
    H116     H        0.26520    0.10410    0.90500    1.000
    C108     C        0.31830    0.24740    0.65800    1.000
    H117     H        0.35560    0.24220    0.63910    1.000
    H118     H        0.31420    0.28340    0.68320    1.000
    H119     H        0.29430    0.24350    0.60730    1.000
    H120     H        0.20050    0.16580    0.85670    1.000
    O25      O        0.05480    0.35275    0.58930    1.000
    O26      O        0.10084    0.41792    0.66850    1.000
    C109     C        0.09190    0.36860    0.64200    1.000
    C110     C        0.13166    0.32642    0.67640    1.000
    C111     C        0.17060    0.33969    0.74100    1.000
    H121     H        0.17120    0.37540    0.76640    1.000
    C112     C        0.20860    0.30066    0.76840    1.000
    H122     H        0.23530    0.30990    0.81230    1.000
    C113     C        0.16870    0.23517    0.66650    1.000
    C114     C        0.16960    0.18210    0.61410    1.000
    H123     H        0.19800    0.15800    0.63850    1.000
    H124     H        0.13380    0.16410    0.61900    1.000
    H125     H        0.17750    0.18990    0.55080    1.000
    C115     C        0.20763    0.24843    0.73120    1.000
    C116     C        0.13068    0.27419    0.63910    1.000
    H126     H        0.10410    0.26520    0.59500    1.000
    C117     C        0.24740    0.31830    0.84200    1.000
    H127     H        0.24220    0.35560    0.86090    1.000
    H128     H        0.28340    0.31420    0.81680    1.000
    H129     H        0.24350    0.29430    0.89270    1.000
    H130     H        0.16580    0.20050    0.64330    1.000
    O27      O        0.94520    0.64725    0.58930    1.000
    O28      O        0.89916    0.58208    0.66850    1.000
    C118     C        0.90810    0.63140    0.64200    1.000
    C119     C        0.86834    0.67358    0.67640    1.000
    C120     C        0.82940    0.66031    0.74100    1.000
    H131     H        0.82880    0.62460    0.76640    1.000
    C121     C        0.79140    0.69934    0.76840    1.000
    H132     H        0.76470    0.69010    0.81230    1.000
    C122     C        0.83130    0.76483    0.66650    1.000
    C123     C        0.83040    0.81790    0.61410    1.000
    H133     H        0.80200    0.84200    0.63850    1.000
    H134     H        0.86620    0.83590    0.61900    1.000
    H135     H        0.82250    0.81010    0.55080    1.000
    C124     C        0.79237    0.75157    0.73120    1.000
    C125     C        0.86932    0.72581    0.63910    1.000
    H136     H        0.89590    0.73480    0.59500    1.000
    C126     C        0.75260    0.68170    0.84200    1.000
    H137     H        0.75780    0.64440    0.86090    1.000
    H138     H        0.71660    0.68580    0.81680    1.000
    H139     H        0.75650    0.70570    0.89270    1.000
    H140     H        0.83420    0.79950    0.64330    1.000
    O29      O        0.35275    0.94520    0.08930    1.000
    O30      O        0.41792    0.89916    0.16850    1.000
    C127     C        0.36860    0.90810    0.14200    1.000
    C128     C        0.32642    0.86834    0.17640    1.000
    C129     C        0.33969    0.82940    0.24100    1.000
    H141     H        0.37540    0.82880    0.26640    1.000
    C130     C        0.30066    0.79140    0.26840    1.000
    H142     H        0.30990    0.76470    0.31230    1.000
    C131     C        0.23517    0.83130    0.16650    1.000
    C132     C        0.18210    0.83040    0.11410    1.000
    H143     H        0.15800    0.80200    0.13850    1.000
    H144     H        0.16410    0.86620    0.11900    1.000
    H145     H        0.18990    0.82250    0.05080    1.000
    C133     C        0.24843    0.79237    0.23120    1.000
    C134     C        0.27419    0.86932    0.13910    1.000
    H146     H        0.26520    0.89590    0.09500    1.000
    C135     C        0.31830    0.75260    0.34200    1.000
    H147     H        0.35560    0.75780    0.36090    1.000
    H148     H        0.31420    0.71660    0.31680    1.000
    H149     H        0.29430    0.75650    0.39270    1.000
    H150     H        0.20050    0.83420    0.14330    1.000
    O31      O        0.64725    0.05480    0.08930    1.000
    O32      O        0.58208    0.10084    0.16850    1.000
    C136     C        0.63140    0.09190    0.14200    1.000
    C137     C        0.67358    0.13166    0.17640    1.000
    C138     C        0.66031    0.17060    0.24100    1.000
    H151     H        0.62460    0.17120    0.26640    1.000
    C139     C        0.69934    0.20860    0.26840    1.000
    H152     H        0.69010    0.23530    0.31230    1.000
    C140     C        0.76483    0.16870    0.16650    1.000
    C141     C        0.81790    0.16960    0.11410    1.000
    H153     H        0.84200    0.19800    0.13850    1.000
    H154     H        0.83590    0.13380    0.11900    1.000
    H155     H        0.81010    0.17750    0.05080    1.000
    C142     C        0.75157    0.20763    0.23120    1.000
    C143     C        0.72581    0.13068    0.13910    1.000
    H156     H        0.73480    0.10410    0.09500    1.000
    C144     C        0.68170    0.24740    0.34200    1.000
    H157     H        0.64440    0.24220    0.36090    1.000
    H158     H        0.68580    0.28340    0.31680    1.000
    H159     H        0.70570    0.24350    0.39270    1.000
    H160     H        0.79950    0.16580    0.14330    1.000
    Zr1      Zr       0.07167    0.50000    0.61938    1.000
    O33      O        0.05430    0.50000    0.76480    1.000
    O34      O        0.16149    0.50000    0.60840    1.000
    H161     H        0.17070    0.50000    0.55330    1.000
    C145     C        0.04934    0.50000    0.95300    1.000
    H162     H        0.08310    0.50000    0.92110    1.000
    Zr2      Zr       0.92833    0.50000    0.61938    1.000
    O35      O        0.94570    0.50000    0.76480    1.000
    O36      O        0.83851    0.50000    0.60840    1.000
    H163     H        0.82930    0.50000    0.55330    1.000
    C146     C        0.95066    0.50000    0.95300    1.000
    H164     H        0.91690    0.50000    0.92110    1.000
    Zr3      Zr       0.50000    0.07167    0.11938    1.000
    O37      O        0.50000    0.05430    0.26480    1.000
    O38      O        0.50000    0.16149    0.10840    1.000
    H165     H        0.50000    0.17070    0.05330    1.000
    C147     C        0.50000    0.04934    0.45300    1.000
    H166     H        0.50000    0.08310    0.42110    1.000
    Zr4      Zr       0.50000    0.92833    0.11938    1.000
    O39      O        0.50000    0.94570    0.26480    1.000
    O40      O        0.50000    0.83851    0.10840    1.000
    H167     H        0.50000    0.82930    0.05330    1.000
    C148     C        0.50000    0.95066    0.45300    1.000
    H168     H        0.50000    0.91690    0.42110    1.000
    Zr5      Zr       0.92833    0.50000    0.38062    1.000
    O41      O        0.94570    0.50000    0.23520    1.000
    O42      O        0.83851    0.50000    0.39160    1.000
    H169     H        0.82930    0.50000    0.44670    1.000
    C149     C        0.95066    0.50000    0.04700    1.000
    H170     H        0.91690    0.50000    0.07890    1.000
    Zr6      Zr       0.07167    0.50000    0.38062    1.000
    O43      O        0.05430    0.50000    0.23520    1.000
    O44      O        0.16149    0.50000    0.39160    1.000
    H171     H        0.17070    0.50000    0.44670    1.000
    C150     C        0.04934    0.50000    0.04700    1.000
    H172     H        0.08310    0.50000    0.07890    1.000
    Zr7      Zr       0.50000    0.07167    0.88062    1.000
    O45      O        0.50000    0.05430    0.73520    1.000
    O46      O        0.50000    0.16149    0.89160    1.000
    H173     H        0.50000    0.17070    0.94670    1.000
    C151     C        0.50000    0.04934    0.54700    1.000
    H174     H        0.50000    0.08310    0.57890    1.000
    Zr8      Zr       0.50000    0.92833    0.88062    1.000
    O47      O        0.50000    0.94570    0.73520    1.000
    O48      O        0.50000    0.83851    0.89160    1.000
    H175     H        0.50000    0.82930    0.94670    1.000
    C152     C        0.50000    0.95066    0.54700    1.000
    H176     H        0.50000    0.91690    0.57890    1.000
    Zr9      Zr       0.00000    0.60101    0.50000    1.000
    Zr10     Zr       0.00000    0.39899    0.50000    1.000
    Zr11     Zr       0.39899    0.00000    0.00000    1.000
    Zr12     Zr       0.60101    0.00000    0.00000    1.000
    O49      O        0.00000    0.54410    0.59870    1.000
    O50      O        0.00000    0.55580    0.63340    1.000
    H177     H        0.00000    0.57930    0.68360    1.000
    O51      O        0.00000    0.45590    0.59870    1.000
    O52      O        0.00000    0.44420    0.63340    1.000
    H178     H        0.00000    0.42070    0.68360    1.000
    O53      O        0.45590    0.00000    0.09870    1.000
    O54      O        0.44420    0.00000    0.13340    1.000
    H179     H        0.42070    0.00000    0.18360    1.000
    O55      O        0.54410    0.00000    0.09870    1.000
    O56      O        0.55580    0.00000    0.13340    1.000
    H180     H        0.57930    0.00000    0.18360    1.000
    O57      O        0.00000    0.54410    0.40130    1.000
    O58      O        0.00000    0.55580    0.36660    1.000
    H181     H        0.00000    0.57930    0.31640    1.000
    O59      O        0.00000    0.45590    0.40130    1.000
    O60      O        0.00000    0.44420    0.36660    1.000
    H182     H        0.00000    0.42070    0.31640    1.000
    O61      O        0.54410    0.00000    0.90130    1.000
    O62      O        0.55580    0.00000    0.86660    1.000
    H183     H        0.57930    0.00000    0.81640    1.000
    O63      O        0.45590    0.00000    0.90130    1.000
    O64      O        0.44420    0.00000    0.86660    1.000
    H184     H        0.42070    0.00000    0.81640    1.000
    O65      O        0.06280    0.54160    0.50000    1.000
    O66      O        0.08160    0.55650    0.50000    1.000
    H185     H        0.11290    0.57920    0.50000    1.000
    O67      O        0.93720    0.45840    0.50000    1.000
    O68      O        0.91840    0.44350    0.50000    1.000
    H186     H        0.88710    0.42080    0.50000    1.000
    O69      O        0.45840    0.06280    0.00000    1.000
    O70      O        0.44350    0.08160    0.00000    1.000
    H187     H        0.42080    0.11290    0.00000    1.000
    O71      O        0.54160    0.93720    0.00000    1.000
    O72      O        0.55650    0.91840    0.00000    1.000
    H188     H        0.57920    0.88710    0.00000    1.000
    O73      O        0.93720    0.54160    0.50000    1.000
    O74      O        0.91840    0.55650    0.50000    1.000
    H189     H        0.88710    0.57920    0.50000    1.000
    O75      O        0.06280    0.45840    0.50000    1.000
    O76      O        0.08160    0.44350    0.50000    1.000
    H190     H        0.11290    0.42080    0.50000    1.000
    O77      O        0.54160    0.06280    0.00000    1.000
    O78      O        0.55650    0.08160    0.00000    1.000
    H191     H        0.57920    0.11290    0.00000    1.000
    O79      O        0.45840    0.93720    0.00000    1.000
    O80      O        0.44350    0.91840    0.00000    1.000
    H192     H        0.42080    0.88710    0.00000    1.000
    C153     C        0.00000    0.50000    0.80510    1.000
    C154     C        0.00000    0.50000    0.90640    1.000
    C155     C        0.50000    0.00000    0.30510    1.000
    C156     C        0.50000    0.00000    0.40640    1.000
    C157     C        0.00000    0.50000    0.19490    1.000
    C158     C        0.00000    0.50000    0.09360    1.000
    C159     C        0.50000    0.00000    0.69490    1.000
    C160     C        0.50000    0.00000    0.59360    1.000
