data_functionalizedCrystal
_audit_creation_method	'EQeq! by Chris Wilmer'
_symmetry_space_group_name_H-M	'P1'
_symmetry_Int_Tables_number	1
_symmetry_cell_setting	triclinic
loop_
_symmetry_equiv_pos_as_xyz
  x,y,z
_cell_length_a	27.6571
_cell_length_b	27.6571
_cell_length_c	27.6571
_cell_angle_alpha	90
_cell_angle_beta	90
_cell_angle_gamma	90
loop_
_atom_site_label
_atom_site_type_symbol
_atom_site_fract_x
_atom_site_fract_y
_atom_site_fract_z
_atom_site_charge
Mof_O 	O 	0.0526	0.79009	0.55225	-0.423
Mof_O 	O 	0.04982	0.70795	0.54853	-0.529
Mof_C 	C 	0.0652	0.74209	0.5643	0.384
Mof_C 	C 	0.10373	0.74582	0.60859	-0.087
Mof_C 	C 	0.12444	0.70439	0.62809	0.017
Mof_H 	H 	0.1145	0.6741	0.6175	0.028
Mof_C 	C 	0.15994	0.70829	0.66345	-0.094
Mof_H 	H 	0.1738	0.6806	0.6765	0.06
Mof_C 	C 	0.17474	0.7536	0.67931	0.024
Mof_C 	C 	0.15404	0.79506	0.6598	-0.09
Mof_H 	H 	0.1639	0.8254	0.6704	0.061
Mof_C 	C 	0.11853	0.79116	0.62445	0.015
Mof_H 	H 	0.1047	0.8189	0.6114	0.039
Mof_C 	C 	0.21875	0.7469	0.712	0.076
Mof_C 	C 	0.2154	0.7141	0.7485	-0.147
Mof_H 	H 	0.1887	0.6939	0.7514	0.08
Mof_C 	C 	0.0367	0.6042	0.52017	-0.048
Mof_H 	H 	0.0621	0.6216	0.5337	0.043
Mof_C 	C 	0.0377	0.5528	0.5214	0.065
Mof_N 	N 	0.0756	0.5233	0.5416	-0.296
Mof_H 	H 	0.0737	0.4923	0.5399	0.158
Mof_H 	H 	0.1001	0.5367	0.5554	0.137
Mof_C 	C 	0.98992	0.6024	0.5407	0.002
Mof_H 	H 	0.9832	0.6199	0.5686	0.028
Mof_C 	C 	0.9889	0.5511	0.5437	0.079
Mof_N 	N 	0.977	0.5362	0.5925	-0.301
Mof_H 	H 	0.9757	0.506	0.5997	0.153
Mof_H 	H 	0.9714	0.5576	0.6144	0.142
Mof_O 	O 	0.9474	0.20991	0.55225	-0.409
Mof_O 	O 	0.95018	0.29205	0.54853	-0.514
Mof_C 	C 	0.9348	0.25791	0.5643	0.381
Mof_C 	C 	0.89627	0.25418	0.60859	-0.08
Mof_C 	C 	0.87556	0.29561	0.62809	0.014
Mof_H 	H 	0.8855	0.3259	0.6175	0.033
Mof_C 	C 	0.84006	0.29171	0.66345	-0.091
Mof_H 	H 	0.8262	0.3194	0.6765	0.059
Mof_C 	C 	0.82526	0.2464	0.67931	0.021
Mof_C 	C 	0.84596	0.20494	0.6598	-0.087
Mof_H 	H 	0.8361	0.1746	0.6704	0.057
Mof_C 	C 	0.88147	0.20884	0.62445	0.011
Mof_H 	H 	0.8953	0.1811	0.6114	0.042
Mof_C 	C 	0.78125	0.2531	0.712	0.076
Mof_C 	C 	0.7846	0.2859	0.7485	-0.149
Mof_H 	H 	0.8113	0.3061	0.7514	0.081
Mof_C 	C 	0.9633	0.3958	0.52017	-0.009
Mof_H 	H 	0.9379	0.3784	0.5337	0.033
Mof_C 	C 	0.9623	0.4472	0.5214	0.087
Mof_N 	N 	0.9244	0.4767	0.5416	-0.299
Mof_H 	H 	0.9263	0.5077	0.5399	0.157
Mof_H 	H 	0.8999	0.4633	0.5554	0.139
Mof_C 	C 	0.01008	0.3976	0.5407	-0.036
Mof_H 	H 	0.0168	0.3801	0.5686	0.03
Mof_C 	C 	0.0111	0.4489	0.5437	0.048
Mof_N 	N 	0.023	0.4638	0.5925	-0.294
Mof_H 	H 	0.0243	0.494	0.5997	0.131
Mof_H 	H 	0.0286	0.4424	0.6144	0.129
Mof_O 	O 	0.9474	0.79009	0.44775	-0.409
Mof_O 	O 	0.95018	0.70795	0.45147	-0.514
Mof_C 	C 	0.9348	0.74209	0.4357	0.381
Mof_C 	C 	0.89627	0.74582	0.39141	-0.08
Mof_C 	C 	0.87556	0.70439	0.37191	0.014
Mof_H 	H 	0.8855	0.6741	0.3825	0.032
Mof_C 	C 	0.84006	0.70829	0.33655	-0.091
Mof_H 	H 	0.8262	0.6806	0.3235	0.06
Mof_C 	C 	0.82526	0.7536	0.32069	0.022
Mof_C 	C 	0.84596	0.79506	0.3402	-0.087
Mof_H 	H 	0.8361	0.8254	0.3296	0.06
Mof_C 	C 	0.88147	0.79116	0.37555	0.012
Mof_H 	H 	0.8953	0.8189	0.3886	0.043
Mof_C 	C 	0.78125	0.7469	0.288	0.076
Mof_C 	C 	0.7846	0.7141	0.2515	-0.148
Mof_H 	H 	0.8113	0.6939	0.2486	0.081
Mof_C 	C 	0.9633	0.6042	0.47983	-0.009
Mof_H 	H 	0.9379	0.6216	0.4663	0.033
Mof_C 	C 	0.9623	0.5528	0.4786	0.087
Mof_N 	N 	0.9244	0.5233	0.4584	-0.299
Mof_H 	H 	0.9263	0.4923	0.4601	0.157
Mof_H 	H 	0.8999	0.5367	0.4446	0.139
Mof_C 	C 	0.01008	0.6024	0.4593	-0.036
Mof_H 	H 	0.0168	0.6199	0.4314	0.03
Mof_C 	C 	0.0111	0.5511	0.4563	0.048
Mof_N 	N 	0.023	0.5362	0.4075	-0.294
Mof_H 	H 	0.0243	0.506	0.4003	0.131
Mof_H 	H 	0.0286	0.5576	0.3856	0.129
Mof_O 	O 	0.0526	0.20991	0.44775	-0.425
Mof_O 	O 	0.04982	0.29205	0.45147	-0.53
Mof_C 	C 	0.0652	0.25791	0.4357	0.382
Mof_C 	C 	0.10373	0.25418	0.39141	-0.088
Mof_C 	C 	0.12444	0.29561	0.37191	0.015
Mof_H 	H 	0.1145	0.3259	0.3825	0.027
Mof_C 	C 	0.15994	0.29171	0.33655	-0.095
Mof_H 	H 	0.1738	0.3194	0.3235	0.059
Mof_C 	C 	0.17474	0.2464	0.32069	0.02
Mof_C 	C 	0.15404	0.20494	0.3402	-0.091
Mof_H 	H 	0.1639	0.1746	0.3296	0.054
Mof_C 	C 	0.11853	0.20884	0.37555	0.012
Mof_H 	H 	0.1047	0.1811	0.3886	0.036
Mof_C 	C 	0.21875	0.2531	0.288	0.073
Mof_C 	C 	0.2154	0.2859	0.2515	-0.149
Mof_H 	H 	0.1887	0.3061	0.2486	0.078
Mof_C 	C 	0.0367	0.3958	0.47983	-0.05
Mof_H 	H 	0.0621	0.3784	0.4663	0.042
Mof_C 	C 	0.0377	0.4472	0.4786	0.064
Mof_N 	N 	0.0756	0.4767	0.4584	-0.297
Mof_H 	H 	0.0737	0.5077	0.4601	0.157
Mof_H 	H 	0.1001	0.4633	0.4446	0.137
Mof_C 	C 	0.98992	0.3976	0.4593	0.002
Mof_H 	H 	0.9832	0.3801	0.4314	0.027
Mof_C 	C 	0.9889	0.4489	0.4563	0.079
Mof_N 	N 	0.977	0.4638	0.4075	-0.301
Mof_H 	H 	0.9757	0.494	0.4003	0.153
Mof_H 	H 	0.9714	0.4424	0.3856	0.141
Mof_O 	O 	0.55225	0.0526	0.79009	-0.424
Mof_O 	O 	0.54853	0.04982	0.70795	-0.53
Mof_C 	C 	0.5643	0.0652	0.74209	0.383
Mof_C 	C 	0.60859	0.10373	0.74582	-0.088
Mof_C 	C 	0.62809	0.12444	0.70439	0.016
Mof_H 	H 	0.6175	0.1145	0.6741	0.027
Mof_C 	C 	0.66345	0.15994	0.70829	-0.095
Mof_H 	H 	0.6765	0.1738	0.6806	0.059
Mof_C 	C 	0.67931	0.17474	0.7536	0.023
Mof_C 	C 	0.6598	0.15404	0.79506	-0.091
Mof_H 	H 	0.6704	0.1639	0.8254	0.06
Mof_C 	C 	0.62445	0.11853	0.79116	0.014
Mof_H 	H 	0.6114	0.1047	0.8189	0.038
Mof_C 	C 	0.712	0.21875	0.7469	0.075
Mof_C 	C 	0.7485	0.2154	0.7141	-0.148
Mof_H 	H 	0.7514	0.1887	0.6939	0.079
Mof_C 	C 	0.52017	0.0367	0.6042	-0.049
Mof_H 	H 	0.5337	0.0621	0.6216	0.042
Mof_C 	C 	0.5214	0.0377	0.5528	0.064
Mof_N 	N 	0.5416	0.0756	0.5233	-0.297
Mof_H 	H 	0.5399	0.0737	0.4923	0.157
Mof_H 	H 	0.5554	0.1001	0.5367	0.137
Mof_C 	C 	0.5407	0.98992	0.6024	0.002
Mof_H 	H 	0.5686	0.9832	0.6199	0.028
Mof_C 	C 	0.5437	0.9889	0.5511	0.079
Mof_N 	N 	0.5925	0.977	0.5362	-0.301
Mof_H 	H 	0.5997	0.9757	0.506	0.153
Mof_H 	H 	0.6144	0.9714	0.5576	0.142
Mof_O 	O 	0.55225	0.9474	0.20991	-0.409
Mof_O 	O 	0.54853	0.95018	0.29205	-0.514
Mof_C 	C 	0.5643	0.9348	0.25791	0.381
Mof_C 	C 	0.60859	0.89627	0.25418	-0.08
Mof_C 	C 	0.62809	0.87556	0.29561	0.014
Mof_H 	H 	0.6175	0.8855	0.3259	0.033
Mof_C 	C 	0.66345	0.84006	0.29171	-0.091
Mof_H 	H 	0.6765	0.8262	0.3194	0.059
Mof_C 	C 	0.67931	0.82526	0.2464	0.021
Mof_C 	C 	0.6598	0.84596	0.20494	-0.087
Mof_H 	H 	0.6704	0.8361	0.1746	0.057
Mof_C 	C 	0.62445	0.88147	0.20884	0.011
Mof_H 	H 	0.6114	0.8953	0.1811	0.042
Mof_C 	C 	0.712	0.78125	0.2531	0.076
Mof_C 	C 	0.7485	0.7846	0.2859	-0.149
Mof_H 	H 	0.7514	0.8113	0.3061	0.081
Mof_C 	C 	0.52017	0.9633	0.3958	-0.009
Mof_H 	H 	0.5337	0.9379	0.3784	0.033
Mof_C 	C 	0.5214	0.9623	0.4472	0.087
Mof_N 	N 	0.5416	0.9244	0.4767	-0.299
Mof_H 	H 	0.5399	0.9263	0.5077	0.157
Mof_H 	H 	0.5554	0.8999	0.4633	0.139
Mof_C 	C 	0.5407	0.01008	0.3976	-0.036
Mof_H 	H 	0.5686	0.0168	0.3801	0.03
Mof_C 	C 	0.5437	0.0111	0.4489	0.048
Mof_N 	N 	0.5925	0.023	0.4638	-0.294
Mof_H 	H 	0.5997	0.0243	0.494	0.131
Mof_H 	H 	0.6144	0.0286	0.4424	0.129
Mof_O 	O 	0.44775	0.9474	0.79009	-0.409
Mof_O 	O 	0.45147	0.95018	0.70795	-0.514
Mof_C 	C 	0.4357	0.9348	0.74209	0.381
Mof_C 	C 	0.39141	0.89627	0.74582	-0.08
Mof_C 	C 	0.37191	0.87556	0.70439	0.014
Mof_H 	H 	0.3825	0.8855	0.6741	0.032
Mof_C 	C 	0.33655	0.84006	0.70829	-0.091
Mof_H 	H 	0.3235	0.8262	0.6806	0.06
Mof_C 	C 	0.32069	0.82526	0.7536	0.022
Mof_C 	C 	0.3402	0.84596	0.79506	-0.087
Mof_H 	H 	0.3296	0.8361	0.8254	0.06
Mof_C 	C 	0.37555	0.88147	0.79116	0.012
Mof_H 	H 	0.3886	0.8953	0.8189	0.043
Mof_C 	C 	0.288	0.78125	0.7469	0.076
Mof_C 	C 	0.2515	0.7846	0.7141	-0.148
Mof_H 	H 	0.2486	0.8113	0.6939	0.081
Mof_C 	C 	0.47983	0.9633	0.6042	-0.009
Mof_H 	H 	0.4663	0.9379	0.6216	0.033
Mof_C 	C 	0.4786	0.9623	0.5528	0.087
Mof_N 	N 	0.4584	0.9244	0.5233	-0.299
Mof_H 	H 	0.4601	0.9263	0.4923	0.157
Mof_H 	H 	0.4446	0.8999	0.5367	0.139
Mof_C 	C 	0.4593	0.01008	0.6024	-0.036
Mof_H 	H 	0.4314	0.0168	0.6199	0.03
Mof_C 	C 	0.4563	0.0111	0.5511	0.048
Mof_N 	N 	0.4075	0.023	0.5362	-0.294
Mof_H 	H 	0.4003	0.0243	0.506	0.131
Mof_H 	H 	0.3856	0.0286	0.5576	0.129
Mof_O 	O 	0.44775	0.0526	0.20991	-0.425
Mof_O 	O 	0.45147	0.04982	0.29205	-0.53
Mof_C 	C 	0.4357	0.0652	0.25791	0.382
Mof_C 	C 	0.39141	0.10373	0.25418	-0.088
Mof_C 	C 	0.37191	0.12444	0.29561	0.015
Mof_H 	H 	0.3825	0.1145	0.3259	0.027
Mof_C 	C 	0.33655	0.15994	0.29171	-0.095
Mof_H 	H 	0.3235	0.1738	0.3194	0.059
Mof_C 	C 	0.32069	0.17474	0.2464	0.02
Mof_C 	C 	0.3402	0.15404	0.20494	-0.091
Mof_H 	H 	0.3296	0.1639	0.1746	0.054
Mof_C 	C 	0.37555	0.11853	0.20884	0.012
Mof_H 	H 	0.3886	0.1047	0.1811	0.036
Mof_C 	C 	0.288	0.21875	0.2531	0.073
Mof_C 	C 	0.2515	0.2154	0.2859	-0.149
Mof_H 	H 	0.2486	0.1887	0.3061	0.078
Mof_C 	C 	0.47983	0.0367	0.3958	-0.05
Mof_H 	H 	0.4663	0.0621	0.3784	0.042
Mof_C 	C 	0.4786	0.0377	0.4472	0.064
Mof_N 	N 	0.4584	0.0756	0.4767	-0.297
Mof_H 	H 	0.4601	0.0737	0.5077	0.157
Mof_H 	H 	0.4446	0.1001	0.4633	0.137
Mof_C 	C 	0.4593	0.98992	0.3976	0.002
Mof_H 	H 	0.4314	0.9832	0.3801	0.027
Mof_C 	C 	0.4563	0.9889	0.4489	0.079
Mof_N 	N 	0.4075	0.977	0.4638	-0.301
Mof_H 	H 	0.4003	0.9757	0.494	0.153
Mof_H 	H 	0.3856	0.9714	0.4424	0.141
Mof_O 	O 	0.79009	0.55225	0.0526	-0.424
Mof_O 	O 	0.70795	0.54853	0.04982	-0.53
Mof_C 	C 	0.74209	0.5643	0.0652	0.383
Mof_C 	C 	0.74582	0.60859	0.10373	-0.088
Mof_C 	C 	0.70439	0.62809	0.12444	0.016
Mof_H 	H 	0.6741	0.6175	0.1145	0.027
Mof_C 	C 	0.70829	0.66345	0.15994	-0.095
Mof_H 	H 	0.6806	0.6765	0.1738	0.059
Mof_C 	C 	0.7536	0.67931	0.17474	0.023
Mof_C 	C 	0.79506	0.6598	0.15404	-0.091
Mof_H 	H 	0.8254	0.6704	0.1639	0.06
Mof_C 	C 	0.79116	0.62445	0.11853	0.014
Mof_H 	H 	0.8189	0.6114	0.1047	0.038
Mof_C 	C 	0.7469	0.712	0.21875	0.075
Mof_C 	C 	0.7141	0.7485	0.2154	-0.148
Mof_H 	H 	0.6939	0.7514	0.1887	0.079
Mof_C 	C 	0.6042	0.52017	0.0367	-0.049
Mof_H 	H 	0.6216	0.5337	0.0621	0.042
Mof_C 	C 	0.5528	0.5214	0.0377	0.064
Mof_N 	N 	0.5233	0.5416	0.0756	-0.297
Mof_H 	H 	0.4923	0.5399	0.0737	0.157
Mof_H 	H 	0.5367	0.5554	0.1001	0.137
Mof_C 	C 	0.6024	0.5407	0.98992	0.002
Mof_H 	H 	0.6199	0.5686	0.9832	0.028
Mof_C 	C 	0.5511	0.5437	0.9889	0.079
Mof_N 	N 	0.5362	0.5925	0.977	-0.301
Mof_H 	H 	0.506	0.5997	0.9757	0.153
Mof_H 	H 	0.5576	0.6144	0.9714	0.142
Mof_O 	O 	0.20991	0.55225	0.9474	-0.409
Mof_O 	O 	0.29205	0.54853	0.95018	-0.514
Mof_C 	C 	0.25791	0.5643	0.9348	0.381
Mof_C 	C 	0.25418	0.60859	0.89627	-0.08
Mof_C 	C 	0.29561	0.62809	0.87556	0.014
Mof_H 	H 	0.3259	0.6175	0.8855	0.033
Mof_C 	C 	0.29171	0.66345	0.84006	-0.091
Mof_H 	H 	0.3194	0.6765	0.8262	0.059
Mof_C 	C 	0.2464	0.67931	0.82526	0.021
Mof_C 	C 	0.20494	0.6598	0.84596	-0.087
Mof_H 	H 	0.1746	0.6704	0.8361	0.057
Mof_C 	C 	0.20884	0.62445	0.88147	0.011
Mof_H 	H 	0.1811	0.6114	0.8953	0.042
Mof_C 	C 	0.2531	0.712	0.78125	0.076
Mof_C 	C 	0.2859	0.7485	0.7846	-0.149
Mof_H 	H 	0.3061	0.7514	0.8113	0.081
Mof_C 	C 	0.3958	0.52017	0.9633	-0.009
Mof_H 	H 	0.3784	0.5337	0.9379	0.033
Mof_C 	C 	0.4472	0.5214	0.9623	0.087
Mof_N 	N 	0.4767	0.5416	0.9244	-0.299
Mof_H 	H 	0.5077	0.5399	0.9263	0.157
Mof_H 	H 	0.4633	0.5554	0.8999	0.139
Mof_C 	C 	0.3976	0.5407	0.01008	-0.036
Mof_H 	H 	0.3801	0.5686	0.0168	0.03
Mof_C 	C 	0.4489	0.5437	0.0111	0.048
Mof_N 	N 	0.4638	0.5925	0.023	-0.294
Mof_H 	H 	0.494	0.5997	0.0243	0.131
Mof_H 	H 	0.4424	0.6144	0.0286	0.129
Mof_O 	O 	0.79009	0.44775	0.9474	-0.409
Mof_O 	O 	0.70795	0.45147	0.95018	-0.514
Mof_C 	C 	0.74209	0.4357	0.9348	0.381
Mof_C 	C 	0.74582	0.39141	0.89627	-0.08
Mof_C 	C 	0.70439	0.37191	0.87556	0.014
Mof_H 	H 	0.6741	0.3825	0.8855	0.032
Mof_C 	C 	0.70829	0.33655	0.84006	-0.091
Mof_H 	H 	0.6806	0.3235	0.8262	0.06
Mof_C 	C 	0.7536	0.32069	0.82526	0.022
Mof_C 	C 	0.79506	0.3402	0.84596	-0.087
Mof_H 	H 	0.8254	0.3296	0.8361	0.06
Mof_C 	C 	0.79116	0.37555	0.88147	0.012
Mof_H 	H 	0.8189	0.3886	0.8953	0.043
Mof_C 	C 	0.7469	0.288	0.78125	0.076
Mof_C 	C 	0.7141	0.2515	0.7846	-0.148
Mof_H 	H 	0.6939	0.2486	0.8113	0.081
Mof_C 	C 	0.6042	0.47983	0.9633	-0.009
Mof_H 	H 	0.6216	0.4663	0.9379	0.033
Mof_C 	C 	0.5528	0.4786	0.9623	0.087
Mof_N 	N 	0.5233	0.4584	0.9244	-0.299
Mof_H 	H 	0.4923	0.4601	0.9263	0.157
Mof_H 	H 	0.5367	0.4446	0.8999	0.139
Mof_C 	C 	0.6024	0.4593	0.01008	-0.036
Mof_H 	H 	0.6199	0.4314	0.0168	0.03
Mof_C 	C 	0.5511	0.4563	0.0111	0.048
Mof_N 	N 	0.5362	0.4075	0.023	-0.294
Mof_H 	H 	0.506	0.4003	0.0243	0.131
Mof_H 	H 	0.5576	0.3856	0.0286	0.129
Mof_O 	O 	0.20991	0.44775	0.0526	-0.425
Mof_O 	O 	0.29205	0.45147	0.04982	-0.53
Mof_C 	C 	0.25791	0.4357	0.0652	0.382
Mof_C 	C 	0.25418	0.39141	0.10373	-0.088
Mof_C 	C 	0.29561	0.37191	0.12444	0.015
Mof_H 	H 	0.3259	0.3825	0.1145	0.027
Mof_C 	C 	0.29171	0.33655	0.15994	-0.095
Mof_H 	H 	0.3194	0.3235	0.1738	0.059
Mof_C 	C 	0.2464	0.32069	0.17474	0.02
Mof_C 	C 	0.20494	0.3402	0.15404	-0.091
Mof_H 	H 	0.1746	0.3296	0.1639	0.054
Mof_C 	C 	0.20884	0.37555	0.11853	0.012
Mof_H 	H 	0.1811	0.3886	0.1047	0.036
Mof_C 	C 	0.2531	0.288	0.21875	0.073
Mof_C 	C 	0.2859	0.2515	0.2154	-0.149
Mof_H 	H 	0.3061	0.2486	0.1887	0.078
Mof_C 	C 	0.3958	0.47983	0.0367	-0.05
Mof_H 	H 	0.3784	0.4663	0.0621	0.042
Mof_C 	C 	0.4472	0.4786	0.0377	0.064
Mof_N 	N 	0.4767	0.4584	0.0756	-0.297
Mof_H 	H 	0.5077	0.4601	0.0737	0.157
Mof_H 	H 	0.4633	0.4446	0.1001	0.137
Mof_C 	C 	0.3976	0.4593	0.98992	0.002
Mof_H 	H 	0.3801	0.4314	0.9832	0.027
Mof_C 	C 	0.4489	0.4563	0.9889	0.079
Mof_N 	N 	0.4638	0.4075	0.977	-0.301
Mof_H 	H 	0.494	0.4003	0.9757	0.153
Mof_H 	H 	0.4424	0.3856	0.9714	0.141
Mof_O 	O 	0.29009	0.5526	0.05225	-0.423
Mof_O 	O 	0.20795	0.54982	0.04853	-0.529
Mof_C 	C 	0.24209	0.5652	0.0643	0.382
Mof_C 	C 	0.24582	0.60373	0.10859	-0.086
Mof_C 	C 	0.20439	0.62444	0.12809	0.014
Mof_H 	H 	0.1741	0.6145	0.1175	0.027
Mof_C 	C 	0.20829	0.65994	0.16345	-0.095
Mof_H 	H 	0.1806	0.6738	0.1765	0.057
Mof_C 	C 	0.2536	0.67474	0.17931	0.021
Mof_C 	C 	0.29506	0.65404	0.1598	-0.09
Mof_H 	H 	0.3254	0.6639	0.1704	0.057
Mof_C 	C 	0.29116	0.61853	0.12445	0.012
Mof_H 	H 	0.3189	0.6047	0.1114	0.039
Mof_C 	C 	0.2469	0.71875	0.212	0.073
Mof_C 	C 	0.2141	0.7154	0.2485	-0.148
Mof_H 	H 	0.1939	0.6887	0.2514	0.078
Mof_C 	C 	0.1042	0.5367	0.02017	-0.047
Mof_H 	H 	0.1216	0.5621	0.0337	0.038
Mof_C 	C 	0.0528	0.5377	0.0214	0.076
Mof_N 	N 	0.0233	0.5756	0.0416	-0.322
Mof_H 	H 	0.9923	0.5737	0.0399	0.173
Mof_H 	H 	0.0367	0.6001	0.0554	0.135
Mof_C 	C 	0.1024	0.48992	0.0407	-0.025
Mof_H 	H 	0.1199	0.4832	0.0686	0.028
Mof_C 	C 	0.0511	0.4889	0.0437	0.058
Mof_N 	N 	0.0362	0.477	0.0925	-0.295
Mof_H 	H 	0.006	0.4757	0.0997	0.128
Mof_H 	H 	0.0576	0.4714	0.1144	0.13
Mof_O 	O 	0.70991	0.4474	0.05225	-0.423
Mof_O 	O 	0.79205	0.45018	0.04853	-0.528
Mof_C 	C 	0.75791	0.4348	0.0643	0.382
Mof_C 	C 	0.75418	0.39627	0.10859	-0.086
Mof_C 	C 	0.79561	0.37556	0.12809	0.015
Mof_H 	H 	0.8259	0.3855	0.1175	0.03
Mof_C 	C 	0.79171	0.34006	0.16345	-0.094
Mof_H 	H 	0.8194	0.3262	0.1765	0.06
Mof_C 	C 	0.7464	0.32526	0.17931	0.021
Mof_C 	C 	0.70494	0.34596	0.1598	-0.09
Mof_H 	H 	0.6746	0.3361	0.1704	0.057
Mof_C 	C 	0.70884	0.38147	0.12445	0.012
Mof_H 	H 	0.6811	0.3953	0.1114	0.039
Mof_C 	C 	0.7531	0.28125	0.212	0.073
Mof_C 	C 	0.7859	0.2846	0.2485	-0.148
Mof_H 	H 	0.8061	0.3113	0.2514	0.08
Mof_C 	C 	0.8958	0.4633	0.02017	-0.031
Mof_H 	H 	0.8784	0.4379	0.0337	0.035
Mof_C 	C 	0.9472	0.4623	0.0214	0.053
Mof_N 	N 	0.9767	0.4244	0.0416	-0.271
Mof_H 	H 	0.0077	0.4263	0.0399	0.127
Mof_H 	H 	0.9633	0.3999	0.0554	0.134
Mof_C 	C 	0.8976	0.51008	0.0407	-0.03
Mof_H 	H 	0.8801	0.5168	0.0686	0.032
Mof_C 	C 	0.9489	0.5111	0.0437	0.06
Mof_N 	N 	0.9638	0.523	0.0925	-0.299
Mof_H 	H 	0.994	0.5243	0.0997	0.156
Mof_H 	H 	0.9424	0.5286	0.1144	0.139
Mof_O 	O 	0.29009	0.4474	0.94775	-0.411
Mof_O 	O 	0.20795	0.45018	0.95147	-0.516
Mof_C 	C 	0.24209	0.4348	0.9357	0.382
Mof_C 	C 	0.24582	0.39627	0.89141	-0.083
Mof_C 	C 	0.20439	0.37556	0.87191	0.015
Mof_H 	H 	0.1741	0.3855	0.8825	0.029
Mof_C 	C 	0.20829	0.34006	0.83655	-0.093
Mof_H 	H 	0.1806	0.3262	0.8235	0.058
Mof_C 	C 	0.2536	0.32526	0.82069	0.021
Mof_C 	C 	0.29506	0.34596	0.8402	-0.089
Mof_H 	H 	0.3254	0.3361	0.8296	0.058
Mof_C 	C 	0.29116	0.38147	0.87555	0.012
Mof_H 	H 	0.3189	0.3953	0.8886	0.041
Mof_C 	C 	0.2469	0.28125	0.788	0.074
Mof_C 	C 	0.2141	0.2846	0.7515	-0.148
Mof_H 	H 	0.1939	0.3113	0.7486	0.079
Mof_C 	C 	0.1042	0.4633	0.97983	-0.028
Mof_H 	H 	0.1216	0.4379	0.9663	0.04
Mof_C 	C 	0.0528	0.4623	0.9786	0.098
Mof_N 	N 	0.0233	0.4244	0.9584	-0.325
Mof_H 	H 	0.9923	0.4263	0.9601	0.186
Mof_H 	H 	0.0367	0.3999	0.9446	0.142
Mof_C 	C 	0.1024	0.51008	0.9593	-0.004
Mof_H 	H 	0.1199	0.5168	0.9314	0.025
Mof_C 	C 	0.0511	0.5111	0.9563	0.067
Mof_N 	N 	0.0362	0.523	0.9075	-0.296
Mof_H 	H 	0.006	0.5243	0.9003	0.129
Mof_H 	H 	0.0576	0.5286	0.8856	0.131
Mof_O 	O 	0.70991	0.5526	0.94775	-0.41
Mof_O 	O 	0.79205	0.54982	0.95147	-0.514
Mof_C 	C 	0.75791	0.5652	0.9357	0.382
Mof_C 	C 	0.75418	0.60373	0.89141	-0.081
Mof_C 	C 	0.79561	0.62444	0.87191	0.015
Mof_H 	H 	0.8259	0.6145	0.8825	0.033
Mof_C 	C 	0.79171	0.65994	0.83655	-0.09
Mof_H 	H 	0.8194	0.6738	0.8235	0.062
Mof_C 	C 	0.7464	0.67474	0.82069	0.021
Mof_C 	C 	0.70494	0.65404	0.8402	-0.087
Mof_H 	H 	0.6746	0.6639	0.8296	0.058
Mof_C 	C 	0.70884	0.61853	0.87555	0.012
Mof_H 	H 	0.6811	0.6047	0.8886	0.041
Mof_C 	C 	0.7531	0.71875	0.788	0.079
Mof_C 	C 	0.7859	0.7154	0.7515	-0.151
Mof_H 	H 	0.8061	0.6887	0.7486	0.082
Mof_C 	C 	0.8958	0.5367	0.97983	-0.012
Mof_H 	H 	0.8784	0.5621	0.9663	0.037
Mof_C 	C 	0.9472	0.5377	0.9786	0.076
Mof_N 	N 	0.9767	0.5756	0.9584	-0.275
Mof_H 	H 	0.0077	0.5737	0.9601	0.142
Mof_H 	H 	0.9633	0.6001	0.9446	0.143
Mof_C 	C 	0.8976	0.48992	0.9593	-0.009
Mof_H 	H 	0.8801	0.4832	0.9314	0.029
Mof_C 	C 	0.9489	0.4889	0.9563	0.069
Mof_N 	N 	0.9638	0.477	0.9075	-0.3
Mof_H 	H 	0.994	0.4757	0.9003	0.156
Mof_H 	H 	0.9424	0.4714	0.8856	0.141
Mof_O 	O 	0.5526	0.05225	0.29009	-0.423
Mof_O 	O 	0.54982	0.04853	0.20795	-0.529
Mof_C 	C 	0.5652	0.0643	0.24209	0.382
Mof_C 	C 	0.60373	0.10859	0.24582	-0.086
Mof_C 	C 	0.62444	0.12809	0.20439	0.014
Mof_H 	H 	0.6145	0.1175	0.1741	0.027
Mof_C 	C 	0.65994	0.16345	0.20829	-0.095
Mof_H 	H 	0.6738	0.1765	0.1806	0.057
Mof_C 	C 	0.67474	0.17931	0.2536	0.021
Mof_C 	C 	0.65404	0.1598	0.29506	-0.09
Mof_H 	H 	0.6639	0.1704	0.3254	0.057
Mof_C 	C 	0.61853	0.12445	0.29116	0.012
Mof_H 	H 	0.6047	0.1114	0.3189	0.039
Mof_C 	C 	0.71875	0.212	0.2469	0.073
Mof_C 	C 	0.7154	0.2485	0.2141	-0.148
Mof_H 	H 	0.6887	0.2514	0.1939	0.078
Mof_C 	C 	0.5367	0.02017	0.1042	-0.047
Mof_H 	H 	0.5621	0.0337	0.1216	0.038
Mof_C 	C 	0.5377	0.0214	0.0528	0.076
Mof_N 	N 	0.5756	0.0416	0.0233	-0.322
Mof_H 	H 	0.5737	0.0399	0.9923	0.173
Mof_H 	H 	0.6001	0.0554	0.0367	0.135
Mof_C 	C 	0.48992	0.0407	0.1024	-0.025
Mof_H 	H 	0.4832	0.0686	0.1199	0.028
Mof_C 	C 	0.4889	0.0437	0.0511	0.058
Mof_N 	N 	0.477	0.0925	0.0362	-0.295
Mof_H 	H 	0.4757	0.0997	0.006	0.128
Mof_H 	H 	0.4714	0.1144	0.0576	0.13
Mof_O 	O 	0.4474	0.05225	0.70991	-0.423
Mof_O 	O 	0.45018	0.04853	0.79205	-0.528
Mof_C 	C 	0.4348	0.0643	0.75791	0.382
Mof_C 	C 	0.39627	0.10859	0.75418	-0.086
Mof_C 	C 	0.37556	0.12809	0.79561	0.015
Mof_H 	H 	0.3855	0.1175	0.8259	0.03
Mof_C 	C 	0.34006	0.16345	0.79171	-0.094
Mof_H 	H 	0.3262	0.1765	0.8194	0.06
Mof_C 	C 	0.32526	0.17931	0.7464	0.021
Mof_C 	C 	0.34596	0.1598	0.70494	-0.09
Mof_H 	H 	0.3361	0.1704	0.6746	0.057
Mof_C 	C 	0.38147	0.12445	0.70884	0.012
Mof_H 	H 	0.3953	0.1114	0.6811	0.039
Mof_C 	C 	0.28125	0.212	0.7531	0.073
Mof_C 	C 	0.2846	0.2485	0.7859	-0.148
Mof_H 	H 	0.3113	0.2514	0.8061	0.08
Mof_C 	C 	0.4633	0.02017	0.8958	-0.031
Mof_H 	H 	0.4379	0.0337	0.8784	0.035
Mof_C 	C 	0.4623	0.0214	0.9472	0.053
Mof_N 	N 	0.4244	0.0416	0.9767	-0.271
Mof_H 	H 	0.4263	0.0399	0.0077	0.127
Mof_H 	H 	0.3999	0.0554	0.9633	0.134
Mof_C 	C 	0.51008	0.0407	0.8976	-0.03
Mof_H 	H 	0.5168	0.0686	0.8801	0.032
Mof_C 	C 	0.5111	0.0437	0.9489	0.06
Mof_N 	N 	0.523	0.0925	0.9638	-0.299
Mof_H 	H 	0.5243	0.0997	0.994	0.156
Mof_H 	H 	0.5286	0.1144	0.9424	0.139
Mof_O 	O 	0.4474	0.94775	0.29009	-0.411
Mof_O 	O 	0.45018	0.95147	0.20795	-0.516
Mof_C 	C 	0.4348	0.9357	0.24209	0.382
Mof_C 	C 	0.39627	0.89141	0.24582	-0.083
Mof_C 	C 	0.37556	0.87191	0.20439	0.015
Mof_H 	H 	0.3855	0.8825	0.1741	0.029
Mof_C 	C 	0.34006	0.83655	0.20829	-0.093
Mof_H 	H 	0.3262	0.8235	0.1806	0.058
Mof_C 	C 	0.32526	0.82069	0.2536	0.021
Mof_C 	C 	0.34596	0.8402	0.29506	-0.089
Mof_H 	H 	0.3361	0.8296	0.3254	0.058
Mof_C 	C 	0.38147	0.87555	0.29116	0.012
Mof_H 	H 	0.3953	0.8886	0.3189	0.041
Mof_C 	C 	0.28125	0.788	0.2469	0.074
Mof_C 	C 	0.2846	0.7515	0.2141	-0.148
Mof_H 	H 	0.3113	0.7486	0.1939	0.079
Mof_C 	C 	0.4633	0.97983	0.1042	-0.028
Mof_H 	H 	0.4379	0.9663	0.1216	0.04
Mof_C 	C 	0.4623	0.9786	0.0528	0.098
Mof_N 	N 	0.4244	0.9584	0.0233	-0.325
Mof_H 	H 	0.4263	0.9601	0.9923	0.186
Mof_H 	H 	0.3999	0.9446	0.0367	0.142
Mof_C 	C 	0.51008	0.9593	0.1024	-0.004
Mof_H 	H 	0.5168	0.9314	0.1199	0.025
Mof_C 	C 	0.5111	0.9563	0.0511	0.067
Mof_N 	N 	0.523	0.9075	0.0362	-0.296
Mof_H 	H 	0.5243	0.9003	0.006	0.129
Mof_H 	H 	0.5286	0.8856	0.0576	0.131
Mof_O 	O 	0.5526	0.94775	0.70991	-0.41
Mof_O 	O 	0.54982	0.95147	0.79205	-0.514
Mof_C 	C 	0.5652	0.9357	0.75791	0.382
Mof_C 	C 	0.60373	0.89141	0.75418	-0.081
Mof_C 	C 	0.62444	0.87191	0.79561	0.015
Mof_H 	H 	0.6145	0.8825	0.8259	0.033
Mof_C 	C 	0.65994	0.83655	0.79171	-0.09
Mof_H 	H 	0.6738	0.8235	0.8194	0.062
Mof_C 	C 	0.67474	0.82069	0.7464	0.021
Mof_C 	C 	0.65404	0.8402	0.70494	-0.087
Mof_H 	H 	0.6639	0.8296	0.6746	0.058
Mof_C 	C 	0.61853	0.87555	0.70884	0.012
Mof_H 	H 	0.6047	0.8886	0.6811	0.041
Mof_C 	C 	0.71875	0.788	0.7531	0.079
Mof_C 	C 	0.7154	0.7515	0.7859	-0.151
Mof_H 	H 	0.6887	0.7486	0.8061	0.082
Mof_C 	C 	0.5367	0.97983	0.8958	-0.012
Mof_H 	H 	0.5621	0.9663	0.8784	0.037
Mof_C 	C 	0.5377	0.9786	0.9472	0.076
Mof_N 	N 	0.5756	0.9584	0.9767	-0.275
Mof_H 	H 	0.5737	0.9601	0.0077	0.142
Mof_H 	H 	0.6001	0.9446	0.9633	0.143
Mof_C 	C 	0.48992	0.9593	0.8976	-0.009
Mof_H 	H 	0.4832	0.9314	0.8801	0.029
Mof_C 	C 	0.4889	0.9563	0.9489	0.069
Mof_N 	N 	0.477	0.9075	0.9638	-0.3
Mof_H 	H 	0.4757	0.9003	0.994	0.156
Mof_H 	H 	0.4714	0.8856	0.9424	0.141
Mof_O 	O 	0.05225	0.29009	0.5526	-0.423
Mof_O 	O 	0.04853	0.20795	0.54982	-0.529
Mof_C 	C 	0.0643	0.24209	0.5652	0.382
Mof_C 	C 	0.10859	0.24582	0.60373	-0.086
Mof_C 	C 	0.12809	0.20439	0.62444	0.014
Mof_H 	H 	0.1175	0.1741	0.6145	0.027
Mof_C 	C 	0.16345	0.20829	0.65994	-0.095
Mof_H 	H 	0.1765	0.1806	0.6738	0.057
Mof_C 	C 	0.17931	0.2536	0.67474	0.021
Mof_C 	C 	0.1598	0.29506	0.65404	-0.09
Mof_H 	H 	0.1704	0.3254	0.6639	0.057
Mof_C 	C 	0.12445	0.29116	0.61853	0.012
Mof_H 	H 	0.1114	0.3189	0.6047	0.039
Mof_C 	C 	0.212	0.2469	0.71875	0.073
Mof_C 	C 	0.2485	0.2141	0.7154	-0.148
Mof_H 	H 	0.2514	0.1939	0.6887	0.078
Mof_C 	C 	0.02017	0.1042	0.5367	-0.047
Mof_H 	H 	0.0337	0.1216	0.5621	0.038
Mof_C 	C 	0.0214	0.0528	0.5377	0.076
Mof_N 	N 	0.0416	0.0233	0.5756	-0.322
Mof_H 	H 	0.0399	0.9923	0.5737	0.173
Mof_H 	H 	0.0554	0.0367	0.6001	0.135
Mof_C 	C 	0.0407	0.1024	0.48992	-0.025
Mof_H 	H 	0.0686	0.1199	0.4832	0.028
Mof_C 	C 	0.0437	0.0511	0.4889	0.058
Mof_N 	N 	0.0925	0.0362	0.477	-0.295
Mof_H 	H 	0.0997	0.006	0.4757	0.128
Mof_H 	H 	0.1144	0.0576	0.4714	0.13
Mof_O 	O 	0.05225	0.70991	0.4474	-0.423
Mof_O 	O 	0.04853	0.79205	0.45018	-0.528
Mof_C 	C 	0.0643	0.75791	0.4348	0.382
Mof_C 	C 	0.10859	0.75418	0.39627	-0.086
Mof_C 	C 	0.12809	0.79561	0.37556	0.015
Mof_H 	H 	0.1175	0.8259	0.3855	0.03
Mof_C 	C 	0.16345	0.79171	0.34006	-0.094
Mof_H 	H 	0.1765	0.8194	0.3262	0.06
Mof_C 	C 	0.17931	0.7464	0.32526	0.021
Mof_C 	C 	0.1598	0.70494	0.34596	-0.09
Mof_H 	H 	0.1704	0.6746	0.3361	0.057
Mof_C 	C 	0.12445	0.70884	0.38147	0.012
Mof_H 	H 	0.1114	0.6811	0.3953	0.039
Mof_C 	C 	0.212	0.7531	0.28125	0.073
Mof_C 	C 	0.2485	0.7859	0.2846	-0.148
Mof_H 	H 	0.2514	0.8061	0.3113	0.08
Mof_C 	C 	0.02017	0.8958	0.4633	-0.031
Mof_H 	H 	0.0337	0.8784	0.4379	0.035
Mof_C 	C 	0.0214	0.9472	0.4623	0.053
Mof_N 	N 	0.0416	0.9767	0.4244	-0.271
Mof_H 	H 	0.0399	0.0077	0.4263	0.127
Mof_H 	H 	0.0554	0.9633	0.3999	0.134
Mof_C 	C 	0.0407	0.8976	0.51008	-0.03
Mof_H 	H 	0.0686	0.8801	0.5168	0.032
Mof_C 	C 	0.0437	0.9489	0.5111	0.06
Mof_N 	N 	0.0925	0.9638	0.523	-0.299
Mof_H 	H 	0.0997	0.994	0.5243	0.156
Mof_H 	H 	0.1144	0.9424	0.5286	0.139
Mof_O 	O 	0.94775	0.29009	0.4474	-0.411
Mof_O 	O 	0.95147	0.20795	0.45018	-0.516
Mof_C 	C 	0.9357	0.24209	0.4348	0.382
Mof_C 	C 	0.89141	0.24582	0.39627	-0.083
Mof_C 	C 	0.87191	0.20439	0.37556	0.015
Mof_H 	H 	0.8825	0.1741	0.3855	0.029
Mof_C 	C 	0.83655	0.20829	0.34006	-0.093
Mof_H 	H 	0.8235	0.1806	0.3262	0.058
Mof_C 	C 	0.82069	0.2536	0.32526	0.021
Mof_C 	C 	0.8402	0.29506	0.34596	-0.089
Mof_H 	H 	0.8296	0.3254	0.3361	0.058
Mof_C 	C 	0.87555	0.29116	0.38147	0.012
Mof_H 	H 	0.8886	0.3189	0.3953	0.041
Mof_C 	C 	0.788	0.2469	0.28125	0.074
Mof_C 	C 	0.7515	0.2141	0.2846	-0.148
Mof_H 	H 	0.7486	0.1939	0.3113	0.079
Mof_C 	C 	0.97983	0.1042	0.4633	-0.028
Mof_H 	H 	0.9663	0.1216	0.4379	0.04
Mof_C 	C 	0.9786	0.0528	0.4623	0.098
Mof_N 	N 	0.9584	0.0233	0.4244	-0.325
Mof_H 	H 	0.9601	0.9923	0.4263	0.186
Mof_H 	H 	0.9446	0.0367	0.3999	0.142
Mof_C 	C 	0.9593	0.1024	0.51008	-0.004
Mof_H 	H 	0.9314	0.1199	0.5168	0.025
Mof_C 	C 	0.9563	0.0511	0.5111	0.067
Mof_N 	N 	0.9075	0.0362	0.523	-0.296
Mof_H 	H 	0.9003	0.006	0.5243	0.129
Mof_H 	H 	0.8856	0.0576	0.5286	0.131
Mof_O 	O 	0.94775	0.70991	0.5526	-0.41
Mof_O 	O 	0.95147	0.79205	0.54982	-0.514
Mof_C 	C 	0.9357	0.75791	0.5652	0.382
Mof_C 	C 	0.89141	0.75418	0.60373	-0.081
Mof_C 	C 	0.87191	0.79561	0.62444	0.015
Mof_H 	H 	0.8825	0.8259	0.6145	0.033
Mof_C 	C 	0.83655	0.79171	0.65994	-0.09
Mof_H 	H 	0.8235	0.8194	0.6738	0.062
Mof_C 	C 	0.82069	0.7464	0.67474	0.021
Mof_C 	C 	0.8402	0.70494	0.65404	-0.087
Mof_H 	H 	0.8296	0.6746	0.6639	0.058
Mof_C 	C 	0.87555	0.70884	0.61853	0.012
Mof_H 	H 	0.8886	0.6811	0.6047	0.041
Mof_C 	C 	0.788	0.7531	0.71875	0.079
Mof_C 	C 	0.7515	0.7859	0.7154	-0.151
Mof_H 	H 	0.7486	0.8061	0.6887	0.082
Mof_C 	C 	0.97983	0.8958	0.5367	-0.012
Mof_H 	H 	0.9663	0.8784	0.5621	0.037
Mof_C 	C 	0.9786	0.9472	0.5377	0.076
Mof_N 	N 	0.9584	0.9767	0.5756	-0.275
Mof_H 	H 	0.9601	0.0077	0.5737	0.142
Mof_H 	H 	0.9446	0.9633	0.6001	0.143
Mof_C 	C 	0.9593	0.8976	0.48992	-0.009
Mof_H 	H 	0.9314	0.8801	0.4832	0.029
Mof_C 	C 	0.9563	0.9489	0.4889	0.069
Mof_N 	N 	0.9075	0.9638	0.477	-0.3
Mof_H 	H 	0.9003	0.994	0.4757	0.156
Mof_H 	H 	0.8856	0.9424	0.4714	0.141
Mof_Zn	Zn	-7.67128e-33	0.69817	0.5	1.214
Mof_N 	N 	-1.24443e-32	0.6274	0.5	-0.235
Mof_C 	C 	-2.89829e-33	0.52672	0.5	-0.089
Mof_Zn	Zn	-2.89829e-33	0.30183	0.5	1.214
Mof_N 	N 	-2.89829e-33	0.3726	0.5	-0.235
Mof_C 	C 	-7.67128e-33	0.47328	0.5	-0.088
Mof_Zn	Zn	0.5	0	0.69817	1.214
Mof_N 	N 	0.5	0	0.6274	-0.235
Mof_C 	C 	0.5	-4.77299e-33	0.52672	-0.089
Mof_Zn	Zn	0.5	-4.77299e-33	0.30183	1.214
Mof_N 	N 	0.5	0	0.3726	-0.235
Mof_C 	C 	0.5	-4.77299e-33	0.47328	-0.088
Mof_Zn	Zn	0.69817	0.5	-0	1.214
Mof_N 	N 	0.6274	0.5	-0	-0.235
Mof_C 	C 	0.52672	0.5	-0	-0.089
Mof_Zn	Zn	0.30183	0.5	-0	1.214
Mof_N 	N 	0.3726	0.5	-0	-0.235
Mof_C 	C 	0.47328	0.5	-0	-0.088
Mof_Zn	Zn	0.19817	0.5	-0	1.214
Mof_N 	N 	0.1274	0.5	-0	-0.233
Mof_C 	C 	0.02672	0.5	-0	-0.12
Mof_Zn	Zn	0.80183	0.5	-0	1.214
Mof_N 	N 	0.8726	0.5	-0	-0.237
Mof_C 	C 	0.97328	0.5	-0	-0.056
Mof_Zn	Zn	0.5	-2.38649e-33	0.19817	1.214
Mof_N 	N 	0.5	-1.19325e-33	0.1274	-0.233
Mof_C 	C 	0.5	0	0.02672	-0.12
Mof_Zn	Zn	0.5	-9.54598e-33	0.80183	1.214
Mof_N 	N 	0.5	-9.54598e-33	0.8726	-0.237
Mof_C 	C 	0.5	0	0.97328	-0.056
Mof_Zn	Zn	-1.24443e-32	0.19817	0.5	1.214
Mof_N 	N 	-2.89829e-33	0.1274	0.5	-0.233
Mof_C 	C 	-7.67128e-33	0.02672	0.5	-0.12
Mof_Zn	Zn	-1.24443e-32	0.80183	0.5	1.214
Mof_N 	N 	-2.19902e-32	0.8726	0.5	-0.237
Mof_C 	C 	-1.24443e-32	0.97328	0.5	-0.056
_end
