data_functionalizedCrystal
_audit_creation_method	'EQeq! by Chris Wilmer'
_symmetry_space_group_name_H-M	'P1'
_symmetry_Int_Tables_number	1
_symmetry_cell_setting	triclinic
loop_
_symmetry_equiv_pos_as_xyz
  x,y,z
_cell_length_a	35.0571
_cell_length_b	14.6495
_cell_length_c	31.1547
_cell_angle_alpha	90
_cell_angle_beta	100.846
_cell_angle_gamma	90
loop_
_atom_site_label
_atom_site_type_symbol
_atom_site_fract_x
_atom_site_fract_y
_atom_site_fract_z
_atom_site_charge
Mof_I 	I 	0.7358	0.76039	0.7961	-0.38
Mof_I 	I 	0.63079	0.8384	0.6985	-0.408
Mof_I 	I 	0.35413	0.8927	0.50559	-0.231
Mof_I 	I 	0.6169	0.74648	0.56308	0.069
Mof_I 	I 	0.52299	0.66292	0.63504	-0.518
Mof_I 	I 	0.39384	0.7519	0.39425	-0.191
Mof_Zn	Zn	0.67371	0.85145	0.77399	1.164
Mof_Zn	Zn	0.58179	0.62886	0.60006	1.154
Mof_Zn	Zn	0.37671	0.89609	0.4325	1.161
Mof_N 	N 	0.6838	0.9902	0.7838	-0.276
Mof_N 	N 	0.7346	0.3125	0.8128	-0.138
Mof_N 	N 	0.6806	0.3229	0.7544	-0.134
Mof_N 	N 	0.7211	0.4516	0.774	-0.141
Mof_N 	N 	0.6199	0.56	0.6476	-0.275
Mof_N 	N 	0.5693	0.5211	0.5561	-0.273
Mof_N 	N 	0.5753	0.2864	0.4417	-0.132
Mof_N 	N 	0.5235	0.2331	0.4746	-0.148
Mof_N 	N 	0.5405	0.1523	0.4149	-0.132
Mof_N 	N 	0.6398	0.1763	0.3193	-0.281
Mof_N 	N 	0.4231	0.9849	0.44	-0.282
Mof_N 	N 	0.8344	0.5362	0.8895	-0.275
Mof_C 	C 	0.7159	0.025	0.8071	0.083
Mof_H 	H 	0.7345	0.9852	0.822	-0.015
Mof_C 	C 	0.7233	0.1188	0.8105	-0.138
Mof_H 	H 	0.7459	0.1406	0.828	0.088
Mof_C 	C 	0.6967	0.178	0.7877	0.068
Mof_C 	C 	0.6623	0.142	0.7638	-0.132
Mof_H 	H 	0.6432	0.1803	0.7488	0.089
Mof_C 	C 	0.6573	0.0488	0.7627	0.072
Mof_H 	H 	0.6343	0.0252	0.7467	-0.016
Mof_C 	C 	0.7044	0.2768	0.7857	0.101
Mof_C 	C 	0.7414	0.4009	0.8049	0.089
Mof_C 	C 	0.6903	0.4098	0.7503	0.099
Mof_C 	C 	0.6662	0.4635	0.7149	0.066
Mof_C 	C 	0.6759	0.5513	0.7042	-0.14
Mof_H 	H 	0.6981	0.5793	0.7197	0.086
Mof_C 	C 	0.6523	0.5966	0.6704	0.079
Mof_H 	H 	0.6592	0.6551	0.6632	-0.014
Mof_C 	C 	0.61	0.4761	0.6586	0.079
Mof_H 	H 	0.587	0.4509	0.6435	-0.01
Mof_C 	C 	0.6325	0.4246	0.6915	-0.129
Mof_H 	H 	0.6252	0.3657	0.6976	0.096
Mof_C 	C 	0.5365	0.4719	0.5514	0.072
Mof_H 	H 	0.5175	0.4893	0.5669	-0.009
Mof_C 	C 	0.5299	0.3961	0.5243	-0.126
Mof_H 	H 	0.507	0.363	0.522	0.075
Mof_C 	C 	0.558	0.3706	0.5007	0.056
Mof_C 	C 	0.5914	0.421	0.5054	-0.128
Mof_H 	H 	0.6107	0.4055	0.49	0.086
Mof_C 	C 	0.5962	0.4964	0.5337	0.072
Mof_H 	H 	0.619	0.5302	0.5368	-0.012
Mof_C 	C 	0.552	0.2917	0.4704	0.088
Mof_C 	C 	0.5184	0.1655	0.4452	0.081
Mof_C 	C 	0.5679	0.2136	0.4141	0.102
Mof_C 	C 	0.5927	0.2031	0.3811	0.079
Mof_C 	C 	0.6289	0.2425	0.3861	-0.132
Mof_H 	H 	0.6377	0.2805	0.4098	0.093
Mof_C 	C 	0.6523	0.2253	0.3554	0.08
Mof_H 	H 	0.6774	0.2487	0.3602	-0.012
Mof_C 	C 	0.6041	0.1425	0.3138	0.088
Mof_H 	H 	0.5948	0.1094	0.2885	-0.022
Mof_C 	C 	0.58	0.1542	0.3436	-0.138
Mof_H 	H 	0.5552	0.1289	0.3384	0.095
Mof_C 	C 	0.486	0.1028	0.4445	0.068
Mof_C 	C 	0.4673	0.0927	0.4785	-0.156
Mof_H 	H 	0.4753	0.1265	0.5038	0.088
Mof_C 	C 	0.437	0.0334	0.4759	0.091
Mof_H 	H 	0.4254	0.0265	0.5003	-0.014
Mof_C 	C 	0.4407	0.9975	0.4059	0.086
Mof_H 	H 	0.4314	0.9657	0.3802	-0.021
Mof_C 	C 	0.4714	0.0544	0.4069	-0.149
Mof_H 	H 	0.4826	0.0608	0.3823	0.096
Mof_C 	C 	0.8214	0.4534	0.9008	0.069
Mof_H 	H 	0.8327	0.428	0.9276	-0.004
Mof_C 	C 	0.7922	0.4061	0.8739	-0.123
Mof_H 	H 	0.7847	0.3486	0.8818	0.093
Mof_C 	C 	0.7743	0.4465	0.8348	0.057
Mof_C 	C 	0.7872	0.5304	0.8238	-0.136
Mof_H 	H 	0.7755	0.5586	0.7978	0.095
Mof_C 	C 	0.8177	0.5731	0.8516	0.079
Mof_H 	H 	0.8266	0.6291	0.8435	-0.01
Mof_I 	I 	0.3504	0.871	0.4985	-0.112
Mof_I 	I 	0.633	0.7274	0.5585	-0.403
Mof_I 	I 	0.5307	0.6754	0.6218	0.141
Mof_I 	I 	0.4015	0.7731	0.389	-0.156
Mof_I 	I 	0.2358	0.26039	0.7961	-0.38
Mof_I 	I 	0.13079	0.3384	0.6985	-0.408
Mof_I 	I 	0.85413	0.3927	0.50559	-0.231
Mof_I 	I 	0.1169	0.24648	0.56308	0.069
Mof_I 	I 	0.02299	0.16292	0.63504	-0.518
Mof_I 	I 	0.89384	0.2519	0.39425	-0.191
Mof_Zn	Zn	0.17371	0.35145	0.77399	1.164
Mof_Zn	Zn	0.08179	0.12886	0.60006	1.154
Mof_Zn	Zn	0.87671	0.39609	0.4325	1.161
Mof_N 	N 	0.1838	0.4902	0.7838	-0.276
Mof_N 	N 	0.2346	0.8125	0.8128	-0.138
Mof_N 	N 	0.1806	0.8229	0.7544	-0.134
Mof_N 	N 	0.2211	0.9516	0.774	-0.141
Mof_N 	N 	0.1199	0.06	0.6476	-0.275
Mof_N 	N 	0.0693	0.0211	0.5561	-0.273
Mof_N 	N 	0.0753	0.7864	0.4417	-0.132
Mof_N 	N 	0.0235	0.7331	0.4746	-0.148
Mof_N 	N 	0.0405	0.6523	0.4149	-0.132
Mof_N 	N 	0.1398	0.6763	0.3193	-0.281
Mof_N 	N 	0.9231	0.4849	0.44	-0.282
Mof_N 	N 	0.3344	0.0362	0.8895	-0.275
Mof_C 	C 	0.2159	0.525	0.8071	0.084
Mof_H 	H 	0.2345	0.4852	0.822	-0.016
Mof_C 	C 	0.2233	0.6188	0.8105	-0.138
Mof_H 	H 	0.2459	0.6406	0.828	0.088
Mof_C 	C 	0.1967	0.678	0.7877	0.068
Mof_C 	C 	0.1623	0.642	0.7638	-0.132
Mof_H 	H 	0.1432	0.6803	0.7488	0.089
Mof_C 	C 	0.1573	0.5488	0.7627	0.072
Mof_H 	H 	0.1343	0.5252	0.7467	-0.016
Mof_C 	C 	0.2044	0.7768	0.7857	0.101
Mof_C 	C 	0.2414	0.9009	0.8049	0.089
Mof_C 	C 	0.1903	0.9098	0.7503	0.099
Mof_C 	C 	0.1662	0.9635	0.7149	0.066
Mof_C 	C 	0.1759	0.0513	0.7042	-0.14
Mof_H 	H 	0.1981	0.0793	0.7197	0.086
Mof_C 	C 	0.1523	0.0966	0.6704	0.079
Mof_H 	H 	0.1592	0.1551	0.6632	-0.014
Mof_C 	C 	0.11	0.9761	0.6586	0.079
Mof_H 	H 	0.087	0.9509	0.6435	-0.01
Mof_C 	C 	0.1325	0.9246	0.6915	-0.129
Mof_H 	H 	0.1252	0.8657	0.6976	0.096
Mof_C 	C 	0.0365	0.9719	0.5514	0.072
Mof_H 	H 	0.0175	0.9893	0.5669	-0.009
Mof_C 	C 	0.0299	0.8961	0.5243	-0.126
Mof_H 	H 	0.007	0.863	0.522	0.075
Mof_C 	C 	0.058	0.8706	0.5007	0.056
Mof_C 	C 	0.0914	0.921	0.5054	-0.128
Mof_H 	H 	0.1107	0.9055	0.49	0.086
Mof_C 	C 	0.0962	0.9964	0.5337	0.072
Mof_H 	H 	0.119	0.0302	0.5368	-0.012
Mof_C 	C 	0.052	0.7917	0.4704	0.088
Mof_C 	C 	0.0184	0.6655	0.4452	0.081
Mof_C 	C 	0.0679	0.7136	0.4141	0.102
Mof_C 	C 	0.0927	0.7031	0.3811	0.079
Mof_C 	C 	0.1289	0.7425	0.3861	-0.132
Mof_H 	H 	0.1377	0.7805	0.4098	0.093
Mof_C 	C 	0.1523	0.7253	0.3554	0.08
Mof_H 	H 	0.1774	0.7487	0.3602	-0.012
Mof_C 	C 	0.1041	0.6425	0.3138	0.088
Mof_H 	H 	0.0948	0.6094	0.2885	-0.022
Mof_C 	C 	0.08	0.6542	0.3436	-0.138
Mof_H 	H 	0.0552	0.6289	0.3384	0.095
Mof_C 	C 	0.986	0.6028	0.4445	0.068
Mof_C 	C 	0.9673	0.5927	0.4785	-0.156
Mof_H 	H 	0.9753	0.6265	0.5038	0.088
Mof_C 	C 	0.937	0.5334	0.4759	0.091
Mof_H 	H 	0.9254	0.5265	0.5003	-0.014
Mof_C 	C 	0.9407	0.4975	0.4059	0.086
Mof_H 	H 	0.9314	0.4657	0.3802	-0.021
Mof_C 	C 	0.9714	0.5544	0.4069	-0.149
Mof_H 	H 	0.9826	0.5608	0.3823	0.096
Mof_C 	C 	0.3214	0.9534	0.9008	0.069
Mof_H 	H 	0.3327	0.928	0.9276	-0.004
Mof_C 	C 	0.2922	0.9061	0.8739	-0.123
Mof_H 	H 	0.2847	0.8486	0.8818	0.093
Mof_C 	C 	0.2743	0.9465	0.8348	0.057
Mof_C 	C 	0.2872	0.0304	0.8238	-0.136
Mof_H 	H 	0.2755	0.0586	0.7978	0.095
Mof_C 	C 	0.3177	0.0731	0.8516	0.079
Mof_H 	H 	0.3266	0.1291	0.8435	-0.01
Mof_I 	I 	0.8504	0.371	0.4985	-0.112
Mof_I 	I 	0.133	0.2274	0.5585	-0.403
Mof_I 	I 	0.0307	0.1754	0.6218	0.141
Mof_I 	I 	0.9015	0.2731	0.389	-0.156
Mof_I 	I 	0.7358	0.23961	0.2961	-0.38
Mof_I 	I 	0.63079	0.1616	0.1985	-0.408
Mof_I 	I 	0.35413	0.1073	0.00559	-0.232
Mof_I 	I 	0.6169	0.25352	0.06308	0.069
Mof_I 	I 	0.52299	0.33708	0.13504	-0.518
Mof_I 	I 	0.39384	0.2481	0.89425	-0.191
Mof_Zn	Zn	0.67371	0.14855	0.27399	1.164
Mof_Zn	Zn	0.58179	0.37114	0.10006	1.154
Mof_Zn	Zn	0.37671	0.10391	0.9325	1.161
Mof_N 	N 	0.6838	0.0098	0.2838	-0.276
Mof_N 	N 	0.7346	0.6875	0.3128	-0.138
Mof_N 	N 	0.6806	0.6771	0.2544	-0.134
Mof_N 	N 	0.7211	0.5484	0.274	-0.141
Mof_N 	N 	0.6199	0.44	0.1476	-0.275
Mof_N 	N 	0.5693	0.4789	0.0561	-0.273
Mof_N 	N 	0.5753	0.7136	0.9417	-0.132
Mof_N 	N 	0.5235	0.7669	0.9746	-0.148
Mof_N 	N 	0.5405	0.8477	0.9149	-0.132
Mof_N 	N 	0.6398	0.8237	0.8193	-0.281
Mof_N 	N 	0.4231	0.0151	0.94	-0.282
Mof_N 	N 	0.8344	0.4638	0.3895	-0.275
Mof_C 	C 	0.7159	0.975	0.3071	0.083
Mof_H 	H 	0.7345	0.0148	0.322	-0.015
Mof_C 	C 	0.7233	0.8812	0.3105	-0.138
Mof_H 	H 	0.7459	0.8594	0.328	0.088
Mof_C 	C 	0.6967	0.822	0.2877	0.068
Mof_C 	C 	0.6623	0.858	0.2638	-0.132
Mof_H 	H 	0.6432	0.8197	0.2488	0.089
Mof_C 	C 	0.6573	0.9512	0.2627	0.072
Mof_H 	H 	0.6343	0.9748	0.2467	-0.016
Mof_C 	C 	0.7044	0.7232	0.2857	0.101
Mof_C 	C 	0.7414	0.5991	0.3049	0.089
Mof_C 	C 	0.6903	0.5902	0.2503	0.099
Mof_C 	C 	0.6662	0.5365	0.2149	0.066
Mof_C 	C 	0.6759	0.4487	0.2042	-0.14
Mof_H 	H 	0.6981	0.4207	0.2197	0.086
Mof_C 	C 	0.6523	0.4034	0.1704	0.079
Mof_H 	H 	0.6592	0.3449	0.1632	-0.014
Mof_C 	C 	0.61	0.5239	0.1586	0.079
Mof_H 	H 	0.587	0.5491	0.1435	-0.01
Mof_C 	C 	0.6325	0.5754	0.1915	-0.129
Mof_H 	H 	0.6252	0.6343	0.1976	0.096
Mof_C 	C 	0.5365	0.5281	0.0514	0.072
Mof_H 	H 	0.5175	0.5107	0.0669	-0.009
Mof_C 	C 	0.5299	0.6039	0.0243	-0.126
Mof_H 	H 	0.507	0.637	0.022	0.075
Mof_C 	C 	0.558	0.6294	0.0007	0.056
Mof_C 	C 	0.5914	0.579	0.0054	-0.128
Mof_H 	H 	0.6107	0.5945	0.99	0.086
Mof_C 	C 	0.5962	0.5036	0.0337	0.072
Mof_H 	H 	0.619	0.4698	0.0368	-0.012
Mof_C 	C 	0.552	0.7083	0.9704	0.088
Mof_C 	C 	0.5184	0.8345	0.9452	0.081
Mof_C 	C 	0.5679	0.7864	0.9141	0.102
Mof_C 	C 	0.5927	0.7969	0.8811	0.079
Mof_C 	C 	0.6289	0.7575	0.8861	-0.132
Mof_H 	H 	0.6377	0.7195	0.9098	0.093
Mof_C 	C 	0.6523	0.7747	0.8554	0.08
Mof_H 	H 	0.6774	0.7513	0.8602	-0.012
Mof_C 	C 	0.6041	0.8575	0.8138	0.088
Mof_H 	H 	0.5948	0.8906	0.7885	-0.022
Mof_C 	C 	0.58	0.8458	0.8436	-0.138
Mof_H 	H 	0.5552	0.8711	0.8384	0.095
Mof_C 	C 	0.486	0.8972	0.9445	0.068
Mof_C 	C 	0.4673	0.9073	0.9785	-0.156
Mof_H 	H 	0.4753	0.8735	0.0038	0.088
Mof_C 	C 	0.437	0.9666	0.9759	0.092
Mof_H 	H 	0.4254	0.9735	0.0003	-0.014
Mof_C 	C 	0.4407	0.0025	0.9059	0.085
Mof_H 	H 	0.4314	0.0343	0.8802	-0.021
Mof_C 	C 	0.4714	0.9456	0.9069	-0.149
Mof_H 	H 	0.4826	0.9392	0.8823	0.096
Mof_C 	C 	0.8214	0.5466	0.4008	0.069
Mof_H 	H 	0.8327	0.572	0.4276	-0.004
Mof_C 	C 	0.7922	0.5939	0.3739	-0.123
Mof_H 	H 	0.7847	0.6514	0.3818	0.093
Mof_C 	C 	0.7743	0.5535	0.3348	0.057
Mof_C 	C 	0.7872	0.4696	0.3238	-0.136
Mof_H 	H 	0.7755	0.4414	0.2978	0.095
Mof_C 	C 	0.8177	0.4269	0.3516	0.079
Mof_H 	H 	0.8266	0.3709	0.3435	-0.01
Mof_I 	I 	0.3504	0.129	0.9985	-0.112
Mof_I 	I 	0.633	0.2726	0.0585	-0.403
Mof_I 	I 	0.5307	0.3246	0.1218	0.141
Mof_I 	I 	0.4015	0.2269	0.889	-0.156
Mof_I 	I 	0.2358	0.73961	0.2961	-0.38
Mof_I 	I 	0.13079	0.6616	0.1985	-0.408
Mof_I 	I 	0.85413	0.6073	0.00559	-0.231
Mof_I 	I 	0.1169	0.75352	0.06308	0.069
Mof_I 	I 	0.02299	0.83708	0.13504	-0.518
Mof_I 	I 	0.89384	0.7481	0.89425	-0.191
Mof_Zn	Zn	0.17371	0.64855	0.27399	1.164
Mof_Zn	Zn	0.08179	0.87114	0.10006	1.154
Mof_Zn	Zn	0.87671	0.60391	0.9325	1.161
Mof_N 	N 	0.1838	0.5098	0.2838	-0.276
Mof_N 	N 	0.2346	0.1875	0.3128	-0.138
Mof_N 	N 	0.1806	0.1771	0.2544	-0.134
Mof_N 	N 	0.2211	0.0484	0.274	-0.141
Mof_N 	N 	0.1199	0.94	0.1476	-0.275
Mof_N 	N 	0.0693	0.9789	0.0561	-0.274
Mof_N 	N 	0.0753	0.2136	0.9417	-0.132
Mof_N 	N 	0.0235	0.2669	0.9746	-0.148
Mof_N 	N 	0.0405	0.3477	0.9149	-0.132
Mof_N 	N 	0.1398	0.3237	0.8193	-0.281
Mof_N 	N 	0.9231	0.5151	0.94	-0.282
Mof_N 	N 	0.3344	0.9638	0.3895	-0.275
Mof_C 	C 	0.2159	0.475	0.3071	0.084
Mof_H 	H 	0.2345	0.5148	0.322	-0.016
Mof_C 	C 	0.2233	0.3812	0.3105	-0.138
Mof_H 	H 	0.2459	0.3594	0.328	0.088
Mof_C 	C 	0.1967	0.322	0.2877	0.068
Mof_C 	C 	0.1623	0.358	0.2638	-0.132
Mof_H 	H 	0.1432	0.3197	0.2488	0.089
Mof_C 	C 	0.1573	0.4512	0.2627	0.072
Mof_H 	H 	0.1343	0.4748	0.2467	-0.016
Mof_C 	C 	0.2044	0.2232	0.2857	0.101
Mof_C 	C 	0.2414	0.0991	0.3049	0.089
Mof_C 	C 	0.1903	0.0902	0.2503	0.099
Mof_C 	C 	0.1662	0.0365	0.2149	0.066
Mof_C 	C 	0.1759	0.9487	0.2042	-0.14
Mof_H 	H 	0.1981	0.9207	0.2197	0.086
Mof_C 	C 	0.1523	0.9034	0.1704	0.079
Mof_H 	H 	0.1592	0.8449	0.1632	-0.014
Mof_C 	C 	0.11	0.0239	0.1586	0.079
Mof_H 	H 	0.087	0.0491	0.1435	-0.01
Mof_C 	C 	0.1325	0.0754	0.1915	-0.129
Mof_H 	H 	0.1252	0.1343	0.1976	0.096
Mof_C 	C 	0.0365	0.0281	0.0514	0.072
Mof_H 	H 	0.0175	0.0107	0.0669	-0.009
Mof_C 	C 	0.0299	0.1039	0.0243	-0.126
Mof_H 	H 	0.007	0.137	0.022	0.075
Mof_C 	C 	0.058	0.1294	0.0007	0.056
Mof_C 	C 	0.0914	0.079	0.0054	-0.128
Mof_H 	H 	0.1107	0.0945	0.99	0.086
Mof_C 	C 	0.0962	0.0036	0.0337	0.072
Mof_H 	H 	0.119	0.9698	0.0368	-0.013
Mof_C 	C 	0.052	0.2083	0.9704	0.087
Mof_C 	C 	0.0184	0.3345	0.9452	0.081
Mof_C 	C 	0.0679	0.2864	0.9141	0.102
Mof_C 	C 	0.0927	0.2969	0.8811	0.079
Mof_C 	C 	0.1289	0.2575	0.8861	-0.132
Mof_H 	H 	0.1377	0.2195	0.9098	0.093
Mof_C 	C 	0.1523	0.2747	0.8554	0.08
Mof_H 	H 	0.1774	0.2513	0.8602	-0.012
Mof_C 	C 	0.1041	0.3575	0.8138	0.088
Mof_H 	H 	0.0948	0.3906	0.7885	-0.022
Mof_C 	C 	0.08	0.3458	0.8436	-0.138
Mof_H 	H 	0.0552	0.3711	0.8384	0.095
Mof_C 	C 	0.986	0.3972	0.9445	0.068
Mof_C 	C 	0.9673	0.4073	0.9785	-0.156
Mof_H 	H 	0.9753	0.3735	0.0038	0.089
Mof_C 	C 	0.937	0.4666	0.9759	0.091
Mof_H 	H 	0.9254	0.4735	0.0003	-0.014
Mof_C 	C 	0.9407	0.5025	0.9059	0.086
Mof_H 	H 	0.9314	0.5343	0.8802	-0.021
Mof_C 	C 	0.9714	0.4456	0.9069	-0.149
Mof_H 	H 	0.9826	0.4392	0.8823	0.096
Mof_C 	C 	0.3214	0.0466	0.4008	0.069
Mof_H 	H 	0.3327	0.072	0.4276	-0.004
Mof_C 	C 	0.2922	0.0939	0.3739	-0.123
Mof_H 	H 	0.2847	0.1514	0.3818	0.093
Mof_C 	C 	0.2743	0.0535	0.3348	0.057
Mof_C 	C 	0.2872	0.9696	0.3238	-0.136
Mof_H 	H 	0.2755	0.9414	0.2978	0.095
Mof_C 	C 	0.3177	0.9269	0.3516	0.079
Mof_H 	H 	0.3266	0.8709	0.3435	-0.01
Mof_I 	I 	0.8504	0.629	0.9985	-0.113
Mof_I 	I 	0.133	0.7726	0.0585	-0.403
Mof_I 	I 	0.0307	0.8246	0.1218	0.141
Mof_I 	I 	0.9015	0.7269	0.889	-0.156
Mof_I 	I 	0.2642	0.76039	0.7039	-0.38
Mof_I 	I 	0.36921	0.8384	0.8015	-0.408
Mof_I 	I 	0.64587	0.8927	0.99441	-0.232
Mof_I 	I 	0.3831	0.74648	0.93692	0.069
Mof_I 	I 	0.47701	0.66292	0.86496	-0.518
Mof_I 	I 	0.60616	0.7519	0.10575	-0.191
Mof_Zn	Zn	0.32629	0.85145	0.72601	1.164
Mof_Zn	Zn	0.41821	0.62886	0.89994	1.154
Mof_Zn	Zn	0.62329	0.89609	0.0675	1.161
Mof_N 	N 	0.3162	0.9902	0.7162	-0.276
Mof_N 	N 	0.2654	0.3125	0.6872	-0.138
Mof_N 	N 	0.3194	0.3229	0.7456	-0.134
Mof_N 	N 	0.2789	0.4516	0.726	-0.141
Mof_N 	N 	0.3801	0.56	0.8524	-0.275
Mof_N 	N 	0.4307	0.5211	0.9439	-0.273
Mof_N 	N 	0.4247	0.2864	0.0583	-0.132
Mof_N 	N 	0.4765	0.2331	0.0254	-0.148
Mof_N 	N 	0.4595	0.1523	0.0851	-0.132
Mof_N 	N 	0.3602	0.1763	0.1807	-0.281
Mof_N 	N 	0.5769	0.9849	0.06	-0.282
Mof_N 	N 	0.1656	0.5362	0.6105	-0.275
Mof_C 	C 	0.2841	0.025	0.6929	0.083
Mof_H 	H 	0.2655	0.9852	0.678	-0.015
Mof_C 	C 	0.2767	0.1188	0.6895	-0.138
Mof_H 	H 	0.2541	0.1406	0.672	0.088
Mof_C 	C 	0.3033	0.178	0.7123	0.068
Mof_C 	C 	0.3377	0.142	0.7362	-0.132
Mof_H 	H 	0.3568	0.1803	0.7512	0.089
Mof_C 	C 	0.3427	0.0488	0.7373	0.072
Mof_H 	H 	0.3657	0.0252	0.7533	-0.016
Mof_C 	C 	0.2956	0.2768	0.7143	0.101
Mof_C 	C 	0.2586	0.4009	0.6951	0.089
Mof_C 	C 	0.3097	0.4098	0.7497	0.099
Mof_C 	C 	0.3338	0.4635	0.7851	0.066
Mof_C 	C 	0.3241	0.5513	0.7958	-0.14
Mof_H 	H 	0.3019	0.5793	0.7803	0.086
Mof_C 	C 	0.3477	0.5966	0.8296	0.079
Mof_H 	H 	0.3408	0.6551	0.8368	-0.014
Mof_C 	C 	0.39	0.4761	0.8414	0.079
Mof_H 	H 	0.413	0.4509	0.8565	-0.01
Mof_C 	C 	0.3675	0.4246	0.8085	-0.129
Mof_H 	H 	0.3748	0.3657	0.8024	0.096
Mof_C 	C 	0.4635	0.4719	0.9486	0.072
Mof_H 	H 	0.4825	0.4893	0.9331	-0.009
Mof_C 	C 	0.4701	0.3961	0.9757	-0.126
Mof_H 	H 	0.493	0.363	0.978	0.075
Mof_C 	C 	0.442	0.3706	0.9993	0.056
Mof_C 	C 	0.4086	0.421	0.9946	-0.128
Mof_H 	H 	0.3893	0.4055	0.01	0.086
Mof_C 	C 	0.4038	0.4964	0.9663	0.072
Mof_H 	H 	0.381	0.5302	0.9632	-0.012
Mof_C 	C 	0.448	0.2917	0.0296	0.088
Mof_C 	C 	0.4816	0.1655	0.0548	0.081
Mof_C 	C 	0.4321	0.2136	0.0859	0.102
Mof_C 	C 	0.4073	0.2031	0.1189	0.079
Mof_C 	C 	0.3711	0.2425	0.1139	-0.132
Mof_H 	H 	0.3623	0.2805	0.0902	0.093
Mof_C 	C 	0.3477	0.2253	0.1446	0.08
Mof_H 	H 	0.3226	0.2487	0.1398	-0.012
Mof_C 	C 	0.3959	0.1425	0.1862	0.088
Mof_H 	H 	0.4052	0.1094	0.2115	-0.022
Mof_C 	C 	0.42	0.1542	0.1564	-0.138
Mof_H 	H 	0.4448	0.1289	0.1616	0.095
Mof_C 	C 	0.514	0.1028	0.0555	0.068
Mof_C 	C 	0.5327	0.0927	0.0215	-0.156
Mof_H 	H 	0.5247	0.1265	0.9962	0.088
Mof_C 	C 	0.563	0.0334	0.0241	0.092
Mof_H 	H 	0.5746	0.0265	0.9997	-0.014
Mof_C 	C 	0.5593	0.9975	0.0941	0.085
Mof_H 	H 	0.5686	0.9657	0.1198	-0.021
Mof_C 	C 	0.5286	0.0544	0.0931	-0.149
Mof_H 	H 	0.5174	0.0608	0.1177	0.096
Mof_C 	C 	0.1786	0.4534	0.5992	0.069
Mof_H 	H 	0.1673	0.428	0.5724	-0.004
Mof_C 	C 	0.2078	0.4061	0.6261	-0.123
Mof_H 	H 	0.2153	0.3486	0.6182	0.093
Mof_C 	C 	0.2257	0.4465	0.6652	0.057
Mof_C 	C 	0.2128	0.5304	0.6762	-0.136
Mof_H 	H 	0.2245	0.5586	0.7022	0.095
Mof_C 	C 	0.1823	0.5731	0.6484	0.079
Mof_H 	H 	0.1734	0.6291	0.6565	-0.01
Mof_I 	I 	0.6496	0.871	0.0015	-0.112
Mof_I 	I 	0.367	0.7274	0.9415	-0.403
Mof_I 	I 	0.4693	0.6754	0.8782	0.141
Mof_I 	I 	0.5985	0.7731	0.111	-0.156
Mof_I 	I 	0.7642	0.26039	0.7039	-0.38
Mof_I 	I 	0.86921	0.3384	0.8015	-0.408
Mof_I 	I 	0.14587	0.3927	0.99441	-0.231
Mof_I 	I 	0.8831	0.24648	0.93692	0.069
Mof_I 	I 	0.97701	0.16292	0.86496	-0.518
Mof_I 	I 	0.10616	0.2519	0.10575	-0.191
Mof_Zn	Zn	0.82629	0.35145	0.72601	1.164
Mof_Zn	Zn	0.91821	0.12886	0.89994	1.154
Mof_Zn	Zn	0.12329	0.39609	0.0675	1.161
Mof_N 	N 	0.8162	0.4902	0.7162	-0.276
Mof_N 	N 	0.7654	0.8125	0.6872	-0.138
Mof_N 	N 	0.8194	0.8229	0.7456	-0.134
Mof_N 	N 	0.7789	0.9516	0.726	-0.141
Mof_N 	N 	0.8801	0.06	0.8524	-0.275
Mof_N 	N 	0.9307	0.0211	0.9439	-0.274
Mof_N 	N 	0.9247	0.7864	0.0583	-0.132
Mof_N 	N 	0.9765	0.7331	0.0254	-0.148
Mof_N 	N 	0.9595	0.6523	0.0851	-0.132
Mof_N 	N 	0.8602	0.6763	0.1807	-0.281
Mof_N 	N 	0.0769	0.4849	0.06	-0.282
Mof_N 	N 	0.6656	0.0362	0.6105	-0.275
Mof_C 	C 	0.7841	0.525	0.6929	0.084
Mof_H 	H 	0.7655	0.4852	0.678	-0.016
Mof_C 	C 	0.7767	0.6188	0.6895	-0.138
Mof_H 	H 	0.7541	0.6406	0.672	0.088
Mof_C 	C 	0.8033	0.678	0.7123	0.068
Mof_C 	C 	0.8377	0.642	0.7362	-0.132
Mof_H 	H 	0.8568	0.6803	0.7512	0.089
Mof_C 	C 	0.8427	0.5488	0.7373	0.072
Mof_H 	H 	0.8657	0.5252	0.7533	-0.016
Mof_C 	C 	0.7956	0.7768	0.7143	0.101
Mof_C 	C 	0.7586	0.9009	0.6951	0.089
Mof_C 	C 	0.8097	0.9098	0.7497	0.099
Mof_C 	C 	0.8338	0.9635	0.7851	0.066
Mof_C 	C 	0.8241	0.0513	0.7958	-0.14
Mof_H 	H 	0.8019	0.0793	0.7803	0.086
Mof_C 	C 	0.8477	0.0966	0.8296	0.079
Mof_H 	H 	0.8408	0.1551	0.8368	-0.014
Mof_C 	C 	0.89	0.9761	0.8414	0.079
Mof_H 	H 	0.913	0.9509	0.8565	-0.01
Mof_C 	C 	0.8675	0.9246	0.8085	-0.129
Mof_H 	H 	0.8748	0.8657	0.8024	0.096
Mof_C 	C 	0.9635	0.9719	0.9486	0.072
Mof_H 	H 	0.9825	0.9893	0.9331	-0.009
Mof_C 	C 	0.9701	0.8961	0.9757	-0.126
Mof_H 	H 	0.993	0.863	0.978	0.075
Mof_C 	C 	0.942	0.8706	0.9993	0.056
Mof_C 	C 	0.9086	0.921	0.9946	-0.128
Mof_H 	H 	0.8893	0.9055	0.01	0.086
Mof_C 	C 	0.9038	0.9964	0.9663	0.072
Mof_H 	H 	0.881	0.0302	0.9632	-0.013
Mof_C 	C 	0.948	0.7917	0.0296	0.087
Mof_C 	C 	0.9816	0.6655	0.0548	0.081
Mof_C 	C 	0.9321	0.7136	0.0859	0.102
Mof_C 	C 	0.9073	0.7031	0.1189	0.079
Mof_C 	C 	0.8711	0.7425	0.1139	-0.132
Mof_H 	H 	0.8623	0.7805	0.0902	0.093
Mof_C 	C 	0.8477	0.7253	0.1446	0.08
Mof_H 	H 	0.8226	0.7487	0.1398	-0.012
Mof_C 	C 	0.8959	0.6425	0.1862	0.088
Mof_H 	H 	0.9052	0.6094	0.2115	-0.022
Mof_C 	C 	0.92	0.6542	0.1564	-0.138
Mof_H 	H 	0.9448	0.6289	0.1616	0.095
Mof_C 	C 	0.014	0.6028	0.0555	0.068
Mof_C 	C 	0.0327	0.5927	0.0215	-0.156
Mof_H 	H 	0.0247	0.6265	0.9962	0.089
Mof_C 	C 	0.063	0.5334	0.0241	0.091
Mof_H 	H 	0.0746	0.5265	0.9997	-0.014
Mof_C 	C 	0.0593	0.4975	0.0941	0.086
Mof_H 	H 	0.0686	0.4657	0.1198	-0.021
Mof_C 	C 	0.0286	0.5544	0.0931	-0.149
Mof_H 	H 	0.0174	0.5608	0.1177	0.096
Mof_C 	C 	0.6786	0.9534	0.5992	0.069
Mof_H 	H 	0.6673	0.928	0.5724	-0.004
Mof_C 	C 	0.7078	0.9061	0.6261	-0.123
Mof_H 	H 	0.7153	0.8486	0.6182	0.093
Mof_C 	C 	0.7257	0.9465	0.6652	0.057
Mof_C 	C 	0.7128	0.0304	0.6762	-0.136
Mof_H 	H 	0.7245	0.0586	0.7022	0.095
Mof_C 	C 	0.6823	0.0731	0.6484	0.079
Mof_H 	H 	0.6734	0.1291	0.6565	-0.01
Mof_I 	I 	0.1496	0.371	0.0015	-0.113
Mof_I 	I 	0.867	0.2274	0.9415	-0.403
Mof_I 	I 	0.9693	0.1754	0.8782	0.141
Mof_I 	I 	0.0985	0.2731	0.111	-0.156
Mof_I 	I 	0.2642	0.23961	0.2039	-0.38
Mof_I 	I 	0.36921	0.1616	0.3015	-0.408
Mof_I 	I 	0.64587	0.1073	0.49441	-0.231
Mof_I 	I 	0.3831	0.25352	0.43692	0.069
Mof_I 	I 	0.47701	0.33708	0.36496	-0.518
Mof_I 	I 	0.60616	0.2481	0.60575	-0.191
Mof_Zn	Zn	0.32629	0.14855	0.22601	1.164
Mof_Zn	Zn	0.41821	0.37114	0.39994	1.154
Mof_Zn	Zn	0.62329	0.10391	0.5675	1.161
Mof_N 	N 	0.3162	0.0098	0.2162	-0.276
Mof_N 	N 	0.2654	0.6875	0.1872	-0.138
Mof_N 	N 	0.3194	0.6771	0.2456	-0.134
Mof_N 	N 	0.2789	0.5484	0.226	-0.141
Mof_N 	N 	0.3801	0.44	0.3524	-0.275
Mof_N 	N 	0.4307	0.4789	0.4439	-0.273
Mof_N 	N 	0.4247	0.7136	0.5583	-0.132
Mof_N 	N 	0.4765	0.7669	0.5254	-0.148
Mof_N 	N 	0.4595	0.8477	0.5851	-0.132
Mof_N 	N 	0.3602	0.8237	0.6807	-0.281
Mof_N 	N 	0.5769	0.0151	0.56	-0.282
Mof_N 	N 	0.1656	0.4638	0.1105	-0.275
Mof_C 	C 	0.2841	0.975	0.1929	0.083
Mof_H 	H 	0.2655	0.0148	0.178	-0.015
Mof_C 	C 	0.2767	0.8812	0.1895	-0.138
Mof_H 	H 	0.2541	0.8594	0.172	0.088
Mof_C 	C 	0.3033	0.822	0.2123	0.068
Mof_C 	C 	0.3377	0.858	0.2362	-0.132
Mof_H 	H 	0.3568	0.8197	0.2512	0.089
Mof_C 	C 	0.3427	0.9512	0.2373	0.072
Mof_H 	H 	0.3657	0.9748	0.2533	-0.016
Mof_C 	C 	0.2956	0.7232	0.2143	0.101
Mof_C 	C 	0.2586	0.5991	0.1951	0.089
Mof_C 	C 	0.3097	0.5902	0.2497	0.099
Mof_C 	C 	0.3338	0.5365	0.2851	0.066
Mof_C 	C 	0.3241	0.4487	0.2958	-0.14
Mof_H 	H 	0.3019	0.4207	0.2803	0.086
Mof_C 	C 	0.3477	0.4034	0.3296	0.079
Mof_H 	H 	0.3408	0.3449	0.3368	-0.014
Mof_C 	C 	0.39	0.5239	0.3414	0.079
Mof_H 	H 	0.413	0.5491	0.3565	-0.01
Mof_C 	C 	0.3675	0.5754	0.3085	-0.129
Mof_H 	H 	0.3748	0.6343	0.3024	0.096
Mof_C 	C 	0.4635	0.5281	0.4486	0.072
Mof_H 	H 	0.4825	0.5107	0.4331	-0.009
Mof_C 	C 	0.4701	0.6039	0.4757	-0.126
Mof_H 	H 	0.493	0.637	0.478	0.075
Mof_C 	C 	0.442	0.6294	0.4993	0.056
Mof_C 	C 	0.4086	0.579	0.4946	-0.128
Mof_H 	H 	0.3893	0.5945	0.51	0.086
Mof_C 	C 	0.4038	0.5036	0.4663	0.072
Mof_H 	H 	0.381	0.4698	0.4632	-0.012
Mof_C 	C 	0.448	0.7083	0.5296	0.088
Mof_C 	C 	0.4816	0.8345	0.5548	0.081
Mof_C 	C 	0.4321	0.7864	0.5859	0.102
Mof_C 	C 	0.4073	0.7969	0.6189	0.079
Mof_C 	C 	0.3711	0.7575	0.6139	-0.132
Mof_H 	H 	0.3623	0.7195	0.5902	0.093
Mof_C 	C 	0.3477	0.7747	0.6446	0.08
Mof_H 	H 	0.3226	0.7513	0.6398	-0.012
Mof_C 	C 	0.3959	0.8575	0.6862	0.088
Mof_H 	H 	0.4052	0.8906	0.7115	-0.022
Mof_C 	C 	0.42	0.8458	0.6564	-0.138
Mof_H 	H 	0.4448	0.8711	0.6616	0.095
Mof_C 	C 	0.514	0.8972	0.5555	0.068
Mof_C 	C 	0.5327	0.9073	0.5215	-0.156
Mof_H 	H 	0.5247	0.8735	0.4962	0.088
Mof_C 	C 	0.563	0.9666	0.5241	0.091
Mof_H 	H 	0.5746	0.9735	0.4997	-0.014
Mof_C 	C 	0.5593	0.0025	0.5941	0.086
Mof_H 	H 	0.5686	0.0343	0.6198	-0.021
Mof_C 	C 	0.5286	0.9456	0.5931	-0.149
Mof_H 	H 	0.5174	0.9392	0.6177	0.096
Mof_C 	C 	0.1786	0.5466	0.0992	0.069
Mof_H 	H 	0.1673	0.572	0.0724	-0.004
Mof_C 	C 	0.2078	0.5939	0.1261	-0.123
Mof_H 	H 	0.2153	0.6514	0.1182	0.093
Mof_C 	C 	0.2257	0.5535	0.1652	0.057
Mof_C 	C 	0.2128	0.4696	0.1762	-0.136
Mof_H 	H 	0.2245	0.4414	0.2022	0.095
Mof_C 	C 	0.1823	0.4269	0.1484	0.079
Mof_H 	H 	0.1734	0.3709	0.1565	-0.01
Mof_I 	I 	0.6496	0.129	0.5015	-0.112
Mof_I 	I 	0.367	0.2726	0.4415	-0.403
Mof_I 	I 	0.4693	0.3246	0.3782	0.141
Mof_I 	I 	0.5985	0.2269	0.611	-0.156
Mof_I 	I 	0.7642	0.73961	0.2039	-0.38
Mof_I 	I 	0.86921	0.6616	0.3015	-0.408
Mof_I 	I 	0.14587	0.6073	0.49441	-0.231
Mof_I 	I 	0.8831	0.75352	0.43692	0.069
Mof_I 	I 	0.97701	0.83708	0.36496	-0.518
Mof_I 	I 	0.10616	0.7481	0.60575	-0.191
Mof_Zn	Zn	0.82629	0.64855	0.22601	1.164
Mof_Zn	Zn	0.91821	0.87114	0.39994	1.154
Mof_Zn	Zn	0.12329	0.60391	0.5675	1.161
Mof_N 	N 	0.8162	0.5098	0.2162	-0.276
Mof_N 	N 	0.7654	0.1875	0.1872	-0.138
Mof_N 	N 	0.8194	0.1771	0.2456	-0.134
Mof_N 	N 	0.7789	0.0484	0.226	-0.141
Mof_N 	N 	0.8801	0.94	0.3524	-0.275
Mof_N 	N 	0.9307	0.9789	0.4439	-0.273
Mof_N 	N 	0.9247	0.2136	0.5583	-0.132
Mof_N 	N 	0.9765	0.2669	0.5254	-0.148
Mof_N 	N 	0.9595	0.3477	0.5851	-0.132
Mof_N 	N 	0.8602	0.3237	0.6807	-0.281
Mof_N 	N 	0.0769	0.5151	0.56	-0.282
Mof_N 	N 	0.6656	0.9638	0.1105	-0.275
Mof_C 	C 	0.7841	0.475	0.1929	0.084
Mof_H 	H 	0.7655	0.5148	0.178	-0.016
Mof_C 	C 	0.7767	0.3812	0.1895	-0.138
Mof_H 	H 	0.7541	0.3594	0.172	0.088
Mof_C 	C 	0.8033	0.322	0.2123	0.068
Mof_C 	C 	0.8377	0.358	0.2362	-0.132
Mof_H 	H 	0.8568	0.3197	0.2512	0.089
Mof_C 	C 	0.8427	0.4512	0.2373	0.072
Mof_H 	H 	0.8657	0.4748	0.2533	-0.016
Mof_C 	C 	0.7956	0.2232	0.2143	0.101
Mof_C 	C 	0.7586	0.0991	0.1951	0.089
Mof_C 	C 	0.8097	0.0902	0.2497	0.099
Mof_C 	C 	0.8338	0.0365	0.2851	0.066
Mof_C 	C 	0.8241	0.9487	0.2958	-0.14
Mof_H 	H 	0.8019	0.9207	0.2803	0.086
Mof_C 	C 	0.8477	0.9034	0.3296	0.079
Mof_H 	H 	0.8408	0.8449	0.3368	-0.014
Mof_C 	C 	0.89	0.0239	0.3414	0.079
Mof_H 	H 	0.913	0.0491	0.3565	-0.01
Mof_C 	C 	0.8675	0.0754	0.3085	-0.129
Mof_H 	H 	0.8748	0.1343	0.3024	0.096
Mof_C 	C 	0.9635	0.0281	0.4486	0.072
Mof_H 	H 	0.9825	0.0107	0.4331	-0.009
Mof_C 	C 	0.9701	0.1039	0.4757	-0.126
Mof_H 	H 	0.993	0.137	0.478	0.075
Mof_C 	C 	0.942	0.1294	0.4993	0.056
Mof_C 	C 	0.9086	0.079	0.4946	-0.128
Mof_H 	H 	0.8893	0.0945	0.51	0.086
Mof_C 	C 	0.9038	0.0036	0.4663	0.072
Mof_H 	H 	0.881	0.9698	0.4632	-0.012
Mof_C 	C 	0.948	0.2083	0.5296	0.088
Mof_C 	C 	0.9816	0.3345	0.5548	0.081
Mof_C 	C 	0.9321	0.2864	0.5859	0.102
Mof_C 	C 	0.9073	0.2969	0.6189	0.079
Mof_C 	C 	0.8711	0.2575	0.6139	-0.132
Mof_H 	H 	0.8623	0.2195	0.5902	0.093
Mof_C 	C 	0.8477	0.2747	0.6446	0.08
Mof_H 	H 	0.8226	0.2513	0.6398	-0.012
Mof_C 	C 	0.8959	0.3575	0.6862	0.088
Mof_H 	H 	0.9052	0.3906	0.7115	-0.022
Mof_C 	C 	0.92	0.3458	0.6564	-0.138
Mof_H 	H 	0.9448	0.3711	0.6616	0.095
Mof_C 	C 	0.014	0.3972	0.5555	0.068
Mof_C 	C 	0.0327	0.4073	0.5215	-0.156
Mof_H 	H 	0.0247	0.3735	0.4962	0.088
Mof_C 	C 	0.063	0.4666	0.5241	0.091
Mof_H 	H 	0.0746	0.4735	0.4997	-0.014
Mof_C 	C 	0.0593	0.5025	0.5941	0.086
Mof_H 	H 	0.0686	0.5343	0.6198	-0.021
Mof_C 	C 	0.0286	0.4456	0.5931	-0.149
Mof_H 	H 	0.0174	0.4392	0.6177	0.096
Mof_C 	C 	0.6786	0.0466	0.0992	0.069
Mof_H 	H 	0.6673	0.072	0.0724	-0.004
Mof_C 	C 	0.7078	0.0939	0.1261	-0.123
Mof_H 	H 	0.7153	0.1514	0.1182	0.093
Mof_C 	C 	0.7257	0.0535	0.1652	0.057
Mof_C 	C 	0.7128	0.9696	0.1762	-0.136
Mof_H 	H 	0.7245	0.9414	0.2022	0.095
Mof_C 	C 	0.6823	0.9269	0.1484	0.079
Mof_H 	H 	0.6734	0.8709	0.1565	-0.01
Mof_I 	I 	0.1496	0.629	0.5015	-0.112
Mof_I 	I 	0.867	0.7726	0.4415	-0.403
Mof_I 	I 	0.9693	0.8246	0.3782	0.141
Mof_I 	I 	0.0985	0.7269	0.611	-0.156
_end
