data_functionalizedCrystal
_audit_creation_method	'EQeq! by Chris Wilmer'
_symmetry_space_group_name_H-M	'P1'
_symmetry_Int_Tables_number	1
_symmetry_cell_setting	triclinic
loop_
_symmetry_equiv_pos_as_xyz
  x,y,z
_cell_length_a	13.424
_cell_length_b	13.424
_cell_length_c	14.752
_cell_angle_alpha	90
_cell_angle_beta	90
_cell_angle_gamma	120
loop_
_atom_site_label
_atom_site_type_symbol
_atom_site_fract_x
_atom_site_fract_y
_atom_site_fract_z
_atom_site_charge
Mof_O 	O 	0.1985	0.4424	0.1278	-0.437
Mof_O 	O 	0.3614	0.549	0.0593	-0.604
Mof_O 	O 	0.4363	0.6144	0.774	-0.555
Mof_O 	O 	0.5288	0.5993	0.8955	-0.331
Mof_N 	N 	0.348	0.3876	0.943	-0.09
Mof_C 	C 	0.2706	0.4495	0.0699	0.34
Mof_C 	C 	0.2568	0.354	0.008	-0.136
Mof_C 	C 	0.339	0.448	0.86	-0.072
Mof_C 	C 	0.4362	0.5591	0.842	0.404
Mof_O 	O 	0.5576	0.7561	0.1278	-0.398
Mof_O 	O 	0.451	0.8124	0.0593	-0.584
Mof_O 	O 	0.3856	0.8219	0.774	-0.542
Mof_O 	O 	0.4007	0.9295	0.8955	-0.292
Mof_N 	N 	0.6124	0.9604	0.943	-0.068
Mof_C 	C 	0.5505	0.8211	0.0699	0.334
Mof_C 	C 	0.646	0.9028	0.008	-0.061
Mof_C 	C 	0.552	0.891	0.86	-0.032
Mof_C 	C 	0.4409	0.8771	0.842	0.399
Mof_O 	O 	0.2439	0.8015	0.1278	-0.397
Mof_O 	O 	0.1876	0.6386	0.0593	-0.608
Mof_O 	O 	0.1781	0.5637	0.774	-0.569
Mof_O 	O 	0.0705	0.4712	0.8955	-0.364
Mof_N 	N 	0.0396	0.652	0.943	-0.106
Mof_C 	C 	0.1789	0.7294	0.0699	0.331
Mof_C 	C 	0.0972	0.7432	0.008	-0.115
Mof_C 	C 	0.109	0.661	0.86	-0.074
Mof_C 	C 	0.1229	0.5638	0.842	0.401
Mof_O 	O 	0.4424	0.1985	0.3722	-0.425
Mof_O 	O 	0.549	0.3614	0.4407	-0.575
Mof_O 	O 	0.6144	0.4363	0.726	-0.561
Mof_O 	O 	0.5993	0.5288	0.6045	-0.369
Mof_N 	N 	0.3876	0.348	0.557	-0.155
Mof_C 	C 	0.4495	0.2706	0.4301	0.324
Mof_C 	C 	0.354	0.2568	0.492	-0.034
Mof_C 	C 	0.448	0.339	0.64	-0.095
Mof_C 	C 	0.5591	0.4362	0.658	0.403
Mof_O 	O 	0.7561	0.5576	0.3722	-0.387
Mof_O 	O 	0.8124	0.451	0.4407	-0.556
Mof_O 	O 	0.8219	0.3856	0.726	-0.549
Mof_O 	O 	0.9295	0.4007	0.6045	-0.331
Mof_N 	N 	0.9604	0.6124	0.557	-0.131
Mof_C 	C 	0.8211	0.5505	0.4301	0.319
Mof_C 	C 	0.9028	0.646	0.492	0.038
Mof_C 	C 	0.891	0.552	0.64	-0.055
Mof_C 	C 	0.8771	0.4409	0.658	0.397
Mof_O 	O 	0.8015	0.2439	0.3722	-0.387
Mof_O 	O 	0.6386	0.1876	0.4407	-0.58
Mof_O 	O 	0.5637	0.1781	0.726	-0.575
Mof_O 	O 	0.4712	0.0705	0.6045	-0.406
Mof_N 	N 	0.652	0.0396	0.557	-0.172
Mof_C 	C 	0.7294	0.1789	0.4301	0.315
Mof_C 	C 	0.7432	0.0972	0.492	-0.014
Mof_C 	C 	0.661	0.109	0.64	-0.098
Mof_C 	C 	0.5638	0.1229	0.658	0.4
Mof_O 	O 	0.8015	0.5576	0.8722	-0.36
Mof_O 	O 	0.6386	0.451	0.9407	-0.535
Mof_O 	O 	0.5637	0.3856	0.226	-0.567
Mof_O 	O 	0.4712	0.4007	0.1045	-0.4
Mof_N 	N 	0.652	0.6124	0.057	-0.21
Mof_C 	C 	0.7294	0.5505	0.9301	0.301
Mof_C 	C 	0.7432	0.646	0.992	0.13
Mof_C 	C 	0.661	0.552	0.14	-0.092
Mof_C 	C 	0.5638	0.4409	0.158	0.396
Mof_O 	O 	0.4424	0.2439	0.8722	-0.397
Mof_O 	O 	0.549	0.1876	0.9407	-0.547
Mof_O 	O 	0.6144	0.1781	0.226	-0.579
Mof_O 	O 	0.5993	0.0705	0.1045	-0.425
Mof_N 	N 	0.3876	0.0396	0.057	-0.227
Mof_C 	C 	0.4495	0.1789	0.9301	0.306
Mof_C 	C 	0.354	0.0972	0.992	0.064
Mof_C 	C 	0.448	0.109	0.14	-0.131
Mof_C 	C 	0.5591	0.1229	0.158	0.401
Mof_O 	O 	0.7561	0.1985	0.8722	-0.398
Mof_O 	O 	0.8124	0.3614	0.9407	-0.524
Mof_O 	O 	0.8219	0.4363	0.226	-0.552
Mof_O 	O 	0.9295	0.5288	0.1045	-0.35
Mof_N 	N 	0.9604	0.348	0.057	-0.183
Mof_C 	C 	0.8211	0.2706	0.9301	0.311
Mof_C 	C 	0.9028	0.2568	0.992	0.109
Mof_C 	C 	0.891	0.339	0.14	-0.087
Mof_C 	C 	0.8771	0.4362	0.158	0.398
Mof_O 	O 	0.5576	0.8015	0.6278	-0.371
Mof_O 	O 	0.451	0.6386	0.5593	-0.572
Mof_O 	O 	0.3856	0.5637	0.274	-0.561
Mof_O 	O 	0.4007	0.4712	0.3955	-0.377
Mof_N 	N 	0.6124	0.652	0.443	-0.156
Mof_C 	C 	0.5505	0.7294	0.5699	0.315
Mof_C 	C 	0.646	0.7432	0.508	0.027
Mof_C 	C 	0.552	0.661	0.36	-0.073
Mof_C 	C 	0.4409	0.5638	0.342	0.397
Mof_O 	O 	0.2439	0.4424	0.6278	-0.41
Mof_O 	O 	0.1876	0.549	0.5593	-0.584
Mof_O 	O 	0.1781	0.6144	0.274	-0.573
Mof_O 	O 	0.0705	0.5993	0.3955	-0.403
Mof_N 	N 	0.0396	0.3876	0.443	-0.172
Mof_C 	C 	0.1789	0.4495	0.5699	0.321
Mof_C 	C 	0.0972	0.354	0.508	-0.043
Mof_C 	C 	0.109	0.448	0.36	-0.112
Mof_C 	C 	0.1229	0.5591	0.342	0.403
Mof_O 	O 	0.1985	0.7561	0.6278	-0.409
Mof_O 	O 	0.3614	0.8124	0.5593	-0.56
Mof_O 	O 	0.4363	0.8219	0.274	-0.546
Mof_O 	O 	0.5288	0.9295	0.3955	-0.327
Mof_N 	N 	0.348	0.9604	0.443	-0.131
Mof_C 	C 	0.2706	0.8211	0.5699	0.325
Mof_C 	C 	0.2568	0.9028	0.508	0.01
Mof_C 	C 	0.339	0.891	0.36	-0.068
Mof_C 	C 	0.4362	0.8771	0.342	0.4
Mof_Pr	Pr	0.33333	0.66667	0.1688	2.903
Mof_Pr	Pr	0.66667	0.33333	0.3312	2.901
Mof_Pr	Pr	0.66667	0.33333	0.8312	2.918
Mof_Pr	Pr	0.33333	0.66667	0.6688	2.919
Mof_Cu	Cu	0.5	0.5	-0	0.876
Mof_Cu	Cu	0.5	0	-0	0.839
Mof_Cu	Cu	-0	0.5	-0	0.839
Mof_Cu	Cu	0.5	0.5	0.5	0.921
Mof_Cu	Cu	3.14732e-17	0.5	0.5	0.884
Mof_Cu	Cu	0.5	0	0.5	0.883
_end
