# CIF file generated by openbabel 3.1.0, see https://openbabel.org
data_I
_chemical_name_common 'image0'
_cell_length_a 10.9453
_cell_length_b 11.4851
_cell_length_c 13.453
_cell_angle_alpha 69.539
_cell_angle_beta 80.095
_cell_angle_gamma 62.42
_space_group_name_H-M_alt 'P 1'
_space_group_name_Hall 'P 1'
loop_
    _symmetry_equiv_pos_as_xyz
    x,y,z
loop_
    _atom_site_label
    _atom_site_type_symbol
    _atom_site_fract_x
    _atom_site_fract_y
    _atom_site_fract_z
    _atom_site_occupancy
    U1       U        0.63266    0.70178    0.83352    1.000
    Ce1      Ce       0.62199    0.21398    0.77513    1.000
    O1       O        0.85870    0.52870    0.90510    1.000
    O2       O        0.77530    0.48420    0.79440    1.000
    O3       O        0.85640    0.20590    0.76120    1.000
    O4       O        0.90090    0.35530    0.62260    1.000
    O5       O        0.42830    0.90810    0.82750    1.000
    O6       O        0.51550    0.06050    0.77490    1.000
    O7       O        0.47510    0.17410    0.93150    1.000
    O8       O        0.31180    0.21460    0.05380    1.000
    O9       O        0.50860    0.69140    0.71280    1.000
    O10      O        0.42880    0.69820    0.57040    1.000
    O11      O        0.73910    0.62970    0.53390    1.000
    O12      O        0.85630    0.75130    0.47860    1.000
    C1       C        0.00830    0.33590    0.84580    1.000
    C2       C        0.11800    0.31120    0.90490    1.000
    H1       H        0.09970    0.36110    0.95150    1.000
    C3       C        0.25100    0.21510    0.89520    1.000
    C4       C        0.27800    0.13670    0.82670    1.000
    C5       C        0.16710    0.15530    0.77370    1.000
    H2       H        0.18330    0.09870    0.73290    1.000
    C6       C        0.03260    0.25680    0.78060    1.000
    C7       C        0.62010    0.00110    0.45150    1.000
    H3       H        0.70160    0.00260    0.41860    1.000
    C8       C        0.61810    0.87430    0.50360    1.000
    C9       C        0.49460    0.87360    0.55340    1.000
    C10      C        0.87270    0.45470    0.84870    1.000
    C11      C        0.35590    0.19850    0.96220    1.000
    C12      C        0.41910    0.02780    0.80900    1.000
    C13      C        0.92110    0.27490    0.71710    1.000
    C14      C        0.47960    0.74470    0.61640    1.000
    C15      C        0.74220    0.74470    0.50780    1.000
    U2       U        0.36734    0.29822    0.16648    1.000
    Ce2      Ce       0.37801    0.78602    0.22487    1.000
    O13      O        0.14130    0.47130    0.09490    1.000
    O14      O        0.22470    0.51580    0.20560    1.000
    O15      O        0.14360    0.79410    0.23880    1.000
    O16      O        0.09910    0.64470    0.37740    1.000
    O17      O        0.57170    0.09190    0.17250    1.000
    O18      O        0.48450    0.93950    0.22510    1.000
    O19      O        0.52490    0.82590    0.06850    1.000
    O20      O        0.68820    0.78540    0.94620    1.000
    O21      O        0.49140    0.30860    0.28720    1.000
    O22      O        0.57120    0.30180    0.42960    1.000
    O23      O        0.26090    0.37030    0.46610    1.000
    O24      O        0.14370    0.24870    0.52140    1.000
    C16      C        0.99170    0.66410    0.15420    1.000
    C17      C        0.88200    0.68880    0.09510    1.000
    H4       H        0.90030    0.63890    0.04850    1.000
    C18      C        0.74900    0.78490    0.10480    1.000
    C19      C        0.72200    0.86330    0.17330    1.000
    C20      C        0.83290    0.84470    0.22630    1.000
    H5       H        0.81670    0.90130    0.26710    1.000
    C21      C        0.96740    0.74320    0.21940    1.000
    C22      C        0.37990    0.99890    0.54850    1.000
    H6       H        0.29840    0.99740    0.58140    1.000
    C23      C        0.38190    0.12570    0.49640    1.000
    C24      C        0.50540    0.12640    0.44660    1.000
    C25      C        0.12730    0.54530    0.15130    1.000
    C26      C        0.64410    0.80150    0.03780    1.000
    C27      C        0.58090    0.97220    0.19100    1.000
    C28      C        0.07890    0.72510    0.28290    1.000
    C29      C        0.52040    0.25530    0.38360    1.000
    C30      C        0.25780    0.25530    0.49220    1.000
    U3       U        0.00000    0.50000    0.50000    1.000
