data_functionalizedCrystal
_audit_creation_method	'EQeq! by Chris Wilmer'
_symmetry_space_group_name_H-M	'P1'
_symmetry_Int_Tables_number	1
_symmetry_cell_setting	triclinic
loop_
_symmetry_equiv_pos_as_xyz
  x,y,z
_cell_length_a	26.047
_cell_length_b	26.047
_cell_length_c	41.751
_cell_angle_alpha	90
_cell_angle_beta	90
_cell_angle_gamma	120
loop_
_atom_site_label
_atom_site_type_symbol
_atom_site_fract_x
_atom_site_fract_y
_atom_site_fract_z
_atom_site_charge
Mof_Ag	Ag	0.83945	0.65649	0.37964	0.557
Mof_N 	N 	0.42119	0.4982	0.28476	-0.191
Mof_N 	N 	0.52355	0.59059	0.30931	-0.172
Mof_N 	N 	0.74974	0.56751	0.3657	-0.17
Mof_N 	N 	0.84894	0.57531	0.39511	-0.192
Mof_O 	O 	0.5851	0.55216	0.35191	-0.202
Mof_S 	S 	0.48366	0.65946	0.32306	-0.016
Mof_S 	S 	0.68163	0.45695	0.37349	0
Mof_C 	C 	0.37021	0.4503	0.27716	0.075
Mof_H 	H 	0.37117	0.4175	0.26786	-0.012
Mof_C 	C 	0.3154	0.4461	0.28226	-0.129
Mof_H 	H 	0.2798	0.4105	0.27721	0.065
Mof_C 	C 	0.3132	0.4933	0.29454	0.042
Mof_H 	H 	0.2763	0.4916	0.29782	0.009
Mof_C 	C 	0.3659	0.5439	0.30215	-0.131
Mof_H 	H 	0.3657	0.5779	0.31034	0.068
Mof_C 	C 	0.41855	0.5445	0.29771	0.071
Mof_C 	C 	0.47497	0.59399	0.30864	0.016
Mof_C 	C 	0.5554	0.6827	0.33041	-0.105
Mof_H 	H 	0.5823	0.7201	0.33957	0.057
Mof_C 	C 	0.57035	0.64125	0.32157	0.075
Mof_C 	C 	0.62864	0.64573	0.32431	-0.009
Mof_C 	C 	0.63386	0.60079	0.33903	0.076
Mof_C 	C 	0.68828	0.60278	0.33948	-0.007
Mof_C 	C 	0.73723	0.65127	0.32505	-0.182
Mof_H 	H 	0.77437	0.65265	0.32502	0.076
Mof_C 	C 	0.73313	0.69669	0.31099	0.228
Mof_C 	C 	0.67837	0.6933	0.31114	-0.187
Mof_H 	H 	0.67485	0.72472	0.30188	0.082
Mof_C 	C 	0.7861	0.7474	0.29535	-0.587
Mof_H 	H 	0.8222	0.7544	0.3065	0.19
Mof_H 	H 	0.7881	0.7377	0.2729	0.182
Mof_H 	H 	0.7827	0.7831	0.2965	0.186
Mof_C 	C 	0.5642	0.5647	0.38079	-0.118
Mof_H 	H 	0.5974	0.5973	0.3921	0.061
Mof_H 	H 	0.5345	0.576	0.37565	0.059
Mof_H 	H 	0.5462	0.5293	0.3944	0.058
Mof_C 	C 	0.69528	0.55489	0.35439	0.085
Mof_C 	C 	0.65375	0.49677	0.35677	-0.105
Mof_H 	H 	0.61384	0.48045	0.34988	0.08
Mof_C 	C 	0.74931	0.5205	0.37672	0.017
Mof_C 	C 	0.80234	0.52181	0.38985	0.083
Mof_C 	C 	0.80259	0.46956	0.39627	-0.126
Mof_H 	H 	0.76806	0.43207	0.39302	0.073
Mof_C 	C 	0.8546	0.47364	0.40755	0.045
Mof_H 	H 	0.8565	0.43883	0.41208	0.014
Mof_C 	C 	0.90357	0.52879	0.41207	-0.125
Mof_H 	H 	0.93998	0.53275	0.41928	0.062
Mof_C 	C 	0.89868	0.57827	0.40592	0.078
Mof_H 	H 	0.93229	0.61627	0.40955	-0.011
Mof_Ag	Ag	0.50611	0.98982	0.71298	0.558
Mof_N 	N 	0.08786	0.83153	0.61809	-0.19
Mof_N 	N 	0.19022	0.92392	0.64264	-0.171
Mof_N 	N 	0.41641	0.90084	0.69903	-0.169
Mof_N 	N 	0.51561	0.90864	0.72844	-0.191
Mof_O 	O 	0.25177	0.88549	0.68524	-0.202
Mof_S 	S 	0.15033	0.99279	0.65639	-0.015
Mof_S 	S 	0.3483	0.79028	0.70682	0.001
Mof_C 	C 	0.03688	0.78363	0.61049	0.075
Mof_H 	H 	0.03784	0.75083	0.60119	-0.012
Mof_C 	C 	0.98207	0.77943	0.61559	-0.129
Mof_H 	H 	0.94647	0.74383	0.61054	0.065
Mof_C 	C 	0.97987	0.82663	0.62787	0.042
Mof_H 	H 	0.94297	0.82493	0.63115	0.009
Mof_C 	C 	0.03257	0.87723	0.63548	-0.131
Mof_H 	H 	0.03237	0.91123	0.64367	0.068
Mof_C 	C 	0.08522	0.87783	0.63104	0.071
Mof_C 	C 	0.14164	0.92732	0.64197	0.016
Mof_C 	C 	0.22207	0.01603	0.66374	-0.105
Mof_H 	H 	0.24897	0.05343	0.6729	0.057
Mof_C 	C 	0.23702	0.97458	0.6549	0.075
Mof_C 	C 	0.29531	0.97906	0.65764	-0.009
Mof_C 	C 	0.30053	0.93412	0.67236	0.076
Mof_C 	C 	0.35495	0.93611	0.67281	-0.007
Mof_C 	C 	0.4039	0.9846	0.65838	-0.182
Mof_H 	H 	0.44104	0.98598	0.65835	0.076
Mof_C 	C 	0.3998	0.03002	0.64432	0.228
Mof_C 	C 	0.34504	0.02663	0.64447	-0.187
Mof_H 	H 	0.34152	0.05805	0.63521	0.082
Mof_C 	C 	0.45277	0.08073	0.62868	-0.587
Mof_H 	H 	0.48887	0.08773	0.63983	0.19
Mof_H 	H 	0.45477	0.07103	0.60623	0.182
Mof_H 	H 	0.44937	0.11643	0.62983	0.186
Mof_C 	C 	0.23087	0.89803	0.71412	-0.118
Mof_H 	H 	0.26407	0.93063	0.72543	0.061
Mof_H 	H 	0.20117	0.90933	0.70898	0.059
Mof_H 	H 	0.21287	0.86263	0.72773	0.058
Mof_C 	C 	0.36195	0.88822	0.68772	0.085
Mof_C 	C 	0.32042	0.8301	0.6901	-0.105
Mof_H 	H 	0.28051	0.81378	0.68321	0.08
Mof_C 	C 	0.41598	0.85383	0.71005	0.017
Mof_C 	C 	0.46901	0.85514	0.72318	0.083
Mof_C 	C 	0.46926	0.80289	0.7296	-0.126
Mof_H 	H 	0.43473	0.7654	0.72635	0.073
Mof_C 	C 	0.52127	0.80697	0.74088	0.045
Mof_H 	H 	0.52317	0.77216	0.74541	0.014
Mof_C 	C 	0.57024	0.86212	0.7454	-0.125
Mof_H 	H 	0.60665	0.86608	0.75261	0.062
Mof_C 	C 	0.56535	0.9116	0.73925	0.078
Mof_H 	H 	0.59896	0.9496	0.74288	-0.011
Mof_Ag	Ag	0.17278	0.32315	0.04631	0.558
Mof_N 	N 	0.75452	0.16487	0.95143	-0.19
Mof_N 	N 	0.85688	0.25726	0.97598	-0.171
Mof_N 	N 	0.08307	0.23418	0.03237	-0.169
Mof_N 	N 	0.18227	0.24198	0.06178	-0.191
Mof_O 	O 	0.91843	0.21883	0.01858	-0.202
Mof_S 	S 	0.81699	0.32613	0.98973	-0.015
Mof_S 	S 	0.01496	0.12362	0.04016	0.001
Mof_C 	C 	0.70354	0.11697	0.94383	0.075
Mof_H 	H 	0.7045	0.08417	0.93453	-0.012
Mof_C 	C 	0.64873	0.11277	0.94893	-0.129
Mof_H 	H 	0.61313	0.07717	0.94388	0.065
Mof_C 	C 	0.64653	0.15997	0.96121	0.042
Mof_H 	H 	0.60963	0.15827	0.96449	0.009
Mof_C 	C 	0.69923	0.21057	0.96882	-0.131
Mof_H 	H 	0.69903	0.24457	0.97701	0.068
Mof_C 	C 	0.75188	0.21117	0.96438	0.071
Mof_C 	C 	0.8083	0.26066	0.97531	0.016
Mof_C 	C 	0.88873	0.34937	0.99708	-0.105
Mof_H 	H 	0.91563	0.38677	0.00624	0.057
Mof_C 	C 	0.90368	0.30792	0.98824	0.075
Mof_C 	C 	0.96197	0.3124	0.99098	-0.009
Mof_C 	C 	0.96719	0.26746	0.0057	0.076
Mof_C 	C 	0.02161	0.26945	0.00615	-0.007
Mof_C 	C 	0.07056	0.31794	0.99172	-0.182
Mof_H 	H 	0.1077	0.31932	0.99169	0.076
Mof_C 	C 	0.06646	0.36336	0.97766	0.228
Mof_C 	C 	0.0117	0.35997	0.97781	-0.187
Mof_H 	H 	0.00818	0.39139	0.96855	0.082
Mof_C 	C 	0.11943	0.41407	0.96202	-0.587
Mof_H 	H 	0.15553	0.42107	0.97317	0.19
Mof_H 	H 	0.12143	0.40437	0.93957	0.182
Mof_H 	H 	0.11603	0.44977	0.96317	0.186
Mof_C 	C 	0.89753	0.23137	0.04746	-0.118
Mof_H 	H 	0.93073	0.26397	0.05877	0.061
Mof_H 	H 	0.86783	0.24267	0.04232	0.059
Mof_H 	H 	0.87953	0.19597	0.06107	0.058
Mof_C 	C 	0.02861	0.22156	0.02106	0.085
Mof_C 	C 	0.98708	0.16344	0.02344	-0.105
Mof_H 	H 	0.94717	0.14712	0.01655	0.08
Mof_C 	C 	0.08264	0.18717	0.04339	0.017
Mof_C 	C 	0.13567	0.18848	0.05652	0.083
Mof_C 	C 	0.13592	0.13623	0.06294	-0.126
Mof_H 	H 	0.10139	0.09874	0.05969	0.073
Mof_C 	C 	0.18793	0.14031	0.07422	0.045
Mof_H 	H 	0.18983	0.1055	0.07875	0.014
Mof_C 	C 	0.2369	0.19546	0.07874	-0.125
Mof_H 	H 	0.27331	0.19942	0.08595	0.062
Mof_C 	C 	0.23201	0.24494	0.07259	0.078
Mof_H 	H 	0.26562	0.28294	0.07622	-0.011
Mof_Ag	Ag	0.34351	0.18296	0.37964	0.558
Mof_N 	N 	0.5018	0.92299	0.28476	-0.19
Mof_N 	N 	0.40941	0.93296	0.30931	-0.171
Mof_N 	N 	0.43249	0.18223	0.3657	-0.169
Mof_N 	N 	0.42469	0.27363	0.39511	-0.191
Mof_O 	O 	0.44784	0.03294	0.35191	-0.201
Mof_S 	S 	0.34054	0.8242	0.32306	-0.015
Mof_S 	S 	0.54305	0.22468	0.37349	0.001
Mof_C 	C 	0.5497	0.91991	0.27716	0.075
Mof_H 	H 	0.5825	0.95367	0.26786	-0.012
Mof_C 	C 	0.5539	0.8693	0.28226	-0.129
Mof_H 	H 	0.5895	0.8693	0.27721	0.065
Mof_C 	C 	0.5067	0.8199	0.29454	0.042
Mof_H 	H 	0.5084	0.7847	0.29782	0.009
Mof_C 	C 	0.4561	0.822	0.30215	-0.131
Mof_H 	H 	0.4221	0.7878	0.31034	0.068
Mof_C 	C 	0.4555	0.87405	0.29771	0.071
Mof_C 	C 	0.40601	0.88098	0.30864	0.016
Mof_C 	C 	0.3173	0.8727	0.33041	-0.105
Mof_H 	H 	0.2799	0.8622	0.33957	0.057
Mof_C 	C 	0.35875	0.9291	0.32157	0.075
Mof_C 	C 	0.35427	0.98291	0.32431	-0.009
Mof_C 	C 	0.39921	0.03307	0.33903	0.076
Mof_C 	C 	0.39722	0.0855	0.33948	-0.007
Mof_C 	C 	0.34873	0.08596	0.32505	-0.182
Mof_H 	H 	0.34735	0.12172	0.32502	0.076
Mof_C 	C 	0.30331	0.03644	0.31099	0.228
Mof_C 	C 	0.3067	0.98507	0.31114	-0.187
Mof_H 	H 	0.27528	0.95013	0.30188	0.082
Mof_C 	C 	0.2526	0.0387	0.29535	-0.587
Mof_H 	H 	0.2456	0.0678	0.3065	0.19
Mof_H 	H 	0.2623	0.0504	0.2729	0.182
Mof_H 	H 	0.2169	0.9996	0.2965	0.186
Mof_C 	C 	0.4353	0.9995	0.38079	-0.118
Mof_H 	H 	0.4027	0.0001	0.3921	0.061
Mof_H 	H 	0.424	0.9585	0.37565	0.059
Mof_H 	H 	0.4707	0.0169	0.3944	0.058
Mof_C 	C 	0.44511	0.14039	0.35439	0.085
Mof_C 	C 	0.50323	0.15698	0.35677	-0.105
Mof_H 	H 	0.51955	0.13339	0.34988	0.08
Mof_C 	C 	0.4795	0.22881	0.37672	0.017
Mof_C 	C 	0.47819	0.28053	0.38985	0.083
Mof_C 	C 	0.53044	0.33303	0.39627	-0.126
Mof_H 	H 	0.56793	0.33599	0.39302	0.073
Mof_C 	C 	0.52636	0.38096	0.40755	0.045
Mof_H 	H 	0.56117	0.41767	0.41208	0.014
Mof_C 	C 	0.47121	0.37478	0.41207	-0.125
Mof_H 	H 	0.46725	0.40723	0.41928	0.062
Mof_C 	C 	0.42173	0.32041	0.40592	0.078
Mof_H 	H 	0.38373	0.31602	0.40955	-0.011
Mof_Ag	Ag	0.01018	0.51629	0.71298	0.558
Mof_N 	N 	0.16847	0.25632	0.61809	-0.19
Mof_N 	N 	0.07608	0.26629	0.64264	-0.171
Mof_N 	N 	0.09916	0.51556	0.69903	-0.169
Mof_N 	N 	0.09136	0.60696	0.72844	-0.191
Mof_O 	O 	0.11451	0.36627	0.68524	-0.202
Mof_S 	S 	0.00721	0.15753	0.65639	-0.015
Mof_S 	S 	0.20972	0.55801	0.70682	0.001
Mof_C 	C 	0.21637	0.25324	0.61049	0.075
Mof_H 	H 	0.24917	0.287	0.60119	-0.012
Mof_C 	C 	0.22057	0.20263	0.61559	-0.129
Mof_H 	H 	0.25617	0.20263	0.61054	0.065
Mof_C 	C 	0.17337	0.15323	0.62787	0.042
Mof_H 	H 	0.17507	0.11803	0.63115	0.009
Mof_C 	C 	0.12277	0.15533	0.63548	-0.131
Mof_H 	H 	0.08877	0.12113	0.64367	0.068
Mof_C 	C 	0.12217	0.20738	0.63104	0.071
Mof_C 	C 	0.07268	0.21431	0.64197	0.016
Mof_C 	C 	0.98397	0.20603	0.66374	-0.105
Mof_H 	H 	0.94657	0.19553	0.6729	0.057
Mof_C 	C 	0.02542	0.26243	0.6549	0.075
Mof_C 	C 	0.02094	0.31624	0.65764	-0.009
Mof_C 	C 	0.06588	0.3664	0.67236	0.076
Mof_C 	C 	0.06389	0.41883	0.67281	-0.007
Mof_C 	C 	0.0154	0.41929	0.65838	-0.182
Mof_H 	H 	0.01402	0.45505	0.65835	0.076
Mof_C 	C 	0.96998	0.36977	0.64432	0.228
Mof_C 	C 	0.97337	0.3184	0.64447	-0.187
Mof_H 	H 	0.94195	0.28346	0.63521	0.082
Mof_C 	C 	0.91927	0.37203	0.62868	-0.587
Mof_H 	H 	0.91227	0.40113	0.63983	0.19
Mof_H 	H 	0.92897	0.38373	0.60623	0.182
Mof_H 	H 	0.88357	0.33293	0.62983	0.186
Mof_C 	C 	0.10197	0.33283	0.71412	-0.118
Mof_H 	H 	0.06937	0.33343	0.72543	0.061
Mof_H 	H 	0.09067	0.29183	0.70898	0.059
Mof_H 	H 	0.13737	0.35023	0.72773	0.058
Mof_C 	C 	0.11178	0.47372	0.68772	0.085
Mof_C 	C 	0.1699	0.49031	0.6901	-0.105
Mof_H 	H 	0.18622	0.46672	0.68321	0.08
Mof_C 	C 	0.14617	0.56214	0.71005	0.017
Mof_C 	C 	0.14486	0.61386	0.72318	0.083
Mof_C 	C 	0.19711	0.66636	0.7296	-0.126
Mof_H 	H 	0.2346	0.66932	0.72635	0.073
Mof_C 	C 	0.19303	0.71429	0.74088	0.045
Mof_H 	H 	0.22784	0.751	0.74541	0.014
Mof_C 	C 	0.13788	0.70811	0.7454	-0.125
Mof_H 	H 	0.13392	0.74056	0.75261	0.062
Mof_C 	C 	0.0884	0.65374	0.73925	0.078
Mof_H 	H 	0.0504	0.64935	0.74288	-0.011
Mof_Ag	Ag	0.67685	0.84963	0.04631	0.558
Mof_N 	N 	0.83513	0.58966	0.95143	-0.19
Mof_N 	N 	0.74274	0.59963	0.97598	-0.171
Mof_N 	N 	0.76582	0.8489	0.03237	-0.169
Mof_N 	N 	0.75802	0.9403	0.06178	-0.191
Mof_O 	O 	0.78117	0.69961	0.01858	-0.202
Mof_S 	S 	0.67387	0.49087	0.98973	-0.015
Mof_S 	S 	0.87638	0.89135	0.04016	0.001
Mof_C 	C 	0.88303	0.58658	0.94383	0.075
Mof_H 	H 	0.91583	0.62034	0.93453	-0.012
Mof_C 	C 	0.88723	0.53597	0.94893	-0.129
Mof_H 	H 	0.92283	0.53597	0.94388	0.065
Mof_C 	C 	0.84003	0.48657	0.96121	0.042
Mof_H 	H 	0.84173	0.45137	0.96449	0.009
Mof_C 	C 	0.78943	0.48867	0.96882	-0.131
Mof_H 	H 	0.75543	0.45447	0.97701	0.068
Mof_C 	C 	0.78883	0.54072	0.96438	0.071
Mof_C 	C 	0.73934	0.54765	0.97531	0.016
Mof_C 	C 	0.65063	0.53937	0.99708	-0.105
Mof_H 	H 	0.61323	0.52887	0.00624	0.057
Mof_C 	C 	0.69208	0.59577	0.98824	0.075
Mof_C 	C 	0.6876	0.64958	0.99098	-0.009
Mof_C 	C 	0.73254	0.69974	0.0057	0.076
Mof_C 	C 	0.73055	0.75217	0.00615	-0.007
Mof_C 	C 	0.68206	0.75263	0.99172	-0.182
Mof_H 	H 	0.68068	0.78839	0.99169	0.076
Mof_C 	C 	0.63664	0.70311	0.97766	0.228
Mof_C 	C 	0.64003	0.65174	0.97781	-0.187
Mof_H 	H 	0.60861	0.6168	0.96855	0.082
Mof_C 	C 	0.58593	0.70537	0.96202	-0.587
Mof_H 	H 	0.57893	0.73447	0.97317	0.19
Mof_H 	H 	0.59563	0.71707	0.93957	0.182
Mof_H 	H 	0.55023	0.66627	0.96317	0.186
Mof_C 	C 	0.76863	0.66617	0.04746	-0.118
Mof_H 	H 	0.73603	0.66677	0.05877	0.061
Mof_H 	H 	0.75733	0.62517	0.04232	0.059
Mof_H 	H 	0.80403	0.68357	0.06107	0.058
Mof_C 	C 	0.77844	0.80706	0.02106	0.085
Mof_C 	C 	0.83656	0.82365	0.02344	-0.105
Mof_H 	H 	0.85288	0.80006	0.01655	0.08
Mof_C 	C 	0.81283	0.89548	0.04339	0.017
Mof_C 	C 	0.81152	0.9472	0.05652	0.083
Mof_C 	C 	0.86377	0.9997	0.06294	-0.126
Mof_H 	H 	0.90126	0.00266	0.05969	0.073
Mof_C 	C 	0.85969	0.04763	0.07422	0.045
Mof_H 	H 	0.8945	0.08434	0.07875	0.014
Mof_C 	C 	0.80454	0.04145	0.07874	-0.125
Mof_H 	H 	0.80058	0.0739	0.08595	0.062
Mof_C 	C 	0.75506	0.98708	0.07259	0.078
Mof_H 	H 	0.71706	0.98269	0.07622	-0.011
Mof_Ag	Ag	0.81704	0.16055	0.37964	0.558
Mof_N 	N 	0.07701	0.57881	0.28476	-0.19
Mof_N 	N 	0.06704	0.47645	0.30931	-0.171
Mof_N 	N 	0.81777	0.25026	0.3657	-0.169
Mof_N 	N 	0.72637	0.15106	0.39511	-0.191
Mof_O 	O 	0.96706	0.4149	0.35191	-0.201
Mof_S 	S 	0.1758	0.51634	0.32306	-0.015
Mof_S 	S 	0.77532	0.31837	0.37349	0.001
Mof_C 	C 	0.08009	0.62979	0.27716	0.075
Mof_H 	H 	0.04633	0.62883	0.26786	-0.012
Mof_C 	C 	0.1307	0.6846	0.28226	-0.129
Mof_H 	H 	0.1307	0.7202	0.27721	0.065
Mof_C 	C 	0.1801	0.6868	0.29454	0.042
Mof_H 	H 	0.2153	0.7237	0.29782	0.009
Mof_C 	C 	0.178	0.6341	0.30215	-0.131
Mof_H 	H 	0.2122	0.6343	0.31034	0.068
Mof_C 	C 	0.12595	0.58145	0.29771	0.071
Mof_C 	C 	0.11902	0.52503	0.30864	0.016
Mof_C 	C 	0.1273	0.4446	0.33041	-0.105
Mof_H 	H 	0.1378	0.4177	0.33957	0.057
Mof_C 	C 	0.0709	0.42965	0.32157	0.075
Mof_C 	C 	0.01709	0.37136	0.32431	-0.009
Mof_C 	C 	0.96693	0.36614	0.33903	0.076
Mof_C 	C 	0.9145	0.31172	0.33948	-0.007
Mof_C 	C 	0.91404	0.26277	0.32505	-0.182
Mof_H 	H 	0.87828	0.22563	0.32502	0.076
Mof_C 	C 	0.96356	0.26687	0.31099	0.228
Mof_C 	C 	0.01493	0.32163	0.31114	-0.187
Mof_H 	H 	0.04987	0.32515	0.30188	0.082
Mof_C 	C 	0.9613	0.2139	0.29535	-0.587
Mof_H 	H 	0.9322	0.1778	0.3065	0.19
Mof_H 	H 	0.9496	0.2119	0.2729	0.182
Mof_H 	H 	0.0004	0.2173	0.2965	0.186
Mof_C 	C 	0.0005	0.4358	0.38079	-0.118
Mof_H 	H 	0.9999	0.4026	0.3921	0.061
Mof_H 	H 	0.0415	0.4655	0.37565	0.059
Mof_H 	H 	0.9831	0.4538	0.3944	0.058
Mof_C 	C 	0.85961	0.30472	0.35439	0.085
Mof_C 	C 	0.84302	0.34625	0.35677	-0.105
Mof_H 	H 	0.86661	0.38616	0.34988	0.08
Mof_C 	C 	0.77119	0.25069	0.37672	0.017
Mof_C 	C 	0.71947	0.19766	0.38985	0.083
Mof_C 	C 	0.66697	0.19741	0.39627	-0.126
Mof_H 	H 	0.66401	0.23194	0.39302	0.073
Mof_C 	C 	0.61904	0.1454	0.40755	0.045
Mof_H 	H 	0.58233	0.1435	0.41208	0.014
Mof_C 	C 	0.62522	0.09643	0.41207	-0.125
Mof_H 	H 	0.59277	0.06002	0.41928	0.062
Mof_C 	C 	0.67959	0.10132	0.40592	0.078
Mof_H 	H 	0.68398	0.06771	0.40955	-0.011
Mof_Ag	Ag	0.48371	0.49389	0.71298	0.558
Mof_N 	N 	0.74368	0.91214	0.61809	-0.19
Mof_N 	N 	0.73371	0.80978	0.64264	-0.171
Mof_N 	N 	0.48444	0.58359	0.69903	-0.169
Mof_N 	N 	0.39304	0.48439	0.72844	-0.191
Mof_O 	O 	0.63373	0.74823	0.68524	-0.202
Mof_S 	S 	0.84247	0.84967	0.65639	-0.015
Mof_S 	S 	0.44199	0.6517	0.70682	0.001
Mof_C 	C 	0.74676	0.96312	0.61049	0.075
Mof_H 	H 	0.713	0.96216	0.60119	-0.012
Mof_C 	C 	0.79737	0.01793	0.61559	-0.129
Mof_H 	H 	0.79737	0.05353	0.61054	0.065
Mof_C 	C 	0.84677	0.02013	0.62787	0.042
Mof_H 	H 	0.88197	0.05703	0.63115	0.009
Mof_C 	C 	0.84467	0.96743	0.63548	-0.131
Mof_H 	H 	0.87887	0.96763	0.64367	0.068
Mof_C 	C 	0.79262	0.91478	0.63104	0.071
Mof_C 	C 	0.78569	0.85836	0.64197	0.016
Mof_C 	C 	0.79397	0.77793	0.66374	-0.105
Mof_H 	H 	0.80447	0.75103	0.6729	0.057
Mof_C 	C 	0.73757	0.76298	0.6549	0.075
Mof_C 	C 	0.68376	0.70469	0.65764	-0.009
Mof_C 	C 	0.6336	0.69947	0.67236	0.076
Mof_C 	C 	0.58117	0.64505	0.67281	-0.007
Mof_C 	C 	0.58071	0.5961	0.65838	-0.182
Mof_H 	H 	0.54495	0.55896	0.65835	0.076
Mof_C 	C 	0.63023	0.6002	0.64432	0.228
Mof_C 	C 	0.6816	0.65496	0.64447	-0.187
Mof_H 	H 	0.71654	0.65848	0.63521	0.082
Mof_C 	C 	0.62797	0.54723	0.62868	-0.587
Mof_H 	H 	0.59887	0.51113	0.63983	0.19
Mof_H 	H 	0.61627	0.54523	0.60623	0.182
Mof_H 	H 	0.66707	0.55063	0.62983	0.186
Mof_C 	C 	0.66717	0.76913	0.71412	-0.118
Mof_H 	H 	0.66657	0.73593	0.72543	0.061
Mof_H 	H 	0.70817	0.79883	0.70898	0.059
Mof_H 	H 	0.64977	0.78713	0.72773	0.058
Mof_C 	C 	0.52628	0.63805	0.68772	0.085
Mof_C 	C 	0.50969	0.67958	0.6901	-0.105
Mof_H 	H 	0.53328	0.71949	0.68321	0.08
Mof_C 	C 	0.43786	0.58402	0.71005	0.017
Mof_C 	C 	0.38614	0.53099	0.72318	0.083
Mof_C 	C 	0.33364	0.53074	0.7296	-0.126
Mof_H 	H 	0.33068	0.56527	0.72635	0.073
Mof_C 	C 	0.28571	0.47873	0.74088	0.045
Mof_H 	H 	0.249	0.47683	0.74541	0.014
Mof_C 	C 	0.29189	0.42976	0.7454	-0.125
Mof_H 	H 	0.25944	0.39335	0.75261	0.062
Mof_C 	C 	0.34626	0.43465	0.73925	0.078
Mof_H 	H 	0.35065	0.40104	0.74288	-0.011
Mof_Ag	Ag	0.15037	0.82722	0.04631	0.558
Mof_N 	N 	0.41034	0.24548	0.95143	-0.19
Mof_N 	N 	0.40037	0.14312	0.97598	-0.171
Mof_N 	N 	0.1511	0.91693	0.03237	-0.169
Mof_N 	N 	0.0597	0.81773	0.06178	-0.191
Mof_O 	O 	0.30039	0.08157	0.01858	-0.202
Mof_S 	S 	0.50913	0.18301	0.98973	-0.015
Mof_S 	S 	0.10865	0.98504	0.04016	0.001
Mof_C 	C 	0.41342	0.29646	0.94383	0.075
Mof_H 	H 	0.37966	0.2955	0.93453	-0.012
Mof_C 	C 	0.46403	0.35127	0.94893	-0.129
Mof_H 	H 	0.46403	0.38687	0.94388	0.065
Mof_C 	C 	0.51343	0.35347	0.96121	0.042
Mof_H 	H 	0.54863	0.39037	0.96449	0.009
Mof_C 	C 	0.51133	0.30077	0.96882	-0.131
Mof_H 	H 	0.54553	0.30097	0.97701	0.068
Mof_C 	C 	0.45928	0.24812	0.96438	0.071
Mof_C 	C 	0.45235	0.1917	0.97531	0.016
Mof_C 	C 	0.46063	0.11127	0.99708	-0.105
Mof_H 	H 	0.47113	0.08437	0.00624	0.057
Mof_C 	C 	0.40423	0.09632	0.98824	0.075
Mof_C 	C 	0.35042	0.03803	0.99098	-0.009
Mof_C 	C 	0.30026	0.03281	0.0057	0.076
Mof_C 	C 	0.24783	0.97839	0.00615	-0.007
Mof_C 	C 	0.24737	0.92944	0.99172	-0.182
Mof_H 	H 	0.21161	0.8923	0.99169	0.076
Mof_C 	C 	0.29689	0.93354	0.97766	0.228
Mof_C 	C 	0.34826	0.9883	0.97781	-0.187
Mof_H 	H 	0.3832	0.99182	0.96855	0.082
Mof_C 	C 	0.29463	0.88057	0.96202	-0.587
Mof_H 	H 	0.26553	0.84447	0.97317	0.19
Mof_H 	H 	0.28293	0.87857	0.93957	0.182
Mof_H 	H 	0.33373	0.88397	0.96317	0.186
Mof_C 	C 	0.33383	0.10247	0.04746	-0.118
Mof_H 	H 	0.33323	0.06927	0.05877	0.061
Mof_H 	H 	0.37483	0.13217	0.04232	0.059
Mof_H 	H 	0.31643	0.12047	0.06107	0.058
Mof_C 	C 	0.19294	0.97139	0.02106	0.085
Mof_C 	C 	0.17635	0.01292	0.02344	-0.105
Mof_H 	H 	0.19994	0.05283	0.01655	0.08
Mof_C 	C 	0.10452	0.91736	0.04339	0.017
Mof_C 	C 	0.0528	0.86433	0.05652	0.083
Mof_C 	C 	0.0003	0.86408	0.06294	-0.126
Mof_H 	H 	0.99734	0.89861	0.05969	0.073
Mof_C 	C 	0.95237	0.81207	0.07422	0.045
Mof_H 	H 	0.91566	0.81017	0.07875	0.014
Mof_C 	C 	0.95855	0.7631	0.07874	-0.125
Mof_H 	H 	0.9261	0.72669	0.08595	0.062
Mof_C 	C 	0.01292	0.76799	0.07259	0.078
Mof_H 	H 	0.01731	0.73438	0.07622	-0.011
Mof_Ag	Ag	0.65649	0.83945	0.12036	0.558
Mof_N 	N 	0.4982	0.42119	0.21524	-0.19
Mof_N 	N 	0.59059	0.52355	0.19069	-0.171
Mof_N 	N 	0.56751	0.74974	0.1343	-0.169
Mof_N 	N 	0.57531	0.84894	0.10489	-0.191
Mof_O 	O 	0.55216	0.5851	0.14809	-0.201
Mof_S 	S 	0.65946	0.48366	0.17694	-0.015
Mof_S 	S 	0.45695	0.68163	0.12651	0.001
Mof_C 	C 	0.4503	0.37021	0.22284	0.075
Mof_H 	H 	0.4175	0.37117	0.23214	-0.012
Mof_C 	C 	0.4461	0.3154	0.21774	-0.129
Mof_H 	H 	0.4105	0.2798	0.22279	0.065
Mof_C 	C 	0.4933	0.3132	0.20546	0.042
Mof_H 	H 	0.4916	0.2763	0.20218	0.009
Mof_C 	C 	0.5439	0.3659	0.19785	-0.131
Mof_H 	H 	0.5779	0.3657	0.18966	0.068
Mof_C 	C 	0.5445	0.41855	0.20229	0.071
Mof_C 	C 	0.59399	0.47497	0.19136	0.016
Mof_C 	C 	0.6827	0.5554	0.16959	-0.105
Mof_H 	H 	0.7201	0.5823	0.16043	0.057
Mof_C 	C 	0.64125	0.57035	0.17843	0.075
Mof_C 	C 	0.64573	0.62864	0.17569	-0.009
Mof_C 	C 	0.60079	0.63386	0.16097	0.076
Mof_C 	C 	0.60278	0.68828	0.16052	-0.007
Mof_C 	C 	0.65127	0.73723	0.17495	-0.182
Mof_H 	H 	0.65265	0.77437	0.17498	0.076
Mof_C 	C 	0.69669	0.73313	0.18901	0.228
Mof_C 	C 	0.6933	0.67837	0.18886	-0.187
Mof_H 	H 	0.72472	0.67485	0.19812	0.082
Mof_C 	C 	0.7474	0.7861	0.20465	-0.587
Mof_H 	H 	0.7544	0.8222	0.1935	0.19
Mof_H 	H 	0.7377	0.7881	0.2271	0.182
Mof_H 	H 	0.7831	0.7827	0.2035	0.186
Mof_C 	C 	0.5647	0.5642	0.11921	-0.118
Mof_H 	H 	0.5973	0.5974	0.1079	0.061
Mof_H 	H 	0.576	0.5345	0.12435	0.059
Mof_H 	H 	0.5293	0.5462	0.1056	0.058
Mof_C 	C 	0.55489	0.69528	0.14561	0.085
Mof_C 	C 	0.49677	0.65375	0.14323	-0.105
Mof_H 	H 	0.48045	0.61384	0.15012	0.08
Mof_C 	C 	0.5205	0.74931	0.12328	0.017
Mof_C 	C 	0.52181	0.80234	0.11015	0.083
Mof_C 	C 	0.46956	0.80259	0.10373	-0.126
Mof_H 	H 	0.43207	0.76806	0.10698	0.073
Mof_C 	C 	0.47364	0.8546	0.09245	0.045
Mof_H 	H 	0.43883	0.8565	0.08792	0.014
Mof_C 	C 	0.52879	0.90357	0.08793	-0.125
Mof_H 	H 	0.53275	0.93998	0.08072	0.062
Mof_C 	C 	0.57827	0.89868	0.09408	0.078
Mof_H 	H 	0.61627	0.93229	0.09045	-0.011
Mof_Ag	Ag	0.32315	0.17278	0.45369	0.558
Mof_N 	N 	0.16487	0.75452	0.54857	-0.19
Mof_N 	N 	0.25726	0.85688	0.52402	-0.171
Mof_N 	N 	0.23418	0.08307	0.46763	-0.169
Mof_N 	N 	0.24198	0.18227	0.43822	-0.191
Mof_O 	O 	0.21883	0.91843	0.48142	-0.202
Mof_S 	S 	0.32613	0.81699	0.51027	-0.015
Mof_S 	S 	0.12362	0.01496	0.45984	0.001
Mof_C 	C 	0.11697	0.70354	0.55617	0.075
Mof_H 	H 	0.08417	0.7045	0.56547	-0.012
Mof_C 	C 	0.11277	0.64873	0.55107	-0.129
Mof_H 	H 	0.07717	0.61313	0.55612	0.065
Mof_C 	C 	0.15997	0.64653	0.53879	0.042
Mof_H 	H 	0.15827	0.60963	0.53551	0.009
Mof_C 	C 	0.21057	0.69923	0.53118	-0.131
Mof_H 	H 	0.24457	0.69903	0.52299	0.068
Mof_C 	C 	0.21117	0.75188	0.53562	0.071
Mof_C 	C 	0.26066	0.8083	0.52469	0.016
Mof_C 	C 	0.34937	0.88873	0.50292	-0.105
Mof_H 	H 	0.38677	0.91563	0.49376	0.057
Mof_C 	C 	0.30792	0.90368	0.51176	0.075
Mof_C 	C 	0.3124	0.96197	0.50902	-0.009
Mof_C 	C 	0.26746	0.96719	0.4943	0.076
Mof_C 	C 	0.26945	0.02161	0.49385	-0.007
Mof_C 	C 	0.31794	0.07056	0.50828	-0.182
Mof_H 	H 	0.31932	0.1077	0.50831	0.076
Mof_C 	C 	0.36336	0.06646	0.52234	0.228
Mof_C 	C 	0.35997	0.0117	0.52219	-0.187
Mof_H 	H 	0.39139	0.00818	0.53145	0.082
Mof_C 	C 	0.41407	0.11943	0.53798	-0.587
Mof_H 	H 	0.42107	0.15553	0.52683	0.19
Mof_H 	H 	0.40437	0.12143	0.56043	0.182
Mof_H 	H 	0.44977	0.11603	0.53683	0.186
Mof_C 	C 	0.23137	0.89753	0.45254	-0.118
Mof_H 	H 	0.26397	0.93073	0.44123	0.061
Mof_H 	H 	0.24267	0.86783	0.45768	0.059
Mof_H 	H 	0.19597	0.87953	0.43893	0.058
Mof_C 	C 	0.22156	0.02861	0.47894	0.085
Mof_C 	C 	0.16344	0.98708	0.47656	-0.105
Mof_H 	H 	0.14712	0.94717	0.48345	0.08
Mof_C 	C 	0.18717	0.08264	0.45661	0.017
Mof_C 	C 	0.18848	0.13567	0.44348	0.083
Mof_C 	C 	0.13623	0.13592	0.43706	-0.126
Mof_H 	H 	0.09874	0.10139	0.44031	0.073
Mof_C 	C 	0.14031	0.18793	0.42578	0.045
Mof_H 	H 	0.1055	0.18983	0.42125	0.014
Mof_C 	C 	0.19546	0.2369	0.42126	-0.125
Mof_H 	H 	0.19942	0.27331	0.41405	0.062
Mof_C 	C 	0.24494	0.23201	0.42741	0.078
Mof_H 	H 	0.28294	0.26562	0.42378	-0.011
Mof_Ag	Ag	0.98982	0.50611	0.78702	0.558
Mof_N 	N 	0.83153	0.08786	0.88191	-0.19
Mof_N 	N 	0.92392	0.19022	0.85736	-0.171
Mof_N 	N 	0.90084	0.41641	0.80097	-0.169
Mof_N 	N 	0.90864	0.51561	0.77156	-0.191
Mof_O 	O 	0.88549	0.25177	0.81476	-0.202
Mof_S 	S 	0.99279	0.15033	0.84361	-0.015
Mof_S 	S 	0.79028	0.3483	0.79318	0.001
Mof_C 	C 	0.78363	0.03688	0.88951	0.075
Mof_H 	H 	0.75083	0.03784	0.89881	-0.012
Mof_C 	C 	0.77943	0.98207	0.88441	-0.129
Mof_H 	H 	0.74383	0.94647	0.88946	0.065
Mof_C 	C 	0.82663	0.97987	0.87213	0.042
Mof_H 	H 	0.82493	0.94297	0.86885	0.009
Mof_C 	C 	0.87723	0.03257	0.86452	-0.131
Mof_H 	H 	0.91123	0.03237	0.85633	0.068
Mof_C 	C 	0.87783	0.08522	0.86896	0.071
Mof_C 	C 	0.92732	0.14164	0.85803	0.016
Mof_C 	C 	0.01603	0.22207	0.83626	-0.105
Mof_H 	H 	0.05343	0.24897	0.8271	0.057
Mof_C 	C 	0.97458	0.23702	0.8451	0.075
Mof_C 	C 	0.97906	0.29531	0.84236	-0.009
Mof_C 	C 	0.93412	0.30053	0.82764	0.076
Mof_C 	C 	0.93611	0.35495	0.82719	-0.007
Mof_C 	C 	0.9846	0.4039	0.84162	-0.182
Mof_H 	H 	0.98598	0.44104	0.84165	0.076
Mof_C 	C 	0.03002	0.3998	0.85568	0.228
Mof_C 	C 	0.02663	0.34504	0.85553	-0.187
Mof_H 	H 	0.05805	0.34152	0.86479	0.082
Mof_C 	C 	0.08073	0.45277	0.87132	-0.587
Mof_H 	H 	0.08773	0.48887	0.86017	0.19
Mof_H 	H 	0.07103	0.45477	0.89377	0.182
Mof_H 	H 	0.11643	0.44937	0.87017	0.186
Mof_C 	C 	0.89803	0.23087	0.78588	-0.118
Mof_H 	H 	0.93063	0.26407	0.77457	0.061
Mof_H 	H 	0.90933	0.20117	0.79102	0.059
Mof_H 	H 	0.86263	0.21287	0.77227	0.058
Mof_C 	C 	0.88822	0.36195	0.81228	0.085
Mof_C 	C 	0.8301	0.32042	0.8099	-0.105
Mof_H 	H 	0.81378	0.28051	0.81679	0.08
Mof_C 	C 	0.85383	0.41598	0.78995	0.017
Mof_C 	C 	0.85514	0.46901	0.77682	0.083
Mof_C 	C 	0.80289	0.46926	0.7704	-0.126
Mof_H 	H 	0.7654	0.43473	0.77365	0.073
Mof_C 	C 	0.80697	0.52127	0.75912	0.045
Mof_H 	H 	0.77216	0.52317	0.75459	0.014
Mof_C 	C 	0.86212	0.57024	0.7546	-0.125
Mof_H 	H 	0.86608	0.60665	0.74739	0.062
Mof_C 	C 	0.9116	0.56535	0.76075	0.078
Mof_H 	H 	0.9496	0.59896	0.75712	-0.011
Mof_Ag	Ag	0.18296	0.34351	0.12036	0.558
Mof_N 	N 	0.92299	0.5018	0.21524	-0.19
Mof_N 	N 	0.93296	0.40941	0.19069	-0.171
Mof_N 	N 	0.18223	0.43249	0.1343	-0.169
Mof_N 	N 	0.27363	0.42469	0.10489	-0.191
Mof_O 	O 	0.03294	0.44784	0.14809	-0.202
Mof_S 	S 	0.8242	0.34054	0.17694	-0.015
Mof_S 	S 	0.22468	0.54305	0.12651	0.001
Mof_C 	C 	0.91991	0.5497	0.22284	0.075
Mof_H 	H 	0.95367	0.5825	0.23214	-0.012
Mof_C 	C 	0.8693	0.5539	0.21774	-0.129
Mof_H 	H 	0.8693	0.5895	0.22279	0.065
Mof_C 	C 	0.8199	0.5067	0.20546	0.042
Mof_H 	H 	0.7847	0.5084	0.20218	0.009
Mof_C 	C 	0.822	0.4561	0.19785	-0.131
Mof_H 	H 	0.7878	0.4221	0.18966	0.068
Mof_C 	C 	0.87405	0.4555	0.20229	0.071
Mof_C 	C 	0.88098	0.40601	0.19136	0.016
Mof_C 	C 	0.8727	0.3173	0.16959	-0.105
Mof_H 	H 	0.8622	0.2799	0.16043	0.057
Mof_C 	C 	0.9291	0.35875	0.17843	0.075
Mof_C 	C 	0.98291	0.35427	0.17569	-0.009
Mof_C 	C 	0.03307	0.39921	0.16097	0.076
Mof_C 	C 	0.0855	0.39722	0.16052	-0.007
Mof_C 	C 	0.08596	0.34873	0.17495	-0.182
Mof_H 	H 	0.12172	0.34735	0.17498	0.076
Mof_C 	C 	0.03644	0.30331	0.18901	0.228
Mof_C 	C 	0.98507	0.3067	0.18886	-0.187
Mof_H 	H 	0.95013	0.27528	0.19812	0.082
Mof_C 	C 	0.0387	0.2526	0.20465	-0.587
Mof_H 	H 	0.0678	0.2456	0.1935	0.19
Mof_H 	H 	0.0504	0.2623	0.2271	0.182
Mof_H 	H 	0.9996	0.2169	0.2035	0.186
Mof_C 	C 	0.9995	0.4353	0.11921	-0.118
Mof_H 	H 	0.0001	0.4027	0.1079	0.061
Mof_H 	H 	0.9585	0.424	0.12435	0.059
Mof_H 	H 	0.0169	0.4707	0.1056	0.058
Mof_C 	C 	0.14039	0.44511	0.14561	0.085
Mof_C 	C 	0.15698	0.50323	0.14323	-0.105
Mof_H 	H 	0.13339	0.51955	0.15012	0.08
Mof_C 	C 	0.22881	0.4795	0.12328	0.017
Mof_C 	C 	0.28053	0.47819	0.11015	0.083
Mof_C 	C 	0.33303	0.53044	0.10373	-0.126
Mof_H 	H 	0.33599	0.56793	0.10698	0.073
Mof_C 	C 	0.38096	0.52636	0.09245	0.045
Mof_H 	H 	0.41767	0.56117	0.08792	0.014
Mof_C 	C 	0.37478	0.47121	0.08793	-0.125
Mof_H 	H 	0.40723	0.46725	0.08072	0.062
Mof_C 	C 	0.32041	0.42173	0.09408	0.078
Mof_H 	H 	0.31602	0.38373	0.09045	-0.011
Mof_Ag	Ag	0.84963	0.67685	0.45369	0.558
Mof_N 	N 	0.58966	0.83513	0.54857	-0.19
Mof_N 	N 	0.59963	0.74274	0.52402	-0.171
Mof_N 	N 	0.8489	0.76582	0.46763	-0.169
Mof_N 	N 	0.9403	0.75802	0.43822	-0.191
Mof_O 	O 	0.69961	0.78117	0.48142	-0.202
Mof_S 	S 	0.49087	0.67387	0.51027	-0.015
Mof_S 	S 	0.89135	0.87638	0.45984	0.001
Mof_C 	C 	0.58658	0.88303	0.55617	0.075
Mof_H 	H 	0.62034	0.91583	0.56547	-0.012
Mof_C 	C 	0.53597	0.88723	0.55107	-0.129
Mof_H 	H 	0.53597	0.92283	0.55612	0.065
Mof_C 	C 	0.48657	0.84003	0.53879	0.042
Mof_H 	H 	0.45137	0.84173	0.53551	0.009
Mof_C 	C 	0.48867	0.78943	0.53118	-0.131
Mof_H 	H 	0.45447	0.75543	0.52299	0.068
Mof_C 	C 	0.54072	0.78883	0.53562	0.071
Mof_C 	C 	0.54765	0.73934	0.52469	0.016
Mof_C 	C 	0.53937	0.65063	0.50292	-0.105
Mof_H 	H 	0.52887	0.61323	0.49376	0.057
Mof_C 	C 	0.59577	0.69208	0.51176	0.075
Mof_C 	C 	0.64958	0.6876	0.50902	-0.009
Mof_C 	C 	0.69974	0.73254	0.4943	0.076
Mof_C 	C 	0.75217	0.73055	0.49385	-0.007
Mof_C 	C 	0.75263	0.68206	0.50828	-0.182
Mof_H 	H 	0.78839	0.68068	0.50831	0.076
Mof_C 	C 	0.70311	0.63664	0.52234	0.228
Mof_C 	C 	0.65174	0.64003	0.52219	-0.187
Mof_H 	H 	0.6168	0.60861	0.53145	0.082
Mof_C 	C 	0.70537	0.58593	0.53798	-0.587
Mof_H 	H 	0.73447	0.57893	0.52683	0.19
Mof_H 	H 	0.71707	0.59563	0.56043	0.182
Mof_H 	H 	0.66627	0.55023	0.53683	0.186
Mof_C 	C 	0.66617	0.76863	0.45254	-0.118
Mof_H 	H 	0.66677	0.73603	0.44123	0.061
Mof_H 	H 	0.62517	0.75733	0.45768	0.059
Mof_H 	H 	0.68357	0.80403	0.43893	0.058
Mof_C 	C 	0.80706	0.77844	0.47894	0.085
Mof_C 	C 	0.82365	0.83656	0.47656	-0.105
Mof_H 	H 	0.80006	0.85288	0.48345	0.08
Mof_C 	C 	0.89548	0.81283	0.45661	0.017
Mof_C 	C 	0.9472	0.81152	0.44348	0.083
Mof_C 	C 	0.9997	0.86377	0.43706	-0.126
Mof_H 	H 	0.00266	0.90126	0.44031	0.073
Mof_C 	C 	0.04763	0.85969	0.42578	0.045
Mof_H 	H 	0.08434	0.8945	0.42125	0.014
Mof_C 	C 	0.04145	0.80454	0.42126	-0.125
Mof_H 	H 	0.0739	0.80058	0.41405	0.062
Mof_C 	C 	0.98708	0.75506	0.42741	0.078
Mof_H 	H 	0.98269	0.71706	0.42378	-0.011
Mof_Ag	Ag	0.51629	0.01018	0.78702	0.558
Mof_N 	N 	0.25632	0.16847	0.88191	-0.19
Mof_N 	N 	0.26629	0.07608	0.85736	-0.171
Mof_N 	N 	0.51556	0.09916	0.80097	-0.169
Mof_N 	N 	0.60696	0.09136	0.77156	-0.191
Mof_O 	O 	0.36627	0.11451	0.81476	-0.202
Mof_S 	S 	0.15753	0.00721	0.84361	-0.015
Mof_S 	S 	0.55801	0.20972	0.79318	0.001
Mof_C 	C 	0.25324	0.21637	0.88951	0.075
Mof_H 	H 	0.287	0.24917	0.89881	-0.012
Mof_C 	C 	0.20263	0.22057	0.88441	-0.129
Mof_H 	H 	0.20263	0.25617	0.88946	0.065
Mof_C 	C 	0.15323	0.17337	0.87213	0.042
Mof_H 	H 	0.11803	0.17507	0.86885	0.009
Mof_C 	C 	0.15533	0.12277	0.86452	-0.131
Mof_H 	H 	0.12113	0.08877	0.85633	0.068
Mof_C 	C 	0.20738	0.12217	0.86896	0.071
Mof_C 	C 	0.21431	0.07268	0.85803	0.016
Mof_C 	C 	0.20603	0.98397	0.83626	-0.105
Mof_H 	H 	0.19553	0.94657	0.8271	0.057
Mof_C 	C 	0.26243	0.02542	0.8451	0.075
Mof_C 	C 	0.31624	0.02094	0.84236	-0.009
Mof_C 	C 	0.3664	0.06588	0.82764	0.076
Mof_C 	C 	0.41883	0.06389	0.82719	-0.007
Mof_C 	C 	0.41929	0.0154	0.84162	-0.182
Mof_H 	H 	0.45505	0.01402	0.84165	0.076
Mof_C 	C 	0.36977	0.96998	0.85568	0.228
Mof_C 	C 	0.3184	0.97337	0.85553	-0.187
Mof_H 	H 	0.28346	0.94195	0.86479	0.082
Mof_C 	C 	0.37203	0.91927	0.87132	-0.587
Mof_H 	H 	0.40113	0.91227	0.86017	0.19
Mof_H 	H 	0.38373	0.92897	0.89377	0.182
Mof_H 	H 	0.33293	0.88357	0.87017	0.186
Mof_C 	C 	0.33283	0.10197	0.78588	-0.118
Mof_H 	H 	0.33343	0.06937	0.77457	0.061
Mof_H 	H 	0.29183	0.09067	0.79102	0.059
Mof_H 	H 	0.35023	0.13737	0.77227	0.058
Mof_C 	C 	0.47372	0.11178	0.81228	0.085
Mof_C 	C 	0.49031	0.1699	0.8099	-0.105
Mof_H 	H 	0.46672	0.18622	0.81679	0.08
Mof_C 	C 	0.56214	0.14617	0.78995	0.017
Mof_C 	C 	0.61386	0.14486	0.77682	0.083
Mof_C 	C 	0.66636	0.19711	0.7704	-0.126
Mof_H 	H 	0.66932	0.2346	0.77365	0.073
Mof_C 	C 	0.71429	0.19303	0.75912	0.045
Mof_H 	H 	0.751	0.22784	0.75459	0.014
Mof_C 	C 	0.70811	0.13788	0.7546	-0.125
Mof_H 	H 	0.74056	0.13392	0.74739	0.062
Mof_C 	C 	0.65374	0.0884	0.76075	0.078
Mof_H 	H 	0.64935	0.0504	0.75712	-0.011
Mof_Ag	Ag	0.16055	0.81704	0.12036	0.558
Mof_N 	N 	0.57881	0.07701	0.21524	-0.19
Mof_N 	N 	0.47645	0.06704	0.19069	-0.171
Mof_N 	N 	0.25026	0.81777	0.1343	-0.169
Mof_N 	N 	0.15106	0.72637	0.10489	-0.191
Mof_O 	O 	0.4149	0.96706	0.14809	-0.202
Mof_S 	S 	0.51634	0.1758	0.17694	-0.015
Mof_S 	S 	0.31837	0.77532	0.12651	0.001
Mof_C 	C 	0.62979	0.08009	0.22284	0.075
Mof_H 	H 	0.62883	0.04633	0.23214	-0.012
Mof_C 	C 	0.6846	0.1307	0.21774	-0.129
Mof_H 	H 	0.7202	0.1307	0.22279	0.065
Mof_C 	C 	0.6868	0.1801	0.20546	0.042
Mof_H 	H 	0.7237	0.2153	0.20218	0.009
Mof_C 	C 	0.6341	0.178	0.19785	-0.131
Mof_H 	H 	0.6343	0.2122	0.18966	0.068
Mof_C 	C 	0.58145	0.12595	0.20229	0.071
Mof_C 	C 	0.52503	0.11902	0.19136	0.016
Mof_C 	C 	0.4446	0.1273	0.16959	-0.105
Mof_H 	H 	0.4177	0.1378	0.16043	0.057
Mof_C 	C 	0.42965	0.0709	0.17843	0.075
Mof_C 	C 	0.37136	0.01709	0.17569	-0.009
Mof_C 	C 	0.36614	0.96693	0.16097	0.076
Mof_C 	C 	0.31172	0.9145	0.16052	-0.007
Mof_C 	C 	0.26277	0.91404	0.17495	-0.182
Mof_H 	H 	0.22563	0.87828	0.17498	0.076
Mof_C 	C 	0.26687	0.96356	0.18901	0.228
Mof_C 	C 	0.32163	0.01493	0.18886	-0.187
Mof_H 	H 	0.32515	0.04987	0.19812	0.082
Mof_C 	C 	0.2139	0.9613	0.20465	-0.587
Mof_H 	H 	0.1778	0.9322	0.1935	0.19
Mof_H 	H 	0.2119	0.9496	0.2271	0.182
Mof_H 	H 	0.2173	0.0004	0.2035	0.186
Mof_C 	C 	0.4358	0.0005	0.11921	-0.118
Mof_H 	H 	0.4026	0.9999	0.1079	0.061
Mof_H 	H 	0.4655	0.0415	0.12435	0.059
Mof_H 	H 	0.4538	0.9831	0.1056	0.058
Mof_C 	C 	0.30472	0.85961	0.14561	0.085
Mof_C 	C 	0.34625	0.84302	0.14323	-0.105
Mof_H 	H 	0.38616	0.86661	0.15012	0.08
Mof_C 	C 	0.25069	0.77119	0.12328	0.017
Mof_C 	C 	0.19766	0.71947	0.11015	0.083
Mof_C 	C 	0.19741	0.66697	0.10373	-0.126
Mof_H 	H 	0.23194	0.66401	0.10698	0.073
Mof_C 	C 	0.1454	0.61904	0.09245	0.045
Mof_H 	H 	0.1435	0.58233	0.08792	0.014
Mof_C 	C 	0.09643	0.62522	0.08793	-0.125
Mof_H 	H 	0.06002	0.59277	0.08072	0.062
Mof_C 	C 	0.10132	0.67959	0.09408	0.078
Mof_H 	H 	0.06771	0.68398	0.09045	-0.011
Mof_Ag	Ag	0.82722	0.15037	0.45369	0.558
Mof_N 	N 	0.24548	0.41034	0.54857	-0.19
Mof_N 	N 	0.14312	0.40037	0.52402	-0.171
Mof_N 	N 	0.91693	0.1511	0.46763	-0.169
Mof_N 	N 	0.81773	0.0597	0.43822	-0.191
Mof_O 	O 	0.08157	0.30039	0.48142	-0.202
Mof_S 	S 	0.18301	0.50913	0.51027	-0.015
Mof_S 	S 	0.98504	0.10865	0.45984	0.001
Mof_C 	C 	0.29646	0.41342	0.55617	0.075
Mof_H 	H 	0.2955	0.37966	0.56547	-0.012
Mof_C 	C 	0.35127	0.46403	0.55107	-0.129
Mof_H 	H 	0.38687	0.46403	0.55612	0.065
Mof_C 	C 	0.35347	0.51343	0.53879	0.042
Mof_H 	H 	0.39037	0.54863	0.53551	0.009
Mof_C 	C 	0.30077	0.51133	0.53118	-0.131
Mof_H 	H 	0.30097	0.54553	0.52299	0.068
Mof_C 	C 	0.24812	0.45928	0.53562	0.071
Mof_C 	C 	0.1917	0.45235	0.52469	0.016
Mof_C 	C 	0.11127	0.46063	0.50292	-0.105
Mof_H 	H 	0.08437	0.47113	0.49376	0.057
Mof_C 	C 	0.09632	0.40423	0.51176	0.075
Mof_C 	C 	0.03803	0.35042	0.50902	-0.009
Mof_C 	C 	0.03281	0.30026	0.4943	0.076
Mof_C 	C 	0.97839	0.24783	0.49385	-0.007
Mof_C 	C 	0.92944	0.24737	0.50828	-0.182
Mof_H 	H 	0.8923	0.21161	0.50831	0.076
Mof_C 	C 	0.93354	0.29689	0.52234	0.228
Mof_C 	C 	0.9883	0.34826	0.52219	-0.187
Mof_H 	H 	0.99182	0.3832	0.53145	0.082
Mof_C 	C 	0.88057	0.29463	0.53798	-0.587
Mof_H 	H 	0.84447	0.26553	0.52683	0.19
Mof_H 	H 	0.87857	0.28293	0.56043	0.182
Mof_H 	H 	0.88397	0.33373	0.53683	0.186
Mof_C 	C 	0.10247	0.33383	0.45254	-0.118
Mof_H 	H 	0.06927	0.33323	0.44123	0.061
Mof_H 	H 	0.13217	0.37483	0.45768	0.059
Mof_H 	H 	0.12047	0.31643	0.43893	0.058
Mof_C 	C 	0.97139	0.19294	0.47894	0.085
Mof_C 	C 	0.01292	0.17635	0.47656	-0.105
Mof_H 	H 	0.05283	0.19994	0.48345	0.08
Mof_C 	C 	0.91736	0.10452	0.45661	0.017
Mof_C 	C 	0.86433	0.0528	0.44348	0.083
Mof_C 	C 	0.86408	0.0003	0.43706	-0.126
Mof_H 	H 	0.89861	0.99734	0.44031	0.073
Mof_C 	C 	0.81207	0.95237	0.42578	0.045
Mof_H 	H 	0.81017	0.91566	0.42125	0.014
Mof_C 	C 	0.7631	0.95855	0.42126	-0.125
Mof_H 	H 	0.72669	0.9261	0.41405	0.062
Mof_C 	C 	0.76799	0.01292	0.42741	0.078
Mof_H 	H 	0.73438	0.01731	0.42378	-0.011
Mof_Ag	Ag	0.49389	0.48371	0.78702	0.558
Mof_N 	N 	0.91214	0.74368	0.88191	-0.19
Mof_N 	N 	0.80978	0.73371	0.85736	-0.171
Mof_N 	N 	0.58359	0.48444	0.80097	-0.169
Mof_N 	N 	0.48439	0.39304	0.77156	-0.191
Mof_O 	O 	0.74823	0.63373	0.81476	-0.202
Mof_S 	S 	0.84967	0.84247	0.84361	-0.015
Mof_S 	S 	0.6517	0.44199	0.79318	0.001
Mof_C 	C 	0.96312	0.74676	0.88951	0.075
Mof_H 	H 	0.96216	0.713	0.89881	-0.012
Mof_C 	C 	0.01793	0.79737	0.88441	-0.129
Mof_H 	H 	0.05353	0.79737	0.88946	0.065
Mof_C 	C 	0.02013	0.84677	0.87213	0.042
Mof_H 	H 	0.05703	0.88197	0.86885	0.009
Mof_C 	C 	0.96743	0.84467	0.86452	-0.131
Mof_H 	H 	0.96763	0.87887	0.85633	0.068
Mof_C 	C 	0.91478	0.79262	0.86896	0.071
Mof_C 	C 	0.85836	0.78569	0.85803	0.016
Mof_C 	C 	0.77793	0.79397	0.83626	-0.105
Mof_H 	H 	0.75103	0.80447	0.8271	0.057
Mof_C 	C 	0.76298	0.73757	0.8451	0.075
Mof_C 	C 	0.70469	0.68376	0.84236	-0.009
Mof_C 	C 	0.69947	0.6336	0.82764	0.076
Mof_C 	C 	0.64505	0.58117	0.82719	-0.007
Mof_C 	C 	0.5961	0.58071	0.84162	-0.182
Mof_H 	H 	0.55896	0.54495	0.84165	0.076
Mof_C 	C 	0.6002	0.63023	0.85568	0.228
Mof_C 	C 	0.65496	0.6816	0.85553	-0.187
Mof_H 	H 	0.65848	0.71654	0.86479	0.082
Mof_C 	C 	0.54723	0.62797	0.87132	-0.587
Mof_H 	H 	0.51113	0.59887	0.86017	0.19
Mof_H 	H 	0.54523	0.61627	0.89377	0.182
Mof_H 	H 	0.55063	0.66707	0.87017	0.186
Mof_C 	C 	0.76913	0.66717	0.78588	-0.118
Mof_H 	H 	0.73593	0.66657	0.77457	0.061
Mof_H 	H 	0.79883	0.70817	0.79102	0.059
Mof_H 	H 	0.78713	0.64977	0.77227	0.058
Mof_C 	C 	0.63805	0.52628	0.81228	0.085
Mof_C 	C 	0.67958	0.50969	0.8099	-0.105
Mof_H 	H 	0.71949	0.53328	0.81679	0.08
Mof_C 	C 	0.58402	0.43786	0.78995	0.017
Mof_C 	C 	0.53099	0.38614	0.77682	0.083
Mof_C 	C 	0.53074	0.33364	0.7704	-0.126
Mof_H 	H 	0.56527	0.33068	0.77365	0.073
Mof_C 	C 	0.47873	0.28571	0.75912	0.045
Mof_H 	H 	0.47683	0.249	0.75459	0.014
Mof_C 	C 	0.42976	0.29189	0.7546	-0.125
Mof_H 	H 	0.39335	0.25944	0.74739	0.062
Mof_C 	C 	0.43465	0.34626	0.76075	0.078
Mof_H 	H 	0.40104	0.35065	0.75712	-0.011
Mof_Ag	Ag	0.16055	0.34351	0.62036	0.558
Mof_N 	N 	0.57881	0.5018	0.71524	-0.19
Mof_N 	N 	0.47645	0.40941	0.69069	-0.171
Mof_N 	N 	0.25026	0.43249	0.6343	-0.169
Mof_N 	N 	0.15106	0.42469	0.60489	-0.191
Mof_O 	O 	0.4149	0.44784	0.64809	-0.201
Mof_S 	S 	0.51634	0.34054	0.67694	-0.015
Mof_S 	S 	0.31837	0.54305	0.62651	0.001
Mof_C 	C 	0.62979	0.5497	0.72284	0.075
Mof_H 	H 	0.62883	0.5825	0.73214	-0.012
Mof_C 	C 	0.6846	0.5539	0.71774	-0.129
Mof_H 	H 	0.7202	0.5895	0.72279	0.065
Mof_C 	C 	0.6868	0.5067	0.70546	0.042
Mof_H 	H 	0.7237	0.5084	0.70218	0.009
Mof_C 	C 	0.6341	0.4561	0.69785	-0.131
Mof_H 	H 	0.6343	0.4221	0.68966	0.068
Mof_C 	C 	0.58145	0.4555	0.70229	0.071
Mof_C 	C 	0.52503	0.40601	0.69136	0.016
Mof_C 	C 	0.4446	0.3173	0.66959	-0.105
Mof_H 	H 	0.4177	0.2799	0.66043	0.057
Mof_C 	C 	0.42965	0.35875	0.67843	0.075
Mof_C 	C 	0.37136	0.35427	0.67569	-0.009
Mof_C 	C 	0.36614	0.39921	0.66097	0.076
Mof_C 	C 	0.31172	0.39722	0.66052	-0.007
Mof_C 	C 	0.26277	0.34873	0.67495	-0.182
Mof_H 	H 	0.22563	0.34735	0.67498	0.076
Mof_C 	C 	0.26687	0.30331	0.68901	0.228
Mof_C 	C 	0.32163	0.3067	0.68886	-0.187
Mof_H 	H 	0.32515	0.27528	0.69812	0.082
Mof_C 	C 	0.2139	0.2526	0.70465	-0.587
Mof_H 	H 	0.1778	0.2456	0.6935	0.19
Mof_H 	H 	0.2119	0.2623	0.7271	0.182
Mof_H 	H 	0.2173	0.2169	0.7035	0.186
Mof_C 	C 	0.4358	0.4353	0.61921	-0.118
Mof_H 	H 	0.4026	0.4027	0.6079	0.061
Mof_H 	H 	0.4655	0.424	0.62435	0.059
Mof_H 	H 	0.4538	0.4707	0.6056	0.058
Mof_C 	C 	0.30472	0.44511	0.64561	0.085
Mof_C 	C 	0.34625	0.50323	0.64323	-0.105
Mof_H 	H 	0.38616	0.51955	0.65012	0.08
Mof_C 	C 	0.25069	0.4795	0.62328	0.017
Mof_C 	C 	0.19766	0.47819	0.61015	0.083
Mof_C 	C 	0.19741	0.53044	0.60373	-0.126
Mof_H 	H 	0.23194	0.56793	0.60698	0.073
Mof_C 	C 	0.1454	0.52636	0.59245	0.045
Mof_H 	H 	0.1435	0.56117	0.58792	0.014
Mof_C 	C 	0.09643	0.47121	0.58793	-0.125
Mof_H 	H 	0.06002	0.46725	0.58072	0.062
Mof_C 	C 	0.10132	0.42173	0.59408	0.078
Mof_H 	H 	0.06771	0.38373	0.59045	-0.011
Mof_Ag	Ag	0.82722	0.67685	0.95369	0.558
Mof_N 	N 	0.24548	0.83513	0.04857	-0.19
Mof_N 	N 	0.14312	0.74274	0.02402	-0.171
Mof_N 	N 	0.91693	0.76582	0.96763	-0.169
Mof_N 	N 	0.81773	0.75802	0.93822	-0.191
Mof_O 	O 	0.08157	0.78117	0.98142	-0.202
Mof_S 	S 	0.18301	0.67387	0.01027	-0.015
Mof_S 	S 	0.98504	0.87638	0.95984	0.001
Mof_C 	C 	0.29646	0.88303	0.05617	0.075
Mof_H 	H 	0.2955	0.91583	0.06547	-0.012
Mof_C 	C 	0.35127	0.88723	0.05107	-0.129
Mof_H 	H 	0.38687	0.92283	0.05612	0.065
Mof_C 	C 	0.35347	0.84003	0.03879	0.042
Mof_H 	H 	0.39037	0.84173	0.03551	0.009
Mof_C 	C 	0.30077	0.78943	0.03118	-0.131
Mof_H 	H 	0.30097	0.75543	0.02299	0.068
Mof_C 	C 	0.24812	0.78883	0.03562	0.071
Mof_C 	C 	0.1917	0.73934	0.02469	0.016
Mof_C 	C 	0.11127	0.65063	0.00292	-0.105
Mof_H 	H 	0.08437	0.61323	0.99376	0.057
Mof_C 	C 	0.09632	0.69208	0.01176	0.075
Mof_C 	C 	0.03803	0.6876	0.00902	-0.009
Mof_C 	C 	0.03281	0.73254	0.9943	0.076
Mof_C 	C 	0.97839	0.73055	0.99385	-0.007
Mof_C 	C 	0.92944	0.68206	0.00828	-0.182
Mof_H 	H 	0.8923	0.68068	0.00831	0.076
Mof_C 	C 	0.93354	0.63664	0.02234	0.228
Mof_C 	C 	0.9883	0.64003	0.02219	-0.187
Mof_H 	H 	0.99182	0.60861	0.03145	0.082
Mof_C 	C 	0.88057	0.58593	0.03798	-0.587
Mof_H 	H 	0.84447	0.57893	0.02683	0.19
Mof_H 	H 	0.87857	0.59563	0.06043	0.182
Mof_H 	H 	0.88397	0.55023	0.03683	0.186
Mof_C 	C 	0.10247	0.76863	0.95254	-0.118
Mof_H 	H 	0.06927	0.73603	0.94123	0.061
Mof_H 	H 	0.13217	0.75733	0.95768	0.059
Mof_H 	H 	0.12047	0.80403	0.93893	0.058
Mof_C 	C 	0.97139	0.77844	0.97894	0.085
Mof_C 	C 	0.01292	0.83656	0.97656	-0.105
Mof_H 	H 	0.05283	0.85288	0.98345	0.08
Mof_C 	C 	0.91736	0.81283	0.95661	0.017
Mof_C 	C 	0.86433	0.81152	0.94348	0.083
Mof_C 	C 	0.86408	0.86377	0.93706	-0.126
Mof_H 	H 	0.89861	0.90126	0.94031	0.073
Mof_C 	C 	0.81207	0.85969	0.92578	0.045
Mof_H 	H 	0.81017	0.8945	0.92125	0.014
Mof_C 	C 	0.7631	0.80454	0.92126	-0.125
Mof_H 	H 	0.72669	0.80058	0.91405	0.062
Mof_C 	C 	0.76799	0.75506	0.92741	0.078
Mof_H 	H 	0.73438	0.71706	0.92378	-0.011
Mof_Ag	Ag	0.49389	0.01018	0.28702	0.558
Mof_N 	N 	0.91214	0.16847	0.38191	-0.19
Mof_N 	N 	0.80978	0.07608	0.35736	-0.171
Mof_N 	N 	0.58359	0.09916	0.30097	-0.169
Mof_N 	N 	0.48439	0.09136	0.27156	-0.191
Mof_O 	O 	0.74823	0.11451	0.31476	-0.202
Mof_S 	S 	0.84967	0.00721	0.34361	-0.015
Mof_S 	S 	0.6517	0.20972	0.29318	0.001
Mof_C 	C 	0.96312	0.21637	0.38951	0.075
Mof_H 	H 	0.96216	0.24917	0.39881	-0.012
Mof_C 	C 	0.01793	0.22057	0.38441	-0.129
Mof_H 	H 	0.05353	0.25617	0.38946	0.065
Mof_C 	C 	0.02013	0.17337	0.37213	0.042
Mof_H 	H 	0.05703	0.17507	0.36885	0.009
Mof_C 	C 	0.96743	0.12277	0.36452	-0.131
Mof_H 	H 	0.96763	0.08877	0.35633	0.068
Mof_C 	C 	0.91478	0.12217	0.36896	0.071
Mof_C 	C 	0.85836	0.07268	0.35803	0.016
Mof_C 	C 	0.77793	0.98397	0.33626	-0.105
Mof_H 	H 	0.75103	0.94657	0.3271	0.057
Mof_C 	C 	0.76298	0.02542	0.3451	0.075
Mof_C 	C 	0.70469	0.02094	0.34236	-0.009
Mof_C 	C 	0.69947	0.06588	0.32764	0.076
Mof_C 	C 	0.64505	0.06389	0.32719	-0.007
Mof_C 	C 	0.5961	0.0154	0.34162	-0.182
Mof_H 	H 	0.55896	0.01402	0.34165	0.076
Mof_C 	C 	0.6002	0.96998	0.35568	0.228
Mof_C 	C 	0.65496	0.97337	0.35553	-0.187
Mof_H 	H 	0.65848	0.94195	0.36479	0.082
Mof_C 	C 	0.54723	0.91927	0.37132	-0.587
Mof_H 	H 	0.51113	0.91227	0.36017	0.19
Mof_H 	H 	0.54523	0.92897	0.39377	0.182
Mof_H 	H 	0.55063	0.88357	0.37017	0.186
Mof_C 	C 	0.76913	0.10197	0.28588	-0.118
Mof_H 	H 	0.73593	0.06937	0.27457	0.061
Mof_H 	H 	0.79883	0.09067	0.29102	0.059
Mof_H 	H 	0.78713	0.13737	0.27227	0.058
Mof_C 	C 	0.63805	0.11178	0.31228	0.085
Mof_C 	C 	0.67958	0.1699	0.3099	-0.105
Mof_H 	H 	0.71949	0.18622	0.31679	0.08
Mof_C 	C 	0.58402	0.14617	0.28995	0.017
Mof_C 	C 	0.53099	0.14486	0.27682	0.083
Mof_C 	C 	0.53074	0.19711	0.2704	-0.126
Mof_H 	H 	0.56527	0.2346	0.27365	0.073
Mof_C 	C 	0.47873	0.19303	0.25912	0.045
Mof_H 	H 	0.47683	0.22784	0.25459	0.014
Mof_C 	C 	0.42976	0.13788	0.2546	-0.125
Mof_H 	H 	0.39335	0.13392	0.24739	0.062
Mof_C 	C 	0.43465	0.0884	0.26075	0.078
Mof_H 	H 	0.40104	0.0504	0.25712	-0.011
Mof_Ag	Ag	0.65649	0.81704	0.62036	0.558
Mof_N 	N 	0.4982	0.07701	0.71524	-0.19
Mof_N 	N 	0.59059	0.06704	0.69069	-0.171
Mof_N 	N 	0.56751	0.81777	0.6343	-0.169
Mof_N 	N 	0.57531	0.72637	0.60489	-0.191
Mof_O 	O 	0.55216	0.96706	0.64809	-0.201
Mof_S 	S 	0.65946	0.1758	0.67694	-0.015
Mof_S 	S 	0.45695	0.77532	0.62651	0.001
Mof_C 	C 	0.4503	0.08009	0.72284	0.075
Mof_H 	H 	0.4175	0.04633	0.73214	-0.012
Mof_C 	C 	0.4461	0.1307	0.71774	-0.129
Mof_H 	H 	0.4105	0.1307	0.72279	0.065
Mof_C 	C 	0.4933	0.1801	0.70546	0.042
Mof_H 	H 	0.4916	0.2153	0.70218	0.009
Mof_C 	C 	0.5439	0.178	0.69785	-0.131
Mof_H 	H 	0.5779	0.2122	0.68966	0.068
Mof_C 	C 	0.5445	0.12595	0.70229	0.071
Mof_C 	C 	0.59399	0.11902	0.69136	0.016
Mof_C 	C 	0.6827	0.1273	0.66959	-0.105
Mof_H 	H 	0.7201	0.1378	0.66043	0.057
Mof_C 	C 	0.64125	0.0709	0.67843	0.075
Mof_C 	C 	0.64573	0.01709	0.67569	-0.009
Mof_C 	C 	0.60079	0.96693	0.66097	0.076
Mof_C 	C 	0.60278	0.9145	0.66052	-0.007
Mof_C 	C 	0.65127	0.91404	0.67495	-0.182
Mof_H 	H 	0.65265	0.87828	0.67498	0.076
Mof_C 	C 	0.69669	0.96356	0.68901	0.228
Mof_C 	C 	0.6933	0.01493	0.68886	-0.187
Mof_H 	H 	0.72472	0.04987	0.69812	0.082
Mof_C 	C 	0.7474	0.9613	0.70465	-0.587
Mof_H 	H 	0.7544	0.9322	0.6935	0.19
Mof_H 	H 	0.7377	0.9496	0.7271	0.182
Mof_H 	H 	0.7831	0.0004	0.7035	0.186
Mof_C 	C 	0.5647	0.0005	0.61921	-0.118
Mof_H 	H 	0.5973	0.9999	0.6079	0.061
Mof_H 	H 	0.576	0.0415	0.62435	0.059
Mof_H 	H 	0.5293	0.9831	0.6056	0.058
Mof_C 	C 	0.55489	0.85961	0.64561	0.085
Mof_C 	C 	0.49677	0.84302	0.64323	-0.105
Mof_H 	H 	0.48045	0.86661	0.65012	0.08
Mof_C 	C 	0.5205	0.77119	0.62328	0.017
Mof_C 	C 	0.52181	0.71947	0.61015	0.083
Mof_C 	C 	0.46956	0.66697	0.60373	-0.126
Mof_H 	H 	0.43207	0.66401	0.60698	0.073
Mof_C 	C 	0.47364	0.61904	0.59245	0.045
Mof_H 	H 	0.43883	0.58233	0.58792	0.014
Mof_C 	C 	0.52879	0.62522	0.58793	-0.125
Mof_H 	H 	0.53275	0.59277	0.58072	0.062
Mof_C 	C 	0.57827	0.67959	0.59408	0.078
Mof_H 	H 	0.61627	0.68398	0.59045	-0.011
Mof_Ag	Ag	0.32315	0.15037	0.95369	0.558
Mof_N 	N 	0.16487	0.41034	0.04857	-0.19
Mof_N 	N 	0.25726	0.40037	0.02402	-0.171
Mof_N 	N 	0.23418	0.1511	0.96763	-0.169
Mof_N 	N 	0.24198	0.0597	0.93822	-0.191
Mof_O 	O 	0.21883	0.30039	0.98142	-0.202
Mof_S 	S 	0.32613	0.50913	0.01027	-0.015
Mof_S 	S 	0.12362	0.10865	0.95984	0.001
Mof_C 	C 	0.11697	0.41342	0.05617	0.075
Mof_H 	H 	0.08417	0.37966	0.06547	-0.012
Mof_C 	C 	0.11277	0.46403	0.05107	-0.129
Mof_H 	H 	0.07717	0.46403	0.05612	0.065
Mof_C 	C 	0.15997	0.51343	0.03879	0.042
Mof_H 	H 	0.15827	0.54863	0.03551	0.009
Mof_C 	C 	0.21057	0.51133	0.03118	-0.131
Mof_H 	H 	0.24457	0.54553	0.02299	0.068
Mof_C 	C 	0.21117	0.45928	0.03562	0.071
Mof_C 	C 	0.26066	0.45235	0.02469	0.016
Mof_C 	C 	0.34937	0.46063	0.00292	-0.105
Mof_H 	H 	0.38677	0.47113	0.99376	0.057
Mof_C 	C 	0.30792	0.40423	0.01176	0.075
Mof_C 	C 	0.3124	0.35042	0.00902	-0.009
Mof_C 	C 	0.26746	0.30026	0.9943	0.076
Mof_C 	C 	0.26945	0.24783	0.99385	-0.007
Mof_C 	C 	0.31794	0.24737	0.00828	-0.182
Mof_H 	H 	0.31932	0.21161	0.00831	0.076
Mof_C 	C 	0.36336	0.29689	0.02234	0.228
Mof_C 	C 	0.35997	0.34826	0.02219	-0.187
Mof_H 	H 	0.39139	0.3832	0.03145	0.082
Mof_C 	C 	0.41407	0.29463	0.03798	-0.587
Mof_H 	H 	0.42107	0.26553	0.02683	0.19
Mof_H 	H 	0.40437	0.28293	0.06043	0.182
Mof_H 	H 	0.44977	0.33373	0.03683	0.186
Mof_C 	C 	0.23137	0.33383	0.95254	-0.118
Mof_H 	H 	0.26397	0.33323	0.94123	0.061
Mof_H 	H 	0.24267	0.37483	0.95768	0.059
Mof_H 	H 	0.19597	0.31643	0.93893	0.058
Mof_C 	C 	0.22156	0.19294	0.97894	0.085
Mof_C 	C 	0.16344	0.17635	0.97656	-0.105
Mof_H 	H 	0.14712	0.19994	0.98345	0.08
Mof_C 	C 	0.18717	0.10452	0.95661	0.017
Mof_C 	C 	0.18848	0.0528	0.94348	0.083
Mof_C 	C 	0.13623	0.0003	0.93706	-0.126
Mof_H 	H 	0.09874	0.99734	0.94031	0.073
Mof_C 	C 	0.14031	0.95237	0.92578	0.045
Mof_H 	H 	0.1055	0.91566	0.92125	0.014
Mof_C 	C 	0.19546	0.95855	0.92126	-0.125
Mof_H 	H 	0.19942	0.9261	0.91405	0.062
Mof_C 	C 	0.24494	0.01292	0.92741	0.078
Mof_H 	H 	0.28294	0.01731	0.92378	-0.011
Mof_Ag	Ag	0.98982	0.48371	0.28702	0.558
Mof_N 	N 	0.83153	0.74368	0.38191	-0.19
Mof_N 	N 	0.92392	0.73371	0.35736	-0.171
Mof_N 	N 	0.90084	0.48444	0.30097	-0.169
Mof_N 	N 	0.90864	0.39304	0.27156	-0.191
Mof_O 	O 	0.88549	0.63373	0.31476	-0.202
Mof_S 	S 	0.99279	0.84247	0.34361	-0.015
Mof_S 	S 	0.79028	0.44199	0.29318	0.001
Mof_C 	C 	0.78363	0.74676	0.38951	0.075
Mof_H 	H 	0.75083	0.713	0.39881	-0.012
Mof_C 	C 	0.77943	0.79737	0.38441	-0.129
Mof_H 	H 	0.74383	0.79737	0.38946	0.065
Mof_C 	C 	0.82663	0.84677	0.37213	0.042
Mof_H 	H 	0.82493	0.88197	0.36885	0.009
Mof_C 	C 	0.87723	0.84467	0.36452	-0.131
Mof_H 	H 	0.91123	0.87887	0.35633	0.068
Mof_C 	C 	0.87783	0.79262	0.36896	0.071
Mof_C 	C 	0.92732	0.78569	0.35803	0.016
Mof_C 	C 	0.01603	0.79397	0.33626	-0.105
Mof_H 	H 	0.05343	0.80447	0.3271	0.057
Mof_C 	C 	0.97458	0.73757	0.3451	0.075
Mof_C 	C 	0.97906	0.68376	0.34236	-0.009
Mof_C 	C 	0.93412	0.6336	0.32764	0.076
Mof_C 	C 	0.93611	0.58117	0.32719	-0.007
Mof_C 	C 	0.9846	0.58071	0.34162	-0.182
Mof_H 	H 	0.98598	0.54495	0.34165	0.076
Mof_C 	C 	0.03002	0.63023	0.35568	0.228
Mof_C 	C 	0.02663	0.6816	0.35553	-0.187
Mof_H 	H 	0.05805	0.71654	0.36479	0.082
Mof_C 	C 	0.08073	0.62797	0.37132	-0.587
Mof_H 	H 	0.08773	0.59887	0.36017	0.19
Mof_H 	H 	0.07103	0.61627	0.39377	0.182
Mof_H 	H 	0.11643	0.66707	0.37017	0.186
Mof_C 	C 	0.89803	0.66717	0.28588	-0.118
Mof_H 	H 	0.93063	0.66657	0.27457	0.061
Mof_H 	H 	0.90933	0.70817	0.29102	0.059
Mof_H 	H 	0.86263	0.64977	0.27227	0.058
Mof_C 	C 	0.88822	0.52628	0.31228	0.085
Mof_C 	C 	0.8301	0.50969	0.3099	-0.105
Mof_H 	H 	0.81378	0.53328	0.31679	0.08
Mof_C 	C 	0.85383	0.43786	0.28995	0.017
Mof_C 	C 	0.85514	0.38614	0.27682	0.083
Mof_C 	C 	0.80289	0.33364	0.2704	-0.126
Mof_H 	H 	0.7654	0.33068	0.27365	0.073
Mof_C 	C 	0.80697	0.28571	0.25912	0.045
Mof_H 	H 	0.77216	0.249	0.25459	0.014
Mof_C 	C 	0.86212	0.29189	0.2546	-0.125
Mof_H 	H 	0.86608	0.25944	0.24739	0.062
Mof_C 	C 	0.9116	0.34626	0.26075	0.078
Mof_H 	H 	0.9496	0.35065	0.25712	-0.011
Mof_Ag	Ag	0.18296	0.83945	0.62036	0.558
Mof_N 	N 	0.92299	0.42119	0.71524	-0.19
Mof_N 	N 	0.93296	0.52355	0.69069	-0.171
Mof_N 	N 	0.18223	0.74974	0.6343	-0.169
Mof_N 	N 	0.27363	0.84894	0.60489	-0.191
Mof_O 	O 	0.03294	0.5851	0.64809	-0.201
Mof_S 	S 	0.8242	0.48366	0.67694	-0.015
Mof_S 	S 	0.22468	0.68163	0.62651	0.001
Mof_C 	C 	0.91991	0.37021	0.72284	0.075
Mof_H 	H 	0.95367	0.37117	0.73214	-0.012
Mof_C 	C 	0.8693	0.3154	0.71774	-0.129
Mof_H 	H 	0.8693	0.2798	0.72279	0.065
Mof_C 	C 	0.8199	0.3132	0.70546	0.042
Mof_H 	H 	0.7847	0.2763	0.70218	0.009
Mof_C 	C 	0.822	0.3659	0.69785	-0.131
Mof_H 	H 	0.7878	0.3657	0.68966	0.068
Mof_C 	C 	0.87405	0.41855	0.70229	0.071
Mof_C 	C 	0.88098	0.47497	0.69136	0.016
Mof_C 	C 	0.8727	0.5554	0.66959	-0.105
Mof_H 	H 	0.8622	0.5823	0.66043	0.057
Mof_C 	C 	0.9291	0.57035	0.67843	0.075
Mof_C 	C 	0.98291	0.62864	0.67569	-0.009
Mof_C 	C 	0.03307	0.63386	0.66097	0.076
Mof_C 	C 	0.0855	0.68828	0.66052	-0.007
Mof_C 	C 	0.08596	0.73723	0.67495	-0.182
Mof_H 	H 	0.12172	0.77437	0.67498	0.076
Mof_C 	C 	0.03644	0.73313	0.68901	0.228
Mof_C 	C 	0.98507	0.67837	0.68886	-0.187
Mof_H 	H 	0.95013	0.67485	0.69812	0.082
Mof_C 	C 	0.0387	0.7861	0.70465	-0.587
Mof_H 	H 	0.0678	0.8222	0.6935	0.19
Mof_H 	H 	0.0504	0.7881	0.7271	0.182
Mof_H 	H 	0.9996	0.7827	0.7035	0.186
Mof_C 	C 	0.9995	0.5642	0.61921	-0.118
Mof_H 	H 	0.0001	0.5974	0.6079	0.061
Mof_H 	H 	0.9585	0.5345	0.62435	0.059
Mof_H 	H 	0.0169	0.5462	0.6056	0.058
Mof_C 	C 	0.14039	0.69528	0.64561	0.085
Mof_C 	C 	0.15698	0.65375	0.64323	-0.105
Mof_H 	H 	0.13339	0.61384	0.65012	0.08
Mof_C 	C 	0.22881	0.74931	0.62328	0.017
Mof_C 	C 	0.28053	0.80234	0.61015	0.083
Mof_C 	C 	0.33303	0.80259	0.60373	-0.126
Mof_H 	H 	0.33599	0.76806	0.60698	0.073
Mof_C 	C 	0.38096	0.8546	0.59245	0.045
Mof_H 	H 	0.41767	0.8565	0.58792	0.014
Mof_C 	C 	0.37478	0.90357	0.58793	-0.125
Mof_H 	H 	0.40723	0.93998	0.58072	0.062
Mof_C 	C 	0.32041	0.89868	0.59408	0.078
Mof_H 	H 	0.31602	0.93229	0.59045	-0.011
Mof_Ag	Ag	0.84963	0.17278	0.95369	0.558
Mof_N 	N 	0.58966	0.75452	0.04857	-0.19
Mof_N 	N 	0.59963	0.85688	0.02402	-0.171
Mof_N 	N 	0.8489	0.08307	0.96763	-0.169
Mof_N 	N 	0.9403	0.18227	0.93822	-0.191
Mof_O 	O 	0.69961	0.91843	0.98142	-0.202
Mof_S 	S 	0.49087	0.81699	0.01027	-0.015
Mof_S 	S 	0.89135	0.01496	0.95984	0.001
Mof_C 	C 	0.58658	0.70354	0.05617	0.075
Mof_H 	H 	0.62034	0.7045	0.06547	-0.012
Mof_C 	C 	0.53597	0.64873	0.05107	-0.129
Mof_H 	H 	0.53597	0.61313	0.05612	0.065
Mof_C 	C 	0.48657	0.64653	0.03879	0.042
Mof_H 	H 	0.45137	0.60963	0.03551	0.009
Mof_C 	C 	0.48867	0.69923	0.03118	-0.131
Mof_H 	H 	0.45447	0.69903	0.02299	0.068
Mof_C 	C 	0.54072	0.75188	0.03562	0.071
Mof_C 	C 	0.54765	0.8083	0.02469	0.016
Mof_C 	C 	0.53937	0.88873	0.00292	-0.105
Mof_H 	H 	0.52887	0.91563	0.99376	0.057
Mof_C 	C 	0.59577	0.90368	0.01176	0.075
Mof_C 	C 	0.64958	0.96197	0.00902	-0.009
Mof_C 	C 	0.69974	0.96719	0.9943	0.076
Mof_C 	C 	0.75217	0.02161	0.99385	-0.007
Mof_C 	C 	0.75263	0.07056	0.00828	-0.182
Mof_H 	H 	0.78839	0.1077	0.00831	0.076
Mof_C 	C 	0.70311	0.06646	0.02234	0.228
Mof_C 	C 	0.65174	0.0117	0.02219	-0.187
Mof_H 	H 	0.6168	0.00818	0.03145	0.082
Mof_C 	C 	0.70537	0.11943	0.03798	-0.587
Mof_H 	H 	0.73447	0.15553	0.02683	0.19
Mof_H 	H 	0.71707	0.12143	0.06043	0.182
Mof_H 	H 	0.66627	0.11603	0.03683	0.186
Mof_C 	C 	0.66617	0.89753	0.95254	-0.118
Mof_H 	H 	0.66677	0.93073	0.94123	0.061
Mof_H 	H 	0.62517	0.86783	0.95768	0.059
Mof_H 	H 	0.68357	0.87953	0.93893	0.058
Mof_C 	C 	0.80706	0.02861	0.97894	0.085
Mof_C 	C 	0.82365	0.98708	0.97656	-0.105
Mof_H 	H 	0.80006	0.94717	0.98345	0.08
Mof_C 	C 	0.89548	0.08264	0.95661	0.017
Mof_C 	C 	0.9472	0.13567	0.94348	0.083
Mof_C 	C 	0.9997	0.13592	0.93706	-0.126
Mof_H 	H 	0.00266	0.10139	0.94031	0.073
Mof_C 	C 	0.04763	0.18793	0.92578	0.045
Mof_H 	H 	0.08434	0.18983	0.92125	0.014
Mof_C 	C 	0.04145	0.2369	0.92126	-0.125
Mof_H 	H 	0.0739	0.27331	0.91405	0.062
Mof_C 	C 	0.98708	0.23201	0.92741	0.078
Mof_H 	H 	0.98269	0.26562	0.92378	-0.011
Mof_Ag	Ag	0.51629	0.50611	0.28702	0.558
Mof_N 	N 	0.25632	0.08786	0.38191	-0.19
Mof_N 	N 	0.26629	0.19022	0.35736	-0.171
Mof_N 	N 	0.51556	0.41641	0.30097	-0.169
Mof_N 	N 	0.60696	0.51561	0.27156	-0.191
Mof_O 	O 	0.36627	0.25177	0.31476	-0.202
Mof_S 	S 	0.15753	0.15033	0.34361	-0.015
Mof_S 	S 	0.55801	0.3483	0.29318	0.001
Mof_C 	C 	0.25324	0.03688	0.38951	0.075
Mof_H 	H 	0.287	0.03784	0.39881	-0.012
Mof_C 	C 	0.20263	0.98207	0.38441	-0.129
Mof_H 	H 	0.20263	0.94647	0.38946	0.065
Mof_C 	C 	0.15323	0.97987	0.37213	0.042
Mof_H 	H 	0.11803	0.94297	0.36885	0.009
Mof_C 	C 	0.15533	0.03257	0.36452	-0.131
Mof_H 	H 	0.12113	0.03237	0.35633	0.068
Mof_C 	C 	0.20738	0.08522	0.36896	0.071
Mof_C 	C 	0.21431	0.14164	0.35803	0.016
Mof_C 	C 	0.20603	0.22207	0.33626	-0.105
Mof_H 	H 	0.19553	0.24897	0.3271	0.057
Mof_C 	C 	0.26243	0.23702	0.3451	0.075
Mof_C 	C 	0.31624	0.29531	0.34236	-0.009
Mof_C 	C 	0.3664	0.30053	0.32764	0.076
Mof_C 	C 	0.41883	0.35495	0.32719	-0.007
Mof_C 	C 	0.41929	0.4039	0.34162	-0.182
Mof_H 	H 	0.45505	0.44104	0.34165	0.076
Mof_C 	C 	0.36977	0.3998	0.35568	0.228
Mof_C 	C 	0.3184	0.34504	0.35553	-0.187
Mof_H 	H 	0.28346	0.34152	0.36479	0.082
Mof_C 	C 	0.37203	0.45277	0.37132	-0.587
Mof_H 	H 	0.40113	0.48887	0.36017	0.19
Mof_H 	H 	0.38373	0.45477	0.39377	0.182
Mof_H 	H 	0.33293	0.44937	0.37017	0.186
Mof_C 	C 	0.33283	0.23087	0.28588	-0.118
Mof_H 	H 	0.33343	0.26407	0.27457	0.061
Mof_H 	H 	0.29183	0.20117	0.29102	0.059
Mof_H 	H 	0.35023	0.21287	0.27227	0.058
Mof_C 	C 	0.47372	0.36195	0.31228	0.085
Mof_C 	C 	0.49031	0.32042	0.3099	-0.105
Mof_H 	H 	0.46672	0.28051	0.31679	0.08
Mof_C 	C 	0.56214	0.41598	0.28995	0.017
Mof_C 	C 	0.61386	0.46901	0.27682	0.083
Mof_C 	C 	0.66636	0.46926	0.2704	-0.126
Mof_H 	H 	0.66932	0.43473	0.27365	0.073
Mof_C 	C 	0.71429	0.52127	0.25912	0.045
Mof_H 	H 	0.751	0.52317	0.25459	0.014
Mof_C 	C 	0.70811	0.57024	0.2546	-0.125
Mof_H 	H 	0.74056	0.60665	0.24739	0.062
Mof_C 	C 	0.65374	0.56535	0.26075	0.078
Mof_H 	H 	0.64935	0.59896	0.25712	-0.011
Mof_Ag	Ag	0.34351	0.16055	0.87964	0.558
Mof_N 	N 	0.5018	0.57881	0.78476	-0.19
Mof_N 	N 	0.40941	0.47645	0.80931	-0.171
Mof_N 	N 	0.43249	0.25026	0.8657	-0.169
Mof_N 	N 	0.42469	0.15106	0.89511	-0.191
Mof_O 	O 	0.44784	0.4149	0.85191	-0.201
Mof_S 	S 	0.34054	0.51634	0.82306	-0.015
Mof_S 	S 	0.54305	0.31837	0.87349	0.001
Mof_C 	C 	0.5497	0.62979	0.77716	0.075
Mof_H 	H 	0.5825	0.62883	0.76786	-0.012
Mof_C 	C 	0.5539	0.6846	0.78226	-0.129
Mof_H 	H 	0.5895	0.7202	0.77721	0.065
Mof_C 	C 	0.5067	0.6868	0.79454	0.042
Mof_H 	H 	0.5084	0.7237	0.79782	0.009
Mof_C 	C 	0.4561	0.6341	0.80215	-0.131
Mof_H 	H 	0.4221	0.6343	0.81034	0.068
Mof_C 	C 	0.4555	0.58145	0.79771	0.071
Mof_C 	C 	0.40601	0.52503	0.80864	0.016
Mof_C 	C 	0.3173	0.4446	0.83041	-0.105
Mof_H 	H 	0.2799	0.4177	0.83957	0.057
Mof_C 	C 	0.35875	0.42965	0.82157	0.075
Mof_C 	C 	0.35427	0.37136	0.82431	-0.009
Mof_C 	C 	0.39921	0.36614	0.83903	0.076
Mof_C 	C 	0.39722	0.31172	0.83948	-0.007
Mof_C 	C 	0.34873	0.26277	0.82505	-0.182
Mof_H 	H 	0.34735	0.22563	0.82502	0.076
Mof_C 	C 	0.30331	0.26687	0.81099	0.228
Mof_C 	C 	0.3067	0.32163	0.81114	-0.187
Mof_H 	H 	0.27528	0.32515	0.80188	0.082
Mof_C 	C 	0.2526	0.2139	0.79535	-0.587
Mof_H 	H 	0.2456	0.1778	0.8065	0.19
Mof_H 	H 	0.2623	0.2119	0.7729	0.182
Mof_H 	H 	0.2169	0.2173	0.7965	0.186
Mof_C 	C 	0.4353	0.4358	0.88079	-0.118
Mof_H 	H 	0.4027	0.4026	0.8921	0.061
Mof_H 	H 	0.424	0.4655	0.87565	0.059
Mof_H 	H 	0.4707	0.4538	0.8944	0.058
Mof_C 	C 	0.44511	0.30472	0.85439	0.085
Mof_C 	C 	0.50323	0.34625	0.85677	-0.105
Mof_H 	H 	0.51955	0.38616	0.84988	0.08
Mof_C 	C 	0.4795	0.25069	0.87672	0.017
Mof_C 	C 	0.47819	0.19766	0.88985	0.083
Mof_C 	C 	0.53044	0.19741	0.89627	-0.126
Mof_H 	H 	0.56793	0.23194	0.89302	0.073
Mof_C 	C 	0.52636	0.1454	0.90755	0.045
Mof_H 	H 	0.56117	0.1435	0.91208	0.014
Mof_C 	C 	0.47121	0.09643	0.91207	-0.125
Mof_H 	H 	0.46725	0.06002	0.91928	0.062
Mof_C 	C 	0.42173	0.10132	0.90592	0.078
Mof_H 	H 	0.38373	0.06771	0.90955	-0.011
Mof_Ag	Ag	0.01018	0.49389	0.21298	0.558
Mof_N 	N 	0.16847	0.91214	0.11809	-0.19
Mof_N 	N 	0.07608	0.80978	0.14264	-0.171
Mof_N 	N 	0.09916	0.58359	0.19903	-0.169
Mof_N 	N 	0.09136	0.48439	0.22844	-0.191
Mof_O 	O 	0.11451	0.74823	0.18524	-0.202
Mof_S 	S 	0.00721	0.84967	0.15639	-0.015
Mof_S 	S 	0.20972	0.6517	0.20682	0.001
Mof_C 	C 	0.21637	0.96312	0.11049	0.075
Mof_H 	H 	0.24917	0.96216	0.10119	-0.012
Mof_C 	C 	0.22057	0.01793	0.11559	-0.129
Mof_H 	H 	0.25617	0.05353	0.11054	0.065
Mof_C 	C 	0.17337	0.02013	0.12787	0.042
Mof_H 	H 	0.17507	0.05703	0.13115	0.009
Mof_C 	C 	0.12277	0.96743	0.13548	-0.131
Mof_H 	H 	0.08877	0.96763	0.14367	0.068
Mof_C 	C 	0.12217	0.91478	0.13104	0.071
Mof_C 	C 	0.07268	0.85836	0.14197	0.016
Mof_C 	C 	0.98397	0.77793	0.16374	-0.105
Mof_H 	H 	0.94657	0.75103	0.1729	0.057
Mof_C 	C 	0.02542	0.76298	0.1549	0.075
Mof_C 	C 	0.02094	0.70469	0.15764	-0.009
Mof_C 	C 	0.06588	0.69947	0.17236	0.076
Mof_C 	C 	0.06389	0.64505	0.17281	-0.007
Mof_C 	C 	0.0154	0.5961	0.15838	-0.182
Mof_H 	H 	0.01402	0.55896	0.15835	0.076
Mof_C 	C 	0.96998	0.6002	0.14432	0.228
Mof_C 	C 	0.97337	0.65496	0.14447	-0.187
Mof_H 	H 	0.94195	0.65848	0.13521	0.082
Mof_C 	C 	0.91927	0.54723	0.12868	-0.587
Mof_H 	H 	0.91227	0.51113	0.13983	0.19
Mof_H 	H 	0.92897	0.54523	0.10623	0.182
Mof_H 	H 	0.88357	0.55063	0.12983	0.186
Mof_C 	C 	0.10197	0.76913	0.21412	-0.118
Mof_H 	H 	0.06937	0.73593	0.22543	0.061
Mof_H 	H 	0.09067	0.79883	0.20898	0.059
Mof_H 	H 	0.13737	0.78713	0.22773	0.058
Mof_C 	C 	0.11178	0.63805	0.18772	0.085
Mof_C 	C 	0.1699	0.67958	0.1901	-0.105
Mof_H 	H 	0.18622	0.71949	0.18321	0.08
Mof_C 	C 	0.14617	0.58402	0.21005	0.017
Mof_C 	C 	0.14486	0.53099	0.22318	0.083
Mof_C 	C 	0.19711	0.53074	0.2296	-0.126
Mof_H 	H 	0.2346	0.56527	0.22635	0.073
Mof_C 	C 	0.19303	0.47873	0.24088	0.045
Mof_H 	H 	0.22784	0.47683	0.24541	0.014
Mof_C 	C 	0.13788	0.42976	0.2454	-0.125
Mof_H 	H 	0.13392	0.39335	0.25261	0.062
Mof_C 	C 	0.0884	0.43465	0.23925	0.078
Mof_H 	H 	0.0504	0.40104	0.24288	-0.011
Mof_Ag	Ag	0.67685	0.82722	0.54631	0.558
Mof_N 	N 	0.83513	0.24548	0.45143	-0.19
Mof_N 	N 	0.74274	0.14312	0.47598	-0.171
Mof_N 	N 	0.76582	0.91693	0.53237	-0.169
Mof_N 	N 	0.75802	0.81773	0.56178	-0.191
Mof_O 	O 	0.78117	0.08157	0.51858	-0.202
Mof_S 	S 	0.67387	0.18301	0.48973	-0.015
Mof_S 	S 	0.87638	0.98504	0.54016	0.001
Mof_C 	C 	0.88303	0.29646	0.44383	0.075
Mof_H 	H 	0.91583	0.2955	0.43453	-0.012
Mof_C 	C 	0.88723	0.35127	0.44893	-0.129
Mof_H 	H 	0.92283	0.38687	0.44388	0.065
Mof_C 	C 	0.84003	0.35347	0.46121	0.042
Mof_H 	H 	0.84173	0.39037	0.46449	0.009
Mof_C 	C 	0.78943	0.30077	0.46882	-0.131
Mof_H 	H 	0.75543	0.30097	0.47701	0.068
Mof_C 	C 	0.78883	0.24812	0.46438	0.071
Mof_C 	C 	0.73934	0.1917	0.47531	0.016
Mof_C 	C 	0.65063	0.11127	0.49708	-0.105
Mof_H 	H 	0.61323	0.08437	0.50624	0.057
Mof_C 	C 	0.69208	0.09632	0.48824	0.075
Mof_C 	C 	0.6876	0.03803	0.49098	-0.009
Mof_C 	C 	0.73254	0.03281	0.5057	0.076
Mof_C 	C 	0.73055	0.97839	0.50615	-0.007
Mof_C 	C 	0.68206	0.92944	0.49172	-0.182
Mof_H 	H 	0.68068	0.8923	0.49169	0.076
Mof_C 	C 	0.63664	0.93354	0.47766	0.228
Mof_C 	C 	0.64003	0.9883	0.47781	-0.187
Mof_H 	H 	0.60861	0.99182	0.46855	0.082
Mof_C 	C 	0.58593	0.88057	0.46202	-0.587
Mof_H 	H 	0.57893	0.84447	0.47317	0.19
Mof_H 	H 	0.59563	0.87857	0.43957	0.182
Mof_H 	H 	0.55023	0.88397	0.46317	0.186
Mof_C 	C 	0.76863	0.10247	0.54746	-0.118
Mof_H 	H 	0.73603	0.06927	0.55877	0.061
Mof_H 	H 	0.75733	0.13217	0.54232	0.059
Mof_H 	H 	0.80403	0.12047	0.56107	0.058
Mof_C 	C 	0.77844	0.97139	0.52106	0.085
Mof_C 	C 	0.83656	0.01292	0.52344	-0.105
Mof_H 	H 	0.85288	0.05283	0.51655	0.08
Mof_C 	C 	0.81283	0.91736	0.54339	0.017
Mof_C 	C 	0.81152	0.86433	0.55652	0.083
Mof_C 	C 	0.86377	0.86408	0.56294	-0.126
Mof_H 	H 	0.90126	0.89861	0.55969	0.073
Mof_C 	C 	0.85969	0.81207	0.57422	0.045
Mof_H 	H 	0.8945	0.81017	0.57875	0.014
Mof_C 	C 	0.80454	0.7631	0.57874	-0.125
Mof_H 	H 	0.80058	0.72669	0.58595	0.062
Mof_C 	C 	0.75506	0.76799	0.57259	0.078
Mof_H 	H 	0.71706	0.73438	0.57622	-0.011
Mof_Ag	Ag	0.81704	0.65649	0.87964	0.558
Mof_N 	N 	0.07701	0.4982	0.78476	-0.19
Mof_N 	N 	0.06704	0.59059	0.80931	-0.171
Mof_N 	N 	0.81777	0.56751	0.8657	-0.169
Mof_N 	N 	0.72637	0.57531	0.89511	-0.191
Mof_O 	O 	0.96706	0.55216	0.85191	-0.202
Mof_S 	S 	0.1758	0.65946	0.82306	-0.015
Mof_S 	S 	0.77532	0.45695	0.87349	0.001
Mof_C 	C 	0.08009	0.4503	0.77716	0.075
Mof_H 	H 	0.04633	0.4175	0.76786	-0.012
Mof_C 	C 	0.1307	0.4461	0.78226	-0.129
Mof_H 	H 	0.1307	0.4105	0.77721	0.065
Mof_C 	C 	0.1801	0.4933	0.79454	0.042
Mof_H 	H 	0.2153	0.4916	0.79782	0.009
Mof_C 	C 	0.178	0.5439	0.80215	-0.131
Mof_H 	H 	0.2122	0.5779	0.81034	0.068
Mof_C 	C 	0.12595	0.5445	0.79771	0.071
Mof_C 	C 	0.11902	0.59399	0.80864	0.016
Mof_C 	C 	0.1273	0.6827	0.83041	-0.105
Mof_H 	H 	0.1378	0.7201	0.83957	0.057
Mof_C 	C 	0.0709	0.64125	0.82157	0.075
Mof_C 	C 	0.01709	0.64573	0.82431	-0.009
Mof_C 	C 	0.96693	0.60079	0.83903	0.076
Mof_C 	C 	0.9145	0.60278	0.83948	-0.007
Mof_C 	C 	0.91404	0.65127	0.82505	-0.182
Mof_H 	H 	0.87828	0.65265	0.82502	0.076
Mof_C 	C 	0.96356	0.69669	0.81099	0.228
Mof_C 	C 	0.01493	0.6933	0.81114	-0.187
Mof_H 	H 	0.04987	0.72472	0.80188	0.082
Mof_C 	C 	0.9613	0.7474	0.79535	-0.587
Mof_H 	H 	0.9322	0.7544	0.8065	0.19
Mof_H 	H 	0.9496	0.7377	0.7729	0.182
Mof_H 	H 	0.0004	0.7831	0.7965	0.186
Mof_C 	C 	0.0005	0.5647	0.88079	-0.118
Mof_H 	H 	0.9999	0.5973	0.8921	0.061
Mof_H 	H 	0.0415	0.576	0.87565	0.059
Mof_H 	H 	0.9831	0.5293	0.8944	0.058
Mof_C 	C 	0.85961	0.55489	0.85439	0.085
Mof_C 	C 	0.84302	0.49677	0.85677	-0.105
Mof_H 	H 	0.86661	0.48045	0.84988	0.08
Mof_C 	C 	0.77119	0.5205	0.87672	0.017
Mof_C 	C 	0.71947	0.52181	0.88985	0.083
Mof_C 	C 	0.66697	0.46956	0.89627	-0.126
Mof_H 	H 	0.66401	0.43207	0.89302	0.073
Mof_C 	C 	0.61904	0.47364	0.90755	0.045
Mof_H 	H 	0.58233	0.43883	0.91208	0.014
Mof_C 	C 	0.62522	0.52879	0.91207	-0.125
Mof_H 	H 	0.59277	0.53275	0.91928	0.062
Mof_C 	C 	0.67959	0.57827	0.90592	0.078
Mof_H 	H 	0.68398	0.61627	0.90955	-0.011
Mof_Ag	Ag	0.48371	0.98982	0.21298	0.558
Mof_N 	N 	0.74368	0.83153	0.11809	-0.19
Mof_N 	N 	0.73371	0.92392	0.14264	-0.171
Mof_N 	N 	0.48444	0.90084	0.19903	-0.169
Mof_N 	N 	0.39304	0.90864	0.22844	-0.191
Mof_O 	O 	0.63373	0.88549	0.18524	-0.202
Mof_S 	S 	0.84247	0.99279	0.15639	-0.015
Mof_S 	S 	0.44199	0.79028	0.20682	0.001
Mof_C 	C 	0.74676	0.78363	0.11049	0.075
Mof_H 	H 	0.713	0.75083	0.10119	-0.012
Mof_C 	C 	0.79737	0.77943	0.11559	-0.129
Mof_H 	H 	0.79737	0.74383	0.11054	0.065
Mof_C 	C 	0.84677	0.82663	0.12787	0.042
Mof_H 	H 	0.88197	0.82493	0.13115	0.009
Mof_C 	C 	0.84467	0.87723	0.13548	-0.131
Mof_H 	H 	0.87887	0.91123	0.14367	0.068
Mof_C 	C 	0.79262	0.87783	0.13104	0.071
Mof_C 	C 	0.78569	0.92732	0.14197	0.016
Mof_C 	C 	0.79397	0.01603	0.16374	-0.105
Mof_H 	H 	0.80447	0.05343	0.1729	0.057
Mof_C 	C 	0.73757	0.97458	0.1549	0.075
Mof_C 	C 	0.68376	0.97906	0.15764	-0.009
Mof_C 	C 	0.6336	0.93412	0.17236	0.076
Mof_C 	C 	0.58117	0.93611	0.17281	-0.007
Mof_C 	C 	0.58071	0.9846	0.15838	-0.182
Mof_H 	H 	0.54495	0.98598	0.15835	0.076
Mof_C 	C 	0.63023	0.03002	0.14432	0.228
Mof_C 	C 	0.6816	0.02663	0.14447	-0.187
Mof_H 	H 	0.71654	0.05805	0.13521	0.082
Mof_C 	C 	0.62797	0.08073	0.12868	-0.587
Mof_H 	H 	0.59887	0.08773	0.13983	0.19
Mof_H 	H 	0.61627	0.07103	0.10623	0.182
Mof_H 	H 	0.66707	0.11643	0.12983	0.186
Mof_C 	C 	0.66717	0.89803	0.21412	-0.118
Mof_H 	H 	0.66657	0.93063	0.22543	0.061
Mof_H 	H 	0.70817	0.90933	0.20898	0.059
Mof_H 	H 	0.64977	0.86263	0.22773	0.058
Mof_C 	C 	0.52628	0.88822	0.18772	0.085
Mof_C 	C 	0.50969	0.8301	0.1901	-0.105
Mof_H 	H 	0.53328	0.81378	0.18321	0.08
Mof_C 	C 	0.43786	0.85383	0.21005	0.017
Mof_C 	C 	0.38614	0.85514	0.22318	0.083
Mof_C 	C 	0.33364	0.80289	0.2296	-0.126
Mof_H 	H 	0.33068	0.7654	0.22635	0.073
Mof_C 	C 	0.28571	0.80697	0.24088	0.045
Mof_H 	H 	0.249	0.77216	0.24541	0.014
Mof_C 	C 	0.29189	0.86212	0.2454	-0.125
Mof_H 	H 	0.25944	0.86608	0.25261	0.062
Mof_C 	C 	0.34626	0.9116	0.23925	0.078
Mof_H 	H 	0.35065	0.9496	0.24288	-0.011
Mof_Ag	Ag	0.15037	0.32315	0.54631	0.558
Mof_N 	N 	0.41034	0.16487	0.45143	-0.19
Mof_N 	N 	0.40037	0.25726	0.47598	-0.171
Mof_N 	N 	0.1511	0.23418	0.53237	-0.169
Mof_N 	N 	0.0597	0.24198	0.56178	-0.191
Mof_O 	O 	0.30039	0.21883	0.51858	-0.202
Mof_S 	S 	0.50913	0.32613	0.48973	-0.015
Mof_S 	S 	0.10865	0.12362	0.54016	0.001
Mof_C 	C 	0.41342	0.11697	0.44383	0.075
Mof_H 	H 	0.37966	0.08417	0.43453	-0.012
Mof_C 	C 	0.46403	0.11277	0.44893	-0.129
Mof_H 	H 	0.46403	0.07717	0.44388	0.065
Mof_C 	C 	0.51343	0.15997	0.46121	0.042
Mof_H 	H 	0.54863	0.15827	0.46449	0.009
Mof_C 	C 	0.51133	0.21057	0.46882	-0.131
Mof_H 	H 	0.54553	0.24457	0.47701	0.068
Mof_C 	C 	0.45928	0.21117	0.46438	0.071
Mof_C 	C 	0.45235	0.26066	0.47531	0.016
Mof_C 	C 	0.46063	0.34937	0.49708	-0.105
Mof_H 	H 	0.47113	0.38677	0.50624	0.057
Mof_C 	C 	0.40423	0.30792	0.48824	0.075
Mof_C 	C 	0.35042	0.3124	0.49098	-0.009
Mof_C 	C 	0.30026	0.26746	0.5057	0.076
Mof_C 	C 	0.24783	0.26945	0.50615	-0.007
Mof_C 	C 	0.24737	0.31794	0.49172	-0.182
Mof_H 	H 	0.21161	0.31932	0.49169	0.076
Mof_C 	C 	0.29689	0.36336	0.47766	0.228
Mof_C 	C 	0.34826	0.35997	0.47781	-0.187
Mof_H 	H 	0.3832	0.39139	0.46855	0.082
Mof_C 	C 	0.29463	0.41407	0.46202	-0.587
Mof_H 	H 	0.26553	0.42107	0.47317	0.19
Mof_H 	H 	0.28293	0.40437	0.43957	0.182
Mof_H 	H 	0.33373	0.44977	0.46317	0.186
Mof_C 	C 	0.33383	0.23137	0.54746	-0.118
Mof_H 	H 	0.33323	0.26397	0.55877	0.061
Mof_H 	H 	0.37483	0.24267	0.54232	0.059
Mof_H 	H 	0.31643	0.19597	0.56107	0.058
Mof_C 	C 	0.19294	0.22156	0.52106	0.085
Mof_C 	C 	0.17635	0.16344	0.52344	-0.105
Mof_H 	H 	0.19994	0.14712	0.51655	0.08
Mof_C 	C 	0.10452	0.18717	0.54339	0.017
Mof_C 	C 	0.0528	0.18848	0.55652	0.083
Mof_C 	C 	0.0003	0.13623	0.56294	-0.126
Mof_H 	H 	0.99734	0.09874	0.55969	0.073
Mof_C 	C 	0.95237	0.14031	0.57422	0.045
Mof_H 	H 	0.91566	0.1055	0.57875	0.014
Mof_C 	C 	0.95855	0.19546	0.57874	-0.125
Mof_H 	H 	0.9261	0.19942	0.58595	0.062
Mof_C 	C 	0.01292	0.24494	0.57259	0.078
Mof_H 	H 	0.01731	0.28294	0.57622	-0.011
Mof_Ag	Ag	0.83945	0.18296	0.87964	0.558
Mof_N 	N 	0.42119	0.92299	0.78476	-0.19
Mof_N 	N 	0.52355	0.93296	0.80931	-0.171
Mof_N 	N 	0.74974	0.18223	0.8657	-0.169
Mof_N 	N 	0.84894	0.27363	0.89511	-0.191
Mof_O 	O 	0.5851	0.03294	0.85191	-0.202
Mof_S 	S 	0.48366	0.8242	0.82306	-0.015
Mof_S 	S 	0.68163	0.22468	0.87349	0.001
Mof_C 	C 	0.37021	0.91991	0.77716	0.075
Mof_H 	H 	0.37117	0.95367	0.76786	-0.012
Mof_C 	C 	0.3154	0.8693	0.78226	-0.129
Mof_H 	H 	0.2798	0.8693	0.77721	0.065
Mof_C 	C 	0.3132	0.8199	0.79454	0.042
Mof_H 	H 	0.2763	0.7847	0.79782	0.009
Mof_C 	C 	0.3659	0.822	0.80215	-0.131
Mof_H 	H 	0.3657	0.7878	0.81034	0.068
Mof_C 	C 	0.41855	0.87405	0.79771	0.071
Mof_C 	C 	0.47497	0.88098	0.80864	0.016
Mof_C 	C 	0.5554	0.8727	0.83041	-0.105
Mof_H 	H 	0.5823	0.8622	0.83957	0.057
Mof_C 	C 	0.57035	0.9291	0.82157	0.075
Mof_C 	C 	0.62864	0.98291	0.82431	-0.009
Mof_C 	C 	0.63386	0.03307	0.83903	0.076
Mof_C 	C 	0.68828	0.0855	0.83948	-0.007
Mof_C 	C 	0.73723	0.08596	0.82505	-0.182
Mof_H 	H 	0.77437	0.12172	0.82502	0.076
Mof_C 	C 	0.73313	0.03644	0.81099	0.228
Mof_C 	C 	0.67837	0.98507	0.81114	-0.187
Mof_H 	H 	0.67485	0.95013	0.80188	0.082
Mof_C 	C 	0.7861	0.0387	0.79535	-0.587
Mof_H 	H 	0.8222	0.0678	0.8065	0.19
Mof_H 	H 	0.7881	0.0504	0.7729	0.182
Mof_H 	H 	0.7827	0.9996	0.7965	0.186
Mof_C 	C 	0.5642	0.9995	0.88079	-0.118
Mof_H 	H 	0.5974	0.0001	0.8921	0.061
Mof_H 	H 	0.5345	0.9585	0.87565	0.059
Mof_H 	H 	0.5462	0.0169	0.8944	0.058
Mof_C 	C 	0.69528	0.14039	0.85439	0.085
Mof_C 	C 	0.65375	0.15698	0.85677	-0.105
Mof_H 	H 	0.61384	0.13339	0.84988	0.08
Mof_C 	C 	0.74931	0.22881	0.87672	0.017
Mof_C 	C 	0.80234	0.28053	0.88985	0.083
Mof_C 	C 	0.80259	0.33303	0.89627	-0.126
Mof_H 	H 	0.76806	0.33599	0.89302	0.073
Mof_C 	C 	0.8546	0.38096	0.90755	0.045
Mof_H 	H 	0.8565	0.41767	0.91208	0.014
Mof_C 	C 	0.90357	0.37478	0.91207	-0.125
Mof_H 	H 	0.93998	0.40723	0.91928	0.062
Mof_C 	C 	0.89868	0.32041	0.90592	0.078
Mof_H 	H 	0.93229	0.31602	0.90955	-0.011
Mof_Ag	Ag	0.50611	0.51629	0.21298	0.558
Mof_N 	N 	0.08786	0.25632	0.11809	-0.19
Mof_N 	N 	0.19022	0.26629	0.14264	-0.171
Mof_N 	N 	0.41641	0.51556	0.19903	-0.169
Mof_N 	N 	0.51561	0.60696	0.22844	-0.191
Mof_O 	O 	0.25177	0.36627	0.18524	-0.202
Mof_S 	S 	0.15033	0.15753	0.15639	-0.015
Mof_S 	S 	0.3483	0.55801	0.20682	0.001
Mof_C 	C 	0.03688	0.25324	0.11049	0.075
Mof_H 	H 	0.03784	0.287	0.10119	-0.012
Mof_C 	C 	0.98207	0.20263	0.11559	-0.129
Mof_H 	H 	0.94647	0.20263	0.11054	0.065
Mof_C 	C 	0.97987	0.15323	0.12787	0.042
Mof_H 	H 	0.94297	0.11803	0.13115	0.009
Mof_C 	C 	0.03257	0.15533	0.13548	-0.131
Mof_H 	H 	0.03237	0.12113	0.14367	0.068
Mof_C 	C 	0.08522	0.20738	0.13104	0.071
Mof_C 	C 	0.14164	0.21431	0.14197	0.016
Mof_C 	C 	0.22207	0.20603	0.16374	-0.105
Mof_H 	H 	0.24897	0.19553	0.1729	0.057
Mof_C 	C 	0.23702	0.26243	0.1549	0.075
Mof_C 	C 	0.29531	0.31624	0.15764	-0.009
Mof_C 	C 	0.30053	0.3664	0.17236	0.076
Mof_C 	C 	0.35495	0.41883	0.17281	-0.007
Mof_C 	C 	0.4039	0.41929	0.15838	-0.182
Mof_H 	H 	0.44104	0.45505	0.15835	0.076
Mof_C 	C 	0.3998	0.36977	0.14432	0.228
Mof_C 	C 	0.34504	0.3184	0.14447	-0.187
Mof_H 	H 	0.34152	0.28346	0.13521	0.082
Mof_C 	C 	0.45277	0.37203	0.12868	-0.587
Mof_H 	H 	0.48887	0.40113	0.13983	0.19
Mof_H 	H 	0.45477	0.38373	0.10623	0.182
Mof_H 	H 	0.44937	0.33293	0.12983	0.186
Mof_C 	C 	0.23087	0.33283	0.21412	-0.118
Mof_H 	H 	0.26407	0.33343	0.22543	0.061
Mof_H 	H 	0.20117	0.29183	0.20898	0.059
Mof_H 	H 	0.21287	0.35023	0.22773	0.058
Mof_C 	C 	0.36195	0.47372	0.18772	0.085
Mof_C 	C 	0.32042	0.49031	0.1901	-0.105
Mof_H 	H 	0.28051	0.46672	0.18321	0.08
Mof_C 	C 	0.41598	0.56214	0.21005	0.017
Mof_C 	C 	0.46901	0.61386	0.22318	0.083
Mof_C 	C 	0.46926	0.66636	0.2296	-0.126
Mof_H 	H 	0.43473	0.66932	0.22635	0.073
Mof_C 	C 	0.52127	0.71429	0.24088	0.045
Mof_H 	H 	0.52317	0.751	0.24541	0.014
Mof_C 	C 	0.57024	0.70811	0.2454	-0.125
Mof_H 	H 	0.60665	0.74056	0.25261	0.062
Mof_C 	C 	0.56535	0.65374	0.23925	0.078
Mof_H 	H 	0.59896	0.64935	0.24288	-0.011
Mof_Ag	Ag	0.17278	0.84963	0.54631	0.558
Mof_N 	N 	0.75452	0.58966	0.45143	-0.19
Mof_N 	N 	0.85688	0.59963	0.47598	-0.171
Mof_N 	N 	0.08307	0.8489	0.53237	-0.169
Mof_N 	N 	0.18227	0.9403	0.56178	-0.191
Mof_O 	O 	0.91843	0.69961	0.51858	-0.202
Mof_S 	S 	0.81699	0.49087	0.48973	-0.015
Mof_S 	S 	0.01496	0.89135	0.54016	0.001
Mof_C 	C 	0.70354	0.58658	0.44383	0.075
Mof_H 	H 	0.7045	0.62034	0.43453	-0.012
Mof_C 	C 	0.64873	0.53597	0.44893	-0.129
Mof_H 	H 	0.61313	0.53597	0.44388	0.065
Mof_C 	C 	0.64653	0.48657	0.46121	0.042
Mof_H 	H 	0.60963	0.45137	0.46449	0.009
Mof_C 	C 	0.69923	0.48867	0.46882	-0.131
Mof_H 	H 	0.69903	0.45447	0.47701	0.068
Mof_C 	C 	0.75188	0.54072	0.46438	0.071
Mof_C 	C 	0.8083	0.54765	0.47531	0.016
Mof_C 	C 	0.88873	0.53937	0.49708	-0.105
Mof_H 	H 	0.91563	0.52887	0.50624	0.057
Mof_C 	C 	0.90368	0.59577	0.48824	0.075
Mof_C 	C 	0.96197	0.64958	0.49098	-0.009
Mof_C 	C 	0.96719	0.69974	0.5057	0.076
Mof_C 	C 	0.02161	0.75217	0.50615	-0.007
Mof_C 	C 	0.07056	0.75263	0.49172	-0.182
Mof_H 	H 	0.1077	0.78839	0.49169	0.076
Mof_C 	C 	0.06646	0.70311	0.47766	0.228
Mof_C 	C 	0.0117	0.65174	0.47781	-0.187
Mof_H 	H 	0.00818	0.6168	0.46855	0.082
Mof_C 	C 	0.11943	0.70537	0.46202	-0.587
Mof_H 	H 	0.15553	0.73447	0.47317	0.19
Mof_H 	H 	0.12143	0.71707	0.43957	0.182
Mof_H 	H 	0.11603	0.66627	0.46317	0.186
Mof_C 	C 	0.89753	0.66617	0.54746	-0.118
Mof_H 	H 	0.93073	0.66677	0.55877	0.061
Mof_H 	H 	0.86783	0.62517	0.54232	0.059
Mof_H 	H 	0.87953	0.68357	0.56107	0.058
Mof_C 	C 	0.02861	0.80706	0.52106	0.085
Mof_C 	C 	0.98708	0.82365	0.52344	-0.105
Mof_H 	H 	0.94717	0.80006	0.51655	0.08
Mof_C 	C 	0.08264	0.89548	0.54339	0.017
Mof_C 	C 	0.13567	0.9472	0.55652	0.083
Mof_C 	C 	0.13592	0.9997	0.56294	-0.126
Mof_H 	H 	0.10139	0.00266	0.55969	0.073
Mof_C 	C 	0.18793	0.04763	0.57422	0.045
Mof_H 	H 	0.18983	0.08434	0.57875	0.014
Mof_C 	C 	0.2369	0.04145	0.57874	-0.125
Mof_H 	H 	0.27331	0.0739	0.58595	0.062
Mof_C 	C 	0.23201	0.98708	0.57259	0.078
Mof_H 	H 	0.26562	0.98269	0.57622	-0.011
_end
