data_functionalizedCrystal
_audit_creation_method	'EQeq! by Chris Wilmer'
_symmetry_space_group_name_H-M	'P1'
_symmetry_Int_Tables_number	1
_symmetry_cell_setting	triclinic
loop_
_symmetry_equiv_pos_as_xyz
  x,y,z
_cell_length_a	20.506
_cell_length_b	20.506
_cell_length_c	20.506
_cell_angle_alpha	90
_cell_angle_beta	90
_cell_angle_gamma	90
loop_
_atom_site_label
_atom_site_type_symbol
_atom_site_fract_x
_atom_site_fract_y
_atom_site_fract_z
_atom_site_charge
Mof_Pr	Pr	0.02032	0.74228	0.14371	1.882
Mof_Pr	Pr	0.52032	0.75772	0.85629	1.882
Mof_Pr	Pr	0.74228	0.35629	0.52032	1.881
Mof_Pr	Pr	0.14371	0.02032	0.74228	1.882
Mof_Pr	Pr	0.24228	0.14371	0.47968	1.882
Mof_Pr	Pr	0.74228	0.14371	0.02032	1.882
Mof_Pr	Pr	0.97968	0.25772	0.85629	1.881
Mof_Pr	Pr	0.75772	0.64371	0.02032	1.877
Mof_Pr	Pr	0.35629	0.97968	0.24228	1.877
Mof_Pr	Pr	0.52032	0.74228	0.35629	1.88
Mof_Pr	Pr	0.85629	0.97968	0.25772	1.881
Mof_Pr	Pr	0.25772	0.64371	0.47968	1.88
Mof_Pr	Pr	0.64371	0.02032	0.75772	1.877
Mof_Pr	Pr	0.35629	0.52032	0.74228	1.88
Mof_Pr	Pr	0.02032	0.75772	0.64371	1.877
Mof_Pr	Pr	0.14371	0.47968	0.24228	1.881
Mof_Pr	Pr	0.85629	0.52032	0.75772	1.881
Mof_Pr	Pr	0.47968	0.25772	0.64371	1.88
Mof_Pr	Pr	0.47968	0.24228	0.14371	1.881
Mof_Pr	Pr	0.25772	0.85629	0.97968	1.881
Mof_Pr	Pr	0.75772	0.85629	0.52032	1.881
Mof_Pr	Pr	0.97968	0.24228	0.35629	1.877
Mof_Pr	Pr	0.64371	0.47968	0.25772	1.88
Mof_Pr	Pr	0.24228	0.35629	0.97968	1.877
Mof_H 	H 	0.2167	0.0515	0.0115	0.024
Mof_H 	H 	0.8884	0.039	0.8652	-0.006
Mof_H 	H 	0.5512	0.308	0.3944	-0.018
Mof_H 	H 	0.3884	0.461	0.1348	-0.008
Mof_H 	H 	0.9488	0.808	0.3944	-0.017
Mof_H 	H 	0.539	0.6348	0.1116	-0.008
Mof_H 	H 	0.9488	0.692	0.8944	-0.015
Mof_H 	H 	0.4885	0.7833	0.5515	0.025
Mof_H 	H 	0.3944	0.9488	0.808	-0.017
Mof_H 	H 	0.8944	0.9488	0.692	-0.015
Mof_H 	H 	0.2833	0.5515	0.0115	0.025
Mof_H 	H 	0.1116	0.539	0.6348	-0.008
Mof_H 	H 	0.4488	0.692	0.6056	-0.018
Mof_H 	H 	0.0512	0.192	0.6056	-0.017
Mof_H 	H 	0.4485	0.5115	0.2167	0.025
Mof_H 	H 	0.0515	0.4885	0.7167	0.025
Mof_H 	H 	0.961	0.1348	0.1116	-0.006
Mof_H 	H 	0.0515	0.0115	0.2167	0.024
Mof_H 	H 	0.539	0.8652	0.6116	-0.008
Mof_H 	H 	0.692	0.8944	0.9488	-0.015
Mof_H 	H 	0.6116	0.961	0.3652	-0.008
Mof_H 	H 	0.7167	0.0515	0.4885	0.025
Mof_H 	H 	0.4885	0.7167	0.0515	0.025
Mof_H 	H 	0.0512	0.308	0.1056	-0.015
Mof_H 	H 	0.192	0.6056	0.0512	-0.017
Mof_H 	H 	0.1348	0.1116	0.961	-0.006
Mof_H 	H 	0.6348	0.3884	0.039	-0.008
Mof_H 	H 	0.5115	0.2167	0.4485	0.025
Mof_H 	H 	0.6056	0.0512	0.192	-0.017
Mof_H 	H 	0.6348	0.1116	0.539	-0.008
Mof_H 	H 	0.8652	0.8884	0.039	-0.006
Mof_H 	H 	0.2167	0.4485	0.5115	0.025
Mof_H 	H 	0.1116	0.961	0.1348	-0.006
Mof_H 	H 	0.039	0.8652	0.8884	-0.006
Mof_H 	H 	0.4485	0.9885	0.7167	0.025
Mof_H 	H 	0.308	0.1056	0.0512	-0.015
Mof_H 	H 	0.8884	0.461	0.3652	-0.008
Mof_H 	H 	0.308	0.3944	0.5512	-0.018
Mof_H 	H 	0.4488	0.808	0.1056	-0.018
Mof_H 	H 	0.6056	0.4488	0.692	-0.018
Mof_H 	H 	0.1056	0.0512	0.308	-0.015
Mof_H 	H 	0.9485	0.9885	0.7833	0.024
Mof_H 	H 	0.808	0.1056	0.4488	-0.018
Mof_H 	H 	0.1348	0.3884	0.461	-0.008
Mof_H 	H 	0.7167	0.4485	0.9885	0.025
Mof_H 	H 	0.8652	0.6116	0.539	-0.008
Mof_H 	H 	0.9885	0.7833	0.9485	0.024
Mof_H 	H 	0.3652	0.8884	0.461	-0.008
Mof_H 	H 	0.808	0.3944	0.9488	-0.017
Mof_H 	H 	0.7833	0.9485	0.9885	0.024
Mof_H 	H 	0.692	0.6056	0.4488	-0.018
Mof_H 	H 	0.5515	0.0115	0.2833	0.025
Mof_H 	H 	0.3652	0.6116	0.961	-0.008
Mof_H 	H 	0.5115	0.2833	0.9485	0.025
Mof_H 	H 	0.5515	0.4885	0.7833	0.025
Mof_H 	H 	0.461	0.3652	0.8884	-0.008
Mof_H 	H 	0.1056	0.4488	0.808	-0.018
Mof_H 	H 	0.8944	0.5512	0.192	-0.018
Mof_H 	H 	0.9485	0.5115	0.2833	0.025
Mof_H 	H 	0.6116	0.539	0.8652	-0.008
Mof_H 	H 	0.192	0.8944	0.5512	-0.018
Mof_H 	H 	0.0115	0.2167	0.0515	0.024
Mof_H 	H 	0.3884	0.039	0.6348	-0.008
Mof_H 	H 	0.461	0.1348	0.3884	-0.008
Mof_H 	H 	0.0115	0.2833	0.5515	0.025
Mof_H 	H 	0.7833	0.5515	0.4885	0.025
Mof_H 	H 	0.9885	0.7167	0.4485	0.025
Mof_H 	H 	0.2833	0.9485	0.5115	0.025
Mof_H 	H 	0.039	0.6348	0.3884	-0.008
Mof_H 	H 	0.961	0.3652	0.6116	-0.008
Mof_H 	H 	0.3944	0.5512	0.308	-0.018
Mof_H 	H 	0.5512	0.192	0.8944	-0.018
Mof_C 	C 	0.83345	0.26318	0.95008	0.4
Mof_C 	C 	0.6288	0.24226	0.56015	0.4
Mof_C 	C 	0.80429	0.97495	0.72238	-0.107
Mof_C 	C 	0.6323	0.9775	0.3284	0.015
Mof_C 	C 	0.7204	0.4035	0.9925	-0.114
Mof_C 	C 	0.0075	0.2796	0.5965	-0.114
Mof_C 	C 	0.77762	0.19571	0.47495	-0.111
Mof_C 	C 	0.43985	0.3712	0.75774	0.4
Mof_C 	C 	0.1323	0.5225	0.6716	0.016
Mof_C 	C 	0.32167	0.6988	0.97238	-0.111
Mof_C 	C 	0.26318	0.54992	0.33345	0.4
Mof_C 	C 	0.2204	0.0965	0.0075	-0.106
Mof_C 	C 	0.19571	0.02505	0.27762	-0.107
Mof_C 	C 	0.02505	0.22238	0.69571	-0.111
Mof_C 	C 	0.69571	0.47495	0.72238	-0.111
Mof_C 	C 	0.4775	0.1716	0.3677	0.016
Mof_C 	C 	0.2256	0.6286	0.0313	0.017
Mof_C 	C 	0.73682	0.04992	0.16655	0.4
Mof_C 	C 	0.9925	0.7204	0.4035	-0.114
Mof_C 	C 	0.5225	0.8284	0.6323	0.016
Mof_C 	C 	0.52505	0.27762	0.30429	-0.111
Mof_C 	C 	0.2744	0.1286	0.0313	0.012
Mof_C 	C 	0.77762	0.30429	0.97495	-0.111
Mof_C 	C 	0.1286	0.4687	0.7744	0.017
Mof_C 	C 	0.0965	0.4925	0.7204	-0.115
Mof_C 	C 	0.67833	0.3012	0.02762	-0.111
Mof_C 	C 	0.95008	0.66655	0.76318	0.399
Mof_C 	C 	0.45008	0.66655	0.73682	0.4
Mof_C 	C 	0.56015	0.6288	0.24226	0.4
Mof_C 	C 	0.97495	0.77762	0.30429	-0.111
Mof_C 	C 	0.4687	0.7744	0.1286	0.017
Mof_C 	C 	0.24226	0.93985	0.1288	0.399
Mof_C 	C 	0.5075	0.2204	0.4035	-0.115
Mof_C 	C 	0.5965	0.0075	0.2796	-0.114
Mof_C 	C 	0.32167	0.8012	0.47238	-0.112
Mof_C 	C 	0.69571	0.02505	0.22238	-0.111
Mof_C 	C 	0.52762	0.67833	0.1988	-0.112
Mof_C 	C 	0.72238	0.69571	0.47495	-0.111
Mof_C 	C 	0.3714	0.9687	0.7744	0.017
Mof_C 	C 	0.27762	0.30429	0.52505	-0.111
Mof_C 	C 	0.7256	0.6286	0.4687	0.017
Mof_C 	C 	0.25774	0.06015	0.6288	0.4
Mof_C 	C 	0.8714	0.9687	0.7256	0.012
Mof_C 	C 	0.72238	0.80429	0.97495	-0.107
Mof_C 	C 	0.33345	0.23682	0.04992	0.399
Mof_C 	C 	0.1286	0.0313	0.2744	0.012
Mof_C 	C 	0.52762	0.82167	0.6988	-0.112
Mof_C 	C 	0.27762	0.19571	0.02505	-0.107
Mof_C 	C 	0.7744	0.1286	0.4687	0.017
Mof_C 	C 	0.30429	0.52505	0.27762	-0.111
Mof_C 	C 	0.83345	0.23682	0.45008	0.4
Mof_C 	C 	0.9925	0.7796	0.9035	-0.106
Mof_C 	C 	0.5313	0.2744	0.3714	0.017
Mof_C 	C 	0.1288	0.24226	0.93985	0.399
Mof_C 	C 	0.1288	0.25774	0.43985	0.4
Mof_C 	C 	0.17833	0.3012	0.47238	-0.112
Mof_C 	C 	0.9035	0.9925	0.7796	-0.106
Mof_C 	C 	0.8677	0.4775	0.3284	0.016
Mof_C 	C 	0.04992	0.16655	0.73682	0.4
Mof_C 	C 	0.1716	0.3677	0.4775	0.016
Mof_C 	C 	0.1323	0.9775	0.1716	0.008
Mof_C 	C 	0.2204	0.4035	0.5075	-0.115
Mof_C 	C 	0.8712	0.74226	0.56015	0.4
Mof_C 	C 	0.4035	0.5075	0.2204	-0.115
Mof_C 	C 	0.1716	0.1323	0.9775	0.008
Mof_C 	C 	0.6988	0.52762	0.82167	-0.112
Mof_C 	C 	0.3012	0.02762	0.67833	-0.111
Mof_C 	C 	0.97238	0.32167	0.6988	-0.111
Mof_C 	C 	0.23682	0.04992	0.33345	0.399
Mof_C 	C 	0.6286	0.4687	0.7256	0.017
Mof_C 	C 	0.06015	0.6288	0.25774	0.4
Mof_C 	C 	0.97238	0.17833	0.1988	-0.109
Mof_C 	C 	0.3284	0.6323	0.9775	0.015
Mof_C 	C 	0.76318	0.54992	0.16655	0.4
Mof_C 	C 	0.47238	0.32167	0.8012	-0.112
Mof_C 	C 	0.56015	0.8712	0.74226	0.4
Mof_C 	C 	0.3712	0.75774	0.43985	0.4
Mof_C 	C 	0.16655	0.76318	0.54992	0.4
Mof_C 	C 	0.7796	0.9035	0.9925	-0.106
Mof_C 	C 	0.7256	0.8714	0.9687	0.012
Mof_C 	C 	0.22238	0.80429	0.52505	-0.111
Mof_C 	C 	0.24226	0.56015	0.6288	0.4
Mof_C 	C 	0.1988	0.52762	0.67833	-0.112
Mof_C 	C 	0.67833	0.1988	0.52762	-0.112
Mof_C 	C 	0.97495	0.72238	0.80429	-0.107
Mof_C 	C 	0.45008	0.83345	0.23682	0.4
Mof_C 	C 	0.0313	0.2256	0.6286	0.017
Mof_C 	C 	0.8677	0.0225	0.8284	0.008
Mof_C 	C 	0.9687	0.7256	0.8714	0.012
Mof_C 	C 	0.6288	0.25774	0.06015	0.4
Mof_C 	C 	0.16655	0.73682	0.04992	0.4
Mof_C 	C 	0.4035	0.9925	0.7204	-0.114
Mof_C 	C 	0.6716	0.3677	0.0225	0.015
Mof_C 	C 	0.3714	0.5313	0.2744	0.017
Mof_C 	C 	0.02762	0.82167	0.8012	-0.109
Mof_C 	C 	0.9775	0.3284	0.6323	0.015
Mof_C 	C 	0.22238	0.69571	0.02505	-0.111
Mof_C 	C 	0.8284	0.8677	0.0225	0.008
Mof_C 	C 	0.4925	0.7204	0.0965	-0.115
Mof_C 	C 	0.82167	0.6988	0.52762	-0.112
Mof_C 	C 	0.3712	0.74226	0.93985	0.4
Mof_C 	C 	0.95008	0.83345	0.26318	0.4
Mof_C 	C 	0.04992	0.33345	0.23682	0.399
Mof_C 	C 	0.54992	0.33345	0.26318	0.4
Mof_C 	C 	0.93985	0.3712	0.74226	0.4
Mof_C 	C 	0.3677	0.0225	0.6716	0.015
Mof_C 	C 	0.6286	0.0313	0.2256	0.017
Mof_C 	C 	0.23682	0.45008	0.83345	0.4
Mof_C 	C 	0.47238	0.17833	0.3012	-0.112
Mof_C 	C 	0.0225	0.6716	0.3677	0.015
Mof_C 	C 	0.3012	0.47238	0.17833	-0.112
Mof_C 	C 	0.02762	0.67833	0.3012	-0.111
Mof_C 	C 	0.8012	0.47238	0.32167	-0.112
Mof_C 	C 	0.2796	0.9035	0.5075	-0.115
Mof_C 	C 	0.8284	0.6323	0.5225	0.016
Mof_C 	C 	0.8012	0.02762	0.82167	-0.109
Mof_C 	C 	0.66655	0.76318	0.95008	0.399
Mof_C 	C 	0.1988	0.97238	0.17833	-0.109
Mof_C 	C 	0.43985	0.1288	0.25774	0.4
Mof_C 	C 	0.52505	0.22238	0.80429	-0.111
Mof_C 	C 	0.0075	0.2204	0.0965	-0.106
Mof_C 	C 	0.3677	0.4775	0.1716	0.016
Mof_C 	C 	0.2796	0.5965	0.0075	-0.114
Mof_C 	C 	0.4687	0.7256	0.6286	0.017
Mof_C 	C 	0.80429	0.52505	0.22238	-0.111
Mof_C 	C 	0.4775	0.3284	0.8677	0.016
Mof_C 	C 	0.47495	0.72238	0.69571	-0.111
Mof_C 	C 	0.33345	0.26318	0.54992	0.4
Mof_C 	C 	0.26318	0.95008	0.83345	0.4
Mof_C 	C 	0.75774	0.43985	0.3712	0.4
Mof_C 	C 	0.9775	0.1716	0.1323	0.008
Mof_C 	C 	0.7204	0.0965	0.4925	-0.115
Mof_C 	C 	0.6988	0.97238	0.32167	-0.111
Mof_C 	C 	0.02505	0.27762	0.19571	-0.107
Mof_C 	C 	0.6323	0.5225	0.8284	0.016
Mof_C 	C 	0.0225	0.8284	0.8677	0.008
Mof_C 	C 	0.5225	0.6716	0.1323	0.016
Mof_C 	C 	0.8714	0.5313	0.2256	0.017
Mof_C 	C 	0.73682	0.45008	0.66655	0.4
Mof_C 	C 	0.2744	0.3714	0.5313	0.017
Mof_C 	C 	0.7744	0.3714	0.9687	0.017
Mof_C 	C 	0.19571	0.47495	0.77762	-0.111
Mof_C 	C 	0.74226	0.93985	0.3712	0.4
Mof_C 	C 	0.93985	0.1288	0.24226	0.399
Mof_C 	C 	0.9035	0.5075	0.2796	-0.115
Mof_C 	C 	0.4925	0.7796	0.5965	-0.115
Mof_C 	C 	0.30429	0.97495	0.77762	-0.111
Mof_C 	C 	0.47495	0.77762	0.19571	-0.111
Mof_C 	C 	0.9687	0.7744	0.3714	0.017
Mof_C 	C 	0.06015	0.8712	0.75774	0.399
Mof_C 	C 	0.17833	0.1988	0.97238	-0.109
Mof_C 	C 	0.75774	0.06015	0.8712	0.399
Mof_C 	C 	0.74226	0.56015	0.8712	0.4
Mof_C 	C 	0.2256	0.8714	0.5313	0.017
Mof_C 	C 	0.3284	0.8677	0.4775	0.016
Mof_C 	C 	0.7796	0.5965	0.4925	-0.115
Mof_C 	C 	0.76318	0.95008	0.66655	0.399
Mof_C 	C 	0.5075	0.2796	0.9035	-0.115
Mof_C 	C 	0.6716	0.1323	0.5225	0.016
Mof_C 	C 	0.82167	0.8012	0.02762	-0.109
Mof_C 	C 	0.0965	0.0075	0.2204	-0.106
Mof_C 	C 	0.0313	0.2744	0.1286	0.012
Mof_C 	C 	0.54992	0.16655	0.76318	0.4
Mof_C 	C 	0.66655	0.73682	0.45008	0.4
Mof_C 	C 	0.25774	0.43985	0.1288	0.4
Mof_C 	C 	0.5965	0.4925	0.7796	-0.115
Mof_C 	C 	0.5313	0.2256	0.8714	0.017
Mof_C 	C 	0.8712	0.75774	0.06015	0.399
Mof_N 	N 	0.23089	0.23016	0.99532	-0.203
Mof_N 	N 	0.76911	0.76984	0.00468	-0.203
Mof_N 	N 	0.73016	0.99532	0.26911	-0.201
Mof_N 	N 	0.73016	0.50468	0.76911	-0.201
Mof_N 	N 	0.23016	0.50468	0.73089	-0.201
Mof_N 	N 	0.99532	0.26911	0.73016	-0.201
Mof_N 	N 	0.00468	0.73089	0.26984	-0.201
Mof_N 	N 	0.00468	0.76911	0.76984	-0.203
Mof_N 	N 	0.73089	0.23016	0.50468	-0.201
Mof_N 	N 	0.49532	0.26911	0.76984	-0.201
Mof_N 	N 	0.26911	0.76984	0.49532	-0.201
Mof_N 	N 	0.76984	0.00468	0.76911	-0.203
Mof_N 	N 	0.50468	0.73089	0.23016	-0.201
Mof_N 	N 	0.26984	0.00468	0.73089	-0.201
Mof_N 	N 	0.26911	0.73016	0.99532	-0.201
Mof_N 	N 	0.23089	0.26984	0.49532	-0.201
Mof_N 	N 	0.73089	0.26984	0.00468	-0.201
Mof_N 	N 	0.23016	0.99532	0.23089	-0.203
Mof_N 	N 	0.76911	0.73016	0.50468	-0.201
Mof_N 	N 	0.50468	0.76911	0.73016	-0.201
Mof_N 	N 	0.99532	0.23089	0.23016	-0.203
Mof_N 	N 	0.76984	0.49532	0.26911	-0.201
Mof_N 	N 	0.49532	0.23089	0.26984	-0.201
Mof_N 	N 	0.26984	0.49532	0.23089	-0.201
Mof_O 	O 	0.58032	0.57739	0.21764	-0.53
Mof_O 	O 	0.41968	0.42261	0.78236	-0.53
Mof_O 	O 	0.35608	0.69787	0.43546	-0.56
Mof_O 	O 	0.58464	0.37571	0.28916	-0.535
Mof_O 	O 	0.42261	0.71764	0.91968	-0.53
Mof_O 	O 	0.78236	0.41968	0.42261	-0.53
Mof_O 	O 	0.06454	0.85608	0.69787	-0.56
Mof_O 	O 	0.28916	0.58464	0.37571	-0.535
Mof_O 	O 	0.83226	0.29638	0.46669	-0.55
Mof_O 	O 	0.69787	0.43546	0.35608	-0.56
Mof_O 	O 	0.03331	0.16774	0.79638	-0.551
Mof_O 	O 	0.70362	0.96669	0.66774	-0.549
Mof_O 	O 	0.12429	0.71084	0.08464	-0.535
Mof_O 	O 	0.91968	0.07739	0.21764	-0.53
Mof_O 	O 	0.43546	0.35608	0.69787	-0.56
Mof_O 	O 	0.80213	0.56454	0.85608	-0.559
Mof_O 	O 	0.28236	0.41968	0.07739	-0.529
Mof_O 	O 	0.62429	0.71084	0.41536	-0.535
Mof_O 	O 	0.71084	0.08464	0.12429	-0.535
Mof_O 	O 	0.33226	0.29638	0.03331	-0.549
Mof_O 	O 	0.78236	0.08032	0.92261	-0.53
Mof_O 	O 	0.53331	0.33226	0.20362	-0.55
Mof_O 	O 	0.66774	0.70362	0.96669	-0.549
Mof_O 	O 	0.96669	0.83226	0.20362	-0.551
Mof_O 	O 	0.28916	0.91536	0.87571	-0.535
Mof_O 	O 	0.19787	0.43546	0.14392	-0.559
Mof_O 	O 	0.87571	0.28916	0.91536	-0.535
Mof_O 	O 	0.14392	0.30213	0.93546	-0.56
Mof_O 	O 	0.71764	0.91968	0.42261	-0.53
Mof_O 	O 	0.43546	0.14392	0.19787	-0.559
Mof_O 	O 	0.20362	0.53331	0.33226	-0.55
Mof_O 	O 	0.30213	0.93546	0.14392	-0.56
Mof_O 	O 	0.85608	0.69787	0.06454	-0.56
Mof_O 	O 	0.16774	0.70362	0.53331	-0.55
Mof_O 	O 	0.56454	0.85608	0.80213	-0.559
Mof_O 	O 	0.37571	0.28916	0.58464	-0.535
Mof_O 	O 	0.41968	0.07739	0.28236	-0.529
Mof_O 	O 	0.93546	0.35608	0.80213	-0.56
Mof_O 	O 	0.64392	0.19787	0.06454	-0.56
Mof_O 	O 	0.71084	0.41536	0.62429	-0.535
Mof_O 	O 	0.28236	0.08032	0.57739	-0.53
Mof_O 	O 	0.96669	0.66774	0.70362	-0.549
Mof_O 	O 	0.21084	0.41536	0.87571	-0.535
Mof_O 	O 	0.41536	0.62429	0.71084	-0.535
Mof_O 	O 	0.56454	0.64392	0.30213	-0.56
Mof_O 	O 	0.03331	0.33226	0.29638	-0.549
Mof_O 	O 	0.29638	0.03331	0.33226	-0.549
Mof_O 	O 	0.70362	0.53331	0.16774	-0.55
Mof_O 	O 	0.21764	0.58032	0.57739	-0.53
Mof_O 	O 	0.87571	0.21084	0.41536	-0.535
Mof_O 	O 	0.92261	0.71764	0.58032	-0.529
Mof_O 	O 	0.69787	0.06454	0.85608	-0.56
Mof_O 	O 	0.20362	0.96669	0.83226	-0.551
Mof_O 	O 	0.92261	0.78236	0.08032	-0.53
Mof_O 	O 	0.79638	0.46669	0.66774	-0.55
Mof_O 	O 	0.16774	0.79638	0.03331	-0.551
Mof_O 	O 	0.08464	0.37571	0.21084	-0.534
Mof_O 	O 	0.08032	0.57739	0.28236	-0.53
Mof_O 	O 	0.21084	0.08464	0.37571	-0.534
Mof_O 	O 	0.35608	0.80213	0.93546	-0.56
Mof_O 	O 	0.06454	0.64392	0.19787	-0.56
Mof_O 	O 	0.21764	0.91968	0.07739	-0.53
Mof_O 	O 	0.83226	0.20362	0.96669	-0.551
Mof_O 	O 	0.79638	0.03331	0.16774	-0.551
Mof_O 	O 	0.46669	0.66774	0.79638	-0.55
Mof_O 	O 	0.78916	0.58464	0.12429	-0.535
Mof_O 	O 	0.19787	0.06454	0.64392	-0.56
Mof_O 	O 	0.07739	0.28236	0.41968	-0.529
Mof_O 	O 	0.53331	0.16774	0.70362	-0.55
Mof_O 	O 	0.07739	0.21764	0.91968	-0.53
Mof_O 	O 	0.64392	0.30213	0.56454	-0.56
Mof_O 	O 	0.66774	0.79638	0.46669	-0.55
Mof_O 	O 	0.80213	0.93546	0.35608	-0.56
Mof_O 	O 	0.78916	0.91536	0.62429	-0.534
Mof_O 	O 	0.30213	0.56454	0.64392	-0.56
Mof_O 	O 	0.57739	0.28236	0.08032	-0.53
Mof_O 	O 	0.29638	0.46669	0.83226	-0.55
Mof_O 	O 	0.91968	0.42261	0.71764	-0.53
Mof_O 	O 	0.41536	0.87571	0.21084	-0.535
Mof_O 	O 	0.46669	0.83226	0.29638	-0.55
Mof_O 	O 	0.57739	0.21764	0.58032	-0.53
Mof_O 	O 	0.58464	0.12429	0.78916	-0.535
Mof_O 	O 	0.93546	0.14392	0.30213	-0.56
Mof_O 	O 	0.42261	0.78236	0.41968	-0.53
Mof_O 	O 	0.91536	0.62429	0.78916	-0.534
Mof_O 	O 	0.08464	0.12429	0.71084	-0.535
Mof_O 	O 	0.14392	0.19787	0.43546	-0.559
Mof_O 	O 	0.91536	0.87571	0.28916	-0.535
Mof_O 	O 	0.71764	0.58032	0.92261	-0.529
Mof_O 	O 	0.33226	0.20362	0.53331	-0.55
Mof_O 	O 	0.12429	0.78916	0.58464	-0.535
Mof_O 	O 	0.08032	0.92261	0.78236	-0.53
Mof_O 	O 	0.58032	0.92261	0.71764	-0.529
Mof_O 	O 	0.37571	0.21084	0.08464	-0.534
Mof_O 	O 	0.62429	0.78916	0.91536	-0.534
Mof_O 	O 	0.85608	0.80213	0.56454	-0.559
_end
