data_functionalizedCrystal
_audit_creation_method	'EQeq! by Chris Wilmer'
_symmetry_space_group_name_H-M	'P1'
_symmetry_Int_Tables_number	1
_symmetry_cell_setting	triclinic
loop_
_symmetry_equiv_pos_as_xyz
  x,y,z
_cell_length_a	7.1062
_cell_length_b	9.7367
_cell_length_c	9.859
_cell_angle_alpha	60.4095
_cell_angle_beta	84.1515
_cell_angle_gamma	78.0911
loop_
_atom_site_label
_atom_site_type_symbol
_atom_site_fract_x
_atom_site_fract_y
_atom_site_fract_z
_atom_site_charge
Mof_Fe	Fe	0.43161	0.35685	0.6769	0.802
Mof_Fe	Fe	0.56839	0.96625	0.6769	0.83
Mof_Fe	Fe	-6.12096e-18	0.33639	0.32722	0.657
Mof_H 	H 	0.2841	0.1571	0.092	0.085
Mof_H 	H 	0.2515	0.7538	0.4988	0.06
Mof_H 	H 	0.211	0.7585	0.0934	0.06
Mof_H 	H 	0.7159	0.7509	0.092	0.066
Mof_H 	H 	0.7485	0.7474	0.4988	0.08
Mof_H 	H 	0.789	0.1481	0.0934	0.124
Mof_C 	C 	0.2743	0.9682	0.309	0.055
Mof_C 	C 	0.2156	0.7318	0.3098	-0.062
Mof_C 	C 	0.2558	0.9667	0.0678	0.034
Mof_C 	C 	0.2733	0.0492	0.1472	-0.175
Mof_C 	C 	0.2827	0.0438	0.8944	0.241
Mof_C 	C 	0.2477	0.8088	0.3904	-0.051
Mof_C 	C 	0.1768	0.565	0.395	0.333
Mof_C 	C 	0.3214	0.0451	0.3992	0.221
Mof_C 	C 	0.2253	0.8111	0.148	-0.048
Mof_C 	C 	0.7257	0.7228	0.309	-0.023
Mof_C 	C 	0.7844	0.9584	0.3098	0.093
Mof_C 	C 	0.7442	0.9655	0.0678	0.071
Mof_C 	C 	0.7267	0.8036	0.1472	-0.05
Mof_C 	C 	0.7173	0.0618	0.8944	0.247
Mof_C 	C 	0.7523	0.8008	0.3904	-0.054
Mof_C 	C 	0.8232	0.04	0.395	0.217
Mof_C 	C 	0.6786	0.5557	0.3992	0.344
Mof_C 	C 	0.7747	0.0409	0.148	-0.18
Mof_O 	O 	0.1746	0.4922	0.5434	-0.35
Mof_O 	O 	0.3987	0.952	0.5298	-0.306
Mof_O 	O 	0.2841	0.1961	0.339	-0.302
Mof_O 	O 	0.2578	0.194	0.8164	-0.348
Mof_O 	O 	0.1456	0.5057	0.313	-0.354
Mof_O 	O 	0.3325	0.9533	0.8356	-0.295
Mof_O 	O 	0.8254	0.9644	0.5434	-0.253
Mof_O 	O 	0.6013	0.5182	0.5298	-0.348
Mof_O 	O 	0.7159	0.4649	0.339	-0.295
Mof_O 	O 	0.7422	0.9896	0.8164	-0.283
Mof_O 	O 	0.8544	0.1813	0.313	-0.279
Mof_O 	O 	0.6675	0.2111	0.8356	-0.309
Mof_O 	O 	0.5	0.2362	0.5276	-0.255
_end
