# CIF file generated by openbabel 3.1.0, see https://openbabel.org
data_I
_chemical_name_common 'image0'
_cell_length_a 17.056
_cell_length_b 16.624
_cell_length_c 17.063
_cell_angle_alpha 90
_cell_angle_beta 90
_cell_angle_gamma 90
_space_group_name_H-M_alt 'P 1'
_space_group_name_Hall 'P 1'
loop_
    _symmetry_equiv_pos_as_xyz
    x,y,z
loop_
    _atom_site_label
    _atom_site_type_symbol
    _atom_site_fract_x
    _atom_site_fract_y
    _atom_site_fract_z
    _atom_site_occupancy
    C1       C        0.19780    0.24690    0.55610    1.000
    N1       N        0.13000    0.25320    0.56120    1.000
    C2       C        0.69780    0.74690    0.55610    1.000
    N2       N        0.63000    0.75320    0.56120    1.000
    C3       C        0.80220    0.25310    0.05610    1.000
    N3       N        0.87000    0.24680    0.06120    1.000
    C4       C        0.30220    0.75310    0.05610    1.000
    N4       N        0.37000    0.74680    0.06120    1.000
    C5       C        0.80220    0.74690    0.94390    1.000
    N5       N        0.87000    0.75320    0.93880    1.000
    C6       C        0.30220    0.24690    0.94390    1.000
    N6       N        0.37000    0.25320    0.93880    1.000
    C7       C        0.19780    0.75310    0.44390    1.000
    N7       N        0.13000    0.74680    0.43880    1.000
    C8       C        0.69780    0.25310    0.44390    1.000
    N8       N        0.63000    0.24680    0.43880    1.000
    C9       C        0.80220    0.75310    0.44390    1.000
    N9       N        0.87000    0.74680    0.43880    1.000
    C10      C        0.30220    0.25310    0.44390    1.000
    N10      N        0.37000    0.24680    0.43880    1.000
    C11      C        0.19780    0.74690    0.94390    1.000
    N11      N        0.13000    0.75320    0.93880    1.000
    C12      C        0.69780    0.24690    0.94390    1.000
    N12      N        0.63000    0.25320    0.93880    1.000
    C13      C        0.19780    0.25310    0.05610    1.000
    N13      N        0.13000    0.24680    0.06120    1.000
    C14      C        0.69780    0.75310    0.05610    1.000
    N14      N        0.63000    0.74680    0.06120    1.000
    C15      C        0.80220    0.24690    0.55610    1.000
    N15      N        0.87000    0.25320    0.56120    1.000
    C16      C        0.30220    0.74690    0.55610    1.000
    N16      N        0.37000    0.75320    0.56120    1.000
    N17      N        0.25000    0.25000    0.50000    1.000
    N18      N        0.75000    0.25000    0.00000    1.000
    N19      N        0.75000    0.75000    0.00000    1.000
    N20      N        0.25000    0.75000    0.50000    1.000
    N21      N        0.75000    0.75000    0.50000    1.000
    N22      N        0.25000    0.75000    0.00000    1.000
    N23      N        0.25000    0.25000    0.00000    1.000
    N24      N        0.75000    0.25000    0.50000    1.000
    N25      N        0.00000    0.32770    0.28380    1.000
    Cd1      Cd       0.00000    0.25298    0.55016    1.000
    N26      N        0.00000    0.13540    0.47420    1.000
    C17      C        0.00000    0.31310    0.35920    1.000
    C18      C        0.00000    0.06620    0.47170    1.000
    N27      N        0.00000    0.32090    0.42540    1.000
    C19      C        0.00000    0.27690    0.22590    1.000
    N28      N        0.00000    0.24010    0.17000    1.000
    N29      N        0.50000    0.82770    0.28380    1.000
    Cd2      Cd       0.50000    0.75298    0.55016    1.000
    N30      N        0.50000    0.63540    0.47420    1.000
    C20      C        0.50000    0.81310    0.35920    1.000
    C21      C        0.50000    0.56620    0.47170    1.000
    N31      N        0.50000    0.82090    0.42540    1.000
    C22      C        0.50000    0.77690    0.22590    1.000
    N32      N        0.50000    0.74010    0.17000    1.000
    N33      N        0.00000    0.17230    0.78380    1.000
    Cd3      Cd       0.00000    0.24702    0.05016    1.000
    N34      N        0.00000    0.36460    0.97420    1.000
    C23      C        0.00000    0.18690    0.85920    1.000
    C24      C        0.00000    0.43380    0.97170    1.000
    N35      N        0.00000    0.17910    0.92540    1.000
    C25      C        0.00000    0.22310    0.72590    1.000
    N36      N        0.00000    0.25990    0.67000    1.000
    N37      N        0.50000    0.67230    0.78380    1.000
    Cd4      Cd       0.50000    0.74702    0.05016    1.000
    N38      N        0.50000    0.86460    0.97420    1.000
    C26      C        0.50000    0.68690    0.85920    1.000
    C27      C        0.50000    0.93380    0.97170    1.000
    N39      N        0.50000    0.67910    0.92540    1.000
    C28      C        0.50000    0.72310    0.72590    1.000
    N40      N        0.50000    0.75990    0.67000    1.000
    N41      N        0.00000    0.82770    0.21620    1.000
    Cd5      Cd       0.00000    0.75298    0.94984    1.000
    N42      N        0.00000    0.63540    0.02580    1.000
    C29      C        0.00000    0.81310    0.14080    1.000
    C30      C        0.00000    0.56620    0.02830    1.000
    N43      N        0.00000    0.82090    0.07460    1.000
    C31      C        0.00000    0.77690    0.27410    1.000
    N44      N        0.00000    0.74010    0.33000    1.000
    N45      N        0.50000    0.32770    0.21620    1.000
    Cd6      Cd       0.50000    0.25298    0.94984    1.000
    N46      N        0.50000    0.13540    0.02580    1.000
    C32      C        0.50000    0.31310    0.14080    1.000
    C33      C        0.50000    0.06620    0.02830    1.000
    N47      N        0.50000    0.32090    0.07460    1.000
    C34      C        0.50000    0.27690    0.27410    1.000
    N48      N        0.50000    0.24010    0.33000    1.000
    N49      N        0.00000    0.67230    0.71620    1.000
    Cd7      Cd       0.00000    0.74702    0.44984    1.000
    N50      N        0.00000    0.86460    0.52580    1.000
    C35      C        0.00000    0.68690    0.64080    1.000
    C36      C        0.00000    0.93380    0.52830    1.000
    N51      N        0.00000    0.67910    0.57460    1.000
    C37      C        0.00000    0.72310    0.77410    1.000
    N52      N        0.00000    0.75990    0.83000    1.000
    N53      N        0.50000    0.17230    0.71620    1.000
    Cd8      Cd       0.50000    0.24702    0.44984    1.000
    N54      N        0.50000    0.36460    0.52580    1.000
    C38      C        0.50000    0.18690    0.64080    1.000
    C39      C        0.50000    0.43380    0.52830    1.000
    N55      N        0.50000    0.17910    0.57460    1.000
    C40      C        0.50000    0.22310    0.77410    1.000
    N56      N        0.50000    0.25990    0.83000    1.000
    N57      N        0.00000    0.00000    0.50000    1.000
    N58      N        0.50000    0.50000    0.50000    1.000
    N59      N        0.00000    0.50000    0.00000    1.000
    N60      N        0.50000    0.00000    0.00000    1.000
