data_functionalizedCrystal
_audit_creation_method	'EQeq! by Chris Wilmer'
_symmetry_space_group_name_H-M	'P1'
_symmetry_Int_Tables_number	1
_symmetry_cell_setting	triclinic
loop_
_symmetry_equiv_pos_as_xyz
  x,y,z
_cell_length_a	41.0363
_cell_length_b	12.1733
_cell_length_c	14.1609
_cell_angle_alpha	90
_cell_angle_beta	100.869
_cell_angle_gamma	90
loop_
_atom_site_label
_atom_site_type_symbol
_atom_site_fract_x
_atom_site_fract_y
_atom_site_fract_z
_atom_site_charge
Mof_Se	Se	0.51636	0.04716	0.13802	0.383
Mof_Cu	Cu	0.72545	0.32085	0.49266	0.904
Mof_Cu	Cu	0.56196	0.99722	0.95426	0.929
Mof_Cu	Cu	0.54928	0.22512	0.0795	0.936
Mof_Cu	Cu	0.54105	0.21816	0.32317	0.914
Mof_O 	O 	0.7053	0.7865	0.0682	-0.397
Mof_O 	O 	0.74845	0.9031	0.0866	-0.401
Mof_O 	O 	0.74591	0.1244	0.39	-0.409
Mof_O 	O 	0.70349	0.2429	0.3771	-0.399
Mof_O 	O 	0.60557	0.0376	0.0198	-0.41
Mof_O 	O 	0.59628	0.1305	0.1482	-0.375
Mof_O 	O 	0.5579	0.2764	0.9591	-0.403
Mof_O 	O 	0.55838	0.1228	0.8708	-0.42
Mof_O 	O 	0.5578	0.6308	0.6307	-0.403
Mof_O 	O 	0.54517	0.6314	0.7791	-0.413
Mof_O 	O 	0.54566	0.2767	0.4504	-0.422
Mof_O 	O 	0.56214	0.1273	0.5404	-0.419
Mof_O 	O 	0.52311	0.0899	0.0295	-0.398
Mof_O 	O 	0.53071	0.1711	0.1905	-0.485
Mof_O 	O 	0.47578	0.0699	0.1382	-0.447
Mof_C 	C 	0.7198	0.8759	0.0966	0.359
Mof_C 	C 	0.7008	0.9567	0.1455	-0.108
Mof_C 	C 	0.6674	0.9752	0.1086	0.058
Mof_H 	H 	0.6564	0.9331	0.0576	0.037
Mof_C 	C 	0.6506	0.057	0.1484	-0.113
Mof_C 	C 	0.6665	0.1185	0.2267	0.055
Mof_H 	H 	0.6551	0.1726	0.2535	0.036
Mof_C 	C 	0.6998	0.0974	0.2642	-0.109
Mof_C 	C 	0.7171	0.0178	0.2234	0.054
Mof_H 	H 	0.7394	0.0054	0.248	0.043
Mof_C 	C 	0.7177	0.16	0.3505	0.361
Mof_C 	C 	0.6142	0.0771	0.1028	0.369
Mof_C 	C 	0.5576	0.2244	0.881	0.387
Mof_C 	C 	0.5559	0.2911	0.7912	-0.132
Mof_C 	C 	0.5564	0.2355	0.7058	0.074
Mof_H 	H 	0.5586	0.1595	0.7065	0.027
Mof_C 	C 	0.5538	0.292	0.6195	-0.132
Mof_C 	C 	0.5515	0.4049	0.6186	0.068
Mof_H 	H 	0.55	0.4431	0.5611	0.04
Mof_C 	C 	0.5513	0.4623	0.7047	-0.125
Mof_C 	C 	0.5526	0.405	0.7904	0.069
Mof_H 	H 	0.5513	0.4426	0.8468	0.041
Mof_C 	C 	0.5513	0.5856	0.706	0.381
Mof_C 	C 	0.5536	0.2266	0.5288	0.378
Mof_Se	Se	0.01636	0.54716	0.13802	0.385
Mof_Cu	Cu	0.22545	0.82085	0.49266	0.905
Mof_Cu	Cu	0.06196	0.49722	0.95426	0.931
Mof_Cu	Cu	0.04928	0.72512	0.0795	0.937
Mof_Cu	Cu	0.04105	0.71816	0.32317	0.915
Mof_O 	O 	0.2053	0.2865	0.0682	-0.397
Mof_O 	O 	0.24845	0.4031	0.0866	-0.401
Mof_O 	O 	0.24591	0.6244	0.39	-0.408
Mof_O 	O 	0.20349	0.7429	0.3771	-0.398
Mof_O 	O 	0.10557	0.5376	0.0198	-0.408
Mof_O 	O 	0.09628	0.6305	0.1482	-0.374
Mof_O 	O 	0.0579	0.7764	0.9591	-0.403
Mof_O 	O 	0.05838	0.6228	0.8708	-0.42
Mof_O 	O 	0.0578	0.1308	0.6307	-0.402
Mof_O 	O 	0.04517	0.1314	0.7791	-0.411
Mof_O 	O 	0.04566	0.7767	0.4504	-0.421
Mof_O 	O 	0.06214	0.6273	0.5404	-0.418
Mof_O 	O 	0.02311	0.5899	0.0295	-0.396
Mof_O 	O 	0.03071	0.6711	0.1905	-0.485
Mof_O 	O 	0.97578	0.5699	0.1382	-0.446
Mof_C 	C 	0.2198	0.3759	0.0966	0.359
Mof_C 	C 	0.2008	0.4567	0.1455	-0.108
Mof_C 	C 	0.1674	0.4752	0.1086	0.057
Mof_H 	H 	0.1564	0.4331	0.0576	0.037
Mof_C 	C 	0.1506	0.557	0.1484	-0.111
Mof_C 	C 	0.1665	0.6185	0.2267	0.054
Mof_H 	H 	0.1551	0.6726	0.2535	0.036
Mof_C 	C 	0.1998	0.5974	0.2642	-0.109
Mof_C 	C 	0.2171	0.5178	0.2234	0.055
Mof_H 	H 	0.2394	0.5054	0.248	0.043
Mof_C 	C 	0.2177	0.66	0.3505	0.361
Mof_C 	C 	0.1142	0.5771	0.1028	0.369
Mof_C 	C 	0.0576	0.7244	0.881	0.387
Mof_C 	C 	0.0559	0.7911	0.7912	-0.133
Mof_C 	C 	0.0564	0.7355	0.7058	0.074
Mof_H 	H 	0.0586	0.6595	0.7065	0.027
Mof_C 	C 	0.0538	0.792	0.6195	-0.133
Mof_C 	C 	0.0515	0.9049	0.6186	0.069
Mof_H 	H 	0.05	0.9431	0.5611	0.04
Mof_C 	C 	0.0513	0.9623	0.7047	-0.126
Mof_C 	C 	0.0526	0.905	0.7904	0.07
Mof_H 	H 	0.0513	0.9426	0.8468	0.04
Mof_C 	C 	0.0513	0.0856	0.706	0.382
Mof_C 	C 	0.0536	0.7266	0.5288	0.378
Mof_Se	Se	0.48364	0.04716	0.36198	0.385
Mof_Cu	Cu	0.27455	0.32085	0.00734	0.904
Mof_Cu	Cu	0.43804	0.99722	0.54574	0.931
Mof_Cu	Cu	0.45072	0.22512	0.4205	0.937
Mof_Cu	Cu	0.45895	0.21816	0.17683	0.915
Mof_O 	O 	0.2947	0.7865	0.4318	-0.396
Mof_O 	O 	0.25155	0.9031	0.4134	-0.401
Mof_O 	O 	0.25409	0.1244	0.11	-0.408
Mof_O 	O 	0.29651	0.2429	0.1229	-0.398
Mof_O 	O 	0.39443	0.0376	0.4802	-0.408
Mof_O 	O 	0.40372	0.1305	0.3518	-0.374
Mof_O 	O 	0.4421	0.2764	0.5409	-0.402
Mof_O 	O 	0.44162	0.1228	0.6292	-0.42
Mof_O 	O 	0.4422	0.6308	0.8693	-0.402
Mof_O 	O 	0.45483	0.6314	0.7209	-0.412
Mof_O 	O 	0.45434	0.2767	0.0496	-0.422
Mof_O 	O 	0.43786	0.1273	0.9596	-0.417
Mof_O 	O 	0.47689	0.0899	0.4705	-0.396
Mof_O 	O 	0.46929	0.1711	0.3095	-0.485
Mof_O 	O 	0.52422	0.0699	0.3618	-0.447
Mof_C 	C 	0.2802	0.8759	0.4034	0.359
Mof_C 	C 	0.2992	0.9567	0.3545	-0.108
Mof_C 	C 	0.3326	0.9752	0.3914	0.057
Mof_H 	H 	0.3436	0.9331	0.4424	0.037
Mof_C 	C 	0.3494	0.057	0.3516	-0.112
Mof_C 	C 	0.3335	0.1185	0.2733	0.054
Mof_H 	H 	0.3449	0.1726	0.2465	0.036
Mof_C 	C 	0.3002	0.0974	0.2358	-0.109
Mof_C 	C 	0.2829	0.0178	0.2766	0.055
Mof_H 	H 	0.2606	0.0054	0.252	0.043
Mof_C 	C 	0.2823	0.16	0.1495	0.361
Mof_C 	C 	0.3858	0.0771	0.3972	0.369
Mof_C 	C 	0.4424	0.2244	0.619	0.387
Mof_C 	C 	0.4441	0.2911	0.7088	-0.132
Mof_C 	C 	0.4436	0.2355	0.7942	0.074
Mof_H 	H 	0.4414	0.1595	0.7935	0.027
Mof_C 	C 	0.4462	0.292	0.8805	-0.132
Mof_C 	C 	0.4485	0.4049	0.8814	0.069
Mof_H 	H 	0.45	0.4431	0.9389	0.04
Mof_C 	C 	0.4487	0.4623	0.7953	-0.125
Mof_C 	C 	0.4474	0.405	0.7096	0.069
Mof_H 	H 	0.4487	0.4426	0.6532	0.041
Mof_C 	C 	0.4487	0.5856	0.794	0.381
Mof_C 	C 	0.4464	0.2266	0.9712	0.379
Mof_Se	Se	0.98364	0.54716	0.36198	0.385
Mof_Cu	Cu	0.77455	0.82085	0.00734	0.905
Mof_Cu	Cu	0.93804	0.49722	0.54574	0.931
Mof_Cu	Cu	0.95072	0.72512	0.4205	0.937
Mof_Cu	Cu	0.95895	0.71816	0.17683	0.915
Mof_O 	O 	0.7947	0.2865	0.4318	-0.397
Mof_O 	O 	0.75155	0.4031	0.4134	-0.401
Mof_O 	O 	0.75409	0.6244	0.11	-0.408
Mof_O 	O 	0.79651	0.7429	0.1229	-0.398
Mof_O 	O 	0.89443	0.5376	0.4802	-0.408
Mof_O 	O 	0.90372	0.6305	0.3518	-0.374
Mof_O 	O 	0.9421	0.7764	0.5409	-0.402
Mof_O 	O 	0.94162	0.6228	0.6292	-0.42
Mof_O 	O 	0.9422	0.1308	0.8693	-0.402
Mof_O 	O 	0.95483	0.1314	0.7209	-0.412
Mof_O 	O 	0.95434	0.7767	0.0496	-0.42
Mof_O 	O 	0.93786	0.6273	0.9596	-0.418
Mof_O 	O 	0.97689	0.5899	0.4705	-0.396
Mof_O 	O 	0.96929	0.6711	0.3095	-0.485
Mof_O 	O 	0.02422	0.5699	0.3618	-0.446
Mof_C 	C 	0.7802	0.3759	0.4034	0.359
Mof_C 	C 	0.7992	0.4567	0.3545	-0.108
Mof_C 	C 	0.8326	0.4752	0.3914	0.057
Mof_H 	H 	0.8436	0.4331	0.4424	0.037
Mof_C 	C 	0.8494	0.557	0.3516	-0.111
Mof_C 	C 	0.8335	0.6185	0.2733	0.054
Mof_H 	H 	0.8449	0.6726	0.2465	0.036
Mof_C 	C 	0.8002	0.5974	0.2358	-0.109
Mof_C 	C 	0.7829	0.5178	0.2766	0.055
Mof_H 	H 	0.7606	0.5054	0.252	0.043
Mof_C 	C 	0.7823	0.66	0.1495	0.361
Mof_C 	C 	0.8858	0.5771	0.3972	0.369
Mof_C 	C 	0.9424	0.7244	0.619	0.387
Mof_C 	C 	0.9441	0.7911	0.7088	-0.133
Mof_C 	C 	0.9436	0.7355	0.7942	0.074
Mof_H 	H 	0.9414	0.6595	0.7935	0.027
Mof_C 	C 	0.9462	0.792	0.8805	-0.133
Mof_C 	C 	0.9485	0.9049	0.8814	0.069
Mof_H 	H 	0.95	0.9431	0.9389	0.039
Mof_C 	C 	0.9487	0.9623	0.7953	-0.127
Mof_C 	C 	0.9474	0.905	0.7096	0.07
Mof_H 	H 	0.9487	0.9426	0.6532	0.04
Mof_C 	C 	0.9487	0.0856	0.794	0.382
Mof_C 	C 	0.9464	0.7266	0.9712	0.377
Mof_Se	Se	0.48364	0.95284	0.86198	0.384
Mof_Cu	Cu	0.27455	0.67915	0.50734	0.905
Mof_Cu	Cu	0.43804	0.00278	0.04574	0.93
Mof_Cu	Cu	0.45072	0.77488	0.9205	0.937
Mof_Cu	Cu	0.45895	0.78184	0.67683	0.915
Mof_O 	O 	0.2947	0.2135	0.9318	-0.396
Mof_O 	O 	0.25155	0.0969	0.9134	-0.4
Mof_O 	O 	0.25409	0.8756	0.61	-0.408
Mof_O 	O 	0.29651	0.7571	0.6229	-0.398
Mof_O 	O 	0.39443	0.9624	0.9802	-0.409
Mof_O 	O 	0.40372	0.8695	0.8518	-0.374
Mof_O 	O 	0.4421	0.7236	0.0409	-0.402
Mof_O 	O 	0.44162	0.8772	0.1292	-0.419
Mof_O 	O 	0.4422	0.3692	0.3693	-0.402
Mof_O 	O 	0.45483	0.3686	0.2209	-0.412
Mof_O 	O 	0.45434	0.7233	0.5496	-0.421
Mof_O 	O 	0.43786	0.8727	0.4596	-0.418
Mof_O 	O 	0.47689	0.9101	0.9705	-0.397
Mof_O 	O 	0.46929	0.8289	0.8095	-0.485
Mof_O 	O 	0.52422	0.9301	0.8618	-0.447
Mof_C 	C 	0.2802	0.1241	0.9034	0.359
Mof_C 	C 	0.2992	0.0433	0.8545	-0.108
Mof_C 	C 	0.3326	0.0248	0.8914	0.058
Mof_H 	H 	0.3436	0.0669	0.9424	0.037
Mof_C 	C 	0.3494	0.943	0.8516	-0.113
Mof_C 	C 	0.3335	0.8815	0.7733	0.055
Mof_H 	H 	0.3449	0.8274	0.7465	0.036
Mof_C 	C 	0.3002	0.9026	0.7358	-0.109
Mof_C 	C 	0.2829	0.9822	0.7766	0.054
Mof_H 	H 	0.2606	0.9946	0.752	0.043
Mof_C 	C 	0.2823	0.84	0.6495	0.361
Mof_C 	C 	0.3858	0.9229	0.8972	0.369
Mof_C 	C 	0.4424	0.7756	0.119	0.387
Mof_C 	C 	0.4441	0.7089	0.2088	-0.132
Mof_C 	C 	0.4436	0.7645	0.2942	0.074
Mof_H 	H 	0.4414	0.8405	0.2935	0.027
Mof_C 	C 	0.4462	0.708	0.3805	-0.132
Mof_C 	C 	0.4485	0.5951	0.3814	0.068
Mof_H 	H 	0.45	0.5569	0.4389	0.04
Mof_C 	C 	0.4487	0.5377	0.2953	-0.125
Mof_C 	C 	0.4474	0.595	0.2096	0.069
Mof_H 	H 	0.4487	0.5574	0.1532	0.041
Mof_C 	C 	0.4487	0.4144	0.294	0.381
Mof_C 	C 	0.4464	0.7734	0.4712	0.378
Mof_Se	Se	0.98364	0.45284	0.86198	0.385
Mof_Cu	Cu	0.77455	0.17915	0.50734	0.905
Mof_Cu	Cu	0.93804	0.50278	0.04574	0.931
Mof_Cu	Cu	0.95072	0.27488	0.9205	0.937
Mof_Cu	Cu	0.95895	0.28184	0.67683	0.915
Mof_O 	O 	0.7947	0.7135	0.9318	-0.397
Mof_O 	O 	0.75155	0.5969	0.9134	-0.401
Mof_O 	O 	0.75409	0.3756	0.61	-0.408
Mof_O 	O 	0.79651	0.2571	0.6229	-0.398
Mof_O 	O 	0.89443	0.4624	0.9802	-0.408
Mof_O 	O 	0.90372	0.3695	0.8518	-0.374
Mof_O 	O 	0.9421	0.2236	0.0409	-0.403
Mof_O 	O 	0.94162	0.3772	0.1292	-0.42
Mof_O 	O 	0.9422	0.8692	0.3693	-0.402
Mof_O 	O 	0.95483	0.8686	0.2209	-0.411
Mof_O 	O 	0.95434	0.2233	0.5496	-0.421
Mof_O 	O 	0.93786	0.3727	0.4596	-0.418
Mof_O 	O 	0.97689	0.4101	0.9705	-0.396
Mof_O 	O 	0.96929	0.3289	0.8095	-0.485
Mof_O 	O 	0.02422	0.4301	0.8618	-0.446
Mof_C 	C 	0.7802	0.6241	0.9034	0.359
Mof_C 	C 	0.7992	0.5433	0.8545	-0.108
Mof_C 	C 	0.8326	0.5248	0.8914	0.057
Mof_H 	H 	0.8436	0.5669	0.9424	0.037
Mof_C 	C 	0.8494	0.443	0.8516	-0.111
Mof_C 	C 	0.8335	0.3815	0.7733	0.054
Mof_H 	H 	0.8449	0.3274	0.7465	0.036
Mof_C 	C 	0.8002	0.4026	0.7358	-0.109
Mof_C 	C 	0.7829	0.4822	0.7766	0.055
Mof_H 	H 	0.7606	0.4946	0.752	0.043
Mof_C 	C 	0.7823	0.34	0.6495	0.361
Mof_C 	C 	0.8858	0.4229	0.8972	0.369
Mof_C 	C 	0.9424	0.2756	0.119	0.387
Mof_C 	C 	0.9441	0.2089	0.2088	-0.133
Mof_C 	C 	0.9436	0.2645	0.2942	0.074
Mof_H 	H 	0.9414	0.3405	0.2935	0.027
Mof_C 	C 	0.9462	0.208	0.3805	-0.133
Mof_C 	C 	0.9485	0.0951	0.3814	0.069
Mof_H 	H 	0.95	0.0569	0.4389	0.04
Mof_C 	C 	0.9487	0.0377	0.2953	-0.126
Mof_C 	C 	0.9474	0.095	0.2096	0.07
Mof_H 	H 	0.9487	0.0574	0.1532	0.04
Mof_C 	C 	0.9487	0.9144	0.294	0.382
Mof_C 	C 	0.9464	0.2734	0.4712	0.378
Mof_Se	Se	0.51636	0.95284	0.63802	0.385
Mof_Cu	Cu	0.72545	0.67915	0.99266	0.904
Mof_Cu	Cu	0.56196	0.00278	0.45426	0.931
Mof_Cu	Cu	0.54928	0.77488	0.5795	0.937
Mof_Cu	Cu	0.54105	0.78184	0.82317	0.915
Mof_O 	O 	0.7053	0.2135	0.5682	-0.396
Mof_O 	O 	0.74845	0.0969	0.5866	-0.401
Mof_O 	O 	0.74591	0.8756	0.89	-0.408
Mof_O 	O 	0.70349	0.7571	0.8771	-0.398
Mof_O 	O 	0.60557	0.9624	0.5198	-0.408
Mof_O 	O 	0.59628	0.8695	0.6482	-0.374
Mof_O 	O 	0.5579	0.7236	0.4591	-0.402
Mof_O 	O 	0.55838	0.8772	0.3708	-0.42
Mof_O 	O 	0.5578	0.3692	0.1307	-0.402
Mof_O 	O 	0.54517	0.3686	0.2791	-0.412
Mof_O 	O 	0.54566	0.7233	0.9504	-0.422
Mof_O 	O 	0.56214	0.8727	0.0404	-0.417
Mof_O 	O 	0.52311	0.9101	0.5295	-0.396
Mof_O 	O 	0.53071	0.8289	0.6905	-0.485
Mof_O 	O 	0.47578	0.9301	0.6382	-0.447
Mof_C 	C 	0.7198	0.1241	0.5966	0.359
Mof_C 	C 	0.7008	0.0433	0.6455	-0.108
Mof_C 	C 	0.6674	0.0248	0.6086	0.057
Mof_H 	H 	0.6564	0.0669	0.5576	0.037
Mof_C 	C 	0.6506	0.943	0.6484	-0.112
Mof_C 	C 	0.6665	0.8815	0.7267	0.054
Mof_H 	H 	0.6551	0.8274	0.7535	0.036
Mof_C 	C 	0.6998	0.9026	0.7642	-0.109
Mof_C 	C 	0.7171	0.9822	0.7234	0.055
Mof_H 	H 	0.7394	0.9946	0.748	0.043
Mof_C 	C 	0.7177	0.84	0.8505	0.361
Mof_C 	C 	0.6142	0.9229	0.6028	0.369
Mof_C 	C 	0.5576	0.7756	0.381	0.387
Mof_C 	C 	0.5559	0.7089	0.2912	-0.132
Mof_C 	C 	0.5564	0.7645	0.2058	0.074
Mof_H 	H 	0.5586	0.8405	0.2065	0.027
Mof_C 	C 	0.5538	0.708	0.1195	-0.132
Mof_C 	C 	0.5515	0.5951	0.1186	0.069
Mof_H 	H 	0.55	0.5569	0.0611	0.04
Mof_C 	C 	0.5513	0.5377	0.2047	-0.125
Mof_C 	C 	0.5526	0.595	0.2904	0.069
Mof_H 	H 	0.5513	0.5574	0.3468	0.041
Mof_C 	C 	0.5513	0.4144	0.206	0.381
Mof_C 	C 	0.5536	0.7734	0.0288	0.379
Mof_Se	Se	0.01636	0.45284	0.63802	0.385
Mof_Cu	Cu	0.22545	0.17915	0.99266	0.905
Mof_Cu	Cu	0.06196	0.50278	0.45426	0.931
Mof_Cu	Cu	0.04928	0.27488	0.5795	0.937
Mof_Cu	Cu	0.04105	0.28184	0.82317	0.915
Mof_O 	O 	0.2053	0.7135	0.5682	-0.397
Mof_O 	O 	0.24845	0.5969	0.5866	-0.401
Mof_O 	O 	0.24591	0.3756	0.89	-0.408
Mof_O 	O 	0.20349	0.2571	0.8771	-0.398
Mof_O 	O 	0.10557	0.4624	0.5198	-0.408
Mof_O 	O 	0.09628	0.3695	0.6482	-0.374
Mof_O 	O 	0.0579	0.2236	0.4591	-0.402
Mof_O 	O 	0.05838	0.3772	0.3708	-0.42
Mof_O 	O 	0.0578	0.8692	0.1307	-0.402
Mof_O 	O 	0.04517	0.8686	0.2791	-0.412
Mof_O 	O 	0.04566	0.2233	0.9504	-0.42
Mof_O 	O 	0.06214	0.3727	0.0404	-0.418
Mof_O 	O 	0.02311	0.4101	0.5295	-0.396
Mof_O 	O 	0.03071	0.3289	0.6905	-0.485
Mof_O 	O 	0.97578	0.4301	0.6382	-0.446
Mof_C 	C 	0.2198	0.6241	0.5966	0.359
Mof_C 	C 	0.2008	0.5433	0.6455	-0.108
Mof_C 	C 	0.1674	0.5248	0.6086	0.057
Mof_H 	H 	0.1564	0.5669	0.5576	0.037
Mof_C 	C 	0.1506	0.443	0.6484	-0.111
Mof_C 	C 	0.1665	0.3815	0.7267	0.054
Mof_H 	H 	0.1551	0.3274	0.7535	0.036
Mof_C 	C 	0.1998	0.4026	0.7642	-0.109
Mof_C 	C 	0.2171	0.4822	0.7234	0.055
Mof_H 	H 	0.2394	0.4946	0.748	0.043
Mof_C 	C 	0.2177	0.34	0.8505	0.361
Mof_C 	C 	0.1142	0.4229	0.6028	0.369
Mof_C 	C 	0.0576	0.2756	0.381	0.387
Mof_C 	C 	0.0559	0.2089	0.2912	-0.133
Mof_C 	C 	0.0564	0.2645	0.2058	0.074
Mof_H 	H 	0.0586	0.3405	0.2065	0.027
Mof_C 	C 	0.0538	0.208	0.1195	-0.133
Mof_C 	C 	0.0515	0.0951	0.1186	0.069
Mof_H 	H 	0.05	0.0569	0.0611	0.039
Mof_C 	C 	0.0513	0.0377	0.2047	-0.127
Mof_C 	C 	0.0526	0.095	0.2904	0.07
Mof_H 	H 	0.0513	0.0574	0.3468	0.04
Mof_C 	C 	0.0513	0.9144	0.206	0.382
Mof_C 	C 	0.0536	0.2734	0.0288	0.377
_end
