# CIF file generated by openbabel 3.1.0, see https://openbabel.org
data_I
_chemical_name_common 'NIRMUW01_clean'
_cell_length_a 9.1625
_cell_length_b 11.089
_cell_length_c 12.9065
_cell_angle_alpha 115.371
_cell_angle_beta 96.593
_cell_angle_gamma 95.177
_space_group_name_H-M_alt 'P 1'
_space_group_name_Hall 'P 1'
loop_
    _symmetry_equiv_pos_as_xyz
    x,y,z
loop_
    _atom_site_label
    _atom_site_type_symbol
    _atom_site_fract_x
    _atom_site_fract_y
    _atom_site_fract_z
    _atom_site_occupancy
    Ba1      Ba       0.37211    0.37248    0.81297    1.000
    Ba2      Ba       0.12786    0.62750    0.68713    1.000
    Ba3      Ba       0.87214    0.37250    0.31287    1.000
    Ba4      Ba       0.62789    0.62752    0.18703    1.000
    H1       H        0.58780    0.80120    0.52810    1.000
    H2       H        0.80060    0.18960    0.69960    1.000
    H3       H        0.91480    0.19880    0.97410    1.000
    H4       H        0.46010    0.12190    0.91720    1.000
    H5       H        0.41220    0.19880    0.47190    1.000
    H6       H        0.83270    0.02100    0.13920    1.000
    H7       H        0.08520    0.80120    0.02590    1.000
    H8       H        0.16730    0.97900    0.86080    1.000
    H9       H        0.69880    0.81170    0.80210    1.000
    H10      H        0.96290    0.12120    0.41700    1.000
    H11      H        0.33420    0.01680    0.63960    1.000
    H12      H        0.53990    0.87810    0.08280    1.000
    H13      H        0.30120    0.18830    0.19790    1.000
    H14      H        0.66580    0.98320    0.36040    1.000
    H15      H        0.19940    0.81040    0.30040    1.000
    H16      H        0.03710    0.87880    0.58300    1.000
    C1       C        0.53540    0.05970    0.64340    1.000
    C2       C        0.44620    0.91080    0.08940    1.000
    C3       C        0.08050    0.15090    0.69140    1.000
    C4       C        0.82370    0.13600    0.94210    1.000
    C5       C        0.80330    0.09430    0.66130    1.000
    C6       C        0.96730    0.94230    0.85740    1.000
    C7       C        0.94360    0.91170    0.59010    1.000
    C8       C        0.44180    0.04820    0.14410    1.000
    C9       C        0.91950    0.84910    0.30860    1.000
    C10      C        0.32220    0.13460    0.44090    1.000
    C11      C        0.18860    0.18000    0.45540    1.000
    C12      C        0.06170    0.95070    0.35530    1.000
    C13      C        0.69520    0.90660    0.84270    1.000
    C14      C        0.46460    0.94030    0.35660    1.000
    C15      C        0.41770    0.84860    0.80880    1.000
    C16      C        0.32700    0.99690    0.38130    1.000
    C17      C        0.30480    0.09340    0.15730    1.000
    C18      C        0.03270    0.05770    0.14260    1.000
    C19      C        0.17250    0.00210    0.11850    1.000
    C20      C        0.31570    0.66920    0.97750    1.000
    C21      C        0.31270    0.81920    0.04350    1.000
    C22      C        0.68730    0.18080    0.95650    1.000
    C23      C        0.55820    0.95180    0.85590    1.000
    C24      C        0.55380    0.08920    0.91060    1.000
    C25      C        0.81140    0.82000    0.54460    1.000
    C26      C        0.82750    0.99790    0.88150    1.000
    C27      C        0.17630    0.86400    0.05790    1.000
    C28      C        0.58230    0.15140    0.19120    1.000
    C29      C        0.19670    0.90570    0.33870    1.000
    C30      C        0.67780    0.86540    0.55910    1.000
    C31      C        0.68430    0.33080    0.02250    1.000
    C32      C        0.18180    0.32920    0.52190    1.000
    C33      C        0.67300    0.00310    0.61870    1.000
    C34      C        0.93830    0.04930    0.64470    1.000
    C35      C        0.81820    0.67080    0.47810    1.000
    C36      C        0.05640    0.08830    0.40990    1.000
    O1       O        0.58740    0.03100    0.38590    1.000
    O2       O        0.91300    0.97000    0.11440    1.000
    O3       O        0.43130    0.72710    0.77250    1.000
    O4       O        0.56870    0.27290    0.22750    1.000
    O5       O        0.46760    0.81920    0.31200    1.000
    O6       O        0.03040    0.17980    0.18700    1.000
    O7       O        0.92130    0.62340    0.51320    1.000
    O8       O        0.70540    0.11010    0.19330    1.000
    O9       O        0.42030    0.62330    0.01290    1.000
    O10      O        0.41260    0.96900    0.61410    1.000
    O11      O        0.20380    0.11000    0.69190    1.000
    O12      O        0.79620    0.89000    0.30810    1.000
    O13      O        0.96960    0.82020    0.81300    1.000
    O14      O        0.28230    0.39920    0.60930    1.000
    O15      O        0.29460    0.88990    0.80670    1.000
    O16      O        0.08700    0.03000    0.88560    1.000
    O17      O        0.93140    0.72680    0.27140    1.000
    O18      O        0.57970    0.37670    0.98710    1.000
    O19      O        0.07870    0.37660    0.48680    1.000
    O20      O        0.06860    0.27320    0.72860    1.000
    O21      O        0.21720    0.60090    0.89060    1.000
    O22      O        0.53240    0.18080    0.68800    1.000
    O23      O        0.78280    0.39910    0.10940    1.000
    O24      O        0.71770    0.60080    0.39070    1.000
