data_functionalizedCrystal
_audit_creation_method	'EQeq! by Chris Wilmer'
_symmetry_space_group_name_H-M	'P1'
_symmetry_Int_Tables_number	1
_symmetry_cell_setting	triclinic
loop_
_symmetry_equiv_pos_as_xyz
  x,y,z
_cell_length_a	9.3525
_cell_length_b	10.917
_cell_length_c	24.175
_cell_angle_alpha	90
_cell_angle_beta	90
_cell_angle_gamma	90
loop_
_atom_site_label
_atom_site_type_symbol
_atom_site_fract_x
_atom_site_fract_y
_atom_site_fract_z
_atom_site_charge
Mof_Co	Co	0.24004	0.23011	0.03775	1.203
Mof_O 	O 	0.3314	0.397	0.0521	-0.389
Mof_O 	O 	0.3204	0.26828	0.95797	-0.283
Mof_O 	O 	0.0592	0.3231	0.00815	-0.418
Mof_N 	N 	0.151	0.2273	0.1158	-0.226
Mof_C 	C 	0.3329	0.4615	0.00987	0.317
Mof_C 	C 	0.3098	0.3997	0.95339	0.056
Mof_H 	H 	0.3826	0.4291	0.9275	0.042
Mof_C 	C 	0.162	0.4297	0.93041	-0.422
Mof_H 	H 	0.1591	0.4054	0.8918	0.172
Mof_H 	H 	0.1486	0.5178	0.9318	0.175
Mof_C 	C 	0.0377	0.3686	0.96053	0.455
Mof_C 	C 	0.0977	0.3309	0.13743	0.076
Mof_H 	H 	0.1019	0.4025	0.1166	0.014
Mof_C 	C 	0.0366	0.3355	0.18957	-0.126
Mof_H 	H 	0.999	0.4085	0.203	0.074
Mof_C 	C 	0.032	0.2297	0.22162	0.055
Mof_C 	C 	0.087	0.1231	0.19863	-0.13
Mof_H 	H 	0.0856	0.0503	0.2186	0.077
Mof_C 	C 	0.144	0.1259	0.14554	0.081
Mof_H 	H 	0.1787	0.0535	0.1303	0.014
Mof_O 	O 	0.3535	0.5755	0.0083	-0.374
Mof_O 	O 	0.9193	0.3697	0.93686	-0.429
Mof_Ni	Ni	0.25996	0.73011	0.03775	1.131
Mof_Co	Co	0.25996	0.26989	0.53775	1.202
Mof_O 	O 	0.1686	0.103	0.5521	-0.389
Mof_O 	O 	0.1796	0.23172	0.45797	-0.282
Mof_O 	O 	0.4408	0.1769	0.50815	-0.419
Mof_N 	N 	0.349	0.2727	0.6158	-0.226
Mof_C 	C 	0.1671	0.0385	0.50987	0.316
Mof_C 	C 	0.1902	0.1003	0.45339	0.057
Mof_H 	H 	0.1174	0.0709	0.4275	0.042
Mof_C 	C 	0.338	0.0703	0.43041	-0.423
Mof_H 	H 	0.3409	0.0946	0.3918	0.173
Mof_H 	H 	0.3514	0.9822	0.4318	0.176
Mof_C 	C 	0.4623	0.1314	0.46053	0.457
Mof_C 	C 	0.4023	0.1691	0.63743	0.077
Mof_H 	H 	0.3981	0.0975	0.6166	0.014
Mof_C 	C 	0.4634	0.1645	0.68957	-0.127
Mof_H 	H 	0.501	0.0915	0.703	0.075
Mof_C 	C 	0.468	0.2703	0.72162	0.055
Mof_C 	C 	0.413	0.3769	0.69863	-0.13
Mof_H 	H 	0.4144	0.4497	0.7186	0.077
Mof_C 	C 	0.356	0.3741	0.64554	0.081
Mof_H 	H 	0.3213	0.4465	0.6303	0.013
Mof_O 	O 	0.1465	0.9245	0.5083	-0.374
Mof_O 	O 	0.5807	0.1303	0.43686	-0.43
Mof_Ni	Ni	0.24004	0.76989	0.53775	1.131
Mof_Co	Co	0.75996	0.23011	0.46226	1.202
Mof_O 	O 	0.6686	0.397	0.4479	-0.389
Mof_O 	O 	0.6796	0.26828	0.54203	-0.282
Mof_O 	O 	0.9408	0.3231	0.49185	-0.419
Mof_N 	N 	0.849	0.2273	0.3842	-0.226
Mof_C 	C 	0.6671	0.4615	0.49013	0.316
Mof_C 	C 	0.6902	0.3997	0.54661	0.057
Mof_H 	H 	0.6174	0.4291	0.5725	0.042
Mof_C 	C 	0.838	0.4297	0.56959	-0.424
Mof_H 	H 	0.8409	0.4054	0.6082	0.173
Mof_H 	H 	0.8514	0.5178	0.5682	0.176
Mof_C 	C 	0.9623	0.3686	0.53947	0.458
Mof_C 	C 	0.9023	0.3309	0.36257	0.077
Mof_H 	H 	0.8981	0.4025	0.3834	0.014
Mof_C 	C 	0.9634	0.3355	0.31043	-0.128
Mof_H 	H 	0.001	0.4085	0.297	0.075
Mof_C 	C 	0.968	0.2297	0.27838	0.055
Mof_C 	C 	0.913	0.1231	0.30137	-0.13
Mof_H 	H 	0.9144	0.0503	0.2814	0.077
Mof_C 	C 	0.856	0.1259	0.35446	0.081
Mof_H 	H 	0.8213	0.0535	0.3697	0.013
Mof_O 	O 	0.6465	0.5755	0.4917	-0.374
Mof_O 	O 	0.0807	0.3697	0.56314	-0.43
Mof_Ni	Ni	0.74004	0.73011	0.46226	1.131
Mof_Co	Co	0.74004	0.26989	0.96226	1.202
Mof_O 	O 	0.8314	0.103	0.9479	-0.389
Mof_O 	O 	0.8204	0.23172	0.04203	-0.283
Mof_O 	O 	0.5592	0.1769	0.99185	-0.42
Mof_N 	N 	0.651	0.2727	0.8842	-0.226
Mof_C 	C 	0.8329	0.0385	0.99013	0.315
Mof_C 	C 	0.8098	0.1003	0.04661	0.057
Mof_H 	H 	0.8826	0.0709	0.0725	0.042
Mof_C 	C 	0.662	0.0703	0.06959	-0.422
Mof_H 	H 	0.6591	0.0946	0.1082	0.173
Mof_H 	H 	0.6486	0.9822	0.0682	0.175
Mof_C 	C 	0.5377	0.1314	0.03947	0.458
Mof_C 	C 	0.5977	0.1691	0.86257	0.077
Mof_H 	H 	0.6019	0.0975	0.8834	0.014
Mof_C 	C 	0.5366	0.1645	0.81043	-0.127
Mof_H 	H 	0.499	0.0915	0.797	0.075
Mof_C 	C 	0.532	0.2703	0.77838	0.055
Mof_C 	C 	0.587	0.3769	0.80137	-0.13
Mof_H 	H 	0.5856	0.4497	0.7814	0.077
Mof_C 	C 	0.644	0.3741	0.85446	0.081
Mof_H 	H 	0.6787	0.4465	0.8697	0.013
Mof_O 	O 	0.8535	0.9245	0.9917	-0.373
Mof_O 	O 	0.4193	0.1303	0.06314	-0.43
Mof_Ni	Ni	0.75996	0.76989	0.96226	1.131
Mof_O 	O 	0.6686	0.603	0.9479	-0.38
Mof_O 	O 	0.6796	0.73172	0.04203	-0.273
Mof_O 	O 	0.9408	0.6769	0.99185	-0.405
Mof_N 	N 	0.849	0.7727	0.8842	-0.217
Mof_C 	C 	0.6671	0.5385	0.99013	0.32
Mof_C 	C 	0.6902	0.6003	0.04661	0.054
Mof_H 	H 	0.6174	0.5709	0.0725	0.043
Mof_C 	C 	0.838	0.5703	0.06959	-0.416
Mof_H 	H 	0.8409	0.5946	0.1082	0.171
Mof_H 	H 	0.8514	0.4822	0.0682	0.173
Mof_C 	C 	0.9623	0.6314	0.03947	0.45
Mof_C 	C 	0.9023	0.6691	0.86257	0.076
Mof_H 	H 	0.8981	0.5975	0.8834	0.016
Mof_C 	C 	0.9634	0.6645	0.81043	-0.126
Mof_H 	H 	0.001	0.5915	0.797	0.074
Mof_C 	C 	0.968	0.7703	0.77838	0.055
Mof_C 	C 	0.913	0.8769	0.80137	-0.129
Mof_H 	H 	0.9144	0.9497	0.7814	0.077
Mof_C 	C 	0.856	0.8741	0.85446	0.08
Mof_H 	H 	0.8213	0.9465	0.8697	0.016
Mof_O 	O 	0.6465	0.4245	0.9917	-0.386
Mof_O 	O 	0.0807	0.6303	0.06314	-0.417
Mof_O 	O 	0.8314	0.897	0.4479	-0.38
Mof_O 	O 	0.8204	0.76828	0.54203	-0.272
Mof_O 	O 	0.5592	0.8231	0.49185	-0.406
Mof_N 	N 	0.651	0.7273	0.3842	-0.218
Mof_C 	C 	0.8329	0.9615	0.49013	0.32
Mof_C 	C 	0.8098	0.8997	0.54661	0.055
Mof_H 	H 	0.8826	0.9291	0.5725	0.043
Mof_C 	C 	0.662	0.9297	0.56959	-0.417
Mof_H 	H 	0.6591	0.9054	0.6082	0.171
Mof_H 	H 	0.6486	0.0178	0.5682	0.173
Mof_C 	C 	0.5377	0.8686	0.53947	0.452
Mof_C 	C 	0.5977	0.8309	0.36257	0.076
Mof_H 	H 	0.6019	0.9025	0.3834	0.016
Mof_C 	C 	0.5366	0.8355	0.31043	-0.127
Mof_H 	H 	0.499	0.9085	0.297	0.074
Mof_C 	C 	0.532	0.7297	0.27838	0.055
Mof_C 	C 	0.587	0.6231	0.30137	-0.129
Mof_H 	H 	0.5856	0.5503	0.2814	0.077
Mof_C 	C 	0.644	0.6259	0.35446	0.08
Mof_H 	H 	0.6787	0.5535	0.3697	0.015
Mof_O 	O 	0.8535	0.0755	0.4917	-0.386
Mof_O 	O 	0.4193	0.8697	0.56314	-0.418
Mof_O 	O 	0.3314	0.603	0.5521	-0.38
Mof_O 	O 	0.3204	0.73172	0.45797	-0.272
Mof_O 	O 	0.0592	0.6769	0.50815	-0.407
Mof_N 	N 	0.151	0.7727	0.6158	-0.218
Mof_C 	C 	0.3329	0.5385	0.50987	0.32
Mof_C 	C 	0.3098	0.6003	0.45339	0.055
Mof_H 	H 	0.3826	0.5709	0.4275	0.043
Mof_C 	C 	0.162	0.5703	0.43041	-0.417
Mof_H 	H 	0.1591	0.5946	0.3918	0.171
Mof_H 	H 	0.1486	0.4822	0.4318	0.173
Mof_C 	C 	0.0377	0.6314	0.46053	0.452
Mof_C 	C 	0.0977	0.6691	0.63743	0.077
Mof_H 	H 	0.1019	0.5975	0.6166	0.016
Mof_C 	C 	0.0366	0.6645	0.68957	-0.127
Mof_H 	H 	0.999	0.5915	0.703	0.075
Mof_C 	C 	0.032	0.7703	0.72162	0.055
Mof_C 	C 	0.087	0.8769	0.69863	-0.129
Mof_H 	H 	0.0856	0.9497	0.7186	0.077
Mof_C 	C 	0.144	0.8741	0.64554	0.08
Mof_H 	H 	0.1787	0.9465	0.6303	0.015
Mof_O 	O 	0.3535	0.4245	0.5083	-0.386
Mof_O 	O 	0.9193	0.6303	0.43686	-0.418
Mof_O 	O 	0.1686	0.897	0.0521	-0.38
Mof_O 	O 	0.1796	0.76828	0.95797	-0.272
Mof_O 	O 	0.4408	0.8231	0.00815	-0.407
Mof_N 	N 	0.349	0.7273	0.1158	-0.218
Mof_C 	C 	0.1671	0.9615	0.00987	0.318
Mof_C 	C 	0.1902	0.8997	0.95339	0.056
Mof_H 	H 	0.1174	0.9291	0.9275	0.043
Mof_C 	C 	0.338	0.9297	0.93041	-0.416
Mof_H 	H 	0.3409	0.9054	0.8918	0.171
Mof_H 	H 	0.3514	0.0178	0.9318	0.172
Mof_C 	C 	0.4623	0.8686	0.96053	0.452
Mof_C 	C 	0.4023	0.8309	0.13743	0.076
Mof_H 	H 	0.3981	0.9025	0.1166	0.016
Mof_C 	C 	0.4634	0.8355	0.18957	-0.127
Mof_H 	H 	0.501	0.9085	0.203	0.074
Mof_C 	C 	0.468	0.7297	0.22162	0.055
Mof_C 	C 	0.413	0.6231	0.19863	-0.129
Mof_H 	H 	0.4144	0.5503	0.2186	0.077
Mof_C 	C 	0.356	0.6259	0.14554	0.08
Mof_H 	H 	0.3213	0.5535	0.1303	0.015
Mof_O 	O 	0.1465	0.0755	0.0083	-0.384
Mof_O 	O 	0.5807	0.8697	0.93686	-0.418
_end
