data_functionalizedCrystal
_audit_creation_method	'EQeq! by Chris Wilmer'
_symmetry_space_group_name_H-M	'P1'
_symmetry_Int_Tables_number	1
_symmetry_cell_setting	triclinic
loop_
_symmetry_equiv_pos_as_xyz
  x,y,z
_cell_length_a	8.7156
_cell_length_b	34.0813
_cell_length_c	8.636
_cell_angle_alpha	90
_cell_angle_beta	107.632
_cell_angle_gamma	90
loop_
_atom_site_label
_atom_site_type_symbol
_atom_site_fract_x
_atom_site_fract_y
_atom_site_fract_z
_atom_site_charge
Mof_Cu	Cu	0.74952	0.20351	0.48286	0.95
Mof_Cu	Cu	0.73861	0.0456	0.49862	0.949
Mof_O 	O 	0.89528	0.15372	0.6122	-0.255
Mof_O 	O 	0.85003	0.09002	0.62842	-0.291
Mof_O 	O 	0.62165	0.16008	0.36071	-0.29
Mof_O 	O 	0.61223	0.09511	0.34025	-0.25
Mof_O 	O 	0.6239	0.20612	0.64442	-0.275
Mof_O 	O 	0.58957	0.24832	0.82735	-0.243
Mof_O 	O 	0.8754	0.24614	0.61814	-0.293
Mof_O 	O 	0.86021	0.2875	0.81239	-0.288
Mof_O 	O 	0.90653	0.04066	0.38404	-0.279
Mof_O 	O 	0.08904	0.99978	0.34408	-0.246
Mof_O 	O 	0.57037	0.04196	0.61398	-0.284
Mof_O 	O 	0.37925	0.99976	0.6278	-0.29
Mof_C 	C 	0.8187	0.1233	0.5635	0.23
Mof_C 	C 	0.6699	0.12599	0.4072	0.233
Mof_C 	C 	0.8122	0.25866	0.7218	0.239
Mof_C 	C 	0.662	0.23634	0.7347	0.212
Mof_C 	C 	0.0006	0.01127	0.4213	0.231
Mof_C 	C 	0.4851	0.01209	0.5699	0.225
Mof_Cu	Cu	0.25048	0.70351	0.01714	0.943
Mof_Cu	Cu	0.26139	0.5456	0.00138	0.947
Mof_O 	O 	0.10472	0.65372	0.8878	-0.25
Mof_O 	O 	0.14997	0.59002	0.87158	-0.289
Mof_O 	O 	0.37835	0.66008	0.13929	-0.292
Mof_O 	O 	0.38777	0.59511	0.15975	-0.251
Mof_O 	O 	0.3761	0.70612	0.85558	-0.267
Mof_O 	O 	0.41043	0.74832	0.67265	-0.237
Mof_O 	O 	0.1246	0.74614	0.88186	-0.283
Mof_O 	O 	0.13979	0.7875	0.68761	-0.283
Mof_O 	O 	0.09347	0.54066	0.11596	-0.284
Mof_O 	O 	0.91096	0.49978	0.15592	-0.245
Mof_O 	O 	0.42963	0.54196	0.88602	-0.281
Mof_O 	O 	0.62075	0.49976	0.8722	-0.29
Mof_C 	C 	0.1813	0.6233	0.9365	0.242
Mof_C 	C 	0.3301	0.62599	0.0928	0.222
Mof_C 	C 	0.1878	0.75866	0.7782	0.239
Mof_C 	C 	0.338	0.73634	0.7653	0.213
Mof_C 	C 	0.9994	0.51127	0.0787	0.235
Mof_C 	C 	0.5149	0.51209	0.9301	0.226
Mof_Cu	Cu	0.25048	0.79649	0.51714	0.95
Mof_Cu	Cu	0.26139	0.9544	0.50138	0.949
Mof_O 	O 	0.10472	0.84628	0.3878	-0.255
Mof_O 	O 	0.14997	0.90998	0.37158	-0.291
Mof_O 	O 	0.37835	0.83992	0.63929	-0.29
Mof_O 	O 	0.38777	0.90489	0.65975	-0.25
Mof_O 	O 	0.3761	0.79388	0.35558	-0.275
Mof_O 	O 	0.41043	0.75168	0.17265	-0.243
Mof_O 	O 	0.1246	0.75386	0.38186	-0.293
Mof_O 	O 	0.13979	0.7125	0.18761	-0.288
Mof_O 	O 	0.09347	0.95934	0.61596	-0.279
Mof_O 	O 	0.91096	0.00022	0.65592	-0.246
Mof_O 	O 	0.42963	0.95804	0.38602	-0.284
Mof_O 	O 	0.62075	0.00024	0.3722	-0.29
Mof_C 	C 	0.1813	0.8767	0.4365	0.23
Mof_C 	C 	0.3301	0.87401	0.5928	0.233
Mof_C 	C 	0.1878	0.74134	0.2782	0.239
Mof_C 	C 	0.338	0.76366	0.2653	0.212
Mof_C 	C 	0.9994	0.98873	0.5787	0.231
Mof_C 	C 	0.5149	0.98791	0.4301	0.225
Mof_Cu	Cu	0.74952	0.29649	0.98286	0.943
Mof_Cu	Cu	0.73861	0.4544	0.99862	0.947
Mof_O 	O 	0.89528	0.34628	0.1122	-0.25
Mof_O 	O 	0.85003	0.40998	0.12842	-0.289
Mof_O 	O 	0.62165	0.33992	0.86071	-0.292
Mof_O 	O 	0.61223	0.40489	0.84025	-0.251
Mof_O 	O 	0.6239	0.29388	0.14442	-0.267
Mof_O 	O 	0.58957	0.25168	0.32735	-0.237
Mof_O 	O 	0.8754	0.25386	0.11814	-0.283
Mof_O 	O 	0.86021	0.2125	0.31239	-0.283
Mof_O 	O 	0.90653	0.45934	0.88404	-0.284
Mof_O 	O 	0.08904	0.50022	0.84408	-0.245
Mof_O 	O 	0.57037	0.45804	0.11398	-0.281
Mof_O 	O 	0.37925	0.50024	0.1278	-0.29
Mof_C 	C 	0.8187	0.3767	0.0635	0.242
Mof_C 	C 	0.6699	0.37401	0.9072	0.222
Mof_C 	C 	0.8122	0.24134	0.2218	0.239
Mof_C 	C 	0.662	0.26366	0.2347	0.213
Mof_C 	C 	0.0006	0.48873	0.9213	0.235
Mof_C 	C 	0.4851	0.48791	0.0699	0.226
_end
