data_functionalizedCrystal
_audit_creation_method	'EQeq! by Chris Wilmer'
_symmetry_space_group_name_H-M	'P1'
_symmetry_Int_Tables_number	1
_symmetry_cell_setting	triclinic
loop_
_symmetry_equiv_pos_as_xyz
  x,y,z
_cell_length_a	23.3033
_cell_length_b	23.3033
_cell_length_c	6.5788
_cell_angle_alpha	90
_cell_angle_beta	90
_cell_angle_gamma	90
loop_
_atom_site_label
_atom_site_type_symbol
_atom_site_fract_x
_atom_site_fract_y
_atom_site_fract_z
_atom_site_charge
Mof_O 	O 	0.96275	0.54434	0.4545	-1.535
Mof_O 	O 	0.92558	0.5757	0.7323	-0.452
Mof_C 	C 	0.92917	0.5781	0.5472	1.038
Mof_C 	C 	0.89788	0.62254	0.4276	-0.727
Mof_C 	C 	0.8543	0.6532	0.5236	0.573
Mof_H 	H 	0.8446	0.6447	0.6573	-0.173
Mof_C 	C 	0.8255	0.6962	0.4223	-0.647
Mof_H 	H 	0.7966	0.7166	0.4878	0.273
Mof_C 	C 	0.8393	0.70867	0.2275	0.578
Mof_C 	C 	0.8809	0.6756	0.1259	-0.69
Mof_H 	H 	0.8887	0.6823	0.9892	0.301
Mof_C 	C 	0.90989	0.63389	0.2281	0.689
Mof_H 	H 	0.9381	0.6129	0.1616	-0.291
Mof_O 	O 	0.46275	0.04434	0.9545	-1.652
Mof_O 	O 	0.42558	0.0757	0.2323	-0.537
Mof_C 	C 	0.42917	0.0781	0.0472	0.903
Mof_C 	C 	0.39788	0.12254	0.9276	-0.583
Mof_C 	C 	0.3543	0.1532	0.0236	0.336
Mof_H 	H 	0.3446	0.1447	0.1573	-0.118
Mof_C 	C 	0.3255	0.1962	0.9223	-0.482
Mof_H 	H 	0.2966	0.2166	0.9878	0.22
Mof_C 	C 	0.3393	0.20867	0.7275	0.488
Mof_C 	C 	0.3809	0.1756	0.6259	-0.587
Mof_H 	H 	0.3887	0.1823	0.4892	0.225
Mof_C 	C 	0.40989	0.13389	0.7281	0.537
Mof_H 	H 	0.4381	0.1129	0.6616	-0.299
Mof_O 	O 	0.03725	0.45566	0.4545	-1.759
Mof_O 	O 	0.07442	0.4243	0.7323	-0.566
Mof_C 	C 	0.07083	0.4219	0.5472	1.087
Mof_C 	C 	0.10212	0.37746	0.4276	-0.842
Mof_C 	C 	0.1457	0.3468	0.5236	0.629
Mof_H 	H 	0.1554	0.3553	0.6573	-0.2
Mof_C 	C 	0.1745	0.3038	0.4223	-0.714
Mof_H 	H 	0.2034	0.2834	0.4878	0.291
Mof_C 	C 	0.1607	0.29133	0.2275	0.619
Mof_C 	C 	0.1191	0.3244	0.1259	-0.79
Mof_H 	H 	0.1113	0.3177	0.9892	0.301
Mof_C 	C 	0.09011	0.36611	0.2281	0.761
Mof_H 	H 	0.0619	0.3871	0.1616	-0.407
Mof_O 	O 	0.53725	0.95566	0.9545	-1.437
Mof_O 	O 	0.57442	0.9243	0.2323	-0.4
Mof_C 	C 	0.57083	0.9219	0.0472	0.87
Mof_C 	C 	0.60212	0.87746	0.9276	-0.495
Mof_C 	C 	0.6457	0.8468	0.0236	0.307
Mof_H 	H 	0.6554	0.8553	0.1573	-0.072
Mof_C 	C 	0.6745	0.8038	0.9223	-0.433
Mof_H 	H 	0.7034	0.7834	0.9878	0.21
Mof_C 	C 	0.6607	0.79133	0.7275	0.465
Mof_C 	C 	0.6191	0.8244	0.6259	-0.529
Mof_H 	H 	0.6113	0.8177	0.4892	0.214
Mof_C 	C 	0.59011	0.86611	0.7281	0.5
Mof_H 	H 	0.5619	0.8871	0.6616	-0.248
Mof_O 	O 	0.54434	0.03725	0.5455	-1.719
Mof_O 	O 	0.5757	0.07442	0.2677	-0.568
Mof_C 	C 	0.5781	0.07083	0.4528	1.049
Mof_C 	C 	0.62254	0.10212	0.5724	-0.77
Mof_C 	C 	0.6532	0.1457	0.4764	0.561
Mof_H 	H 	0.6447	0.1554	0.3427	-0.182
Mof_C 	C 	0.6962	0.1745	0.5777	-0.646
Mof_H 	H 	0.7166	0.2034	0.5122	0.268
Mof_C 	C 	0.70867	0.1607	0.7725	0.546
Mof_C 	C 	0.6756	0.1191	0.8741	-0.611
Mof_H 	H 	0.6823	0.1113	0.0108	0.2
Mof_C 	C 	0.63389	0.09011	0.7719	0.64
Mof_H 	H 	0.6129	0.0619	0.8384	-0.349
Mof_O 	O 	0.04434	0.53725	0.0455	-1.771
Mof_O 	O 	0.0757	0.57442	0.7677	-0.588
Mof_C 	C 	0.0781	0.57083	0.9528	1.111
Mof_C 	C 	0.12254	0.60212	0.0724	-0.886
Mof_C 	C 	0.1532	0.6457	0.9764	0.691
Mof_H 	H 	0.1447	0.6554	0.8427	-0.233
Mof_C 	C 	0.1962	0.6745	0.0777	-0.774
Mof_H 	H 	0.2166	0.7034	0.0122	0.299
Mof_C 	C 	0.20867	0.6607	0.2725	0.656
Mof_C 	C 	0.1756	0.6191	0.3741	-0.789
Mof_H 	H 	0.1823	0.6113	0.5108	0.299
Mof_C 	C 	0.13389	0.59011	0.2719	0.777
Mof_H 	H 	0.1129	0.5619	0.3384	-0.386
Mof_O 	O 	0.45566	0.96275	0.5455	-1.5
Mof_O 	O 	0.4243	0.92558	0.2677	-0.456
Mof_C 	C 	0.4219	0.92917	0.4528	1.004
Mof_C 	C 	0.37746	0.89788	0.5724	-0.668
Mof_C 	C 	0.3468	0.8543	0.4764	0.518
Mof_H 	H 	0.3553	0.8446	0.3427	-0.159
Mof_C 	C 	0.3038	0.8255	0.5777	-0.594
Mof_H 	H 	0.2834	0.7966	0.5122	0.251
Mof_C 	C 	0.29133	0.8393	0.7725	0.525
Mof_C 	C 	0.3244	0.8809	0.8741	-0.536
Mof_H 	H 	0.3177	0.8887	0.0108	0.214
Mof_C 	C 	0.36611	0.90989	0.7719	0.588
Mof_H 	H 	0.3871	0.9381	0.8384	-0.242
Mof_O 	O 	0.95566	0.46275	0.0455	-1.541
Mof_O 	O 	0.9243	0.42558	0.7677	-0.443
Mof_C 	C 	0.9219	0.42917	0.9528	1.058
Mof_C 	C 	0.87746	0.39788	0.0724	-0.767
Mof_C 	C 	0.8468	0.3543	0.9764	0.628
Mof_H 	H 	0.8553	0.3446	0.8427	-0.174
Mof_C 	C 	0.8038	0.3255	0.0777	-0.696
Mof_H 	H 	0.7834	0.2966	0.0122	0.283
Mof_C 	C 	0.79133	0.3393	0.2725	0.618
Mof_C 	C 	0.8244	0.3809	0.3741	-0.711
Mof_H 	H 	0.8177	0.3887	0.5108	0.281
Mof_C 	C 	0.86611	0.40989	0.2719	0.718
Mof_H 	H 	0.8871	0.4381	0.3384	-0.327
Mof_O 	O 	0.53725	0.54434	0.2955	-2.295
Mof_O 	O 	0.57442	0.5757	0.0177	-0.66
Mof_C 	C 	0.57083	0.5781	0.2028	1.368
Mof_C 	C 	0.60212	0.62254	0.3224	-1.023
Mof_C 	C 	0.6457	0.6532	0.2264	0.758
Mof_H 	H 	0.6554	0.6447	0.0927	-0.259
Mof_C 	C 	0.6745	0.6962	0.3277	-0.811
Mof_H 	H 	0.7034	0.7166	0.2622	0.322
Mof_C 	C 	0.6607	0.70867	0.5225	0.687
Mof_C 	C 	0.6191	0.6756	0.6241	-0.866
Mof_H 	H 	0.6113	0.6823	0.7608	0.329
Mof_C 	C 	0.59011	0.63389	0.5219	0.92
Mof_H 	H 	0.5619	0.6129	0.5884	-0.489
Mof_O 	O 	0.03725	0.04434	0.7955	-1.13
Mof_O 	O 	0.07442	0.0757	0.5177	-0.475
Mof_C 	C 	0.07083	0.0781	0.7028	0.72
Mof_C 	C 	0.10212	0.12254	0.8224	-0.492
Mof_C 	C 	0.1457	0.1532	0.7264	0.346
Mof_H 	H 	0.1554	0.1447	0.5927	-0.11
Mof_C 	C 	0.1745	0.1962	0.8277	-0.449
Mof_H 	H 	0.2034	0.2166	0.7622	0.2
Mof_C 	C 	0.1607	0.20867	0.0225	0.409
Mof_C 	C 	0.1191	0.1756	0.1241	-0.496
Mof_H 	H 	0.1113	0.1823	0.2608	0.185
Mof_C 	C 	0.09011	0.13389	0.0219	0.376
Mof_H 	H 	0.0619	0.1129	0.0884	-0.216
Mof_O 	O 	0.46275	0.45566	0.2955	-2.295
Mof_O 	O 	0.42558	0.4243	0.0177	-0.66
Mof_C 	C 	0.42917	0.4219	0.2028	1.37
Mof_C 	C 	0.39788	0.37746	0.3224	-1.025
Mof_C 	C 	0.3543	0.3468	0.2264	0.762
Mof_H 	H 	0.3446	0.3553	0.0927	-0.26
Mof_C 	C 	0.3255	0.3038	0.3277	-0.815
Mof_H 	H 	0.2966	0.2834	0.2622	0.321
Mof_C 	C 	0.3393	0.29133	0.5225	0.694
Mof_C 	C 	0.3809	0.3244	0.6241	-0.869
Mof_H 	H 	0.3887	0.3177	0.7608	0.332
Mof_C 	C 	0.40989	0.36611	0.5219	0.924
Mof_H 	H 	0.4381	0.3871	0.5884	-0.49
Mof_O 	O 	0.96275	0.95566	0.7955	-0.698
Mof_O 	O 	0.92558	0.9243	0.5177	-0.227
Mof_C 	C 	0.92917	0.9219	0.7028	0.641
Mof_C 	C 	0.89788	0.87746	0.8224	-0.303
Mof_C 	C 	0.8543	0.8468	0.7264	0.27
Mof_H 	H 	0.8446	0.8553	0.5927	-0.039
Mof_C 	C 	0.8255	0.8038	0.8277	-0.349
Mof_H 	H 	0.7966	0.7834	0.7622	0.178
Mof_C 	C 	0.8393	0.79133	0.0225	0.365
Mof_C 	C 	0.8809	0.8244	0.1241	-0.364
Mof_H 	H 	0.8887	0.8177	0.2608	0.188
Mof_C 	C 	0.90989	0.86611	0.0219	0.291
Mof_H 	H 	0.9381	0.8871	0.0884	-0.059
Mof_O 	O 	0.95566	0.03725	0.2045	-0.949
Mof_O 	O 	0.9243	0.07442	0.4823	-0.351
Mof_C 	C 	0.9219	0.07083	0.2972	0.752
Mof_C 	C 	0.87746	0.10212	0.1776	-0.605
Mof_C 	C 	0.8468	0.1457	0.2736	0.498
Mof_H 	H 	0.8553	0.1554	0.4073	-0.124
Mof_C 	C 	0.8038	0.1745	0.1723	-0.633
Mof_H 	H 	0.7834	0.2034	0.2378	0.266
Mof_C 	C 	0.79133	0.1607	0.9775	0.578
Mof_C 	C 	0.8244	0.1191	0.8759	-0.62
Mof_H 	H 	0.8177	0.1113	0.7392	0.241
Mof_C 	C 	0.86611	0.09011	0.9781	0.594
Mof_H 	H 	0.8871	0.0619	0.9116	-0.235
Mof_O 	O 	0.45566	0.53725	0.7045	-2.288
Mof_O 	O 	0.4243	0.57442	0.9823	-0.639
Mof_C 	C 	0.4219	0.57083	0.7972	1.368
Mof_C 	C 	0.37746	0.60212	0.6776	-1.023
Mof_C 	C 	0.3468	0.6457	0.7736	0.767
Mof_H 	H 	0.3553	0.6554	0.9073	-0.251
Mof_C 	C 	0.3038	0.6745	0.6723	-0.822
Mof_H 	H 	0.2834	0.7034	0.7378	0.33
Mof_C 	C 	0.29133	0.6607	0.4775	0.708
Mof_C 	C 	0.3244	0.6191	0.3759	-0.88
Mof_H 	H 	0.3177	0.6113	0.2392	0.325
Mof_C 	C 	0.36611	0.59011	0.4781	0.926
Mof_H 	H 	0.3871	0.5619	0.4116	-0.495
Mof_O 	O 	0.04434	0.96275	0.2045	-0.956
Mof_O 	O 	0.0757	0.92558	0.4823	-0.381
Mof_C 	C 	0.0781	0.92917	0.2972	0.749
Mof_C 	C 	0.12254	0.89788	0.1776	-0.612
Mof_C 	C 	0.1532	0.8543	0.2736	0.502
Mof_H 	H 	0.1447	0.8446	0.4073	-0.156
Mof_C 	C 	0.1962	0.8255	0.1723	-0.648
Mof_H 	H 	0.2166	0.7966	0.2378	0.265
Mof_C 	C 	0.20867	0.8393	0.9775	0.586
Mof_C 	C 	0.1756	0.8809	0.8759	-0.616
Mof_H 	H 	0.1823	0.8887	0.7392	0.27
Mof_C 	C 	0.13389	0.90989	0.9781	0.593
Mof_H 	H 	0.1129	0.9381	0.9116	-0.184
Mof_O 	O 	0.54434	0.46275	0.7045	-2.288
Mof_O 	O 	0.5757	0.42558	0.9823	-0.638
Mof_C 	C 	0.5781	0.42917	0.7972	1.367
Mof_C 	C 	0.62254	0.39788	0.6776	-1.021
Mof_C 	C 	0.6532	0.3543	0.7736	0.763
Mof_H 	H 	0.6447	0.3446	0.9073	-0.249
Mof_C 	C 	0.6962	0.3255	0.6723	-0.817
Mof_H 	H 	0.7166	0.2966	0.7378	0.332
Mof_C 	C 	0.70867	0.3393	0.4775	0.701
Mof_C 	C 	0.6756	0.3809	0.3759	-0.875
Mof_H 	H 	0.6823	0.3887	0.2392	0.322
Mof_C 	C 	0.63389	0.40989	0.4781	0.922
Mof_H 	H 	0.6129	0.4381	0.4116	-0.494
Mof_Cd	Cd	-9.72605e-34	0.5	0.75	0.159
Mof_Cd	Cd	0.5	0	0.25	0.134
Mof_Cd	Cd	0.5	0.5	-0	0.333
Mof_Cd	Cd	5.2925e-34	0	0.5	-0.03
Mof_O 	O 	0.80852	0.75	0.125	-0.414
Mof_O 	O 	0.30852	0.25	0.625	-0.47
Mof_O 	O 	0.19148	0.25	0.125	-0.447
Mof_O 	O 	0.75	0.19148	0.875	-0.446
Mof_O 	O 	0.25	0.69148	0.375	-0.516
Mof_O 	O 	0.25	0.80852	0.875	-0.447
Mof_O 	O 	0.75	0.30852	0.375	-0.498
Mof_O 	O 	0.69148	0.75	0.625	-0.455
Mof_Li	Li	2.03111e-33	0.5	0.25	6.125
Mof_Li	Li	0.5	0	0.75	5.961
Mof_Li	Li	0.5	0.5	0.5	8.738
Mof_Li	Li	-0	0	-0	3.219
_end
