# CIF file generated by openbabel 3.1.0, see https://openbabel.org
data_I
_chemical_name_common 'image0'
_cell_length_a 9.2153
_cell_length_b 11.1328
_cell_length_c 15.2684
_cell_angle_alpha 70.278
_cell_angle_beta 83.973
_cell_angle_gamma 71.336
_space_group_name_H-M_alt 'P 1'
_space_group_name_Hall 'P 1'
loop_
    _symmetry_equiv_pos_as_xyz
    x,y,z
loop_
    _atom_site_label
    _atom_site_type_symbol
    _atom_site_fract_x
    _atom_site_fract_y
    _atom_site_fract_z
    _atom_site_occupancy
    Zn1      Zn       0.68806    0.74919    0.74625    1.000
    Zn2      Zn       0.49009    0.47112    0.64980    1.000
    Zn3      Zn       0.14487    0.81390    0.51218    1.000
    P1       P        0.39824    0.76324    0.65559    1.000
    H1       H        0.30950    0.82010    0.72580    1.000
    P2       P        0.24640    0.51760    0.50222    1.000
    H2       H        0.14450    0.45150    0.50910    1.000
    P3       P        0.91956    0.91720    0.65906    1.000
    H3       H        0.03560    0.89050    0.70480    1.000
    O1       O        0.55480    0.78780    0.64420    1.000
    O2       O        0.40720    0.61720    0.69980    1.000
    O3       O        0.31550    0.82990    0.56540    1.000
    O4       O        0.34020    0.44230    0.58940    1.000
    O5       O        0.32200    0.55510    0.40960    1.000
    O6       O        0.34080    0.46920    0.42760    1.000
    O7       O        0.12930    0.63690    0.52290    1.000
    O8       O        0.16940    0.66370    0.47000    1.000
    O9       O        0.96770    0.83860    0.59330    1.000
    O10      O        0.79460    0.87890    0.72310    1.000
    O11      O        0.88060    0.06790    0.61330    1.000
    N1       N        0.82990    0.55930    0.78130    1.000
    N2       N        0.44180    0.68760    0.23060    1.000
    N3       N        0.36280    0.15270    0.54300    1.000
    H4       H        0.36010    0.17280    0.48030    1.000
    N4       N        0.16570    0.10360    0.96410    1.000
    N5       N        0.34540    0.98250    0.89010    1.000
    C1       C        0.95540    0.52590    0.73120    1.000
    H5       H        0.97220    0.59020    0.67710    1.000
    C2       C        0.06110    0.39930    0.75690    1.000
    H6       H        0.14780    0.37980    0.72090    1.000
    C3       C        0.80320    0.46390    0.85700    1.000
    H7       H        0.71400    0.48590    0.89050    1.000
    C4       C        0.90180    0.33410    0.88790    1.000
    H8       H        0.87970    0.27040    0.94060    1.000
    C5       C        0.03650    0.30210    0.83660    1.000
    C6       C        0.31220    0.78880    0.22540    1.000
    H9       H        0.25490    0.79010    0.27920    1.000
    C7       C        0.26090    0.89000    0.14420    1.000
    H10      H        0.17100    0.95890    0.14350    1.000
    C8       C        0.52630    0.68710    0.15270    1.000
    H11      H        0.61750    0.61840    0.15610    1.000
    C9       C        0.48040    0.78740    0.06700    1.000
    H12      H        0.54060    0.78530    0.01440    1.000
    C10      C        0.34460    0.88950    0.06150    1.000
    C11      C        0.47630    0.10390    0.60490    1.000
    H13      H        0.57780    0.08360    0.58550    1.000
    C12      C        0.44250    0.08420    0.69590    1.000
    H14      H        0.52130    0.05010    0.73930    1.000
    C13      C        0.21760    0.18100    0.56780    1.000
    H15      H        0.14200    0.21440    0.52250    1.000
    C14      C        0.17610    0.16230    0.65890    1.000
    H16      H        0.07350    0.18110    0.67630    1.000
    C15      C        0.29250    0.11400    0.72530    1.000
    C16      C        0.15090    0.16750    0.87230    1.000
    C17      C        0.28660    0.99070    0.97380    1.000
    C18      C        0.25880    0.09220    0.82580    1.000
    Zn4      Zn       0.31194    0.25081    0.25375    1.000
    Zn5      Zn       0.50991    0.52888    0.35020    1.000
    Zn6      Zn       0.85513    0.18610    0.48782    1.000
    P4       P        0.60176    0.23676    0.34441    1.000
    H17      H        0.69050    0.17990    0.27420    1.000
    P5       P        0.75360    0.48240    0.49778    1.000
    H18      H        0.85550    0.54850    0.49090    1.000
    P6       P        0.08044    0.08280    0.34094    1.000
    H19      H        0.96440    0.10950    0.29520    1.000
    O12      O        0.44520    0.21220    0.35580    1.000
    O13      O        0.59280    0.38280    0.30020    1.000
    O14      O        0.68450    0.17010    0.43460    1.000
    O15      O        0.65980    0.55770    0.41060    1.000
    O16      O        0.67800    0.44490    0.59040    1.000
    O17      O        0.65920    0.53080    0.57240    1.000
    O18      O        0.87070    0.36310    0.47710    1.000
    O19      O        0.83060    0.33630    0.53000    1.000
    O20      O        0.03230    0.16140    0.40670    1.000
    O21      O        0.20540    0.12110    0.27690    1.000
    O22      O        0.11940    0.93210    0.38670    1.000
    N6       N        0.17010    0.44070    0.21870    1.000
    N7       N        0.55820    0.31240    0.76940    1.000
    N8       N        0.63720    0.84730    0.45700    1.000
    H20      H        0.63990    0.82720    0.51970    1.000
    N9       N        0.83430    0.89640    0.03590    1.000
    N10      N        0.65460    0.01750    0.10990    1.000
    C19      C        0.04460    0.47410    0.26880    1.000
    H21      H        0.02780    0.40980    0.32290    1.000
    C20      C        0.93890    0.60070    0.24310    1.000
    H22      H        0.85220    0.62020    0.27910    1.000
    C21      C        0.19680    0.53610    0.14300    1.000
    H23      H        0.28600    0.51410    0.10950    1.000
    C22      C        0.09820    0.66590    0.11210    1.000
    H24      H        0.12030    0.72960    0.05940    1.000
    C23      C        0.96350    0.69790    0.16340    1.000
    C24      C        0.68780    0.21120    0.77460    1.000
    H25      H        0.74510    0.20990    0.72080    1.000
    C25      C        0.73910    0.11000    0.85580    1.000
    H26      H        0.82900    0.04110    0.85650    1.000
    C26      C        0.47370    0.31290    0.84730    1.000
    H27      H        0.38250    0.38160    0.84390    1.000
    C27      C        0.51960    0.21260    0.93300    1.000
    H28      H        0.45940    0.21470    0.98560    1.000
    C28      C        0.65540    0.11050    0.93850    1.000
    C29      C        0.52370    0.89610    0.39510    1.000
    H29      H        0.42220    0.91640    0.41450    1.000
    C30      C        0.55750    0.91580    0.30410    1.000
    H30      H        0.47870    0.94990    0.26070    1.000
    C31      C        0.78240    0.81900    0.43220    1.000
    H31      H        0.85800    0.78560    0.47750    1.000
    C32      C        0.82390    0.83770    0.34110    1.000
    H32      H        0.92650    0.81890    0.32370    1.000
    C33      C        0.70750    0.88600    0.27470    1.000
    C34      C        0.84910    0.83250    0.12770    1.000
    C35      C        0.71340    0.00930    0.02620    1.000
    C36      C        0.74120    0.90780    0.17420    1.000
