data_functionalizedCrystal
_audit_creation_method	'EQeq! by Chris Wilmer'
_symmetry_space_group_name_H-M	'P1'
_symmetry_Int_Tables_number	1
_symmetry_cell_setting	triclinic
loop_
_symmetry_equiv_pos_as_xyz
  x,y,z
_cell_length_a	31.0998
_cell_length_b	24.0457
_cell_length_c	23.0064
_cell_angle_alpha	90
_cell_angle_beta	131.42
_cell_angle_gamma	90
loop_
_atom_site_label
_atom_site_type_symbol
_atom_site_fract_x
_atom_site_fract_y
_atom_site_fract_z
_atom_site_charge
Mof_Cd	Cd	0.04419	0.46114	0.97872	0.477
Mof_Cd	Cd	0.19899	0.37499	0.04125	0.485
Mof_Cd	Cd	0.13906	0.32418	0.1354	0.494
Mof_O 	O 	0.27703	0.43112	0.08539	-0.286
Mof_O 	O 	0.23007	0.39243	0.97115	-0.312
Mof_O 	O 	0.24888	0.42591	0.884	-0.395
Mof_H 	H 	0.2341	0.4092	0.8997	0.248
Mof_O 	O 	0.26072	0.55421	0.85414	-0.43
Mof_H 	H 	0.2387	0.579	0.8245	0.281
Mof_O 	O 	0.20275	0.6145	0.73584	-0.314
Mof_O 	O 	0.20151	0.60366	0.64036	-0.296
Mof_O 	O 	0.05767	0.27055	0.07987	-0.282
Mof_O 	O 	0.10957	0.29177	0.20325	-0.309
Mof_O 	O 	0.07737	0.26649	0.27599	-0.396
Mof_H 	H 	0.0974	0.2816	0.2673	0.253
Mof_O 	O 	0.13068	0.29606	0.03344	-0.294
Mof_O 	O 	0.1421	0.30941	0.94985	-0.308
Mof_O 	O 	0.07332	0.26679	0.81498	-0.385
Mof_H 	H 	0.0976	0.2877	0.8535	0.254
Mof_O 	O 	0.04549	0.48168	0.88099	-0.34
Mof_O 	O 	0.11779	0.42956	0.97279	-0.332
Mof_O 	O 	0.07848	0.40028	0.08472	-0.403
Mof_O 	O 	0.02562	0.46939	0.06598	-0.404
Mof_N 	N 	0.29138	0.75731	0.2884	-0.15
Mof_N 	N 	0.1074	0.53297	0.05314	-0.153
Mof_N 	N 	0.97653	0.39387	0.89519	-0.153
Mof_N 	N 	0.76902	0.19229	0.62547	-0.145
Mof_C 	C 	0.27124	0.42175	0.0268	0.328
Mof_C 	C 	0.31279	0.44567	0.02129	-0.163
Mof_C 	C 	0.36296	0.46821	0.0853	0.016
Mof_H 	H 	0.371	0.4685	0.132	0.034
Mof_C 	C 	0.40299	0.4911	0.0816	-0.016
Mof_C 	C 	0.455	0.5145	0.1477	-0.04
Mof_H 	H 	0.4637	0.5141	0.1949	0.042
Mof_C 	C 	0.4925	0.5378	0.143	-0.049
Mof_H 	H 	0.5265	0.5535	0.1868	0.047
Mof_C 	C 	0.4804	0.5381	0.0733	-0.01
Mof_H 	H 	0.5067	0.5533	0.0711	0.034
Mof_C 	C 	0.43005	0.51629	0.0074	-0.086
Mof_H 	H 	0.4225	0.5172	0.961	0.064
Mof_C 	C 	0.3899	0.49262	0.0098	0.048
Mof_C 	C 	0.33609	0.47178	0.9423	-0.05
Mof_C 	C 	0.29959	0.44709	0.94901	0.22
Mof_C 	C 	0.31639	0.4829	0.8645	-0.064
Mof_C 	C 	0.3355	0.45179	0.8331	0.044
Mof_C 	C 	0.37222	0.40509	0.8724	-0.086
Mof_H 	H 	0.3863	0.3959	0.9216	0.067
Mof_C 	C 	0.387	0.37372	0.8388	-0.013
Mof_H 	H 	0.411	0.3432	0.8653	0.042
Mof_C 	C 	0.3667	0.3864	0.7655	-0.046
Mof_H 	H 	0.3765	0.3639	0.7429	0.048
Mof_C 	C 	0.3321	0.43217	0.7259	-0.048
Mof_H 	H 	0.3194	0.4409	0.6773	0.052
Mof_C 	C 	0.31594	0.46582	0.7589	-0.013
Mof_C 	C 	0.27918	0.51215	0.7193	0.014
Mof_H 	H 	0.2672	0.5223	0.6716	0.05
Mof_C 	C 	0.26085	0.5424	0.75	-0.179
Mof_C 	C 	0.27944	0.52654	0.8231	0.238
Mof_C 	C 	0.21987	0.58938	0.70576	0.344
Mof_C 	C 	0.0654	0.26947	0.1407	0.315
Mof_C 	C 	0.02388	0.24124	0.1423	-0.178
Mof_C 	C 	0.9772	0.21595	0.0769	0.024
Mof_H 	H 	0.9716	0.2173	0.0319	0.031
Mof_C 	C 	0.937	0.1875	0.0762	-0.033
Mof_C 	C 	0.8889	0.1597	0.0095	-0.019
Mof_H 	H 	0.8822	0.1607	0.9637	0.039
Mof_C 	C 	0.8524	0.1313	0.0124	-0.074
Mof_H 	H 	0.8203	0.1138	0.968	0.077
Mof_C 	C 	0.8627	0.128	0.0823	0.018
Mof_H 	H 	0.8385	0.1074	0.0844	0.027
Mof_C 	C 	0.9068	0.1543	0.1438	-0.1
Mof_H 	H 	0.9122	0.1531	0.1886	0.075
Mof_C 	C 	0.9469	0.1845	0.1456	0.066
Mof_C 	C 	0.9947	0.21189	0.2129	-0.061
Mof_C 	C 	0.0322	0.23952	0.211	0.219
Mof_C 	C 	0.1178	0.28491	0.97065	0.342
Mof_C 	C 	0.07394	0.24137	0.91767	-0.161
Mof_C 	C 	0.05172	0.2083	0.94097	0.011
Mof_H 	H 	0.065	0.2127	0.9907	0.047
Mof_C 	C 	0.00964	0.16812	0.8919	-0.013
Mof_C 	C 	0.98583	0.13419	0.9146	-0.048
Mof_H 	H 	0.999	0.1377	0.9643	0.047
Mof_C 	C 	0.944	0.09642	0.8649	-0.046
Mof_H 	H 	0.9286	0.0746	0.8807	0.045
Mof_C 	C 	0.924	0.09042	0.7897	-0.014
Mof_H 	H 	0.896	0.0641	0.7563	0.042
Mof_C 	C 	0.94522	0.12264	0.765	-0.081
Mof_H 	H 	0.9308	0.1186	0.7147	0.071
Mof_C 	C 	0.98873	0.16213	0.81457	0.05
Mof_C 	C 	0.01168	0.19654	0.79057	-0.05
Mof_C 	C 	0.05335	0.23494	0.84107	0.221
Mof_C 	C 	0.0946	0.4333	0.8508	-0.334
Mof_H 	H 	0.0707	0.401	0.8255	0.137
Mof_H 	H 	0.1337	0.4234	0.8773	0.1
Mof_H 	H 	0.0822	0.4614	0.8129	0.103
Mof_C 	C 	0.1231	0.472	0.883	-0.351
Mof_H 	H 	0.1459	0.5045	0.9111	0.133
Mof_H 	H 	0.0962	0.4801	0.8284	0.1
Mof_H 	H 	0.1476	0.442	0.8931	0.115
Mof_C 	C 	0.0906	0.4554	0.9089	0.464
Mof_C 	C 	0.062	0.4118	0.173	-1.292
Mof_H 	H 	0.0413	0.4376	0.1784	0.43
Mof_H 	H 	0.1018	0.4125	0.2189	0.429
Mof_H 	H 	0.047	0.375	0.1655	0.427
Mof_C 	C 	0.0553	0.42764	0.1047	0.687
Mof_C 	C 	0.1104	0.5773	0.0224	0.095
Mof_H 	H 	0.0882	0.5781	0.9689	0.004
Mof_C 	C 	0.1448	0.6228	0.0651	-0.147
Mof_H 	H 	0.1445	0.6534	0.0402	0.082
Mof_C 	C 	0.1795	0.62286	0.1447	0.073
Mof_C 	C 	0.17658	0.57609	0.1764	-0.153
Mof_H 	H 	0.1989	0.5736	0.2298	0.1
Mof_C 	C 	0.14059	0.53296	0.1292	0.106
Mof_H 	H 	0.1397	0.5019	0.1525	0.007
Mof_C 	C 	0.21767	0.66975	0.1934	0.061
Mof_C 	C 	0.2236	0.7158	0.1633	-0.135
Mof_H 	H 	0.2029	0.7182	0.1103	0.078
Mof_C 	C 	0.2601	0.75799	0.2117	0.085
Mof_H 	H 	0.2633	0.7886	0.1901	0.018
Mof_C 	C 	0.2499	0.66941	0.2726	-0.142
Mof_H 	H 	0.2473	0.6395	0.2958	0.098
Mof_C 	C 	0.28591	0.71324	0.3173	0.093
Mof_H 	H 	0.3075	0.7117	0.3705	0.014
Mof_C 	C 	0.9354	0.40489	0.8212	0.1
Mof_H 	H 	0.9329	0.4409	0.8044	-0
Mof_C 	C 	0.8956	0.36652	0.7668	-0.149
Mof_H 	H 	0.8684	0.3769	0.715	0.084
Mof_C 	C 	0.89573	0.31344	0.78789	0.081
Mof_C 	C 	0.9372	0.30278	0.8652	-0.139
Mof_H 	H 	0.9394	0.2677	0.8839	0.085
Mof_C 	C 	0.97609	0.34328	0.9161	0.091
Mof_H 	H 	0.0036	0.3341	0.9684	0.027
Mof_C 	C 	0.85234	0.2714	0.73121	0.062
Mof_C 	C 	0.85155	0.21864	0.7549	-0.123
Mof_H 	H 	0.8789	0.2087	0.8069	0.078
Mof_C 	C 	0.8102	0.18095	0.7013	0.083
Mof_H 	H 	0.8108	0.1457	0.7186	0.016
Mof_C 	C 	0.8107	0.28256	0.652	-0.128
Mof_H 	H 	0.81	0.3169	0.6327	0.089
Mof_C 	C 	0.77089	0.24288	0.60278	0.086
Mof_H 	H 	0.7434	0.2515	0.5503	0.02
Mof_Cd	Cd	0.54419	0.96114	0.97872	0.478
Mof_Cd	Cd	0.69899	0.87499	0.04125	0.483
Mof_Cd	Cd	0.63906	0.82418	0.1354	0.493
Mof_O 	O 	0.77703	0.93112	0.08539	-0.287
Mof_O 	O 	0.73007	0.89243	0.97115	-0.312
Mof_O 	O 	0.74888	0.92591	0.884	-0.396
Mof_H 	H 	0.7341	0.9092	0.8997	0.247
Mof_O 	O 	0.76072	0.05421	0.85414	-0.431
Mof_H 	H 	0.7387	0.079	0.8245	0.28
Mof_O 	O 	0.70275	0.1145	0.73584	-0.315
Mof_O 	O 	0.70151	0.10366	0.64036	-0.297
Mof_O 	O 	0.55767	0.77055	0.07987	-0.284
Mof_O 	O 	0.60957	0.79177	0.20325	-0.31
Mof_O 	O 	0.57737	0.76649	0.27599	-0.397
Mof_H 	H 	0.5974	0.7816	0.2673	0.252
Mof_O 	O 	0.63068	0.79606	0.03344	-0.296
Mof_O 	O 	0.6421	0.80941	0.94985	-0.308
Mof_O 	O 	0.57332	0.76679	0.81498	-0.385
Mof_H 	H 	0.5976	0.7877	0.8535	0.254
Mof_O 	O 	0.54549	0.98168	0.88099	-0.34
Mof_O 	O 	0.61779	0.92956	0.97279	-0.331
Mof_O 	O 	0.57848	0.90028	0.08472	-0.404
Mof_O 	O 	0.52562	0.96939	0.06598	-0.405
Mof_N 	N 	0.79138	0.25731	0.2884	-0.15
Mof_N 	N 	0.6074	0.03297	0.05314	-0.153
Mof_N 	N 	0.47653	0.89387	0.89519	-0.153
Mof_N 	N 	0.26902	0.69229	0.62547	-0.145
Mof_C 	C 	0.77124	0.92175	0.0268	0.327
Mof_C 	C 	0.81279	0.94567	0.02129	-0.163
Mof_C 	C 	0.86296	0.96821	0.0853	0.016
Mof_H 	H 	0.871	0.9685	0.132	0.034
Mof_C 	C 	0.90299	0.9911	0.0816	-0.016
Mof_C 	C 	0.955	0.0145	0.1477	-0.04
Mof_H 	H 	0.9637	0.0141	0.1949	0.042
Mof_C 	C 	0.9925	0.0378	0.143	-0.048
Mof_H 	H 	0.0265	0.0535	0.1868	0.047
Mof_C 	C 	0.9804	0.0381	0.0733	-0.012
Mof_H 	H 	0.0067	0.0533	0.0711	0.035
Mof_C 	C 	0.93005	0.01629	0.0074	-0.083
Mof_H 	H 	0.9225	0.0172	0.961	0.063
Mof_C 	C 	0.8899	0.99262	0.0098	0.046
Mof_C 	C 	0.83609	0.97178	0.9423	-0.048
Mof_C 	C 	0.79959	0.94709	0.94901	0.221
Mof_C 	C 	0.81639	0.9829	0.8645	-0.063
Mof_C 	C 	0.8355	0.95179	0.8331	0.044
Mof_C 	C 	0.87222	0.90509	0.8724	-0.085
Mof_H 	H 	0.8863	0.8959	0.9216	0.067
Mof_C 	C 	0.887	0.87372	0.8388	-0.013
Mof_H 	H 	0.911	0.8432	0.8653	0.043
Mof_C 	C 	0.8667	0.8864	0.7655	-0.045
Mof_H 	H 	0.8765	0.8639	0.7429	0.048
Mof_C 	C 	0.8321	0.93217	0.7259	-0.048
Mof_H 	H 	0.8194	0.9409	0.6773	0.052
Mof_C 	C 	0.81594	0.96582	0.7589	-0.013
Mof_C 	C 	0.77918	0.01215	0.7193	0.013
Mof_H 	H 	0.7672	0.0223	0.6716	0.05
Mof_C 	C 	0.76085	0.0424	0.75	-0.178
Mof_C 	C 	0.77944	0.02654	0.8231	0.238
Mof_C 	C 	0.71987	0.08938	0.70576	0.344
Mof_C 	C 	0.5654	0.76947	0.1407	0.316
Mof_C 	C 	0.52388	0.74124	0.1423	-0.179
Mof_C 	C 	0.4772	0.71595	0.0769	0.025
Mof_H 	H 	0.4716	0.7173	0.0319	0.031
Mof_C 	C 	0.437	0.6875	0.0762	-0.033
Mof_C 	C 	0.3889	0.6597	0.0095	-0.019
Mof_H 	H 	0.3822	0.6607	0.9637	0.039
Mof_C 	C 	0.3524	0.6313	0.0124	-0.074
Mof_H 	H 	0.3203	0.6138	0.968	0.077
Mof_C 	C 	0.3627	0.628	0.0823	0.018
Mof_H 	H 	0.3385	0.6074	0.0844	0.027
Mof_C 	C 	0.4068	0.6543	0.1438	-0.1
Mof_H 	H 	0.4122	0.6531	0.1886	0.075
Mof_C 	C 	0.4469	0.6845	0.1456	0.066
Mof_C 	C 	0.4947	0.71189	0.2129	-0.06
Mof_C 	C 	0.5322	0.73952	0.211	0.219
Mof_C 	C 	0.6178	0.78491	0.97065	0.343
Mof_C 	C 	0.57394	0.74137	0.91767	-0.16
Mof_C 	C 	0.55172	0.7083	0.94097	0.009
Mof_H 	H 	0.565	0.7127	0.9907	0.048
Mof_C 	C 	0.50964	0.66812	0.8919	-0.01
Mof_C 	C 	0.48583	0.63419	0.9146	-0.051
Mof_H 	H 	0.499	0.6377	0.9643	0.048
Mof_C 	C 	0.444	0.59642	0.8649	-0.043
Mof_H 	H 	0.4286	0.5746	0.8807	0.044
Mof_C 	C 	0.424	0.59042	0.7897	-0.016
Mof_H 	H 	0.396	0.5641	0.7563	0.043
Mof_C 	C 	0.44522	0.62264	0.765	-0.079
Mof_H 	H 	0.4308	0.6186	0.7147	0.07
Mof_C 	C 	0.48873	0.66213	0.81457	0.047
Mof_C 	C 	0.51168	0.69654	0.79057	-0.048
Mof_C 	C 	0.55335	0.73494	0.84107	0.22
Mof_C 	C 	0.5946	0.9333	0.8508	-0.333
Mof_H 	H 	0.5707	0.901	0.8255	0.137
Mof_H 	H 	0.6337	0.9234	0.8773	0.099
Mof_H 	H 	0.5822	0.9614	0.8129	0.103
Mof_C 	C 	0.6231	0.972	0.883	-0.351
Mof_H 	H 	0.6459	0.0045	0.9111	0.133
Mof_H 	H 	0.5962	0.9801	0.8284	0.1
Mof_H 	H 	0.6476	0.942	0.8931	0.116
Mof_C 	C 	0.5906	0.9554	0.9089	0.464
Mof_C 	C 	0.562	0.9118	0.173	-1.292
Mof_H 	H 	0.5413	0.9376	0.1784	0.429
Mof_H 	H 	0.6018	0.9125	0.2189	0.429
Mof_H 	H 	0.547	0.875	0.1655	0.427
Mof_C 	C 	0.5553	0.92764	0.1047	0.687
Mof_C 	C 	0.6104	0.0773	0.0224	0.095
Mof_H 	H 	0.5882	0.0781	0.9689	0.004
Mof_C 	C 	0.6448	0.1228	0.0651	-0.147
Mof_H 	H 	0.6445	0.1534	0.0402	0.082
Mof_C 	C 	0.6795	0.12286	0.1447	0.073
Mof_C 	C 	0.67658	0.07609	0.1764	-0.153
Mof_H 	H 	0.6989	0.0736	0.2298	0.1
Mof_C 	C 	0.64059	0.03296	0.1292	0.106
Mof_H 	H 	0.6397	0.0019	0.1525	0.007
Mof_C 	C 	0.71767	0.16975	0.1934	0.061
Mof_C 	C 	0.7236	0.2158	0.1633	-0.135
Mof_H 	H 	0.7029	0.2182	0.1103	0.078
Mof_C 	C 	0.7601	0.25799	0.2117	0.085
Mof_H 	H 	0.7633	0.2886	0.1901	0.018
Mof_C 	C 	0.7499	0.16941	0.2726	-0.142
Mof_H 	H 	0.7473	0.1395	0.2958	0.098
Mof_C 	C 	0.78591	0.21324	0.3173	0.093
Mof_H 	H 	0.8075	0.2117	0.3705	0.014
Mof_C 	C 	0.4354	0.90489	0.8212	0.1
Mof_H 	H 	0.4329	0.9409	0.8044	-0
Mof_C 	C 	0.3956	0.86652	0.7668	-0.149
Mof_H 	H 	0.3684	0.8769	0.715	0.084
Mof_C 	C 	0.39573	0.81344	0.78789	0.081
Mof_C 	C 	0.4372	0.80278	0.8652	-0.138
Mof_H 	H 	0.4394	0.7677	0.8839	0.085
Mof_C 	C 	0.47609	0.84328	0.9161	0.09
Mof_H 	H 	0.5036	0.8341	0.9684	0.028
Mof_C 	C 	0.35234	0.7714	0.73121	0.062
Mof_C 	C 	0.35155	0.71864	0.7549	-0.123
Mof_H 	H 	0.3789	0.7087	0.8069	0.078
Mof_C 	C 	0.3102	0.68095	0.7013	0.083
Mof_H 	H 	0.3108	0.6457	0.7186	0.016
Mof_C 	C 	0.3107	0.78256	0.652	-0.128
Mof_H 	H 	0.31	0.8169	0.6327	0.089
Mof_C 	C 	0.27089	0.74288	0.60278	0.086
Mof_H 	H 	0.2434	0.7515	0.5503	0.02
Mof_Cd	Cd	0.95581	0.46114	0.52128	0.477
Mof_Cd	Cd	0.80101	0.37499	0.45875	0.483
Mof_Cd	Cd	0.86094	0.32418	0.3646	0.493
Mof_O 	O 	0.72297	0.43112	0.41461	-0.287
Mof_O 	O 	0.76993	0.39243	0.52885	-0.313
Mof_O 	O 	0.75112	0.42591	0.616	-0.396
Mof_H 	H 	0.7659	0.4092	0.6003	0.247
Mof_O 	O 	0.73928	0.55421	0.64586	-0.431
Mof_H 	H 	0.7613	0.579	0.6755	0.28
Mof_O 	O 	0.79725	0.6145	0.76416	-0.315
Mof_O 	O 	0.79849	0.60366	0.85964	-0.297
Mof_O 	O 	0.94233	0.27055	0.42013	-0.284
Mof_O 	O 	0.89043	0.29177	0.29675	-0.31
Mof_O 	O 	0.92263	0.26649	0.22401	-0.397
Mof_H 	H 	0.9026	0.2816	0.2327	0.252
Mof_O 	O 	0.86932	0.29606	0.46656	-0.295
Mof_O 	O 	0.8579	0.30941	0.55015	-0.308
Mof_O 	O 	0.92668	0.26679	0.68502	-0.385
Mof_H 	H 	0.9024	0.2877	0.6465	0.254
Mof_O 	O 	0.95451	0.48168	0.61901	-0.34
Mof_O 	O 	0.88221	0.42956	0.52721	-0.332
Mof_O 	O 	0.92152	0.40028	0.41528	-0.404
Mof_O 	O 	0.97438	0.46939	0.43402	-0.404
Mof_N 	N 	0.70862	0.75731	0.2116	-0.15
Mof_N 	N 	0.8926	0.53297	0.44686	-0.153
Mof_N 	N 	0.02347	0.39387	0.60481	-0.153
Mof_N 	N 	0.23098	0.19229	0.87453	-0.145
Mof_C 	C 	0.72876	0.42175	0.4732	0.328
Mof_C 	C 	0.68721	0.44567	0.47871	-0.163
Mof_C 	C 	0.63704	0.46821	0.4147	0.017
Mof_H 	H 	0.629	0.4685	0.368	0.034
Mof_C 	C 	0.59701	0.4911	0.4184	-0.016
Mof_C 	C 	0.545	0.5145	0.3523	-0.04
Mof_H 	H 	0.5363	0.5141	0.3051	0.042
Mof_C 	C 	0.5075	0.5378	0.357	-0.049
Mof_H 	H 	0.4735	0.5535	0.3132	0.047
Mof_C 	C 	0.5196	0.5381	0.4267	-0.01
Mof_H 	H 	0.4933	0.5533	0.4289	0.034
Mof_C 	C 	0.56995	0.51629	0.4926	-0.086
Mof_H 	H 	0.5775	0.5172	0.539	0.064
Mof_C 	C 	0.6101	0.49262	0.4902	0.048
Mof_C 	C 	0.66391	0.47178	0.5577	-0.05
Mof_C 	C 	0.70041	0.44709	0.55099	0.22
Mof_C 	C 	0.68361	0.4829	0.6355	-0.064
Mof_C 	C 	0.6645	0.45179	0.6669	0.044
Mof_C 	C 	0.62778	0.40509	0.6276	-0.086
Mof_H 	H 	0.6137	0.3959	0.5784	0.067
Mof_C 	C 	0.613	0.37372	0.6612	-0.013
Mof_H 	H 	0.589	0.3432	0.6347	0.042
Mof_C 	C 	0.6333	0.3864	0.7345	-0.046
Mof_H 	H 	0.6235	0.3639	0.7571	0.048
Mof_C 	C 	0.6679	0.43217	0.7741	-0.048
Mof_H 	H 	0.6806	0.4409	0.8227	0.052
Mof_C 	C 	0.68406	0.46582	0.7411	-0.013
Mof_C 	C 	0.72082	0.51215	0.7807	0.014
Mof_H 	H 	0.7328	0.5223	0.8284	0.05
Mof_C 	C 	0.73915	0.5424	0.75	-0.179
Mof_C 	C 	0.72056	0.52654	0.6769	0.238
Mof_C 	C 	0.78013	0.58938	0.79424	0.344
Mof_C 	C 	0.9346	0.26947	0.3593	0.316
Mof_C 	C 	0.97612	0.24124	0.3577	-0.179
Mof_C 	C 	0.0228	0.21595	0.4231	0.025
Mof_H 	H 	0.0284	0.2173	0.4681	0.031
Mof_C 	C 	0.063	0.1875	0.4238	-0.033
Mof_C 	C 	0.1111	0.1597	0.4905	-0.019
Mof_H 	H 	0.1178	0.1607	0.5363	0.039
Mof_C 	C 	0.1476	0.1313	0.4876	-0.074
Mof_H 	H 	0.1797	0.1138	0.532	0.077
Mof_C 	C 	0.1373	0.128	0.4177	0.019
Mof_H 	H 	0.1615	0.1074	0.4156	0.027
Mof_C 	C 	0.0932	0.1543	0.3562	-0.1
Mof_H 	H 	0.0878	0.1531	0.3114	0.075
Mof_C 	C 	0.0531	0.1845	0.3544	0.066
Mof_C 	C 	0.0053	0.21189	0.2871	-0.06
Mof_C 	C 	0.9678	0.23952	0.289	0.218
Mof_C 	C 	0.8822	0.28491	0.52935	0.342
Mof_C 	C 	0.92606	0.24137	0.58233	-0.16
Mof_C 	C 	0.94828	0.2083	0.55903	0.008
Mof_H 	H 	0.935	0.2127	0.5093	0.048
Mof_C 	C 	0.99036	0.16812	0.6081	-0.009
Mof_C 	C 	0.01417	0.13419	0.5854	-0.053
Mof_H 	H 	0.001	0.1377	0.5357	0.048
Mof_C 	C 	0.056	0.09642	0.6351	-0.042
Mof_H 	H 	0.0714	0.0746	0.6193	0.044
Mof_C 	C 	0.076	0.09042	0.7103	-0.018
Mof_H 	H 	0.104	0.0641	0.7437	0.043
Mof_C 	C 	0.05478	0.12264	0.735	-0.077
Mof_H 	H 	0.0692	0.1186	0.7853	0.069
Mof_C 	C 	0.01127	0.16213	0.68543	0.045
Mof_C 	C 	0.98832	0.19654	0.70943	-0.046
Mof_C 	C 	0.94665	0.23494	0.65893	0.219
Mof_C 	C 	0.9054	0.4333	0.6492	-0.334
Mof_H 	H 	0.9293	0.401	0.6745	0.137
Mof_H 	H 	0.8663	0.4234	0.6227	0.1
Mof_H 	H 	0.9178	0.4614	0.6871	0.103
Mof_C 	C 	0.8769	0.472	0.617	-0.351
Mof_H 	H 	0.8541	0.5045	0.5889	0.133
Mof_H 	H 	0.9038	0.4801	0.6716	0.1
Mof_H 	H 	0.8524	0.442	0.6069	0.115
Mof_C 	C 	0.9094	0.4554	0.5911	0.464
Mof_C 	C 	0.938	0.4118	0.327	-1.292
Mof_H 	H 	0.9587	0.4376	0.3216	0.429
Mof_H 	H 	0.8982	0.4125	0.2811	0.429
Mof_H 	H 	0.953	0.375	0.3345	0.427
Mof_C 	C 	0.9447	0.42764	0.3953	0.687
Mof_C 	C 	0.8896	0.5773	0.4776	0.094
Mof_H 	H 	0.9118	0.5781	0.5311	0.005
Mof_C 	C 	0.8552	0.6228	0.4349	-0.147
Mof_H 	H 	0.8555	0.6534	0.4598	0.082
Mof_C 	C 	0.8205	0.62286	0.3553	0.072
Mof_C 	C 	0.82342	0.57609	0.3236	-0.153
Mof_H 	H 	0.8011	0.5736	0.2702	0.1
Mof_C 	C 	0.85941	0.53296	0.3708	0.106
Mof_H 	H 	0.8603	0.5019	0.3475	0.007
Mof_C 	C 	0.78233	0.66975	0.3066	0.061
Mof_C 	C 	0.7764	0.7158	0.3367	-0.136
Mof_H 	H 	0.7971	0.7182	0.3897	0.078
Mof_C 	C 	0.7399	0.75799	0.2883	0.085
Mof_H 	H 	0.7367	0.7886	0.3099	0.018
Mof_C 	C 	0.7501	0.66941	0.2274	-0.142
Mof_H 	H 	0.7527	0.6395	0.2042	0.098
Mof_C 	C 	0.71409	0.71324	0.1827	0.094
Mof_H 	H 	0.6925	0.7117	0.1295	0.014
Mof_C 	C 	0.0646	0.40489	0.6788	0.1
Mof_H 	H 	0.0671	0.4409	0.6956	-0
Mof_C 	C 	0.1044	0.36652	0.7332	-0.149
Mof_H 	H 	0.1316	0.3769	0.785	0.084
Mof_C 	C 	0.10427	0.31344	0.71211	0.081
Mof_C 	C 	0.0628	0.30278	0.6348	-0.138
Mof_H 	H 	0.0606	0.2677	0.6161	0.085
Mof_C 	C 	0.02391	0.34328	0.5839	0.089
Mof_H 	H 	0.9964	0.3341	0.5316	0.028
Mof_C 	C 	0.14766	0.2714	0.76879	0.062
Mof_C 	C 	0.14845	0.21864	0.7451	-0.123
Mof_H 	H 	0.1211	0.2087	0.6931	0.078
Mof_C 	C 	0.1898	0.18095	0.7987	0.083
Mof_H 	H 	0.1892	0.1457	0.7814	0.016
Mof_C 	C 	0.1893	0.28256	0.848	-0.128
Mof_H 	H 	0.19	0.3169	0.8673	0.089
Mof_C 	C 	0.22911	0.24288	0.89722	0.087
Mof_H 	H 	0.2566	0.2515	0.9497	0.019
Mof_Cd	Cd	0.45581	0.96114	0.52128	0.477
Mof_Cd	Cd	0.30101	0.87499	0.45875	0.483
Mof_Cd	Cd	0.36094	0.82418	0.3646	0.493
Mof_O 	O 	0.22297	0.93112	0.41461	-0.287
Mof_O 	O 	0.26993	0.89243	0.52885	-0.313
Mof_O 	O 	0.25112	0.92591	0.616	-0.396
Mof_H 	H 	0.2659	0.9092	0.6003	0.247
Mof_O 	O 	0.23928	0.05421	0.64586	-0.431
Mof_H 	H 	0.2613	0.079	0.6755	0.28
Mof_O 	O 	0.29725	0.1145	0.76416	-0.315
Mof_O 	O 	0.29849	0.10366	0.85964	-0.297
Mof_O 	O 	0.44233	0.77055	0.42013	-0.284
Mof_O 	O 	0.39043	0.79177	0.29675	-0.31
Mof_O 	O 	0.42263	0.76649	0.22401	-0.397
Mof_H 	H 	0.4026	0.7816	0.2327	0.252
Mof_O 	O 	0.36932	0.79606	0.46656	-0.295
Mof_O 	O 	0.3579	0.80941	0.55015	-0.309
Mof_O 	O 	0.42668	0.76679	0.68502	-0.385
Mof_H 	H 	0.4024	0.7877	0.6465	0.254
Mof_O 	O 	0.45451	0.98168	0.61901	-0.34
Mof_O 	O 	0.38221	0.92956	0.52721	-0.332
Mof_O 	O 	0.42152	0.90028	0.41528	-0.404
Mof_O 	O 	0.47438	0.96939	0.43402	-0.404
Mof_N 	N 	0.20862	0.25731	0.2116	-0.15
Mof_N 	N 	0.3926	0.03297	0.44686	-0.153
Mof_N 	N 	0.52347	0.89387	0.60481	-0.153
Mof_N 	N 	0.73098	0.69229	0.87453	-0.145
Mof_C 	C 	0.22876	0.92175	0.4732	0.328
Mof_C 	C 	0.18721	0.94567	0.47871	-0.163
Mof_C 	C 	0.13704	0.96821	0.4147	0.017
Mof_H 	H 	0.129	0.9685	0.368	0.034
Mof_C 	C 	0.09701	0.9911	0.4184	-0.016
Mof_C 	C 	0.045	0.0145	0.3523	-0.04
Mof_H 	H 	0.0363	0.0141	0.3051	0.042
Mof_C 	C 	0.0075	0.0378	0.357	-0.048
Mof_H 	H 	0.9735	0.0535	0.3132	0.047
Mof_C 	C 	0.0196	0.0381	0.4267	-0.01
Mof_H 	H 	0.9933	0.0533	0.4289	0.034
Mof_C 	C 	0.06995	0.01629	0.4926	-0.086
Mof_H 	H 	0.0775	0.0172	0.539	0.064
Mof_C 	C 	0.1101	0.99262	0.4902	0.048
Mof_C 	C 	0.16391	0.97178	0.5577	-0.05
Mof_C 	C 	0.20041	0.94709	0.55099	0.22
Mof_C 	C 	0.18361	0.9829	0.6355	-0.063
Mof_C 	C 	0.1645	0.95179	0.6669	0.043
Mof_C 	C 	0.12778	0.90509	0.6276	-0.085
Mof_H 	H 	0.1137	0.8959	0.5784	0.067
Mof_C 	C 	0.113	0.87372	0.6612	-0.014
Mof_H 	H 	0.089	0.8432	0.6347	0.043
Mof_C 	C 	0.1333	0.8864	0.7345	-0.045
Mof_H 	H 	0.1235	0.8639	0.7571	0.048
Mof_C 	C 	0.1679	0.93217	0.7741	-0.048
Mof_H 	H 	0.1806	0.9409	0.8227	0.052
Mof_C 	C 	0.18406	0.96582	0.7411	-0.012
Mof_C 	C 	0.22082	0.01215	0.7807	0.013
Mof_H 	H 	0.2328	0.0223	0.8284	0.05
Mof_C 	C 	0.23915	0.0424	0.75	-0.178
Mof_C 	C 	0.22056	0.02654	0.6769	0.238
Mof_C 	C 	0.28013	0.08938	0.79424	0.344
Mof_C 	C 	0.4346	0.76947	0.3593	0.316
Mof_C 	C 	0.47612	0.74124	0.3577	-0.179
Mof_C 	C 	0.5228	0.71595	0.4231	0.025
Mof_H 	H 	0.5284	0.7173	0.4681	0.031
Mof_C 	C 	0.563	0.6875	0.4238	-0.033
Mof_C 	C 	0.6111	0.6597	0.4905	-0.018
Mof_H 	H 	0.6178	0.6607	0.5363	0.039
Mof_C 	C 	0.6476	0.6313	0.4876	-0.075
Mof_H 	H 	0.6797	0.6138	0.532	0.078
Mof_C 	C 	0.6373	0.628	0.4177	0.019
Mof_H 	H 	0.6615	0.6074	0.4156	0.027
Mof_C 	C 	0.5932	0.6543	0.3562	-0.1
Mof_H 	H 	0.5878	0.6531	0.3114	0.075
Mof_C 	C 	0.5531	0.6845	0.3544	0.066
Mof_C 	C 	0.5053	0.71189	0.2871	-0.06
Mof_C 	C 	0.4678	0.73952	0.289	0.219
Mof_C 	C 	0.3822	0.78491	0.52935	0.343
Mof_C 	C 	0.42606	0.74137	0.58233	-0.16
Mof_C 	C 	0.44828	0.7083	0.55903	0.009
Mof_H 	H 	0.435	0.7127	0.5093	0.048
Mof_C 	C 	0.49036	0.66812	0.6081	-0.01
Mof_C 	C 	0.51417	0.63419	0.5854	-0.051
Mof_H 	H 	0.501	0.6377	0.5357	0.048
Mof_C 	C 	0.556	0.59642	0.6351	-0.043
Mof_H 	H 	0.5714	0.5746	0.6193	0.044
Mof_C 	C 	0.576	0.59042	0.7103	-0.016
Mof_H 	H 	0.604	0.5641	0.7437	0.043
Mof_C 	C 	0.55478	0.62264	0.735	-0.079
Mof_H 	H 	0.5692	0.6186	0.7853	0.07
Mof_C 	C 	0.51127	0.66213	0.68543	0.047
Mof_C 	C 	0.48832	0.69654	0.70943	-0.048
Mof_C 	C 	0.44665	0.73494	0.65893	0.22
Mof_C 	C 	0.4054	0.9333	0.6492	-0.334
Mof_H 	H 	0.4293	0.901	0.6745	0.137
Mof_H 	H 	0.3663	0.9234	0.6227	0.1
Mof_H 	H 	0.4178	0.9614	0.6871	0.103
Mof_C 	C 	0.3769	0.972	0.617	-0.351
Mof_H 	H 	0.3541	0.0045	0.5889	0.133
Mof_H 	H 	0.4038	0.9801	0.6716	0.1
Mof_H 	H 	0.3524	0.942	0.6069	0.115
Mof_C 	C 	0.4094	0.9554	0.5911	0.464
Mof_C 	C 	0.438	0.9118	0.327	-1.292
Mof_H 	H 	0.4587	0.9376	0.3216	0.429
Mof_H 	H 	0.3982	0.9125	0.2811	0.429
Mof_H 	H 	0.453	0.875	0.3345	0.427
Mof_C 	C 	0.4447	0.92764	0.3953	0.687
Mof_C 	C 	0.3896	0.0773	0.4776	0.094
Mof_H 	H 	0.4118	0.0781	0.5311	0.005
Mof_C 	C 	0.3552	0.1228	0.4349	-0.147
Mof_H 	H 	0.3555	0.1534	0.4598	0.082
Mof_C 	C 	0.3205	0.12286	0.3553	0.072
Mof_C 	C 	0.32342	0.07609	0.3236	-0.153
Mof_H 	H 	0.3011	0.0736	0.2702	0.1
Mof_C 	C 	0.35941	0.03296	0.3708	0.106
Mof_H 	H 	0.3603	0.0019	0.3475	0.007
Mof_C 	C 	0.28233	0.16975	0.3066	0.061
Mof_C 	C 	0.2764	0.2158	0.3367	-0.136
Mof_H 	H 	0.2971	0.2182	0.3897	0.078
Mof_C 	C 	0.2399	0.25799	0.2883	0.085
Mof_H 	H 	0.2367	0.2886	0.3099	0.018
Mof_C 	C 	0.2501	0.16941	0.2274	-0.142
Mof_H 	H 	0.2527	0.1395	0.2042	0.098
Mof_C 	C 	0.21409	0.21324	0.1827	0.093
Mof_H 	H 	0.1925	0.2117	0.1295	0.014
Mof_C 	C 	0.5646	0.90489	0.6788	0.1
Mof_H 	H 	0.5671	0.9409	0.6956	-0
Mof_C 	C 	0.6044	0.86652	0.7332	-0.149
Mof_H 	H 	0.6316	0.8769	0.785	0.084
Mof_C 	C 	0.60427	0.81344	0.71211	0.081
Mof_C 	C 	0.5628	0.80278	0.6348	-0.138
Mof_H 	H 	0.5606	0.7677	0.6161	0.085
Mof_C 	C 	0.52391	0.84328	0.5839	0.09
Mof_H 	H 	0.4964	0.8341	0.5316	0.028
Mof_C 	C 	0.64766	0.7714	0.76879	0.062
Mof_C 	C 	0.64845	0.71864	0.7451	-0.123
Mof_H 	H 	0.6211	0.7087	0.6931	0.078
Mof_C 	C 	0.6898	0.68095	0.7987	0.083
Mof_H 	H 	0.6892	0.6457	0.7814	0.016
Mof_C 	C 	0.6893	0.78256	0.848	-0.128
Mof_H 	H 	0.69	0.8169	0.8673	0.089
Mof_C 	C 	0.72911	0.74288	0.89722	0.086
Mof_H 	H 	0.7566	0.7515	0.9497	0.02
Mof_Cd	Cd	0.95581	0.53886	0.02128	0.476
Mof_Cd	Cd	0.80101	0.62501	0.95875	0.484
Mof_Cd	Cd	0.86094	0.67582	0.8646	0.493
Mof_O 	O 	0.72297	0.56888	0.91461	-0.287
Mof_O 	O 	0.76993	0.60757	0.02885	-0.313
Mof_O 	O 	0.75112	0.57409	0.116	-0.396
Mof_H 	H 	0.7659	0.5908	0.1003	0.247
Mof_O 	O 	0.73928	0.44579	0.14586	-0.431
Mof_H 	H 	0.7613	0.421	0.1755	0.28
Mof_O 	O 	0.79725	0.3855	0.26416	-0.315
Mof_O 	O 	0.79849	0.39634	0.35964	-0.297
Mof_O 	O 	0.94233	0.72945	0.92013	-0.283
Mof_O 	O 	0.89043	0.70823	0.79675	-0.31
Mof_O 	O 	0.92263	0.73351	0.72401	-0.397
Mof_H 	H 	0.9026	0.7184	0.7327	0.252
Mof_O 	O 	0.86932	0.70394	0.96656	-0.295
Mof_O 	O 	0.8579	0.69059	0.05015	-0.309
Mof_O 	O 	0.92668	0.73321	0.18502	-0.386
Mof_H 	H 	0.9024	0.7123	0.1465	0.254
Mof_O 	O 	0.95451	0.51832	0.11901	-0.34
Mof_O 	O 	0.88221	0.57044	0.02721	-0.332
Mof_O 	O 	0.92152	0.59972	0.91528	-0.403
Mof_O 	O 	0.97438	0.53061	0.93402	-0.404
Mof_N 	N 	0.70862	0.24269	0.7116	-0.15
Mof_N 	N 	0.8926	0.46703	0.94686	-0.153
Mof_N 	N 	0.02347	0.60613	0.10481	-0.153
Mof_N 	N 	0.23098	0.80771	0.37453	-0.145
Mof_C 	C 	0.72876	0.57825	0.9732	0.328
Mof_C 	C 	0.68721	0.55433	0.97871	-0.163
Mof_C 	C 	0.63704	0.53179	0.9147	0.016
Mof_H 	H 	0.629	0.5315	0.868	0.034
Mof_C 	C 	0.59701	0.5089	0.9184	-0.016
Mof_C 	C 	0.545	0.4855	0.8523	-0.04
Mof_H 	H 	0.5363	0.4859	0.8051	0.042
Mof_C 	C 	0.5075	0.4622	0.857	-0.049
Mof_H 	H 	0.4735	0.4465	0.8132	0.047
Mof_C 	C 	0.5196	0.4619	0.9267	-0.01
Mof_H 	H 	0.4933	0.4467	0.9289	0.034
Mof_C 	C 	0.56995	0.48371	0.9926	-0.086
Mof_H 	H 	0.5775	0.4828	0.039	0.064
Mof_C 	C 	0.6101	0.50738	0.9902	0.048
Mof_C 	C 	0.66391	0.52822	0.0577	-0.05
Mof_C 	C 	0.70041	0.55291	0.05099	0.22
Mof_C 	C 	0.68361	0.5171	0.1355	-0.064
Mof_C 	C 	0.6645	0.54821	0.1669	0.044
Mof_C 	C 	0.62778	0.59491	0.1276	-0.086
Mof_H 	H 	0.6137	0.6041	0.0784	0.067
Mof_C 	C 	0.613	0.62628	0.1612	-0.013
Mof_H 	H 	0.589	0.6568	0.1347	0.042
Mof_C 	C 	0.6333	0.6136	0.2345	-0.046
Mof_H 	H 	0.6235	0.6361	0.2571	0.048
Mof_C 	C 	0.6679	0.56783	0.2741	-0.048
Mof_H 	H 	0.6806	0.5591	0.3227	0.052
Mof_C 	C 	0.68406	0.53418	0.2411	-0.013
Mof_C 	C 	0.72082	0.48785	0.2807	0.014
Mof_H 	H 	0.7328	0.4777	0.3284	0.05
Mof_C 	C 	0.73915	0.4576	0.25	-0.179
Mof_C 	C 	0.72056	0.47346	0.1769	0.238
Mof_C 	C 	0.78013	0.41062	0.29424	0.344
Mof_C 	C 	0.9346	0.73053	0.8593	0.315
Mof_C 	C 	0.97612	0.75876	0.8577	-0.178
Mof_C 	C 	0.0228	0.78405	0.9231	0.024
Mof_H 	H 	0.0284	0.7827	0.9681	0.031
Mof_C 	C 	0.063	0.8125	0.9238	-0.033
Mof_C 	C 	0.1111	0.8403	0.9905	-0.019
Mof_H 	H 	0.1178	0.8393	0.0363	0.039
Mof_C 	C 	0.1476	0.8687	0.9876	-0.074
Mof_H 	H 	0.1797	0.8862	0.032	0.077
Mof_C 	C 	0.1373	0.872	0.9177	0.018
Mof_H 	H 	0.1615	0.8926	0.9156	0.027
Mof_C 	C 	0.0932	0.8457	0.8562	-0.1
Mof_H 	H 	0.0878	0.8469	0.8114	0.075
Mof_C 	C 	0.0531	0.8155	0.8544	0.066
Mof_C 	C 	0.0053	0.78811	0.7871	-0.061
Mof_C 	C 	0.9678	0.76048	0.789	0.219
Mof_C 	C 	0.8822	0.71509	0.02935	0.342
Mof_C 	C 	0.92606	0.75863	0.08233	-0.161
Mof_C 	C 	0.94828	0.7917	0.05903	0.011
Mof_H 	H 	0.935	0.7873	0.0093	0.047
Mof_C 	C 	0.99036	0.83188	0.1081	-0.013
Mof_C 	C 	0.01417	0.86581	0.0854	-0.048
Mof_H 	H 	0.001	0.8623	0.0357	0.047
Mof_C 	C 	0.056	0.90358	0.1351	-0.046
Mof_H 	H 	0.0714	0.9254	0.1193	0.045
Mof_C 	C 	0.076	0.90958	0.2103	-0.014
Mof_H 	H 	0.104	0.9359	0.2437	0.042
Mof_C 	C 	0.05478	0.87736	0.235	-0.081
Mof_H 	H 	0.0692	0.8814	0.2853	0.071
Mof_C 	C 	0.01127	0.83787	0.18543	0.05
Mof_C 	C 	0.98832	0.80346	0.20943	-0.05
Mof_C 	C 	0.94665	0.76506	0.15893	0.221
Mof_C 	C 	0.9054	0.5667	0.1492	-0.334
Mof_H 	H 	0.9293	0.599	0.1745	0.137
Mof_H 	H 	0.8663	0.5766	0.1227	0.1
Mof_H 	H 	0.9178	0.5386	0.1871	0.103
Mof_C 	C 	0.8769	0.528	0.117	-0.351
Mof_H 	H 	0.8541	0.4955	0.0889	0.133
Mof_H 	H 	0.9038	0.5199	0.1716	0.1
Mof_H 	H 	0.8524	0.558	0.1069	0.115
Mof_C 	C 	0.9094	0.5446	0.0911	0.464
Mof_C 	C 	0.938	0.5882	0.827	-1.292
Mof_H 	H 	0.9587	0.5624	0.8216	0.43
Mof_H 	H 	0.8982	0.5875	0.7811	0.429
Mof_H 	H 	0.953	0.625	0.8345	0.427
Mof_C 	C 	0.9447	0.57236	0.8953	0.687
Mof_C 	C 	0.8896	0.4227	0.9776	0.095
Mof_H 	H 	0.9118	0.4219	0.0311	0.004
Mof_C 	C 	0.8552	0.3772	0.9349	-0.147
Mof_H 	H 	0.8555	0.3466	0.9598	0.082
Mof_C 	C 	0.8205	0.37714	0.8553	0.073
Mof_C 	C 	0.82342	0.42391	0.8236	-0.153
Mof_H 	H 	0.8011	0.4264	0.7702	0.1
Mof_C 	C 	0.85941	0.46704	0.8708	0.106
Mof_H 	H 	0.8603	0.4981	0.8475	0.007
Mof_C 	C 	0.78233	0.33025	0.8066	0.061
Mof_C 	C 	0.7764	0.2842	0.8367	-0.135
Mof_H 	H 	0.7971	0.2818	0.8897	0.078
Mof_C 	C 	0.7399	0.24201	0.7883	0.085
Mof_H 	H 	0.7367	0.2114	0.8099	0.018
Mof_C 	C 	0.7501	0.33059	0.7274	-0.142
Mof_H 	H 	0.7527	0.3605	0.7042	0.098
Mof_C 	C 	0.71409	0.28676	0.6827	0.093
Mof_H 	H 	0.6925	0.2883	0.6295	0.014
Mof_C 	C 	0.0646	0.59511	0.1788	0.1
Mof_H 	H 	0.0671	0.5591	0.1956	-0
Mof_C 	C 	0.1044	0.63348	0.2332	-0.149
Mof_H 	H 	0.1316	0.6231	0.285	0.084
Mof_C 	C 	0.10427	0.68656	0.21211	0.081
Mof_C 	C 	0.0628	0.69722	0.1348	-0.139
Mof_H 	H 	0.0606	0.7323	0.1161	0.085
Mof_C 	C 	0.02391	0.65672	0.0839	0.091
Mof_H 	H 	0.9964	0.6659	0.0316	0.027
Mof_C 	C 	0.14766	0.7286	0.26879	0.062
Mof_C 	C 	0.14845	0.78136	0.2451	-0.123
Mof_H 	H 	0.1211	0.7913	0.1931	0.078
Mof_C 	C 	0.1898	0.81905	0.2987	0.083
Mof_H 	H 	0.1892	0.8543	0.2814	0.016
Mof_C 	C 	0.1893	0.71744	0.348	-0.128
Mof_H 	H 	0.19	0.6831	0.3673	0.089
Mof_C 	C 	0.22911	0.75712	0.39722	0.086
Mof_H 	H 	0.2566	0.7485	0.4497	0.02
Mof_Cd	Cd	0.45581	0.03886	0.02128	0.478
Mof_Cd	Cd	0.30101	0.12501	0.95875	0.483
Mof_Cd	Cd	0.36094	0.17582	0.8646	0.493
Mof_O 	O 	0.22297	0.06888	0.91461	-0.287
Mof_O 	O 	0.26993	0.10757	0.02885	-0.312
Mof_O 	O 	0.25112	0.07409	0.116	-0.396
Mof_H 	H 	0.2659	0.0908	0.1003	0.247
Mof_O 	O 	0.23928	0.94579	0.14586	-0.431
Mof_H 	H 	0.2613	0.921	0.1755	0.28
Mof_O 	O 	0.29725	0.8855	0.26416	-0.315
Mof_O 	O 	0.29849	0.89634	0.35964	-0.297
Mof_O 	O 	0.44233	0.22945	0.92013	-0.284
Mof_O 	O 	0.39043	0.20823	0.79675	-0.31
Mof_O 	O 	0.42263	0.23351	0.72401	-0.397
Mof_H 	H 	0.4026	0.2184	0.7327	0.252
Mof_O 	O 	0.36932	0.20394	0.96656	-0.296
Mof_O 	O 	0.3579	0.19059	0.05015	-0.308
Mof_O 	O 	0.42668	0.23321	0.18502	-0.385
Mof_H 	H 	0.4024	0.2123	0.1465	0.254
Mof_O 	O 	0.45451	0.01832	0.11901	-0.34
Mof_O 	O 	0.38221	0.07044	0.02721	-0.331
Mof_O 	O 	0.42152	0.09972	0.91528	-0.404
Mof_O 	O 	0.47438	0.03061	0.93402	-0.405
Mof_N 	N 	0.20862	0.74269	0.7116	-0.15
Mof_N 	N 	0.3926	0.96703	0.94686	-0.153
Mof_N 	N 	0.52347	0.10613	0.10481	-0.153
Mof_N 	N 	0.73098	0.30771	0.37453	-0.145
Mof_C 	C 	0.22876	0.07825	0.9732	0.327
Mof_C 	C 	0.18721	0.05433	0.97871	-0.163
Mof_C 	C 	0.13704	0.03179	0.9147	0.016
Mof_H 	H 	0.129	0.0315	0.868	0.034
Mof_C 	C 	0.09701	0.0089	0.9184	-0.016
Mof_C 	C 	0.045	0.9855	0.8523	-0.04
Mof_H 	H 	0.0363	0.9859	0.8051	0.042
Mof_C 	C 	0.0075	0.9622	0.857	-0.048
Mof_H 	H 	0.9735	0.9465	0.8132	0.047
Mof_C 	C 	0.0196	0.9619	0.9267	-0.012
Mof_H 	H 	0.9933	0.9467	0.9289	0.035
Mof_C 	C 	0.06995	0.98371	0.9926	-0.083
Mof_H 	H 	0.0775	0.9828	0.039	0.063
Mof_C 	C 	0.1101	0.00738	0.9902	0.046
Mof_C 	C 	0.16391	0.02822	0.0577	-0.048
Mof_C 	C 	0.20041	0.05291	0.05099	0.221
Mof_C 	C 	0.18361	0.0171	0.1355	-0.063
Mof_C 	C 	0.1645	0.04821	0.1669	0.044
Mof_C 	C 	0.12778	0.09491	0.1276	-0.085
Mof_H 	H 	0.1137	0.1041	0.0784	0.067
Mof_C 	C 	0.113	0.12628	0.1612	-0.013
Mof_H 	H 	0.089	0.1568	0.1347	0.043
Mof_C 	C 	0.1333	0.1136	0.2345	-0.045
Mof_H 	H 	0.1235	0.1361	0.2571	0.048
Mof_C 	C 	0.1679	0.06783	0.2741	-0.048
Mof_H 	H 	0.1806	0.0591	0.3227	0.052
Mof_C 	C 	0.18406	0.03418	0.2411	-0.013
Mof_C 	C 	0.22082	0.98785	0.2807	0.013
Mof_H 	H 	0.2328	0.9777	0.3284	0.05
Mof_C 	C 	0.23915	0.9576	0.25	-0.178
Mof_C 	C 	0.22056	0.97346	0.1769	0.238
Mof_C 	C 	0.28013	0.91062	0.29424	0.344
Mof_C 	C 	0.4346	0.23053	0.8593	0.316
Mof_C 	C 	0.47612	0.25876	0.8577	-0.179
Mof_C 	C 	0.5228	0.28405	0.9231	0.025
Mof_H 	H 	0.5284	0.2827	0.9681	0.031
Mof_C 	C 	0.563	0.3125	0.9238	-0.033
Mof_C 	C 	0.6111	0.3403	0.9905	-0.019
Mof_H 	H 	0.6178	0.3393	0.0363	0.039
Mof_C 	C 	0.6476	0.3687	0.9876	-0.074
Mof_H 	H 	0.6797	0.3862	0.032	0.077
Mof_C 	C 	0.6373	0.372	0.9177	0.018
Mof_H 	H 	0.6615	0.3926	0.9156	0.027
Mof_C 	C 	0.5932	0.3457	0.8562	-0.1
Mof_H 	H 	0.5878	0.3469	0.8114	0.075
Mof_C 	C 	0.5531	0.3155	0.8544	0.066
Mof_C 	C 	0.5053	0.28811	0.7871	-0.06
Mof_C 	C 	0.4678	0.26048	0.789	0.219
Mof_C 	C 	0.3822	0.21509	0.02935	0.343
Mof_C 	C 	0.42606	0.25863	0.08233	-0.16
Mof_C 	C 	0.44828	0.2917	0.05903	0.009
Mof_H 	H 	0.435	0.2873	0.0093	0.048
Mof_C 	C 	0.49036	0.33188	0.1081	-0.01
Mof_C 	C 	0.51417	0.36581	0.0854	-0.051
Mof_H 	H 	0.501	0.3623	0.0357	0.048
Mof_C 	C 	0.556	0.40358	0.1351	-0.043
Mof_H 	H 	0.5714	0.4254	0.1193	0.044
Mof_C 	C 	0.576	0.40958	0.2103	-0.016
Mof_H 	H 	0.604	0.4359	0.2437	0.043
Mof_C 	C 	0.55478	0.37736	0.235	-0.079
Mof_H 	H 	0.5692	0.3814	0.2853	0.07
Mof_C 	C 	0.51127	0.33787	0.18543	0.047
Mof_C 	C 	0.48832	0.30346	0.20943	-0.048
Mof_C 	C 	0.44665	0.26506	0.15893	0.22
Mof_C 	C 	0.4054	0.0667	0.1492	-0.333
Mof_H 	H 	0.4293	0.099	0.1745	0.137
Mof_H 	H 	0.3663	0.0766	0.1227	0.099
Mof_H 	H 	0.4178	0.0386	0.1871	0.103
Mof_C 	C 	0.3769	0.028	0.117	-0.351
Mof_H 	H 	0.3541	0.9955	0.0889	0.133
Mof_H 	H 	0.4038	0.0199	0.1716	0.1
Mof_H 	H 	0.3524	0.058	0.1069	0.116
Mof_C 	C 	0.4094	0.0446	0.0911	0.464
Mof_C 	C 	0.438	0.0882	0.827	-1.292
Mof_H 	H 	0.4587	0.0624	0.8216	0.429
Mof_H 	H 	0.3982	0.0875	0.7811	0.429
Mof_H 	H 	0.453	0.125	0.8345	0.427
Mof_C 	C 	0.4447	0.07236	0.8953	0.687
Mof_C 	C 	0.3896	0.9227	0.9776	0.095
Mof_H 	H 	0.4118	0.9219	0.0311	0.004
Mof_C 	C 	0.3552	0.8772	0.9349	-0.147
Mof_H 	H 	0.3555	0.8466	0.9598	0.082
Mof_C 	C 	0.3205	0.87714	0.8553	0.073
Mof_C 	C 	0.32342	0.92391	0.8236	-0.153
Mof_H 	H 	0.3011	0.9264	0.7702	0.1
Mof_C 	C 	0.35941	0.96704	0.8708	0.106
Mof_H 	H 	0.3603	0.9981	0.8475	0.007
Mof_C 	C 	0.28233	0.83025	0.8066	0.061
Mof_C 	C 	0.2764	0.7842	0.8367	-0.135
Mof_H 	H 	0.2971	0.7818	0.8897	0.078
Mof_C 	C 	0.2399	0.74201	0.7883	0.085
Mof_H 	H 	0.2367	0.7114	0.8099	0.018
Mof_C 	C 	0.2501	0.83059	0.7274	-0.142
Mof_H 	H 	0.2527	0.8605	0.7042	0.098
Mof_C 	C 	0.21409	0.78676	0.6827	0.093
Mof_H 	H 	0.1925	0.7883	0.6295	0.014
Mof_C 	C 	0.5646	0.09511	0.1788	0.1
Mof_H 	H 	0.5671	0.0591	0.1956	-0
Mof_C 	C 	0.6044	0.13348	0.2332	-0.149
Mof_H 	H 	0.6316	0.1231	0.285	0.084
Mof_C 	C 	0.60427	0.18656	0.21211	0.081
Mof_C 	C 	0.5628	0.19722	0.1348	-0.138
Mof_H 	H 	0.5606	0.2323	0.1161	0.085
Mof_C 	C 	0.52391	0.15672	0.0839	0.09
Mof_H 	H 	0.4964	0.1659	0.0316	0.028
Mof_C 	C 	0.64766	0.2286	0.26879	0.062
Mof_C 	C 	0.64845	0.28136	0.2451	-0.123
Mof_H 	H 	0.6211	0.2913	0.1931	0.078
Mof_C 	C 	0.6898	0.31905	0.2987	0.083
Mof_H 	H 	0.6892	0.3543	0.2814	0.016
Mof_C 	C 	0.6893	0.21744	0.348	-0.128
Mof_H 	H 	0.69	0.1831	0.3673	0.089
Mof_C 	C 	0.72911	0.25712	0.39722	0.086
Mof_H 	H 	0.7566	0.2485	0.4497	0.02
Mof_Cd	Cd	0.04419	0.53886	0.47872	0.477
Mof_Cd	Cd	0.19899	0.62501	0.54125	0.483
Mof_Cd	Cd	0.13906	0.67582	0.6354	0.493
Mof_O 	O 	0.27703	0.56888	0.58539	-0.287
Mof_O 	O 	0.23007	0.60757	0.47115	-0.313
Mof_O 	O 	0.24888	0.57409	0.384	-0.396
Mof_H 	H 	0.2341	0.5908	0.3997	0.247
Mof_O 	O 	0.26072	0.44579	0.35414	-0.431
Mof_H 	H 	0.2387	0.421	0.3245	0.28
Mof_O 	O 	0.20275	0.3855	0.23584	-0.315
Mof_O 	O 	0.20151	0.39634	0.14036	-0.297
Mof_O 	O 	0.05767	0.72945	0.57987	-0.284
Mof_O 	O 	0.10957	0.70823	0.70325	-0.31
Mof_O 	O 	0.07737	0.73351	0.77599	-0.397
Mof_H 	H 	0.0974	0.7184	0.7673	0.252
Mof_O 	O 	0.13068	0.70394	0.53344	-0.295
Mof_O 	O 	0.1421	0.69059	0.44985	-0.308
Mof_O 	O 	0.07332	0.73321	0.31498	-0.385
Mof_H 	H 	0.0976	0.7123	0.3535	0.254
Mof_O 	O 	0.04549	0.51832	0.38099	-0.34
Mof_O 	O 	0.11779	0.57044	0.47279	-0.332
Mof_O 	O 	0.07848	0.59972	0.58472	-0.404
Mof_O 	O 	0.02562	0.53061	0.56598	-0.404
Mof_N 	N 	0.29138	0.24269	0.7884	-0.15
Mof_N 	N 	0.1074	0.46703	0.55314	-0.153
Mof_N 	N 	0.97653	0.60613	0.39519	-0.153
Mof_N 	N 	0.76902	0.80771	0.12547	-0.145
Mof_C 	C 	0.27124	0.57825	0.5268	0.328
Mof_C 	C 	0.31279	0.55433	0.52129	-0.163
Mof_C 	C 	0.36296	0.53179	0.5853	0.017
Mof_H 	H 	0.371	0.5315	0.632	0.034
Mof_C 	C 	0.40299	0.5089	0.5816	-0.016
Mof_C 	C 	0.455	0.4855	0.6477	-0.04
Mof_H 	H 	0.4637	0.4859	0.6949	0.042
Mof_C 	C 	0.4925	0.4622	0.643	-0.049
Mof_H 	H 	0.5265	0.4465	0.6868	0.047
Mof_C 	C 	0.4804	0.4619	0.5733	-0.01
Mof_H 	H 	0.5067	0.4467	0.5711	0.034
Mof_C 	C 	0.43005	0.48371	0.5074	-0.086
Mof_H 	H 	0.4225	0.4828	0.461	0.064
Mof_C 	C 	0.3899	0.50738	0.5098	0.048
Mof_C 	C 	0.33609	0.52822	0.4423	-0.05
Mof_C 	C 	0.29959	0.55291	0.44901	0.22
Mof_C 	C 	0.31639	0.5171	0.3645	-0.064
Mof_C 	C 	0.3355	0.54821	0.3331	0.044
Mof_C 	C 	0.37222	0.59491	0.3724	-0.086
Mof_H 	H 	0.3863	0.6041	0.4216	0.067
Mof_C 	C 	0.387	0.62628	0.3388	-0.013
Mof_H 	H 	0.411	0.6568	0.3653	0.042
Mof_C 	C 	0.3667	0.6136	0.2655	-0.046
Mof_H 	H 	0.3765	0.6361	0.2429	0.048
Mof_C 	C 	0.3321	0.56783	0.2259	-0.048
Mof_H 	H 	0.3194	0.5591	0.1773	0.052
Mof_C 	C 	0.31594	0.53418	0.2589	-0.013
Mof_C 	C 	0.27918	0.48785	0.2193	0.014
Mof_H 	H 	0.2672	0.4777	0.1716	0.05
Mof_C 	C 	0.26085	0.4576	0.25	-0.179
Mof_C 	C 	0.27944	0.47346	0.3231	0.238
Mof_C 	C 	0.21987	0.41062	0.20576	0.344
Mof_C 	C 	0.0654	0.73053	0.6407	0.316
Mof_C 	C 	0.02388	0.75876	0.6423	-0.179
Mof_C 	C 	0.9772	0.78405	0.5769	0.025
Mof_H 	H 	0.9716	0.7827	0.5319	0.031
Mof_C 	C 	0.937	0.8125	0.5762	-0.033
Mof_C 	C 	0.8889	0.8403	0.5095	-0.019
Mof_H 	H 	0.8822	0.8393	0.4637	0.039
Mof_C 	C 	0.8524	0.8687	0.5124	-0.074
Mof_H 	H 	0.8203	0.8862	0.468	0.077
Mof_C 	C 	0.8627	0.872	0.5823	0.019
Mof_H 	H 	0.8385	0.8926	0.5844	0.027
Mof_C 	C 	0.9068	0.8457	0.6438	-0.1
Mof_H 	H 	0.9122	0.8469	0.6886	0.075
Mof_C 	C 	0.9469	0.8155	0.6456	0.066
Mof_C 	C 	0.9947	0.78811	0.7129	-0.06
Mof_C 	C 	0.0322	0.76048	0.711	0.218
Mof_C 	C 	0.1178	0.71509	0.47065	0.342
Mof_C 	C 	0.07394	0.75863	0.41767	-0.16
Mof_C 	C 	0.05172	0.7917	0.44097	0.008
Mof_H 	H 	0.065	0.7873	0.4907	0.048
Mof_C 	C 	0.00964	0.83188	0.3919	-0.009
Mof_C 	C 	0.98583	0.86581	0.4146	-0.053
Mof_H 	H 	0.999	0.8623	0.4643	0.048
Mof_C 	C 	0.944	0.90358	0.3649	-0.042
Mof_H 	H 	0.9286	0.9254	0.3807	0.044
Mof_C 	C 	0.924	0.90958	0.2897	-0.018
Mof_H 	H 	0.896	0.9359	0.2563	0.043
Mof_C 	C 	0.94522	0.87736	0.265	-0.077
Mof_H 	H 	0.9308	0.8814	0.2147	0.069
Mof_C 	C 	0.98873	0.83787	0.31457	0.045
Mof_C 	C 	0.01168	0.80346	0.29057	-0.046
Mof_C 	C 	0.05335	0.76506	0.34107	0.219
Mof_C 	C 	0.0946	0.5667	0.3508	-0.334
Mof_H 	H 	0.0707	0.599	0.3255	0.137
Mof_H 	H 	0.1337	0.5766	0.3773	0.1
Mof_H 	H 	0.0822	0.5386	0.3129	0.103
Mof_C 	C 	0.1231	0.528	0.383	-0.351
Mof_H 	H 	0.1459	0.4955	0.4111	0.133
Mof_H 	H 	0.0962	0.5199	0.3284	0.1
Mof_H 	H 	0.1476	0.558	0.3931	0.115
Mof_C 	C 	0.0906	0.5446	0.4089	0.464
Mof_C 	C 	0.062	0.5882	0.673	-1.292
Mof_H 	H 	0.0413	0.5624	0.6784	0.429
Mof_H 	H 	0.1018	0.5875	0.7189	0.429
Mof_H 	H 	0.047	0.625	0.6655	0.427
Mof_C 	C 	0.0553	0.57236	0.6047	0.687
Mof_C 	C 	0.1104	0.4227	0.5224	0.094
Mof_H 	H 	0.0882	0.4219	0.4689	0.005
Mof_C 	C 	0.1448	0.3772	0.5651	-0.147
Mof_H 	H 	0.1445	0.3466	0.5402	0.082
Mof_C 	C 	0.1795	0.37714	0.6447	0.072
Mof_C 	C 	0.17658	0.42391	0.6764	-0.153
Mof_H 	H 	0.1989	0.4264	0.7298	0.1
Mof_C 	C 	0.14059	0.46704	0.6292	0.106
Mof_H 	H 	0.1397	0.4981	0.6525	0.007
Mof_C 	C 	0.21767	0.33025	0.6934	0.061
Mof_C 	C 	0.2236	0.2842	0.6633	-0.136
Mof_H 	H 	0.2029	0.2818	0.6103	0.078
Mof_C 	C 	0.2601	0.24201	0.7117	0.085
Mof_H 	H 	0.2633	0.2114	0.6901	0.018
Mof_C 	C 	0.2499	0.33059	0.7726	-0.142
Mof_H 	H 	0.2473	0.3605	0.7958	0.098
Mof_C 	C 	0.28591	0.28676	0.8173	0.094
Mof_H 	H 	0.3075	0.2883	0.8705	0.014
Mof_C 	C 	0.9354	0.59511	0.3212	0.1
Mof_H 	H 	0.9329	0.5591	0.3044	-0
Mof_C 	C 	0.8956	0.63348	0.2668	-0.149
Mof_H 	H 	0.8684	0.6231	0.215	0.084
Mof_C 	C 	0.89573	0.68656	0.28789	0.081
Mof_C 	C 	0.9372	0.69722	0.3652	-0.138
Mof_H 	H 	0.9394	0.7323	0.3839	0.085
Mof_C 	C 	0.97609	0.65672	0.4161	0.089
Mof_H 	H 	0.0036	0.6659	0.4684	0.028
Mof_C 	C 	0.85234	0.7286	0.23121	0.062
Mof_C 	C 	0.85155	0.78136	0.2549	-0.123
Mof_H 	H 	0.8789	0.7913	0.3069	0.078
Mof_C 	C 	0.8102	0.81905	0.2013	0.083
Mof_H 	H 	0.8108	0.8543	0.2186	0.016
Mof_C 	C 	0.8107	0.71744	0.152	-0.128
Mof_H 	H 	0.81	0.6831	0.1327	0.089
Mof_C 	C 	0.77089	0.75712	0.10278	0.087
Mof_H 	H 	0.7434	0.7485	0.0503	0.019
Mof_Cd	Cd	0.54419	0.03886	0.47872	0.477
Mof_Cd	Cd	0.69899	0.12501	0.54125	0.483
Mof_Cd	Cd	0.63906	0.17582	0.6354	0.493
Mof_O 	O 	0.77703	0.06888	0.58539	-0.287
Mof_O 	O 	0.73007	0.10757	0.47115	-0.313
Mof_O 	O 	0.74888	0.07409	0.384	-0.396
Mof_H 	H 	0.7341	0.0908	0.3997	0.247
Mof_O 	O 	0.76072	0.94579	0.35414	-0.431
Mof_H 	H 	0.7387	0.921	0.3245	0.28
Mof_O 	O 	0.70275	0.8855	0.23584	-0.315
Mof_O 	O 	0.70151	0.89634	0.14036	-0.297
Mof_O 	O 	0.55767	0.22945	0.57987	-0.284
Mof_O 	O 	0.60957	0.20823	0.70325	-0.31
Mof_O 	O 	0.57737	0.23351	0.77599	-0.397
Mof_H 	H 	0.5974	0.2184	0.7673	0.252
Mof_O 	O 	0.63068	0.20394	0.53344	-0.295
Mof_O 	O 	0.6421	0.19059	0.44985	-0.309
Mof_O 	O 	0.57332	0.23321	0.31498	-0.385
Mof_H 	H 	0.5976	0.2123	0.3535	0.254
Mof_O 	O 	0.54549	0.01832	0.38099	-0.34
Mof_O 	O 	0.61779	0.07044	0.47279	-0.332
Mof_O 	O 	0.57848	0.09972	0.58472	-0.404
Mof_O 	O 	0.52562	0.03061	0.56598	-0.404
Mof_N 	N 	0.79138	0.74269	0.7884	-0.15
Mof_N 	N 	0.6074	0.96703	0.55314	-0.153
Mof_N 	N 	0.47653	0.10613	0.39519	-0.153
Mof_N 	N 	0.26902	0.30771	0.12547	-0.145
Mof_C 	C 	0.77124	0.07825	0.5268	0.328
Mof_C 	C 	0.81279	0.05433	0.52129	-0.163
Mof_C 	C 	0.86296	0.03179	0.5853	0.017
Mof_H 	H 	0.871	0.0315	0.632	0.034
Mof_C 	C 	0.90299	0.0089	0.5816	-0.016
Mof_C 	C 	0.955	0.9855	0.6477	-0.04
Mof_H 	H 	0.9637	0.9859	0.6949	0.042
Mof_C 	C 	0.9925	0.9622	0.643	-0.048
Mof_H 	H 	0.0265	0.9465	0.6868	0.047
Mof_C 	C 	0.9804	0.9619	0.5733	-0.01
Mof_H 	H 	0.0067	0.9467	0.5711	0.034
Mof_C 	C 	0.93005	0.98371	0.5074	-0.086
Mof_H 	H 	0.9225	0.9828	0.461	0.064
Mof_C 	C 	0.8899	0.00738	0.5098	0.048
Mof_C 	C 	0.83609	0.02822	0.4423	-0.05
Mof_C 	C 	0.79959	0.05291	0.44901	0.22
Mof_C 	C 	0.81639	0.0171	0.3645	-0.063
Mof_C 	C 	0.8355	0.04821	0.3331	0.043
Mof_C 	C 	0.87222	0.09491	0.3724	-0.085
Mof_H 	H 	0.8863	0.1041	0.4216	0.067
Mof_C 	C 	0.887	0.12628	0.3388	-0.014
Mof_H 	H 	0.911	0.1568	0.3653	0.043
Mof_C 	C 	0.8667	0.1136	0.2655	-0.045
Mof_H 	H 	0.8765	0.1361	0.2429	0.048
Mof_C 	C 	0.8321	0.06783	0.2259	-0.048
Mof_H 	H 	0.8194	0.0591	0.1773	0.052
Mof_C 	C 	0.81594	0.03418	0.2589	-0.012
Mof_C 	C 	0.77918	0.98785	0.2193	0.013
Mof_H 	H 	0.7672	0.9777	0.1716	0.05
Mof_C 	C 	0.76085	0.9576	0.25	-0.178
Mof_C 	C 	0.77944	0.97346	0.3231	0.238
Mof_C 	C 	0.71987	0.91062	0.20576	0.344
Mof_C 	C 	0.5654	0.23053	0.6407	0.316
Mof_C 	C 	0.52388	0.25876	0.6423	-0.179
Mof_C 	C 	0.4772	0.28405	0.5769	0.025
Mof_H 	H 	0.4716	0.2827	0.5319	0.031
Mof_C 	C 	0.437	0.3125	0.5762	-0.033
Mof_C 	C 	0.3889	0.3403	0.5095	-0.018
Mof_H 	H 	0.3822	0.3393	0.4637	0.039
Mof_C 	C 	0.3524	0.3687	0.5124	-0.075
Mof_H 	H 	0.3203	0.3862	0.468	0.078
Mof_C 	C 	0.3627	0.372	0.5823	0.019
Mof_H 	H 	0.3385	0.3926	0.5844	0.027
Mof_C 	C 	0.4068	0.3457	0.6438	-0.1
Mof_H 	H 	0.4122	0.3469	0.6886	0.075
Mof_C 	C 	0.4469	0.3155	0.6456	0.066
Mof_C 	C 	0.4947	0.28811	0.7129	-0.06
Mof_C 	C 	0.5322	0.26048	0.711	0.219
Mof_C 	C 	0.6178	0.21509	0.47065	0.343
Mof_C 	C 	0.57394	0.25863	0.41767	-0.16
Mof_C 	C 	0.55172	0.2917	0.44097	0.009
Mof_H 	H 	0.565	0.2873	0.4907	0.048
Mof_C 	C 	0.50964	0.33188	0.3919	-0.01
Mof_C 	C 	0.48583	0.36581	0.4146	-0.051
Mof_H 	H 	0.499	0.3623	0.4643	0.048
Mof_C 	C 	0.444	0.40358	0.3649	-0.043
Mof_H 	H 	0.4286	0.4254	0.3807	0.044
Mof_C 	C 	0.424	0.40958	0.2897	-0.016
Mof_H 	H 	0.396	0.4359	0.2563	0.043
Mof_C 	C 	0.44522	0.37736	0.265	-0.079
Mof_H 	H 	0.4308	0.3814	0.2147	0.07
Mof_C 	C 	0.48873	0.33787	0.31457	0.047
Mof_C 	C 	0.51168	0.30346	0.29057	-0.048
Mof_C 	C 	0.55335	0.26506	0.34107	0.22
Mof_C 	C 	0.5946	0.0667	0.3508	-0.334
Mof_H 	H 	0.5707	0.099	0.3255	0.137
Mof_H 	H 	0.6337	0.0766	0.3773	0.1
Mof_H 	H 	0.5822	0.0386	0.3129	0.103
Mof_C 	C 	0.6231	0.028	0.383	-0.351
Mof_H 	H 	0.6459	0.9955	0.4111	0.133
Mof_H 	H 	0.5962	0.0199	0.3284	0.1
Mof_H 	H 	0.6476	0.058	0.3931	0.115
Mof_C 	C 	0.5906	0.0446	0.4089	0.464
Mof_C 	C 	0.562	0.0882	0.673	-1.292
Mof_H 	H 	0.5413	0.0624	0.6784	0.429
Mof_H 	H 	0.6018	0.0875	0.7189	0.429
Mof_H 	H 	0.547	0.125	0.6655	0.427
Mof_C 	C 	0.5553	0.07236	0.6047	0.687
Mof_C 	C 	0.6104	0.9227	0.5224	0.094
Mof_H 	H 	0.5882	0.9219	0.4689	0.005
Mof_C 	C 	0.6448	0.8772	0.5651	-0.147
Mof_H 	H 	0.6445	0.8466	0.5402	0.082
Mof_C 	C 	0.6795	0.87714	0.6447	0.072
Mof_C 	C 	0.67658	0.92391	0.6764	-0.153
Mof_H 	H 	0.6989	0.9264	0.7298	0.1
Mof_C 	C 	0.64059	0.96704	0.6292	0.106
Mof_H 	H 	0.6397	0.9981	0.6525	0.007
Mof_C 	C 	0.71767	0.83025	0.6934	0.061
Mof_C 	C 	0.7236	0.7842	0.6633	-0.136
Mof_H 	H 	0.7029	0.7818	0.6103	0.078
Mof_C 	C 	0.7601	0.74201	0.7117	0.085
Mof_H 	H 	0.7633	0.7114	0.6901	0.018
Mof_C 	C 	0.7499	0.83059	0.7726	-0.142
Mof_H 	H 	0.7473	0.8605	0.7958	0.098
Mof_C 	C 	0.78591	0.78676	0.8173	0.093
Mof_H 	H 	0.8075	0.7883	0.8705	0.014
Mof_C 	C 	0.4354	0.09511	0.3212	0.1
Mof_H 	H 	0.4329	0.0591	0.3044	-0
Mof_C 	C 	0.3956	0.13348	0.2668	-0.149
Mof_H 	H 	0.3684	0.1231	0.215	0.084
Mof_C 	C 	0.39573	0.18656	0.28789	0.081
Mof_C 	C 	0.4372	0.19722	0.3652	-0.138
Mof_H 	H 	0.4394	0.2323	0.3839	0.085
Mof_C 	C 	0.47609	0.15672	0.4161	0.09
Mof_H 	H 	0.5036	0.1659	0.4684	0.028
Mof_C 	C 	0.35234	0.2286	0.23121	0.062
Mof_C 	C 	0.35155	0.28136	0.2549	-0.123
Mof_H 	H 	0.3789	0.2913	0.3069	0.078
Mof_C 	C 	0.3102	0.31905	0.2013	0.083
Mof_H 	H 	0.3108	0.3543	0.2186	0.016
Mof_C 	C 	0.3107	0.21744	0.152	-0.128
Mof_H 	H 	0.31	0.1831	0.1327	0.089
Mof_C 	C 	0.27089	0.25712	0.10278	0.086
Mof_H 	H 	0.2434	0.2485	0.0503	0.02
_end
