# CIF file generated by openbabel 3.1.0, see https://openbabel.org
data_I
_chemical_name_common 'image0'
_cell_length_a 11.6054
_cell_length_b 16.2662
_cell_length_c 12.0479
_cell_angle_alpha 90
_cell_angle_beta 112.497
_cell_angle_gamma 90
_space_group_name_H-M_alt 'P 1'
_space_group_name_Hall 'P 1'
loop_
    _symmetry_equiv_pos_as_xyz
    x,y,z
loop_
    _atom_site_label
    _atom_site_type_symbol
    _atom_site_fract_x
    _atom_site_fract_y
    _atom_site_fract_z
    _atom_site_occupancy
    Gd1      Gd       0.19417    0.02735    0.07825    1.000
    S1       S        0.05329    0.21858    0.71196    1.000
    S2       S        0.48992    0.28305    0.25164    1.000
    O1       O        0.13170    0.07790    0.87880    1.000
    O2       O        0.94110    0.03046    0.84600    1.000
    O3       O        0.05620    0.36320    0.56840    1.000
    O4       O        0.85760    0.40046    0.52420    1.000
    O5       O        0.27500    0.10440    0.27930    1.000
    O6       O        0.33930    0.14000    0.13650    1.000
    O7       O        0.64730    0.43350    0.29230    1.000
    O8       O        0.62310    0.47571    0.45750    1.000
    C1       C        0.95880    0.15260    0.74920    1.000
    C2       C        0.83720    0.17660    0.70200    1.000
    H1       H        0.77290    0.14850    0.71370    1.000
    C3       C        0.82030    0.24900    0.63320    1.000
    H2       H        0.74330    0.27400    0.59430    1.000
    C4       C        0.92850    0.27830    0.62970    1.000
    C5       C        0.01480    0.08210    0.82990    1.000
    C6       C        0.94940    0.35330    0.56960    1.000
    C7       C        0.39410    0.22800    0.30310    1.000
    C8       C        0.38390    0.26450    0.40080    1.000
    H3       H        0.33640    0.24320    0.44120    1.000
    C9       C        0.45270    0.33740    0.43390    1.000
    H4       H        0.45450    0.37030    0.49760    1.000
    C10      C        0.51680    0.35490    0.36240    1.000
    C11      C        0.33320    0.15250    0.23730    1.000
    C12      C        0.60010    0.42570    0.37090    1.000
    Gd2      Gd       0.80583    0.52735    0.42175    1.000
    S3       S        0.94671    0.71858    0.78804    1.000
    S4       S        0.51008    0.78305    0.24836    1.000
    O9       O        0.86830    0.57790    0.62120    1.000
    O10      O        0.05890    0.53046    0.65400    1.000
    O11      O        0.94380    0.86320    0.93160    1.000
    O12      O        0.14240    0.90046    0.97580    1.000
    O13      O        0.72500    0.60440    0.22070    1.000
    O14      O        0.66070    0.64000    0.36350    1.000
    O15      O        0.35270    0.93350    0.20770    1.000
    O16      O        0.37690    0.97571    0.04250    1.000
    C13      C        0.04120    0.65260    0.75080    1.000
    C14      C        0.16280    0.67660    0.79800    1.000
    H5       H        0.22710    0.64850    0.78630    1.000
    C15      C        0.17970    0.74900    0.86680    1.000
    H6       H        0.25670    0.77400    0.90570    1.000
    C16      C        0.07150    0.77830    0.87030    1.000
    C17      C        0.98520    0.58210    0.67010    1.000
    C18      C        0.05060    0.85330    0.93040    1.000
    C19      C        0.60590    0.72800    0.19690    1.000
    C20      C        0.61610    0.76450    0.09920    1.000
    H7       H        0.66360    0.74320    0.05880    1.000
    C21      C        0.54730    0.83740    0.06610    1.000
    H8       H        0.54550    0.87030    0.00240    1.000
    C22      C        0.48320    0.85490    0.13760    1.000
    C23      C        0.66680    0.65250    0.26270    1.000
    C24      C        0.39990    0.92570    0.12910    1.000
    Gd3      Gd       0.80583    0.97265    0.92175    1.000
    S5       S        0.94671    0.78142    0.28804    1.000
    S6       S        0.51008    0.71695    0.74836    1.000
    O17      O        0.86830    0.92210    0.12120    1.000
    O18      O        0.05890    0.96954    0.15400    1.000
    O19      O        0.94380    0.63680    0.43160    1.000
    O20      O        0.14240    0.59954    0.47580    1.000
    O21      O        0.72500    0.89560    0.72070    1.000
    O22      O        0.66070    0.86000    0.86350    1.000
    O23      O        0.35270    0.56650    0.70770    1.000
    O24      O        0.37690    0.52429    0.54250    1.000
    C25      C        0.04120    0.84740    0.25080    1.000
    C26      C        0.16280    0.82340    0.29800    1.000
    H9       H        0.22710    0.85150    0.28630    1.000
    C27      C        0.17970    0.75100    0.36680    1.000
    H10      H        0.25670    0.72600    0.40570    1.000
    C28      C        0.07150    0.72170    0.37030    1.000
    C29      C        0.98520    0.91790    0.17010    1.000
    C30      C        0.05060    0.64670    0.43040    1.000
    C31      C        0.60590    0.77200    0.69690    1.000
    C32      C        0.61610    0.73550    0.59920    1.000
    H11      H        0.66360    0.75680    0.55880    1.000
    C33      C        0.54730    0.66260    0.56610    1.000
    H12      H        0.54550    0.62970    0.50240    1.000
    C34      C        0.48320    0.64510    0.63760    1.000
    C35      C        0.66680    0.84750    0.76270    1.000
    C36      C        0.39990    0.57430    0.62910    1.000
    Gd4      Gd       0.19417    0.47265    0.57825    1.000
    S7       S        0.05329    0.28142    0.21196    1.000
    S8       S        0.48992    0.21695    0.75164    1.000
    O25      O        0.13170    0.42210    0.37880    1.000
    O26      O        0.94110    0.46954    0.34600    1.000
    O27      O        0.05620    0.13680    0.06840    1.000
    O28      O        0.85760    0.09954    0.02420    1.000
    O29      O        0.27500    0.39560    0.77930    1.000
    O30      O        0.33930    0.36000    0.63650    1.000
    O31      O        0.64730    0.06650    0.79230    1.000
    O32      O        0.62310    0.02429    0.95750    1.000
    C37      C        0.95880    0.34740    0.24920    1.000
    C38      C        0.83720    0.32340    0.20200    1.000
    H13      H        0.77290    0.35150    0.21370    1.000
    C39      C        0.82030    0.25100    0.13320    1.000
    H14      H        0.74330    0.22600    0.09430    1.000
    C40      C        0.92850    0.22170    0.12970    1.000
    C41      C        0.01480    0.41790    0.32990    1.000
    C42      C        0.94940    0.14670    0.06960    1.000
    C43      C        0.39410    0.27200    0.80310    1.000
    C44      C        0.38390    0.23550    0.90080    1.000
    H15      H        0.33640    0.25680    0.94120    1.000
    C45      C        0.45270    0.16260    0.93390    1.000
    H16      H        0.45450    0.12970    0.99760    1.000
    C46      C        0.51680    0.14510    0.86240    1.000
    C47      C        0.33320    0.34750    0.73730    1.000
    C48      C        0.60010    0.07430    0.87090    1.000
