# CIF file generated by openbabel 3.1.0, see https://openbabel.org
data_I
_chemical_name_common 'image0'
_cell_length_a 13.075
_cell_length_b 13.86
_cell_length_c 14.256
_cell_angle_alpha 90
_cell_angle_beta 108.001
_cell_angle_gamma 90
_space_group_name_H-M_alt 'P 1'
_space_group_name_Hall 'P 1'
loop_
    _symmetry_equiv_pos_as_xyz
    x,y,z
loop_
    _atom_site_label
    _atom_site_type_symbol
    _atom_site_fract_x
    _atom_site_fract_y
    _atom_site_fract_z
    _atom_site_occupancy
    Cs1      Cs       0.24495    0.86458    0.23917    1.000
    Cd1      Cd       0.00238    0.69142    0.25687    1.000
    Cd2      Cd       0.51167    0.03390    0.23727    1.000
    C1       C        0.89880    0.40240    0.42760    1.000
    H1       H        0.97350    0.40430    0.45070    1.000
    C2       C        0.84340    0.34000    0.47150    1.000
    C3       C        0.73200    0.33390    0.43240    1.000
    H2       H        0.69400    0.29170    0.46000    1.000
    C4       C        0.67810    0.39010    0.35330    1.000
    H3       H        0.60380    0.38450    0.32650    1.000
    C5       C        0.73360    0.45500    0.31300    1.000
    H4       H        0.69580    0.49410    0.26080    1.000
    C6       C        0.84370    0.46220    0.34940    1.000
    C7       C        0.90390    0.28580    0.56260    1.000
    C8       C        0.90380    0.53750    0.31240    1.000
    C9       C        0.90670    0.98090    0.99940    1.000
    H5       H        0.97640    0.96680    0.99980    1.000
    C10      C        0.86230    0.93130    0.06170    1.000
    C11      C        0.75890    0.95330    0.06290    1.000
    H6       H        0.72870    0.91990    0.10440    1.000
    C12      C        0.70140    0.02540    0.00190    1.000
    H7       H        0.63340    0.04240    0.00420    1.000
    C13      C        0.74500    0.07210    0.93750    1.000
    H8       H        0.70440    0.11800    0.89430    1.000
    C14      C        0.84810    0.05160    0.93640    1.000
    C15      C        0.92600    0.85310    0.12730    1.000
    C16      C        0.89470    0.10130    0.86500    1.000
    C17      C        0.61650    0.32210    0.06460    1.000
    H9       H        0.54170    0.32210    0.04440    1.000
    C18      C        0.67090    0.38550    0.02140    1.000
    C19      C        0.77990    0.38770    0.05310    1.000
    H10      H        0.81630    0.43000    0.02400    1.000
    C20      C        0.83840    0.32680    0.12930    1.000
    H11      H        0.91310    0.32990    0.15200    1.000
    C21      C        0.78420    0.26240    0.17040    1.000
    H12      H        0.82270    0.22110    0.22030    1.000
    C22      C        0.67320    0.25860    0.13790    1.000
    C23      C        0.61340    0.18470    0.17670    1.000
    C24      C        0.60660    0.44670    0.93590    1.000
    C25      C        0.56270    0.73820    0.46660    1.000
    H13      H        0.49450    0.76180    0.46130    1.000
    C26      C        0.62030    0.77750    0.40930    1.000
    C27      C        0.71930    0.73800    0.41440    1.000
    H14      H        0.75760    0.76270    0.37460    1.000
    C28      C        0.76200    0.66250    0.47770    1.000
    H15      H        0.82780    0.63570    0.47960    1.000
    C29      C        0.70600    0.62730    0.53810    1.000
    H16      H        0.73610    0.57860    0.58310    1.000
    C30      C        0.60600    0.66350    0.53250    1.000
    C31      C        0.54240    0.62590    0.59960    1.000
    C32      C        0.57510    0.86320    0.34450    1.000
    O1       O        0.00500    0.27710    0.58280    1.000
    O2       O        0.85370    0.25240    0.61730    1.000
    O3       O        0.85100    0.60240    0.25620    1.000
    O4       O        0.00560    0.53790    0.34176    1.000
    O5       O        0.01690    0.83020    0.12330    1.000
    O6       O        0.88430    0.81030    0.18550    1.000
    O7       O        0.83280    0.14460    0.79234    1.000
    O8       O        0.99550    0.09800    0.88150    1.000
    O9       O        0.66540    0.12700    0.24280    1.000
    O10      O        0.51370    0.17870    0.14290    1.000
    O11      O        0.50620    0.44680    0.91040    1.000
    O12      O        0.65840    0.49410    0.88820    1.000
    O13      O        0.59970    0.59210    0.68260    1.000
    O14      O        0.44520    0.62940    0.57160    1.000
    O15      O        0.47820    0.87900    0.32020    1.000
    O16      O        0.63860    0.91670    0.31820    1.000
    Cs2      Cs       0.75505    0.36458    0.76083    1.000
    Cd3      Cd       0.99762    0.19142    0.74313    1.000
    Cd4      Cd       0.48833    0.53390    0.76273    1.000
    C33      C        0.10120    0.90240    0.57240    1.000
    H17      H        0.02650    0.90430    0.54930    1.000
    C34      C        0.15660    0.84000    0.52850    1.000
    C35      C        0.26800    0.83390    0.56760    1.000
    H18      H        0.30600    0.79170    0.54000    1.000
    C36      C        0.32190    0.89010    0.64670    1.000
    H19      H        0.39620    0.88450    0.67350    1.000
    C37      C        0.26640    0.95500    0.68700    1.000
    H20      H        0.30420    0.99410    0.73920    1.000
    C38      C        0.15630    0.96220    0.65060    1.000
    C39      C        0.09610    0.78580    0.43740    1.000
    C40      C        0.09620    0.03750    0.68760    1.000
    C41      C        0.09330    0.48090    0.00060    1.000
    H21      H        0.02360    0.46680    0.00020    1.000
    C42      C        0.13770    0.43130    0.93830    1.000
    C43      C        0.24110    0.45330    0.93710    1.000
    H22      H        0.27130    0.41990    0.89560    1.000
    C44      C        0.29860    0.52540    0.99810    1.000
    H23      H        0.36660    0.54240    0.99580    1.000
    C45      C        0.25500    0.57210    0.06250    1.000
    H24      H        0.29560    0.61800    0.10570    1.000
    C46      C        0.15190    0.55160    0.06360    1.000
    C47      C        0.07400    0.35310    0.87270    1.000
    C48      C        0.10530    0.60130    0.13500    1.000
    C49      C        0.38350    0.82210    0.93540    1.000
    H25      H        0.45830    0.82210    0.95560    1.000
    C50      C        0.32910    0.88550    0.97860    1.000
    C51      C        0.22010    0.88770    0.94690    1.000
    H26      H        0.18370    0.93000    0.97600    1.000
    C52      C        0.16160    0.82680    0.87070    1.000
    H27      H        0.08690    0.82990    0.84800    1.000
    C53      C        0.21580    0.76240    0.82960    1.000
    H28      H        0.17730    0.72110    0.77970    1.000
    C54      C        0.32680    0.75860    0.86210    1.000
    C55      C        0.38660    0.68470    0.82330    1.000
    C56      C        0.39340    0.94670    0.06410    1.000
    C57      C        0.43730    0.23820    0.53340    1.000
    H29      H        0.50550    0.26180    0.53870    1.000
    C58      C        0.37970    0.27750    0.59070    1.000
    C59      C        0.28070    0.23800    0.58560    1.000
    H30      H        0.24240    0.26270    0.62540    1.000
    C60      C        0.23800    0.16250    0.52230    1.000
    H31      H        0.17220    0.13570    0.52040    1.000
    C61      C        0.29400    0.12730    0.46190    1.000
    H32      H        0.26390    0.07860    0.41690    1.000
    C62      C        0.39400    0.16350    0.46750    1.000
    C63      C        0.45760    0.12590    0.40040    1.000
    C64      C        0.42490    0.36320    0.65550    1.000
    O17      O        0.99500    0.77710    0.41720    1.000
    O18      O        0.14630    0.75240    0.38270    1.000
    O19      O        0.14900    0.10240    0.74380    1.000
    O20      O        0.99440    0.03790    0.65824    1.000
    O21      O        0.98310    0.33020    0.87670    1.000
    O22      O        0.11570    0.31030    0.81450    1.000
    O23      O        0.16720    0.64460    0.20766    1.000
    O24      O        0.00450    0.59800    0.11850    1.000
    O25      O        0.33460    0.62700    0.75720    1.000
    O26      O        0.48630    0.67870    0.85710    1.000
    O27      O        0.49380    0.94680    0.08960    1.000
    O28      O        0.34160    0.99410    0.11180    1.000
    O29      O        0.40030    0.09210    0.31740    1.000
    O30      O        0.55480    0.12940    0.42840    1.000
    O31      O        0.52180    0.37900    0.67980    1.000
    O32      O        0.36140    0.41670    0.68180    1.000
