data_functionalizedCrystal
_audit_creation_method	'EQeq! by Chris Wilmer'
_symmetry_space_group_name_H-M	'P1'
_symmetry_Int_Tables_number	1
_symmetry_cell_setting	triclinic
loop_
_symmetry_equiv_pos_as_xyz
  x,y,z
_cell_length_a	27.3934
_cell_length_b	27.3934
_cell_length_c	14.0108
_cell_angle_alpha	90
_cell_angle_beta	90
_cell_angle_gamma	120
loop_
_atom_site_label
_atom_site_type_symbol
_atom_site_fract_x
_atom_site_fract_y
_atom_site_fract_z
_atom_site_charge
Mof_Dy	Dy	0.73911	0.41371	0.02451	2.142
Mof_C 	C 	0.7716	0.5552	0.1352	-0.233
Mof_N 	N 	0.7846	0.6055	0.17175	-0.165
Mof_C 	C 	0.7675	0.6097	0.258	-0.064
Mof_H 	H 	0.7781	0.6449	0.28385	0.044
Mof_C 	C 	0.7946	0.5572	0.03795	0.421
Mof_N 	N 	0.7185	0.5102	0.2757	-0.298
Mof_O 	O 	0.7236	0.4552	0.16295	-0.62
Mof_C 	C 	0.7334	0.5611	0.3085	0.091
Mof_H 	H 	0.7205	0.5642	0.36855	-0.019
Mof_C 	C 	0.7386	0.5059	0.18795	0.299
Mof_O 	O 	0.7825	0.5129	0.49455	-0.52
Mof_O 	O 	0.8238	0.6055	0.001	-0.446
Mof_O 	O 	0.659	0.4174	0.4734	-0.887
Mof_H 	H 	0.53952	0.32289	0.33657	0.22
Mof_Dy	Dy	0.40578	0.74704	0.19118	2.155
Mof_C 	C 	0.43827	0.88853	0.30187	-0.237
Mof_N 	N 	0.45127	0.93883	0.33842	-0.173
Mof_C 	C 	0.43417	0.94303	0.42467	-0.066
Mof_H 	H 	0.44477	0.97823	0.45052	0.031
Mof_C 	C 	0.46127	0.89053	0.20462	0.427
Mof_N 	N 	0.38517	0.84353	0.44237	-0.298
Mof_O 	O 	0.39027	0.78853	0.32962	-0.621
Mof_C 	C 	0.40007	0.89443	0.47517	0.088
Mof_H 	H 	0.38717	0.89753	0.03522	-0.014
Mof_C 	C 	0.40527	0.83923	0.35462	0.3
Mof_O 	O 	0.44917	0.84623	0.16122	-0.521
Mof_O 	O 	0.49047	0.93883	0.16767	-0.46
Mof_O 	O 	0.32567	0.75073	0.14007	-0.885
Mof_H 	H 	0.20619	0.65623	0.00324	0.222
Mof_Dy	Dy	0.07244	0.08038	0.35784	2.183
Mof_C 	C 	0.10493	0.22187	0.46853	-0.229
Mof_N 	N 	0.11793	0.27217	0.00508	-0.162
Mof_C 	C 	0.10083	0.27637	0.09133	-0.059
Mof_H 	H 	0.11143	0.31157	0.11718	0.046
Mof_C 	C 	0.12793	0.22387	0.37128	0.428
Mof_N 	N 	0.05183	0.17687	0.10903	-0.282
Mof_O 	O 	0.05693	0.12187	0.49628	-0.606
Mof_C 	C 	0.06673	0.22777	0.14183	0.092
Mof_H 	H 	0.05383	0.23087	0.20188	-0.008
Mof_C 	C 	0.07193	0.17257	0.02128	0.307
Mof_O 	O 	0.11583	0.17957	0.32788	-0.517
Mof_O 	O 	0.15713	0.27217	0.33433	-0.443
Mof_O 	O 	0.99233	0.08407	0.30673	-0.882
Mof_H 	H 	0.87286	0.98956	0.1699	0.213
Mof_Dy	Dy	0.58629	0.3254	0.02451	2.145
Mof_C 	C 	0.4448	0.2164	0.1352	-0.231
Mof_N 	N 	0.3945	0.1791	0.17175	-0.163
Mof_C 	C 	0.3903	0.1578	0.258	-0.062
Mof_H 	H 	0.3551	0.1332	0.28385	0.047
Mof_C 	C 	0.4428	0.2374	0.03795	0.422
Mof_N 	N 	0.4898	0.2083	0.2757	-0.297
Mof_O 	O 	0.5448	0.2684	0.16295	-0.62
Mof_C 	C 	0.4389	0.1723	0.3085	0.092
Mof_H 	H 	0.4358	0.1563	0.36855	-0.017
Mof_C 	C 	0.4941	0.2327	0.18795	0.3
Mof_O 	O 	0.4871	0.2696	0.49455	-0.519
Mof_O 	O 	0.3945	0.2183	0.001	-0.443
Mof_O 	O 	0.5826	0.2416	0.4734	-0.887
Mof_H 	H 	0.67711	0.21663	0.33657	0.221
Mof_Dy	Dy	0.25296	0.65873	0.19118	2.157
Mof_C 	C 	0.11147	0.54973	0.30187	-0.229
Mof_N 	N 	0.06117	0.51243	0.33842	-0.159
Mof_C 	C 	0.05697	0.49113	0.42467	-0.062
Mof_H 	H 	0.02177	0.46653	0.45052	0.057
Mof_C 	C 	0.10947	0.57073	0.20462	0.425
Mof_N 	N 	0.15647	0.54163	0.44237	-0.298
Mof_O 	O 	0.21147	0.60173	0.32962	-0.621
Mof_C 	C 	0.10557	0.50563	0.47517	0.094
Mof_H 	H 	0.10247	0.48963	0.03522	-0.01
Mof_C 	C 	0.16077	0.56603	0.35462	0.301
Mof_O 	O 	0.15377	0.60293	0.16122	-0.516
Mof_O 	O 	0.06117	0.55163	0.16767	-0.43
Mof_O 	O 	0.24927	0.57493	0.14007	-0.885
Mof_H 	H 	0.34377	0.54996	0.00324	0.22
Mof_Dy	Dy	0.91962	0.99207	0.35784	2.016
Mof_C 	C 	0.77813	0.88307	0.46853	-0.231
Mof_N 	N 	0.72783	0.84577	0.00508	-0.164
Mof_C 	C 	0.72363	0.82447	0.09133	-0.063
Mof_H 	H 	0.68843	0.79987	0.11718	0.044
Mof_C 	C 	0.77613	0.90407	0.37128	0.419
Mof_N 	N 	0.82313	0.87497	0.10903	-0.291
Mof_O 	O 	0.87813	0.93507	0.49628	-0.613
Mof_C 	C 	0.77223	0.83897	0.14183	0.088
Mof_H 	H 	0.76913	0.82297	0.20188	-0.017
Mof_C 	C 	0.82743	0.89937	0.02128	0.3
Mof_O 	O 	0.82043	0.93627	0.32788	-0.51
Mof_O 	O 	0.72783	0.88497	0.33433	-0.445
Mof_O 	O 	0.91593	0.90827	0.30673	-0.883
Mof_H 	H 	0.01044	0.8833	0.1699	0.231
Mof_Dy	Dy	0.6746	0.26089	0.02451	2.141
Mof_C 	C 	0.7836	0.2284	0.1352	-0.231
Mof_N 	N 	0.8209	0.2154	0.17175	-0.165
Mof_C 	C 	0.8422	0.2325	0.258	-0.065
Mof_H 	H 	0.8668	0.2219	0.28385	0.04
Mof_C 	C 	0.7626	0.2054	0.03795	0.419
Mof_N 	N 	0.7917	0.2815	0.2757	-0.298
Mof_O 	O 	0.7316	0.2764	0.16295	-0.62
Mof_C 	C 	0.8277	0.2666	0.3085	0.09
Mof_H 	H 	0.8437	0.2795	0.36855	-0.022
Mof_C 	C 	0.7673	0.2614	0.18795	0.299
Mof_O 	O 	0.7304	0.2175	0.49455	-0.519
Mof_O 	O 	0.7817	0.1762	0.001	-0.444
Mof_O 	O 	0.7584	0.341	0.4734	-0.887
Mof_H 	H 	0.78337	0.46048	0.33657	0.219
Mof_Dy	Dy	0.34127	0.59422	0.19118	2.155
Mof_C 	C 	0.45027	0.56173	0.30187	-0.233
Mof_N 	N 	0.48757	0.54873	0.33842	-0.164
Mof_C 	C 	0.50887	0.56583	0.42467	-0.064
Mof_H 	H 	0.53347	0.55523	0.45052	0.044
Mof_C 	C 	0.42927	0.53873	0.20462	0.426
Mof_N 	N 	0.45837	0.61483	0.44237	-0.298
Mof_O 	O 	0.39827	0.60973	0.32962	-0.621
Mof_C 	C 	0.49437	0.59993	0.47517	0.091
Mof_H 	H 	0.51037	0.61283	0.03522	-0.017
Mof_C 	C 	0.43397	0.59473	0.35462	0.301
Mof_O 	O 	0.39707	0.55083	0.16122	-0.519
Mof_O 	O 	0.44837	0.50953	0.16767	-0.444
Mof_O 	O 	0.42507	0.67433	0.14007	-0.885
Mof_H 	H 	0.45004	0.79381	0.00324	0.22
Mof_Dy	Dy	0.00793	0.92756	0.35784	2.149
Mof_C 	C 	0.11693	0.89507	0.46853	-0.234
Mof_N 	N 	0.15423	0.88207	0.00508	-0.156
Mof_C 	C 	0.17553	0.89917	0.09133	-0.07
Mof_H 	H 	0.20013	0.88857	0.11718	0.044
Mof_C 	C 	0.09593	0.87207	0.37128	0.427
Mof_N 	N 	0.12503	0.94817	0.10903	-0.314
Mof_O 	O 	0.06493	0.94307	0.49628	-0.636
Mof_C 	C 	0.16103	0.93327	0.14183	0.095
Mof_H 	H 	0.17703	0.94617	0.20188	-0.03
Mof_C 	C 	0.10063	0.92807	0.02128	0.319
Mof_O 	O 	0.06373	0.88417	0.32788	-0.516
Mof_O 	O 	0.11503	0.84287	0.33433	-0.44
Mof_O 	O 	0.09173	0.00767	0.30673	-0.885
Mof_H 	H 	0.1167	0.12714	0.1699	0.219
Mof_Dy	Dy	0.26089	0.58629	0.47549	2.156
Mof_C 	C 	0.2284	0.4448	0.3648	-0.232
Mof_N 	N 	0.2154	0.3945	0.32825	-0.163
Mof_C 	C 	0.2325	0.3903	0.242	-0.063
Mof_H 	H 	0.2219	0.3551	0.21615	0.044
Mof_C 	C 	0.2054	0.4428	0.46205	0.426
Mof_N 	N 	0.2815	0.4898	0.2243	-0.298
Mof_O 	O 	0.2764	0.5448	0.33705	-0.621
Mof_C 	C 	0.2666	0.4389	0.1915	0.091
Mof_H 	H 	0.2795	0.4358	0.13145	-0.019
Mof_C 	C 	0.2614	0.4941	0.31205	0.301
Mof_O 	O 	0.2175	0.4871	0.00545	-0.514
Mof_O 	O 	0.1762	0.3945	0.499	-0.441
Mof_O 	O 	0.341	0.5826	0.0266	-0.884
Mof_H 	H 	0.46048	0.67711	0.16343	0.22
Mof_Dy	Dy	0.92756	0.91962	0.14216	2.048
Mof_C 	C 	0.89507	0.77813	0.03147	-0.236
Mof_N 	N 	0.88207	0.72783	0.49492	-0.165
Mof_C 	C 	0.89917	0.72363	0.40867	-0.067
Mof_H 	H 	0.88857	0.68843	0.38282	0.042
Mof_C 	C 	0.87207	0.77613	0.12872	0.422
Mof_N 	N 	0.94817	0.82313	0.39097	-0.306
Mof_O 	O 	0.94307	0.87813	0.00372	-0.628
Mof_C 	C 	0.93327	0.77223	0.35817	0.089
Mof_H 	H 	0.94617	0.76913	0.29812	-0.027
Mof_C 	C 	0.92807	0.82743	0.47872	0.297
Mof_O 	O 	0.88417	0.82043	0.17212	-0.512
Mof_O 	O 	0.84287	0.72783	0.16567	-0.443
Mof_O 	O 	0.00767	0.91593	0.19327	-0.884
Mof_H 	H 	0.12714	0.01044	0.3301	0.229
Mof_Dy	Dy	0.59422	0.25296	0.30882	2.156
Mof_C 	C 	0.56173	0.11147	0.19813	-0.229
Mof_N 	N 	0.54873	0.06117	0.16158	-0.16
Mof_C 	C 	0.56583	0.05697	0.07533	-0.056
Mof_H 	H 	0.55523	0.02177	0.04948	0.053
Mof_C 	C 	0.53873	0.10947	0.29538	0.425
Mof_N 	N 	0.61483	0.15647	0.05763	-0.296
Mof_O 	O 	0.60973	0.21147	0.17038	-0.62
Mof_C 	C 	0.59993	0.10557	0.02483	0.081
Mof_H 	H 	0.61283	0.10247	0.46478	-0.017
Mof_C 	C 	0.59473	0.16077	0.14538	0.301
Mof_O 	O 	0.55083	0.15377	0.33878	-0.517
Mof_O 	O 	0.50953	0.06117	0.33233	-0.432
Mof_O 	O 	0.67433	0.24927	0.35993	-0.887
Mof_H 	H 	0.79381	0.34377	0.49676	0.219
Mof_Dy	Dy	0.41371	0.6746	0.47549	2.155
Mof_C 	C 	0.5552	0.7836	0.3648	-0.233
Mof_N 	N 	0.6055	0.8209	0.32825	-0.165
Mof_C 	C 	0.6097	0.8422	0.242	-0.065
Mof_H 	H 	0.6449	0.8668	0.21615	0.041
Mof_C 	C 	0.5572	0.7626	0.46205	0.426
Mof_N 	N 	0.5102	0.7917	0.2243	-0.298
Mof_O 	O 	0.4552	0.7316	0.33705	-0.621
Mof_C 	C 	0.5611	0.8277	0.1915	0.09
Mof_H 	H 	0.5642	0.8437	0.13145	-0.021
Mof_C 	C 	0.5059	0.7673	0.31205	0.3
Mof_O 	O 	0.5129	0.7304	0.00545	-0.515
Mof_O 	O 	0.6055	0.7817	0.499	-0.444
Mof_O 	O 	0.4174	0.7584	0.0266	-0.883
Mof_H 	H 	0.32289	0.78337	0.16343	0.219
Mof_Dy	Dy	0.08038	0.00793	0.14216	2.22
Mof_C 	C 	0.22187	0.11693	0.03147	-0.234
Mof_N 	N 	0.27217	0.15423	0.49492	-0.163
Mof_C 	C 	0.27637	0.17553	0.40867	-0.064
Mof_H 	H 	0.31157	0.20013	0.38282	0.044
Mof_C 	C 	0.22387	0.09593	0.12872	0.431
Mof_N 	N 	0.17687	0.12503	0.39097	-0.3
Mof_O 	O 	0.12187	0.06493	0.00372	-0.624
Mof_C 	C 	0.22777	0.16103	0.35817	0.093
Mof_H 	H 	0.23087	0.17703	0.29812	-0.02
Mof_C 	C 	0.17257	0.10063	0.47872	0.304
Mof_O 	O 	0.17957	0.06373	0.17212	-0.52
Mof_O 	O 	0.27217	0.11503	0.16567	-0.441
Mof_O 	O 	0.08407	0.09173	0.19327	-0.88
Mof_H 	H 	0.98956	0.1167	0.3301	0.21
Mof_Dy	Dy	0.74704	0.34127	0.30882	2.154
Mof_C 	C 	0.88853	0.45027	0.19813	-0.237
Mof_N 	N 	0.93883	0.48757	0.16158	-0.175
Mof_C 	C 	0.94303	0.50887	0.07533	-0.062
Mof_H 	H 	0.97823	0.53347	0.04948	0.028
Mof_C 	C 	0.89053	0.42927	0.29538	0.428
Mof_N 	N 	0.84353	0.45837	0.05763	-0.297
Mof_O 	O 	0.78853	0.39827	0.17038	-0.621
Mof_C 	C 	0.89443	0.49437	0.02483	0.078
Mof_H 	H 	0.89753	0.51037	0.46478	-0.022
Mof_C 	C 	0.83923	0.43397	0.14538	0.3
Mof_O 	O 	0.84623	0.39707	0.33878	-0.522
Mof_O 	O 	0.93883	0.44837	0.33233	-0.463
Mof_O 	O 	0.75073	0.42507	0.35993	-0.887
Mof_H 	H 	0.65623	0.45004	0.49676	0.22
Mof_Dy	Dy	0.3254	0.73911	0.47549	2.155
Mof_C 	C 	0.2164	0.7716	0.3648	-0.232
Mof_N 	N 	0.1791	0.7846	0.32825	-0.163
Mof_C 	C 	0.1578	0.7675	0.242	-0.062
Mof_H 	H 	0.1332	0.7781	0.21615	0.048
Mof_C 	C 	0.2374	0.7946	0.46205	0.426
Mof_N 	N 	0.2083	0.7185	0.2243	-0.297
Mof_O 	O 	0.2684	0.7236	0.33705	-0.621
Mof_C 	C 	0.1723	0.7334	0.1915	0.092
Mof_H 	H 	0.1563	0.7205	0.13145	-0.015
Mof_C 	C 	0.2327	0.7386	0.31205	0.301
Mof_O 	O 	0.2696	0.7825	0.00545	-0.512
Mof_O 	O 	0.2183	0.8238	0.499	-0.445
Mof_O 	O 	0.2416	0.659	0.0266	-0.883
Mof_H 	H 	0.21663	0.53952	0.16343	0.221
Mof_Dy	Dy	0.99207	0.07244	0.14216	2.056
Mof_C 	C 	0.88307	0.10493	0.03147	-0.247
Mof_N 	N 	0.84577	0.11793	0.49492	-0.164
Mof_C 	C 	0.82447	0.10083	0.40867	-0.059
Mof_H 	H 	0.79987	0.11143	0.38282	0.045
Mof_C 	C 	0.90407	0.12793	0.12872	0.426
Mof_N 	N 	0.87497	0.05183	0.39097	-0.28
Mof_O 	O 	0.93507	0.05693	0.00372	-0.613
Mof_C 	C 	0.83897	0.06673	0.35817	0.09
Mof_H 	H 	0.82297	0.05383	0.29812	-0.008
Mof_C 	C 	0.89937	0.07193	0.47872	0.301
Mof_O 	O 	0.93627	0.11583	0.17212	-0.514
Mof_O 	O 	0.88497	0.15713	0.16567	-0.448
Mof_O 	O 	0.90827	0.99233	0.19327	-0.876
Mof_H 	H 	0.8833	0.87286	0.3301	0.221
Mof_Dy	Dy	0.65873	0.40578	0.30882	2.155
Mof_C 	C 	0.54973	0.43827	0.19813	-0.232
Mof_N 	N 	0.51243	0.45127	0.16158	-0.164
Mof_C 	C 	0.49113	0.43417	0.07533	-0.062
Mof_H 	H 	0.46653	0.44477	0.04948	0.043
Mof_C 	C 	0.57073	0.46127	0.29538	0.426
Mof_N 	N 	0.54163	0.38517	0.05763	-0.297
Mof_O 	O 	0.60173	0.39027	0.17038	-0.62
Mof_C 	C 	0.50563	0.40007	0.02483	0.088
Mof_H 	H 	0.48963	0.38717	0.46478	-0.019
Mof_C 	C 	0.56603	0.40527	0.14538	0.3
Mof_O 	O 	0.60293	0.44917	0.33878	-0.519
Mof_O 	O 	0.55163	0.49047	0.33233	-0.444
Mof_O 	O 	0.57493	0.32567	0.35993	-0.887
Mof_H 	H 	0.54996	0.20619	0.49676	0.221
Mof_Cu	Cu	0.83333	0.66667	0.08333	0.885
Mof_Cu	Cu	0.5	2.77246e-33	0.25	0.902
Mof_Cu	Cu	0.33333	0.16667	0.08333	0.887
Mof_Cu	Cu	3.4285e-17	0.5	0.25	0.904
Mof_Cu	Cu	0.83333	0.16667	0.08333	0.884
Mof_Cu	Cu	0.5	0.5	0.25	0.886
Mof_Cu	Cu	0.16667	0.33333	0.41667	0.887
Mof_Cu	Cu	0.66667	0.83333	0.41667	0.885
Mof_Cu	Cu	0.16667	0.83333	0.41667	0.886
Mof_O 	O 	0.66667	0.33333	0.41667	-0.799
Mof_O 	O 	-1.38623e-33	2.77246e-33	0.25	-0.746
Mof_O 	O 	0.33333	0.66667	0.08333	-0.796
Mof_O 	O 	0.66667	0.33333	0.077	-0.895
Mof_O 	O 	0.33333	0.66667	0.24367	-0.898
Mof_O 	O 	-2.77246e-33	5.54492e-33	0.41033	-0.846
Mof_O 	O 	0.33333	0.66667	0.423	-0.898
Mof_O 	O 	3.46557e-34	6.93114e-34	0.08967	-0.842
Mof_O 	O 	0.66667	0.33333	0.25633	-0.897
Mof_Dy	Dy	0.73911	0.41371	0.52451	2.155
Mof_C 	C 	0.7716	0.5552	0.6352	-0.233
Mof_N 	N 	0.7846	0.6055	0.67175	-0.164
Mof_C 	C 	0.7675	0.6097	0.758	-0.064
Mof_H 	H 	0.7781	0.6449	0.78385	0.044
Mof_C 	C 	0.7946	0.5572	0.53795	0.426
Mof_N 	N 	0.7185	0.5102	0.7757	-0.298
Mof_O 	O 	0.7236	0.4552	0.66295	-0.621
Mof_C 	C 	0.7334	0.5611	0.8085	0.091
Mof_H 	H 	0.7205	0.5642	0.86855	-0.019
Mof_C 	C 	0.7386	0.5059	0.68795	0.301
Mof_O 	O 	0.7825	0.5129	0.99455	-0.515
Mof_O 	O 	0.8238	0.6055	0.501	-0.446
Mof_O 	O 	0.659	0.4174	0.9734	-0.883
Mof_H 	H 	0.53952	0.32289	0.83657	0.22
Mof_Dy	Dy	0.40578	0.74704	0.69118	2.154
Mof_C 	C 	0.43827	0.88853	0.80187	-0.237
Mof_N 	N 	0.45127	0.93883	0.83842	-0.175
Mof_C 	C 	0.43417	0.94303	0.92467	-0.06
Mof_H 	H 	0.44477	0.97823	0.95052	0.027
Mof_C 	C 	0.46127	0.89053	0.70462	0.428
Mof_N 	N 	0.38517	0.84353	0.94237	-0.296
Mof_O 	O 	0.39027	0.78853	0.82962	-0.62
Mof_C 	C 	0.40007	0.89443	0.97517	0.076
Mof_H 	H 	0.38717	0.89753	0.53522	-0.022
Mof_C 	C 	0.40527	0.83923	0.85462	0.3
Mof_O 	O 	0.44917	0.84623	0.66122	-0.522
Mof_O 	O 	0.49047	0.93883	0.66767	-0.463
Mof_O 	O 	0.32567	0.75073	0.64007	-0.886
Mof_H 	H 	0.20619	0.65623	0.50324	0.221
Mof_Dy	Dy	0.07244	0.08038	0.85784	2.18
Mof_C 	C 	0.10493	0.22187	0.96853	-0.233
Mof_N 	N 	0.11793	0.27217	0.50508	-0.163
Mof_C 	C 	0.10083	0.27637	0.59133	-0.059
Mof_H 	H 	0.11143	0.31157	0.61718	0.046
Mof_C 	C 	0.12793	0.22387	0.87128	0.429
Mof_N 	N 	0.05183	0.17687	0.60903	-0.284
Mof_O 	O 	0.05693	0.12187	0.99628	-0.606
Mof_C 	C 	0.06673	0.22777	0.64183	0.092
Mof_H 	H 	0.05383	0.23087	0.70188	-0.01
Mof_C 	C 	0.07193	0.17257	0.52128	0.305
Mof_O 	O 	0.11583	0.17957	0.82788	-0.518
Mof_O 	O 	0.15713	0.27217	0.83433	-0.443
Mof_O 	O 	0.99233	0.08407	0.80673	-0.879
Mof_H 	H 	0.87286	0.98956	0.6699	0.212
Mof_Dy	Dy	0.58629	0.3254	0.52451	2.155
Mof_C 	C 	0.4448	0.2164	0.6352	-0.232
Mof_N 	N 	0.3945	0.1791	0.67175	-0.163
Mof_C 	C 	0.3903	0.1578	0.758	-0.062
Mof_H 	H 	0.3551	0.1332	0.78385	0.048
Mof_C 	C 	0.4428	0.2374	0.53795	0.426
Mof_N 	N 	0.4898	0.2083	0.7757	-0.297
Mof_O 	O 	0.5448	0.2684	0.66295	-0.621
Mof_C 	C 	0.4389	0.1723	0.8085	0.093
Mof_H 	H 	0.4358	0.1563	0.86855	-0.016
Mof_C 	C 	0.4941	0.2327	0.68795	0.301
Mof_O 	O 	0.4871	0.2696	0.99455	-0.515
Mof_O 	O 	0.3945	0.2183	0.501	-0.443
Mof_O 	O 	0.5826	0.2416	0.9734	-0.883
Mof_H 	H 	0.67711	0.21663	0.83657	0.221
Mof_Dy	Dy	0.25296	0.65873	0.69118	2.156
Mof_C 	C 	0.11147	0.54973	0.80187	-0.229
Mof_N 	N 	0.06117	0.51243	0.83842	-0.16
Mof_C 	C 	0.05697	0.49113	0.92467	-0.057
Mof_H 	H 	0.02177	0.46653	0.95052	0.053
Mof_C 	C 	0.10947	0.57073	0.70462	0.425
Mof_N 	N 	0.15647	0.54163	0.94237	-0.296
Mof_O 	O 	0.21147	0.60173	0.82962	-0.62
Mof_C 	C 	0.10557	0.50563	0.97517	0.084
Mof_H 	H 	0.10247	0.48963	0.53522	-0.017
Mof_C 	C 	0.16077	0.56603	0.85462	0.301
Mof_O 	O 	0.15377	0.60293	0.66122	-0.517
Mof_O 	O 	0.06117	0.55163	0.66767	-0.432
Mof_O 	O 	0.24927	0.57493	0.64007	-0.887
Mof_H 	H 	0.34377	0.54996	0.50324	0.22
Mof_Dy	Dy	0.91962	0.99207	0.85784	2.013
Mof_C 	C 	0.77813	0.88307	0.96853	-0.233
Mof_N 	N 	0.72783	0.84577	0.50508	-0.165
Mof_C 	C 	0.72363	0.82447	0.59133	-0.063
Mof_H 	H 	0.68843	0.79987	0.61718	0.043
Mof_C 	C 	0.77613	0.90407	0.87128	0.419
Mof_N 	N 	0.82313	0.87497	0.60903	-0.291
Mof_O 	O 	0.87813	0.93507	0.99628	-0.613
Mof_C 	C 	0.77223	0.83897	0.64183	0.088
Mof_H 	H 	0.76913	0.82297	0.70188	-0.016
Mof_C 	C 	0.82743	0.89937	0.52128	0.298
Mof_O 	O 	0.82043	0.93627	0.82788	-0.51
Mof_O 	O 	0.72783	0.88497	0.83433	-0.446
Mof_O 	O 	0.91593	0.90827	0.80673	-0.88
Mof_H 	H 	0.01044	0.8833	0.6699	0.23
Mof_Dy	Dy	0.6746	0.26089	0.52451	2.156
Mof_C 	C 	0.7836	0.2284	0.6352	-0.233
Mof_N 	N 	0.8209	0.2154	0.67175	-0.164
Mof_C 	C 	0.8422	0.2325	0.758	-0.065
Mof_H 	H 	0.8668	0.2219	0.78385	0.041
Mof_C 	C 	0.7626	0.2054	0.53795	0.426
Mof_N 	N 	0.7917	0.2815	0.7757	-0.298
Mof_O 	O 	0.7316	0.2764	0.66295	-0.621
Mof_C 	C 	0.8277	0.2666	0.8085	0.09
Mof_H 	H 	0.8437	0.2795	0.86855	-0.021
Mof_C 	C 	0.7673	0.2614	0.68795	0.3
Mof_O 	O 	0.7304	0.2175	0.99455	-0.511
Mof_O 	O 	0.7817	0.1762	0.501	-0.442
Mof_O 	O 	0.7584	0.341	0.9734	-0.883
Mof_H 	H 	0.78337	0.46048	0.83657	0.219
Mof_Dy	Dy	0.34127	0.59422	0.69118	2.155
Mof_C 	C 	0.45027	0.56173	0.80187	-0.232
Mof_N 	N 	0.48757	0.54873	0.83842	-0.164
Mof_C 	C 	0.50887	0.56583	0.92467	-0.062
Mof_H 	H 	0.53347	0.55523	0.95052	0.043
Mof_C 	C 	0.42927	0.53873	0.70462	0.426
Mof_N 	N 	0.45837	0.61483	0.94237	-0.297
Mof_O 	O 	0.39827	0.60973	0.82962	-0.62
Mof_C 	C 	0.49437	0.59993	0.97517	0.088
Mof_H 	H 	0.51037	0.61283	0.53522	-0.019
Mof_C 	C 	0.43397	0.59473	0.85462	0.3
Mof_O 	O 	0.39707	0.55083	0.66122	-0.519
Mof_O 	O 	0.44837	0.50953	0.66767	-0.444
Mof_O 	O 	0.42507	0.67433	0.64007	-0.887
Mof_H 	H 	0.45004	0.79381	0.50324	0.219
Mof_Dy	Dy	0.00793	0.92756	0.85784	2.134
Mof_C 	C 	0.11693	0.89507	0.96853	-0.252
Mof_N 	N 	0.15423	0.88207	0.50508	-0.164
Mof_C 	C 	0.17553	0.89917	0.59133	-0.068
Mof_H 	H 	0.20013	0.88857	0.61718	0.042
Mof_C 	C 	0.09593	0.87207	0.87128	0.431
Mof_N 	N 	0.12503	0.94817	0.60903	-0.312
Mof_O 	O 	0.06493	0.94307	0.99628	-0.646
Mof_C 	C 	0.16103	0.93327	0.64183	0.091
Mof_H 	H 	0.17703	0.94617	0.70188	-0.03
Mof_C 	C 	0.10063	0.92807	0.52128	0.299
Mof_O 	O 	0.06373	0.88417	0.82788	-0.517
Mof_O 	O 	0.11503	0.84287	0.83433	-0.442
Mof_O 	O 	0.09173	0.00767	0.80673	-0.882
Mof_H 	H 	0.1167	0.12714	0.6699	0.219
Mof_Dy	Dy	0.26089	0.58629	0.97549	2.144
Mof_C 	C 	0.2284	0.4448	0.8648	-0.231
Mof_N 	N 	0.2154	0.3945	0.82825	-0.164
Mof_C 	C 	0.2325	0.3903	0.742	-0.063
Mof_H 	H 	0.2219	0.3551	0.71615	0.044
Mof_C 	C 	0.2054	0.4428	0.96205	0.422
Mof_N 	N 	0.2815	0.4898	0.7243	-0.298
Mof_O 	O 	0.2764	0.5448	0.83705	-0.62
Mof_C 	C 	0.2666	0.4389	0.6915	0.091
Mof_H 	H 	0.2795	0.4358	0.63145	-0.019
Mof_C 	C 	0.2614	0.4941	0.81205	0.3
Mof_O 	O 	0.2175	0.4871	0.50545	-0.519
Mof_O 	O 	0.1762	0.3945	0.999	-0.442
Mof_O 	O 	0.341	0.5826	0.5266	-0.887
Mof_H 	H 	0.46048	0.67711	0.66343	0.22
Mof_Dy	Dy	0.92756	0.91962	0.64216	2.05
Mof_C 	C 	0.89507	0.77813	0.53147	-0.233
Mof_N 	N 	0.88207	0.72783	0.99492	-0.163
Mof_C 	C 	0.89917	0.72363	0.90867	-0.067
Mof_H 	H 	0.88857	0.68843	0.88282	0.043
Mof_C 	C 	0.87207	0.77613	0.62872	0.421
Mof_N 	N 	0.94817	0.82313	0.89097	-0.304
Mof_O 	O 	0.94307	0.87813	0.50372	-0.629
Mof_C 	C 	0.93327	0.77223	0.85817	0.089
Mof_H 	H 	0.94617	0.76913	0.79812	-0.026
Mof_C 	C 	0.92807	0.82743	0.97872	0.3
Mof_O 	O 	0.88417	0.82043	0.67212	-0.511
Mof_O 	O 	0.84287	0.72783	0.66567	-0.443
Mof_O 	O 	0.00767	0.91593	0.69327	-0.887
Mof_H 	H 	0.12714	0.01044	0.8301	0.23
Mof_Dy	Dy	0.59422	0.25296	0.80882	2.157
Mof_C 	C 	0.56173	0.11147	0.69813	-0.229
Mof_N 	N 	0.54873	0.06117	0.66158	-0.158
Mof_C 	C 	0.56583	0.05697	0.57533	-0.061
Mof_H 	H 	0.55523	0.02177	0.54948	0.057
Mof_C 	C 	0.53873	0.10947	0.79538	0.425
Mof_N 	N 	0.61483	0.15647	0.55763	-0.298
Mof_O 	O 	0.60973	0.21147	0.67038	-0.621
Mof_C 	C 	0.59993	0.10557	0.52483	0.094
Mof_H 	H 	0.61283	0.10247	0.96478	-0.009
Mof_C 	C 	0.59473	0.16077	0.64538	0.301
Mof_O 	O 	0.55083	0.15377	0.83878	-0.516
Mof_O 	O 	0.50953	0.06117	0.83233	-0.43
Mof_O 	O 	0.67433	0.24927	0.85993	-0.885
Mof_H 	H 	0.79381	0.34377	0.99676	0.22
Mof_Dy	Dy	0.41371	0.6746	0.97549	2.145
Mof_C 	C 	0.5552	0.7836	0.8648	-0.233
Mof_N 	N 	0.6055	0.8209	0.82825	-0.165
Mof_C 	C 	0.6097	0.8422	0.742	-0.065
Mof_H 	H 	0.6449	0.8668	0.71615	0.041
Mof_C 	C 	0.5572	0.7626	0.96205	0.422
Mof_N 	N 	0.5102	0.7917	0.7243	-0.298
Mof_O 	O 	0.4552	0.7316	0.83705	-0.62
Mof_C 	C 	0.5611	0.8277	0.6915	0.09
Mof_H 	H 	0.5642	0.8437	0.63145	-0.022
Mof_C 	C 	0.5059	0.7673	0.81205	0.299
Mof_O 	O 	0.5129	0.7304	0.50545	-0.519
Mof_O 	O 	0.6055	0.7817	0.999	-0.444
Mof_O 	O 	0.4174	0.7584	0.5266	-0.887
Mof_H 	H 	0.32289	0.78337	0.66343	0.219
Mof_Dy	Dy	0.08038	0.00793	0.64216	2.225
Mof_C 	C 	0.22187	0.11693	0.53147	-0.232
Mof_N 	N 	0.27217	0.15423	0.99492	-0.162
Mof_C 	C 	0.27637	0.17553	0.90867	-0.064
Mof_H 	H 	0.31157	0.20013	0.88282	0.044
Mof_C 	C 	0.22387	0.09593	0.62872	0.431
Mof_N 	N 	0.17687	0.12503	0.89097	-0.3
Mof_O 	O 	0.12187	0.06493	0.50372	-0.624
Mof_C 	C 	0.22777	0.16103	0.85817	0.093
Mof_H 	H 	0.23087	0.17703	0.79812	-0.021
Mof_C 	C 	0.17257	0.10063	0.97872	0.305
Mof_O 	O 	0.17957	0.06373	0.67212	-0.519
Mof_O 	O 	0.27217	0.11503	0.66567	-0.44
Mof_O 	O 	0.08407	0.09173	0.69327	-0.883
Mof_H 	H 	0.98956	0.1167	0.8301	0.212
Mof_Dy	Dy	0.74704	0.34127	0.80882	2.155
Mof_C 	C 	0.88853	0.45027	0.69813	-0.237
Mof_N 	N 	0.93883	0.48757	0.66158	-0.173
Mof_C 	C 	0.94303	0.50887	0.57533	-0.066
Mof_H 	H 	0.97823	0.53347	0.54948	0.031
Mof_C 	C 	0.89053	0.42927	0.79538	0.428
Mof_N 	N 	0.84353	0.45837	0.55763	-0.298
Mof_O 	O 	0.78853	0.39827	0.67038	-0.621
Mof_C 	C 	0.89443	0.49437	0.52483	0.088
Mof_H 	H 	0.89753	0.51037	0.96478	-0.016
Mof_C 	C 	0.83923	0.43397	0.64538	0.3
Mof_O 	O 	0.84623	0.39707	0.83878	-0.521
Mof_O 	O 	0.93883	0.44837	0.83233	-0.46
Mof_O 	O 	0.75073	0.42507	0.85993	-0.885
Mof_H 	H 	0.65623	0.45004	0.99676	0.22
Mof_Dy	Dy	0.3254	0.73911	0.97549	2.14
Mof_C 	C 	0.2164	0.7716	0.8648	-0.231
Mof_N 	N 	0.1791	0.7846	0.82825	-0.164
Mof_C 	C 	0.1578	0.7675	0.742	-0.063
Mof_H 	H 	0.1332	0.7781	0.71615	0.047
Mof_C 	C 	0.2374	0.7946	0.96205	0.419
Mof_N 	N 	0.2083	0.7185	0.7243	-0.297
Mof_O 	O 	0.2684	0.7236	0.83705	-0.62
Mof_C 	C 	0.1723	0.7334	0.6915	0.092
Mof_H 	H 	0.1563	0.7205	0.63145	-0.017
Mof_C 	C 	0.2327	0.7386	0.81205	0.299
Mof_O 	O 	0.2696	0.7825	0.50545	-0.52
Mof_O 	O 	0.2183	0.8238	0.999	-0.447
Mof_O 	O 	0.2416	0.659	0.5266	-0.887
Mof_H 	H 	0.21663	0.53952	0.66343	0.221
Mof_Dy	Dy	0.99207	0.07244	0.64216	2.07
Mof_C 	C 	0.88307	0.10493	0.53147	-0.229
Mof_N 	N 	0.84577	0.11793	0.99492	-0.157
Mof_C 	C 	0.82447	0.10083	0.90867	-0.06
Mof_H 	H 	0.79987	0.11143	0.88282	0.047
Mof_C 	C 	0.90407	0.12793	0.62872	0.422
Mof_N 	N 	0.87497	0.05183	0.89097	-0.282
Mof_O 	O 	0.93507	0.05693	0.50372	-0.603
Mof_C 	C 	0.83897	0.06673	0.85817	0.093
Mof_H 	H 	0.82297	0.05383	0.79812	-0.008
Mof_C 	C 	0.89937	0.07193	0.97872	0.321
Mof_O 	O 	0.93627	0.11583	0.67212	-0.512
Mof_O 	O 	0.88497	0.15713	0.66567	-0.445
Mof_O 	O 	0.90827	0.99233	0.69327	-0.879
Mof_H 	H 	0.8833	0.87286	0.8301	0.221
Mof_Dy	Dy	0.65873	0.40578	0.80882	2.155
Mof_C 	C 	0.54973	0.43827	0.69813	-0.233
Mof_N 	N 	0.51243	0.45127	0.66158	-0.164
Mof_C 	C 	0.49113	0.43417	0.57533	-0.064
Mof_H 	H 	0.46653	0.44477	0.54948	0.044
Mof_C 	C 	0.57073	0.46127	0.79538	0.426
Mof_N 	N 	0.54163	0.38517	0.55763	-0.298
Mof_O 	O 	0.60173	0.39027	0.67038	-0.621
Mof_C 	C 	0.50563	0.40007	0.52483	0.091
Mof_H 	H 	0.48963	0.38717	0.96478	-0.017
Mof_C 	C 	0.56603	0.40527	0.64538	0.301
Mof_O 	O 	0.60293	0.44917	0.83878	-0.519
Mof_O 	O 	0.55163	0.49047	0.83233	-0.443
Mof_O 	O 	0.57493	0.32567	0.85993	-0.886
Mof_H 	H 	0.54996	0.20619	0.99676	0.222
Mof_Cu	Cu	0.83333	0.66667	0.58333	0.885
Mof_Cu	Cu	0.5	1.10898e-32	0.75	0.904
Mof_Cu	Cu	0.33333	0.16667	0.58333	0.887
Mof_Cu	Cu	2.96675e-18	0.5	0.75	0.902
Mof_Cu	Cu	0.83333	0.16667	0.58333	0.886
Mof_Cu	Cu	0.5	0.5	0.75	0.886
Mof_Cu	Cu	0.16667	0.33333	0.91667	0.887
Mof_Cu	Cu	0.66667	0.83333	0.91667	0.884
Mof_Cu	Cu	0.16667	0.83333	0.91667	0.885
Mof_O 	O 	0.66667	0.33333	0.91667	-0.796
Mof_O 	O 	2.77246e-33	1.10898e-32	0.75	-0.746
Mof_O 	O 	0.33333	0.66667	0.58333	-0.799
Mof_O 	O 	0.66667	0.33333	0.577	-0.898
Mof_O 	O 	0.33333	0.66667	0.74367	-0.897
Mof_O 	O 	-1.10898e-32	1.10898e-32	0.91033	-0.843
Mof_O 	O 	0.33333	0.66667	0.923	-0.895
Mof_O 	O 	-0	5.54492e-33	0.58967	-0.845
Mof_O 	O 	0.66667	0.33333	0.75633	-0.898
_end
