data_functionalizedCrystal
_audit_creation_method	'EQeq! by Chris Wilmer'
_symmetry_space_group_name_H-M	'P1'
_symmetry_Int_Tables_number	1
_symmetry_cell_setting	triclinic
loop_
_symmetry_equiv_pos_as_xyz
  x,y,z
_cell_length_a	6.9737
_cell_length_b	21.963
_cell_length_c	23.279
_cell_angle_alpha	90
_cell_angle_beta	90
_cell_angle_gamma	90
loop_
_atom_site_label
_atom_site_type_symbol
_atom_site_fract_x
_atom_site_fract_y
_atom_site_fract_z
_atom_site_charge
Mof_Pr	Pr	0.57816	0.23208	0.05066	2.64
Mof_O 	O 	0.5951	0.3091	0.6513	-0.474
Mof_O 	O 	0.5633	0.2098	0.6418	-0.445
Mof_C 	C 	0.5775	0.2566	0.6736	0.261
Mof_C 	C 	0.577	0.2503	0.7379	0.075
Mof_C 	C 	0.5671	0.1918	0.761	-0.195
Mof_H 	H 	0.5596	0.1576	0.7375	0.148
Mof_C 	C 	0.5688	0.1867	0.8201	0.231
Mof_N 	N 	0.514	0.1264	0.8441	-0.162
Mof_O 	O 	0.559	0.1166	0.8944	0.381
Mof_O 	O 	0.439	0.0861	0.8158	-0.056
Mof_C 	C 	0.5732	0.2361	0.8575	-0.297
Mof_C 	C 	0.5855	0.2945	0.8328	0.153
Mof_H 	H 	0.5947	0.3291	0.8557	-0.053
Mof_C 	C 	0.5836	0.2989	0.7727	-0.176
Mof_H 	H 	0.5871	0.3374	0.7562	0.108
Mof_C 	C 	0.5719	0.232	0.9205	0.597
Mof_O 	O 	0.4158	0.2254	0.9467	-0.727
Mof_O 	O 	0.7268	0.2398	0.94741	-0.742
Mof_O 	O 	0.2946	0.3523	0.9618	-0.625
Mof_O 	O 	0.5475	0.3357	0.019	-0.602
Mof_C 	C 	0.431	0.37	0.9926	0.534
Mof_C 	C 	0.4642	0.438	0.9979	-0.136
Mof_C 	C 	0.5786	0.4617	0.0394	0.008
Mof_H 	H 	0.6327	0.4358	0.0666	0.044
Mof_C 	C 	0.3834	0.4763	0.9576	-0.003
Mof_H 	H 	0.3044	0.4609	0.9289	0.038
Mof_N 	N 	0.614	0.1253	0.8441	0.1
Mof_O 	O 	0.641	0.1201	0.8954	-0.518
Mof_O 	O 	0.614	0.0803	0.8121	-0.086
Mof_Pr	Pr	0.92184	0.76792	0.55066	2.626
Mof_O 	O 	0.9049	0.6909	0.1513	-0.476
Mof_O 	O 	0.9367	0.7902	0.1418	-0.446
Mof_C 	C 	0.9225	0.7434	0.1736	0.26
Mof_C 	C 	0.923	0.7497	0.2379	0.072
Mof_C 	C 	0.9329	0.8082	0.261	-0.195
Mof_H 	H 	0.9404	0.8424	0.2375	0.146
Mof_C 	C 	0.9312	0.8133	0.3201	0.228
Mof_N 	N 	0.986	0.8736	0.3441	-0.173
Mof_O 	O 	0.941	0.8834	0.3944	0.402
Mof_O 	O 	0.061	0.9139	0.3158	-0.048
Mof_C 	C 	0.9268	0.7639	0.3575	-0.297
Mof_C 	C 	0.9145	0.7055	0.3328	0.15
Mof_H 	H 	0.9053	0.6709	0.3557	-0.053
Mof_C 	C 	0.9164	0.7011	0.2727	-0.177
Mof_H 	H 	0.9129	0.6626	0.2562	0.107
Mof_C 	C 	0.9281	0.768	0.4205	0.589
Mof_O 	O 	0.0842	0.7746	0.4467	-0.72
Mof_O 	O 	0.7732	0.7602	0.44741	-0.743
Mof_O 	O 	0.2054	0.6477	0.4618	-0.627
Mof_O 	O 	0.9525	0.6643	0.519	-0.606
Mof_C 	C 	0.069	0.63	0.4926	0.54
Mof_C 	C 	0.0358	0.562	0.4979	-0.136
Mof_C 	C 	0.9214	0.5383	0.5394	0.005
Mof_H 	H 	0.8673	0.5642	0.5666	0.044
Mof_C 	C 	0.1166	0.5237	0.4576	-0.003
Mof_H 	H 	0.1956	0.5391	0.4289	0.038
Mof_N 	N 	0.886	0.8747	0.3441	0.108
Mof_O 	O 	0.859	0.8799	0.3954	-0.541
Mof_O 	O 	0.886	0.9197	0.3121	-0.092
Mof_Pr	Pr	0.42184	0.73208	0.44934	2.639
Mof_O 	O 	0.4049	0.8091	0.8487	-0.475
Mof_O 	O 	0.4367	0.7098	0.8582	-0.445
Mof_C 	C 	0.4225	0.7566	0.8264	0.261
Mof_C 	C 	0.423	0.7503	0.7621	0.075
Mof_C 	C 	0.4329	0.6918	0.739	-0.195
Mof_H 	H 	0.4404	0.6576	0.7625	0.148
Mof_C 	C 	0.4312	0.6867	0.6799	0.231
Mof_N 	N 	0.486	0.6264	0.6559	-0.165
Mof_O 	O 	0.441	0.6166	0.6056	0.393
Mof_O 	O 	0.561	0.5861	0.6842	-0.055
Mof_C 	C 	0.4268	0.7361	0.6425	-0.297
Mof_C 	C 	0.4145	0.7945	0.6672	0.153
Mof_H 	H 	0.4053	0.8291	0.6443	-0.053
Mof_C 	C 	0.4164	0.7989	0.7273	-0.177
Mof_H 	H 	0.4129	0.8374	0.7438	0.108
Mof_C 	C 	0.4281	0.732	0.5795	0.597
Mof_O 	O 	0.5842	0.7254	0.5533	-0.728
Mof_O 	O 	0.2732	0.7398	0.55259	-0.743
Mof_O 	O 	0.7054	0.8523	0.5382	-0.625
Mof_O 	O 	0.4525	0.8357	0.481	-0.602
Mof_C 	C 	0.569	0.87	0.5074	0.533
Mof_C 	C 	0.5358	0.938	0.5021	-0.136
Mof_C 	C 	0.4214	0.9617	0.4606	0.009
Mof_H 	H 	0.3673	0.9358	0.4334	0.044
Mof_C 	C 	0.6166	0.9763	0.5424	-0.004
Mof_H 	H 	0.6956	0.9609	0.5711	0.038
Mof_N 	N 	0.386	0.6253	0.6559	0.103
Mof_O 	O 	0.359	0.6201	0.6046	-0.53
Mof_O 	O 	0.386	0.5803	0.6879	-0.087
Mof_Pr	Pr	0.07816	0.26792	0.94934	2.626
Mof_O 	O 	0.0951	0.1909	0.3487	-0.476
Mof_O 	O 	0.0633	0.2902	0.3582	-0.446
Mof_C 	C 	0.0775	0.2434	0.3264	0.26
Mof_C 	C 	0.077	0.2497	0.2621	0.072
Mof_C 	C 	0.0671	0.3082	0.239	-0.196
Mof_H 	H 	0.0596	0.3424	0.2625	0.147
Mof_C 	C 	0.0688	0.3133	0.1799	0.229
Mof_N 	N 	0.014	0.3736	0.1559	-0.172
Mof_O 	O 	0.059	0.3834	0.1056	0.406
Mof_O 	O 	0.939	0.4139	0.1842	-0.05
Mof_C 	C 	0.0732	0.2639	0.1425	-0.297
Mof_C 	C 	0.0855	0.2055	0.1672	0.15
Mof_H 	H 	0.0947	0.1709	0.1443	-0.054
Mof_C 	C 	0.0836	0.2011	0.2273	-0.177
Mof_H 	H 	0.0871	0.1626	0.2438	0.107
Mof_C 	C 	0.0719	0.268	0.0795	0.591
Mof_O 	O 	0.9158	0.2746	0.0533	-0.721
Mof_O 	O 	0.2268	0.2602	0.05259	-0.744
Mof_O 	O 	0.7946	0.1477	0.0382	-0.627
Mof_O 	O 	0.0475	0.1643	0.981	-0.606
Mof_C 	C 	0.931	0.13	0.0074	0.539
Mof_C 	C 	0.9642	0.062	0.0021	-0.135
Mof_C 	C 	0.0786	0.0383	0.9606	0.004
Mof_H 	H 	0.1327	0.0642	0.9334	0.044
Mof_C 	C 	0.8834	0.0237	0.0424	-0.002
Mof_H 	H 	0.8044	0.0391	0.0711	0.037
Mof_N 	N 	0.114	0.3747	0.1559	0.108
Mof_O 	O 	0.141	0.3799	0.1046	-0.544
Mof_O 	O 	0.114	0.4197	0.1879	-0.09
Mof_Pr	Pr	0.42184	0.76792	0.94934	2.639
Mof_O 	O 	0.4049	0.6909	0.3487	-0.475
Mof_O 	O 	0.4367	0.7902	0.3582	-0.445
Mof_C 	C 	0.4225	0.7434	0.3264	0.261
Mof_C 	C 	0.423	0.7497	0.2621	0.075
Mof_C 	C 	0.4329	0.8082	0.239	-0.195
Mof_H 	H 	0.4404	0.8424	0.2625	0.148
Mof_C 	C 	0.4312	0.8133	0.1799	0.231
Mof_N 	N 	0.486	0.8736	0.1559	-0.162
Mof_O 	O 	0.441	0.8834	0.1056	0.381
Mof_O 	O 	0.561	0.9139	0.1842	-0.056
Mof_C 	C 	0.4268	0.7639	0.1425	-0.297
Mof_C 	C 	0.4145	0.7055	0.1672	0.153
Mof_H 	H 	0.4053	0.6709	0.1443	-0.053
Mof_C 	C 	0.4164	0.7011	0.2273	-0.176
Mof_H 	H 	0.4129	0.6626	0.2438	0.108
Mof_C 	C 	0.4281	0.768	0.0795	0.597
Mof_O 	O 	0.5842	0.7746	0.0533	-0.727
Mof_O 	O 	0.2732	0.7602	0.05259	-0.742
Mof_O 	O 	0.7054	0.6477	0.0382	-0.625
Mof_O 	O 	0.4525	0.6643	0.981	-0.602
Mof_C 	C 	0.569	0.63	0.0074	0.534
Mof_C 	C 	0.5358	0.562	0.0021	-0.136
Mof_C 	C 	0.4214	0.5383	0.9606	0.008
Mof_H 	H 	0.3673	0.5642	0.9334	0.044
Mof_C 	C 	0.6166	0.5237	0.0424	-0.003
Mof_H 	H 	0.6956	0.5391	0.0711	0.038
Mof_N 	N 	0.386	0.8747	0.1559	0.1
Mof_O 	O 	0.359	0.8799	0.1046	-0.518
Mof_O 	O 	0.386	0.9197	0.1879	-0.086
Mof_Pr	Pr	0.07816	0.23208	0.44934	2.626
Mof_O 	O 	0.0951	0.3091	0.8487	-0.476
Mof_O 	O 	0.0633	0.2098	0.8582	-0.446
Mof_C 	C 	0.0775	0.2566	0.8264	0.26
Mof_C 	C 	0.077	0.2503	0.7621	0.072
Mof_C 	C 	0.0671	0.1918	0.739	-0.195
Mof_H 	H 	0.0596	0.1576	0.7625	0.146
Mof_C 	C 	0.0688	0.1867	0.6799	0.228
Mof_N 	N 	0.014	0.1264	0.6559	-0.173
Mof_O 	O 	0.059	0.1166	0.6056	0.402
Mof_O 	O 	0.939	0.0861	0.6842	-0.048
Mof_C 	C 	0.0732	0.2361	0.6425	-0.297
Mof_C 	C 	0.0855	0.2945	0.6672	0.15
Mof_H 	H 	0.0947	0.3291	0.6443	-0.053
Mof_C 	C 	0.0836	0.2989	0.7273	-0.177
Mof_H 	H 	0.0871	0.3374	0.7438	0.107
Mof_C 	C 	0.0719	0.232	0.5795	0.589
Mof_O 	O 	0.9158	0.2254	0.5533	-0.72
Mof_O 	O 	0.2268	0.2398	0.55259	-0.743
Mof_O 	O 	0.7946	0.3523	0.5382	-0.627
Mof_O 	O 	0.0475	0.3357	0.481	-0.606
Mof_C 	C 	0.931	0.37	0.5074	0.54
Mof_C 	C 	0.9642	0.438	0.5021	-0.136
Mof_C 	C 	0.0786	0.4617	0.4606	0.005
Mof_H 	H 	0.1327	0.4358	0.4334	0.044
Mof_C 	C 	0.8834	0.4763	0.5424	-0.003
Mof_H 	H 	0.8044	0.4609	0.5711	0.038
Mof_N 	N 	0.114	0.1253	0.6559	0.108
Mof_O 	O 	0.141	0.1201	0.6046	-0.541
Mof_O 	O 	0.114	0.0803	0.6879	-0.092
Mof_Pr	Pr	0.57816	0.26792	0.55066	2.639
Mof_O 	O 	0.5951	0.1909	0.1513	-0.475
Mof_O 	O 	0.5633	0.2902	0.1418	-0.445
Mof_C 	C 	0.5775	0.2434	0.1736	0.261
Mof_C 	C 	0.577	0.2497	0.2379	0.075
Mof_C 	C 	0.5671	0.3082	0.261	-0.195
Mof_H 	H 	0.5596	0.3424	0.2375	0.148
Mof_C 	C 	0.5688	0.3133	0.3201	0.231
Mof_N 	N 	0.514	0.3736	0.3441	-0.165
Mof_O 	O 	0.559	0.3834	0.3944	0.393
Mof_O 	O 	0.439	0.4139	0.3158	-0.055
Mof_C 	C 	0.5732	0.2639	0.3575	-0.297
Mof_C 	C 	0.5855	0.2055	0.3328	0.153
Mof_H 	H 	0.5947	0.1709	0.3557	-0.053
Mof_C 	C 	0.5836	0.2011	0.2727	-0.177
Mof_H 	H 	0.5871	0.1626	0.2562	0.108
Mof_C 	C 	0.5719	0.268	0.4205	0.597
Mof_O 	O 	0.4158	0.2746	0.4467	-0.728
Mof_O 	O 	0.7268	0.2602	0.44741	-0.743
Mof_O 	O 	0.2946	0.1477	0.4618	-0.625
Mof_O 	O 	0.5475	0.1643	0.519	-0.602
Mof_C 	C 	0.431	0.13	0.4926	0.533
Mof_C 	C 	0.4642	0.062	0.4979	-0.136
Mof_C 	C 	0.5786	0.0383	0.5394	0.009
Mof_H 	H 	0.6327	0.0642	0.5666	0.044
Mof_C 	C 	0.3834	0.0237	0.4576	-0.004
Mof_H 	H 	0.3044	0.0391	0.4289	0.038
Mof_N 	N 	0.614	0.3747	0.3441	0.103
Mof_O 	O 	0.641	0.3799	0.3954	-0.53
Mof_O 	O 	0.614	0.4197	0.3121	-0.087
Mof_Pr	Pr	0.92184	0.73208	0.05066	2.626
Mof_O 	O 	0.9049	0.8091	0.6513	-0.476
Mof_O 	O 	0.9367	0.7098	0.6418	-0.446
Mof_C 	C 	0.9225	0.7566	0.6736	0.26
Mof_C 	C 	0.923	0.7503	0.7379	0.072
Mof_C 	C 	0.9329	0.6918	0.761	-0.196
Mof_H 	H 	0.9404	0.6576	0.7375	0.147
Mof_C 	C 	0.9312	0.6867	0.8201	0.229
Mof_N 	N 	0.986	0.6264	0.8441	-0.172
Mof_O 	O 	0.941	0.6166	0.8944	0.406
Mof_O 	O 	0.061	0.5861	0.8158	-0.05
Mof_C 	C 	0.9268	0.7361	0.8575	-0.297
Mof_C 	C 	0.9145	0.7945	0.8328	0.15
Mof_H 	H 	0.9053	0.8291	0.8557	-0.054
Mof_C 	C 	0.9164	0.7989	0.7727	-0.177
Mof_H 	H 	0.9129	0.8374	0.7562	0.107
Mof_C 	C 	0.9281	0.732	0.9205	0.591
Mof_O 	O 	0.0842	0.7254	0.9467	-0.721
Mof_O 	O 	0.7732	0.7398	0.94741	-0.744
Mof_O 	O 	0.2054	0.8523	0.9618	-0.627
Mof_O 	O 	0.9525	0.8357	0.019	-0.606
Mof_C 	C 	0.069	0.87	0.9926	0.539
Mof_C 	C 	0.0358	0.938	0.9979	-0.135
Mof_C 	C 	0.9214	0.9617	0.0394	0.004
Mof_H 	H 	0.8673	0.9358	0.0666	0.044
Mof_C 	C 	0.1166	0.9763	0.9576	-0.002
Mof_H 	H 	0.1956	0.9609	0.9289	0.037
Mof_N 	N 	0.886	0.6253	0.8441	0.108
Mof_O 	O 	0.859	0.6201	0.8954	-0.544
Mof_O 	O 	0.886	0.5803	0.8121	-0.09
_end
