# CIF file generated by openbabel 3.1.0, see https://openbabel.org
data_I
_chemical_name_common 'image0'
_cell_length_a 15.577
_cell_length_b 16.394
_cell_length_c 12.593
_cell_angle_alpha 90
_cell_angle_beta 92.84
_cell_angle_gamma 90
_space_group_name_H-M_alt 'P 1'
_space_group_name_Hall 'P 1'
loop_
    _symmetry_equiv_pos_as_xyz
    x,y,z
loop_
    _atom_site_label
    _atom_site_type_symbol
    _atom_site_fract_x
    _atom_site_fract_y
    _atom_site_fract_z
    _atom_site_occupancy
    Gd1      Gd       0.12131    0.18800    0.90939    1.000
    S1       S        0.10586    0.21912    0.66557    1.000
    S2       S        0.18587    0.34943    0.07620    1.000
    O1       O        0.05450    0.06170    0.90020    1.000
    O2       O        0.10200    0.14120    0.72620    1.000
    O3       O        0.08600    0.14400    0.07540    1.000
    O4       O        0.02240    0.23330    0.60790    1.000
    O5       O        0.13120    0.31690    0.99000    1.000
    O6       O        0.12120    0.28270    0.74880    1.000
    O7       O        0.07370    0.04280    0.18530    1.000
    O8       O        0.17460    0.21780    0.59390    1.000
    O9       O        0.25620    0.39760    0.03560    1.000
    C1       C        0.06560    0.07310    0.09490    1.000
    O10      O        0.13150    0.39160    0.14710    1.000
    O11      O        0.23080    0.28280    0.13170    1.000
    C2       C        0.03740    0.02040    0.99640    1.000
    H1       H        0.08010    0.97640    0.99870    1.000
    Gd2      Gd       0.62131    0.68800    0.90939    1.000
    S3       S        0.60586    0.71912    0.66557    1.000
    S4       S        0.68587    0.84943    0.07620    1.000
    O12      O        0.55450    0.56170    0.90020    1.000
    O13      O        0.60200    0.64120    0.72620    1.000
    O14      O        0.58600    0.64400    0.07540    1.000
    O15      O        0.52240    0.73330    0.60790    1.000
    O16      O        0.63120    0.81690    0.99000    1.000
    O17      O        0.62120    0.78270    0.74880    1.000
    O18      O        0.57370    0.54280    0.18530    1.000
    O19      O        0.67460    0.71780    0.59390    1.000
    O20      O        0.75620    0.89760    0.03560    1.000
    C3       C        0.56560    0.57310    0.09490    1.000
    O21      O        0.63150    0.89160    0.14710    1.000
    O22      O        0.73080    0.78280    0.13170    1.000
    C4       C        0.53740    0.52040    0.99640    1.000
    H2       H        0.58010    0.47640    0.99870    1.000
    Gd3      Gd       0.87869    0.18800    0.59061    1.000
    S5       S        0.89414    0.21912    0.83443    1.000
    S6       S        0.81413    0.34943    0.42380    1.000
    O23      O        0.94550    0.06170    0.59980    1.000
    O24      O        0.89800    0.14120    0.77380    1.000
    O25      O        0.91400    0.14400    0.42460    1.000
    O26      O        0.97760    0.23330    0.89210    1.000
    O27      O        0.86880    0.31690    0.51000    1.000
    O28      O        0.87880    0.28270    0.75120    1.000
    O29      O        0.92630    0.04280    0.31470    1.000
    O30      O        0.82540    0.21780    0.90610    1.000
    O31      O        0.74380    0.39760    0.46440    1.000
    C5       C        0.93440    0.07310    0.40510    1.000
    O32      O        0.86850    0.39160    0.35290    1.000
    O33      O        0.76920    0.28280    0.36830    1.000
    C6       C        0.96260    0.02040    0.50360    1.000
    H3       H        0.91990    0.97640    0.50130    1.000
    Gd4      Gd       0.37869    0.68800    0.59061    1.000
    S7       S        0.39414    0.71912    0.83443    1.000
    S8       S        0.31413    0.84943    0.42380    1.000
    O34      O        0.44550    0.56170    0.59980    1.000
    O35      O        0.39800    0.64120    0.77380    1.000
    O36      O        0.41400    0.64400    0.42460    1.000
    O37      O        0.47760    0.73330    0.89210    1.000
    O38      O        0.36880    0.81690    0.51000    1.000
    O39      O        0.37880    0.78270    0.75120    1.000
    O40      O        0.42630    0.54280    0.31470    1.000
    O41      O        0.32540    0.71780    0.90610    1.000
    O42      O        0.24380    0.89760    0.46440    1.000
    C7       C        0.43440    0.57310    0.40510    1.000
    O43      O        0.36850    0.89160    0.35290    1.000
    O44      O        0.26920    0.78280    0.36830    1.000
    C8       C        0.46260    0.52040    0.50360    1.000
    H4       H        0.41990    0.47640    0.50130    1.000
    Gd5      Gd       0.87869    0.81200    0.09061    1.000
    S9       S        0.89414    0.78088    0.33443    1.000
    S10      S        0.81413    0.65057    0.92380    1.000
    O45      O        0.94550    0.93830    0.09980    1.000
    O46      O        0.89800    0.85880    0.27380    1.000
    O47      O        0.91400    0.85600    0.92460    1.000
    O48      O        0.97760    0.76670    0.39210    1.000
    O49      O        0.86880    0.68310    0.01000    1.000
    O50      O        0.87880    0.71730    0.25120    1.000
    O51      O        0.92630    0.95720    0.81470    1.000
    O52      O        0.82540    0.78220    0.40610    1.000
    O53      O        0.74380    0.60240    0.96440    1.000
    C9       C        0.93440    0.92690    0.90510    1.000
    O54      O        0.86850    0.60840    0.85290    1.000
    O55      O        0.76920    0.71720    0.86830    1.000
    C10      C        0.96260    0.97960    0.00360    1.000
    H5       H        0.91990    0.02360    0.00130    1.000
    Gd6      Gd       0.37869    0.31200    0.09061    1.000
    S11      S        0.39414    0.28088    0.33443    1.000
    S12      S        0.31413    0.15057    0.92380    1.000
    O56      O        0.44550    0.43830    0.09980    1.000
    O57      O        0.39800    0.35880    0.27380    1.000
    O58      O        0.41400    0.35600    0.92460    1.000
    O59      O        0.47760    0.26670    0.39210    1.000
    O60      O        0.36880    0.18310    0.01000    1.000
    O61      O        0.37880    0.21730    0.25120    1.000
    O62      O        0.42630    0.45720    0.81470    1.000
    O63      O        0.32540    0.28220    0.40610    1.000
    O64      O        0.24380    0.10240    0.96440    1.000
    C11      C        0.43440    0.42690    0.90510    1.000
    O65      O        0.36850    0.10840    0.85290    1.000
    O66      O        0.26920    0.21720    0.86830    1.000
    C12      C        0.46260    0.47960    0.00360    1.000
    H6       H        0.41990    0.52360    0.00130    1.000
    Gd7      Gd       0.12131    0.81200    0.40939    1.000
    S13      S        0.10586    0.78088    0.16557    1.000
    S14      S        0.18587    0.65057    0.57620    1.000
    O67      O        0.05450    0.93830    0.40020    1.000
    O68      O        0.10200    0.85880    0.22620    1.000
    O69      O        0.08600    0.85600    0.57540    1.000
    O70      O        0.02240    0.76670    0.10790    1.000
    O71      O        0.13120    0.68310    0.49000    1.000
    O72      O        0.12120    0.71730    0.24880    1.000
    O73      O        0.07370    0.95720    0.68530    1.000
    O74      O        0.17460    0.78220    0.09390    1.000
    O75      O        0.25620    0.60240    0.53560    1.000
    C13      C        0.06560    0.92690    0.59490    1.000
    O76      O        0.13150    0.60840    0.64710    1.000
    O77      O        0.23080    0.71720    0.63170    1.000
    C14      C        0.03740    0.97960    0.49640    1.000
    H7       H        0.08010    0.02360    0.49870    1.000
    Gd8      Gd       0.62131    0.31200    0.40939    1.000
    S15      S        0.60586    0.28088    0.16557    1.000
    S16      S        0.68587    0.15057    0.57620    1.000
    O78      O        0.55450    0.43830    0.40020    1.000
    O79      O        0.60200    0.35880    0.22620    1.000
    O80      O        0.58600    0.35600    0.57540    1.000
    O81      O        0.52240    0.26670    0.10790    1.000
    O82      O        0.63120    0.18310    0.49000    1.000
    O83      O        0.62120    0.21730    0.24880    1.000
    O84      O        0.57370    0.45720    0.68530    1.000
    O85      O        0.67460    0.28220    0.09390    1.000
    O86      O        0.75620    0.10240    0.53560    1.000
    C15      C        0.56560    0.42690    0.59490    1.000
    O87      O        0.63150    0.10840    0.64710    1.000
    O88      O        0.73080    0.21720    0.63170    1.000
    C16      C        0.53740    0.47960    0.49640    1.000
    H8       H        0.58010    0.52360    0.49870    1.000
    Fe1      Fe       0.00000    0.04840    0.75000    1.000
    Fe2      Fe       0.50000    0.54840    0.75000    1.000
    Fe3      Fe       0.00000    0.95160    0.25000    1.000
    Fe4      Fe       0.50000    0.45160    0.25000    1.000
