data_functionalizedCrystal
_audit_creation_method	'EQeq! by Chris Wilmer'
_symmetry_space_group_name_H-M	'P1'
_symmetry_Int_Tables_number	1
_symmetry_cell_setting	triclinic
loop_
_symmetry_equiv_pos_as_xyz
  x,y,z
_cell_length_a	13.346
_cell_length_b	16.1864
_cell_length_c	17.7807
_cell_angle_alpha	112.598
_cell_angle_beta	107.375
_cell_angle_gamma	97.625
loop_
_atom_site_label
_atom_site_type_symbol
_atom_site_fract_x
_atom_site_fract_y
_atom_site_fract_z
_atom_site_charge
Mof_Cd	Cd	0.06721	0.61608	0.59303	0.422
Mof_Cd	Cd	0.16268	0.54385	0.38386	0.505
Mof_Cd	Cd	0.93279	0.38392	0.40697	0.422
Mof_Cd	Cd	0.83732	0.45615	0.61614	0.505
Mof_H 	H 	0.4543	0.3487	0.6327	0.133
Mof_H 	H 	0.4463	0.5079	0.1046	0.127
Mof_H 	H 	0.537	0.3811	0.9328	0.042
Mof_H 	H 	0.5632	0.3139	0.8516	0.046
Mof_H 	H 	0.1121	0.9843	0.6727	0.12
Mof_H 	H 	0.3402	0.3616	0.8361	0.042
Mof_H 	H 	0.2666	0.2595	0.7607	0.046
Mof_H 	H 	0.8313	0.2996	0.1868	-0.004
Mof_H 	H 	0.1988	0.3515	0.7125	0.115
Mof_H 	H 	0.6758	0.2187	0.0549	0.122
Mof_H 	H 	0.4254	0.0129	0.6873	0.118
Mof_H 	H 	0.0689	0.8233	0.5784	0.004
Mof_H 	H 	0.6948	0.4514	0.0172	0.117
Mof_H 	H 	0.8496	0.5306	0.1496	0.008
Mof_H 	H 	0.3923	0.2165	0.9416	0.049
Mof_H 	H 	0.2808	0.2282	0.885	0.04
Mof_H 	H 	0.3739	0.4108	0.5402	0.017
Mof_H 	H 	0.2418	0.2485	0.0064	0.118
Mof_H 	H 	0.3765	0.8548	0.5871	0.012
Mof_H 	H 	0.1912	0.2998	0.1257	0.008
Mof_H 	H 	0.4548	0.134	0.8212	0.049
Mof_H 	H 	0.4344	0.1621	0.7416	0.051
Mof_H 	H 	0.3945	0.5563	0.2209	0.006
Mof_H 	H 	0.1198	0.4113	0.6165	0.018
Mof_H 	H 	0.5457	0.6513	0.3673	0.132
Mof_H 	H 	0.5537	0.4921	0.8954	0.126
Mof_H 	H 	0.463	0.6189	0.0672	0.042
Mof_H 	H 	0.4368	0.6861	0.1484	0.046
Mof_H 	H 	0.8879	0.0157	0.3273	0.12
Mof_H 	H 	0.6598	0.6384	0.1639	0.042
Mof_H 	H 	0.7334	0.7405	0.2393	0.046
Mof_H 	H 	0.1687	0.7004	0.8132	-0.004
Mof_H 	H 	0.8012	0.6485	0.2875	0.115
Mof_H 	H 	0.3242	0.7813	0.9451	0.122
Mof_H 	H 	0.5746	0.9871	0.3127	0.118
Mof_H 	H 	0.9311	0.1767	0.4216	0.004
Mof_H 	H 	0.3052	0.5486	0.9828	0.117
Mof_H 	H 	0.1504	0.4694	0.8504	0.008
Mof_H 	H 	0.6077	0.7835	0.0584	0.049
Mof_H 	H 	0.7192	0.7718	0.115	0.04
Mof_H 	H 	0.6261	0.5892	0.4598	0.017
Mof_H 	H 	0.7582	0.7515	0.9936	0.118
Mof_H 	H 	0.6235	0.1452	0.4129	0.012
Mof_H 	H 	0.8088	0.7002	0.8743	0.008
Mof_H 	H 	0.5452	0.866	0.1788	0.049
Mof_H 	H 	0.5656	0.8379	0.2584	0.051
Mof_H 	H 	0.6055	0.4437	0.7791	0.006
Mof_H 	H 	0.8802	0.5887	0.3835	0.018
Mof_C 	C 	0.3866	0.3622	0.6305	-0.224
Mof_C 	C 	0.394	0.4654	0.1084	-0.242
Mof_C 	C 	0.5304	0.3155	0.8951	0.016
Mof_C 	C 	0.1664	0.9576	0.6569	-0.22
Mof_C 	C 	0.3425	0.3004	0.7953	0.013
Mof_C 	C 	0.8041	0.3306	0.1527	0.122
Mof_C 	C 	0.2349	0.3635	0.6776	-0.222
Mof_C 	C 	0.7115	0.2821	0.0739	-0.231
Mof_C 	C 	0.3526	0.975	0.6649	-0.237
Mof_C 	C 	0.1411	0.8618	0.5993	0.107
Mof_C 	C 	0.7225	0.4204	0.0512	-0.227
Mof_C 	C 	0.8144	0.467	0.1301	0.117
Mof_C 	C 	0.3613	0.2549	0.9139	0.012
Mof_C 	C 	0.3384	0.3985	0.5754	0.118
Mof_C 	C 	0.2727	0.3114	0.0502	-0.239
Mof_C 	C 	0.4091	0.257	0.8478	0.017
Mof_C 	C 	0.2748	0.0116	0.6898	0.259
Mof_C 	C 	0.2778	0.4389	0.183	-0.168
Mof_C 	C 	0.3226	0.88	0.6053	0.118
Mof_C 	C 	0.3358	0.3452	0.6831	0.249
Mof_C 	C 	0.2444	0.4695	0.2568	0.34
Mof_C 	C 	0.6729	0.327	0.0244	0.259
Mof_C 	C 	0.2401	0.3428	0.1195	0.126
Mof_C 	C 	0.4073	0.1599	0.7871	0.002
Mof_C 	C 	0.856	0.4227	0.181	-0.164
Mof_C 	C 	0.1912	0.4621	0.5135	0.312
Mof_C 	C 	0.2394	0.4177	0.5702	-0.155
Mof_C 	C 	0.3603	0.4943	0.1755	0.138
Mof_C 	C 	0.1885	0.3993	0.6207	0.111
Mof_C 	C 	0.3518	0.3717	0.0433	0.266
Mof_C 	C 	0.1929	0.7236	0.5123	0.324
Mof_C 	C 	0.218	0.8217	0.572	-0.166
Mof_C 	C 	0.9552	0.4732	0.2618	0.329
Mof_C 	C 	0.6134	0.6378	0.3695	-0.224
Mof_C 	C 	0.606	0.5346	0.8916	-0.242
Mof_C 	C 	0.4696	0.6845	0.1049	0.016
Mof_C 	C 	0.8336	0.0424	0.3431	-0.22
Mof_C 	C 	0.6575	0.6996	0.2047	0.013
Mof_C 	C 	0.1959	0.6694	0.8473	0.122
Mof_C 	C 	0.7651	0.6365	0.3224	-0.222
Mof_C 	C 	0.2885	0.7179	0.9261	-0.231
Mof_C 	C 	0.6474	0.025	0.3351	-0.237
Mof_C 	C 	0.8589	0.1382	0.4007	0.107
Mof_C 	C 	0.2775	0.5796	0.9488	-0.227
Mof_C 	C 	0.1856	0.533	0.8699	0.117
Mof_C 	C 	0.6387	0.7451	0.0861	0.012
Mof_C 	C 	0.6616	0.6015	0.4246	0.118
Mof_C 	C 	0.7273	0.6886	0.9498	-0.239
Mof_C 	C 	0.5909	0.743	0.1522	0.017
Mof_C 	C 	0.7252	0.9884	0.3102	0.259
Mof_C 	C 	0.7222	0.5611	0.817	-0.168
Mof_C 	C 	0.6774	0.12	0.3947	0.118
Mof_C 	C 	0.6642	0.6548	0.3169	0.249
Mof_C 	C 	0.7556	0.5305	0.7432	0.34
Mof_C 	C 	0.3271	0.673	0.9756	0.259
Mof_C 	C 	0.7599	0.6572	0.8805	0.126
Mof_C 	C 	0.5927	0.8401	0.2129	0.002
Mof_C 	C 	0.144	0.5773	0.819	-0.164
Mof_C 	C 	0.8088	0.5379	0.4865	0.312
Mof_C 	C 	0.7606	0.5823	0.4298	-0.155
Mof_C 	C 	0.6397	0.5057	0.8245	0.138
Mof_C 	C 	0.8115	0.6007	0.3793	0.111
Mof_C 	C 	0.6482	0.6283	0.9567	0.266
Mof_C 	C 	0.8071	0.2764	0.4877	0.324
Mof_C 	C 	0.782	0.1783	0.428	-0.166
Mof_C 	C 	0.0448	0.5268	0.7382	0.329
Mof_O 	O 	0.2948	0.102	0.7459	-0.24
Mof_O 	O 	0.0165	0.547	0.276	-0.27
Mof_O 	O 	0.584	0.2736	0.9475	-0.237
Mof_O 	O 	0.242	0.481	0.4704	-0.275
Mof_O 	O 	0.098	0.4803	0.513	-0.297
Mof_O 	O 	0.39	0.3511	0.9796	-0.248
Mof_O 	O 	0.9778	0.4385	0.3179	-0.297
Mof_O 	O 	0.3908	0.3118	0.738	-0.239
Mof_O 	O 	0.1688	0.4158	0.2587	-0.262
Mof_O 	O 	0.1025	0.6664	0.4979	-0.289
Mof_O 	O 	0.2529	0.6945	0.4731	-0.273
Mof_O 	O 	0.2864	0.5524	0.3146	-0.263
Mof_O 	O 	0.7052	0.898	0.2541	-0.24
Mof_O 	O 	0.9835	0.453	0.724	-0.27
Mof_O 	O 	0.416	0.7264	0.0525	-0.237
Mof_O 	O 	0.758	0.519	0.5296	-0.275
Mof_O 	O 	0.902	0.5197	0.487	-0.297
Mof_O 	O 	0.61	0.6489	0.0204	-0.248
Mof_O 	O 	0.0222	0.5615	0.6821	-0.297
Mof_O 	O 	0.6092	0.6882	0.262	-0.239
Mof_O 	O 	0.8312	0.5842	0.7413	-0.262
Mof_O 	O 	0.8975	0.3336	0.5021	-0.289
Mof_O 	O 	0.7471	0.3055	0.5269	-0.273
Mof_O 	O 	0.7136	0.4476	0.6854	-0.263
_end
