# CIF file generated by openbabel 3.1.0, see https://openbabel.org
data_I
_chemical_name_common 'image0'
_cell_length_a 7.289
_cell_length_b 10.525
_cell_length_c 5.987
_cell_angle_alpha 92.16
_cell_angle_beta 102.74
_cell_angle_gamma 92.84
_space_group_name_H-M_alt 'P 1'
_space_group_name_Hall 'P 1'
loop_
    _symmetry_equiv_pos_as_xyz
    x,y,z
loop_
    _atom_site_label
    _atom_site_type_symbol
    _atom_site_fract_x
    _atom_site_fract_y
    _atom_site_fract_z
    _atom_site_occupancy
    Cs1      Cs       0.53640    0.23680    0.25110    1.000
    C1       C        0.10800    0.50500    0.01600    1.000
    C2       C        0.20500    0.09600    0.64300    1.000
    C3       C        0.07600    0.17800    0.46900    1.000
    Mn1      Mn       0.98960    0.23180    0.92620    1.000
    O1       O        0.18600    0.40200    0.00400    1.000
    O2       O        0.19000    0.61400    0.04600    1.000
    O3       O        0.19800    0.11000    0.84600    1.000
    O4       O        0.30500    0.02000    0.56100    1.000
    O5       O        0.09100    0.17400    0.26700    1.000
    O6       O        0.96400    0.24200    0.55300    1.000
    O7       O        0.75300    0.09100    0.87600    1.000
    Cs2      Cs       0.46360    0.76320    0.74890    1.000
    C4       C        0.89200    0.49500    0.98400    1.000
    C5       C        0.79500    0.90400    0.35700    1.000
    C6       C        0.92400    0.82200    0.53100    1.000
    Mn2      Mn       0.01040    0.76820    0.07380    1.000
    O8       O        0.81400    0.59800    0.99600    1.000
    O9       O        0.81000    0.38600    0.95400    1.000
    O10      O        0.80200    0.89000    0.15400    1.000
    O11      O        0.69500    0.98000    0.43900    1.000
    O12      O        0.90900    0.82600    0.73300    1.000
    O13      O        0.03600    0.75800    0.44700    1.000
    O14      O        0.24700    0.90900    0.12400    1.000
