data_functionalizedCrystal
_audit_creation_method	'EQeq! by Chris Wilmer'
_symmetry_space_group_name_H-M	'P1'
_symmetry_Int_Tables_number	1
_symmetry_cell_setting	triclinic
loop_
_symmetry_equiv_pos_as_xyz
  x,y,z
_cell_length_a	34.5146
_cell_length_b	34.5146
_cell_length_c	34.5146
_cell_angle_alpha	109.471
_cell_angle_beta	109.471
_cell_angle_gamma	109.471
loop_
_atom_site_label
_atom_site_type_symbol
_atom_site_fract_x
_atom_site_fract_y
_atom_site_fract_z
_atom_site_charge
Mof_Ce	Ce	0.5	0.5	-0	2.278
Mof_Ce	Ce	2.87349e-17	0.5	0.5	2.281
Mof_Ce	Ce	0.5	2.87349e-17	0.5	2.278
Mof_Ce	Ce	-0	0	-0	2.068
Mof_Ce	Ce	0.61713	0.61713	0.11713	2.764
Mof_Ce	Ce	-7.18373e-18	0.5	0.38287	2.611
Mof_Ce	Ce	0.5	0.88287	0.5	2.766
Mof_Ce	Ce	0.88287	0	-0	2.521
Mof_Ce	Ce	0.38287	0.38287	0.88287	2.765
Mof_Ce	Ce	5.74698e-17	0.5	0.61713	2.638
Mof_Ce	Ce	0.5	0.11713	0.5	2.763
Mof_Ce	Ce	0.11713	0	-0	2.513
Mof_H 	H 	0.7643	0.9042	0.0323	0.018
Mof_H 	H 	0.715	0.8396	0.027	0.116
Mof_H 	H 	0.7316	0.7571	0.9263	0.112
Mof_H 	H 	0.7834	0.8252	0.9324	0.023
Mof_H 	H 	0.5952	0.5892	0.9388	-0.009
Mof_H 	H 	0.6399	0.6521	0.933	0.144
Mof_H 	H 	0.6353	0.741	0.0405	0.141
Mof_H 	H 	0.5942	0.6759	0.0477	-0.029
Mof_H 	H 	0.3719	0.732	0.4677	0.01
Mof_H 	H 	0.3126	0.688	0.473	0.108
Mof_H 	H 	0.3308	0.8053	0.5737	0.107
Mof_H 	H 	0.3928	0.851	0.5676	0.022
Mof_H 	H 	0.1504	0.6564	0.5612	-0.01
Mof_H 	H 	0.2191	0.7069	0.567	0.134
Mof_H 	H 	0.2005	0.5948	0.4595	0.13
Mof_H 	H 	0.1282	0.5465	0.4523	-0.032
Mof_H 	H 	0.1281	0.5958	0.3601	0.005
Mof_H 	H 	0.1874	0.6604	0.3754	0.107
Mof_H 	H 	0.1692	0.7429	0.4745	0.104
Mof_H 	H 	0.1072	0.6748	0.4582	0.014
Mof_H 	H 	0.3496	0.9108	0.506	-0.004
Mof_H 	H 	0.2809	0.8479	0.4878	0.134
Mof_H 	H 	0.2995	0.759	0.3943	0.128
Mof_H 	H 	0.3718	0.8241	0.4183	-0.033
Mof_H 	H 	0.7357	0.768	0.1399	0.012
Mof_H 	H 	0.785	0.812	0.1246	0.113
Mof_H 	H 	0.7684	0.6947	0.0255	0.099
Mof_H 	H 	0.7166	0.649	0.0418	0.012
Mof_H 	H 	0.9048	0.8436	0.994	0.072
Mof_H 	H 	0.8601	0.7931	0.0122	0.093
Mof_H 	H 	0.8647	0.9052	0.1057	0.114
Mof_H 	H 	0.9058	0.9535	0.0817	0.006
Mof_H 	H 	0.8601	0.1281	0.0958	0.002
Mof_H 	H 	0.8754	0.1874	0.1604	0.107
Mof_H 	H 	0.9745	0.1692	0.2429	0.11
Mof_H 	H 	0.9582	0.1072	0.1748	0.021
Mof_H 	H 	0.006	0.3496	0.4108	-0.092
Mof_H 	H 	0.9878	0.2809	0.3479	0.175
Mof_H 	H 	0.8943	0.2995	0.259	0.149
Mof_H 	H 	0.9183	0.3718	0.3241	-0.054
Mof_H 	H 	0.6399	0.7357	0.268	0.012
Mof_H 	H 	0.6246	0.785	0.312	0.112
Mof_H 	H 	0.5255	0.7684	0.1947	0.103
Mof_H 	H 	0.5418	0.7166	0.149	0.016
Mof_H 	H 	0.494	0.9048	0.3436	-0.008
Mof_H 	H 	0.5122	0.8601	0.2931	0.133
Mof_H 	H 	0.6057	0.8647	0.4052	0.134
Mof_H 	H 	0.5817	0.9058	0.4535	-0.03
Mof_H 	H 	0.5323	0.7643	0.4042	0.011
Mof_H 	H 	0.527	0.715	0.3396	0.109
Mof_H 	H 	0.4263	0.7316	0.2571	0.101
Mof_H 	H 	0.4324	0.7834	0.3252	0.018
Mof_H 	H 	0.4388	0.5952	0.0892	-0.018
Mof_H 	H 	0.433	0.6399	0.1521	0.13
Mof_H 	H 	0.5405	0.6353	0.241	0.132
Mof_H 	H 	0.5477	0.5942	0.1759	-0.035
Mof_H 	H 	0.9677	0.3719	0.232	0.007
Mof_H 	H 	0.973	0.3126	0.188	0.1
Mof_H 	H 	0.0737	0.3308	0.3053	0.094
Mof_H 	H 	0.0676	0.3928	0.351	0.016
Mof_H 	H 	0.0612	0.1504	0.1564	-0.013
Mof_H 	H 	0.067	0.2191	0.2069	0.121
Mof_H 	H 	0.9595	0.2005	0.0948	0.118
Mof_H 	H 	0.9523	0.1282	0.0465	-0.041
Mof_H 	H 	0.732	0.9677	0.8719	0.014
Mof_H 	H 	0.688	0.973	0.8126	0.104
Mof_H 	H 	0.8053	0.0737	0.8308	0.099
Mof_H 	H 	0.851	0.0676	0.8928	0.026
Mof_H 	H 	0.6564	0.0612	0.6504	-0.011
Mof_H 	H 	0.7069	0.067	0.7191	0.127
Mof_H 	H 	0.5948	0.9595	0.7005	0.125
Mof_H 	H 	0.5465	0.9523	0.6282	-0.038
Mof_H 	H 	0.9042	0.5323	0.2643	0.016
Mof_H 	H 	0.8396	0.527	0.215	0.109
Mof_H 	H 	0.7571	0.4263	0.2316	0.1
Mof_H 	H 	0.8252	0.4324	0.2834	0.019
Mof_H 	H 	0.5892	0.4388	0.0952	-0.016
Mof_H 	H 	0.6521	0.433	0.1399	0.131
Mof_H 	H 	0.741	0.5405	0.1353	0.132
Mof_H 	H 	0.6759	0.5477	0.0942	-0.037
Mof_H 	H 	0.768	0.6399	0.2357	0.012
Mof_H 	H 	0.812	0.6246	0.285	0.112
Mof_H 	H 	0.6947	0.5255	0.2684	0.104
Mof_H 	H 	0.649	0.5418	0.2166	0.018
Mof_H 	H 	0.8436	0.494	0.4048	-0.008
Mof_H 	H 	0.7931	0.5122	0.3601	0.131
Mof_H 	H 	0.9052	0.6057	0.3647	0.134
Mof_H 	H 	0.9535	0.5817	0.4058	-0.02
Mof_H 	H 	0.5958	0.8601	0.6281	0.011
Mof_H 	H 	0.6604	0.8754	0.6874	0.111
Mof_H 	H 	0.7429	0.9745	0.6692	0.114
Mof_H 	H 	0.6748	0.9582	0.6072	0.026
Mof_H 	H 	0.9108	0.006	0.8496	-0.072
Mof_H 	H 	0.8479	0.9878	0.7809	0.174
Mof_H 	H 	0.759	0.8943	0.7995	0.149
Mof_H 	H 	0.8241	0.9183	0.8718	-0.045
Mof_H 	H 	0.2357	0.0958	0.9677	0.003
Mof_H 	H 	0.285	0.1604	0.973	0.101
Mof_H 	H 	0.2684	0.2429	0.0737	0.095
Mof_H 	H 	0.2166	0.1748	0.0676	0.015
Mof_H 	H 	0.4048	0.4108	0.0612	-0.012
Mof_H 	H 	0.3601	0.3479	0.067	0.122
Mof_H 	H 	0.3647	0.259	0.9595	0.121
Mof_H 	H 	0.4058	0.3241	0.9523	-0.039
Mof_H 	H 	0.6281	0.268	0.5323	0.01
Mof_H 	H 	0.6874	0.312	0.527	0.11
Mof_H 	H 	0.6692	0.1947	0.4263	0.101
Mof_H 	H 	0.6072	0.149	0.4324	0.015
Mof_H 	H 	0.8496	0.3436	0.4388	-0.008
Mof_H 	H 	0.7809	0.2931	0.433	0.13
Mof_H 	H 	0.7995	0.4052	0.5405	0.131
Mof_H 	H 	0.8718	0.4535	0.5477	-0.028
Mof_H 	H 	0.8719	0.4042	0.6399	0.016
Mof_H 	H 	0.8126	0.3396	0.6246	0.11
Mof_H 	H 	0.8308	0.2571	0.5255	0.103
Mof_H 	H 	0.8928	0.3252	0.5418	0.023
Mof_H 	H 	0.6504	0.0892	0.494	-0.017
Mof_H 	H 	0.7191	0.1521	0.5122	0.132
Mof_H 	H 	0.7005	0.241	0.6057	0.134
Mof_H 	H 	0.6282	0.1759	0.5817	-0.034
Mof_H 	H 	0.2643	0.232	0.8601	0.008
Mof_H 	H 	0.215	0.188	0.8754	0.105
Mof_H 	H 	0.2316	0.3053	0.9745	0.109
Mof_H 	H 	0.2834	0.351	0.9582	0.025
Mof_H 	H 	0.0952	0.1564	0.006	-0.093
Mof_H 	H 	0.1399	0.2069	0.9878	0.173
Mof_H 	H 	0.1353	0.0948	0.8943	0.146
Mof_H 	H 	0.0942	0.0465	0.9183	-0.061
Mof_H 	H 	0.1399	0.8719	0.9042	0.019
Mof_H 	H 	0.1246	0.8126	0.8396	0.11
Mof_H 	H 	0.0255	0.8308	0.7571	0.097
Mof_H 	H 	0.0418	0.8928	0.8252	0.018
Mof_H 	H 	0.994	0.6504	0.5892	0.073
Mof_H 	H 	0.0122	0.7191	0.6521	0.09
Mof_H 	H 	0.1057	0.7005	0.741	0.111
Mof_H 	H 	0.0817	0.6282	0.6759	-0.006
Mof_H 	H 	0.3601	0.2643	0.732	0.008
Mof_H 	H 	0.3754	0.215	0.688	0.106
Mof_H 	H 	0.4745	0.2316	0.8053	0.105
Mof_H 	H 	0.4582	0.2834	0.851	0.021
Mof_H 	H 	0.506	0.0952	0.6564	-0.014
Mof_H 	H 	0.4878	0.1399	0.7069	0.133
Mof_H 	H 	0.3943	0.1353	0.5948	0.128
Mof_H 	H 	0.4183	0.0942	0.5465	-0.038
Mof_H 	H 	0.4677	0.2357	0.5958	0.009
Mof_H 	H 	0.473	0.285	0.6604	0.108
Mof_H 	H 	0.5737	0.2684	0.7429	0.106
Mof_H 	H 	0.5676	0.2166	0.6748	0.019
Mof_H 	H 	0.5612	0.4048	0.9108	-0.004
Mof_H 	H 	0.567	0.3601	0.8479	0.136
Mof_H 	H 	0.4595	0.3647	0.759	0.13
Mof_H 	H 	0.4523	0.4058	0.8241	-0.032
Mof_H 	H 	0.0323	0.6281	0.768	0.014
Mof_H 	H 	0.027	0.6874	0.812	0.118
Mof_H 	H 	0.9263	0.6692	0.6947	0.114
Mof_H 	H 	0.9324	0.6072	0.649	0.021
Mof_H 	H 	0.9388	0.8496	0.8436	-0.002
Mof_H 	H 	0.933	0.7809	0.7931	0.141
Mof_H 	H 	0.0405	0.7995	0.9052	0.14
Mof_H 	H 	0.0477	0.8718	0.9535	-0.012
Mof_H 	H 	0.268	0.0323	0.1281	0.008
Mof_H 	H 	0.312	0.027	0.1874	0.113
Mof_H 	H 	0.1947	0.9263	0.1692	0.108
Mof_H 	H 	0.149	0.9324	0.1072	0.013
Mof_H 	H 	0.3436	0.9388	0.3496	-0.011
Mof_H 	H 	0.2931	0.933	0.2809	0.14
Mof_H 	H 	0.4052	0.0405	0.2995	0.138
Mof_H 	H 	0.4535	0.0477	0.3718	-0.029
Mof_H 	H 	0.0958	0.4677	0.7357	0.005
Mof_H 	H 	0.1604	0.473	0.785	0.109
Mof_H 	H 	0.2429	0.5737	0.7684	0.107
Mof_H 	H 	0.1748	0.5676	0.7166	0.019
Mof_H 	H 	0.4108	0.5612	0.9048	-0.006
Mof_H 	H 	0.3479	0.567	0.8601	0.135
Mof_H 	H 	0.259	0.4595	0.8647	0.131
Mof_H 	H 	0.3241	0.4523	0.9058	-0.031
Mof_H 	H 	0.232	0.3601	0.7643	0.008
Mof_H 	H 	0.188	0.3754	0.715	0.105
Mof_H 	H 	0.3053	0.4745	0.7316	0.104
Mof_H 	H 	0.351	0.4582	0.7834	0.019
Mof_H 	H 	0.1564	0.506	0.5952	-0.011
Mof_H 	H 	0.2069	0.4878	0.6399	0.133
Mof_H 	H 	0.0948	0.3943	0.6353	0.126
Mof_H 	H 	0.0465	0.4183	0.5942	-0.039
Mof_H 	H 	0.4042	0.1399	0.3719	0.009
Mof_H 	H 	0.3396	0.1246	0.3126	0.107
Mof_H 	H 	0.2571	0.0255	0.3308	0.094
Mof_H 	H 	0.3252	0.0418	0.3928	0.01
Mof_H 	H 	0.0892	0.994	0.1504	0.063
Mof_H 	H 	0.1521	0.0122	0.2191	0.085
Mof_H 	H 	0.241	0.1057	0.2005	0.108
Mof_H 	H 	0.1759	0.0817	0.1282	-0.007
Mof_C 	C 	0.81127	0.91461	0.98626	0.374
Mof_C 	C 	0.77885	0.87145	0.98272	-0.107
Mof_C 	C 	0.75771	0.87466	0.01105	0.082
Mof_C 	C 	0.7288	0.83643	0.00795	-0.233
Mof_C 	C 	0.71743	0.78985	0.97638	0.217
Mof_C 	C 	0.73841	0.78671	0.94774	-0.183
Mof_C 	C 	0.76922	0.82738	0.95112	0.092
Mof_C 	C 	0.56489	0.58636	0.99829	0.495
Mof_C 	C 	0.58918	0.62658	0.99284	-0.211
Mof_C 	C 	0.60359	0.61982	0.95933	0.179
Mof_C 	C 	0.62993	0.65671	0.95534	-0.271
Mof_C 	C 	0.64046	0.70085	0.98655	0.277
Mof_C 	C 	0.62765	0.71044	0.02065	-0.303
Mof_C 	C 	0.60215	0.67114	0.02393	0.15
Mof_C 	C 	0.42835	0.82501	0.51374	0.342
Mof_C 	C 	0.38873	0.79613	0.51728	-0.137
Mof_C 	C 	0.36361	0.74666	0.48895	0.109
Mof_C 	C 	0.32848	0.72085	0.49205	-0.194
Mof_C 	C 	0.31347	0.74105	0.52362	0.174
Mof_C 	C 	0.33897	0.79067	0.55226	-0.176
Mof_C 	C 	0.37626	0.8181	0.54888	0.088
Mof_C 	C 	0.08807	0.5666	0.50171	0.453
Mof_C 	C 	0.13374	0.59634	0.50716	-0.238
Mof_C 	C 	0.16049	0.64426	0.54067	0.169
Mof_C 	C 	0.20137	0.67459	0.54466	-0.255
Mof_C 	C 	0.2143	0.65391	0.51345	0.226
Mof_C 	C 	0.18979	0.607	0.47935	-0.253
Mof_C 	C 	0.14721	0.57822	0.47607	0.178
Mof_C 	C 	0.07165	0.58539	0.39666	0.343
Mof_C 	C 	0.11127	0.62855	0.4074	-0.145
Mof_C 	C 	0.13639	0.62534	0.38305	0.111
Mof_C 	C 	0.17152	0.66357	0.39237	-0.198
Mof_C 	C 	0.18653	0.71015	0.42758	0.174
Mof_C 	C 	0.16103	0.71329	0.4517	-0.181
Mof_C 	C 	0.12374	0.67262	0.44184	0.091
Mof_C 	C 	0.41193	0.91364	0.47853	0.453
Mof_C 	C 	0.36626	0.87342	0.4626	-0.235
Mof_C 	C 	0.33951	0.88018	0.48377	0.167
Mof_C 	C 	0.29863	0.84329	0.47322	-0.252
Mof_C 	C 	0.2857	0.79915	0.43961	0.223
Mof_C 	C 	0.31021	0.78956	0.41721	-0.252
Mof_C 	C 	0.35279	0.82886	0.43101	0.176
Mof_C 	C 	0.68873	0.67499	0.10334	0.343
Mof_C 	C 	0.72115	0.70387	0.0926	-0.142
Mof_C 	C 	0.74229	0.75334	0.11695	0.112
Mof_C 	C 	0.7712	0.77915	0.10763	-0.197
Mof_C 	C 	0.78257	0.75895	0.07242	0.173
Mof_C 	C 	0.76159	0.70933	0.0483	-0.181
Mof_C 	C 	0.73078	0.6819	0.05816	0.087
Mof_C 	C 	0.93511	0.9334	0.02147	0.366
Mof_C 	C 	0.91082	0.90366	0.0374	-0.14
Mof_C 	C 	0.89641	0.85574	0.01623	0.017
Mof_C 	C 	0.87007	0.82541	0.02678	-0.159
Mof_C 	C 	0.85954	0.84609	0.06039	0.17
Mof_C 	C 	0.87235	0.893	0.08279	-0.188
Mof_C 	C 	0.89785	0.92178	0.06899	0.1
Mof_C 	C 	0.89666	0.07165	0.08539	0.344
Mof_C 	C 	0.9074	0.11127	0.12855	-0.144
Mof_C 	C 	0.88305	0.13639	0.12534	0.113
Mof_C 	C 	0.89237	0.17152	0.16357	-0.197
Mof_C 	C 	0.92758	0.18653	0.21015	0.178
Mof_C 	C 	0.9517	0.16103	0.21329	-0.177
Mof_C 	C 	0.94184	0.12374	0.17262	0.094
Mof_C 	C 	0.97853	0.41193	0.41364	0.532
Mof_C 	C 	0.9626	0.36626	0.37342	-0.321
Mof_C 	C 	0.98377	0.33951	0.38018	0.327
Mof_C 	C 	0.97322	0.29863	0.34329	-0.349
Mof_C 	C 	0.93961	0.2857	0.29915	0.281
Mof_C 	C 	0.91721	0.31021	0.28956	-0.31
Mof_C 	C 	0.93101	0.35279	0.32886	0.249
Mof_C 	C 	0.60334	0.68873	0.17499	0.343
Mof_C 	C 	0.5926	0.72115	0.20387	-0.139
Mof_C 	C 	0.61695	0.74229	0.25334	0.111
Mof_C 	C 	0.60763	0.7712	0.27915	-0.195
Mof_C 	C 	0.57242	0.78257	0.25895	0.176
Mof_C 	C 	0.5483	0.76159	0.20933	-0.178
Mof_C 	C 	0.55816	0.73078	0.1819	0.09
Mof_C 	C 	0.52147	0.93511	0.4334	0.456
Mof_C 	C 	0.5374	0.91082	0.40366	-0.234
Mof_C 	C 	0.51623	0.89641	0.35574	0.17
Mof_C 	C 	0.52678	0.87007	0.32541	-0.253
Mof_C 	C 	0.56039	0.85954	0.34609	0.227
Mof_C 	C 	0.58279	0.87235	0.393	-0.252
Mof_C 	C 	0.56899	0.89785	0.42178	0.18
Mof_C 	C 	0.48626	0.81127	0.41461	0.342
Mof_C 	C 	0.48272	0.77885	0.37145	-0.138
Mof_C 	C 	0.51105	0.75771	0.37466	0.108
Mof_C 	C 	0.50795	0.7288	0.33643	-0.194
Mof_C 	C 	0.47638	0.71743	0.28985	0.172
Mof_C 	C 	0.44774	0.73841	0.28671	-0.177
Mof_C 	C 	0.45112	0.76922	0.32738	0.087
Mof_C 	C 	0.49829	0.56489	0.08636	0.46
Mof_C 	C 	0.49284	0.58918	0.12658	-0.246
Mof_C 	C 	0.45933	0.60359	0.11982	0.173
Mof_C 	C 	0.45534	0.62993	0.15671	-0.261
Mof_C 	C 	0.48655	0.64046	0.20085	0.226
Mof_C 	C 	0.52065	0.62765	0.21044	-0.258
Mof_C 	C 	0.52393	0.60215	0.17114	0.183
Mof_C 	C 	0.01374	0.42835	0.32501	0.296
Mof_C 	C 	0.01728	0.38873	0.29613	-0.166
Mof_C 	C 	0.98895	0.36361	0.24666	0.134
Mof_C 	C 	0.99205	0.32848	0.22085	-0.147
Mof_C 	C 	0.02362	0.31347	0.24105	0.123
Mof_C 	C 	0.05226	0.33897	0.29067	-0.166
Mof_C 	C 	0.04888	0.37626	0.3181	0.079
Mof_C 	C 	0.00171	0.08807	0.0666	0.411
Mof_C 	C 	0.00716	0.13374	0.09634	-0.268
Mof_C 	C 	0.04067	0.16049	0.14426	0.159
Mof_C 	C 	0.04466	0.20137	0.17459	-0.24
Mof_C 	C 	0.01345	0.2143	0.15391	0.17
Mof_C 	C 	0.97935	0.18979	0.107	-0.203
Mof_C 	C 	0.97607	0.14721	0.07822	0.209
Mof_C 	C 	0.82501	0.01374	0.92835	0.298
Mof_C 	C 	0.79613	0.01728	0.88873	-0.154
Mof_C 	C 	0.74666	0.98895	0.86361	0.128
Mof_C 	C 	0.72085	0.99205	0.82848	-0.147
Mof_C 	C 	0.74105	0.02362	0.81347	0.129
Mof_C 	C 	0.79067	0.05226	0.83897	-0.162
Mof_C 	C 	0.8181	0.04888	0.87626	0.078
Mof_C 	C 	0.5666	0.00171	0.58807	0.419
Mof_C 	C 	0.59634	0.00716	0.63374	-0.27
Mof_C 	C 	0.64426	0.04067	0.66049	0.165
Mof_C 	C 	0.67459	0.04466	0.70137	-0.244
Mof_C 	C 	0.65391	0.01345	0.7143	0.179
Mof_C 	C 	0.607	0.97935	0.68979	-0.209
Mof_C 	C 	0.57822	0.97607	0.64721	0.213
Mof_C 	C 	0.91461	0.48626	0.31127	0.336
Mof_C 	C 	0.87145	0.48272	0.27885	-0.133
Mof_C 	C 	0.87466	0.51105	0.25771	0.104
Mof_C 	C 	0.83643	0.50795	0.2288	-0.19
Mof_C 	C 	0.78985	0.47638	0.21743	0.17
Mof_C 	C 	0.78671	0.44774	0.23841	-0.174
Mof_C 	C 	0.82738	0.45112	0.26922	0.084
Mof_C 	C 	0.58636	0.49829	0.06489	0.457
Mof_C 	C 	0.62658	0.49284	0.08918	-0.247
Mof_C 	C 	0.61982	0.45933	0.10359	0.172
Mof_C 	C 	0.65671	0.45534	0.12993	-0.26
Mof_C 	C 	0.70085	0.48655	0.14046	0.226
Mof_C 	C 	0.71044	0.52065	0.12765	-0.259
Mof_C 	C 	0.67114	0.52393	0.10215	0.182
Mof_C 	C 	0.67499	0.60334	0.18873	0.343
Mof_C 	C 	0.70387	0.5926	0.22115	-0.138
Mof_C 	C 	0.75334	0.61695	0.24229	0.111
Mof_C 	C 	0.77915	0.60763	0.2712	-0.194
Mof_C 	C 	0.75895	0.57242	0.28257	0.175
Mof_C 	C 	0.70933	0.5483	0.26159	-0.177
Mof_C 	C 	0.6819	0.55816	0.23078	0.089
Mof_C 	C 	0.9334	0.52147	0.43511	0.445
Mof_C 	C 	0.90366	0.5374	0.41082	-0.228
Mof_C 	C 	0.85574	0.51623	0.39641	0.163
Mof_C 	C 	0.82541	0.52678	0.37007	-0.25
Mof_C 	C 	0.84609	0.56039	0.35954	0.223
Mof_C 	C 	0.893	0.58279	0.37235	-0.246
Mof_C 	C 	0.92178	0.56899	0.39785	0.172
Mof_C 	C 	0.58539	0.89666	0.57165	0.342
Mof_C 	C 	0.62855	0.9074	0.61127	-0.135
Mof_C 	C 	0.62534	0.88305	0.63639	0.11
Mof_C 	C 	0.66357	0.89237	0.67152	-0.192
Mof_C 	C 	0.71015	0.92758	0.68653	0.179
Mof_C 	C 	0.71329	0.9517	0.66103	-0.173
Mof_C 	C 	0.67262	0.94184	0.62374	0.092
Mof_C 	C 	0.91364	0.97853	0.91193	0.509
Mof_C 	C 	0.87342	0.9626	0.86626	-0.297
Mof_C 	C 	0.88018	0.98377	0.83951	0.3
Mof_C 	C 	0.84329	0.97322	0.79863	-0.329
Mof_C 	C 	0.79915	0.93961	0.7857	0.273
Mof_C 	C 	0.78956	0.91721	0.81021	-0.297
Mof_C 	C 	0.82886	0.93101	0.85279	0.233
Mof_C 	C 	0.18873	0.08539	0.01374	0.301
Mof_C 	C 	0.22115	0.12855	0.01728	-0.168
Mof_C 	C 	0.24229	0.12534	0.98895	0.137
Mof_C 	C 	0.2712	0.16357	0.99205	-0.151
Mof_C 	C 	0.28257	0.21015	0.02362	0.126
Mof_C 	C 	0.26159	0.21329	0.05226	-0.169
Mof_C 	C 	0.23078	0.17262	0.04888	0.082
Mof_C 	C 	0.43511	0.41364	0.00171	0.418
Mof_C 	C 	0.41082	0.37342	0.00716	-0.27
Mof_C 	C 	0.39641	0.38018	0.04067	0.162
Mof_C 	C 	0.37007	0.34329	0.04466	-0.242
Mof_C 	C 	0.35954	0.29915	0.01345	0.173
Mof_C 	C 	0.37235	0.28956	0.97935	-0.205
Mof_C 	C 	0.39785	0.32886	0.97607	0.211
Mof_C 	C 	0.57165	0.17499	0.48626	0.343
Mof_C 	C 	0.61127	0.20387	0.48272	-0.14
Mof_C 	C 	0.63639	0.25334	0.51105	0.11
Mof_C 	C 	0.67152	0.27915	0.50795	-0.195
Mof_C 	C 	0.68653	0.25895	0.47638	0.173
Mof_C 	C 	0.66103	0.20933	0.44774	-0.178
Mof_C 	C 	0.62374	0.1819	0.45112	0.089
Mof_C 	C 	0.91193	0.4334	0.49829	0.448
Mof_C 	C 	0.86626	0.40366	0.49284	-0.232
Mof_C 	C 	0.83951	0.35574	0.45933	0.164
Mof_C 	C 	0.79863	0.32541	0.45534	-0.251
Mof_C 	C 	0.7857	0.34609	0.48655	0.222
Mof_C 	C 	0.81021	0.393	0.52065	-0.25
Mof_C 	C 	0.85279	0.42178	0.52393	0.173
Mof_C 	C 	0.92835	0.41461	0.60334	0.339
Mof_C 	C 	0.88873	0.37145	0.5926	-0.13
Mof_C 	C 	0.86361	0.37466	0.61695	0.106
Mof_C 	C 	0.82848	0.33643	0.60763	-0.189
Mof_C 	C 	0.81347	0.28985	0.57242	0.173
Mof_C 	C 	0.83897	0.28671	0.5483	-0.172
Mof_C 	C 	0.87626	0.32738	0.55816	0.085
Mof_C 	C 	0.58807	0.08636	0.52147	0.46
Mof_C 	C 	0.63374	0.12658	0.5374	-0.246
Mof_C 	C 	0.66049	0.11982	0.51623	0.175
Mof_C 	C 	0.70137	0.15671	0.52678	-0.261
Mof_C 	C 	0.7143	0.20085	0.56039	0.229
Mof_C 	C 	0.68979	0.21044	0.58279	-0.258
Mof_C 	C 	0.64721	0.17114	0.56899	0.185
Mof_C 	C 	0.31127	0.32501	0.89666	0.342
Mof_C 	C 	0.27885	0.29613	0.9074	-0.135
Mof_C 	C 	0.25771	0.24666	0.88305	0.107
Mof_C 	C 	0.2288	0.22085	0.89237	-0.192
Mof_C 	C 	0.21743	0.24105	0.92758	0.175
Mof_C 	C 	0.23841	0.29067	0.9517	-0.173
Mof_C 	C 	0.26922	0.3181	0.94184	0.09
Mof_C 	C 	0.06489	0.0666	0.97853	0.526
Mof_C 	C 	0.08918	0.09634	0.9626	-0.323
Mof_C 	C 	0.10359	0.14426	0.98377	0.321
Mof_C 	C 	0.12993	0.17459	0.97322	-0.348
Mof_C 	C 	0.14046	0.15391	0.93961	0.278
Mof_C 	C 	0.12765	0.107	0.91721	-0.312
Mof_C 	C 	0.10215	0.07822	0.93101	0.247
Mof_C 	C 	0.10334	0.92835	0.91461	0.334
Mof_C 	C 	0.0926	0.88873	0.87145	-0.13
Mof_C 	C 	0.11695	0.86361	0.87466	0.103
Mof_C 	C 	0.10763	0.82848	0.83643	-0.189
Mof_C 	C 	0.07242	0.81347	0.78985	0.168
Mof_C 	C 	0.0483	0.83897	0.78671	-0.175
Mof_C 	C 	0.05816	0.87626	0.82738	0.08
Mof_C 	C 	0.02147	0.58807	0.58636	0.37
Mof_C 	C 	0.0374	0.63374	0.62658	-0.149
Mof_C 	C 	0.01623	0.66049	0.61982	0.009
Mof_C 	C 	0.02678	0.70137	0.65671	-0.159
Mof_C 	C 	0.06039	0.7143	0.70085	0.168
Mof_C 	C 	0.08279	0.68979	0.71044	-0.194
Mof_C 	C 	0.06899	0.64721	0.67114	0.103
Mof_C 	C 	0.39666	0.31127	0.82501	0.342
Mof_C 	C 	0.4074	0.27885	0.79613	-0.138
Mof_C 	C 	0.38305	0.25771	0.74666	0.107
Mof_C 	C 	0.39237	0.2288	0.72085	-0.194
Mof_C 	C 	0.42758	0.21743	0.74105	0.171
Mof_C 	C 	0.4517	0.23841	0.79067	-0.176
Mof_C 	C 	0.44184	0.26922	0.8181	0.087
Mof_C 	C 	0.47853	0.06489	0.5666	0.457
Mof_C 	C 	0.4626	0.08918	0.59634	-0.246
Mof_C 	C 	0.48377	0.10359	0.64426	0.172
Mof_C 	C 	0.47322	0.12993	0.67459	-0.26
Mof_C 	C 	0.43961	0.14046	0.65391	0.225
Mof_C 	C 	0.41721	0.12765	0.607	-0.258
Mof_C 	C 	0.43101	0.10215	0.57822	0.18
Mof_C 	C 	0.51374	0.18873	0.58539	0.343
Mof_C 	C 	0.51728	0.22115	0.62855	-0.139
Mof_C 	C 	0.48895	0.24229	0.62534	0.11
Mof_C 	C 	0.49205	0.2712	0.66357	-0.195
Mof_C 	C 	0.52362	0.28257	0.71015	0.175
Mof_C 	C 	0.55226	0.26159	0.71329	-0.177
Mof_C 	C 	0.54888	0.23078	0.67262	0.09
Mof_C 	C 	0.50171	0.43511	0.91364	0.453
Mof_C 	C 	0.50716	0.41082	0.87342	-0.235
Mof_C 	C 	0.54067	0.39641	0.88018	0.168
Mof_C 	C 	0.54466	0.37007	0.84329	-0.252
Mof_C 	C 	0.51345	0.35954	0.79915	0.226
Mof_C 	C 	0.47935	0.37235	0.78956	-0.252
Mof_C 	C 	0.47607	0.39785	0.82886	0.178
Mof_C 	C 	0.98626	0.57165	0.67499	0.385
Mof_C 	C 	0.98272	0.61127	0.70387	-0.11
Mof_C 	C 	0.01105	0.63639	0.75334	0.083
Mof_C 	C 	0.00795	0.67152	0.77915	-0.239
Mof_C 	C 	0.97638	0.68653	0.75895	0.223
Mof_C 	C 	0.94774	0.66103	0.70933	-0.186
Mof_C 	C 	0.95112	0.62374	0.6819	0.096
Mof_C 	C 	0.99829	0.91193	0.9334	0.473
Mof_C 	C 	0.99284	0.86626	0.90366	-0.19
Mof_C 	C 	0.95933	0.83951	0.85574	0.166
Mof_C 	C 	0.95534	0.79863	0.82541	-0.26
Mof_C 	C 	0.98655	0.7857	0.84609	0.272
Mof_C 	C 	0.02065	0.81021	0.893	-0.292
Mof_C 	C 	0.02393	0.85279	0.92178	0.134
Mof_C 	C 	0.17499	0.98626	0.07165	0.384
Mof_C 	C 	0.20387	0.98272	0.11127	-0.117
Mof_C 	C 	0.25334	0.01105	0.13639	0.085
Mof_C 	C 	0.27915	0.00795	0.17152	-0.242
Mof_C 	C 	0.25895	0.97638	0.18653	0.22
Mof_C 	C 	0.20933	0.94774	0.16103	-0.189
Mof_C 	C 	0.1819	0.95112	0.12374	0.097
Mof_C 	C 	0.4334	0.99829	0.41193	0.495
Mof_C 	C 	0.40366	0.99284	0.36626	-0.21
Mof_C 	C 	0.35574	0.95933	0.33951	0.177
Mof_C 	C 	0.32541	0.95534	0.29863	-0.27
Mof_C 	C 	0.34609	0.98655	0.2857	0.276
Mof_C 	C 	0.393	0.02065	0.31021	-0.303
Mof_C 	C 	0.42178	0.02393	0.35279	0.147
Mof_C 	C 	0.08539	0.51374	0.68873	0.345
Mof_C 	C 	0.12855	0.51728	0.72115	-0.142
Mof_C 	C 	0.12534	0.48895	0.74229	0.113
Mof_C 	C 	0.16357	0.49205	0.7712	-0.197
Mof_C 	C 	0.21015	0.52362	0.78257	0.176
Mof_C 	C 	0.21329	0.55226	0.76159	-0.179
Mof_C 	C 	0.17262	0.54888	0.73078	0.092
Mof_C 	C 	0.41364	0.50171	0.93511	0.456
Mof_C 	C 	0.37342	0.50716	0.91082	-0.234
Mof_C 	C 	0.38018	0.54067	0.89641	0.17
Mof_C 	C 	0.34329	0.54466	0.87007	-0.253
Mof_C 	C 	0.29915	0.51345	0.85954	0.227
Mof_C 	C 	0.28956	0.47935	0.87235	-0.252
Mof_C 	C 	0.32886	0.47607	0.89785	0.179
Mof_C 	C 	0.32501	0.39666	0.81127	0.342
Mof_C 	C 	0.29613	0.4074	0.77885	-0.139
Mof_C 	C 	0.24666	0.38305	0.75771	0.108
Mof_C 	C 	0.22085	0.39237	0.7288	-0.194
Mof_C 	C 	0.24105	0.42758	0.71743	0.172
Mof_C 	C 	0.29067	0.4517	0.73841	-0.177
Mof_C 	C 	0.3181	0.44184	0.76922	0.088
Mof_C 	C 	0.0666	0.47853	0.56489	0.456
Mof_C 	C 	0.09634	0.4626	0.58918	-0.242
Mof_C 	C 	0.14426	0.48377	0.60359	0.171
Mof_C 	C 	0.17459	0.47322	0.62993	-0.257
Mof_C 	C 	0.15391	0.43961	0.64046	0.225
Mof_C 	C 	0.107	0.41721	0.62765	-0.257
Mof_C 	C 	0.07822	0.43101	0.60215	0.179
Mof_C 	C 	0.41461	0.10334	0.42835	0.343
Mof_C 	C 	0.37145	0.0926	0.38873	-0.142
Mof_C 	C 	0.37466	0.11695	0.36361	0.108
Mof_C 	C 	0.33643	0.10763	0.32848	-0.197
Mof_C 	C 	0.28985	0.07242	0.31347	0.167
Mof_C 	C 	0.28671	0.0483	0.33897	-0.181
Mof_C 	C 	0.32738	0.05816	0.37626	0.084
Mof_C 	C 	0.08636	0.02147	0.08807	0.37
Mof_C 	C 	0.12658	0.0374	0.13374	-0.154
Mof_C 	C 	0.11982	0.01623	0.16049	0.014
Mof_C 	C 	0.15671	0.02678	0.20137	-0.164
Mof_C 	C 	0.20085	0.06039	0.2143	0.167
Mof_C 	C 	0.21044	0.08279	0.18979	-0.195
Mof_C 	C 	0.17114	0.06899	0.14721	0.103
Mof_N 	N 	0.68966	0.74526	0.96648	-0.102
Mof_N 	N 	0.66782	0.74259	0.98975	-0.105
Mof_N 	N 	0.27878	0.72318	0.53352	-0.1
Mof_N 	N 	0.25284	0.67807	0.51025	-0.11
Mof_N 	N 	0.22122	0.75474	0.4444	-0.102
Mof_N 	N 	0.24716	0.75741	0.42523	-0.111
Mof_N 	N 	0.81034	0.77682	0.0556	-0.105
Mof_N 	N 	0.83218	0.82193	0.07477	-0.1
Mof_N 	N 	0.9444	0.22122	0.25474	-0.097
Mof_N 	N 	0.92523	0.24716	0.25741	-0.119
Mof_N 	N 	0.5556	0.81034	0.27682	-0.101
Mof_N 	N 	0.57477	0.83218	0.32193	-0.109
Mof_N 	N 	0.46648	0.68966	0.24526	-0.102
Mof_N 	N 	0.48975	0.66782	0.24259	-0.111
Mof_N 	N 	0.03352	0.27878	0.22318	-0.1
Mof_N 	N 	0.01025	0.25284	0.17807	-0.116
Mof_N 	N 	0.72318	0.03352	0.77878	-0.098
Mof_N 	N 	0.67807	0.01025	0.75284	-0.114
Mof_N 	N 	0.74526	0.46648	0.18966	-0.102
Mof_N 	N 	0.74259	0.48975	0.16782	-0.111
Mof_N 	N 	0.77682	0.5556	0.31034	-0.101
Mof_N 	N 	0.82193	0.57477	0.33218	-0.108
Mof_N 	N 	0.75474	0.9444	0.72122	-0.095
Mof_N 	N 	0.75741	0.92523	0.74716	-0.115
Mof_N 	N 	0.31034	0.25474	0.03352	-0.1
Mof_N 	N 	0.33218	0.25741	0.01025	-0.116
Mof_N 	N 	0.72122	0.27682	0.46648	-0.102
Mof_N 	N 	0.74716	0.32193	0.48975	-0.11
Mof_N 	N 	0.77878	0.24526	0.5556	-0.101
Mof_N 	N 	0.75284	0.24259	0.57477	-0.11
Mof_N 	N 	0.18966	0.22318	0.9444	-0.097
Mof_N 	N 	0.16782	0.17807	0.92523	-0.119
Mof_N 	N 	0.0556	0.77878	0.74526	-0.105
Mof_N 	N 	0.07477	0.75284	0.74259	-0.102
Mof_N 	N 	0.4444	0.18966	0.72318	-0.102
Mof_N 	N 	0.42523	0.16782	0.67807	-0.112
Mof_N 	N 	0.53352	0.31034	0.75474	-0.1
Mof_N 	N 	0.51025	0.33218	0.75741	-0.11
Mof_N 	N 	0.96648	0.72122	0.77682	-0.102
Mof_N 	N 	0.98975	0.74716	0.82193	-0.103
Mof_N 	N 	0.27682	0.96648	0.22122	-0.105
Mof_N 	N 	0.32193	0.98975	0.24716	-0.106
Mof_N 	N 	0.25474	0.53352	0.81034	-0.1
Mof_N 	N 	0.25741	0.51025	0.83218	-0.11
Mof_N 	N 	0.22318	0.4444	0.68966	-0.102
Mof_N 	N 	0.17807	0.42523	0.66782	-0.112
Mof_N 	N 	0.24526	0.0556	0.27878	-0.108
Mof_N 	N 	0.24259	0.07477	0.25284	-0.104
Mof_O 	O 	0.54793	0.54415	0.96634	-0.427
Mof_O 	O 	0.56079	0.59462	0.03483	-0.689
Mof_O 	O 	0.83042	0.91038	0.95954	-0.437
Mof_O 	O 	0.82281	0.9536	0.01727	-0.482
Mof_O 	O 	0.07781	0.58159	0.53366	-0.434
Mof_O 	O 	0.05979	0.52596	0.46517	-0.65
Mof_O 	O 	0.45084	0.87088	0.54046	-0.466
Mof_O 	O 	0.43633	0.80554	0.48273	-0.485
Mof_O 	O 	0.42219	0.95585	0.50378	-0.412
Mof_O 	O 	0.44021	0.90538	0.46617	-0.653
Mof_O 	O 	0.04916	0.58962	0.42004	-0.469
Mof_O 	O 	0.06367	0.5464	0.36921	-0.482
Mof_O 	O 	0.95207	0.91841	0.99622	-0.345
Mof_O 	O 	0.93921	0.97404	0.03383	-0.579
Mof_O 	O 	0.66958	0.62912	0.07996	-0.476
Mof_O 	O 	0.67719	0.69446	0.13079	-0.484
Mof_O 	O 	0.00378	0.42219	0.45585	-0.475
Mof_O 	O 	0.96617	0.44021	0.40538	-0.646
Mof_O 	O 	0.92004	0.04916	0.08962	-0.455
Mof_O 	O 	0.86921	0.06367	0.0464	-0.481
Mof_O 	O 	0.49622	0.95207	0.41841	-0.416
Mof_O 	O 	0.53383	0.93921	0.47404	-0.647
Mof_O 	O 	0.57996	0.66958	0.12912	-0.47
Mof_O 	O 	0.63079	0.67719	0.19446	-0.483
Mof_O 	O 	0.46634	0.54793	0.04415	-0.442
Mof_O 	O 	0.53483	0.56079	0.09462	-0.659
Mof_O 	O 	0.45954	0.83042	0.41038	-0.47
Mof_O 	O 	0.51727	0.82281	0.4536	-0.484
Mof_O 	O 	0.03366	0.07781	0.08159	-0.417
Mof_O 	O 	0.96517	0.05979	0.02596	-0.601
Mof_O 	O 	0.04046	0.45084	0.37088	-0.456
Mof_O 	O 	0.98273	0.43633	0.30554	-0.43
Mof_O 	O 	0.58159	0.03366	0.57781	-0.426
Mof_O 	O 	0.52596	0.96517	0.55979	-0.622
Mof_O 	O 	0.87088	0.04046	0.95084	-0.428
Mof_O 	O 	0.80554	0.98273	0.93633	-0.413
Mof_O 	O 	0.54415	0.46634	0.04793	-0.439
Mof_O 	O 	0.59462	0.53483	0.06079	-0.664
Mof_O 	O 	0.91038	0.45954	0.33042	-0.449
Mof_O 	O 	0.9536	0.51727	0.32281	-0.456
Mof_O 	O 	0.91841	0.49622	0.45207	-0.42
Mof_O 	O 	0.97404	0.53383	0.43921	-0.621
Mof_O 	O 	0.62912	0.57996	0.16958	-0.468
Mof_O 	O 	0.69446	0.63079	0.17719	-0.483
Mof_O 	O 	0.95585	0.00378	0.92219	-0.424
Mof_O 	O 	0.90538	0.96617	0.94021	-0.603
Mof_O 	O 	0.58962	0.92004	0.54916	-0.461
Mof_O 	O 	0.5464	0.86921	0.56367	-0.483
Mof_O 	O 	0.45207	0.45585	0.03366	-0.427
Mof_O 	O 	0.43921	0.40538	0.96517	-0.622
Mof_O 	O 	0.16958	0.08962	0.04046	-0.449
Mof_O 	O 	0.17719	0.0464	0.98273	-0.432
Mof_O 	O 	0.92219	0.41841	0.46634	-0.416
Mof_O 	O 	0.94021	0.47404	0.53483	-0.628
Mof_O 	O 	0.54916	0.12912	0.45954	-0.471
Mof_O 	O 	0.56367	0.19446	0.51727	-0.484
Mof_O 	O 	0.57781	0.04415	0.49622	-0.442
Mof_O 	O 	0.55979	0.09462	0.53383	-0.658
Mof_O 	O 	0.95084	0.41038	0.57996	-0.44
Mof_O 	O 	0.93633	0.4536	0.63079	-0.459
Mof_O 	O 	0.04793	0.08159	0.00378	-0.466
Mof_O 	O 	0.06079	0.02596	0.96617	-0.64
Mof_O 	O 	0.33042	0.37088	0.92004	-0.462
Mof_O 	O 	0.32281	0.30554	0.86921	-0.485
Mof_O 	O 	0.99622	0.57781	0.54415	-0.375
Mof_O 	O 	0.03383	0.55979	0.59462	-0.632
Mof_O 	O 	0.07996	0.95084	0.91038	-0.432
Mof_O 	O 	0.13079	0.93633	0.9536	-0.437
Mof_O 	O 	0.50378	0.04793	0.58159	-0.438
Mof_O 	O 	0.46617	0.06079	0.52596	-0.665
Mof_O 	O 	0.42004	0.33042	0.87088	-0.467
Mof_O 	O 	0.36921	0.32281	0.80554	-0.486
Mof_O 	O 	0.53366	0.45207	0.95585	-0.412
Mof_O 	O 	0.46517	0.43921	0.90538	-0.652
Mof_O 	O 	0.54046	0.16958	0.58962	-0.468
Mof_O 	O 	0.48273	0.17719	0.5464	-0.485
Mof_O 	O 	0.96634	0.92219	0.91841	-0.391
Mof_O 	O 	0.03483	0.94021	0.97404	-0.617
Mof_O 	O 	0.95954	0.54916	0.62912	-0.454
Mof_O 	O 	0.01727	0.56367	0.69446	-0.51
Mof_O 	O 	0.41841	0.96634	0.42219	-0.428
Mof_O 	O 	0.47404	0.03483	0.44021	-0.689
Mof_O 	O 	0.12912	0.95954	0.04916	-0.457
Mof_O 	O 	0.19446	0.01727	0.06367	-0.508
Mof_O 	O 	0.45585	0.53366	0.95207	-0.415
Mof_O 	O 	0.40538	0.46517	0.93921	-0.647
Mof_O 	O 	0.08962	0.54046	0.66958	-0.46
Mof_O 	O 	0.0464	0.48273	0.67719	-0.484
Mof_O 	O 	0.08159	0.50378	0.54793	-0.429
Mof_O 	O 	0.02596	0.46617	0.56079	-0.657
Mof_O 	O 	0.37088	0.42004	0.83042	-0.469
Mof_O 	O 	0.30554	0.36921	0.82281	-0.486
Mof_O 	O 	0.04415	0.99622	0.07781	-0.379
Mof_O 	O 	0.09462	0.03383	0.05979	-0.616
Mof_O 	O 	0.41038	0.07996	0.45084	-0.477
Mof_O 	O 	0.4536	0.13079	0.43633	-0.486
_end
