data_functionalizedCrystal
_audit_creation_method	'EQeq! by Chris Wilmer'
_symmetry_space_group_name_H-M	'P1'
_symmetry_Int_Tables_number	1
_symmetry_cell_setting	triclinic
loop_
_symmetry_equiv_pos_as_xyz
  x,y,z
_cell_length_a	6.0736
_cell_length_b	10.4912
_cell_length_c	13.579
_cell_angle_alpha	72.133
_cell_angle_beta	89.023
_cell_angle_gamma	89.009
loop_
_atom_site_label
_atom_site_type_symbol
_atom_site_fract_x
_atom_site_fract_y
_atom_site_fract_z
_atom_site_charge
Mof_Nd	Nd	0.25094	0.66019	0.70838	2.133
Mof_N 	N 	0.0784	0.8864	0.5754	-0.212
Mof_N 	N 	0.4337	0.5568	0.8979	-0.219
Mof_N 	N 	0.0902	0.5726	0.5591	-0.214
Mof_O 	O 	0.4541	0.7703	0.547	-0.483
Mof_O 	O 	0.0636	0.6995	0.8553	-0.506
Mof_O 	O 	0.8482	0.6413	0.6993	-0.529
Mof_O 	O 	0.5598	0.5242	0.6758	-0.511
Mof_C 	C 	0.1871	0.9393	0.4862	-0.079
Mof_C 	C 	0.8916	0.9472	0.5893	0.091
Mof_C 	C 	0.3167	0.5742	0.977	-0.086
Mof_C 	C 	0.617	0.4818	0.9213	0.086
Mof_C 	C 	0.8841	0.529	0.5744	-0.094
Mof_C 	C 	0.2065	0.5439	0.4844	0.084
Mof_C 	C 	0.3997	0.869	0.4723	0.366
Mof_C 	C 	0.1098	0.658	0.9498	0.367
Mof_C 	C 	0.754	0.5681	0.6571	0.416
Mof_H 	H 	0.8119	0.9133	0.6506	-0.018
Mof_H 	H 	0.7019	0.4668	0.8682	-0.012
Mof_H 	H 	0.3508	0.5731	0.4714	0.004
Mof_O 	O 	0.5039	0.9123	0.3897	-0.292
Mof_O 	O 	0.9988	0.6805	0.0201	-0.292
Mof_Nd	Nd	0.74906	0.33981	0.29162	2.133
Mof_N 	N 	0.9216	0.1136	0.4246	-0.212
Mof_N 	N 	0.5663	0.4432	0.1021	-0.219
Mof_N 	N 	0.9098	0.4274	0.4409	-0.214
Mof_O 	O 	0.5459	0.2297	0.453	-0.483
Mof_O 	O 	0.9364	0.3005	0.1447	-0.506
Mof_O 	O 	0.1518	0.3587	0.3007	-0.529
Mof_O 	O 	0.4402	0.4758	0.3242	-0.511
Mof_C 	C 	0.8129	0.0607	0.5138	-0.079
Mof_C 	C 	0.1084	0.0528	0.4107	0.091
Mof_C 	C 	0.6833	0.4258	0.023	-0.086
Mof_C 	C 	0.383	0.5182	0.0787	0.086
Mof_C 	C 	0.1159	0.471	0.4256	-0.094
Mof_C 	C 	0.7935	0.4561	0.5156	0.084
Mof_C 	C 	0.6003	0.131	0.5277	0.366
Mof_C 	C 	0.8902	0.342	0.0502	0.367
Mof_C 	C 	0.246	0.4319	0.3429	0.416
Mof_H 	H 	0.1881	0.0867	0.3494	-0.018
Mof_H 	H 	0.2981	0.5332	0.1318	-0.012
Mof_H 	H 	0.6492	0.4269	0.5286	0.004
Mof_O 	O 	0.4961	0.0877	0.6103	-0.292
Mof_O 	O 	0.0012	0.3195	0.9799	-0.292
_end
