data_functionalizedCrystal
_audit_creation_method	'EQeq! by Chris Wilmer'
_symmetry_space_group_name_H-M	'P1'
_symmetry_Int_Tables_number	1
_symmetry_cell_setting	triclinic
loop_
_symmetry_equiv_pos_as_xyz
  x,y,z
_cell_length_a	8.6926
_cell_length_b	34.1564
_cell_length_c	8.5956
_cell_angle_alpha	90
_cell_angle_beta	107.603
_cell_angle_gamma	90
loop_
_atom_site_label
_atom_site_type_symbol
_atom_site_fract_x
_atom_site_fract_y
_atom_site_fract_z
_atom_site_charge
Mof_Cu	Cu	0.74841	0.20344	0.47899	0.95
Mof_Cu	Cu	0.73767	0.04553	0.49829	0.949
Mof_O 	O 	0.89598	0.15353	0.60962	-0.252
Mof_O 	O 	0.84743	0.09004	0.62837	-0.29
Mof_O 	O 	0.62062	0.16002	0.35709	-0.288
Mof_O 	O 	0.61134	0.09508	0.33619	-0.247
Mof_O 	O 	0.62325	0.20576	0.63985	-0.278
Mof_O 	O 	0.58553	0.24813	0.8218	-0.241
Mof_O 	O 	0.87358	0.24633	0.61316	-0.294
Mof_O 	O 	0.85748	0.28756	0.80797	-0.291
Mof_O 	O 	0.90551	0.04094	0.38551	-0.281
Mof_O 	O 	0.08821	0.00021	0.34207	-0.242
Mof_O 	O 	0.56945	0.04237	0.61234	-0.285
Mof_O 	O 	0.37793	0.00019	0.6278	-0.287
Mof_C 	C 	0.8177	0.12317	0.5615	0.228
Mof_C 	C 	0.6693	0.12592	0.404	0.231
Mof_C 	C 	0.8102	0.25863	0.7172	0.24
Mof_C 	C 	0.6591	0.23604	0.7299	0.213
Mof_C 	C 	0.9998	0.01142	0.4213	0.229
Mof_C 	C 	0.4847	0.01231	0.569	0.221
Mof_Cu	Cu	0.25159	0.70344	0.02101	0.943
Mof_Cu	Cu	0.26233	0.54553	0.00171	0.947
Mof_O 	O 	0.10402	0.65353	0.89038	-0.247
Mof_O 	O 	0.15257	0.59004	0.87163	-0.288
Mof_O 	O 	0.37938	0.66002	0.14291	-0.29
Mof_O 	O 	0.38866	0.59508	0.16381	-0.247
Mof_O 	O 	0.37675	0.70576	0.86015	-0.271
Mof_O 	O 	0.41447	0.74813	0.6782	-0.235
Mof_O 	O 	0.12642	0.74633	0.88684	-0.284
Mof_O 	O 	0.14252	0.78756	0.69203	-0.285
Mof_O 	O 	0.09449	0.54094	0.11449	-0.284
Mof_O 	O 	0.91179	0.50021	0.15793	-0.237
Mof_O 	O 	0.43055	0.54237	0.88766	-0.282
Mof_O 	O 	0.62207	0.50019	0.8722	-0.287
Mof_C 	C 	0.1823	0.62317	0.9385	0.24
Mof_C 	C 	0.3307	0.62592	0.096	0.219
Mof_C 	C 	0.1898	0.75863	0.7828	0.241
Mof_C 	C 	0.3409	0.73604	0.7701	0.215
Mof_C 	C 	0.0002	0.51142	0.0787	0.226
Mof_C 	C 	0.5153	0.51231	0.931	0.221
Mof_Cu	Cu	0.25159	0.79656	0.52101	0.95
Mof_Cu	Cu	0.26233	0.95447	0.50171	0.949
Mof_O 	O 	0.10402	0.84647	0.39038	-0.252
Mof_O 	O 	0.15257	0.90996	0.37163	-0.29
Mof_O 	O 	0.37938	0.83998	0.64291	-0.288
Mof_O 	O 	0.38866	0.90492	0.66381	-0.247
Mof_O 	O 	0.37675	0.79424	0.36015	-0.278
Mof_O 	O 	0.41447	0.75187	0.1782	-0.241
Mof_O 	O 	0.12642	0.75367	0.38684	-0.294
Mof_O 	O 	0.14252	0.71244	0.19203	-0.291
Mof_O 	O 	0.09449	0.95906	0.61449	-0.281
Mof_O 	O 	0.91179	0.99979	0.65793	-0.242
Mof_O 	O 	0.43055	0.95763	0.38766	-0.285
Mof_O 	O 	0.62207	0.99981	0.3722	-0.287
Mof_C 	C 	0.1823	0.87683	0.4385	0.228
Mof_C 	C 	0.3307	0.87408	0.596	0.231
Mof_C 	C 	0.1898	0.74137	0.2828	0.24
Mof_C 	C 	0.3409	0.76396	0.2701	0.213
Mof_C 	C 	0.0002	0.98858	0.5787	0.229
Mof_C 	C 	0.5153	0.98769	0.431	0.221
Mof_Cu	Cu	0.74841	0.29656	0.97899	0.943
Mof_Cu	Cu	0.73767	0.45447	0.99829	0.947
Mof_O 	O 	0.89598	0.34647	0.10962	-0.247
Mof_O 	O 	0.84743	0.40996	0.12837	-0.288
Mof_O 	O 	0.62062	0.33998	0.85709	-0.29
Mof_O 	O 	0.61134	0.40492	0.83619	-0.247
Mof_O 	O 	0.62325	0.29424	0.13985	-0.271
Mof_O 	O 	0.58553	0.25187	0.3218	-0.235
Mof_O 	O 	0.87358	0.25367	0.11316	-0.284
Mof_O 	O 	0.85748	0.21244	0.30797	-0.285
Mof_O 	O 	0.90551	0.45906	0.88551	-0.284
Mof_O 	O 	0.08821	0.49979	0.84207	-0.237
Mof_O 	O 	0.56945	0.45763	0.11234	-0.282
Mof_O 	O 	0.37793	0.49981	0.1278	-0.287
Mof_C 	C 	0.8177	0.37683	0.0615	0.24
Mof_C 	C 	0.6693	0.37408	0.904	0.219
Mof_C 	C 	0.8102	0.24137	0.2172	0.241
Mof_C 	C 	0.6591	0.26396	0.2299	0.215
Mof_C 	C 	0.9998	0.48858	0.9213	0.226
Mof_C 	C 	0.4847	0.48769	0.069	0.221
_end
