data_functionalizedCrystal
_audit_creation_method	'EQeq! by Chris Wilmer'
_symmetry_space_group_name_H-M	'P1'
_symmetry_Int_Tables_number	1
_symmetry_cell_setting	triclinic
loop_
_symmetry_equiv_pos_as_xyz
  x,y,z
_cell_length_a	18.9175
_cell_length_b	18.9175
_cell_length_c	71.908
_cell_angle_alpha	90
_cell_angle_beta	90
_cell_angle_gamma	90
loop_
_atom_site_label
_atom_site_type_symbol
_atom_site_fract_x
_atom_site_fract_y
_atom_site_fract_z
_atom_site_charge
Mof_Al	Al	0.39683	0.64706	0.5369	6.051
Mof_Al	Al	0.34168	0.67141	0.49945	4.768
Mof_Al	Al	0.50432	0.52994	0.55566	6.702
Mof_O 	O 	0.46706	0.57874	0.53577	-2.778
Mof_H 	H 	0.4855	0.5679	0.5238	0.675
Mof_O 	O 	0.40867	0.62303	0.4841	-1.831
Mof_O 	O 	0.44993	0.6985	0.55399	-1.463
Mof_C 	C 	0.6957	0.8529	0.70337	-0.355
Mof_O 	O 	0.53797	0.48138	0.57733	-1.527
Mof_C 	C 	0.5644	0.3896	0.59915	-0.377
Mof_C 	C 	0.42	0.2585	0.69031	0.173
Mof_O 	O 	0.49065	0.60678	0.57197	-1.52
Mof_C 	C 	0.5577	0.2914	0.65245	-0.033
Mof_C 	C 	0.2062	0.0031	0.67913	-0.614
Mof_C 	C 	0.4737	0.6739	0.56947	1.043
Mof_C 	C 	0.3326	0.9404	0.66495	0.268
Mof_C 	C 	0.4662	0.8375	0.63709	-0.053
Mof_C 	C 	0.6006	0.3258	0.60214	0.198
Mof_H 	H 	0.6266	0.3041	0.5924	-0.034
Mof_C 	C 	0.4036	0.8732	0.64207	-0.002
Mof_H 	H 	0.3653	0.8746	0.6335	0.029
Mof_C 	C 	0.5633	0.4208	0.57954	1.059
Mof_C 	C 	0.7072	0.8631	0.68381	0.211
Mof_H 	H 	0.7538	0.8643	0.6789	-0.03
Mof_C 	C 	0.2937	0.2518	0.69014	0.253
Mof_H 	H 	0.2507	0.2496	0.6833	-0.034
Mof_C 	C 	0.5478	0.2197	0.68643	-0.04
Mof_H 	H 	0.5449	0.1951	0.6979	0.036
Mof_C 	C 	0.4987	0.2968	0.66312	-0.037
Mof_H 	H 	0.4614	0.3267	0.6591	0.037
Mof_C 	C 	0.3971	0.9058	0.65906	-0.091
Mof_C 	C 	0.273	0.0371	0.68035	0.371
Mof_H 	H 	0.2749	0.0827	0.6859	-0.085
Mof_C 	C 	0.5202	0.874	0.66548	-0.047
Mof_C 	C 	0.4771	0.7183	0.58595	-0.412
Mof_C 	C 	0.4174	0.2586	0.70986	-0.3
Mof_H 	H 	0.4601	0.2624	0.7167	0.125
Mof_C 	C 	0.2068	0.9386	0.67023	0.419
Mof_H 	H 	0.163	0.9149	0.6687	-0.103
Mof_C 	C 	0.2924	0.2486	0.70953	-0.418
Mof_C 	C 	0.58	0.8684	0.67954	0.156
Mof_C 	C 	0.6156	0.2494	0.65908	-0.049
Mof_H 	H 	0.6578	0.2445	0.652	0.04
Mof_C 	C 	0.5239	0.8384	0.64835	-0.021
Mof_H 	H 	0.5663	0.8152	0.6447	0.034
Mof_C 	C 	0.6283	0.8553	0.7102	0.223
Mof_H 	H 	0.6203	0.8524	0.7232	-0.026
Mof_C 	C 	0.4906	0.2588	0.68031	-0.046
Mof_C 	C 	0.3358	0.0078	0.67396	-0.398
Mof_H 	H 	0.3796	0.0317	0.6755	0.148
Mof_C 	C 	0.3582	0.2585	0.68059	-0.269
Mof_H 	H 	0.3587	0.263	0.6674	0.115
Mof_C 	C 	0.5071	0.7352	0.61801	-0.263
Mof_H 	H 	0.5301	0.7194	0.629	0.115
Mof_C 	C 	0.5113	0.6941	0.60206	0.258
Mof_H 	H 	0.5366	0.6507	0.602	-0.039
Mof_C 	C 	0.4702	0.7985	0.61843	0.167
Mof_C 	C 	0.5704	0.8621	0.69783	-0.242
Mof_H 	H 	0.5236	0.8622	0.7027	0.11
Mof_C 	C 	0.649	0.8713	0.67208	-0.228
Mof_H 	H 	0.6557	0.8787	0.6591	0.108
Mof_C 	C 	0.5287	0.3922	0.63166	-0.212
Mof_H 	H 	0.5048	0.4151	0.6416	0.097
Mof_C 	C 	0.5629	0.3277	0.63461	0.127
Mof_C 	C 	0.5975	0.2946	0.61989	-0.223
Mof_H 	H 	0.6194	0.2501	0.6219	0.096
Mof_C 	C 	0.4412	0.7838	0.5862	0.256
Mof_H 	H 	0.4188	0.8007	0.5752	-0.037
Mof_C 	C 	0.1448	0.0334	0.68729	1.174
Mof_C 	C 	0.3569	0.2536	0.71893	0.281
Mof_H 	H 	0.3572	0.2533	0.7321	-0.06
Mof_O 	O 	0.14854	0.09511	0.69402	-1.488
Mof_O 	O 	0.088	0.99726	0.6876	-1.419
Mof_C 	C 	0.2679	0.9054	0.66332	-0.377
Mof_H 	H 	0.2652	0.8601	0.6577	0.153
Mof_O 	O 	0.58917	0.38122	0.56707	-1.311
Mof_C 	C 	0.4385	0.823	0.60211	-0.268
Mof_H 	H 	0.4148	0.8673	0.6021	0.119
Mof_C 	C 	0.4561	0.908	0.6707	-0.005
Mof_H 	H 	0.4534	0.9325	0.6822	0.035
Mof_C 	C 	0.6539	0.0999	0.69006	-0.234
Mof_H 	H 	0.6068	0.0828	0.6912	0.097
Mof_C 	C 	0.7385	0.1957	0.68182	-0.256
Mof_H 	H 	0.7474	0.2429	0.678	0.11
Mof_C 	C 	0.6704	0.1688	0.68279	0.131
Mof_O 	O 	0.75178	0.84253	0.73277	-1.186
Mof_O 	O 	0.52277	0.45239	0.54091	-2.607
Mof_H 	H 	0.4873	0.4397	0.5322	0.564
Mof_C 	C 	0.7147	0.059	0.69541	0.226
Mof_H 	H 	0.7071	0.0132	0.7004	-0.058
Mof_C 	C 	0.7943	0.1494	0.68683	0.257
Mof_H 	H 	0.8416	0.1655	0.6854	-0.052
Mof_C 	C 	0.5302	0.4243	0.61305	0.204
Mof_H 	H 	0.5078	0.4684	0.6108	-0.023
Mof_C 	C 	0.6077	0.2161	0.67635	-0.026
Mof_C 	C 	0.7834	0.0826	0.69365	-0.439
Mof_C 	C 	0.842	0.0376	0.69796	0.94
Mof_O 	O 	0.83435	0.97379	0.70245	-1.143
Mof_O 	O 	0.90469	0.06832	0.69803	-1.424
Mof_O 	O 	0.22271	0.22997	0.73627	-1.164
Mof_C 	C 	0.2255	0.2349	0.71871	0.953
Mof_O 	O 	0.1718	0.21664	0.70843	-1.384
Mof_C 	C 	0.7587	0.8432	0.71479	0.896
Mof_O 	O 	0.81699	0.8368	0.70689	-1.235
Mof_O 	O 	0.33932	0.60407	0.51879	-2.077
Mof_O 	O 	0.4216	0.69861	0.51467	-1.782
Mof_O 	O 	0.26325	0.62375	0.48941	-0.983
Mof_C 	C 	0.4773	0.6216	0.49312	0.49
Mof_H 	H 	0.5148	0.6194	0.4835	-0.21
Mof_H 	H 	0.481	0.5786	0.5009	-0.285
Mof_C 	C 	0.4879	0.6846	0.5048	0.194
Mof_H 	H 	0.5266	0.6761	0.5138	-0.102
Mof_H 	H 	0.5009	0.7256	0.497	-0.042
Mof_C 	C 	0.2277	0.58	0.50354	-0.255
Mof_H 	H 	0.2051	0.5387	0.4975	0.072
Mof_H 	H 	0.1905	0.608	0.5098	0.086
Mof_C 	C 	0.2813	0.5552	0.51757	0.83
Mof_H 	H 	0.2585	0.5508	0.5299	-0.255
Mof_H 	H 	0.2992	0.5081	0.5139	-0.29
Mof_Al	Al	0.60192	0.39767	0.54131	4.644
Mof_Al	Al	0.60317	0.35294	0.0369	6.052
Mof_Al	Al	0.65832	0.32859	0.99945	4.769
Mof_Al	Al	0.49568	0.47006	0.05566	6.703
Mof_O 	O 	0.53294	0.42126	0.03577	-2.777
Mof_H 	H 	0.5145	0.4321	0.0238	0.676
Mof_O 	O 	0.59133	0.37697	0.9841	-1.83
Mof_O 	O 	0.55007	0.3015	0.05399	-1.462
Mof_C 	C 	0.3043	0.1471	0.20337	-0.354
Mof_O 	O 	0.46203	0.51862	0.07733	-1.526
Mof_C 	C 	0.4356	0.6104	0.09915	-0.376
Mof_C 	C 	0.58	0.7415	0.19031	0.174
Mof_O 	O 	0.50935	0.39322	0.07197	-1.519
Mof_C 	C 	0.4423	0.7086	0.15245	-0.032
Mof_C 	C 	0.7938	0.9969	0.17913	-0.613
Mof_C 	C 	0.5263	0.3261	0.06947	1.044
Mof_C 	C 	0.6674	0.0596	0.16495	0.269
Mof_C 	C 	0.5338	0.1625	0.13709	-0.053
Mof_C 	C 	0.3994	0.6742	0.10214	0.198
Mof_H 	H 	0.3734	0.6959	0.0924	-0.034
Mof_C 	C 	0.5964	0.1268	0.14207	-0.002
Mof_H 	H 	0.6347	0.1254	0.1335	0.029
Mof_C 	C 	0.4367	0.5792	0.07954	1.059
Mof_C 	C 	0.2928	0.1369	0.18381	0.211
Mof_H 	H 	0.2462	0.1357	0.1789	-0.03
Mof_C 	C 	0.7063	0.7482	0.19014	0.253
Mof_H 	H 	0.7493	0.7504	0.1833	-0.034
Mof_C 	C 	0.4522	0.7803	0.18643	-0.04
Mof_H 	H 	0.4551	0.8049	0.1979	0.036
Mof_C 	C 	0.5013	0.7032	0.16312	-0.037
Mof_H 	H 	0.5386	0.6733	0.1591	0.037
Mof_C 	C 	0.6029	0.0942	0.15906	-0.091
Mof_C 	C 	0.727	0.9629	0.18035	0.371
Mof_H 	H 	0.7251	0.9173	0.1859	-0.085
Mof_C 	C 	0.4798	0.126	0.16548	-0.047
Mof_C 	C 	0.5229	0.2817	0.08595	-0.412
Mof_C 	C 	0.5826	0.7414	0.20986	-0.3
Mof_H 	H 	0.5399	0.7376	0.2167	0.125
Mof_C 	C 	0.7932	0.0614	0.17023	0.419
Mof_H 	H 	0.837	0.0851	0.1687	-0.103
Mof_C 	C 	0.7076	0.7514	0.20953	-0.418
Mof_C 	C 	0.42	0.1316	0.17954	0.156
Mof_C 	C 	0.3844	0.7506	0.15908	-0.049
Mof_H 	H 	0.3422	0.7555	0.152	0.04
Mof_C 	C 	0.4761	0.1616	0.14835	-0.021
Mof_H 	H 	0.4337	0.1848	0.1447	0.034
Mof_C 	C 	0.3717	0.1447	0.2102	0.223
Mof_H 	H 	0.3797	0.1476	0.2232	-0.026
Mof_C 	C 	0.5094	0.7412	0.18031	-0.046
Mof_C 	C 	0.6642	0.9922	0.17396	-0.398
Mof_H 	H 	0.6204	0.9683	0.1755	0.148
Mof_C 	C 	0.6418	0.7415	0.18059	-0.269
Mof_H 	H 	0.6413	0.737	0.1674	0.115
Mof_C 	C 	0.4929	0.2648	0.11801	-0.263
Mof_H 	H 	0.4699	0.2806	0.129	0.115
Mof_C 	C 	0.4887	0.3059	0.10206	0.258
Mof_H 	H 	0.4634	0.3493	0.102	-0.039
Mof_C 	C 	0.5298	0.2015	0.11843	0.167
Mof_C 	C 	0.4296	0.1379	0.19783	-0.242
Mof_H 	H 	0.4764	0.1378	0.2027	0.11
Mof_C 	C 	0.351	0.1287	0.17208	-0.228
Mof_H 	H 	0.3443	0.1213	0.1591	0.108
Mof_C 	C 	0.4713	0.6078	0.13166	-0.212
Mof_H 	H 	0.4952	0.5849	0.1416	0.097
Mof_C 	C 	0.4371	0.6723	0.13461	0.127
Mof_C 	C 	0.4025	0.7054	0.11989	-0.223
Mof_H 	H 	0.3806	0.7499	0.1219	0.096
Mof_C 	C 	0.5588	0.2162	0.0862	0.256
Mof_H 	H 	0.5812	0.1993	0.0752	-0.037
Mof_C 	C 	0.8552	0.9666	0.18729	1.174
Mof_C 	C 	0.6431	0.7464	0.21893	0.281
Mof_H 	H 	0.6428	0.7467	0.2321	-0.06
Mof_O 	O 	0.85146	0.90489	0.19402	-1.488
Mof_O 	O 	0.912	0.00274	0.1876	-1.419
Mof_C 	C 	0.7321	0.0946	0.16332	-0.377
Mof_H 	H 	0.7348	0.1399	0.1577	0.153
Mof_O 	O 	0.41083	0.61878	0.06707	-1.311
Mof_C 	C 	0.5615	0.177	0.10211	-0.268
Mof_H 	H 	0.5852	0.1327	0.1021	0.119
Mof_C 	C 	0.5439	0.092	0.1707	-0.005
Mof_H 	H 	0.5466	0.0675	0.1822	0.035
Mof_C 	C 	0.3461	0.9001	0.19006	-0.234
Mof_H 	H 	0.3932	0.9172	0.1912	0.097
Mof_C 	C 	0.2615	0.8043	0.18182	-0.256
Mof_H 	H 	0.2526	0.7571	0.178	0.11
Mof_C 	C 	0.3296	0.8312	0.18279	0.131
Mof_O 	O 	0.24822	0.15747	0.23277	-1.186
Mof_O 	O 	0.47723	0.54761	0.04091	-2.607
Mof_H 	H 	0.5127	0.5603	0.0322	0.564
Mof_C 	C 	0.2853	0.941	0.19541	0.226
Mof_H 	H 	0.2929	0.9868	0.2004	-0.058
Mof_C 	C 	0.2057	0.8506	0.18683	0.257
Mof_H 	H 	0.1584	0.8345	0.1854	-0.052
Mof_C 	C 	0.4698	0.5757	0.11305	0.204
Mof_H 	H 	0.4922	0.5316	0.1108	-0.023
Mof_C 	C 	0.3923	0.7839	0.17635	-0.026
Mof_C 	C 	0.2166	0.9174	0.19365	-0.439
Mof_C 	C 	0.158	0.9624	0.19796	0.94
Mof_O 	O 	0.16565	0.02621	0.20245	-1.143
Mof_O 	O 	0.09531	0.93168	0.19803	-1.424
Mof_O 	O 	0.77729	0.77003	0.23627	-1.164
Mof_C 	C 	0.7745	0.7651	0.21871	0.953
Mof_O 	O 	0.8282	0.78336	0.20843	-1.384
Mof_C 	C 	0.2413	0.1568	0.21479	0.896
Mof_O 	O 	0.18301	0.1632	0.20689	-1.235
Mof_O 	O 	0.66068	0.39593	0.01879	-2.077
Mof_O 	O 	0.5784	0.30139	0.01467	-1.782
Mof_O 	O 	0.73675	0.37625	0.98941	-0.983
Mof_C 	C 	0.5227	0.3784	0.99312	0.49
Mof_H 	H 	0.4852	0.3806	0.9835	-0.21
Mof_H 	H 	0.519	0.4214	0.0009	-0.285
Mof_C 	C 	0.5121	0.3154	0.0048	0.194
Mof_H 	H 	0.4734	0.3239	0.0138	-0.102
Mof_H 	H 	0.4991	0.2744	0.997	-0.042
Mof_C 	C 	0.7723	0.42	0.00354	-0.255
Mof_H 	H 	0.7949	0.4613	0.9975	0.072
Mof_H 	H 	0.8095	0.392	0.0098	0.086
Mof_C 	C 	0.7187	0.4448	0.01757	0.83
Mof_H 	H 	0.7415	0.4492	0.0299	-0.255
Mof_H 	H 	0.7008	0.4919	0.0139	-0.29
Mof_Al	Al	0.39808	0.60233	0.04131	4.644
Mof_Al	Al	0.85294	0.89683	0.7869	6.011
Mof_Al	Al	0.82859	0.84168	0.74945	4.764
Mof_Al	Al	0.97006	0.00432	0.80566	6.047
Mof_O 	O 	0.92126	0.96706	0.78577	-2.628
Mof_H 	H 	0.9321	0.9855	0.7738	0.652
Mof_O 	O 	0.87697	0.90867	0.7341	-1.817
Mof_O 	O 	0.8015	0.94993	0.80399	-1.427
Mof_C 	C 	0.6471	0.1957	0.95337	-0.359
Mof_O 	O 	0.01862	0.03797	0.82733	-1.396
Mof_C 	C 	0.1104	0.0644	0.84915	-0.357
Mof_C 	C 	0.2415	0.92	0.94031	0.176
Mof_O 	O 	0.89322	0.99065	0.82197	-1.383
Mof_C 	C 	0.2086	0.0577	0.90245	-0.048
Mof_C 	C 	0.4969	0.7062	0.92913	-0.565
Mof_C 	C 	0.8261	0.9737	0.81947	0.987
Mof_C 	C 	0.5596	0.8326	0.91495	0.194
Mof_C 	C 	0.6625	0.9662	0.88709	-0.011
Mof_C 	C 	0.1742	0.1006	0.85214	0.19
Mof_H 	H 	0.1959	0.1266	0.8424	-0.03
Mof_C 	C 	0.6268	0.9036	0.89207	-0.029
Mof_H 	H 	0.6254	0.8653	0.8835	0.036
Mof_C 	C 	0.0792	0.0633	0.82954	1.011
Mof_C 	C 	0.6369	0.2072	0.93381	0.205
Mof_H 	H 	0.6357	0.2538	0.9289	-0.033
Mof_C 	C 	0.2482	0.7937	0.94014	0.256
Mof_H 	H 	0.2504	0.7507	0.9333	-0.034
Mof_C 	C 	0.2803	0.0478	0.93643	-0.047
Mof_H 	H 	0.3049	0.0449	0.9479	0.04
Mof_C 	C 	0.2032	0.9987	0.91312	-0.013
Mof_H 	H 	0.1733	0.9614	0.9091	0.036
Mof_C 	C 	0.5942	0.8971	0.90906	-0.064
Mof_C 	C 	0.4629	0.773	0.93035	0.329
Mof_H 	H 	0.4173	0.7749	0.9359	-0.07
Mof_C 	C 	0.626	0.0202	0.91548	-0.056
Mof_C 	C 	0.7817	0.9771	0.83595	-0.335
Mof_C 	C 	0.2414	0.9174	0.95986	-0.3
Mof_H 	H 	0.2376	0.9601	0.9667	0.126
Mof_C 	C 	0.5614	0.7068	0.92023	0.343
Mof_H 	H 	0.5851	0.663	0.9187	-0.088
Mof_C 	C 	0.2514	0.7924	0.95953	-0.421
Mof_C 	C 	0.6316	0.08	0.92954	0.148
Mof_C 	C 	0.2506	0.1156	0.90908	-0.042
Mof_H 	H 	0.2555	0.1578	0.902	0.041
Mof_C 	C 	0.6616	0.0239	0.89835	-0.071
Mof_H 	H 	0.6848	0.0663	0.8947	0.043
Mof_C 	C 	0.6447	0.1283	0.9602	0.218
Mof_H 	H 	0.6476	0.1203	0.9732	-0.032
Mof_C 	C 	0.2412	0.9906	0.93031	-0.04
Mof_C 	C 	0.4922	0.8358	0.92396	-0.312
Mof_H 	H 	0.4683	0.8796	0.9255	0.133
Mof_C 	C 	0.2415	0.8582	0.93059	-0.27
Mof_H 	H 	0.237	0.8587	0.9174	0.119
Mof_C 	C 	0.7648	0.0071	0.86801	-0.276
Mof_H 	H 	0.7806	0.0301	0.879	0.108
Mof_C 	C 	0.8059	0.0113	0.85206	0.181
Mof_H 	H 	0.8493	0.0366	0.852	-0.032
Mof_C 	C 	0.7015	0.9702	0.86843	0.178
Mof_C 	C 	0.6379	0.0704	0.94783	-0.245
Mof_H 	H 	0.6378	0.0236	0.9527	0.1
Mof_C 	C 	0.6287	0.149	0.92208	-0.231
Mof_H 	H 	0.6213	0.1557	0.9091	0.101
Mof_C 	C 	0.1078	0.0287	0.88166	-0.207
Mof_H 	H 	0.0849	0.0048	0.8916	0.097
Mof_C 	C 	0.1723	0.0629	0.88461	0.129
Mof_C 	C 	0.2054	0.0975	0.86989	-0.219
Mof_H 	H 	0.2499	0.1194	0.8719	0.096
Mof_C 	C 	0.7162	0.9412	0.8362	0.224
Mof_H 	H 	0.6993	0.9188	0.8252	-0.023
Mof_C 	C 	0.4666	0.6448	0.93729	1.235
Mof_C 	C 	0.2464	0.8569	0.96893	0.283
Mof_H 	H 	0.2467	0.8572	0.9821	-0.061
Mof_O 	O 	0.40489	0.64854	0.94402	-1.516
Mof_O 	O 	0.50274	0.588	0.9376	-1.581
Mof_C 	C 	0.5946	0.7679	0.91332	-0.324
Mof_H 	H 	0.6399	0.7652	0.9077	0.131
Mof_O 	O 	0.11878	0.08917	0.81707	-1.284
Mof_C 	C 	0.677	0.9385	0.85211	-0.247
Mof_H 	H 	0.6327	0.9148	0.8521	0.112
Mof_C 	C 	0.592	0.9561	0.9207	-0.001
Mof_H 	H 	0.5675	0.9534	0.9322	0.028
Mof_C 	C 	0.4001	0.1539	0.94006	-0.245
Mof_H 	H 	0.4172	0.1068	0.9412	0.108
Mof_C 	C 	0.3043	0.2385	0.93182	-0.272
Mof_H 	H 	0.2571	0.2474	0.928	0.12
Mof_C 	C 	0.3312	0.1704	0.93279	0.144
Mof_O 	O 	0.65747	0.25178	0.98277	-1.193
Mof_O 	O 	0.04761	0.02277	0.79091	-2.48
Mof_H 	H 	0.0603	0.9873	0.7822	0.572
Mof_C 	C 	0.441	0.2147	0.94541	0.255
Mof_H 	H 	0.4868	0.2071	0.9504	-0.051
Mof_C 	C 	0.3506	0.2943	0.93683	0.289
Mof_H 	H 	0.3345	0.3416	0.9354	-0.055
Mof_C 	C 	0.0757	0.0302	0.86305	0.193
Mof_H 	H 	0.0316	0.0078	0.8608	-0.016
Mof_C 	C 	0.2839	0.1077	0.92635	-0.027
Mof_C 	C 	0.4174	0.2834	0.94365	-0.479
Mof_C 	C 	0.4624	0.342	0.94796	1.051
Mof_O 	O 	0.52621	0.33435	0.95245	-1.224
Mof_O 	O 	0.43168	0.40469	0.94803	-1.532
Mof_O 	O 	0.27003	0.72271	0.98627	-1.169
Mof_C 	C 	0.2651	0.7255	0.96871	0.955
Mof_O 	O 	0.28336	0.6718	0.95843	-1.393
Mof_C 	C 	0.6568	0.2587	0.96479	0.897
Mof_O 	O 	0.6632	0.31699	0.95689	-1.243
Mof_O 	O 	0.89593	0.83932	0.76879	-2.071
Mof_O 	O 	0.80139	0.9216	0.76467	-1.8
Mof_O 	O 	0.87625	0.76325	0.73941	-0.984
Mof_C 	C 	0.8784	0.9773	0.74312	0.48
Mof_H 	H 	0.8806	0.0148	0.7335	-0.24
Mof_H 	H 	0.9214	0.981	0.7509	-0.269
Mof_C 	C 	0.8154	0.9879	0.7548	0.389
Mof_H 	H 	0.8239	0.0266	0.7638	-0.192
Mof_H 	H 	0.7744	0.0009	0.747	-0.132
Mof_C 	C 	0.92	0.7277	0.75354	-0.251
Mof_H 	H 	0.9613	0.7051	0.7475	0.066
Mof_H 	H 	0.892	0.6905	0.7598	0.083
Mof_C 	C 	0.9448	0.7813	0.76757	0.825
Mof_H 	H 	0.9492	0.7585	0.7799	-0.256
Mof_H 	H 	0.9919	0.7992	0.7639	-0.292
Mof_Al	Al	0.10233	0.10192	0.79131	4.597
Mof_Al	Al	0.14706	0.10317	0.2869	6.011
Mof_Al	Al	0.17141	0.15832	0.24945	4.764
Mof_Al	Al	0.02994	0.99568	0.30566	6.047
Mof_O 	O 	0.07874	0.03294	0.28577	-2.628
Mof_H 	H 	0.0679	0.0145	0.2738	0.652
Mof_O 	O 	0.12303	0.09133	0.2341	-1.817
Mof_O 	O 	0.1985	0.05007	0.30399	-1.427
Mof_C 	C 	0.3529	0.8043	0.45337	-0.359
Mof_O 	O 	0.98138	0.96203	0.32733	-1.396
Mof_C 	C 	0.8896	0.9356	0.34915	-0.357
Mof_C 	C 	0.7585	0.08	0.44031	0.176
Mof_O 	O 	0.10678	0.00935	0.32197	-1.383
Mof_C 	C 	0.7914	0.9423	0.40245	-0.048
Mof_C 	C 	0.5031	0.2938	0.42913	-0.565
Mof_C 	C 	0.1739	0.0263	0.31947	0.987
Mof_C 	C 	0.4404	0.1674	0.41495	0.194
Mof_C 	C 	0.3375	0.0338	0.38709	-0.011
Mof_C 	C 	0.8258	0.8994	0.35214	0.19
Mof_H 	H 	0.8041	0.8734	0.3424	-0.03
Mof_C 	C 	0.3732	0.0964	0.39207	-0.029
Mof_H 	H 	0.3746	0.1347	0.3835	0.036
Mof_C 	C 	0.9208	0.9367	0.32954	1.011
Mof_C 	C 	0.3631	0.7928	0.43381	0.205
Mof_H 	H 	0.3643	0.7462	0.4289	-0.033
Mof_C 	C 	0.7518	0.2063	0.44014	0.256
Mof_H 	H 	0.7496	0.2493	0.4333	-0.034
Mof_C 	C 	0.7197	0.9522	0.43643	-0.047
Mof_H 	H 	0.6951	0.9551	0.4479	0.04
Mof_C 	C 	0.7968	0.0013	0.41312	-0.013
Mof_H 	H 	0.8267	0.0386	0.4091	0.036
Mof_C 	C 	0.4058	0.1029	0.40906	-0.064
Mof_C 	C 	0.5371	0.227	0.43035	0.329
Mof_H 	H 	0.5827	0.2251	0.4359	-0.07
Mof_C 	C 	0.374	0.9798	0.41548	-0.056
Mof_C 	C 	0.2183	0.0229	0.33595	-0.335
Mof_C 	C 	0.7586	0.0826	0.45986	-0.3
Mof_H 	H 	0.7624	0.0399	0.4667	0.126
Mof_C 	C 	0.4386	0.2932	0.42023	0.343
Mof_H 	H 	0.4149	0.337	0.4187	-0.088
Mof_C 	C 	0.7486	0.2076	0.45953	-0.421
Mof_C 	C 	0.3684	0.92	0.42954	0.148
Mof_C 	C 	0.7494	0.8844	0.40908	-0.042
Mof_H 	H 	0.7445	0.8422	0.402	0.041
Mof_C 	C 	0.3384	0.9761	0.39835	-0.071
Mof_H 	H 	0.3152	0.9337	0.3947	0.043
Mof_C 	C 	0.3553	0.8717	0.4602	0.218
Mof_H 	H 	0.3524	0.8797	0.4732	-0.032
Mof_C 	C 	0.7588	0.0094	0.43031	-0.04
Mof_C 	C 	0.5078	0.1642	0.42396	-0.312
Mof_H 	H 	0.5317	0.1204	0.4255	0.133
Mof_C 	C 	0.7585	0.1418	0.43059	-0.27
Mof_H 	H 	0.763	0.1413	0.4174	0.119
Mof_C 	C 	0.2352	0.9929	0.36801	-0.276
Mof_H 	H 	0.2194	0.9699	0.379	0.108
Mof_C 	C 	0.1941	0.9887	0.35206	0.181
Mof_H 	H 	0.1507	0.9634	0.352	-0.032
Mof_C 	C 	0.2985	0.0298	0.36843	0.178
Mof_C 	C 	0.3621	0.9296	0.44783	-0.245
Mof_H 	H 	0.3622	0.9764	0.4527	0.1
Mof_C 	C 	0.3713	0.851	0.42208	-0.231
Mof_H 	H 	0.3787	0.8443	0.4091	0.101
Mof_C 	C 	0.8922	0.9713	0.38166	-0.207
Mof_H 	H 	0.9151	0.9952	0.3916	0.097
Mof_C 	C 	0.8277	0.9371	0.38461	0.129
Mof_C 	C 	0.7946	0.9025	0.36989	-0.219
Mof_H 	H 	0.7501	0.8806	0.3719	0.096
Mof_C 	C 	0.2838	0.0588	0.3362	0.224
Mof_H 	H 	0.3007	0.0812	0.3252	-0.023
Mof_C 	C 	0.5334	0.3552	0.43729	1.235
Mof_C 	C 	0.7536	0.1431	0.46893	0.283
Mof_H 	H 	0.7533	0.1428	0.4821	-0.061
Mof_O 	O 	0.59511	0.35146	0.44402	-1.516
Mof_O 	O 	0.49726	0.412	0.4376	-1.581
Mof_C 	C 	0.4054	0.2321	0.41332	-0.324
Mof_H 	H 	0.3601	0.2348	0.4077	0.131
Mof_O 	O 	0.88122	0.91083	0.31707	-1.284
Mof_C 	C 	0.323	0.0615	0.35211	-0.247
Mof_H 	H 	0.3673	0.0852	0.3521	0.112
Mof_C 	C 	0.408	0.0439	0.4207	-0.001
Mof_H 	H 	0.4325	0.0466	0.4322	0.028
Mof_C 	C 	0.5999	0.8461	0.44006	-0.245
Mof_H 	H 	0.5828	0.8932	0.4412	0.108
Mof_C 	C 	0.6957	0.7615	0.43182	-0.272
Mof_H 	H 	0.7429	0.7526	0.428	0.12
Mof_C 	C 	0.6688	0.8296	0.43279	0.144
Mof_O 	O 	0.34253	0.74822	0.48277	-1.193
Mof_O 	O 	0.95239	0.97723	0.29091	-2.48
Mof_H 	H 	0.9397	0.0127	0.2822	0.572
Mof_C 	C 	0.559	0.7853	0.44541	0.255
Mof_H 	H 	0.5132	0.7929	0.4504	-0.051
Mof_C 	C 	0.6494	0.7057	0.43683	0.289
Mof_H 	H 	0.6655	0.6584	0.4354	-0.055
Mof_C 	C 	0.9243	0.9698	0.36305	0.193
Mof_H 	H 	0.9684	0.9922	0.3608	-0.016
Mof_C 	C 	0.7161	0.8923	0.42635	-0.027
Mof_C 	C 	0.5826	0.7166	0.44365	-0.479
Mof_C 	C 	0.5376	0.658	0.44796	1.051
Mof_O 	O 	0.47379	0.66565	0.45245	-1.224
Mof_O 	O 	0.56832	0.59531	0.44803	-1.532
Mof_O 	O 	0.72997	0.27729	0.48627	-1.169
Mof_C 	C 	0.7349	0.2745	0.46871	0.955
Mof_O 	O 	0.71664	0.3282	0.45843	-1.393
Mof_C 	C 	0.3432	0.7413	0.46479	0.897
Mof_O 	O 	0.3368	0.68301	0.45689	-1.243
Mof_O 	O 	0.10407	0.16068	0.26879	-2.071
Mof_O 	O 	0.19861	0.0784	0.26467	-1.8
Mof_O 	O 	0.12375	0.23675	0.23941	-0.984
Mof_C 	C 	0.1216	0.0227	0.24312	0.48
Mof_H 	H 	0.1194	0.9852	0.2335	-0.24
Mof_H 	H 	0.0786	0.019	0.2509	-0.269
Mof_C 	C 	0.1846	0.0121	0.2548	0.389
Mof_H 	H 	0.1761	0.9734	0.2638	-0.192
Mof_H 	H 	0.2256	0.9991	0.247	-0.132
Mof_C 	C 	0.08	0.2723	0.25354	-0.251
Mof_H 	H 	0.0387	0.2949	0.2475	0.066
Mof_H 	H 	0.108	0.3095	0.2598	0.083
Mof_C 	C 	0.0552	0.2187	0.26757	0.825
Mof_H 	H 	0.0508	0.2415	0.2799	-0.256
Mof_H 	H 	0.0081	0.2008	0.2639	-0.292
Mof_Al	Al	0.89767	0.89808	0.29131	4.597
Mof_Al	Al	0.10317	0.14706	0.7131	6.011
Mof_Al	Al	0.15832	0.17141	0.75055	4.764
Mof_Al	Al	0.99568	0.02994	0.69434	6.047
Mof_O 	O 	0.03294	0.07874	0.71423	-2.628
Mof_H 	H 	0.0145	0.0679	0.7262	0.652
Mof_O 	O 	0.09133	0.12303	0.7659	-1.817
Mof_O 	O 	0.05007	0.1985	0.69601	-1.427
Mof_C 	C 	0.8043	0.3529	0.54663	-0.359
Mof_O 	O 	0.96203	0.98138	0.67267	-1.396
Mof_C 	C 	0.9356	0.8896	0.65085	-0.357
Mof_C 	C 	0.08	0.7585	0.55969	0.176
Mof_O 	O 	0.00935	0.10678	0.67803	-1.383
Mof_C 	C 	0.9423	0.7914	0.59755	-0.048
Mof_C 	C 	0.2938	0.5031	0.57087	-0.565
Mof_C 	C 	0.0263	0.1739	0.68053	0.987
Mof_C 	C 	0.1674	0.4404	0.58505	0.194
Mof_C 	C 	0.0338	0.3375	0.61291	-0.011
Mof_C 	C 	0.8994	0.8258	0.64786	0.19
Mof_H 	H 	0.8734	0.8041	0.6576	-0.03
Mof_C 	C 	0.0964	0.3732	0.60793	-0.029
Mof_H 	H 	0.1347	0.3746	0.6165	0.036
Mof_C 	C 	0.9367	0.9208	0.67046	1.011
Mof_C 	C 	0.7928	0.3631	0.56619	0.205
Mof_H 	H 	0.7462	0.3643	0.5711	-0.033
Mof_C 	C 	0.2063	0.7518	0.55986	0.256
Mof_H 	H 	0.2493	0.7496	0.5667	-0.034
Mof_C 	C 	0.9522	0.7197	0.56357	-0.047
Mof_H 	H 	0.9551	0.6951	0.5521	0.04
Mof_C 	C 	0.0013	0.7968	0.58688	-0.013
Mof_H 	H 	0.0386	0.8267	0.5909	0.036
Mof_C 	C 	0.1029	0.4058	0.59094	-0.064
Mof_C 	C 	0.227	0.5371	0.56965	0.329
Mof_H 	H 	0.2251	0.5827	0.5641	-0.07
Mof_C 	C 	0.9798	0.374	0.58452	-0.056
Mof_C 	C 	0.0229	0.2183	0.66405	-0.335
Mof_C 	C 	0.0826	0.7586	0.54014	-0.3
Mof_H 	H 	0.0399	0.7624	0.5333	0.126
Mof_C 	C 	0.2932	0.4386	0.57977	0.343
Mof_H 	H 	0.337	0.4149	0.5813	-0.088
Mof_C 	C 	0.2076	0.7486	0.54047	-0.421
Mof_C 	C 	0.92	0.3684	0.57046	0.148
Mof_C 	C 	0.8844	0.7494	0.59092	-0.042
Mof_H 	H 	0.8422	0.7445	0.598	0.041
Mof_C 	C 	0.9761	0.3384	0.60165	-0.071
Mof_H 	H 	0.9337	0.3152	0.6053	0.043
Mof_C 	C 	0.8717	0.3553	0.5398	0.218
Mof_H 	H 	0.8797	0.3524	0.5268	-0.032
Mof_C 	C 	0.0094	0.7588	0.56969	-0.04
Mof_C 	C 	0.1642	0.5078	0.57604	-0.312
Mof_H 	H 	0.1204	0.5317	0.5745	0.133
Mof_C 	C 	0.1418	0.7585	0.56941	-0.27
Mof_H 	H 	0.1413	0.763	0.5826	0.119
Mof_C 	C 	0.9929	0.2352	0.63199	-0.276
Mof_H 	H 	0.9699	0.2194	0.621	0.108
Mof_C 	C 	0.9887	0.1941	0.64794	0.181
Mof_H 	H 	0.9634	0.1507	0.648	-0.032
Mof_C 	C 	0.0298	0.2985	0.63157	0.178
Mof_C 	C 	0.9296	0.3621	0.55217	-0.245
Mof_H 	H 	0.9764	0.3622	0.5473	0.1
Mof_C 	C 	0.851	0.3713	0.57792	-0.231
Mof_H 	H 	0.8443	0.3787	0.5909	0.101
Mof_C 	C 	0.9713	0.8922	0.61834	-0.207
Mof_H 	H 	0.9952	0.9151	0.6084	0.097
Mof_C 	C 	0.9371	0.8277	0.61539	0.129
Mof_C 	C 	0.9025	0.7946	0.63011	-0.219
Mof_H 	H 	0.8806	0.7501	0.6281	0.096
Mof_C 	C 	0.0588	0.2838	0.6638	0.224
Mof_H 	H 	0.0812	0.3007	0.6748	-0.023
Mof_C 	C 	0.3552	0.5334	0.56271	1.235
Mof_C 	C 	0.1431	0.7536	0.53107	0.283
Mof_H 	H 	0.1428	0.7533	0.5179	-0.061
Mof_O 	O 	0.35146	0.59511	0.55598	-1.516
Mof_O 	O 	0.412	0.49726	0.5624	-1.581
Mof_C 	C 	0.2321	0.4054	0.58668	-0.324
Mof_H 	H 	0.2348	0.3601	0.5923	0.131
Mof_O 	O 	0.91083	0.88122	0.68293	-1.284
Mof_C 	C 	0.0615	0.323	0.64789	-0.247
Mof_H 	H 	0.0852	0.3673	0.6479	0.112
Mof_C 	C 	0.0439	0.408	0.5793	-0.001
Mof_H 	H 	0.0466	0.4325	0.5678	0.028
Mof_C 	C 	0.8461	0.5999	0.55994	-0.245
Mof_H 	H 	0.8932	0.5828	0.5588	0.108
Mof_C 	C 	0.7615	0.6957	0.56818	-0.272
Mof_H 	H 	0.7526	0.7429	0.572	0.12
Mof_C 	C 	0.8296	0.6688	0.56721	0.144
Mof_O 	O 	0.74822	0.34253	0.51723	-1.193
Mof_O 	O 	0.97723	0.95239	0.70909	-2.48
Mof_H 	H 	0.0127	0.9397	0.7178	0.572
Mof_C 	C 	0.7853	0.559	0.55459	0.255
Mof_H 	H 	0.7929	0.5132	0.5496	-0.051
Mof_C 	C 	0.7057	0.6494	0.56317	0.289
Mof_H 	H 	0.6584	0.6655	0.5646	-0.055
Mof_C 	C 	0.9698	0.9243	0.63695	0.193
Mof_H 	H 	0.9922	0.9684	0.6392	-0.016
Mof_C 	C 	0.8923	0.7161	0.57365	-0.027
Mof_C 	C 	0.7166	0.5826	0.55635	-0.479
Mof_C 	C 	0.658	0.5376	0.55204	1.051
Mof_O 	O 	0.66565	0.47379	0.54755	-1.224
Mof_O 	O 	0.59531	0.56832	0.55197	-1.532
Mof_O 	O 	0.27729	0.72997	0.51373	-1.169
Mof_C 	C 	0.2745	0.7349	0.53129	0.955
Mof_O 	O 	0.3282	0.71664	0.54157	-1.393
Mof_C 	C 	0.7413	0.3432	0.53521	0.897
Mof_O 	O 	0.68301	0.3368	0.54311	-1.243
Mof_O 	O 	0.16068	0.10407	0.73121	-2.071
Mof_O 	O 	0.0784	0.19861	0.73533	-1.8
Mof_O 	O 	0.23675	0.12375	0.76059	-0.984
Mof_C 	C 	0.0227	0.1216	0.75688	0.48
Mof_H 	H 	0.9852	0.1194	0.7665	-0.24
Mof_H 	H 	0.019	0.0786	0.7491	-0.269
Mof_C 	C 	0.0121	0.1846	0.7452	0.389
Mof_H 	H 	0.9734	0.1761	0.7362	-0.192
Mof_H 	H 	0.9991	0.2256	0.753	-0.132
Mof_C 	C 	0.2723	0.08	0.74646	-0.251
Mof_H 	H 	0.2949	0.0387	0.7525	0.066
Mof_H 	H 	0.3095	0.108	0.7402	0.083
Mof_C 	C 	0.2187	0.0552	0.73243	0.825
Mof_H 	H 	0.2415	0.0508	0.7201	-0.256
Mof_H 	H 	0.2008	0.0081	0.7361	-0.292
Mof_Al	Al	0.89808	0.89767	0.70869	4.597
Mof_Al	Al	0.89683	0.85294	0.2131	6.011
Mof_Al	Al	0.84168	0.82859	0.25055	4.764
Mof_Al	Al	0.00432	0.97006	0.19434	6.047
Mof_O 	O 	0.96706	0.92126	0.21423	-2.628
Mof_H 	H 	0.9855	0.9321	0.2262	0.652
Mof_O 	O 	0.90867	0.87697	0.2659	-1.817
Mof_O 	O 	0.94993	0.8015	0.19601	-1.427
Mof_C 	C 	0.1957	0.6471	0.04663	-0.359
Mof_O 	O 	0.03797	0.01862	0.17267	-1.396
Mof_C 	C 	0.0644	0.1104	0.15085	-0.357
Mof_C 	C 	0.92	0.2415	0.05969	0.176
Mof_O 	O 	0.99065	0.89322	0.17803	-1.383
Mof_C 	C 	0.0577	0.2086	0.09755	-0.048
Mof_C 	C 	0.7062	0.4969	0.07087	-0.565
Mof_C 	C 	0.9737	0.8261	0.18053	0.987
Mof_C 	C 	0.8326	0.5596	0.08505	0.194
Mof_C 	C 	0.9662	0.6625	0.11291	-0.011
Mof_C 	C 	0.1006	0.1742	0.14786	0.19
Mof_H 	H 	0.1266	0.1959	0.1576	-0.03
Mof_C 	C 	0.9036	0.6268	0.10793	-0.029
Mof_H 	H 	0.8653	0.6254	0.1165	0.036
Mof_C 	C 	0.0633	0.0792	0.17046	1.011
Mof_C 	C 	0.2072	0.6369	0.06619	0.205
Mof_H 	H 	0.2538	0.6357	0.0711	-0.033
Mof_C 	C 	0.7937	0.2482	0.05986	0.256
Mof_H 	H 	0.7507	0.2504	0.0667	-0.034
Mof_C 	C 	0.0478	0.2803	0.06357	-0.047
Mof_H 	H 	0.0449	0.3049	0.0521	0.04
Mof_C 	C 	0.9987	0.2032	0.08688	-0.013
Mof_H 	H 	0.9614	0.1733	0.0909	0.036
Mof_C 	C 	0.8971	0.5942	0.09094	-0.064
Mof_C 	C 	0.773	0.4629	0.06965	0.329
Mof_H 	H 	0.7749	0.4173	0.0641	-0.07
Mof_C 	C 	0.0202	0.626	0.08452	-0.056
Mof_C 	C 	0.9771	0.7817	0.16405	-0.335
Mof_C 	C 	0.9174	0.2414	0.04014	-0.3
Mof_H 	H 	0.9601	0.2376	0.0333	0.126
Mof_C 	C 	0.7068	0.5614	0.07977	0.343
Mof_H 	H 	0.663	0.5851	0.0813	-0.088
Mof_C 	C 	0.7924	0.2514	0.04047	-0.421
Mof_C 	C 	0.08	0.6316	0.07046	0.148
Mof_C 	C 	0.1156	0.2506	0.09092	-0.042
Mof_H 	H 	0.1578	0.2555	0.098	0.041
Mof_C 	C 	0.0239	0.6616	0.10165	-0.071
Mof_H 	H 	0.0663	0.6848	0.1053	0.043
Mof_C 	C 	0.1283	0.6447	0.0398	0.218
Mof_H 	H 	0.1203	0.6476	0.0268	-0.032
Mof_C 	C 	0.9906	0.2412	0.06969	-0.04
Mof_C 	C 	0.8358	0.4922	0.07604	-0.312
Mof_H 	H 	0.8796	0.4683	0.0745	0.133
Mof_C 	C 	0.8582	0.2415	0.06941	-0.27
Mof_H 	H 	0.8587	0.237	0.0826	0.119
Mof_C 	C 	0.0071	0.7648	0.13199	-0.276
Mof_H 	H 	0.0301	0.7806	0.121	0.108
Mof_C 	C 	0.0113	0.8059	0.14794	0.181
Mof_H 	H 	0.0366	0.8493	0.148	-0.032
Mof_C 	C 	0.9702	0.7015	0.13157	0.178
Mof_C 	C 	0.0704	0.6379	0.05217	-0.245
Mof_H 	H 	0.0236	0.6378	0.0473	0.1
Mof_C 	C 	0.149	0.6287	0.07792	-0.231
Mof_H 	H 	0.1557	0.6213	0.0909	0.101
Mof_C 	C 	0.0287	0.1078	0.11834	-0.207
Mof_H 	H 	0.0048	0.0849	0.1084	0.097
Mof_C 	C 	0.0629	0.1723	0.11539	0.129
Mof_C 	C 	0.0975	0.2054	0.13011	-0.219
Mof_H 	H 	0.1194	0.2499	0.1281	0.096
Mof_C 	C 	0.9412	0.7162	0.1638	0.224
Mof_H 	H 	0.9188	0.6993	0.1748	-0.023
Mof_C 	C 	0.6448	0.4666	0.06271	1.235
Mof_C 	C 	0.8569	0.2464	0.03107	0.283
Mof_H 	H 	0.8572	0.2467	0.0179	-0.061
Mof_O 	O 	0.64854	0.40489	0.05598	-1.516
Mof_O 	O 	0.588	0.50274	0.0624	-1.581
Mof_C 	C 	0.7679	0.5946	0.08668	-0.324
Mof_H 	H 	0.7652	0.6399	0.0923	0.131
Mof_O 	O 	0.08917	0.11878	0.18293	-1.284
Mof_C 	C 	0.9385	0.677	0.14789	-0.247
Mof_H 	H 	0.9148	0.6327	0.1479	0.112
Mof_C 	C 	0.9561	0.592	0.0793	-0.001
Mof_H 	H 	0.9534	0.5675	0.0678	0.028
Mof_C 	C 	0.1539	0.4001	0.05994	-0.245
Mof_H 	H 	0.1068	0.4172	0.0588	0.108
Mof_C 	C 	0.2385	0.3043	0.06818	-0.272
Mof_H 	H 	0.2474	0.2571	0.072	0.12
Mof_C 	C 	0.1704	0.3312	0.06721	0.144
Mof_O 	O 	0.25178	0.65747	0.01723	-1.193
Mof_O 	O 	0.02277	0.04761	0.20909	-2.48
Mof_H 	H 	0.9873	0.0603	0.2178	0.572
Mof_C 	C 	0.2147	0.441	0.05459	0.255
Mof_H 	H 	0.2071	0.4868	0.0496	-0.051
Mof_C 	C 	0.2943	0.3506	0.06317	0.289
Mof_H 	H 	0.3416	0.3345	0.0646	-0.055
Mof_C 	C 	0.0302	0.0757	0.13695	0.193
Mof_H 	H 	0.0078	0.0316	0.1392	-0.016
Mof_C 	C 	0.1077	0.2839	0.07365	-0.027
Mof_C 	C 	0.2834	0.4174	0.05635	-0.479
Mof_C 	C 	0.342	0.4624	0.05204	1.051
Mof_O 	O 	0.33435	0.52621	0.04755	-1.224
Mof_O 	O 	0.40469	0.43168	0.05197	-1.532
Mof_O 	O 	0.72271	0.27003	0.01373	-1.169
Mof_C 	C 	0.7255	0.2651	0.03129	0.955
Mof_O 	O 	0.6718	0.28336	0.04157	-1.393
Mof_C 	C 	0.2587	0.6568	0.03521	0.897
Mof_O 	O 	0.31699	0.6632	0.04311	-1.243
Mof_O 	O 	0.83932	0.89593	0.23121	-2.071
Mof_O 	O 	0.9216	0.80139	0.23533	-1.8
Mof_O 	O 	0.76325	0.87625	0.26059	-0.984
Mof_C 	C 	0.9773	0.8784	0.25688	0.48
Mof_H 	H 	0.0148	0.8806	0.2665	-0.24
Mof_H 	H 	0.981	0.9214	0.2491	-0.269
Mof_C 	C 	0.9879	0.8154	0.2452	0.389
Mof_H 	H 	0.0266	0.8239	0.2362	-0.192
Mof_H 	H 	0.0009	0.7744	0.253	-0.132
Mof_C 	C 	0.7277	0.92	0.24646	-0.251
Mof_H 	H 	0.7051	0.9613	0.2525	0.066
Mof_H 	H 	0.6905	0.892	0.2402	0.083
Mof_C 	C 	0.7813	0.9448	0.23243	0.825
Mof_H 	H 	0.7585	0.9492	0.2201	-0.256
Mof_H 	H 	0.7992	0.9919	0.2361	-0.292
Mof_Al	Al	0.10192	0.10233	0.20869	4.597
Mof_Al	Al	0.64706	0.39683	0.4631	6.052
Mof_Al	Al	0.67141	0.34168	0.50055	4.769
Mof_Al	Al	0.52994	0.50432	0.44434	6.703
Mof_O 	O 	0.57874	0.46706	0.46423	-2.777
Mof_H 	H 	0.5679	0.4855	0.4762	0.676
Mof_O 	O 	0.62303	0.40867	0.5159	-1.83
Mof_O 	O 	0.6985	0.44993	0.44601	-1.462
Mof_C 	C 	0.8529	0.6957	0.29663	-0.354
Mof_O 	O 	0.48138	0.53797	0.42267	-1.526
Mof_C 	C 	0.3896	0.5644	0.40085	-0.376
Mof_C 	C 	0.2585	0.42	0.30969	0.174
Mof_O 	O 	0.60678	0.49065	0.42803	-1.519
Mof_C 	C 	0.2914	0.5577	0.34755	-0.032
Mof_C 	C 	0.0031	0.2062	0.32087	-0.613
Mof_C 	C 	0.6739	0.4737	0.43053	1.044
Mof_C 	C 	0.9404	0.3326	0.33505	0.269
Mof_C 	C 	0.8375	0.4662	0.36291	-0.053
Mof_C 	C 	0.3258	0.6006	0.39786	0.198
Mof_H 	H 	0.3041	0.6266	0.4076	-0.034
Mof_C 	C 	0.8732	0.4036	0.35793	-0.002
Mof_H 	H 	0.8746	0.3653	0.3665	0.029
Mof_C 	C 	0.4208	0.5633	0.42046	1.059
Mof_C 	C 	0.8631	0.7072	0.31619	0.211
Mof_H 	H 	0.8643	0.7538	0.3211	-0.03
Mof_C 	C 	0.2518	0.2937	0.30986	0.253
Mof_H 	H 	0.2496	0.2507	0.3167	-0.034
Mof_C 	C 	0.2197	0.5478	0.31357	-0.04
Mof_H 	H 	0.1951	0.5449	0.3021	0.036
Mof_C 	C 	0.2968	0.4987	0.33688	-0.037
Mof_H 	H 	0.3267	0.4614	0.3409	0.037
Mof_C 	C 	0.9058	0.3971	0.34094	-0.091
Mof_C 	C 	0.0371	0.273	0.31965	0.371
Mof_H 	H 	0.0827	0.2749	0.3141	-0.085
Mof_C 	C 	0.874	0.5202	0.33452	-0.047
Mof_C 	C 	0.7183	0.4771	0.41405	-0.412
Mof_C 	C 	0.2586	0.4174	0.29014	-0.3
Mof_H 	H 	0.2624	0.4601	0.2833	0.125
Mof_C 	C 	0.9386	0.2068	0.32977	0.419
Mof_H 	H 	0.9149	0.163	0.3313	-0.103
Mof_C 	C 	0.2486	0.2924	0.29047	-0.418
Mof_C 	C 	0.8684	0.58	0.32046	0.156
Mof_C 	C 	0.2494	0.6156	0.34092	-0.049
Mof_H 	H 	0.2445	0.6578	0.348	0.04
Mof_C 	C 	0.8384	0.5239	0.35165	-0.021
Mof_H 	H 	0.8152	0.5663	0.3553	0.034
Mof_C 	C 	0.8553	0.6283	0.2898	0.223
Mof_H 	H 	0.8524	0.6203	0.2768	-0.026
Mof_C 	C 	0.2588	0.4906	0.31969	-0.046
Mof_C 	C 	0.0078	0.3358	0.32604	-0.398
Mof_H 	H 	0.0317	0.3796	0.3245	0.148
Mof_C 	C 	0.2585	0.3582	0.31941	-0.269
Mof_H 	H 	0.263	0.3587	0.3326	0.115
Mof_C 	C 	0.7352	0.5071	0.38199	-0.263
Mof_H 	H 	0.7194	0.5301	0.371	0.115
Mof_C 	C 	0.6941	0.5113	0.39794	0.258
Mof_H 	H 	0.6507	0.5366	0.398	-0.039
Mof_C 	C 	0.7985	0.4702	0.38157	0.167
Mof_C 	C 	0.8621	0.5704	0.30217	-0.242
Mof_H 	H 	0.8622	0.5236	0.2973	0.11
Mof_C 	C 	0.8713	0.649	0.32792	-0.228
Mof_H 	H 	0.8787	0.6557	0.3409	0.108
Mof_C 	C 	0.3922	0.5287	0.36834	-0.212
Mof_H 	H 	0.4151	0.5048	0.3584	0.097
Mof_C 	C 	0.3277	0.5629	0.36539	0.127
Mof_C 	C 	0.2946	0.5975	0.38011	-0.223
Mof_H 	H 	0.2501	0.6194	0.3781	0.096
Mof_C 	C 	0.7838	0.4412	0.4138	0.256
Mof_H 	H 	0.8007	0.4188	0.4248	-0.037
Mof_C 	C 	0.0334	0.1448	0.31271	1.174
Mof_C 	C 	0.2536	0.3569	0.28107	0.281
Mof_H 	H 	0.2533	0.3572	0.2679	-0.06
Mof_O 	O 	0.09511	0.14854	0.30598	-1.488
Mof_O 	O 	0.99726	0.088	0.3124	-1.419
Mof_C 	C 	0.9054	0.2679	0.33668	-0.377
Mof_H 	H 	0.8601	0.2652	0.3423	0.153
Mof_O 	O 	0.38122	0.58917	0.43293	-1.311
Mof_C 	C 	0.823	0.4385	0.39789	-0.268
Mof_H 	H 	0.8673	0.4148	0.3979	0.119
Mof_C 	C 	0.908	0.4561	0.3293	-0.005
Mof_H 	H 	0.9325	0.4534	0.3178	0.035
Mof_C 	C 	0.0999	0.6539	0.30994	-0.234
Mof_H 	H 	0.0828	0.6068	0.3088	0.097
Mof_C 	C 	0.1957	0.7385	0.31818	-0.256
Mof_H 	H 	0.2429	0.7474	0.322	0.11
Mof_C 	C 	0.1688	0.6704	0.31721	0.131
Mof_O 	O 	0.84253	0.75178	0.26723	-1.186
Mof_O 	O 	0.45239	0.52277	0.45909	-2.607
Mof_H 	H 	0.4397	0.4873	0.4678	0.564
Mof_C 	C 	0.059	0.7147	0.30459	0.226
Mof_H 	H 	0.0132	0.7071	0.2996	-0.058
Mof_C 	C 	0.1494	0.7943	0.31317	0.257
Mof_H 	H 	0.1655	0.8416	0.3146	-0.052
Mof_C 	C 	0.4243	0.5302	0.38695	0.204
Mof_H 	H 	0.4684	0.5078	0.3892	-0.023
Mof_C 	C 	0.2161	0.6077	0.32365	-0.026
Mof_C 	C 	0.0826	0.7834	0.30635	-0.439
Mof_C 	C 	0.0376	0.842	0.30204	0.94
Mof_O 	O 	0.97379	0.83435	0.29755	-1.143
Mof_O 	O 	0.06832	0.90469	0.30197	-1.424
Mof_O 	O 	0.22997	0.22271	0.26373	-1.164
Mof_C 	C 	0.2349	0.2255	0.28129	0.953
Mof_O 	O 	0.21664	0.1718	0.29157	-1.384
Mof_C 	C 	0.8432	0.7587	0.28521	0.896
Mof_O 	O 	0.8368	0.81699	0.29311	-1.235
Mof_O 	O 	0.60407	0.33932	0.48121	-2.077
Mof_O 	O 	0.69861	0.4216	0.48533	-1.782
Mof_O 	O 	0.62375	0.26325	0.51059	-0.983
Mof_C 	C 	0.6216	0.4773	0.50688	0.49
Mof_H 	H 	0.6194	0.5148	0.5165	-0.21
Mof_H 	H 	0.5786	0.481	0.4991	-0.285
Mof_C 	C 	0.6846	0.4879	0.4952	0.194
Mof_H 	H 	0.6761	0.5266	0.4862	-0.102
Mof_H 	H 	0.7256	0.5009	0.503	-0.042
Mof_C 	C 	0.58	0.2277	0.49646	-0.255
Mof_H 	H 	0.5387	0.2051	0.5025	0.072
Mof_H 	H 	0.608	0.1905	0.4902	0.086
Mof_C 	C 	0.5552	0.2813	0.48243	0.83
Mof_H 	H 	0.5508	0.2585	0.4701	-0.255
Mof_H 	H 	0.5081	0.2992	0.4861	-0.29
Mof_Al	Al	0.39767	0.60192	0.45869	4.644
Mof_Al	Al	0.35294	0.60317	0.9631	6.052
Mof_Al	Al	0.32859	0.65832	0.00055	4.769
Mof_Al	Al	0.47006	0.49568	0.94434	6.703
Mof_O 	O 	0.42126	0.53294	0.96423	-2.777
Mof_H 	H 	0.4321	0.5145	0.9762	0.676
Mof_O 	O 	0.37697	0.59133	0.0159	-1.83
Mof_O 	O 	0.3015	0.55007	0.94601	-1.462
Mof_C 	C 	0.1471	0.3043	0.79663	-0.354
Mof_O 	O 	0.51862	0.46203	0.92267	-1.526
Mof_C 	C 	0.6104	0.4356	0.90085	-0.376
Mof_C 	C 	0.7415	0.58	0.80969	0.174
Mof_O 	O 	0.39322	0.50935	0.92803	-1.519
Mof_C 	C 	0.7086	0.4423	0.84755	-0.032
Mof_C 	C 	0.9969	0.7938	0.82087	-0.613
Mof_C 	C 	0.3261	0.5263	0.93053	1.044
Mof_C 	C 	0.0596	0.6674	0.83505	0.269
Mof_C 	C 	0.1625	0.5338	0.86291	-0.053
Mof_C 	C 	0.6742	0.3994	0.89786	0.198
Mof_H 	H 	0.6959	0.3734	0.9076	-0.034
Mof_C 	C 	0.1268	0.5964	0.85793	-0.002
Mof_H 	H 	0.1254	0.6347	0.8665	0.029
Mof_C 	C 	0.5792	0.4367	0.92046	1.059
Mof_C 	C 	0.1369	0.2928	0.81619	0.211
Mof_H 	H 	0.1357	0.2462	0.8211	-0.03
Mof_C 	C 	0.7482	0.7063	0.80986	0.253
Mof_H 	H 	0.7504	0.7493	0.8167	-0.034
Mof_C 	C 	0.7803	0.4522	0.81357	-0.04
Mof_H 	H 	0.8049	0.4551	0.8021	0.036
Mof_C 	C 	0.7032	0.5013	0.83688	-0.037
Mof_H 	H 	0.6733	0.5386	0.8409	0.037
Mof_C 	C 	0.0942	0.6029	0.84094	-0.091
Mof_C 	C 	0.9629	0.727	0.81965	0.371
Mof_H 	H 	0.9173	0.7251	0.8141	-0.085
Mof_C 	C 	0.126	0.4798	0.83452	-0.047
Mof_C 	C 	0.2817	0.5229	0.91405	-0.412
Mof_C 	C 	0.7414	0.5826	0.79014	-0.3
Mof_H 	H 	0.7376	0.5399	0.7833	0.125
Mof_C 	C 	0.0614	0.7932	0.82977	0.419
Mof_H 	H 	0.0851	0.837	0.8313	-0.103
Mof_C 	C 	0.7514	0.7076	0.79047	-0.418
Mof_C 	C 	0.1316	0.42	0.82046	0.156
Mof_C 	C 	0.7506	0.3844	0.84092	-0.049
Mof_H 	H 	0.7555	0.3422	0.848	0.04
Mof_C 	C 	0.1616	0.4761	0.85165	-0.021
Mof_H 	H 	0.1848	0.4337	0.8553	0.034
Mof_C 	C 	0.1447	0.3717	0.7898	0.223
Mof_H 	H 	0.1476	0.3797	0.7768	-0.026
Mof_C 	C 	0.7412	0.5094	0.81969	-0.046
Mof_C 	C 	0.9922	0.6642	0.82604	-0.398
Mof_H 	H 	0.9683	0.6204	0.8245	0.148
Mof_C 	C 	0.7415	0.6418	0.81941	-0.269
Mof_H 	H 	0.737	0.6413	0.8326	0.115
Mof_C 	C 	0.2648	0.4929	0.88199	-0.263
Mof_H 	H 	0.2806	0.4699	0.871	0.115
Mof_C 	C 	0.3059	0.4887	0.89794	0.258
Mof_H 	H 	0.3493	0.4634	0.898	-0.039
Mof_C 	C 	0.2015	0.5298	0.88157	0.167
Mof_C 	C 	0.1379	0.4296	0.80217	-0.242
Mof_H 	H 	0.1378	0.4764	0.7973	0.11
Mof_C 	C 	0.1287	0.351	0.82792	-0.228
Mof_H 	H 	0.1213	0.3443	0.8409	0.108
Mof_C 	C 	0.6078	0.4713	0.86834	-0.212
Mof_H 	H 	0.5849	0.4952	0.8584	0.097
Mof_C 	C 	0.6723	0.4371	0.86539	0.127
Mof_C 	C 	0.7054	0.4025	0.88011	-0.223
Mof_H 	H 	0.7499	0.3806	0.8781	0.096
Mof_C 	C 	0.2162	0.5588	0.9138	0.256
Mof_H 	H 	0.1993	0.5812	0.9248	-0.037
Mof_C 	C 	0.9666	0.8552	0.81271	1.174
Mof_C 	C 	0.7464	0.6431	0.78107	0.281
Mof_H 	H 	0.7467	0.6428	0.7679	-0.06
Mof_O 	O 	0.90489	0.85146	0.80598	-1.488
Mof_O 	O 	0.00274	0.912	0.8124	-1.419
Mof_C 	C 	0.0946	0.7321	0.83668	-0.377
Mof_H 	H 	0.1399	0.7348	0.8423	0.153
Mof_O 	O 	0.61878	0.41083	0.93293	-1.311
Mof_C 	C 	0.177	0.5615	0.89789	-0.268
Mof_H 	H 	0.1327	0.5852	0.8979	0.119
Mof_C 	C 	0.092	0.5439	0.8293	-0.005
Mof_H 	H 	0.0675	0.5466	0.8178	0.035
Mof_C 	C 	0.9001	0.3461	0.80994	-0.234
Mof_H 	H 	0.9172	0.3932	0.8088	0.097
Mof_C 	C 	0.8043	0.2615	0.81818	-0.256
Mof_H 	H 	0.7571	0.2526	0.822	0.11
Mof_C 	C 	0.8312	0.3296	0.81721	0.131
Mof_O 	O 	0.15747	0.24822	0.76723	-1.186
Mof_O 	O 	0.54761	0.47723	0.95909	-2.607
Mof_H 	H 	0.5603	0.5127	0.9678	0.564
Mof_C 	C 	0.941	0.2853	0.80459	0.226
Mof_H 	H 	0.9868	0.2929	0.7996	-0.058
Mof_C 	C 	0.8506	0.2057	0.81317	0.257
Mof_H 	H 	0.8345	0.1584	0.8146	-0.052
Mof_C 	C 	0.5757	0.4698	0.88695	0.204
Mof_H 	H 	0.5316	0.4922	0.8892	-0.023
Mof_C 	C 	0.7839	0.3923	0.82365	-0.026
Mof_C 	C 	0.9174	0.2166	0.80635	-0.439
Mof_C 	C 	0.9624	0.158	0.80204	0.94
Mof_O 	O 	0.02621	0.16565	0.79755	-1.143
Mof_O 	O 	0.93168	0.09531	0.80197	-1.424
Mof_O 	O 	0.77003	0.77729	0.76373	-1.164
Mof_C 	C 	0.7651	0.7745	0.78129	0.953
Mof_O 	O 	0.78336	0.8282	0.79157	-1.384
Mof_C 	C 	0.1568	0.2413	0.78521	0.896
Mof_O 	O 	0.1632	0.18301	0.79311	-1.235
Mof_O 	O 	0.39593	0.66068	0.98121	-2.077
Mof_O 	O 	0.30139	0.5784	0.98533	-1.782
Mof_O 	O 	0.37625	0.73675	0.01059	-0.983
Mof_C 	C 	0.3784	0.5227	0.00688	0.49
Mof_H 	H 	0.3806	0.4852	0.0165	-0.21
Mof_H 	H 	0.4214	0.519	0.9991	-0.285
Mof_C 	C 	0.3154	0.5121	0.9952	0.194
Mof_H 	H 	0.3239	0.4734	0.9862	-0.102
Mof_H 	H 	0.2744	0.4991	0.003	-0.042
Mof_C 	C 	0.42	0.7723	0.99646	-0.255
Mof_H 	H 	0.4613	0.7949	0.0025	0.072
Mof_H 	H 	0.392	0.8095	0.9902	0.086
Mof_C 	C 	0.4448	0.7187	0.98243	0.83
Mof_H 	H 	0.4492	0.7415	0.9701	-0.255
Mof_H 	H 	0.4919	0.7008	0.9861	-0.29
Mof_Al	Al	0.60233	0.39808	0.95869	4.644
_end
