data_functionalizedCrystal
_audit_creation_method	'EQeq! by Chris Wilmer'
_symmetry_space_group_name_H-M	'P1'
_symmetry_Int_Tables_number	1
_symmetry_cell_setting	triclinic
loop_
_symmetry_equiv_pos_as_xyz
  x,y,z
_cell_length_a	7.2562
_cell_length_b	19.3586
_cell_length_c	25.9395
_cell_angle_alpha	90
_cell_angle_beta	90
_cell_angle_gamma	90
loop_
_atom_site_label
_atom_site_type_symbol
_atom_site_fract_x
_atom_site_fract_y
_atom_site_fract_z
_atom_site_charge
Mof_Tb	Tb	0.62977	0.69257	0.73851	1.439
Mof_O 	O 	0.2195	0.1835	0.2816	-0.484
Mof_O 	O 	0.496	0.1721	0.2446	-0.482
Mof_O 	O 	0.8316	0.7668	0.6667	-0.428
Mof_O 	O 	0.9531	0.8708	0.6538	-0.328
Mof_O 	O 	0.4189	0.4502	0.2498	-0.377
Mof_O 	O 	0.5716	0.4986	0.1854	-0.233
Mof_C 	C 	0.3628	0.1496	0.272	0.379
Mof_C 	C 	0.3787	0.0773	0.2904	-0.159
Mof_C 	C 	0.4765	0.0289	0.263	0.048
Mof_H 	H 	0.5278	0.0412	0.2306	0.013
Mof_C 	C 	0.5021	0.9621	0.2817	-0.109
Mof_H 	H 	0.5619	0.9282	0.2611	0.077
Mof_C 	C 	0.44	0.9457	0.3303	0.073
Mof_C 	C 	0.338	0.994	0.3582	-0.11
Mof_H 	H 	0.2925	0.9824	0.3915	0.068
Mof_C 	C 	0.3024	0.0591	0.3378	0.035
Mof_H 	H 	0.2267	0.0908	0.356	-0.001
Mof_C 	C 	0.4871	0.8768	0.3536	-0.036
Mof_C 	C 	0.4915	0.8171	0.3239	0.011
Mof_C 	C 	0.8578	0.8189	0.6394	0.348
Mof_C 	C 	0.7881	0.8178	0.5851	-0.127
Mof_C 	C 	0.82	0.8747	0.5512	0.046
Mof_H 	H 	0.8849	0.9142	0.5631	0.033
Mof_C 	C 	0.7573	0.8722	0.5018	-0.126
Mof_H 	H 	0.7755	0.9109	0.48	0.073
Mof_C 	C 	0.6655	0.8132	0.4822	0.08
Mof_C 	C 	0.6429	0.7573	0.5156	-0.131
Mof_H 	H 	0.5841	0.7166	0.5033	0.081
Mof_C 	C 	0.7031	0.7592	0.5658	0.061
Mof_H 	H 	0.6864	0.7201	0.5874	0.012
Mof_C 	C 	0.5967	0.8124	0.4286	-0.042
Mof_C 	C 	0.538	0.8754	0.4062	0.002
Mof_C 	C 	0.5951	0.753	0.3989	0.012
Mof_C 	C 	0.5416	0.7543	0.3468	-0.043
Mof_C 	C 	0.5279	0.6898	0.3163	0.088
Mof_C 	C 	0.5727	0.6882	0.2642	-0.129
Mof_H 	H 	0.6106	0.7297	0.2478	0.077
Mof_C 	C 	0.5638	0.6274	0.2353	0.053
Mof_H 	H 	0.5955	0.6273	0.1997	0.025
Mof_C 	C 	0.5074	0.5669	0.2597	-0.128
Mof_C 	C 	0.4545	0.5683	0.3114	0.057
Mof_H 	H 	0.4082	0.5277	0.3273	0.014
Mof_C 	C 	0.4694	0.6287	0.3394	-0.13
Mof_H 	H 	0.4393	0.6285	0.375	0.077
Mof_C 	C 	0.495	0.5	0.2321	0.347
Mof_Tb	Tb	0.37023	0.30743	0.23851	1.437
Mof_O 	O 	0.7805	0.8165	0.7816	-0.491
Mof_O 	O 	0.504	0.8279	0.7446	-0.488
Mof_O 	O 	0.1684	0.2332	0.1667	-0.427
Mof_O 	O 	0.0469	0.1292	0.1538	-0.328
Mof_O 	O 	0.5811	0.5498	0.7498	-0.377
Mof_O 	O 	0.4284	0.5014	0.6854	-0.234
Mof_C 	C 	0.6372	0.8504	0.772	0.404
Mof_C 	C 	0.6213	0.9227	0.7904	-0.223
Mof_C 	C 	0.5235	0.9711	0.763	0.151
Mof_H 	H 	0.4722	0.9588	0.7306	-0.016
Mof_C 	C 	0.4979	0.0379	0.7817	-0.21
Mof_H 	H 	0.4381	0.0718	0.7611	0.105
Mof_C 	C 	0.56	0.0543	0.8303	0.135
Mof_C 	C 	0.662	0.006	0.8582	-0.209
Mof_H 	H 	0.7075	0.0176	0.8915	0.093
Mof_C 	C 	0.6976	0.9409	0.8378	0.136
Mof_H 	H 	0.7733	0.9092	0.856	-0.028
Mof_C 	C 	0.5129	0.1232	0.8536	-0.056
Mof_C 	C 	0.5085	0.1829	0.8239	0.015
Mof_C 	C 	0.1422	0.1811	0.1394	0.339
Mof_C 	C 	0.2119	0.1822	0.0851	-0.106
Mof_C 	C 	0.18	0.1253	0.0512	0.01
Mof_H 	H 	0.1151	0.0858	0.0631	0.043
Mof_C 	C 	0.2427	0.1278	0.0018	-0.068
Mof_H 	H 	0.2245	0.0891	0.98	0.044
Mof_C 	C 	0.3345	0.1868	0.9822	0.033
Mof_C 	C 	0.3571	0.2427	0.0156	-0.091
Mof_H 	H 	0.4159	0.2834	0.0033	0.071
Mof_C 	C 	0.2969	0.2408	0.0658	0.033
Mof_H 	H 	0.3136	0.2799	0.0874	0.022
Mof_C 	C 	0.4033	0.1876	0.9286	-0.029
Mof_C 	C 	0.462	0.1246	0.9062	-0.001
Mof_C 	C 	0.4049	0.247	0.8989	0.007
Mof_C 	C 	0.4584	0.2457	0.8468	-0.042
Mof_C 	C 	0.4721	0.3102	0.8163	0.087
Mof_C 	C 	0.4273	0.3118	0.7642	-0.129
Mof_H 	H 	0.3894	0.2703	0.7478	0.075
Mof_C 	C 	0.4362	0.3726	0.7353	0.053
Mof_H 	H 	0.4045	0.3727	0.6997	0.024
Mof_C 	C 	0.4926	0.4331	0.7597	-0.128
Mof_C 	C 	0.5455	0.4317	0.8114	0.057
Mof_H 	H 	0.5918	0.4723	0.8273	0.014
Mof_C 	C 	0.5306	0.3713	0.8394	-0.13
Mof_H 	H 	0.5607	0.3715	0.875	0.077
Mof_C 	C 	0.505	0.5	0.7321	0.347
Mof_Tb	Tb	0.12977	0.80743	0.73851	1.43
Mof_O 	O 	0.7195	0.3165	0.2816	-0.489
Mof_O 	O 	0.996	0.3279	0.2446	-0.487
Mof_O 	O 	0.3316	0.7332	0.6667	-0.431
Mof_O 	O 	0.4531	0.6292	0.6538	-0.332
Mof_O 	O 	0.9189	0.0498	0.2498	-0.373
Mof_O 	O 	0.0716	0.0014	0.1854	-0.229
Mof_C 	C 	0.8628	0.3504	0.272	0.388
Mof_C 	C 	0.8787	0.4227	0.2904	-0.182
Mof_C 	C 	0.9765	0.4711	0.263	0.078
Mof_H 	H 	0.0278	0.4588	0.2306	0.009
Mof_C 	C 	0.0021	0.5379	0.2817	-0.139
Mof_H 	H 	0.0619	0.5718	0.2611	0.086
Mof_C 	C 	0.94	0.5543	0.3303	0.092
Mof_C 	C 	0.838	0.506	0.3582	-0.15
Mof_H 	H 	0.7925	0.5176	0.3915	0.078
Mof_C 	C 	0.8024	0.4409	0.3378	0.076
Mof_H 	H 	0.7267	0.4092	0.356	-0.012
Mof_C 	C 	0.9871	0.6232	0.3536	-0.044
Mof_C 	C 	0.9915	0.6829	0.3239	0.009
Mof_C 	C 	0.3578	0.6811	0.6394	0.347
Mof_C 	C 	0.2881	0.6822	0.5851	-0.129
Mof_C 	C 	0.32	0.6253	0.5512	0.046
Mof_H 	H 	0.3849	0.5858	0.5631	0.03
Mof_C 	C 	0.2573	0.6278	0.5018	-0.127
Mof_H 	H 	0.2755	0.5891	0.48	0.071
Mof_C 	C 	0.1655	0.6868	0.4822	0.08
Mof_C 	C 	0.1429	0.7427	0.5156	-0.132
Mof_H 	H 	0.0841	0.7834	0.5033	0.081
Mof_C 	C 	0.2031	0.7408	0.5658	0.061
Mof_H 	H 	0.1864	0.7799	0.5874	0.011
Mof_C 	C 	0.0967	0.6876	0.4286	-0.043
Mof_C 	C 	0.038	0.6246	0.4062	0.003
Mof_C 	C 	0.0951	0.747	0.3989	0.012
Mof_C 	C 	0.0416	0.7457	0.3468	-0.038
Mof_C 	C 	0.0279	0.8102	0.3163	0.08
Mof_C 	C 	0.0727	0.8118	0.2642	-0.115
Mof_H 	H 	0.1106	0.7703	0.2478	0.073
Mof_C 	C 	0.0638	0.8726	0.2353	0.034
Mof_H 	H 	0.0955	0.8727	0.1997	0.035
Mof_C 	C 	0.0074	0.9331	0.2597	-0.092
Mof_C 	C 	0.9545	0.9317	0.3114	0.034
Mof_H 	H 	0.9082	0.9723	0.3273	0.025
Mof_C 	C 	0.9694	0.8713	0.3394	-0.119
Mof_H 	H 	0.9393	0.8715	0.375	0.073
Mof_C 	C 	0.995	0	0.2321	0.315
Mof_Tb	Tb	0.87023	0.19257	0.23851	1.422
Mof_O 	O 	0.2805	0.6835	0.7816	-0.489
Mof_O 	O 	0.004	0.6721	0.7446	-0.487
Mof_O 	O 	0.6684	0.2668	0.1667	-0.429
Mof_O 	O 	0.5469	0.3708	0.1538	-0.33
Mof_O 	O 	0.0811	0.9502	0.7498	-0.355
Mof_O 	O 	0.9284	0.9986	0.6854	-0.209
Mof_C 	C 	0.1372	0.6496	0.772	0.388
Mof_C 	C 	0.1213	0.5773	0.7904	-0.181
Mof_C 	C 	0.0235	0.5289	0.763	0.078
Mof_H 	H 	0.9722	0.5412	0.7306	0.008
Mof_C 	C 	0.9979	0.4621	0.7817	-0.139
Mof_H 	H 	0.9381	0.4282	0.7611	0.085
Mof_C 	C 	0.06	0.4457	0.8303	0.091
Mof_C 	C 	0.162	0.494	0.8582	-0.149
Mof_H 	H 	0.2075	0.4824	0.8915	0.077
Mof_C 	C 	0.1976	0.5591	0.8378	0.075
Mof_H 	H 	0.2733	0.5908	0.856	-0.011
Mof_C 	C 	0.0129	0.3768	0.8536	-0.041
Mof_C 	C 	0.0085	0.3171	0.8239	0.007
Mof_C 	C 	0.6422	0.3189	0.1394	0.339
Mof_C 	C 	0.7119	0.3178	0.0851	-0.107
Mof_C 	C 	0.68	0.3747	0.0512	0.012
Mof_H 	H 	0.6151	0.4142	0.0631	0.044
Mof_C 	C 	0.7427	0.3722	0.0018	-0.07
Mof_H 	H 	0.7245	0.4109	0.98	0.047
Mof_C 	C 	0.8345	0.3132	0.9822	0.035
Mof_C 	C 	0.8571	0.2573	0.0156	-0.092
Mof_H 	H 	0.9159	0.2166	0.0033	0.07
Mof_C 	C 	0.7969	0.2592	0.0658	0.033
Mof_H 	H 	0.8136	0.2201	0.0874	0.02
Mof_C 	C 	0.9033	0.3124	0.9286	-0.028
Mof_C 	C 	0.962	0.3754	0.9062	-0.002
Mof_C 	C 	0.9049	0.253	0.8989	0.005
Mof_C 	C 	0.9584	0.2543	0.8468	-0.036
Mof_C 	C 	0.9721	0.1898	0.8163	0.081
Mof_C 	C 	0.9273	0.1882	0.7642	-0.119
Mof_H 	H 	0.8894	0.2297	0.7478	0.073
Mof_C 	C 	0.9362	0.1274	0.7353	0.038
Mof_H 	H 	0.9045	0.1273	0.6997	0.027
Mof_C 	C 	0.9926	0.0669	0.7597	-0.105
Mof_C 	C 	0.0455	0.0683	0.8114	0.039
Mof_H 	H 	0.0918	0.0277	0.8273	0.016
Mof_C 	C 	0.0306	0.1287	0.8394	-0.123
Mof_H 	H 	0.0607	0.1285	0.875	0.073
Mof_C 	C 	0.005	0	0.7321	0.298
_end
