data_functionalizedCrystal
_audit_creation_method	'EQeq! by Chris Wilmer'
_symmetry_space_group_name_H-M	'P1'
_symmetry_Int_Tables_number	1
_symmetry_cell_setting	triclinic
loop_
_symmetry_equiv_pos_as_xyz
  x,y,z
_cell_length_a	7.362
_cell_length_b	12.946
_cell_length_c	13.628
_cell_angle_alpha	90
_cell_angle_beta	91.312
_cell_angle_gamma	90
loop_
_atom_site_label
_atom_site_type_symbol
_atom_site_fract_x
_atom_site_fract_y
_atom_site_fract_z
_atom_site_charge
Mof_Zn	Zn	0.50024	0.25	0.08624	1.168
Mof_Zn	Zn	0.49976	0.75	0.91376	1.199
Mof_Ni	Ni	-0	0	-0	0.919
Mof_Ni	Ni	9.7201e-33	0.5	-0	0.946
Mof_H 	H 	0.5211	0.4044	0.9097	0.03
Mof_H 	H 	0.5636	0.4035	0.7412	0.065
Mof_H 	H 	0.4587	0.4048	0.4337	0.102
Mof_H 	H 	0.5047	0.4027	0.2651	-0.026
Mof_H 	H 	0.4789	0.9044	0.0903	-0.007
Mof_H 	H 	0.4364	0.9035	0.2588	0.068
Mof_H 	H 	0.5413	0.9048	0.5663	0.129
Mof_H 	H 	0.4953	0.9027	0.7349	-0.013
Mof_H 	H 	0.4789	0.5956	0.0903	-0.022
Mof_H 	H 	0.4364	0.5965	0.2588	0.052
Mof_H 	H 	0.5413	0.5952	0.5663	0.115
Mof_H 	H 	0.4953	0.5973	0.7349	-0.026
Mof_H 	H 	0.5211	0.0956	0.9097	0.016
Mof_H 	H 	0.5636	0.0965	0.7412	0.049
Mof_H 	H 	0.4587	0.0952	0.4337	0.087
Mof_H 	H 	0.5047	0.0973	0.2651	-0.04
Mof_C 	C 	0.8277	0.0782	0.0464	-0.263
Mof_C 	C 	0.1995	0.0917	0.0378	-0.322
Mof_C 	C 	0.5306	0.3418	0.8767	0.038
Mof_C 	C 	0.5517	0.3414	0.7747	-0.082
Mof_C 	C 	0.469	0.3425	0.4002	-0.198
Mof_C 	C 	0.4948	0.3407	0.299	0.097
Mof_C 	C 	0.1723	0.5782	0.9536	-0.25
Mof_C 	C 	0.8005	0.5917	0.9622	-0.022
Mof_C 	C 	0.4694	0.8418	0.1233	0.013
Mof_C 	C 	0.4483	0.8414	0.2253	-0.089
Mof_C 	C 	0.531	0.8425	0.5998	-0.202
Mof_C 	C 	0.5052	0.8407	0.701	0.11
Mof_C 	C 	0.1723	0.9218	0.9536	-0.209
Mof_C 	C 	0.8005	0.9083	0.9622	0.012
Mof_C 	C 	0.4694	0.6582	0.1233	0.011
Mof_C 	C 	0.4483	0.6586	0.2253	-0.091
Mof_C 	C 	0.531	0.6575	0.5998	-0.204
Mof_C 	C 	0.5052	0.6593	0.701	0.108
Mof_C 	C 	0.8277	0.4218	0.0464	-0.239
Mof_C 	C 	0.1995	0.4083	0.0378	-0.297
Mof_C 	C 	0.5306	0.1582	0.8767	0.037
Mof_C 	C 	0.5517	0.1586	0.7747	-0.085
Mof_C 	C 	0.469	0.1575	0.4002	-0.2
Mof_C 	C 	0.4948	0.1593	0.299	0.095
Mof_C 	C 	0.5547	0.25	0.7239	0.008
Mof_C 	C 	0.5758	0.25	0.615	0.185
Mof_C 	C 	0.4593	0.25	0.4487	0.174
Mof_C 	C 	0.4453	0.75	0.2761	-0
Mof_C 	C 	0.4242	0.75	0.385	0.199
Mof_C 	C 	0.5407	0.75	0.5513	0.205
Mof_N 	N 	0.3055	0.1398	0.0765	-0.222
Mof_N 	N 	0.7103	0.1336	0.0777	-0.192
Mof_N 	N 	0.6945	0.6398	0.9235	-0.224
Mof_N 	N 	0.2897	0.6336	0.9223	-0.173
Mof_N 	N 	0.6945	0.8602	0.9235	-0.226
Mof_N 	N 	0.2897	0.8664	0.9223	-0.175
Mof_N 	N 	0.3055	0.3602	0.0765	-0.221
Mof_N 	N 	0.7103	0.3664	0.0777	-0.19
Mof_N 	N 	0.5238	0.25	0.929	-0.193
Mof_N 	N 	0.4397	0.25	0.559	-0.177
Mof_N 	N 	0.5057	0.25	0.2489	-0.257
Mof_N 	N 	0.4762	0.75	0.071	-0.266
Mof_N 	N 	0.5603	0.75	0.441	-0.151
Mof_N 	N 	0.4943	0.75	0.7511	-0.254
Mof_O 	O 	0.7312	0.25	0.5774	-0.178
Mof_O 	O 	0.2688	0.75	0.4226	-0.251
_end
