data_functionalizedCrystal
_audit_creation_method	'EQeq! by Chris Wilmer'
_symmetry_space_group_name_H-M	'P1'
_symmetry_Int_Tables_number	1
_symmetry_cell_setting	triclinic
loop_
_symmetry_equiv_pos_as_xyz
  x,y,z
_cell_length_a	17.0076
_cell_length_b	17.0076
_cell_length_c	7.8591
_cell_angle_alpha	90
_cell_angle_beta	90
_cell_angle_gamma	90
loop_
_atom_site_label
_atom_site_type_symbol
_atom_site_fract_x
_atom_site_fract_y
_atom_site_fract_z
_atom_site_charge
Mof_N 	N 	0.6751	0.18619	0.4124	-0.136
Mof_N 	N 	0.75562	0.91647	0.4126	-0.142
Mof_C 	C 	0.6903	0.1213	0.3309	0.017
Mof_H 	H 	0.6879	0.1219	0.2114	0.01
Mof_C 	C 	0.7102	0.05045	0.4119	-0.013
Mof_C 	C 	0.7334	0.9798	0.3314	0.015
Mof_H 	H 	0.7329	0.9783	0.2118	0.014
Mof_N 	N 	0.3249	0.81381	0.4124	-0.136
Mof_N 	N 	0.24438	0.08353	0.4126	-0.142
Mof_C 	C 	0.3097	0.8787	0.3309	0.018
Mof_H 	H 	0.3121	0.8781	0.2114	0.011
Mof_C 	C 	0.2898	0.94955	0.4119	-0.014
Mof_C 	C 	0.2666	0.0202	0.3314	0.019
Mof_H 	H 	0.2671	0.0217	0.2118	0.014
Mof_N 	N 	0.18619	0.6751	0.5876	-0.135
Mof_N 	N 	0.91647	0.75562	0.5874	-0.141
Mof_C 	C 	0.1213	0.6903	0.6691	0.018
Mof_H 	H 	0.1219	0.6879	0.7886	0.011
Mof_C 	C 	0.05045	0.7102	0.5881	-0.012
Mof_C 	C 	0.9798	0.7334	0.6686	0.016
Mof_H 	H 	0.9783	0.7329	0.7882	0.015
Mof_N 	N 	0.81381	0.3249	0.5876	-0.135
Mof_N 	N 	0.08353	0.24438	0.5874	-0.141
Mof_C 	C 	0.8787	0.3097	0.6691	0.019
Mof_H 	H 	0.8781	0.3121	0.7886	0.011
Mof_C 	C 	0.94955	0.2898	0.5881	-0.014
Mof_C 	C 	0.0202	0.2666	0.6686	0.019
Mof_H 	H 	0.0217	0.2671	0.7882	0.014
Mof_N 	N 	0.3249	0.81381	0.5876	-0.135
Mof_N 	N 	0.24438	0.08353	0.5874	-0.141
Mof_C 	C 	0.3097	0.8787	0.6691	0.019
Mof_H 	H 	0.3121	0.8781	0.7886	0.011
Mof_C 	C 	0.2898	0.94955	0.5881	-0.014
Mof_C 	C 	0.2666	0.0202	0.6686	0.019
Mof_H 	H 	0.2671	0.0217	0.7882	0.014
Mof_N 	N 	0.6751	0.18619	0.5876	-0.135
Mof_N 	N 	0.75562	0.91647	0.5874	-0.141
Mof_C 	C 	0.6903	0.1213	0.6691	0.018
Mof_H 	H 	0.6879	0.1219	0.7886	0.011
Mof_C 	C 	0.7102	0.05045	0.5881	-0.012
Mof_C 	C 	0.7334	0.9798	0.6686	0.016
Mof_H 	H 	0.7329	0.9783	0.7882	0.015
Mof_N 	N 	0.81381	0.3249	0.4124	-0.135
Mof_N 	N 	0.08353	0.24438	0.4126	-0.141
Mof_C 	C 	0.8787	0.3097	0.3309	0.019
Mof_H 	H 	0.8781	0.3121	0.2114	0.011
Mof_C 	C 	0.94955	0.2898	0.4119	-0.014
Mof_C 	C 	0.0202	0.2666	0.3314	0.019
Mof_H 	H 	0.0217	0.2671	0.2118	0.014
Mof_N 	N 	0.18619	0.6751	0.4124	-0.135
Mof_N 	N 	0.91647	0.75562	0.4126	-0.141
Mof_C 	C 	0.1213	0.6903	0.3309	0.018
Mof_H 	H 	0.1219	0.6879	0.2114	0.011
Mof_C 	C 	0.05045	0.7102	0.4119	-0.012
Mof_C 	C 	0.9798	0.7334	0.3314	0.016
Mof_H 	H 	0.9783	0.7329	0.2118	0.015
Mof_Ag	Ag	0.18735	0.18735	0.75893	0.574
Mof_N 	N 	0.09964	0.09964	0.9135	-0.139
Mof_C 	C 	0.0522	0.0522	0.8326	0.017
Mof_H 	H 	0.053	0.053	0.713	0.012
Mof_Ag	Ag	0.81265	0.81265	0.75893	0.573
Mof_N 	N 	0.90036	0.90036	0.9135	-0.139
Mof_C 	C 	0.9478	0.9478	0.8326	0.015
Mof_H 	H 	0.947	0.947	0.713	0.012
Mof_Ag	Ag	0.81265	0.81265	0.24107	0.573
Mof_N 	N 	0.90036	0.90036	0.0865	-0.139
Mof_C 	C 	0.9478	0.9478	0.1674	0.015
Mof_H 	H 	0.947	0.947	0.287	0.012
Mof_Ag	Ag	0.18735	0.18735	0.24107	0.574
Mof_N 	N 	0.09964	0.09964	0.0865	-0.139
Mof_C 	C 	0.0522	0.0522	0.1674	0.017
Mof_H 	H 	0.053	0.053	0.287	0.012
Mof_C 	C 	1.58253e-33	0	0.9134	-0.014
Mof_C 	C 	-1.96969e-34	-3.4701e-34	0.0866	-0.014
Mof_N 	N 	0.31381	0.1751	0.9124	-0.135
Mof_N 	N 	0.58353	0.25562	0.9126	-0.141
Mof_C 	C 	0.3787	0.1903	0.8309	0.018
Mof_H 	H 	0.3781	0.1879	0.7114	0.011
Mof_C 	C 	0.44955	0.2102	0.9119	-0.013
Mof_C 	C 	0.5202	0.2334	0.8314	0.018
Mof_H 	H 	0.5217	0.2329	0.7118	0.015
Mof_N 	N 	0.68619	0.8249	0.9124	-0.135
Mof_N 	N 	0.41647	0.74438	0.9126	-0.141
Mof_C 	C 	0.6213	0.8097	0.8309	0.018
Mof_H 	H 	0.6219	0.8121	0.7114	0.011
Mof_C 	C 	0.55045	0.7898	0.9119	-0.013
Mof_C 	C 	0.4798	0.7666	0.8314	0.018
Mof_H 	H 	0.4783	0.7671	0.7118	0.014
Mof_N 	N 	0.8249	0.68619	0.0876	-0.135
Mof_N 	N 	0.74438	0.41647	0.0874	-0.141
Mof_C 	C 	0.8097	0.6213	0.1691	0.018
Mof_H 	H 	0.8121	0.6219	0.2886	0.011
Mof_C 	C 	0.7898	0.55045	0.0881	-0.013
Mof_C 	C 	0.7666	0.4798	0.1686	0.018
Mof_H 	H 	0.7671	0.4783	0.2882	0.014
Mof_N 	N 	0.1751	0.31381	0.0876	-0.135
Mof_N 	N 	0.25562	0.58353	0.0874	-0.141
Mof_C 	C 	0.1903	0.3787	0.1691	0.018
Mof_H 	H 	0.1879	0.3781	0.2886	0.011
Mof_C 	C 	0.2102	0.44955	0.0881	-0.013
Mof_C 	C 	0.2334	0.5202	0.1686	0.018
Mof_H 	H 	0.2329	0.5217	0.2882	0.015
Mof_N 	N 	0.68619	0.8249	0.0876	-0.135
Mof_N 	N 	0.41647	0.74438	0.0874	-0.141
Mof_C 	C 	0.6213	0.8097	0.1691	0.018
Mof_H 	H 	0.6219	0.8121	0.2886	0.011
Mof_C 	C 	0.55045	0.7898	0.0881	-0.013
Mof_C 	C 	0.4798	0.7666	0.1686	0.018
Mof_H 	H 	0.4783	0.7671	0.2882	0.014
Mof_N 	N 	0.31381	0.1751	0.0876	-0.135
Mof_N 	N 	0.58353	0.25562	0.0874	-0.141
Mof_C 	C 	0.3787	0.1903	0.1691	0.018
Mof_H 	H 	0.3781	0.1879	0.2886	0.011
Mof_C 	C 	0.44955	0.2102	0.0881	-0.013
Mof_C 	C 	0.5202	0.2334	0.1686	0.018
Mof_H 	H 	0.5217	0.2329	0.2882	0.015
Mof_N 	N 	0.1751	0.31381	0.9124	-0.135
Mof_N 	N 	0.25562	0.58353	0.9126	-0.141
Mof_C 	C 	0.1903	0.3787	0.8309	0.018
Mof_H 	H 	0.1879	0.3781	0.7114	0.011
Mof_C 	C 	0.2102	0.44955	0.9119	-0.013
Mof_C 	C 	0.2334	0.5202	0.8314	0.018
Mof_H 	H 	0.2329	0.5217	0.7118	0.015
Mof_N 	N 	0.8249	0.68619	0.9124	-0.135
Mof_N 	N 	0.74438	0.41647	0.9126	-0.141
Mof_C 	C 	0.8097	0.6213	0.8309	0.018
Mof_H 	H 	0.8121	0.6219	0.7114	0.011
Mof_C 	C 	0.7898	0.55045	0.9119	-0.013
Mof_C 	C 	0.7666	0.4798	0.8314	0.018
Mof_H 	H 	0.7671	0.4783	0.7118	0.014
Mof_Ag	Ag	0.68735	0.31265	0.25893	0.574
Mof_N 	N 	0.59964	0.40036	0.4135	-0.139
Mof_C 	C 	0.5522	0.4478	0.3326	0.018
Mof_H 	H 	0.553	0.447	0.213	0.012
Mof_Ag	Ag	0.31265	0.68735	0.25893	0.574
Mof_N 	N 	0.40036	0.59964	0.4135	-0.139
Mof_C 	C 	0.4478	0.5522	0.3326	0.018
Mof_H 	H 	0.447	0.553	0.213	0.012
Mof_Ag	Ag	0.31265	0.68735	0.74107	0.574
Mof_N 	N 	0.40036	0.59964	0.5865	-0.139
Mof_C 	C 	0.4478	0.5522	0.6674	0.018
Mof_H 	H 	0.447	0.553	0.787	0.012
Mof_Ag	Ag	0.68735	0.31265	0.74107	0.574
Mof_N 	N 	0.59964	0.40036	0.5865	-0.139
Mof_C 	C 	0.5522	0.4478	0.6674	0.018
Mof_H 	H 	0.553	0.447	0.787	0.012
Mof_C 	C 	0.5	0.5	0.4134	-0.016
Mof_C 	C 	0.5	0.5	0.5866	-0.016
_end
