# CIF file generated by openbabel 3.1.0, see https://openbabel.org
data_I
_chemical_name_common 'image0'
_cell_length_a 32.983
_cell_length_b 14.9969
_cell_length_c 31.033
_cell_angle_alpha 90
_cell_angle_beta 100.553
_cell_angle_gamma 90
_space_group_name_H-M_alt 'P 1'
_space_group_name_Hall 'P 1'
loop_
    _symmetry_equiv_pos_as_xyz
    x,y,z
loop_
    _atom_site_label
    _atom_site_type_symbol
    _atom_site_fract_x
    _atom_site_fract_y
    _atom_site_fract_z
    _atom_site_occupancy
    N1       N        0.18710    0.49010    0.27900    1.000
    C1       C        0.21150    0.52830    0.31240    1.000
    H1       H        0.22510    0.49120    0.33530    1.000
    C2       C        0.21840    0.61990    0.31580    1.000
    H2       H        0.23650    0.64470    0.34020    1.000
    C3       C        0.19780    0.67340    0.28250    1.000
    C4       C        0.17280    0.63270    0.24690    1.000
    H3       H        0.15970    0.66740    0.22270    1.000
    C5       C        0.16740    0.54250    0.24720    1.000
    H4       H        0.14880    0.51590    0.22370    1.000
    C6       C        0.20370    0.77180    0.28240    1.000
    N2       N        0.23180    0.80900    0.31330    1.000
    C7       C        0.23720    0.89540    0.30880    1.000
    N3       N        0.21790    0.94480    0.27490    1.000
    C8       C        0.19020    0.90160    0.24650    1.000
    N4       N        0.18050    0.81580    0.24930    1.000
    N5       N        0.32220    0.03240    0.40640    1.000
    C9       C        0.29770    0.07600    0.37370    1.000
    H5       H        0.29980    0.13910    0.37270    1.000
    C10      C        0.27010    0.03460    0.34210    1.000
    H6       H        0.25310    0.06840    0.31990    1.000
    C11      C        0.26720    0.94310    0.34260    1.000
    C12      C        0.29240    0.89670    0.37550    1.000
    H7       H        0.29150    0.83340    0.37670    1.000
    C13      C        0.31900    0.94500    0.40690    1.000
    H8       H        0.33590    0.91310    0.42990    1.000
    N6       N        0.12290    0.04560    0.13830    1.000
    C14      C        0.11730    0.95870    0.14370    1.000
    H9       H        0.09690    0.92890    0.12320    1.000
    C15      C        0.13950    0.90990    0.17740    1.000
    H10      H        0.13520    0.84740    0.17910    1.000
    C16      C        0.16750    0.95180    0.20810    1.000
    C17      C        0.17420    0.04270    0.20280    1.000
    H11      H        0.19410    0.07390    0.22330    1.000
    C18      C        0.15150    0.08630    0.16730    1.000
    H12      H        0.15650    0.14790    0.16350    1.000
    Zn1      Zn       0.08071    0.11981    0.09426    1.000
    I1       I        0.02415    0.15460    0.13444    1.000
    I2       I        0.11998    0.23370    0.05727    1.000
    N7       N        0.06321    0.01980    0.04816    1.000
    C19      C        0.08650    0.00330    0.01770    1.000
    H13      H        0.10720    0.04510    0.01380    1.000
    C20      C        0.08140    0.92800    0.99230    1.000
    H14      H        0.09890    0.91710    0.97170    1.000
    C21      C        0.05080    0.86880    0.99680    1.000
    C22      C        0.02490    0.88750    0.02620    1.000
    H15      H        0.00290    0.84850    0.02910    1.000
    C23      C        0.03190    0.96420    0.05130    1.000
    H16      H        0.01410    0.97800    0.07120    1.000
    C24      C        0.04610    0.78500    0.97050    1.000
    N8       N        0.01611    0.72760    0.97720    1.000
    C25      C        0.01230    0.65740    0.95040    1.000
    N9       N        0.03575    0.63930    0.92070    1.000
    C26      C        0.06460    0.69920    0.91850    1.000
    N10      N        0.07149    0.77310    0.94260    1.000
    N11      N        0.91320    0.48000    0.95740    1.000
    C27      C        0.92810    0.53290    0.99130    1.000
    H17      H        0.91610    0.53060    0.01690    1.000
    C28      C        0.96040    0.59040    0.99030    1.000
    H18      H        0.97010    0.62780    0.01470    1.000
    C29      C        0.97860    0.59370    0.95370    1.000
    C30      C        0.96310    0.53840    0.91880    1.000
    H19      H        0.97450    0.53890    0.89280    1.000
    C31      C        0.93100    0.48280    0.92300    1.000
    H20      H        0.92100    0.44380    0.89930    1.000
    Zn2      Zn       0.86105    0.40234    0.95540    1.000
    I3       I        0.87455    0.25322    0.92465    1.000
    I4       I        0.83253    0.42909    0.02504    1.000
    N12      N        0.14170    0.66030    0.82390    1.000
    C32      C        0.10750    0.61090    0.82240    1.000
    H21      H        0.10030    0.56880    0.79940    1.000
    C33      C        0.08250    0.61960    0.85360    1.000
    H22      H        0.05950    0.58120    0.85320    1.000
    C34      C        0.09170    0.68600    0.88560    1.000
    C35      C        0.12620    0.73750    0.88650    1.000
    H23      H        0.13350    0.78200    0.90830    1.000
    C36      C        0.15050    0.72300    0.85460    1.000
    H24      H        0.17410    0.75930    0.85490    1.000
    Zn3      Zn       0.17319    0.64355    0.77303    1.000
    I5       I        0.12868    0.66846    0.69848    1.000
    I6       I        0.23799    0.73141    0.80011    1.000
    I7       I        0.15180    0.69970    0.71190    1.000
    I8       I        0.25110    0.72360    0.81720    1.000
    Zn4      Zn       0.18960    0.65170    0.78770    1.000
    I9       I        0.01500    0.13610    0.13180    1.000
    I10      I        0.11540    0.24070    0.06480    1.000
    N13      N        0.68710    0.99010    0.27900    1.000
    C37      C        0.71150    0.02830    0.31240    1.000
    H25      H        0.72510    0.99120    0.33530    1.000
    C38      C        0.71840    0.11990    0.31580    1.000
    H26      H        0.73650    0.14470    0.34020    1.000
    C39      C        0.69780    0.17340    0.28250    1.000
    C40      C        0.67280    0.13270    0.24690    1.000
    H27      H        0.65970    0.16740    0.22270    1.000
    C41      C        0.66740    0.04250    0.24720    1.000
    H28      H        0.64880    0.01590    0.22370    1.000
    C42      C        0.70370    0.27180    0.28240    1.000
    N14      N        0.73180    0.30900    0.31330    1.000
    C43      C        0.73720    0.39540    0.30880    1.000
    N15      N        0.71790    0.44480    0.27490    1.000
    C44      C        0.69020    0.40160    0.24650    1.000
    N16      N        0.68050    0.31580    0.24930    1.000
    N17      N        0.82220    0.53240    0.40640    1.000
    C45      C        0.79770    0.57600    0.37370    1.000
    H29      H        0.79980    0.63910    0.37270    1.000
    C46      C        0.77010    0.53460    0.34210    1.000
    H30      H        0.75310    0.56840    0.31990    1.000
    C47      C        0.76720    0.44310    0.34260    1.000
    C48      C        0.79240    0.39670    0.37550    1.000
    H31      H        0.79150    0.33340    0.37670    1.000
    C49      C        0.81900    0.44500    0.40690    1.000
    H32      H        0.83590    0.41310    0.42990    1.000
    N18      N        0.62290    0.54560    0.13830    1.000
    C50      C        0.61730    0.45870    0.14370    1.000
    H33      H        0.59690    0.42890    0.12320    1.000
    C51      C        0.63950    0.40990    0.17740    1.000
    H34      H        0.63520    0.34740    0.17910    1.000
    C52      C        0.66750    0.45180    0.20810    1.000
    C53      C        0.67420    0.54270    0.20280    1.000
    H35      H        0.69410    0.57390    0.22330    1.000
    C54      C        0.65150    0.58630    0.16730    1.000
    H36      H        0.65650    0.64790    0.16350    1.000
    Zn5      Zn       0.58071    0.61981    0.09426    1.000
    I11      I        0.52415    0.65460    0.13444    1.000
    I12      I        0.61998    0.73370    0.05727    1.000
    N19      N        0.56321    0.51980    0.04816    1.000
    C55      C        0.58650    0.50330    0.01770    1.000
    H37      H        0.60720    0.54510    0.01380    1.000
    C56      C        0.58140    0.42800    0.99230    1.000
    H38      H        0.59890    0.41710    0.97170    1.000
    C57      C        0.55080    0.36880    0.99680    1.000
    C58      C        0.52490    0.38750    0.02620    1.000
    H39      H        0.50290    0.34850    0.02910    1.000
    C59      C        0.53190    0.46420    0.05130    1.000
    H40      H        0.51410    0.47800    0.07120    1.000
    C60      C        0.54610    0.28500    0.97050    1.000
    N20      N        0.51611    0.22760    0.97720    1.000
    C61      C        0.51230    0.15740    0.95040    1.000
    N21      N        0.53575    0.13930    0.92070    1.000
    C62      C        0.56460    0.19920    0.91850    1.000
    N22      N        0.57149    0.27310    0.94260    1.000
    N23      N        0.41320    0.98000    0.95740    1.000
    C63      C        0.42810    0.03290    0.99130    1.000
    H41      H        0.41610    0.03060    0.01690    1.000
    C64      C        0.46040    0.09040    0.99030    1.000
    H42      H        0.47010    0.12780    0.01470    1.000
    C65      C        0.47860    0.09370    0.95370    1.000
    C66      C        0.46310    0.03840    0.91880    1.000
    H43      H        0.47450    0.03890    0.89280    1.000
    C67      C        0.43100    0.98280    0.92300    1.000
    H44      H        0.42100    0.94380    0.89930    1.000
    Zn6      Zn       0.36105    0.90234    0.95540    1.000
    I13      I        0.37455    0.75322    0.92465    1.000
    I14      I        0.33253    0.92909    0.02504    1.000
    N24      N        0.64170    0.16030    0.82390    1.000
    C68      C        0.60750    0.11090    0.82240    1.000
    H45      H        0.60030    0.06880    0.79940    1.000
    C69      C        0.58250    0.11960    0.85360    1.000
    H46      H        0.55950    0.08120    0.85320    1.000
    C70      C        0.59170    0.18600    0.88560    1.000
    C71      C        0.62620    0.23750    0.88650    1.000
    H47      H        0.63350    0.28200    0.90830    1.000
    C72      C        0.65050    0.22300    0.85460    1.000
    H48      H        0.67410    0.25930    0.85490    1.000
    Zn7      Zn       0.67319    0.14355    0.77303    1.000
    I15      I        0.62868    0.16846    0.69848    1.000
    I16      I        0.73799    0.23141    0.80011    1.000
    I17      I        0.65180    0.19970    0.71190    1.000
    I18      I        0.75110    0.22360    0.81720    1.000
    Zn8      Zn       0.68960    0.15170    0.78770    1.000
    I19      I        0.51500    0.63610    0.13180    1.000
    I20      I        0.61540    0.74070    0.06480    1.000
    N25      N        0.18710    0.50990    0.77900    1.000
    C73      C        0.21150    0.47170    0.81240    1.000
    H49      H        0.22510    0.50880    0.83530    1.000
    C74      C        0.21840    0.38010    0.81580    1.000
    H50      H        0.23650    0.35530    0.84020    1.000
    C75      C        0.19780    0.32660    0.78250    1.000
    C76      C        0.17280    0.36730    0.74690    1.000
    H51      H        0.15970    0.33260    0.72270    1.000
    C77      C        0.16740    0.45750    0.74720    1.000
    H52      H        0.14880    0.48410    0.72370    1.000
    C78      C        0.20370    0.22820    0.78240    1.000
    N26      N        0.23180    0.19100    0.81330    1.000
    C79      C        0.23720    0.10460    0.80880    1.000
    N27      N        0.21790    0.05520    0.77490    1.000
    C80      C        0.19020    0.09840    0.74650    1.000
    N28      N        0.18050    0.18420    0.74930    1.000
    N29      N        0.32220    0.96760    0.90640    1.000
    C81      C        0.29770    0.92400    0.87370    1.000
    H53      H        0.29980    0.86090    0.87270    1.000
    C82      C        0.27010    0.96540    0.84210    1.000
    H54      H        0.25310    0.93160    0.81990    1.000
    C83      C        0.26720    0.05690    0.84260    1.000
    C84      C        0.29240    0.10330    0.87550    1.000
    H55      H        0.29150    0.16660    0.87670    1.000
    C85      C        0.31900    0.05500    0.90690    1.000
    H56      H        0.33590    0.08690    0.92990    1.000
    N30      N        0.12290    0.95440    0.63830    1.000
    C86      C        0.11730    0.04130    0.64370    1.000
    H57      H        0.09690    0.07110    0.62320    1.000
    C87      C        0.13950    0.09010    0.67740    1.000
    H58      H        0.13520    0.15260    0.67910    1.000
    C88      C        0.16750    0.04820    0.70810    1.000
    C89      C        0.17420    0.95730    0.70280    1.000
    H59      H        0.19410    0.92610    0.72330    1.000
    C90      C        0.15150    0.91370    0.66730    1.000
    H60      H        0.15650    0.85210    0.66350    1.000
    Zn9      Zn       0.08071    0.88019    0.59426    1.000
    I21      I        0.02415    0.84540    0.63444    1.000
    I22      I        0.11998    0.76630    0.55727    1.000
    N31      N        0.06321    0.98020    0.54816    1.000
    C91      C        0.08650    0.99670    0.51770    1.000
    H61      H        0.10720    0.95490    0.51380    1.000
    C92      C        0.08140    0.07200    0.49230    1.000
    H62      H        0.09890    0.08290    0.47170    1.000
    C93      C        0.05080    0.13120    0.49680    1.000
    C94      C        0.02490    0.11250    0.52620    1.000
    H63      H        0.00290    0.15150    0.52910    1.000
    C95      C        0.03190    0.03580    0.55130    1.000
    H64      H        0.01410    0.02200    0.57120    1.000
    C96      C        0.04610    0.21500    0.47050    1.000
    N32      N        0.01611    0.27240    0.47720    1.000
    C97      C        0.01230    0.34260    0.45040    1.000
    N33      N        0.03575    0.36070    0.42070    1.000
    C98      C        0.06460    0.30080    0.41850    1.000
    N34      N        0.07149    0.22690    0.44260    1.000
    N35      N        0.91320    0.52000    0.45740    1.000
    C99      C        0.92810    0.46710    0.49130    1.000
    H65      H        0.91610    0.46940    0.51690    1.000
    C100     C        0.96040    0.40960    0.49030    1.000
    H66      H        0.97010    0.37220    0.51470    1.000
    C101     C        0.97860    0.40630    0.45370    1.000
    C102     C        0.96310    0.46160    0.41880    1.000
    H67      H        0.97450    0.46110    0.39280    1.000
    C103     C        0.93100    0.51720    0.42300    1.000
    H68      H        0.92100    0.55620    0.39930    1.000
    Zn10     Zn       0.86105    0.59766    0.45540    1.000
    I23      I        0.87455    0.74678    0.42465    1.000
    I24      I        0.83253    0.57091    0.52504    1.000
    N36      N        0.14170    0.33970    0.32390    1.000
    C104     C        0.10750    0.38910    0.32240    1.000
    H69      H        0.10030    0.43120    0.29940    1.000
    C105     C        0.08250    0.38040    0.35360    1.000
    H70      H        0.05950    0.41880    0.35320    1.000
    C106     C        0.09170    0.31400    0.38560    1.000
    C107     C        0.12620    0.26250    0.38650    1.000
    H71      H        0.13350    0.21800    0.40830    1.000
    C108     C        0.15050    0.27700    0.35460    1.000
    H72      H        0.17410    0.24070    0.35490    1.000
    Zn11     Zn       0.17319    0.35645    0.27303    1.000
    I25      I        0.12868    0.33154    0.19848    1.000
    I26      I        0.23799    0.26859    0.30011    1.000
    I27      I        0.15180    0.30030    0.21190    1.000
    I28      I        0.25110    0.27640    0.31720    1.000
    Zn12     Zn       0.18960    0.34830    0.28770    1.000
    I29      I        0.01500    0.86390    0.63180    1.000
    I30      I        0.11540    0.75930    0.56480    1.000
    N37      N        0.68710    0.00990    0.77900    1.000
    C109     C        0.71150    0.97170    0.81240    1.000
    H73      H        0.72510    0.00880    0.83530    1.000
    C110     C        0.71840    0.88010    0.81580    1.000
    H74      H        0.73650    0.85530    0.84020    1.000
    C111     C        0.69780    0.82660    0.78250    1.000
    C112     C        0.67280    0.86730    0.74690    1.000
    H75      H        0.65970    0.83260    0.72270    1.000
    C113     C        0.66740    0.95750    0.74720    1.000
    H76      H        0.64880    0.98410    0.72370    1.000
    C114     C        0.70370    0.72820    0.78240    1.000
    N38      N        0.73180    0.69100    0.81330    1.000
    C115     C        0.73720    0.60460    0.80880    1.000
    N39      N        0.71790    0.55520    0.77490    1.000
    C116     C        0.69020    0.59840    0.74650    1.000
    N40      N        0.68050    0.68420    0.74930    1.000
    N41      N        0.82220    0.46760    0.90640    1.000
    C117     C        0.79770    0.42400    0.87370    1.000
    H77      H        0.79980    0.36090    0.87270    1.000
    C118     C        0.77010    0.46540    0.84210    1.000
    H78      H        0.75310    0.43160    0.81990    1.000
    C119     C        0.76720    0.55690    0.84260    1.000
    C120     C        0.79240    0.60330    0.87550    1.000
    H79      H        0.79150    0.66660    0.87670    1.000
    C121     C        0.81900    0.55500    0.90690    1.000
    H80      H        0.83590    0.58690    0.92990    1.000
    N42      N        0.62290    0.45440    0.63830    1.000
    C122     C        0.61730    0.54130    0.64370    1.000
    H81      H        0.59690    0.57110    0.62320    1.000
    C123     C        0.63950    0.59010    0.67740    1.000
    H82      H        0.63520    0.65260    0.67910    1.000
    C124     C        0.66750    0.54820    0.70810    1.000
    C125     C        0.67420    0.45730    0.70280    1.000
    H83      H        0.69410    0.42610    0.72330    1.000
    C126     C        0.65150    0.41370    0.66730    1.000
    H84      H        0.65650    0.35210    0.66350    1.000
    Zn13     Zn       0.58071    0.38019    0.59426    1.000
    I31      I        0.52415    0.34540    0.63444    1.000
    I32      I        0.61998    0.26630    0.55727    1.000
    N43      N        0.56321    0.48020    0.54816    1.000
    C127     C        0.58650    0.49670    0.51770    1.000
    H85      H        0.60720    0.45490    0.51380    1.000
    C128     C        0.58140    0.57200    0.49230    1.000
    H86      H        0.59890    0.58290    0.47170    1.000
    C129     C        0.55080    0.63120    0.49680    1.000
    C130     C        0.52490    0.61250    0.52620    1.000
    H87      H        0.50290    0.65150    0.52910    1.000
    C131     C        0.53190    0.53580    0.55130    1.000
    H88      H        0.51410    0.52200    0.57120    1.000
    C132     C        0.54610    0.71500    0.47050    1.000
    N44      N        0.51611    0.77240    0.47720    1.000
    C133     C        0.51230    0.84260    0.45040    1.000
    N45      N        0.53575    0.86070    0.42070    1.000
    C134     C        0.56460    0.80080    0.41850    1.000
    N46      N        0.57149    0.72690    0.44260    1.000
    N47      N        0.41320    0.02000    0.45740    1.000
    C135     C        0.42810    0.96710    0.49130    1.000
    H89      H        0.41610    0.96940    0.51690    1.000
    C136     C        0.46040    0.90960    0.49030    1.000
    H90      H        0.47010    0.87220    0.51470    1.000
    C137     C        0.47860    0.90630    0.45370    1.000
    C138     C        0.46310    0.96160    0.41880    1.000
    H91      H        0.47450    0.96110    0.39280    1.000
    C139     C        0.43100    0.01720    0.42300    1.000
    H92      H        0.42100    0.05620    0.39930    1.000
    Zn14     Zn       0.36105    0.09766    0.45540    1.000
    I33      I        0.37455    0.24678    0.42465    1.000
    I34      I        0.33253    0.07091    0.52504    1.000
    N48      N        0.64170    0.83970    0.32390    1.000
    C140     C        0.60750    0.88910    0.32240    1.000
    H93      H        0.60030    0.93120    0.29940    1.000
    C141     C        0.58250    0.88040    0.35360    1.000
    H94      H        0.55950    0.91880    0.35320    1.000
    C142     C        0.59170    0.81400    0.38560    1.000
    C143     C        0.62620    0.76250    0.38650    1.000
    H95      H        0.63350    0.71800    0.40830    1.000
    C144     C        0.65050    0.77700    0.35460    1.000
    H96      H        0.67410    0.74070    0.35490    1.000
    Zn15     Zn       0.67319    0.85645    0.27303    1.000
    I35      I        0.62868    0.83154    0.19848    1.000
    I36      I        0.73799    0.76859    0.30011    1.000
    I37      I        0.65180    0.80030    0.21190    1.000
    I38      I        0.75110    0.77640    0.31720    1.000
    Zn16     Zn       0.68960    0.84830    0.28770    1.000
    I39      I        0.51500    0.36390    0.63180    1.000
    I40      I        0.61540    0.25930    0.56480    1.000
    N49      N        0.81290    0.49010    0.22100    1.000
    C145     C        0.78850    0.52830    0.18760    1.000
    H97      H        0.77490    0.49120    0.16470    1.000
    C146     C        0.78160    0.61990    0.18420    1.000
    H98      H        0.76350    0.64470    0.15980    1.000
    C147     C        0.80220    0.67340    0.21750    1.000
    C148     C        0.82720    0.63270    0.25310    1.000
    H99      H        0.84030    0.66740    0.27730    1.000
    C149     C        0.83260    0.54250    0.25280    1.000
    H100     H        0.85120    0.51590    0.27630    1.000
    C150     C        0.79630    0.77180    0.21760    1.000
    N50      N        0.76820    0.80900    0.18670    1.000
    C151     C        0.76280    0.89540    0.19120    1.000
    N51      N        0.78210    0.94480    0.22510    1.000
    C152     C        0.80980    0.90160    0.25350    1.000
    N52      N        0.81950    0.81580    0.25070    1.000
    N53      N        0.67780    0.03240    0.09360    1.000
    C153     C        0.70230    0.07600    0.12630    1.000
    H101     H        0.70020    0.13910    0.12730    1.000
    C154     C        0.72990    0.03460    0.15790    1.000
    H102     H        0.74690    0.06840    0.18010    1.000
    C155     C        0.73280    0.94310    0.15740    1.000
    C156     C        0.70760    0.89670    0.12450    1.000
    H103     H        0.70850    0.83340    0.12330    1.000
    C157     C        0.68100    0.94500    0.09310    1.000
    H104     H        0.66410    0.91310    0.07010    1.000
    N54      N        0.87710    0.04560    0.36170    1.000
    C158     C        0.88270    0.95870    0.35630    1.000
    H105     H        0.90310    0.92890    0.37680    1.000
    C159     C        0.86050    0.90990    0.32260    1.000
    H106     H        0.86480    0.84740    0.32090    1.000
    C160     C        0.83250    0.95180    0.29190    1.000
    C161     C        0.82580    0.04270    0.29720    1.000
    H107     H        0.80590    0.07390    0.27670    1.000
    C162     C        0.84850    0.08630    0.33270    1.000
    H108     H        0.84350    0.14790    0.33650    1.000
    Zn17     Zn       0.91929    0.11981    0.40574    1.000
    I41      I        0.97585    0.15460    0.36556    1.000
    I42      I        0.88002    0.23370    0.44273    1.000
    N55      N        0.93679    0.01980    0.45184    1.000
    C163     C        0.91350    0.00330    0.48230    1.000
    H109     H        0.89280    0.04510    0.48620    1.000
    C164     C        0.91860    0.92800    0.50770    1.000
    H110     H        0.90110    0.91710    0.52830    1.000
    C165     C        0.94920    0.86880    0.50320    1.000
    C166     C        0.97510    0.88750    0.47380    1.000
    H111     H        0.99710    0.84850    0.47090    1.000
    C167     C        0.96810    0.96420    0.44870    1.000
    H112     H        0.98590    0.97800    0.42880    1.000
    C168     C        0.95390    0.78500    0.52950    1.000
    N56      N        0.98389    0.72760    0.52280    1.000
    C169     C        0.98770    0.65740    0.54960    1.000
    N57      N        0.96425    0.63930    0.57930    1.000
    C170     C        0.93540    0.69920    0.58150    1.000
    N58      N        0.92851    0.77310    0.55740    1.000
    N59      N        0.08680    0.48000    0.54260    1.000
    C171     C        0.07190    0.53290    0.50870    1.000
    H113     H        0.08390    0.53060    0.48310    1.000
    C172     C        0.03960    0.59040    0.50970    1.000
    H114     H        0.02990    0.62780    0.48530    1.000
    C173     C        0.02140    0.59370    0.54630    1.000
    C174     C        0.03690    0.53840    0.58120    1.000
    H115     H        0.02550    0.53890    0.60720    1.000
    C175     C        0.06900    0.48280    0.57700    1.000
    H116     H        0.07900    0.44380    0.60070    1.000
    Zn18     Zn       0.13895    0.40234    0.54460    1.000
    I43      I        0.12545    0.25322    0.57535    1.000
    I44      I        0.16747    0.42909    0.47496    1.000
    N60      N        0.85830    0.66030    0.67610    1.000
    C176     C        0.89250    0.61090    0.67760    1.000
    H117     H        0.89970    0.56880    0.70060    1.000
    C177     C        0.91750    0.61960    0.64640    1.000
    H118     H        0.94050    0.58120    0.64680    1.000
    C178     C        0.90830    0.68600    0.61440    1.000
    C179     C        0.87380    0.73750    0.61350    1.000
    H119     H        0.86650    0.78200    0.59170    1.000
    C180     C        0.84950    0.72300    0.64540    1.000
    H120     H        0.82590    0.75930    0.64510    1.000
    Zn19     Zn       0.82681    0.64355    0.72697    1.000
    I45      I        0.87132    0.66846    0.80152    1.000
    I46      I        0.76201    0.73141    0.69989    1.000
    I47      I        0.84820    0.69970    0.78810    1.000
    I48      I        0.74890    0.72360    0.68280    1.000
    Zn20     Zn       0.81040    0.65170    0.71230    1.000
    I49      I        0.98500    0.13610    0.36820    1.000
    I50      I        0.88460    0.24070    0.43520    1.000
    N61      N        0.31290    0.99010    0.22100    1.000
    C181     C        0.28850    0.02830    0.18760    1.000
    H121     H        0.27490    0.99120    0.16470    1.000
    C182     C        0.28160    0.11990    0.18420    1.000
    H122     H        0.26350    0.14470    0.15980    1.000
    C183     C        0.30220    0.17340    0.21750    1.000
    C184     C        0.32720    0.13270    0.25310    1.000
    H123     H        0.34030    0.16740    0.27730    1.000
    C185     C        0.33260    0.04250    0.25280    1.000
    H124     H        0.35120    0.01590    0.27630    1.000
    C186     C        0.29630    0.27180    0.21760    1.000
    N62      N        0.26820    0.30900    0.18670    1.000
    C187     C        0.26280    0.39540    0.19120    1.000
    N63      N        0.28210    0.44480    0.22510    1.000
    C188     C        0.30980    0.40160    0.25350    1.000
    N64      N        0.31950    0.31580    0.25070    1.000
    N65      N        0.17780    0.53240    0.09360    1.000
    C189     C        0.20230    0.57600    0.12630    1.000
    H125     H        0.20020    0.63910    0.12730    1.000
    C190     C        0.22990    0.53460    0.15790    1.000
    H126     H        0.24690    0.56840    0.18010    1.000
    C191     C        0.23280    0.44310    0.15740    1.000
    C192     C        0.20760    0.39670    0.12450    1.000
    H127     H        0.20850    0.33340    0.12330    1.000
    C193     C        0.18100    0.44500    0.09310    1.000
    H128     H        0.16410    0.41310    0.07010    1.000
    N66      N        0.37710    0.54560    0.36170    1.000
    C194     C        0.38270    0.45870    0.35630    1.000
    H129     H        0.40310    0.42890    0.37680    1.000
    C195     C        0.36050    0.40990    0.32260    1.000
    H130     H        0.36480    0.34740    0.32090    1.000
    C196     C        0.33250    0.45180    0.29190    1.000
    C197     C        0.32580    0.54270    0.29720    1.000
    H131     H        0.30590    0.57390    0.27670    1.000
    C198     C        0.34850    0.58630    0.33270    1.000
    H132     H        0.34350    0.64790    0.33650    1.000
    Zn21     Zn       0.41929    0.61981    0.40574    1.000
    I51      I        0.47585    0.65460    0.36556    1.000
    I52      I        0.38002    0.73370    0.44273    1.000
    N67      N        0.43679    0.51980    0.45184    1.000
    C199     C        0.41350    0.50330    0.48230    1.000
    H133     H        0.39280    0.54510    0.48620    1.000
    C200     C        0.41860    0.42800    0.50770    1.000
    H134     H        0.40110    0.41710    0.52830    1.000
    C201     C        0.44920    0.36880    0.50320    1.000
    C202     C        0.47510    0.38750    0.47380    1.000
    H135     H        0.49710    0.34850    0.47090    1.000
    C203     C        0.46810    0.46420    0.44870    1.000
    H136     H        0.48590    0.47800    0.42880    1.000
    C204     C        0.45390    0.28500    0.52950    1.000
    N68      N        0.48389    0.22760    0.52280    1.000
    C205     C        0.48770    0.15740    0.54960    1.000
    N69      N        0.46425    0.13930    0.57930    1.000
    C206     C        0.43540    0.19920    0.58150    1.000
    N70      N        0.42851    0.27310    0.55740    1.000
    N71      N        0.58680    0.98000    0.54260    1.000
    C207     C        0.57190    0.03290    0.50870    1.000
    H137     H        0.58390    0.03060    0.48310    1.000
    C208     C        0.53960    0.09040    0.50970    1.000
    H138     H        0.52990    0.12780    0.48530    1.000
    C209     C        0.52140    0.09370    0.54630    1.000
    C210     C        0.53690    0.03840    0.58120    1.000
    H139     H        0.52550    0.03890    0.60720    1.000
    C211     C        0.56900    0.98280    0.57700    1.000
    H140     H        0.57900    0.94380    0.60070    1.000
    Zn22     Zn       0.63895    0.90234    0.54460    1.000
    I53      I        0.62545    0.75322    0.57535    1.000
    I54      I        0.66747    0.92909    0.47496    1.000
    N72      N        0.35830    0.16030    0.67610    1.000
    C212     C        0.39250    0.11090    0.67760    1.000
    H141     H        0.39970    0.06880    0.70060    1.000
    C213     C        0.41750    0.11960    0.64640    1.000
    H142     H        0.44050    0.08120    0.64680    1.000
    C214     C        0.40830    0.18600    0.61440    1.000
    C215     C        0.37380    0.23750    0.61350    1.000
    H143     H        0.36650    0.28200    0.59170    1.000
    C216     C        0.34950    0.22300    0.64540    1.000
    H144     H        0.32590    0.25930    0.64510    1.000
    Zn23     Zn       0.32681    0.14355    0.72697    1.000
    I55      I        0.37132    0.16846    0.80152    1.000
    I56      I        0.26201    0.23141    0.69989    1.000
    I57      I        0.34820    0.19970    0.78810    1.000
    I58      I        0.24890    0.22360    0.68280    1.000
    Zn24     Zn       0.31040    0.15170    0.71230    1.000
    I59      I        0.48500    0.63610    0.36820    1.000
    I60      I        0.38460    0.74070    0.43520    1.000
    N73      N        0.81290    0.50990    0.72100    1.000
    C217     C        0.78850    0.47170    0.68760    1.000
    H145     H        0.77490    0.50880    0.66470    1.000
    C218     C        0.78160    0.38010    0.68420    1.000
    H146     H        0.76350    0.35530    0.65980    1.000
    C219     C        0.80220    0.32660    0.71750    1.000
    C220     C        0.82720    0.36730    0.75310    1.000
    H147     H        0.84030    0.33260    0.77730    1.000
    C221     C        0.83260    0.45750    0.75280    1.000
    H148     H        0.85120    0.48410    0.77630    1.000
    C222     C        0.79630    0.22820    0.71760    1.000
    N74      N        0.76820    0.19100    0.68670    1.000
    C223     C        0.76280    0.10460    0.69120    1.000
    N75      N        0.78210    0.05520    0.72510    1.000
    C224     C        0.80980    0.09840    0.75350    1.000
    N76      N        0.81950    0.18420    0.75070    1.000
    N77      N        0.67780    0.96760    0.59360    1.000
    C225     C        0.70230    0.92400    0.62630    1.000
    H149     H        0.70020    0.86090    0.62730    1.000
    C226     C        0.72990    0.96540    0.65790    1.000
    H150     H        0.74690    0.93160    0.68010    1.000
    C227     C        0.73280    0.05690    0.65740    1.000
    C228     C        0.70760    0.10330    0.62450    1.000
    H151     H        0.70850    0.16660    0.62330    1.000
    C229     C        0.68100    0.05500    0.59310    1.000
    H152     H        0.66410    0.08690    0.57010    1.000
    N78      N        0.87710    0.95440    0.86170    1.000
    C230     C        0.88270    0.04130    0.85630    1.000
    H153     H        0.90310    0.07110    0.87680    1.000
    C231     C        0.86050    0.09010    0.82260    1.000
    H154     H        0.86480    0.15260    0.82090    1.000
    C232     C        0.83250    0.04820    0.79190    1.000
    C233     C        0.82580    0.95730    0.79720    1.000
    H155     H        0.80590    0.92610    0.77670    1.000
    C234     C        0.84850    0.91370    0.83270    1.000
    H156     H        0.84350    0.85210    0.83650    1.000
    Zn25     Zn       0.91929    0.88019    0.90574    1.000
    I61      I        0.97585    0.84540    0.86556    1.000
    I62      I        0.88002    0.76630    0.94273    1.000
    N79      N        0.93679    0.98020    0.95184    1.000
    C235     C        0.91350    0.99670    0.98230    1.000
    H157     H        0.89280    0.95490    0.98620    1.000
    C236     C        0.91860    0.07200    0.00770    1.000
    H158     H        0.90110    0.08290    0.02830    1.000
    C237     C        0.94920    0.13120    0.00320    1.000
    C238     C        0.97510    0.11250    0.97380    1.000
    H159     H        0.99710    0.15150    0.97090    1.000
    C239     C        0.96810    0.03580    0.94870    1.000
    H160     H        0.98590    0.02200    0.92880    1.000
    C240     C        0.95390    0.21500    0.02950    1.000
    N80      N        0.98389    0.27240    0.02280    1.000
    C241     C        0.98770    0.34260    0.04960    1.000
    N81      N        0.96425    0.36070    0.07930    1.000
    C242     C        0.93540    0.30080    0.08150    1.000
    N82      N        0.92851    0.22690    0.05740    1.000
    N83      N        0.08680    0.52000    0.04260    1.000
    C243     C        0.07190    0.46710    0.00870    1.000
    H161     H        0.08390    0.46940    0.98310    1.000
    C244     C        0.03960    0.40960    0.00970    1.000
    H162     H        0.02990    0.37220    0.98530    1.000
    C245     C        0.02140    0.40630    0.04630    1.000
    C246     C        0.03690    0.46160    0.08120    1.000
    H163     H        0.02550    0.46110    0.10720    1.000
    C247     C        0.06900    0.51720    0.07700    1.000
    H164     H        0.07900    0.55620    0.10070    1.000
    Zn26     Zn       0.13895    0.59766    0.04460    1.000
    I63      I        0.12545    0.74678    0.07535    1.000
    I64      I        0.16747    0.57091    0.97496    1.000
    N84      N        0.85830    0.33970    0.17610    1.000
    C248     C        0.89250    0.38910    0.17760    1.000
    H165     H        0.89970    0.43120    0.20060    1.000
    C249     C        0.91750    0.38040    0.14640    1.000
    H166     H        0.94050    0.41880    0.14680    1.000
    C250     C        0.90830    0.31400    0.11440    1.000
    C251     C        0.87380    0.26250    0.11350    1.000
    H167     H        0.86650    0.21800    0.09170    1.000
    C252     C        0.84950    0.27700    0.14540    1.000
    H168     H        0.82590    0.24070    0.14510    1.000
    Zn27     Zn       0.82681    0.35645    0.22697    1.000
    I65      I        0.87132    0.33154    0.30152    1.000
    I66      I        0.76201    0.26859    0.19989    1.000
    I67      I        0.84820    0.30030    0.28810    1.000
    I68      I        0.74890    0.27640    0.18280    1.000
    Zn28     Zn       0.81040    0.34830    0.21230    1.000
    I69      I        0.98500    0.86390    0.86820    1.000
    I70      I        0.88460    0.75930    0.93520    1.000
    N85      N        0.31290    0.00990    0.72100    1.000
    C253     C        0.28850    0.97170    0.68760    1.000
    H169     H        0.27490    0.00880    0.66470    1.000
    C254     C        0.28160    0.88010    0.68420    1.000
    H170     H        0.26350    0.85530    0.65980    1.000
    C255     C        0.30220    0.82660    0.71750    1.000
    C256     C        0.32720    0.86730    0.75310    1.000
    H171     H        0.34030    0.83260    0.77730    1.000
    C257     C        0.33260    0.95750    0.75280    1.000
    H172     H        0.35120    0.98410    0.77630    1.000
    C258     C        0.29630    0.72820    0.71760    1.000
    N86      N        0.26820    0.69100    0.68670    1.000
    C259     C        0.26280    0.60460    0.69120    1.000
    N87      N        0.28210    0.55520    0.72510    1.000
    C260     C        0.30980    0.59840    0.75350    1.000
    N88      N        0.31950    0.68420    0.75070    1.000
    N89      N        0.17780    0.46760    0.59360    1.000
    C261     C        0.20230    0.42400    0.62630    1.000
    H173     H        0.20020    0.36090    0.62730    1.000
    C262     C        0.22990    0.46540    0.65790    1.000
    H174     H        0.24690    0.43160    0.68010    1.000
    C263     C        0.23280    0.55690    0.65740    1.000
    C264     C        0.20760    0.60330    0.62450    1.000
    H175     H        0.20850    0.66660    0.62330    1.000
    C265     C        0.18100    0.55500    0.59310    1.000
    H176     H        0.16410    0.58690    0.57010    1.000
    N90      N        0.37710    0.45440    0.86170    1.000
    C266     C        0.38270    0.54130    0.85630    1.000
    H177     H        0.40310    0.57110    0.87680    1.000
    C267     C        0.36050    0.59010    0.82260    1.000
    H178     H        0.36480    0.65260    0.82090    1.000
    C268     C        0.33250    0.54820    0.79190    1.000
    C269     C        0.32580    0.45730    0.79720    1.000
    H179     H        0.30590    0.42610    0.77670    1.000
    C270     C        0.34850    0.41370    0.83270    1.000
    H180     H        0.34350    0.35210    0.83650    1.000
    Zn29     Zn       0.41929    0.38019    0.90574    1.000
    I71      I        0.47585    0.34540    0.86556    1.000
    I72      I        0.38002    0.26630    0.94273    1.000
    N91      N        0.43679    0.48020    0.95184    1.000
    C271     C        0.41350    0.49670    0.98230    1.000
    H181     H        0.39280    0.45490    0.98620    1.000
    C272     C        0.41860    0.57200    0.00770    1.000
    H182     H        0.40110    0.58290    0.02830    1.000
    C273     C        0.44920    0.63120    0.00320    1.000
    C274     C        0.47510    0.61250    0.97380    1.000
    H183     H        0.49710    0.65150    0.97090    1.000
    C275     C        0.46810    0.53580    0.94870    1.000
    H184     H        0.48590    0.52200    0.92880    1.000
    C276     C        0.45390    0.71500    0.02950    1.000
    N92      N        0.48389    0.77240    0.02280    1.000
    C277     C        0.48770    0.84260    0.04960    1.000
    N93      N        0.46425    0.86070    0.07930    1.000
    C278     C        0.43540    0.80080    0.08150    1.000
    N94      N        0.42851    0.72690    0.05740    1.000
    N95      N        0.58680    0.02000    0.04260    1.000
    C279     C        0.57190    0.96710    0.00870    1.000
    H185     H        0.58390    0.96940    0.98310    1.000
    C280     C        0.53960    0.90960    0.00970    1.000
    H186     H        0.52990    0.87220    0.98530    1.000
    C281     C        0.52140    0.90630    0.04630    1.000
    C282     C        0.53690    0.96160    0.08120    1.000
    H187     H        0.52550    0.96110    0.10720    1.000
    C283     C        0.56900    0.01720    0.07700    1.000
    H188     H        0.57900    0.05620    0.10070    1.000
    Zn30     Zn       0.63895    0.09766    0.04460    1.000
    I73      I        0.62545    0.24678    0.07535    1.000
    I74      I        0.66747    0.07091    0.97496    1.000
    N96      N        0.35830    0.83970    0.17610    1.000
    C284     C        0.39250    0.88910    0.17760    1.000
    H189     H        0.39970    0.93120    0.20060    1.000
    C285     C        0.41750    0.88040    0.14640    1.000
    H190     H        0.44050    0.91880    0.14680    1.000
    C286     C        0.40830    0.81400    0.11440    1.000
    C287     C        0.37380    0.76250    0.11350    1.000
    H191     H        0.36650    0.71800    0.09170    1.000
    C288     C        0.34950    0.77700    0.14540    1.000
    H192     H        0.32590    0.74070    0.14510    1.000
    Zn31     Zn       0.32681    0.85645    0.22697    1.000
    I75      I        0.37132    0.83154    0.30152    1.000
    I76      I        0.26201    0.76859    0.19989    1.000
    I77      I        0.34820    0.80030    0.28810    1.000
    I78      I        0.24890    0.77640    0.18280    1.000
    Zn32     Zn       0.31040    0.84830    0.21230    1.000
    I79      I        0.48500    0.36390    0.86820    1.000
    I80      I        0.38460    0.25930    0.93520    1.000
