data_functionalizedCrystal
_audit_creation_method	'EQeq! by Chris Wilmer'
_symmetry_space_group_name_H-M	'P1'
_symmetry_Int_Tables_number	1
_symmetry_cell_setting	triclinic
loop_
_symmetry_equiv_pos_as_xyz
  x,y,z
_cell_length_a	27.768
_cell_length_b	7.9
_cell_length_c	18.298
_cell_angle_alpha	90
_cell_angle_beta	108.329
_cell_angle_gamma	90
loop_
_atom_site_label
_atom_site_type_symbol
_atom_site_fract_x
_atom_site_fract_y
_atom_site_fract_z
_atom_site_charge
Mof_Zn	Zn	0.04098	0.17319	0.19715	1.236
Mof_C 	C 	0.08892	0.09	0.97785	-0.001
Mof_H 	H 	0.0565	0.0601	0.9778	0.071
Mof_O 	O 	0.02387	0.9439	0.8483	-0.483
Mof_O 	O 	0.08269	0.9446	0.7887	-0.464
Mof_C 	C 	0.06728	0.9767	0.84495	0.4
Mof_C 	C 	0.10345	0.0592	0.91342	-0.06
Mof_N 	N 	0.23368	0.2226	0.97251	-0.08
Mof_C 	C 	0.15197	0.1034	0.91352	-0.066
Mof_H 	H 	0.1623	0.0826	0.8706	0.089
Mof_O 	O 	0.06231	0.1476	0.10822	-0.433
Mof_C 	C 	0.12245	0.1655	0.04284	-0.036
Mof_C 	C 	0.18484	0.1792	0.97884	0.107
Mof_O 	O 	0.0283	0.4052	0.21866	-0.346
Mof_C 	C 	0.17062	0.2111	0.04299	-0.082
Mof_H 	H 	0.1931	0.2627	0.086	0.094
Mof_O 	O 	0.13526	0.2655	0.16989	-0.28
Mof_C 	C 	0.10667	0.197	0.11288	0.329
Mof_Zn	Zn	0.54098	0.67319	0.19715	1.236
Mof_C 	C 	0.58892	0.59	0.97785	-0
Mof_H 	H 	0.5565	0.5601	0.9778	0.071
Mof_O 	O 	0.52387	0.4439	0.8483	-0.482
Mof_O 	O 	0.58269	0.4446	0.7887	-0.463
Mof_C 	C 	0.56728	0.4767	0.84495	0.401
Mof_C 	C 	0.60345	0.5592	0.91342	-0.06
Mof_N 	N 	0.73368	0.7226	0.97251	-0.079
Mof_C 	C 	0.65197	0.6034	0.91352	-0.065
Mof_H 	H 	0.6623	0.5826	0.8706	0.09
Mof_O 	O 	0.56231	0.6476	0.10822	-0.432
Mof_C 	C 	0.62245	0.6655	0.04284	-0.035
Mof_C 	C 	0.68484	0.6792	0.97884	0.108
Mof_O 	O 	0.5283	0.9052	0.21866	-0.346
Mof_C 	C 	0.67062	0.7111	0.04299	-0.08
Mof_H 	H 	0.6931	0.7627	0.086	0.095
Mof_O 	O 	0.63526	0.7655	0.16989	-0.279
Mof_C 	C 	0.60667	0.697	0.11288	0.33
Mof_Zn	Zn	0.95902	0.17319	0.30285	1.237
Mof_C 	C 	0.91108	0.09	0.52215	-0
Mof_H 	H 	0.9435	0.0601	0.5222	0.071
Mof_O 	O 	0.97613	0.9439	0.6517	-0.483
Mof_O 	O 	0.91731	0.9446	0.7113	-0.464
Mof_C 	C 	0.93272	0.9767	0.65505	0.401
Mof_C 	C 	0.89655	0.0592	0.58658	-0.06
Mof_N 	N 	0.76632	0.2226	0.52749	-0.079
Mof_C 	C 	0.84803	0.1034	0.58648	-0.065
Mof_H 	H 	0.8377	0.0826	0.6294	0.09
Mof_O 	O 	0.93769	0.1476	0.39178	-0.432
Mof_C 	C 	0.87755	0.1655	0.45716	-0.035
Mof_C 	C 	0.81516	0.1792	0.52116	0.108
Mof_O 	O 	0.9717	0.4052	0.28134	-0.346
Mof_C 	C 	0.82938	0.2111	0.45701	-0.08
Mof_H 	H 	0.8069	0.2627	0.414	0.095
Mof_O 	O 	0.86474	0.2655	0.33011	-0.279
Mof_C 	C 	0.89333	0.197	0.38712	0.33
Mof_Zn	Zn	0.45902	0.67319	0.30285	1.237
Mof_C 	C 	0.41108	0.59	0.52215	-0
Mof_H 	H 	0.4435	0.5601	0.5222	0.071
Mof_O 	O 	0.47613	0.4439	0.6517	-0.482
Mof_O 	O 	0.41731	0.4446	0.7113	-0.463
Mof_C 	C 	0.43272	0.4767	0.65505	0.401
Mof_C 	C 	0.39655	0.5592	0.58658	-0.06
Mof_N 	N 	0.26632	0.7226	0.52749	-0.079
Mof_C 	C 	0.34803	0.6034	0.58648	-0.065
Mof_H 	H 	0.3377	0.5826	0.6294	0.09
Mof_O 	O 	0.43769	0.6476	0.39178	-0.432
Mof_C 	C 	0.37755	0.6655	0.45716	-0.035
Mof_C 	C 	0.31516	0.6792	0.52116	0.108
Mof_O 	O 	0.4717	0.9052	0.28134	-0.346
Mof_C 	C 	0.32938	0.7111	0.45701	-0.08
Mof_H 	H 	0.3069	0.7627	0.414	0.095
Mof_O 	O 	0.36474	0.7655	0.33011	-0.279
Mof_C 	C 	0.39333	0.697	0.38712	0.33
Mof_Zn	Zn	0.95902	0.82681	0.80285	1.237
Mof_C 	C 	0.91108	0.91	0.02215	-0
Mof_H 	H 	0.9435	0.9399	0.0222	0.071
Mof_O 	O 	0.97613	0.0561	0.1517	-0.482
Mof_O 	O 	0.91731	0.0554	0.2113	-0.464
Mof_C 	C 	0.93272	0.0233	0.15505	0.401
Mof_C 	C 	0.89655	0.9408	0.08658	-0.06
Mof_N 	N 	0.76632	0.7774	0.02749	-0.079
Mof_C 	C 	0.84803	0.8966	0.08648	-0.065
Mof_H 	H 	0.8377	0.9174	0.1294	0.09
Mof_O 	O 	0.93769	0.8524	0.89178	-0.432
Mof_C 	C 	0.87755	0.8345	0.95716	-0.036
Mof_C 	C 	0.81516	0.8208	0.02116	0.108
Mof_O 	O 	0.9717	0.5948	0.78134	-0.346
Mof_C 	C 	0.82938	0.7889	0.95701	-0.08
Mof_H 	H 	0.8069	0.7373	0.914	0.095
Mof_O 	O 	0.86474	0.7345	0.83011	-0.279
Mof_C 	C 	0.89333	0.803	0.88712	0.33
Mof_Zn	Zn	0.45902	0.32681	0.80285	1.237
Mof_C 	C 	0.41108	0.41	0.02215	-0
Mof_H 	H 	0.4435	0.4399	0.0222	0.071
Mof_O 	O 	0.47613	0.5561	0.1517	-0.482
Mof_O 	O 	0.41731	0.5554	0.2113	-0.463
Mof_C 	C 	0.43272	0.5233	0.15505	0.401
Mof_C 	C 	0.39655	0.4408	0.08658	-0.06
Mof_N 	N 	0.26632	0.2774	0.02749	-0.079
Mof_C 	C 	0.34803	0.3966	0.08648	-0.065
Mof_H 	H 	0.3377	0.4174	0.1294	0.09
Mof_O 	O 	0.43769	0.3524	0.89178	-0.432
Mof_C 	C 	0.37755	0.3345	0.95716	-0.035
Mof_C 	C 	0.31516	0.3208	0.02116	0.108
Mof_O 	O 	0.4717	0.0948	0.78134	-0.346
Mof_C 	C 	0.32938	0.2889	0.95701	-0.08
Mof_H 	H 	0.3069	0.2373	0.914	0.095
Mof_O 	O 	0.36474	0.2345	0.83011	-0.279
Mof_C 	C 	0.39333	0.303	0.88712	0.33
Mof_Zn	Zn	0.04098	0.82681	0.69715	1.237
Mof_C 	C 	0.08892	0.91	0.47785	-0
Mof_H 	H 	0.0565	0.9399	0.4778	0.072
Mof_O 	O 	0.02387	0.0561	0.3483	-0.482
Mof_O 	O 	0.08269	0.0554	0.2887	-0.463
Mof_C 	C 	0.06728	0.0233	0.34495	0.401
Mof_C 	C 	0.10345	0.9408	0.41342	-0.059
Mof_N 	N 	0.23368	0.7774	0.47251	-0.079
Mof_C 	C 	0.15197	0.8966	0.41352	-0.065
Mof_H 	H 	0.1623	0.9174	0.3706	0.09
Mof_O 	O 	0.06231	0.8524	0.60822	-0.432
Mof_C 	C 	0.12245	0.8345	0.54284	-0.035
Mof_C 	C 	0.18484	0.8208	0.47884	0.108
Mof_O 	O 	0.0283	0.5948	0.71866	-0.345
Mof_C 	C 	0.17062	0.7889	0.54299	-0.08
Mof_H 	H 	0.1931	0.7373	0.586	0.095
Mof_O 	O 	0.13526	0.7345	0.66989	-0.279
Mof_C 	C 	0.10667	0.803	0.61288	0.33
Mof_Zn	Zn	0.54098	0.32681	0.69715	1.237
Mof_C 	C 	0.58892	0.41	0.47785	-0
Mof_H 	H 	0.5565	0.4399	0.4778	0.071
Mof_O 	O 	0.52387	0.5561	0.3483	-0.482
Mof_O 	O 	0.58269	0.5554	0.2887	-0.463
Mof_C 	C 	0.56728	0.5233	0.34495	0.401
Mof_C 	C 	0.60345	0.4408	0.41342	-0.06
Mof_N 	N 	0.73368	0.2774	0.47251	-0.079
Mof_C 	C 	0.65197	0.3966	0.41352	-0.065
Mof_H 	H 	0.6623	0.4174	0.3706	0.09
Mof_O 	O 	0.56231	0.3524	0.60822	-0.432
Mof_C 	C 	0.62245	0.3345	0.54284	-0.035
Mof_C 	C 	0.68484	0.3208	0.47884	0.108
Mof_O 	O 	0.5283	0.0948	0.71866	-0.346
Mof_C 	C 	0.67062	0.2889	0.54299	-0.08
Mof_H 	H 	0.6931	0.2373	0.586	0.095
Mof_O 	O 	0.63526	0.2345	0.66989	-0.279
Mof_C 	C 	0.60667	0.303	0.61288	0.33
Mof_N 	N 	8.11918e-34	0.4749	0.25	0.087
Mof_O 	O 	-7.45911e-18	0.6663	0.25	-0.104
Mof_N 	N 	0.5	0.9749	0.25	0.086
Mof_O 	O 	0.5	0.1663	0.25	-0.104
Mof_N 	N 	2.43576e-33	0.5251	0.75	0.087
Mof_O 	O 	2.43576e-33	0.3337	0.75	-0.104
Mof_N 	N 	0.5	0.0251	0.75	0.086
Mof_O 	O 	0.5	0.8337	0.75	-0.104
_end
