# CIF file generated by openbabel 3.1.0, see https://openbabel.org
data_I
_chemical_name_common 'image0'
_cell_length_a 9.5369
_cell_length_b 9.1544
_cell_length_c 13.3131
_cell_angle_alpha 90
_cell_angle_beta 90.483
_cell_angle_gamma 90
_space_group_name_H-M_alt 'P 1'
_space_group_name_Hall 'P 1'
loop_
    _symmetry_equiv_pos_as_xyz
    x,y,z
loop_
    _atom_site_label
    _atom_site_type_symbol
    _atom_site_fract_x
    _atom_site_fract_y
    _atom_site_fract_z
    _atom_site_occupancy
    O1       O        0.81971    0.88968    0.45533    1.000
    C1       C        0.75445    0.77233    0.47194    1.000
    H1       H        0.80320    0.69940    0.50610    1.000
    O2       O        0.63367    0.74520    0.44754    1.000
    O3       O        0.90328    0.19642    0.45844    1.000
    C2       C        0.77879    0.24219    0.47021    1.000
    H2       H        0.71590    0.17820    0.50000    1.000
    O4       O        0.73391    0.36179    0.44620    1.000
    O5       O        0.58236    0.52059    0.85536    1.000
    C3       C        0.53467    0.51223    0.76651    1.000
    H3       H        0.44140    0.48420    0.75950    1.000
    O6       O        0.59753    0.53680    0.68947    1.000
    O7       O        0.68029    0.38968    0.04467    1.000
    C4       C        0.74555    0.27233    0.02806    1.000
    H4       H        0.69680    0.19940    0.99390    1.000
    O8       O        0.86633    0.24520    0.05246    1.000
    O9       O        0.59672    0.69642    0.04156    1.000
    C5       C        0.72121    0.74219    0.02979    1.000
    H5       H        0.78410    0.67820    0.00000    1.000
    O10      O        0.76609    0.86179    0.05380    1.000
    O11      O        0.91764    0.02059    0.64464    1.000
    C6       C        0.96533    0.01223    0.73349    1.000
    H6       H        0.05860    0.98420    0.74050    1.000
    O12      O        0.90247    0.03680    0.81053    1.000
    O13      O        0.18029    0.11032    0.54467    1.000
    C7       C        0.24555    0.22767    0.52806    1.000
    H7       H        0.19680    0.30060    0.49390    1.000
    O14      O        0.36633    0.25480    0.55246    1.000
    O15      O        0.09672    0.80358    0.54156    1.000
    C8       C        0.22121    0.75781    0.52979    1.000
    H8       H        0.28410    0.82180    0.50000    1.000
    O16      O        0.26609    0.63821    0.55380    1.000
    O17      O        0.41764    0.47941    0.14464    1.000
    C9       C        0.46533    0.48777    0.23349    1.000
    H9       H        0.55860    0.51580    0.24050    1.000
    O18      O        0.40247    0.46320    0.31053    1.000
    O19      O        0.31971    0.61032    0.95533    1.000
    C10      C        0.25445    0.72767    0.97194    1.000
    H10      H        0.30320    0.80060    0.00610    1.000
    O20      O        0.13367    0.75480    0.94754    1.000
    O21      O        0.40328    0.30358    0.95844    1.000
    C11      C        0.27879    0.25781    0.97021    1.000
    H11      H        0.21590    0.32180    0.00000    1.000
    O22      O        0.23391    0.13821    0.94620    1.000
    O23      O        0.08236    0.97941    0.35536    1.000
    C12      C        0.03467    0.98777    0.26651    1.000
    H12      H        0.94140    0.01580    0.25950    1.000
    O24      O        0.09753    0.96320    0.18947    1.000
    Sc1      Sc       0.00000    0.00000    0.50000    1.000
    Sc2      Sc       0.50000    0.50000    0.00000    1.000
    K1       K        0.50000    0.50000    0.50000    1.000
    K2       K        0.00000    0.00000    0.00000    1.000
