data_functionalizedCrystal
_audit_creation_method	'EQeq! by Chris Wilmer'
_symmetry_space_group_name_H-M	'P1'
_symmetry_Int_Tables_number	1
_symmetry_cell_setting	triclinic
loop_
_symmetry_equiv_pos_as_xyz
  x,y,z
_cell_length_a	21.713
_cell_length_b	21.713
_cell_length_c	21.713
_cell_angle_alpha	90
_cell_angle_beta	90
_cell_angle_gamma	90
loop_
_atom_site_label
_atom_site_type_symbol
_atom_site_fract_x
_atom_site_fract_y
_atom_site_fract_z
_atom_site_charge
Mof_Eu	Eu	1.71835e-33	0	0.12945	1.788
Mof_Eu	Eu	1.2224e-32	0.5	0.62945	2.332
Mof_Eu	Eu	0.5	0	0.62945	2.332
Mof_Eu	Eu	0.5	0.5	0.12945	2.8
Mof_Eu	Eu	3.26404e-33	0	0.87055	1.811
Mof_Eu	Eu	-3.54264e-33	0.5	0.37055	2.314
Mof_Eu	Eu	0.5	0	0.37055	2.314
Mof_Eu	Eu	0.5	0.5	0.87055	2.814
Mof_Eu	Eu	0.12945	0	-0	1.788
Mof_Eu	Eu	0.12945	0.5	0.5	2.8
Mof_Eu	Eu	0.62945	4.93198e-33	0.5	2.332
Mof_Eu	Eu	0.62945	0.5	-0	2.332
Mof_Eu	Eu	0.87055	0	-0	1.811
Mof_Eu	Eu	0.87055	0.5	0.5	2.814
Mof_Eu	Eu	0.37055	4.93198e-33	0.5	2.314
Mof_Eu	Eu	0.37055	0.5	-0	2.314
Mof_Eu	Eu	1.23299e-33	0.12945	-0	1.788
Mof_Eu	Eu	1.17387e-32	0.62945	0.5	2.332
Mof_Eu	Eu	0.5	0.12945	0.5	2.8
Mof_Eu	Eu	0.5	0.62945	-0	2.332
Mof_Eu	Eu	-0	0.87055	-0	1.811
Mof_Eu	Eu	-3.05728e-33	0.37055	0.5	2.314
Mof_Eu	Eu	0.5	0.87055	0.5	2.814
Mof_Eu	Eu	0.5	0.37055	-0	2.314
Mof_O 	O 	0.05889	0.05889	0.05889	-0.73
Mof_O 	O 	0.05889	0.55889	0.55889	-0.86
Mof_O 	O 	0.55889	0.05889	0.55889	-0.86
Mof_O 	O 	0.55889	0.55889	0.05889	-0.86
Mof_O 	O 	0.94111	0.94111	0.05889	-0.448
Mof_O 	O 	0.94111	0.44111	0.55889	-0.715
Mof_O 	O 	0.44111	0.94111	0.55889	-0.715
Mof_O 	O 	0.44111	0.44111	0.05889	-0.858
Mof_O 	O 	0.94111	0.05889	0.94111	-0.448
Mof_O 	O 	0.94111	0.55889	0.44111	-0.715
Mof_O 	O 	0.44111	0.05889	0.44111	-0.858
Mof_O 	O 	0.44111	0.55889	0.94111	-0.715
Mof_O 	O 	0.05889	0.94111	0.94111	-0.449
Mof_O 	O 	0.05889	0.44111	0.44111	-0.859
Mof_O 	O 	0.55889	0.94111	0.44111	-0.716
Mof_O 	O 	0.55889	0.44111	0.94111	-0.716
Mof_O 	O 	0.05889	0.05889	0.94111	-0.588
Mof_O 	O 	0.05889	0.55889	0.44111	-0.86
Mof_O 	O 	0.55889	0.05889	0.44111	-0.86
Mof_O 	O 	0.55889	0.55889	0.94111	-0.717
Mof_O 	O 	0.94111	0.94111	0.94111	-0.316
Mof_O 	O 	0.94111	0.44111	0.44111	-0.715
Mof_O 	O 	0.44111	0.94111	0.44111	-0.715
Mof_O 	O 	0.44111	0.44111	0.94111	-0.715
Mof_O 	O 	0.05889	0.94111	0.05889	-0.588
Mof_O 	O 	0.05889	0.44111	0.55889	-0.86
Mof_O 	O 	0.55889	0.94111	0.55889	-0.717
Mof_O 	O 	0.55889	0.44111	0.05889	-0.86
Mof_O 	O 	0.94111	0.05889	0.05889	-0.588
Mof_O 	O 	0.94111	0.55889	0.55889	-0.717
Mof_O 	O 	0.44111	0.05889	0.55889	-0.86
Mof_O 	O 	0.44111	0.55889	0.05889	-0.86
Mof_O 	O 	-3.04576e-33	0.90081	0.17422	-0.399
Mof_N 	N 	-3.94776e-33	0.8726	0.2625	-0.054
Mof_C 	C 	1.08587e-32	0.8102	0.2653	0.074
Mof_O 	O 	-7.33603e-33	0.40081	0.67422	-0.559
Mof_N 	N 	1.27229e-32	0.3726	0.7625	-0.096
Mof_C 	C 	1.27334e-32	0.3102	0.7653	0.091
Mof_O 	O 	0.5	0.90081	0.67422	-0.425
Mof_N 	N 	0.5	0.8726	0.7625	-0.011
Mof_C 	C 	0.5	0.8102	0.7653	0.123
Mof_O 	O 	0.5	0.40081	0.17422	-0.565
Mof_N 	N 	0.5	0.3726	0.2625	-0.085
Mof_C 	C 	0.5	0.3102	0.2653	0.09
Mof_O 	O 	6.5322e-34	0.09919	0.17422	-0.495
Mof_N 	N 	9.84217e-34	0.1274	0.2625	-0.117
Mof_C 	C 	9.94716e-34	0.1898	0.2653	0.059
Mof_O 	O 	-2.40406e-33	0.59919	0.67422	-0.559
Mof_N 	N 	1.27229e-32	0.6274	0.7625	-0.095
Mof_C 	C 	2.25973e-32	0.6898	0.7653	0.098
Mof_O 	O 	0.5	0.09919	0.67422	-0.521
Mof_N 	N 	0.5	0.1274	0.7625	-0.073
Mof_C 	C 	0.5	0.1898	0.7653	0.108
Mof_O 	O 	0.5	0.59919	0.17422	-0.564
Mof_N 	N 	0.5	0.6274	0.2625	-0.084
Mof_C 	C 	0.5	0.6898	0.2653	0.098
Mof_O 	O 	1.29601e-32	0.90081	0.82578	-0.39
Mof_N 	N 	1.26291e-32	0.8726	0.7375	-0.051
Mof_C 	C 	1.26186e-32	0.8102	0.7347	0.075
Mof_O 	O 	3.68747e-33	0.40081	0.32578	-0.564
Mof_N 	N 	8.90482e-34	0.3726	0.2375	-0.118
Mof_C 	C 	5.81196e-33	0.3102	0.2347	0.068
Mof_O 	O 	0.5	0.90081	0.32578	-0.428
Mof_N 	N 	0.5	0.8726	0.2375	-0.032
Mof_C 	C 	0.5	0.8102	0.2347	0.101
Mof_O 	O 	0.5	0.40081	0.82578	-0.554
Mof_N 	N 	0.5	0.3726	0.7375	-0.081
Mof_C 	C 	0.5	0.3102	0.7347	0.09
Mof_O 	O 	1.29601e-32	0.09919	0.82578	-0.485
Mof_N 	N 	2.76518e-33	0.1274	0.7375	-0.113
Mof_C 	C 	-7.10927e-33	0.1898	0.7347	0.06
Mof_O 	O 	3.68747e-33	0.59919	0.32578	-0.563
Mof_N 	N 	1.07544e-32	0.6274	0.2375	-0.117
Mof_C 	C 	-1.586e-33	0.6898	0.2347	0.076
Mof_O 	O 	0.5	0.09919	0.32578	-0.525
Mof_N 	N 	0.5	0.1274	0.2375	-0.095
Mof_C 	C 	0.5	0.1898	0.2347	0.085
Mof_O 	O 	0.5	0.59919	0.82578	-0.554
Mof_N 	N 	0.5	0.6274	0.7375	-0.079
Mof_C 	C 	0.5	0.6898	0.7347	0.098
Mof_O 	O 	0.17422	0	0.90081	-0.399
Mof_N 	N 	0.2625	0	0.8726	-0.054
Mof_C 	C 	0.2653	-9.86395e-33	0.8102	0.074
Mof_O 	O 	0.17422	0.5	0.40081	-0.565
Mof_N 	N 	0.2625	0.5	0.3726	-0.085
Mof_C 	C 	0.2653	0.5	0.3102	0.09
Mof_O 	O 	0.67422	0	0.40081	-0.559
Mof_N 	N 	0.7625	-4.93198e-33	0.3726	-0.096
Mof_C 	C 	0.7653	2.46599e-33	0.3102	0.091
Mof_O 	O 	0.67422	0.5	0.90081	-0.425
Mof_N 	N 	0.7625	0.5	0.8726	-0.011
Mof_C 	C 	0.7653	0.5	0.8102	0.123
Mof_O 	O 	0.17422	0	0.09919	-0.495
Mof_N 	N 	0.2625	0	0.1274	-0.117
Mof_C 	C 	0.2653	2.46599e-33	0.1898	0.059
Mof_O 	O 	0.17422	0.5	0.59919	-0.564
Mof_N 	N 	0.2625	0.5	0.6274	-0.084
Mof_C 	C 	0.2653	0.5	0.6898	0.098
Mof_O 	O 	0.67422	0	0.59919	-0.559
Mof_N 	N 	0.7625	0	0.6274	-0.095
Mof_C 	C 	0.7653	4.93198e-33	0.6898	0.098
Mof_O 	O 	0.67422	0.5	0.09919	-0.521
Mof_N 	N 	0.7625	0.5	0.1274	-0.073
Mof_C 	C 	0.7653	0.5	0.1898	0.108
Mof_O 	O 	0.82578	0	0.90081	-0.39
Mof_N 	N 	0.7375	0	0.8726	-0.051
Mof_C 	C 	0.7347	-9.86395e-33	0.8102	0.075
Mof_O 	O 	0.82578	0.5	0.40081	-0.554
Mof_N 	N 	0.7375	0.5	0.3726	-0.081
Mof_C 	C 	0.7347	0.5	0.3102	0.09
Mof_O 	O 	0.32578	0	0.40081	-0.564
Mof_N 	N 	0.2375	-4.93198e-33	0.3726	-0.118
Mof_C 	C 	0.2347	2.46599e-33	0.3102	0.068
Mof_O 	O 	0.32578	0.5	0.90081	-0.428
Mof_N 	N 	0.2375	0.5	0.8726	-0.032
Mof_C 	C 	0.2347	0.5	0.8102	0.101
Mof_O 	O 	0.82578	0	0.09919	-0.485
Mof_N 	N 	0.7375	0	0.1274	-0.113
Mof_C 	C 	0.7347	2.46599e-33	0.1898	0.06
Mof_O 	O 	0.82578	0.5	0.59919	-0.554
Mof_N 	N 	0.7375	0.5	0.6274	-0.079
Mof_C 	C 	0.7347	0.5	0.6898	0.098
Mof_O 	O 	0.32578	0	0.59919	-0.563
Mof_N 	N 	0.2375	0	0.6274	-0.117
Mof_C 	C 	0.2347	4.93198e-33	0.6898	0.076
Mof_O 	O 	0.32578	0.5	0.09919	-0.525
Mof_N 	N 	0.2375	0.5	0.1274	-0.095
Mof_C 	C 	0.2347	0.5	0.1898	0.085
Mof_O 	O 	0.90081	0.17422	-0	-0.399
Mof_N 	N 	0.8726	0.2625	-0	-0.054
Mof_C 	C 	0.8102	0.2653	-0	0.074
Mof_O 	O 	0.90081	0.67422	0.5	-0.425
Mof_N 	N 	0.8726	0.7625	0.5	-0.011
Mof_C 	C 	0.8102	0.7653	0.5	0.123
Mof_O 	O 	0.40081	0.17422	0.5	-0.565
Mof_N 	N 	0.3726	0.2625	0.5	-0.085
Mof_C 	C 	0.3102	0.2653	0.5	0.09
Mof_O 	O 	0.40081	0.67422	-0	-0.559
Mof_N 	N 	0.3726	0.7625	-0	-0.096
Mof_C 	C 	0.3102	0.7653	-0	0.091
Mof_O 	O 	0.09919	0.17422	-0	-0.495
Mof_N 	N 	0.1274	0.2625	-0	-0.117
Mof_C 	C 	0.1898	0.2653	-0	0.059
Mof_O 	O 	0.09919	0.67422	0.5	-0.521
Mof_N 	N 	0.1274	0.7625	0.5	-0.073
Mof_C 	C 	0.1898	0.7653	0.5	0.108
Mof_O 	O 	0.59919	0.17422	0.5	-0.564
Mof_N 	N 	0.6274	0.2625	0.5	-0.084
Mof_C 	C 	0.6898	0.2653	0.5	0.098
Mof_O 	O 	0.59919	0.67422	-0	-0.559
Mof_N 	N 	0.6274	0.7625	-0	-0.095
Mof_C 	C 	0.6898	0.7653	-0	0.098
Mof_O 	O 	0.90081	0.82578	-0	-0.39
Mof_N 	N 	0.8726	0.7375	-0	-0.051
Mof_C 	C 	0.8102	0.7347	-0	0.075
Mof_O 	O 	0.90081	0.32578	0.5	-0.428
Mof_N 	N 	0.8726	0.2375	0.5	-0.032
Mof_C 	C 	0.8102	0.2347	0.5	0.101
Mof_O 	O 	0.40081	0.82578	0.5	-0.554
Mof_N 	N 	0.3726	0.7375	0.5	-0.081
Mof_C 	C 	0.3102	0.7347	0.5	0.09
Mof_O 	O 	0.40081	0.32578	-0	-0.564
Mof_N 	N 	0.3726	0.2375	-0	-0.118
Mof_C 	C 	0.3102	0.2347	-0	0.068
Mof_O 	O 	0.09919	0.82578	-0	-0.485
Mof_N 	N 	0.1274	0.7375	-0	-0.113
Mof_C 	C 	0.1898	0.7347	-0	0.06
Mof_O 	O 	0.09919	0.32578	0.5	-0.525
Mof_N 	N 	0.1274	0.2375	0.5	-0.095
Mof_C 	C 	0.1898	0.2347	0.5	0.085
Mof_O 	O 	0.59919	0.82578	0.5	-0.554
Mof_N 	N 	0.6274	0.7375	0.5	-0.079
Mof_C 	C 	0.6898	0.7347	0.5	0.098
Mof_O 	O 	0.59919	0.32578	-0	-0.563
Mof_N 	N 	0.6274	0.2375	-0	-0.117
Mof_C 	C 	0.6898	0.2347	-0	0.076
Mof_O 	O 	0.90081	9.86395e-33	0.82578	-0.39
Mof_N 	N 	0.8726	0	0.7375	-0.051
Mof_C 	C 	0.8102	0	0.7347	0.075
Mof_O 	O 	0.90081	0.5	0.32578	-0.428
Mof_N 	N 	0.8726	0.5	0.2375	-0.032
Mof_C 	C 	0.8102	0.5	0.2347	0.101
Mof_O 	O 	0.40081	0	0.32578	-0.564
Mof_N 	N 	0.3726	2.46599e-33	0.2375	-0.118
Mof_C 	C 	0.3102	0	0.2347	0.068
Mof_O 	O 	0.40081	0.5	0.82578	-0.554
Mof_N 	N 	0.3726	0.5	0.7375	-0.081
Mof_C 	C 	0.3102	0.5	0.7347	0.09
Mof_O 	O 	0.09919	9.86395e-33	0.82578	-0.485
Mof_N 	N 	0.1274	0	0.7375	-0.113
Mof_C 	C 	0.1898	0	0.7347	0.06
Mof_O 	O 	0.09919	0.5	0.32578	-0.525
Mof_N 	N 	0.1274	0.5	0.2375	-0.095
Mof_C 	C 	0.1898	0.5	0.2347	0.085
Mof_O 	O 	0.59919	0	0.32578	-0.563
Mof_N 	N 	0.6274	2.46599e-33	0.2375	-0.117
Mof_C 	C 	0.6898	0	0.2347	0.076
Mof_O 	O 	0.59919	0.5	0.82578	-0.554
Mof_N 	N 	0.6274	0.5	0.7375	-0.079
Mof_C 	C 	0.6898	0.5	0.7347	0.098
Mof_O 	O 	0.90081	0	0.17422	-0.399
Mof_N 	N 	0.8726	0	0.2625	-0.054
Mof_C 	C 	0.8102	0	0.2653	0.074
Mof_O 	O 	0.90081	0.5	0.67422	-0.425
Mof_N 	N 	0.8726	0.5	0.7625	-0.011
Mof_C 	C 	0.8102	0.5	0.7653	0.123
Mof_O 	O 	0.40081	4.93198e-33	0.67422	-0.559
Mof_N 	N 	0.3726	0	0.7625	-0.096
Mof_C 	C 	0.3102	0	0.7653	0.091
Mof_O 	O 	0.40081	0.5	0.17422	-0.565
Mof_N 	N 	0.3726	0.5	0.2625	-0.085
Mof_C 	C 	0.3102	0.5	0.2653	0.09
Mof_O 	O 	0.09919	0	0.17422	-0.495
Mof_N 	N 	0.1274	0	0.2625	-0.117
Mof_C 	C 	0.1898	0	0.2653	0.059
Mof_O 	O 	0.09919	0.5	0.67422	-0.521
Mof_N 	N 	0.1274	0.5	0.7625	-0.073
Mof_C 	C 	0.1898	0.5	0.7653	0.108
Mof_O 	O 	0.59919	4.93198e-33	0.67422	-0.559
Mof_N 	N 	0.6274	0	0.7625	-0.095
Mof_C 	C 	0.6898	0	0.7653	0.098
Mof_O 	O 	0.59919	0.5	0.17422	-0.564
Mof_N 	N 	0.6274	0.5	0.2625	-0.084
Mof_C 	C 	0.6898	0.5	0.2653	0.098
Mof_O 	O 	1.6049e-33	0.17422	0.09919	-0.495
Mof_N 	N 	1.71067e-33	0.2625	0.1274	-0.117
Mof_C 	C 	7.11636e-34	0.2653	0.1898	0.059
Mof_O 	O 	2.2466e-33	0.67422	0.59919	-0.559
Mof_N 	N 	1.22163e-32	0.7625	0.6274	-0.095
Mof_C 	C 	2.23142e-32	0.7653	0.6898	0.098
Mof_O 	O 	0.5	0.17422	0.59919	-0.564
Mof_N 	N 	0.5	0.2625	0.6274	-0.084
Mof_C 	C 	0.5	0.2653	0.6898	0.098
Mof_O 	O 	0.5	0.67422	0.09919	-0.521
Mof_N 	N 	0.5	0.7625	0.1274	-0.073
Mof_C 	C 	0.5	0.7653	0.1898	0.108
Mof_O 	O 	-6.48645e-33	0.17422	0.90081	-0.399
Mof_N 	N 	-6.59223e-33	0.2625	0.8726	-0.054
Mof_C 	C 	1.29017e-32	0.2653	0.8102	0.074
Mof_O 	O 	1.5028e-33	0.67422	0.40081	-0.559
Mof_N 	N 	1.1261e-32	0.7625	0.3726	-0.096
Mof_C 	C 	1.3493e-32	0.7653	0.3102	0.091
Mof_O 	O 	0.5	0.17422	0.40081	-0.565
Mof_N 	N 	0.5	0.2625	0.3726	-0.085
Mof_C 	C 	0.5	0.2653	0.3102	0.09
Mof_O 	O 	0.5	0.67422	0.90081	-0.425
Mof_N 	N 	0.5	0.7625	0.8726	-0.011
Mof_C 	C 	0.5	0.7653	0.8102	0.123
Mof_O 	O 	1.27018e-32	0.82578	0.09919	-0.485
Mof_N 	N 	1.71067e-33	0.7375	0.1274	-0.113
Mof_C 	C 	-4.22034e-33	0.7347	0.1898	0.06
Mof_O 	O 	2.2466e-33	0.32578	0.59919	-0.563
Mof_N 	N 	1.22163e-32	0.2375	0.6274	-0.117
Mof_C 	C 	-2.34564e-33	0.2347	0.6898	0.076
Mof_O 	O 	0.5	0.82578	0.59919	-0.554
Mof_N 	N 	0.5	0.7375	0.6274	-0.079
Mof_C 	C 	0.5	0.7347	0.6898	0.098
Mof_O 	O 	0.5	0.32578	0.09919	-0.525
Mof_N 	N 	0.5	0.2375	0.1274	-0.095
Mof_C 	C 	0.5	0.2347	0.1898	0.085
Mof_O 	O 	1.32414e-32	0.82578	0.90081	-0.39
Mof_N 	N 	1.31357e-32	0.7375	0.8726	-0.051
Mof_C 	C 	3.03776e-33	0.7347	0.8102	0.075
Mof_O 	O 	1.5028e-33	0.32578	0.40081	-0.564
Mof_N 	N 	1.39703e-33	0.2375	0.3726	-0.118
Mof_C 	C 	6.09504e-33	0.2347	0.3102	0.068
Mof_O 	O 	0.5	0.82578	0.40081	-0.554
Mof_N 	N 	0.5	0.7375	0.3726	-0.081
Mof_C 	C 	0.5	0.7347	0.3102	0.09
Mof_O 	O 	0.5	0.32578	0.90081	-0.428
Mof_N 	N 	0.5	0.2375	0.8726	-0.032
Mof_C 	C 	0.5	0.2347	0.8102	0.101
Mof_O 	O 	0.17422	0.90081	-0	-0.399
Mof_N 	N 	0.2625	0.8726	-0	-0.054
Mof_C 	C 	0.2653	0.8102	-0	0.074
Mof_O 	O 	0.17422	0.40081	0.5	-0.565
Mof_N 	N 	0.2625	0.3726	0.5	-0.085
Mof_C 	C 	0.2653	0.3102	0.5	0.09
Mof_O 	O 	0.67422	0.90081	0.5	-0.425
Mof_N 	N 	0.7625	0.8726	0.5	-0.011
Mof_C 	C 	0.7653	0.8102	0.5	0.123
Mof_O 	O 	0.67422	0.40081	-0	-0.559
Mof_N 	N 	0.7625	0.3726	-0	-0.096
Mof_C 	C 	0.7653	0.3102	-0	0.091
Mof_O 	O 	0.17422	0.09919	-0	-0.495
Mof_N 	N 	0.2625	0.1274	-0	-0.117
Mof_C 	C 	0.2653	0.1898	-0	0.059
Mof_O 	O 	0.17422	0.59919	0.5	-0.564
Mof_N 	N 	0.2625	0.6274	0.5	-0.084
Mof_C 	C 	0.2653	0.6898	0.5	0.098
Mof_O 	O 	0.67422	0.09919	0.5	-0.521
Mof_N 	N 	0.7625	0.1274	0.5	-0.073
Mof_C 	C 	0.7653	0.1898	0.5	0.108
Mof_O 	O 	0.67422	0.59919	-0	-0.559
Mof_N 	N 	0.7625	0.6274	-0	-0.095
Mof_C 	C 	0.7653	0.6898	-0	0.098
Mof_O 	O 	0.82578	0.90081	-0	-0.39
Mof_N 	N 	0.7375	0.8726	-0	-0.051
Mof_C 	C 	0.7347	0.8102	-0	0.075
Mof_O 	O 	0.82578	0.40081	0.5	-0.554
Mof_N 	N 	0.7375	0.3726	0.5	-0.081
Mof_C 	C 	0.7347	0.3102	0.5	0.09
Mof_O 	O 	0.32578	0.90081	0.5	-0.428
Mof_N 	N 	0.2375	0.8726	0.5	-0.032
Mof_C 	C 	0.2347	0.8102	0.5	0.101
Mof_O 	O 	0.32578	0.40081	-0	-0.564
Mof_N 	N 	0.2375	0.3726	-0	-0.118
Mof_C 	C 	0.2347	0.3102	-0	0.068
Mof_O 	O 	0.82578	0.09919	-0	-0.485
Mof_N 	N 	0.7375	0.1274	-0	-0.113
Mof_C 	C 	0.7347	0.1898	-0	0.06
Mof_O 	O 	0.82578	0.59919	0.5	-0.554
Mof_N 	N 	0.7375	0.6274	0.5	-0.079
Mof_C 	C 	0.7347	0.6898	0.5	0.098
Mof_O 	O 	0.32578	0.09919	0.5	-0.525
Mof_N 	N 	0.2375	0.1274	0.5	-0.095
Mof_C 	C 	0.2347	0.1898	0.5	0.085
Mof_O 	O 	0.32578	0.59919	-0	-0.563
Mof_N 	N 	0.2375	0.6274	-0	-0.117
Mof_C 	C 	0.2347	0.6898	-0	0.076
Mof_C 	C 	6.7465e-33	0.8449	0.1551	0.428
Mof_C 	C 	2.04935e-32	0.7958	0.2042	-0.128
Mof_C 	C 	1.23202e-32	0.3449	0.6551	0.477
Mof_C 	C 	2.64033e-33	0.2958	0.7042	-0.167
Mof_C 	C 	0.5	0.8449	0.6551	0.501
Mof_C 	C 	0.5	0.7958	0.7042	-0.138
Mof_C 	C 	0.5	0.3449	0.1551	0.504
Mof_C 	C 	0.5	0.2958	0.2042	-0.154
Mof_C 	C 	3.04752e-33	0.1551	0.1551	0.436
Mof_C 	C 	5.6976e-33	0.2042	0.2042	-0.146
Mof_C 	C 	1.23202e-32	0.6551	0.6551	0.482
Mof_C 	C 	-2.29165e-33	0.7042	0.7042	-0.17
Mof_C 	C 	0.5	0.1551	0.6551	0.509
Mof_C 	C 	0.5	0.2042	0.7042	-0.156
Mof_C 	C 	0.5	0.6551	0.1551	0.509
Mof_C 	C 	0.5	0.7042	0.2042	-0.156
Mof_C 	C 	3.16787e-33	0.8449	0.8449	0.421
Mof_C 	C 	2.27117e-32	0.7958	0.7958	-0.11
Mof_C 	C 	-1.17282e-33	0.3449	0.3449	0.473
Mof_C 	C 	1.10907e-33	0.2958	0.2958	-0.165
Mof_C 	C 	0.5	0.8449	0.3449	0.496
Mof_C 	C 	0.5	0.7958	0.2958	-0.135
Mof_C 	C 	0.5	0.3449	0.8449	0.496
Mof_C 	C 	0.5	0.2958	0.7958	-0.135
Mof_C 	C 	3.16787e-33	0.1551	0.8449	0.428
Mof_C 	C 	2.27117e-32	0.2042	0.7958	-0.128
Mof_C 	C 	1.11571e-32	0.6551	0.3449	0.477
Mof_C 	C 	6.04105e-33	0.7042	0.2958	-0.167
Mof_C 	C 	0.5	0.1551	0.3449	0.504
Mof_C 	C 	0.5	0.2042	0.2958	-0.154
Mof_C 	C 	0.5	0.6551	0.8449	0.501
Mof_C 	C 	0.5	0.7042	0.7958	-0.138
Mof_C 	C 	0.1551	0	0.8449	0.428
Mof_C 	C 	0.2042	0	0.7958	-0.128
Mof_C 	C 	0.1551	0.5	0.3449	0.504
Mof_C 	C 	0.2042	0.5	0.2958	-0.154
Mof_C 	C 	0.6551	2.46599e-33	0.3449	0.477
Mof_C 	C 	0.7042	0	0.2958	-0.167
Mof_C 	C 	0.6551	0.5	0.8449	0.501
Mof_C 	C 	0.7042	0.5	0.7958	-0.138
Mof_C 	C 	0.1551	1.23299e-33	0.1551	0.436
Mof_C 	C 	0.2042	2.46599e-33	0.2042	-0.146
Mof_C 	C 	0.1551	0.5	0.6551	0.509
Mof_C 	C 	0.2042	0.5	0.7042	-0.156
Mof_C 	C 	0.6551	0	0.6551	0.482
Mof_C 	C 	0.7042	0	0.7042	-0.17
Mof_C 	C 	0.6551	0.5	0.1551	0.509
Mof_C 	C 	0.7042	0.5	0.2042	-0.156
Mof_C 	C 	0.8449	0	0.8449	0.421
Mof_C 	C 	0.7958	0	0.7958	-0.11
Mof_C 	C 	0.8449	0.5	0.3449	0.496
Mof_C 	C 	0.7958	0.5	0.2958	-0.135
Mof_C 	C 	0.3449	2.46599e-33	0.3449	0.473
Mof_C 	C 	0.2958	0	0.2958	-0.165
Mof_C 	C 	0.3449	0.5	0.8449	0.496
Mof_C 	C 	0.2958	0.5	0.7958	-0.135
Mof_C 	C 	0.8449	1.23299e-33	0.1551	0.428
Mof_C 	C 	0.7958	2.46599e-33	0.2042	-0.128
Mof_C 	C 	0.8449	0.5	0.6551	0.501
Mof_C 	C 	0.7958	0.5	0.7042	-0.138
Mof_C 	C 	0.3449	0	0.6551	0.477
Mof_C 	C 	0.2958	0	0.7042	-0.167
Mof_C 	C 	0.3449	0.5	0.1551	0.504
Mof_C 	C 	0.2958	0.5	0.2042	-0.154
Mof_C 	C 	0.8449	0.1551	-0	0.428
Mof_C 	C 	0.7958	0.2042	-0	-0.128
Mof_C 	C 	0.8449	0.6551	0.5	0.501
Mof_C 	C 	0.7958	0.7042	0.5	-0.138
Mof_C 	C 	0.3449	0.1551	0.5	0.504
Mof_C 	C 	0.2958	0.2042	0.5	-0.154
Mof_C 	C 	0.3449	0.6551	-0	0.477
Mof_C 	C 	0.2958	0.7042	-0	-0.167
Mof_C 	C 	0.1551	0.1551	-0	0.436
Mof_C 	C 	0.2042	0.2042	-0	-0.146
Mof_C 	C 	0.1551	0.6551	0.5	0.509
Mof_C 	C 	0.2042	0.7042	0.5	-0.156
Mof_C 	C 	0.6551	0.1551	0.5	0.509
Mof_C 	C 	0.7042	0.2042	0.5	-0.156
Mof_C 	C 	0.6551	0.6551	-0	0.482
Mof_C 	C 	0.7042	0.7042	-0	-0.17
Mof_C 	C 	0.8449	0.8449	-0	0.421
Mof_C 	C 	0.7958	0.7958	-0	-0.11
Mof_C 	C 	0.8449	0.3449	0.5	0.496
Mof_C 	C 	0.7958	0.2958	0.5	-0.135
Mof_C 	C 	0.3449	0.8449	0.5	0.496
Mof_C 	C 	0.2958	0.7958	0.5	-0.135
Mof_C 	C 	0.3449	0.3449	-0	0.473
Mof_C 	C 	0.2958	0.2958	-0	-0.165
Mof_C 	C 	0.1551	0.8449	-0	0.428
Mof_C 	C 	0.2042	0.7958	-0	-0.128
Mof_C 	C 	0.1551	0.3449	0.5	0.504
Mof_C 	C 	0.2042	0.2958	0.5	-0.154
Mof_C 	C 	0.6551	0.8449	0.5	0.501
Mof_C 	C 	0.7042	0.7958	0.5	-0.138
Mof_C 	C 	0.6551	0.3449	-0	0.477
Mof_C 	C 	0.7042	0.2958	-0	-0.167
_end
