# CIF file generated by openbabel 3.1.0, see https://openbabel.org
data_I
_chemical_name_common 'image0'
_cell_length_a 35.7365
_cell_length_b 15.061
_cell_length_c 30.9345
_cell_angle_alpha 90
_cell_angle_beta 104.141
_cell_angle_gamma 90
_space_group_name_H-M_alt 'P 1'
_space_group_name_Hall 'P 1'
loop_
    _symmetry_equiv_pos_as_xyz
    x,y,z
loop_
    _atom_site_label
    _atom_site_type_symbol
    _atom_site_fract_x
    _atom_site_fract_y
    _atom_site_fract_z
    _atom_site_occupancy
    I1       I        0.48926    0.87980    0.37707    1.000
    Zn1      Zn       0.43111    0.89310    0.40568    1.000
    I2       I        0.39773    0.76742    0.43531    1.000
    N1       N        0.39030    0.95140    0.35340    1.000
    C1       C        0.35640    0.91510    0.33200    1.000
    H1       H        0.35010    0.85700    0.33980    1.000
    C2       C        0.32980    0.96220    0.29750    1.000
    H2       H        0.30550    0.93730    0.28310    1.000
    C3       C        0.34050    0.04450    0.28620    1.000
    C4       C        0.37630    0.08200    0.30800    1.000
    H3       H        0.38400    0.13900    0.30030    1.000
    C5       C        0.39980    0.03090    0.34170    1.000
    H4       H        0.42410    0.05480    0.35700    1.000
    C6       C        0.31280    0.10010    0.25240    1.000
    N2       N        0.28290    0.05750    0.22610    1.000
    C7       C        0.26010    0.10960    0.19510    1.000
    N3       N        0.26460    0.19750    0.19100    1.000
    C8       C        0.29490    0.23250    0.22020    1.000
    N4       N        0.32040    0.18560    0.25020    1.000
    N5       N        0.31380    0.51260    0.22640    1.000
    C9       C        0.28200    0.47780    0.19930    1.000
    H5       H        0.26340    0.51690    0.18200    1.000
    C10      C        0.27550    0.39020    0.19570    1.000
    H6       H        0.25300    0.36880    0.17520    1.000
    C11      C        0.30170    0.32890    0.22180    1.000
    C12      C        0.33360    0.36590    0.25030    1.000
    H7       H        0.35210    0.32950    0.26970    1.000
    C13      C        0.33810    0.45550    0.25020    1.000
    H8       H        0.36100    0.47910    0.26910    1.000
    I3       I        0.37408    0.67253    0.30508    1.000
    Zn2      Zn       0.32674    0.64804    0.22962    1.000
    I4       I        0.26430    0.73501    0.20083    1.000
    N6       N        0.16590    0.97410    0.10780    1.000
    C14      C        0.17210    0.06160    0.10310    1.000
    H9       H        0.15530    0.09200    0.07910    1.000
    C15      C        0.20100    0.10930    0.13060    1.000
    H10      H        0.20310    0.17160    0.12710    1.000
    C16      C        0.22700    0.06340    0.16380    1.000
    C17      C        0.22160    0.97580    0.16890    1.000
    H11      H        0.23880    0.94360    0.19170    1.000
    C18      C        0.19080    0.93290    0.14060    1.000
    H12      H        0.18730    0.87130    0.14500    1.000
    I5       I        0.13739    0.91645    0.98812    1.000
    I6       I        0.10866    0.76664    0.10353    1.000
    Zn3      Zn       0.12180    0.90777    0.06417    1.000
    N7       N        0.07480    0.98860    0.06220    1.000
    C19      C        0.05930    0.99200    0.09690    1.000
    H13      H        0.07060    0.95750    0.12250    1.000
    C20      C        0.02750    0.04360    0.09770    1.000
    H14      H        0.01660    0.04180    0.12280    1.000
    C21      C        0.01180    0.09690    0.06240    1.000
    C22      C        0.02800    0.09460    0.02580    1.000
    H15      H        0.01790    0.13050    0.00040    1.000
    C23      C        0.05810    0.04090    0.02700    1.000
    H16      H        0.06850    0.03930    0.00150    1.000
    C24      C        0.97960    0.15830    0.06250    1.000
    N8       N        0.95970    0.14750    0.09400    1.000
    C25      C        0.93090    0.20420    0.09250    1.000
    N9       N        0.92290    0.27390    0.06490    1.000
    C26      C        0.94510    0.28000    0.03590    1.000
    N10      N        0.97230    0.22180    0.03200    1.000
    N11      N        0.93570    0.50860    0.95150    1.000
    C27      C        0.96530    0.45310    0.95650    1.000
    H17      H        0.98460    0.46480    0.94080    1.000
    C28      C        0.96920    0.37880    0.98360    1.000
    H18      H        0.99080    0.34070    0.98670    1.000
    C29      C        0.94010    0.36020    0.00710    1.000
    C30      C        0.91070    0.41780    0.00240    1.000
    H19      H        0.89090    0.40890    0.01760    1.000
    C31      C        0.90970    0.49190    0.97430    1.000
    H20      H        0.88890    0.53260    0.97160    1.000
    N12      N        0.85860    0.16280    0.18250    1.000
    C32      C        0.84780    0.21360    0.14650    1.000
    H21      H        0.82300    0.24040    0.14050    1.000
    C33      C        0.87060    0.22930    0.11750    1.000
    H22      H        0.86180    0.26800    0.09290    1.000
    C34      C        0.90640    0.18890    0.12390    1.000
    C35      C        0.91800    0.13430    0.15980    1.000
    H23      H        0.94230    0.10550    0.16580    1.000
    C36      C        0.89310    0.12200    0.18760    1.000
    H24      H        0.90090    0.08190    0.21190    1.000
    I7       I        0.38550    0.76380    0.44310    1.000
    I8       I        0.47370    0.85340    0.38370    1.000
    Zn4      Zn       0.42020    0.87630    0.40710    1.000
    I9       I        0.98926    0.37980    0.37707    1.000
    Zn5      Zn       0.93111    0.39310    0.40568    1.000
    I10      I        0.89773    0.26742    0.43531    1.000
    N13      N        0.89030    0.45140    0.35340    1.000
    C37      C        0.85640    0.41510    0.33200    1.000
    H25      H        0.85010    0.35700    0.33980    1.000
    C38      C        0.82980    0.46220    0.29750    1.000
    H26      H        0.80550    0.43730    0.28310    1.000
    C39      C        0.84050    0.54450    0.28620    1.000
    C40      C        0.87630    0.58200    0.30800    1.000
    H27      H        0.88400    0.63900    0.30030    1.000
    C41      C        0.89980    0.53090    0.34170    1.000
    H28      H        0.92410    0.55480    0.35700    1.000
    C42      C        0.81280    0.60010    0.25240    1.000
    N14      N        0.78290    0.55750    0.22610    1.000
    C43      C        0.76010    0.60960    0.19510    1.000
    N15      N        0.76460    0.69750    0.19100    1.000
    C44      C        0.79490    0.73250    0.22020    1.000
    N16      N        0.82040    0.68560    0.25020    1.000
    N17      N        0.81380    0.01260    0.22640    1.000
    C45      C        0.78200    0.97780    0.19930    1.000
    H29      H        0.76340    0.01690    0.18200    1.000
    C46      C        0.77550    0.89020    0.19570    1.000
    H30      H        0.75300    0.86880    0.17520    1.000
    C47      C        0.80170    0.82890    0.22180    1.000
    C48      C        0.83360    0.86590    0.25030    1.000
    H31      H        0.85210    0.82950    0.26970    1.000
    C49      C        0.83810    0.95550    0.25020    1.000
    H32      H        0.86100    0.97910    0.26910    1.000
    I11      I        0.87408    0.17253    0.30508    1.000
    Zn6      Zn       0.82674    0.14804    0.22962    1.000
    I12      I        0.76430    0.23501    0.20083    1.000
    N18      N        0.66590    0.47410    0.10780    1.000
    C50      C        0.67210    0.56160    0.10310    1.000
    H33      H        0.65530    0.59200    0.07910    1.000
    C51      C        0.70100    0.60930    0.13060    1.000
    H34      H        0.70310    0.67160    0.12710    1.000
    C52      C        0.72700    0.56340    0.16380    1.000
    C53      C        0.72160    0.47580    0.16890    1.000
    H35      H        0.73880    0.44360    0.19170    1.000
    C54      C        0.69080    0.43290    0.14060    1.000
    H36      H        0.68730    0.37130    0.14500    1.000
    I13      I        0.63739    0.41645    0.98812    1.000
    I14      I        0.60866    0.26664    0.10353    1.000
    Zn7      Zn       0.62180    0.40777    0.06417    1.000
    N19      N        0.57480    0.48860    0.06220    1.000
    C55      C        0.55930    0.49200    0.09690    1.000
    H37      H        0.57060    0.45750    0.12250    1.000
    C56      C        0.52750    0.54360    0.09770    1.000
    H38      H        0.51660    0.54180    0.12280    1.000
    C57      C        0.51180    0.59690    0.06240    1.000
    C58      C        0.52800    0.59460    0.02580    1.000
    H39      H        0.51790    0.63050    0.00040    1.000
    C59      C        0.55810    0.54090    0.02700    1.000
    H40      H        0.56850    0.53930    0.00150    1.000
    C60      C        0.47960    0.65830    0.06250    1.000
    N20      N        0.45970    0.64750    0.09400    1.000
    C61      C        0.43090    0.70420    0.09250    1.000
    N21      N        0.42290    0.77390    0.06490    1.000
    C62      C        0.44510    0.78000    0.03590    1.000
    N22      N        0.47230    0.72180    0.03200    1.000
    N23      N        0.43570    0.00860    0.95150    1.000
    C63      C        0.46530    0.95310    0.95650    1.000
    H41      H        0.48460    0.96480    0.94080    1.000
    C64      C        0.46920    0.87880    0.98360    1.000
    H42      H        0.49080    0.84070    0.98670    1.000
    C65      C        0.44010    0.86020    0.00710    1.000
    C66      C        0.41070    0.91780    0.00240    1.000
    H43      H        0.39090    0.90890    0.01760    1.000
    C67      C        0.40970    0.99190    0.97430    1.000
    H44      H        0.38890    0.03260    0.97160    1.000
    N24      N        0.35860    0.66280    0.18250    1.000
    C68      C        0.34780    0.71360    0.14650    1.000
    H45      H        0.32300    0.74040    0.14050    1.000
    C69      C        0.37060    0.72930    0.11750    1.000
    H46      H        0.36180    0.76800    0.09290    1.000
    C70      C        0.40640    0.68890    0.12390    1.000
    C71      C        0.41800    0.63430    0.15980    1.000
    H47      H        0.44230    0.60550    0.16580    1.000
    C72      C        0.39310    0.62200    0.18760    1.000
    H48      H        0.40090    0.58190    0.21190    1.000
    I15      I        0.88550    0.26380    0.44310    1.000
    I16      I        0.97370    0.35340    0.38370    1.000
    Zn8      Zn       0.92020    0.37630    0.40710    1.000
    I17      I        0.48926    0.12020    0.87707    1.000
    Zn9      Zn       0.43111    0.10690    0.90568    1.000
    I18      I        0.39773    0.23258    0.93531    1.000
    N25      N        0.39030    0.04860    0.85340    1.000
    C73      C        0.35640    0.08490    0.83200    1.000
    H49      H        0.35010    0.14300    0.83980    1.000
    C74      C        0.32980    0.03780    0.79750    1.000
    H50      H        0.30550    0.06270    0.78310    1.000
    C75      C        0.34050    0.95550    0.78620    1.000
    C76      C        0.37630    0.91800    0.80800    1.000
    H51      H        0.38400    0.86100    0.80030    1.000
    C77      C        0.39980    0.96910    0.84170    1.000
    H52      H        0.42410    0.94520    0.85700    1.000
    C78      C        0.31280    0.89990    0.75240    1.000
    N26      N        0.28290    0.94250    0.72610    1.000
    C79      C        0.26010    0.89040    0.69510    1.000
    N27      N        0.26460    0.80250    0.69100    1.000
    C80      C        0.29490    0.76750    0.72020    1.000
    N28      N        0.32040    0.81440    0.75020    1.000
    N29      N        0.31380    0.48740    0.72640    1.000
    C81      C        0.28200    0.52220    0.69930    1.000
    H53      H        0.26340    0.48310    0.68200    1.000
    C82      C        0.27550    0.60980    0.69570    1.000
    H54      H        0.25300    0.63120    0.67520    1.000
    C83      C        0.30170    0.67110    0.72180    1.000
    C84      C        0.33360    0.63410    0.75030    1.000
    H55      H        0.35210    0.67050    0.76970    1.000
    C85      C        0.33810    0.54450    0.75020    1.000
    H56      H        0.36100    0.52090    0.76910    1.000
    I19      I        0.37408    0.32747    0.80508    1.000
    Zn10     Zn       0.32674    0.35196    0.72962    1.000
    I20      I        0.26430    0.26499    0.70083    1.000
    N30      N        0.16590    0.02590    0.60780    1.000
    C86      C        0.17210    0.93840    0.60310    1.000
    H57      H        0.15530    0.90800    0.57910    1.000
    C87      C        0.20100    0.89070    0.63060    1.000
    H58      H        0.20310    0.82840    0.62710    1.000
    C88      C        0.22700    0.93660    0.66380    1.000
    C89      C        0.22160    0.02420    0.66890    1.000
    H59      H        0.23880    0.05640    0.69170    1.000
    C90      C        0.19080    0.06710    0.64060    1.000
    H60      H        0.18730    0.12870    0.64500    1.000
    I21      I        0.13739    0.08355    0.48812    1.000
    I22      I        0.10866    0.23336    0.60353    1.000
    Zn11     Zn       0.12180    0.09223    0.56417    1.000
    N31      N        0.07480    0.01140    0.56220    1.000
    C91      C        0.05930    0.00800    0.59690    1.000
    H61      H        0.07060    0.04250    0.62250    1.000
    C92      C        0.02750    0.95640    0.59770    1.000
    H62      H        0.01660    0.95820    0.62280    1.000
    C93      C        0.01180    0.90310    0.56240    1.000
    C94      C        0.02800    0.90540    0.52580    1.000
    H63      H        0.01790    0.86950    0.50040    1.000
    C95      C        0.05810    0.95910    0.52700    1.000
    H64      H        0.06850    0.96070    0.50150    1.000
    C96      C        0.97960    0.84170    0.56250    1.000
    N32      N        0.95970    0.85250    0.59400    1.000
    C97      C        0.93090    0.79580    0.59250    1.000
    N33      N        0.92290    0.72610    0.56490    1.000
    C98      C        0.94510    0.72000    0.53590    1.000
    N34      N        0.97230    0.77820    0.53200    1.000
    N35      N        0.93570    0.49140    0.45150    1.000
    C99      C        0.96530    0.54690    0.45650    1.000
    H65      H        0.98460    0.53520    0.44080    1.000
    C100     C        0.96920    0.62120    0.48360    1.000
    H66      H        0.99080    0.65930    0.48670    1.000
    C101     C        0.94010    0.63980    0.50710    1.000
    C102     C        0.91070    0.58220    0.50240    1.000
    H67      H        0.89090    0.59110    0.51760    1.000
    C103     C        0.90970    0.50810    0.47430    1.000
    H68      H        0.88890    0.46740    0.47160    1.000
    N36      N        0.85860    0.83720    0.68250    1.000
    C104     C        0.84780    0.78640    0.64650    1.000
    H69      H        0.82300    0.75960    0.64050    1.000
    C105     C        0.87060    0.77070    0.61750    1.000
    H70      H        0.86180    0.73200    0.59290    1.000
    C106     C        0.90640    0.81110    0.62390    1.000
    C107     C        0.91800    0.86570    0.65980    1.000
    H71      H        0.94230    0.89450    0.66580    1.000
    C108     C        0.89310    0.87800    0.68760    1.000
    H72      H        0.90090    0.91810    0.71190    1.000
    I23      I        0.38550    0.23620    0.94310    1.000
    I24      I        0.47370    0.14660    0.88370    1.000
    Zn12     Zn       0.42020    0.12370    0.90710    1.000
    I25      I        0.98926    0.62020    0.87707    1.000
    Zn13     Zn       0.93111    0.60690    0.90568    1.000
    I26      I        0.89773    0.73258    0.93531    1.000
    N37      N        0.89030    0.54860    0.85340    1.000
    C109     C        0.85640    0.58490    0.83200    1.000
    H73      H        0.85010    0.64300    0.83980    1.000
    C110     C        0.82980    0.53780    0.79750    1.000
    H74      H        0.80550    0.56270    0.78310    1.000
    C111     C        0.84050    0.45550    0.78620    1.000
    C112     C        0.87630    0.41800    0.80800    1.000
    H75      H        0.88400    0.36100    0.80030    1.000
    C113     C        0.89980    0.46910    0.84170    1.000
    H76      H        0.92410    0.44520    0.85700    1.000
    C114     C        0.81280    0.39990    0.75240    1.000
    N38      N        0.78290    0.44250    0.72610    1.000
    C115     C        0.76010    0.39040    0.69510    1.000
    N39      N        0.76460    0.30250    0.69100    1.000
    C116     C        0.79490    0.26750    0.72020    1.000
    N40      N        0.82040    0.31440    0.75020    1.000
    N41      N        0.81380    0.98740    0.72640    1.000
    C117     C        0.78200    0.02220    0.69930    1.000
    H77      H        0.76340    0.98310    0.68200    1.000
    C118     C        0.77550    0.10980    0.69570    1.000
    H78      H        0.75300    0.13120    0.67520    1.000
    C119     C        0.80170    0.17110    0.72180    1.000
    C120     C        0.83360    0.13410    0.75030    1.000
    H79      H        0.85210    0.17050    0.76970    1.000
    C121     C        0.83810    0.04450    0.75020    1.000
    H80      H        0.86100    0.02090    0.76910    1.000
    I27      I        0.87408    0.82747    0.80508    1.000
    Zn14     Zn       0.82674    0.85196    0.72962    1.000
    I28      I        0.76430    0.76499    0.70083    1.000
    N42      N        0.66590    0.52590    0.60780    1.000
    C122     C        0.67210    0.43840    0.60310    1.000
    H81      H        0.65530    0.40800    0.57910    1.000
    C123     C        0.70100    0.39070    0.63060    1.000
    H82      H        0.70310    0.32840    0.62710    1.000
    C124     C        0.72700    0.43660    0.66380    1.000
    C125     C        0.72160    0.52420    0.66890    1.000
    H83      H        0.73880    0.55640    0.69170    1.000
    C126     C        0.69080    0.56710    0.64060    1.000
    H84      H        0.68730    0.62870    0.64500    1.000
    I29      I        0.63739    0.58355    0.48812    1.000
    I30      I        0.60866    0.73336    0.60353    1.000
    Zn15     Zn       0.62180    0.59223    0.56417    1.000
    N43      N        0.57480    0.51140    0.56220    1.000
    C127     C        0.55930    0.50800    0.59690    1.000
    H85      H        0.57060    0.54250    0.62250    1.000
    C128     C        0.52750    0.45640    0.59770    1.000
    H86      H        0.51660    0.45820    0.62280    1.000
    C129     C        0.51180    0.40310    0.56240    1.000
    C130     C        0.52800    0.40540    0.52580    1.000
    H87      H        0.51790    0.36950    0.50040    1.000
    C131     C        0.55810    0.45910    0.52700    1.000
    H88      H        0.56850    0.46070    0.50150    1.000
    C132     C        0.47960    0.34170    0.56250    1.000
    N44      N        0.45970    0.35250    0.59400    1.000
    C133     C        0.43090    0.29580    0.59250    1.000
    N45      N        0.42290    0.22610    0.56490    1.000
    C134     C        0.44510    0.22000    0.53590    1.000
    N46      N        0.47230    0.27820    0.53200    1.000
    N47      N        0.43570    0.99140    0.45150    1.000
    C135     C        0.46530    0.04690    0.45650    1.000
    H89      H        0.48460    0.03520    0.44080    1.000
    C136     C        0.46920    0.12120    0.48360    1.000
    H90      H        0.49080    0.15930    0.48670    1.000
    C137     C        0.44010    0.13980    0.50710    1.000
    C138     C        0.41070    0.08220    0.50240    1.000
    H91      H        0.39090    0.09110    0.51760    1.000
    C139     C        0.40970    0.00810    0.47430    1.000
    H92      H        0.38890    0.96740    0.47160    1.000
    N48      N        0.35860    0.33720    0.68250    1.000
    C140     C        0.34780    0.28640    0.64650    1.000
    H93      H        0.32300    0.25960    0.64050    1.000
    C141     C        0.37060    0.27070    0.61750    1.000
    H94      H        0.36180    0.23200    0.59290    1.000
    C142     C        0.40640    0.31110    0.62390    1.000
    C143     C        0.41800    0.36570    0.65980    1.000
    H95      H        0.44230    0.39450    0.66580    1.000
    C144     C        0.39310    0.37800    0.68760    1.000
    H96      H        0.40090    0.41810    0.71190    1.000
    I31      I        0.88550    0.73620    0.94310    1.000
    I32      I        0.97370    0.64660    0.88370    1.000
    Zn16     Zn       0.92020    0.62370    0.90710    1.000
    I33      I        0.51074    0.87980    0.12293    1.000
    Zn17     Zn       0.56889    0.89310    0.09432    1.000
    I34      I        0.60227    0.76742    0.06469    1.000
    N49      N        0.60970    0.95140    0.14660    1.000
    C145     C        0.64360    0.91510    0.16800    1.000
    H97      H        0.64990    0.85700    0.16020    1.000
    C146     C        0.67020    0.96220    0.20250    1.000
    H98      H        0.69450    0.93730    0.21690    1.000
    C147     C        0.65950    0.04450    0.21380    1.000
    C148     C        0.62370    0.08200    0.19200    1.000
    H99      H        0.61600    0.13900    0.19970    1.000
    C149     C        0.60020    0.03090    0.15830    1.000
    H100     H        0.57590    0.05480    0.14300    1.000
    C150     C        0.68720    0.10010    0.24760    1.000
    N50      N        0.71710    0.05750    0.27390    1.000
    C151     C        0.73990    0.10960    0.30490    1.000
    N51      N        0.73540    0.19750    0.30900    1.000
    C152     C        0.70510    0.23250    0.27980    1.000
    N52      N        0.67960    0.18560    0.24980    1.000
    N53      N        0.68620    0.51260    0.27360    1.000
    C153     C        0.71800    0.47780    0.30070    1.000
    H101     H        0.73660    0.51690    0.31800    1.000
    C154     C        0.72450    0.39020    0.30430    1.000
    H102     H        0.74700    0.36880    0.32480    1.000
    C155     C        0.69830    0.32890    0.27820    1.000
    C156     C        0.66640    0.36590    0.24970    1.000
    H103     H        0.64790    0.32950    0.23030    1.000
    C157     C        0.66190    0.45550    0.24980    1.000
    H104     H        0.63900    0.47910    0.23090    1.000
    I35      I        0.62592    0.67253    0.19492    1.000
    Zn18     Zn       0.67326    0.64804    0.27038    1.000
    I36      I        0.73570    0.73501    0.29917    1.000
    N54      N        0.83410    0.97410    0.39220    1.000
    C158     C        0.82790    0.06160    0.39690    1.000
    H105     H        0.84470    0.09200    0.42090    1.000
    C159     C        0.79900    0.10930    0.36940    1.000
    H106     H        0.79690    0.17160    0.37290    1.000
    C160     C        0.77300    0.06340    0.33620    1.000
    C161     C        0.77840    0.97580    0.33110    1.000
    H107     H        0.76120    0.94360    0.30830    1.000
    C162     C        0.80920    0.93290    0.35940    1.000
    H108     H        0.81270    0.87130    0.35500    1.000
    I37      I        0.86261    0.91645    0.51188    1.000
    I38      I        0.89134    0.76664    0.39647    1.000
    Zn19     Zn       0.87820    0.90777    0.43583    1.000
    N55      N        0.92520    0.98860    0.43780    1.000
    C163     C        0.94070    0.99200    0.40310    1.000
    H109     H        0.92940    0.95750    0.37750    1.000
    C164     C        0.97250    0.04360    0.40230    1.000
    H110     H        0.98340    0.04180    0.37720    1.000
    C165     C        0.98820    0.09690    0.43760    1.000
    C166     C        0.97200    0.09460    0.47420    1.000
    H111     H        0.98210    0.13050    0.49960    1.000
    C167     C        0.94190    0.04090    0.47300    1.000
    H112     H        0.93150    0.03930    0.49850    1.000
    C168     C        0.02040    0.15830    0.43750    1.000
    N56      N        0.04030    0.14750    0.40600    1.000
    C169     C        0.06910    0.20420    0.40750    1.000
    N57      N        0.07710    0.27390    0.43510    1.000
    C170     C        0.05490    0.28000    0.46410    1.000
    N58      N        0.02770    0.22180    0.46800    1.000
    N59      N        0.06430    0.50860    0.54850    1.000
    C171     C        0.03470    0.45310    0.54350    1.000
    H113     H        0.01540    0.46480    0.55920    1.000
    C172     C        0.03080    0.37880    0.51640    1.000
    H114     H        0.00920    0.34070    0.51330    1.000
    C173     C        0.05990    0.36020    0.49290    1.000
    C174     C        0.08930    0.41780    0.49760    1.000
    H115     H        0.10910    0.40890    0.48240    1.000
    C175     C        0.09030    0.49190    0.52570    1.000
    H116     H        0.11110    0.53260    0.52840    1.000
    N60      N        0.14140    0.16280    0.31750    1.000
    C176     C        0.15220    0.21360    0.35350    1.000
    H117     H        0.17700    0.24040    0.35950    1.000
    C177     C        0.12940    0.22930    0.38250    1.000
    H118     H        0.13820    0.26800    0.40710    1.000
    C178     C        0.09360    0.18890    0.37610    1.000
    C179     C        0.08200    0.13430    0.34020    1.000
    H119     H        0.05770    0.10550    0.33420    1.000
    C180     C        0.10690    0.12200    0.31240    1.000
    H120     H        0.09910    0.08190    0.28810    1.000
    I39      I        0.61450    0.76380    0.05690    1.000
    I40      I        0.52630    0.85340    0.11630    1.000
    Zn20     Zn       0.57980    0.87630    0.09290    1.000
    I41      I        0.01074    0.37980    0.12293    1.000
    Zn21     Zn       0.06889    0.39310    0.09432    1.000
    I42      I        0.10227    0.26742    0.06469    1.000
    N61      N        0.10970    0.45140    0.14660    1.000
    C181     C        0.14360    0.41510    0.16800    1.000
    H121     H        0.14990    0.35700    0.16020    1.000
    C182     C        0.17020    0.46220    0.20250    1.000
    H122     H        0.19450    0.43730    0.21690    1.000
    C183     C        0.15950    0.54450    0.21380    1.000
    C184     C        0.12370    0.58200    0.19200    1.000
    H123     H        0.11600    0.63900    0.19970    1.000
    C185     C        0.10020    0.53090    0.15830    1.000
    H124     H        0.07590    0.55480    0.14300    1.000
    C186     C        0.18720    0.60010    0.24760    1.000
    N62      N        0.21710    0.55750    0.27390    1.000
    C187     C        0.23990    0.60960    0.30490    1.000
    N63      N        0.23540    0.69750    0.30900    1.000
    C188     C        0.20510    0.73250    0.27980    1.000
    N64      N        0.17960    0.68560    0.24980    1.000
    N65      N        0.18620    0.01260    0.27360    1.000
    C189     C        0.21800    0.97780    0.30070    1.000
    H125     H        0.23660    0.01690    0.31800    1.000
    C190     C        0.22450    0.89020    0.30430    1.000
    H126     H        0.24700    0.86880    0.32480    1.000
    C191     C        0.19830    0.82890    0.27820    1.000
    C192     C        0.16640    0.86590    0.24970    1.000
    H127     H        0.14790    0.82950    0.23030    1.000
    C193     C        0.16190    0.95550    0.24980    1.000
    H128     H        0.13900    0.97910    0.23090    1.000
    I43      I        0.12592    0.17253    0.19492    1.000
    Zn22     Zn       0.17326    0.14804    0.27038    1.000
    I44      I        0.23570    0.23501    0.29917    1.000
    N66      N        0.33410    0.47410    0.39220    1.000
    C194     C        0.32790    0.56160    0.39690    1.000
    H129     H        0.34470    0.59200    0.42090    1.000
    C195     C        0.29900    0.60930    0.36940    1.000
    H130     H        0.29690    0.67160    0.37290    1.000
    C196     C        0.27300    0.56340    0.33620    1.000
    C197     C        0.27840    0.47580    0.33110    1.000
    H131     H        0.26120    0.44360    0.30830    1.000
    C198     C        0.30920    0.43290    0.35940    1.000
    H132     H        0.31270    0.37130    0.35500    1.000
    I45      I        0.36261    0.41645    0.51188    1.000
    I46      I        0.39134    0.26664    0.39647    1.000
    Zn23     Zn       0.37820    0.40777    0.43583    1.000
    N67      N        0.42520    0.48860    0.43780    1.000
    C199     C        0.44070    0.49200    0.40310    1.000
    H133     H        0.42940    0.45750    0.37750    1.000
    C200     C        0.47250    0.54360    0.40230    1.000
    H134     H        0.48340    0.54180    0.37720    1.000
    C201     C        0.48820    0.59690    0.43760    1.000
    C202     C        0.47200    0.59460    0.47420    1.000
    H135     H        0.48210    0.63050    0.49960    1.000
    C203     C        0.44190    0.54090    0.47300    1.000
    H136     H        0.43150    0.53930    0.49850    1.000
    C204     C        0.52040    0.65830    0.43750    1.000
    N68      N        0.54030    0.64750    0.40600    1.000
    C205     C        0.56910    0.70420    0.40750    1.000
    N69      N        0.57710    0.77390    0.43510    1.000
    C206     C        0.55490    0.78000    0.46410    1.000
    N70      N        0.52770    0.72180    0.46800    1.000
    N71      N        0.56430    0.00860    0.54850    1.000
    C207     C        0.53470    0.95310    0.54350    1.000
    H137     H        0.51540    0.96480    0.55920    1.000
    C208     C        0.53080    0.87880    0.51640    1.000
    H138     H        0.50920    0.84070    0.51330    1.000
    C209     C        0.55990    0.86020    0.49290    1.000
    C210     C        0.58930    0.91780    0.49760    1.000
    H139     H        0.60910    0.90890    0.48240    1.000
    C211     C        0.59030    0.99190    0.52570    1.000
    H140     H        0.61110    0.03260    0.52840    1.000
    N72      N        0.64140    0.66280    0.31750    1.000
    C212     C        0.65220    0.71360    0.35350    1.000
    H141     H        0.67700    0.74040    0.35950    1.000
    C213     C        0.62940    0.72930    0.38250    1.000
    H142     H        0.63820    0.76800    0.40710    1.000
    C214     C        0.59360    0.68890    0.37610    1.000
    C215     C        0.58200    0.63430    0.34020    1.000
    H143     H        0.55770    0.60550    0.33420    1.000
    C216     C        0.60690    0.62200    0.31240    1.000
    H144     H        0.59910    0.58190    0.28810    1.000
    I47      I        0.11450    0.26380    0.05690    1.000
    I48      I        0.02630    0.35340    0.11630    1.000
    Zn24     Zn       0.07980    0.37630    0.09290    1.000
    I49      I        0.51074    0.12020    0.62293    1.000
    Zn25     Zn       0.56889    0.10690    0.59432    1.000
    I50      I        0.60227    0.23258    0.56469    1.000
    N73      N        0.60970    0.04860    0.64660    1.000
    C217     C        0.64360    0.08490    0.66800    1.000
    H145     H        0.64990    0.14300    0.66020    1.000
    C218     C        0.67020    0.03780    0.70250    1.000
    H146     H        0.69450    0.06270    0.71690    1.000
    C219     C        0.65950    0.95550    0.71380    1.000
    C220     C        0.62370    0.91800    0.69200    1.000
    H147     H        0.61600    0.86100    0.69970    1.000
    C221     C        0.60020    0.96910    0.65830    1.000
    H148     H        0.57590    0.94520    0.64300    1.000
    C222     C        0.68720    0.89990    0.74760    1.000
    N74      N        0.71710    0.94250    0.77390    1.000
    C223     C        0.73990    0.89040    0.80490    1.000
    N75      N        0.73540    0.80250    0.80900    1.000
    C224     C        0.70510    0.76750    0.77980    1.000
    N76      N        0.67960    0.81440    0.74980    1.000
    N77      N        0.68620    0.48740    0.77360    1.000
    C225     C        0.71800    0.52220    0.80070    1.000
    H149     H        0.73660    0.48310    0.81800    1.000
    C226     C        0.72450    0.60980    0.80430    1.000
    H150     H        0.74700    0.63120    0.82480    1.000
    C227     C        0.69830    0.67110    0.77820    1.000
    C228     C        0.66640    0.63410    0.74970    1.000
    H151     H        0.64790    0.67050    0.73030    1.000
    C229     C        0.66190    0.54450    0.74980    1.000
    H152     H        0.63900    0.52090    0.73090    1.000
    I51      I        0.62592    0.32747    0.69492    1.000
    Zn26     Zn       0.67326    0.35196    0.77038    1.000
    I52      I        0.73570    0.26499    0.79917    1.000
    N78      N        0.83410    0.02590    0.89220    1.000
    C230     C        0.82790    0.93840    0.89690    1.000
    H153     H        0.84470    0.90800    0.92090    1.000
    C231     C        0.79900    0.89070    0.86940    1.000
    H154     H        0.79690    0.82840    0.87290    1.000
    C232     C        0.77300    0.93660    0.83620    1.000
    C233     C        0.77840    0.02420    0.83110    1.000
    H155     H        0.76120    0.05640    0.80830    1.000
    C234     C        0.80920    0.06710    0.85940    1.000
    H156     H        0.81270    0.12870    0.85500    1.000
    I53      I        0.86261    0.08355    0.01188    1.000
    I54      I        0.89134    0.23336    0.89647    1.000
    Zn27     Zn       0.87820    0.09223    0.93583    1.000
    N79      N        0.92520    0.01140    0.93780    1.000
    C235     C        0.94070    0.00800    0.90310    1.000
    H157     H        0.92940    0.04250    0.87750    1.000
    C236     C        0.97250    0.95640    0.90230    1.000
    H158     H        0.98340    0.95820    0.87720    1.000
    C237     C        0.98820    0.90310    0.93760    1.000
    C238     C        0.97200    0.90540    0.97420    1.000
    H159     H        0.98210    0.86950    0.99960    1.000
    C239     C        0.94190    0.95910    0.97300    1.000
    H160     H        0.93150    0.96070    0.99850    1.000
    C240     C        0.02040    0.84170    0.93750    1.000
    N80      N        0.04030    0.85250    0.90600    1.000
    C241     C        0.06910    0.79580    0.90750    1.000
    N81      N        0.07710    0.72610    0.93510    1.000
    C242     C        0.05490    0.72000    0.96410    1.000
    N82      N        0.02770    0.77820    0.96800    1.000
    N83      N        0.06430    0.49140    0.04850    1.000
    C243     C        0.03470    0.54690    0.04350    1.000
    H161     H        0.01540    0.53520    0.05920    1.000
    C244     C        0.03080    0.62120    0.01640    1.000
    H162     H        0.00920    0.65930    0.01330    1.000
    C245     C        0.05990    0.63980    0.99290    1.000
    C246     C        0.08930    0.58220    0.99760    1.000
    H163     H        0.10910    0.59110    0.98240    1.000
    C247     C        0.09030    0.50810    0.02570    1.000
    H164     H        0.11110    0.46740    0.02840    1.000
    N84      N        0.14140    0.83720    0.81750    1.000
    C248     C        0.15220    0.78640    0.85350    1.000
    H165     H        0.17700    0.75960    0.85950    1.000
    C249     C        0.12940    0.77070    0.88250    1.000
    H166     H        0.13820    0.73200    0.90710    1.000
    C250     C        0.09360    0.81110    0.87610    1.000
    C251     C        0.08200    0.86570    0.84020    1.000
    H167     H        0.05770    0.89450    0.83420    1.000
    C252     C        0.10690    0.87800    0.81240    1.000
    H168     H        0.09910    0.91810    0.78810    1.000
    I55      I        0.61450    0.23620    0.55690    1.000
    I56      I        0.52630    0.14660    0.61630    1.000
    Zn28     Zn       0.57980    0.12370    0.59290    1.000
    I57      I        0.01074    0.62020    0.62293    1.000
    Zn29     Zn       0.06889    0.60690    0.59432    1.000
    I58      I        0.10227    0.73258    0.56469    1.000
    N85      N        0.10970    0.54860    0.64660    1.000
    C253     C        0.14360    0.58490    0.66800    1.000
    H169     H        0.14990    0.64300    0.66020    1.000
    C254     C        0.17020    0.53780    0.70250    1.000
    H170     H        0.19450    0.56270    0.71690    1.000
    C255     C        0.15950    0.45550    0.71380    1.000
    C256     C        0.12370    0.41800    0.69200    1.000
    H171     H        0.11600    0.36100    0.69970    1.000
    C257     C        0.10020    0.46910    0.65830    1.000
    H172     H        0.07590    0.44520    0.64300    1.000
    C258     C        0.18720    0.39990    0.74760    1.000
    N86      N        0.21710    0.44250    0.77390    1.000
    C259     C        0.23990    0.39040    0.80490    1.000
    N87      N        0.23540    0.30250    0.80900    1.000
    C260     C        0.20510    0.26750    0.77980    1.000
    N88      N        0.17960    0.31440    0.74980    1.000
    N89      N        0.18620    0.98740    0.77360    1.000
    C261     C        0.21800    0.02220    0.80070    1.000
    H173     H        0.23660    0.98310    0.81800    1.000
    C262     C        0.22450    0.10980    0.80430    1.000
    H174     H        0.24700    0.13120    0.82480    1.000
    C263     C        0.19830    0.17110    0.77820    1.000
    C264     C        0.16640    0.13410    0.74970    1.000
    H175     H        0.14790    0.17050    0.73030    1.000
    C265     C        0.16190    0.04450    0.74980    1.000
    H176     H        0.13900    0.02090    0.73090    1.000
    I59      I        0.12592    0.82747    0.69492    1.000
    Zn30     Zn       0.17326    0.85196    0.77038    1.000
    I60      I        0.23570    0.76499    0.79917    1.000
    N90      N        0.33410    0.52590    0.89220    1.000
    C266     C        0.32790    0.43840    0.89690    1.000
    H177     H        0.34470    0.40800    0.92090    1.000
    C267     C        0.29900    0.39070    0.86940    1.000
    H178     H        0.29690    0.32840    0.87290    1.000
    C268     C        0.27300    0.43660    0.83620    1.000
    C269     C        0.27840    0.52420    0.83110    1.000
    H179     H        0.26120    0.55640    0.80830    1.000
    C270     C        0.30920    0.56710    0.85940    1.000
    H180     H        0.31270    0.62870    0.85500    1.000
    I61      I        0.36261    0.58355    0.01188    1.000
    I62      I        0.39134    0.73336    0.89647    1.000
    Zn31     Zn       0.37820    0.59223    0.93583    1.000
    N91      N        0.42520    0.51140    0.93780    1.000
    C271     C        0.44070    0.50800    0.90310    1.000
    H181     H        0.42940    0.54250    0.87750    1.000
    C272     C        0.47250    0.45640    0.90230    1.000
    H182     H        0.48340    0.45820    0.87720    1.000
    C273     C        0.48820    0.40310    0.93760    1.000
    C274     C        0.47200    0.40540    0.97420    1.000
    H183     H        0.48210    0.36950    0.99960    1.000
    C275     C        0.44190    0.45910    0.97300    1.000
    H184     H        0.43150    0.46070    0.99850    1.000
    C276     C        0.52040    0.34170    0.93750    1.000
    N92      N        0.54030    0.35250    0.90600    1.000
    C277     C        0.56910    0.29580    0.90750    1.000
    N93      N        0.57710    0.22610    0.93510    1.000
    C278     C        0.55490    0.22000    0.96410    1.000
    N94      N        0.52770    0.27820    0.96800    1.000
    N95      N        0.56430    0.99140    0.04850    1.000
    C279     C        0.53470    0.04690    0.04350    1.000
    H185     H        0.51540    0.03520    0.05920    1.000
    C280     C        0.53080    0.12120    0.01640    1.000
    H186     H        0.50920    0.15930    0.01330    1.000
    C281     C        0.55990    0.13980    0.99290    1.000
    C282     C        0.58930    0.08220    0.99760    1.000
    H187     H        0.60910    0.09110    0.98240    1.000
    C283     C        0.59030    0.00810    0.02570    1.000
    H188     H        0.61110    0.96740    0.02840    1.000
    N96      N        0.64140    0.33720    0.81750    1.000
    C284     C        0.65220    0.28640    0.85350    1.000
    H189     H        0.67700    0.25960    0.85950    1.000
    C285     C        0.62940    0.27070    0.88250    1.000
    H190     H        0.63820    0.23200    0.90710    1.000
    C286     C        0.59360    0.31110    0.87610    1.000
    C287     C        0.58200    0.36570    0.84020    1.000
    H191     H        0.55770    0.39450    0.83420    1.000
    C288     C        0.60690    0.37800    0.81240    1.000
    H192     H        0.59910    0.41810    0.78810    1.000
    I63      I        0.11450    0.73620    0.55690    1.000
    I64      I        0.02630    0.64660    0.61630    1.000
    Zn32     Zn       0.07980    0.62370    0.59290    1.000
