# CIF file generated by openbabel 3.1.0, see https://openbabel.org
data_I
_chemical_name_common 'image0'
_cell_length_a 26.421
_cell_length_b 26.421
_cell_length_c 4.7117
_cell_angle_alpha 90
_cell_angle_beta 90
_cell_angle_gamma 90
_space_group_name_H-M_alt 'P 1'
_space_group_name_Hall 'P 1'
loop_
    _symmetry_equiv_pos_as_xyz
    x,y,z
loop_
    _atom_site_label
    _atom_site_type_symbol
    _atom_site_fract_x
    _atom_site_fract_y
    _atom_site_fract_z
    _atom_site_occupancy
    Zn1      Zn       0.26939    0.21578    0.91460    1.000
    O1       O        0.22910    0.27370    0.00800    1.000
    H1       H        0.20740    0.28520    0.89120    1.000
    N1       N        0.24220    0.14840    0.97700    1.000
    C1       C        0.25530    0.10990    0.13400    1.000
    H2       H        0.28020    0.11320    0.27260    1.000
    N2       N        0.23160    0.06500    0.08940    1.000
    C2       C        0.20270    0.12590    0.79620    1.000
    O2       O        0.27030    0.83840    0.46300    1.000
    C3       C        0.17370    0.14730    0.58400    1.000
    H3       H        0.17750    0.18120    0.53450    1.000
    O3       O        0.34200    0.86230    0.45900    1.000
    C4       C        0.13850    0.11670    0.44510    1.000
    C5       C        0.10920    0.13720    0.23100    1.000
    H4       H        0.11360    0.17110    0.18310    1.000
    C6       C        0.07340    0.10870    0.08500    1.000
    H5       H        0.05380    0.12280    0.94160    1.000
    C7       C        0.06840    0.05820    0.16310    1.000
    H6       H        0.04500    0.03800    0.06920    1.000
    C8       C        0.09760    0.03710    0.37800    1.000
    H7       H        0.09320    0.00330    0.42580    1.000
    C9       C        0.13340    0.06600    0.52380    1.000
    C10      C        0.16280    0.04410    0.73700    1.000
    H8       H        0.15940    0.01020    0.78580    1.000
    C11      C        0.19730    0.07540    0.87400    1.000
    C12      C        0.24590    0.01790    0.19600    1.000
    C13      C        0.27460    0.92700    0.41600    1.000
    C14      C        0.29540    0.01130    0.27600    1.000
    H9       H        0.31850    0.03770    0.25530    1.000
    C15      C        0.31140    0.96510    0.39000    1.000
    H10      H        0.34480    0.95980    0.44480    1.000
    C16      C        0.22360    0.93110    0.33800    1.000
    H11      H        0.20030    0.90500    0.35710    1.000
    C17      C        0.21190    0.97870    0.22800    1.000
    H12      H        0.17860    0.98450    0.17140    1.000
    C18      C        0.29510    0.87590    0.50600    1.000
    C19      C        0.26490    0.01460    0.46900    1.000
    H13      H        0.26780    0.04390    0.57740    1.000
    C20      C        0.27940    0.96910    0.58400    1.000
    H14      H        0.29200    0.96690    0.76800    1.000
    C21      C        0.25570    0.92780    0.14400    1.000
    H15      H        0.25260    0.89840    0.03700    1.000
    C22      C        0.24160    0.97430    0.03700    1.000
    H16      H        0.22880    0.97630    0.85330    1.000
    O4       O        0.30370    0.87070    0.77100    1.000
    Zn2      Zn       0.76939    0.71578    0.41460    1.000
    O5       O        0.72910    0.77370    0.50800    1.000
    H17      H        0.70740    0.78520    0.39120    1.000
    N3       N        0.74220    0.64840    0.47700    1.000
    C23      C        0.75530    0.60990    0.63400    1.000
    H18      H        0.78020    0.61320    0.77260    1.000
    N4       N        0.73160    0.56500    0.58940    1.000
    C24      C        0.70270    0.62590    0.29620    1.000
    O6       O        0.77030    0.33840    0.96300    1.000
    C25      C        0.67370    0.64730    0.08400    1.000
    H19      H        0.67750    0.68120    0.03450    1.000
    O7       O        0.84200    0.36230    0.95900    1.000
    C26      C        0.63850    0.61670    0.94510    1.000
    C27      C        0.60920    0.63720    0.73100    1.000
    H20      H        0.61360    0.67110    0.68310    1.000
    C28      C        0.57340    0.60870    0.58500    1.000
    H21      H        0.55380    0.62280    0.44160    1.000
    C29      C        0.56840    0.55820    0.66310    1.000
    H22      H        0.54500    0.53800    0.56920    1.000
    C30      C        0.59760    0.53710    0.87800    1.000
    H23      H        0.59320    0.50330    0.92580    1.000
    C31      C        0.63340    0.56600    0.02380    1.000
    C32      C        0.66280    0.54410    0.23700    1.000
    H24      H        0.65940    0.51020    0.28580    1.000
    C33      C        0.69730    0.57540    0.37400    1.000
    C34      C        0.74590    0.51790    0.69600    1.000
    C35      C        0.77460    0.42700    0.91600    1.000
    C36      C        0.79540    0.51130    0.77600    1.000
    H25      H        0.81850    0.53770    0.75530    1.000
    C37      C        0.81140    0.46510    0.89000    1.000
    H26      H        0.84480    0.45980    0.94480    1.000
    C38      C        0.72360    0.43110    0.83800    1.000
    H27      H        0.70030    0.40500    0.85710    1.000
    C39      C        0.71190    0.47870    0.72800    1.000
    H28      H        0.67860    0.48450    0.67140    1.000
    C40      C        0.79510    0.37590    0.00600    1.000
    C41      C        0.76490    0.51460    0.96900    1.000
    H29      H        0.76780    0.54390    0.07740    1.000
    C42      C        0.77940    0.46910    0.08400    1.000
    H30      H        0.79200    0.46690    0.26800    1.000
    C43      C        0.75570    0.42780    0.64400    1.000
    H31      H        0.75260    0.39840    0.53700    1.000
    C44      C        0.74160    0.47430    0.53700    1.000
    H32      H        0.72880    0.47630    0.35330    1.000
    O8       O        0.80370    0.37070    0.27100    1.000
    Zn3      Zn       0.73061    0.78422    0.91460    1.000
    O9       O        0.77090    0.72630    0.00800    1.000
    H33      H        0.79260    0.71480    0.89120    1.000
    N5       N        0.75780    0.85160    0.97700    1.000
    C45      C        0.74470    0.89010    0.13400    1.000
    H34      H        0.71980    0.88680    0.27260    1.000
    N6       N        0.76840    0.93500    0.08940    1.000
    C46      C        0.79730    0.87410    0.79620    1.000
    O10      O        0.72970    0.16160    0.46300    1.000
    C47      C        0.82630    0.85270    0.58400    1.000
    H35      H        0.82250    0.81880    0.53450    1.000
    O11      O        0.65800    0.13770    0.45900    1.000
    C48      C        0.86150    0.88330    0.44510    1.000
    C49      C        0.89080    0.86280    0.23100    1.000
    H36      H        0.88640    0.82890    0.18310    1.000
    C50      C        0.92660    0.89130    0.08500    1.000
    H37      H        0.94620    0.87720    0.94160    1.000
    C51      C        0.93160    0.94180    0.16310    1.000
    H38      H        0.95500    0.96200    0.06920    1.000
    C52      C        0.90240    0.96290    0.37800    1.000
    H39      H        0.90680    0.99670    0.42580    1.000
    C53      C        0.86660    0.93400    0.52380    1.000
    C54      C        0.83720    0.95590    0.73700    1.000
    H40      H        0.84060    0.98980    0.78580    1.000
    C55      C        0.80270    0.92460    0.87400    1.000
    C56      C        0.75410    0.98210    0.19600    1.000
    C57      C        0.72540    0.07300    0.41600    1.000
    C58      C        0.70460    0.98870    0.27600    1.000
    H41      H        0.68150    0.96230    0.25530    1.000
    C59      C        0.68860    0.03490    0.39000    1.000
    H42      H        0.65520    0.04020    0.44480    1.000
    C60      C        0.77640    0.06890    0.33800    1.000
    H43      H        0.79970    0.09500    0.35710    1.000
    C61      C        0.78810    0.02130    0.22800    1.000
    H44      H        0.82140    0.01550    0.17140    1.000
    C62      C        0.70490    0.12410    0.50600    1.000
    C63      C        0.73510    0.98540    0.46900    1.000
    H45      H        0.73220    0.95610    0.57740    1.000
    C64      C        0.72060    0.03090    0.58400    1.000
    H46      H        0.70800    0.03310    0.76800    1.000
    C65      C        0.74430    0.07220    0.14400    1.000
    H47      H        0.74740    0.10160    0.03700    1.000
    C66      C        0.75840    0.02570    0.03700    1.000
    H48      H        0.77120    0.02370    0.85330    1.000
    O12      O        0.69630    0.12930    0.77100    1.000
    Zn4      Zn       0.23061    0.28422    0.41460    1.000
    O13      O        0.27090    0.22630    0.50800    1.000
    H49      H        0.29260    0.21480    0.39120    1.000
    N7       N        0.25780    0.35160    0.47700    1.000
    C67      C        0.24470    0.39010    0.63400    1.000
    H50      H        0.21980    0.38680    0.77260    1.000
    N8       N        0.26840    0.43500    0.58940    1.000
    C68      C        0.29730    0.37410    0.29620    1.000
    O14      O        0.22970    0.66160    0.96300    1.000
    C69      C        0.32630    0.35270    0.08400    1.000
    H51      H        0.32250    0.31880    0.03450    1.000
    O15      O        0.15800    0.63770    0.95900    1.000
    C70      C        0.36150    0.38330    0.94510    1.000
    C71      C        0.39080    0.36280    0.73100    1.000
    H52      H        0.38640    0.32890    0.68310    1.000
    C72      C        0.42660    0.39130    0.58500    1.000
    H53      H        0.44620    0.37720    0.44160    1.000
    C73      C        0.43160    0.44180    0.66310    1.000
    H54      H        0.45500    0.46200    0.56920    1.000
    C74      C        0.40240    0.46290    0.87800    1.000
    H55      H        0.40680    0.49670    0.92580    1.000
    C75      C        0.36660    0.43400    0.02380    1.000
    C76      C        0.33720    0.45590    0.23700    1.000
    H56      H        0.34060    0.48980    0.28580    1.000
    C77      C        0.30270    0.42460    0.37400    1.000
    C78      C        0.25410    0.48210    0.69600    1.000
    C79      C        0.22540    0.57300    0.91600    1.000
    C80      C        0.20460    0.48870    0.77600    1.000
    H57      H        0.18150    0.46230    0.75530    1.000
    C81      C        0.18860    0.53490    0.89000    1.000
    H58      H        0.15520    0.54020    0.94480    1.000
    C82      C        0.27640    0.56890    0.83800    1.000
    H59      H        0.29970    0.59500    0.85710    1.000
    C83      C        0.28810    0.52130    0.72800    1.000
    H60      H        0.32140    0.51550    0.67140    1.000
    C84      C        0.20490    0.62410    0.00600    1.000
    C85      C        0.23510    0.48540    0.96900    1.000
    H61      H        0.23220    0.45610    0.07740    1.000
    C86      C        0.22060    0.53090    0.08400    1.000
    H62      H        0.20800    0.53310    0.26800    1.000
    C87      C        0.24430    0.57220    0.64400    1.000
    H63      H        0.24740    0.60160    0.53700    1.000
    C88      C        0.25840    0.52570    0.53700    1.000
    H64      H        0.27120    0.52370    0.35330    1.000
    O16      O        0.19630    0.62930    0.27100    1.000
    Zn5      Zn       0.21578    0.73061    0.08540    1.000
    O17      O        0.27370    0.77090    0.99200    1.000
    H65      H        0.28520    0.79260    0.10880    1.000
    N9       N        0.14840    0.75780    0.02300    1.000
    C89      C        0.10990    0.74470    0.86600    1.000
    H66      H        0.11320    0.71980    0.72740    1.000
    N10      N        0.06500    0.76840    0.91060    1.000
    C90      C        0.12590    0.79730    0.20380    1.000
    O18      O        0.83840    0.72970    0.53700    1.000
    C91      C        0.14730    0.82630    0.41600    1.000
    H67      H        0.18120    0.82250    0.46550    1.000
    O19      O        0.86230    0.65800    0.54100    1.000
    C92      C        0.11670    0.86150    0.55490    1.000
    C93      C        0.13720    0.89080    0.76900    1.000
    H68      H        0.17110    0.88640    0.81690    1.000
    C94      C        0.10870    0.92660    0.91500    1.000
    H69      H        0.12280    0.94620    0.05840    1.000
    C95      C        0.05820    0.93160    0.83690    1.000
    H70      H        0.03800    0.95500    0.93080    1.000
    C96      C        0.03710    0.90240    0.62200    1.000
    H71      H        0.00330    0.90680    0.57420    1.000
    C97      C        0.06600    0.86660    0.47620    1.000
    C98      C        0.04410    0.83720    0.26300    1.000
    H72      H        0.01020    0.84060    0.21420    1.000
    C99      C        0.07540    0.80270    0.12600    1.000
    C100     C        0.01790    0.75410    0.80400    1.000
    C101     C        0.92700    0.72540    0.58400    1.000
    C102     C        0.01130    0.70460    0.72400    1.000
    H73      H        0.03770    0.68150    0.74470    1.000
    C103     C        0.96510    0.68860    0.61000    1.000
    H74      H        0.95980    0.65520    0.55520    1.000
    C104     C        0.93110    0.77640    0.66200    1.000
    H75      H        0.90500    0.79970    0.64290    1.000
    C105     C        0.97870    0.78810    0.77200    1.000
    H76      H        0.98450    0.82140    0.82860    1.000
    C106     C        0.87590    0.70490    0.49400    1.000
    C107     C        0.01460    0.73510    0.53100    1.000
    H77      H        0.04390    0.73220    0.42260    1.000
    C108     C        0.96910    0.72060    0.41600    1.000
    H78      H        0.96690    0.70800    0.23200    1.000
    C109     C        0.92780    0.74430    0.85600    1.000
    H79      H        0.89840    0.74740    0.96300    1.000
    C110     C        0.97430    0.75840    0.96300    1.000
    H80      H        0.97630    0.77120    0.14670    1.000
    O20      O        0.87070    0.69630    0.22900    1.000
    Zn6      Zn       0.71578    0.23061    0.58540    1.000
    O21      O        0.77370    0.27090    0.49200    1.000
    H81      H        0.78520    0.29260    0.60880    1.000
    N11      N        0.64840    0.25780    0.52300    1.000
    C111     C        0.60990    0.24470    0.36600    1.000
    H82      H        0.61320    0.21980    0.22740    1.000
    N12      N        0.56500    0.26840    0.41060    1.000
    C112     C        0.62590    0.29730    0.70380    1.000
    O22      O        0.33840    0.22970    0.03700    1.000
    C113     C        0.64730    0.32630    0.91600    1.000
    H83      H        0.68120    0.32250    0.96550    1.000
    O23      O        0.36230    0.15800    0.04100    1.000
    C114     C        0.61670    0.36150    0.05490    1.000
    C115     C        0.63720    0.39080    0.26900    1.000
    H84      H        0.67110    0.38640    0.31690    1.000
    C116     C        0.60870    0.42660    0.41500    1.000
    H85      H        0.62280    0.44620    0.55840    1.000
    C117     C        0.55820    0.43160    0.33690    1.000
    H86      H        0.53800    0.45500    0.43080    1.000
    C118     C        0.53710    0.40240    0.12200    1.000
    H87      H        0.50330    0.40680    0.07420    1.000
    C119     C        0.56600    0.36660    0.97620    1.000
    C120     C        0.54410    0.33720    0.76300    1.000
    H88      H        0.51020    0.34060    0.71420    1.000
    C121     C        0.57540    0.30270    0.62600    1.000
    C122     C        0.51790    0.25410    0.30400    1.000
    C123     C        0.42700    0.22540    0.08400    1.000
    C124     C        0.51130    0.20460    0.22400    1.000
    H89      H        0.53770    0.18150    0.24470    1.000
    C125     C        0.46510    0.18860    0.11000    1.000
    H90      H        0.45980    0.15520    0.05520    1.000
    C126     C        0.43110    0.27640    0.16200    1.000
    H91      H        0.40500    0.29970    0.14290    1.000
    C127     C        0.47870    0.28810    0.27200    1.000
    H92      H        0.48450    0.32140    0.32860    1.000
    C128     C        0.37590    0.20490    0.99400    1.000
    C129     C        0.51460    0.23510    0.03100    1.000
    H93      H        0.54390    0.23220    0.92260    1.000
    C130     C        0.46910    0.22060    0.91600    1.000
    H94      H        0.46690    0.20800    0.73200    1.000
    C131     C        0.42780    0.24430    0.35600    1.000
    H95      H        0.39840    0.24740    0.46300    1.000
    C132     C        0.47430    0.25840    0.46300    1.000
    H96      H        0.47630    0.27120    0.64670    1.000
    O24      O        0.37070    0.19630    0.72900    1.000
    Zn7      Zn       0.78422    0.26939    0.08540    1.000
    O25      O        0.72630    0.22910    0.99200    1.000
    H97      H        0.71480    0.20740    0.10880    1.000
    N13      N        0.85160    0.24220    0.02300    1.000
    C133     C        0.89010    0.25530    0.86600    1.000
    H98      H        0.88680    0.28020    0.72740    1.000
    N14      N        0.93500    0.23160    0.91060    1.000
    C134     C        0.87410    0.20270    0.20380    1.000
    O26      O        0.16160    0.27030    0.53700    1.000
    C135     C        0.85270    0.17370    0.41600    1.000
    H99      H        0.81880    0.17750    0.46550    1.000
    O27      O        0.13770    0.34200    0.54100    1.000
    C136     C        0.88330    0.13850    0.55490    1.000
    C137     C        0.86280    0.10920    0.76900    1.000
    H100     H        0.82890    0.11360    0.81690    1.000
    C138     C        0.89130    0.07340    0.91500    1.000
    H101     H        0.87720    0.05380    0.05840    1.000
    C139     C        0.94180    0.06840    0.83690    1.000
    H102     H        0.96200    0.04500    0.93080    1.000
    C140     C        0.96290    0.09760    0.62200    1.000
    H103     H        0.99670    0.09320    0.57420    1.000
    C141     C        0.93400    0.13340    0.47620    1.000
    C142     C        0.95590    0.16280    0.26300    1.000
    H104     H        0.98980    0.15940    0.21420    1.000
    C143     C        0.92460    0.19730    0.12600    1.000
    C144     C        0.98210    0.24590    0.80400    1.000
    C145     C        0.07300    0.27460    0.58400    1.000
    C146     C        0.98870    0.29540    0.72400    1.000
    H105     H        0.96230    0.31850    0.74470    1.000
    C147     C        0.03490    0.31140    0.61000    1.000
    H106     H        0.04020    0.34480    0.55520    1.000
    C148     C        0.06890    0.22360    0.66200    1.000
    H107     H        0.09500    0.20030    0.64290    1.000
    C149     C        0.02130    0.21190    0.77200    1.000
    H108     H        0.01550    0.17860    0.82860    1.000
    C150     C        0.12410    0.29510    0.49400    1.000
    C151     C        0.98540    0.26490    0.53100    1.000
    H109     H        0.95610    0.26780    0.42260    1.000
    C152     C        0.03090    0.27940    0.41600    1.000
    H110     H        0.03310    0.29200    0.23200    1.000
    C153     C        0.07220    0.25570    0.85600    1.000
    H111     H        0.10160    0.25260    0.96300    1.000
    C154     C        0.02570    0.24160    0.96300    1.000
    H112     H        0.02370    0.22880    0.14670    1.000
    O28      O        0.12930    0.30370    0.22900    1.000
    Zn8      Zn       0.28422    0.76939    0.58540    1.000
    O29      O        0.22630    0.72910    0.49200    1.000
    H113     H        0.21480    0.70740    0.60880    1.000
    N15      N        0.35160    0.74220    0.52300    1.000
    C155     C        0.39010    0.75530    0.36600    1.000
    H114     H        0.38680    0.78020    0.22740    1.000
    N16      N        0.43500    0.73160    0.41060    1.000
    C156     C        0.37410    0.70270    0.70380    1.000
    O30      O        0.66160    0.77030    0.03700    1.000
    C157     C        0.35270    0.67370    0.91600    1.000
    H115     H        0.31880    0.67750    0.96550    1.000
    O31      O        0.63770    0.84200    0.04100    1.000
    C158     C        0.38330    0.63850    0.05490    1.000
    C159     C        0.36280    0.60920    0.26900    1.000
    H116     H        0.32890    0.61360    0.31690    1.000
    C160     C        0.39130    0.57340    0.41500    1.000
    H117     H        0.37720    0.55380    0.55840    1.000
    C161     C        0.44180    0.56840    0.33690    1.000
    H118     H        0.46200    0.54500    0.43080    1.000
    C162     C        0.46290    0.59760    0.12200    1.000
    H119     H        0.49670    0.59320    0.07420    1.000
    C163     C        0.43400    0.63340    0.97620    1.000
    C164     C        0.45590    0.66280    0.76300    1.000
    H120     H        0.48980    0.65940    0.71420    1.000
    C165     C        0.42460    0.69730    0.62600    1.000
    C166     C        0.48210    0.74590    0.30400    1.000
    C167     C        0.57300    0.77460    0.08400    1.000
    C168     C        0.48870    0.79540    0.22400    1.000
    H121     H        0.46230    0.81850    0.24470    1.000
    C169     C        0.53490    0.81140    0.11000    1.000
    H122     H        0.54020    0.84480    0.05520    1.000
    C170     C        0.56890    0.72360    0.16200    1.000
    H123     H        0.59500    0.70030    0.14290    1.000
    C171     C        0.52130    0.71190    0.27200    1.000
    H124     H        0.51550    0.67860    0.32860    1.000
    C172     C        0.62410    0.79510    0.99400    1.000
    C173     C        0.48540    0.76490    0.03100    1.000
    H125     H        0.45610    0.76780    0.92260    1.000
    C174     C        0.53090    0.77940    0.91600    1.000
    H126     H        0.53310    0.79200    0.73200    1.000
    C175     C        0.57220    0.75570    0.35600    1.000
    H127     H        0.60160    0.75260    0.46300    1.000
    C176     C        0.52570    0.74160    0.46300    1.000
    H128     H        0.52370    0.72880    0.64670    1.000
    O32      O        0.62930    0.80370    0.72900    1.000
