data_functionalizedCrystal
_audit_creation_method	'EQeq! by Chris Wilmer'
_symmetry_space_group_name_H-M	'P1'
_symmetry_Int_Tables_number	1
_symmetry_cell_setting	triclinic
loop_
_symmetry_equiv_pos_as_xyz
  x,y,z
_cell_length_a	20.78
_cell_length_b	7.2367
_cell_length_c	15.495
_cell_angle_alpha	90
_cell_angle_beta	90
_cell_angle_gamma	90
loop_
_atom_site_label
_atom_site_type_symbol
_atom_site_fract_x
_atom_site_fract_y
_atom_site_fract_z
_atom_site_charge
Mof_N 	N 	0.4322	0.1478	0.4414	-0.198
Mof_C 	C 	0.3868	0.091	0.3926	0.073
Mof_H 	H 	0.375	0.9694	0.3823	0.015
Mof_C 	C 	0.2667	0.125	0.284	-0.045
Mof_H 	H 	0.2883	0.0082	0.2878	0.093
Mof_C 	C 	0.3014	0.099	0.238	-0.328
Mof_H 	H 	0.3301	0.9964	0.2308	0.137
Mof_N 	N 	0.9322	0.6478	0.9414	-0.163
Mof_C 	C 	0.8868	0.591	0.8926	0.127
Mof_H 	H 	0.875	0.4694	0.8823	0.006
Mof_C 	C 	0.7667	0.625	0.784	-0.017
Mof_H 	H 	0.7883	0.5082	0.7878	0.081
Mof_C 	C 	0.8014	0.599	0.738	-0.227
Mof_H 	H 	0.8301	0.4964	0.7308	0.106
Mof_N 	N 	0.5678	0.3522	0.4414	-0.203
Mof_C 	C 	0.6132	0.409	0.3926	0.123
Mof_H 	H 	0.625	0.5306	0.3823	-0.016
Mof_C 	C 	0.7333	0.375	0.284	-0.408
Mof_H 	H 	0.7117	0.4918	0.2878	0.191
Mof_C 	C 	0.6986	0.401	0.238	-0.193
Mof_H 	H 	0.6699	0.5036	0.2308	0.062
Mof_N 	N 	0.0678	0.8522	0.9414	-0.18
Mof_C 	C 	0.1132	0.909	0.8926	0.169
Mof_H 	H 	0.125	0.0306	0.8823	-0.029
Mof_C 	C 	0.2333	0.875	0.784	-0.358
Mof_H 	H 	0.2117	0.9918	0.7878	0.171
Mof_C 	C 	0.1986	0.901	0.738	-0.093
Mof_H 	H 	0.1699	0.0036	0.7308	0.025
Mof_N 	N 	0.5678	0.6478	0.5586	-0.198
Mof_C 	C 	0.6132	0.591	0.6074	0.111
Mof_H 	H 	0.625	0.4694	0.6177	-0.002
Mof_C 	C 	0.7333	0.625	0.716	0.133
Mof_H 	H 	0.7117	0.5082	0.7122	0.025
Mof_C 	C 	0.6986	0.599	0.762	-0.186
Mof_H 	H 	0.6699	0.4964	0.7692	0.105
Mof_N 	N 	0.0678	0.1478	0.0586	-0.211
Mof_C 	C 	0.1132	0.091	0.1074	0.052
Mof_H 	H 	0.125	0.9694	0.1177	0.019
Mof_C 	C 	0.2333	0.125	0.216	0.265
Mof_H 	H 	0.2117	0.0082	0.2122	-0.018
Mof_C 	C 	0.1986	0.099	0.262	-0.255
Mof_H 	H 	0.1699	0.9964	0.2692	0.138
Mof_N 	N 	0.4322	0.8522	0.5586	-0.199
Mof_C 	C 	0.3868	0.909	0.6074	0.14
Mof_H 	H 	0.375	0.0306	0.6177	-0.021
Mof_C 	C 	0.2667	0.875	0.716	0.222
Mof_H 	H 	0.2883	0.9918	0.7122	-0.033
Mof_C 	C 	0.3014	0.901	0.762	0.035
Mof_H 	H 	0.3301	0.0036	0.7692	0.028
Mof_N 	N 	0.9322	0.3522	0.0586	-0.197
Mof_C 	C 	0.8868	0.409	0.1074	0.087
Mof_H 	H 	0.875	0.5306	0.1177	0.006
Mof_C 	C 	0.7667	0.375	0.216	0.373
Mof_H 	H 	0.7883	0.4918	0.2122	-0.081
Mof_C 	C 	0.8014	0.401	0.262	-0.026
Mof_H 	H 	0.8301	0.5036	0.2692	0.068
Mof_N 	N 	0.5678	0.8522	0.5586	-0.2
Mof_C 	C 	0.6132	0.909	0.6074	0.149
Mof_H 	H 	0.625	0.0306	0.6177	-0.027
Mof_C 	C 	0.7333	0.875	0.716	0.009
Mof_H 	H 	0.7117	0.9918	0.7122	0.041
Mof_C 	C 	0.6986	0.901	0.762	-0.011
Mof_H 	H 	0.6699	0.0036	0.7692	0.031
Mof_N 	N 	0.0678	0.3522	0.0586	-0.215
Mof_C 	C 	0.1132	0.409	0.1074	0.091
Mof_H 	H 	0.125	0.5306	0.1177	-0.007
Mof_C 	C 	0.2333	0.375	0.216	0.137
Mof_H 	H 	0.2117	0.4918	0.2122	-0.001
Mof_C 	C 	0.1986	0.401	0.262	-0.073
Mof_H 	H 	0.1699	0.5036	0.2692	0.061
Mof_N 	N 	0.4322	0.6478	0.5586	-0.197
Mof_C 	C 	0.3868	0.591	0.6074	0.102
Mof_H 	H 	0.375	0.4694	0.6177	0.004
Mof_C 	C 	0.2667	0.625	0.716	0.35
Mof_H 	H 	0.2883	0.5082	0.7122	-0.05
Mof_C 	C 	0.3014	0.599	0.762	-0.146
Mof_H 	H 	0.3301	0.4964	0.7692	0.104
Mof_N 	N 	0.9322	0.1478	0.0586	-0.193
Mof_C 	C 	0.8868	0.091	0.1074	0.051
Mof_H 	H 	0.875	0.9694	0.1177	0.03
Mof_C 	C 	0.7667	0.125	0.216	0.495
Mof_H 	H 	0.7883	0.0082	0.2122	-0.097
Mof_C 	C 	0.8014	0.099	0.262	-0.2
Mof_H 	H 	0.8301	0.9964	0.2692	0.141
Mof_N 	N 	0.4322	0.3522	0.4414	-0.201
Mof_C 	C 	0.3868	0.409	0.3926	0.113
Mof_H 	H 	0.375	0.5306	0.3823	-0.009
Mof_C 	C 	0.2667	0.375	0.284	-0.173
Mof_H 	H 	0.2883	0.4918	0.2878	0.11
Mof_C 	C 	0.3014	0.401	0.238	-0.146
Mof_H 	H 	0.3301	0.5036	0.2308	0.061
Mof_N 	N 	0.9322	0.8522	0.9414	-0.165
Mof_C 	C 	0.8868	0.909	0.8926	0.163
Mof_H 	H 	0.875	0.0306	0.8823	-0.017
Mof_C 	C 	0.7667	0.875	0.784	-0.14
Mof_H 	H 	0.7883	0.9918	0.7878	0.097
Mof_C 	C 	0.8014	0.901	0.738	-0.052
Mof_H 	H 	0.8301	0.0036	0.7308	0.032
Mof_N 	N 	0.5678	0.1478	0.4414	-0.198
Mof_C 	C 	0.6132	0.091	0.3926	0.085
Mof_H 	H 	0.625	0.9694	0.3823	0.009
Mof_C 	C 	0.7333	0.125	0.284	-0.284
Mof_H 	H 	0.7117	0.0082	0.2878	0.175
Mof_C 	C 	0.6986	0.099	0.238	-0.369
Mof_H 	H 	0.6699	0.9964	0.2308	0.136
Mof_N 	N 	0.0678	0.6478	0.9414	-0.177
Mof_C 	C 	0.1132	0.591	0.8926	0.131
Mof_H 	H 	0.125	0.4694	0.8823	-0.004
Mof_C 	C 	0.2333	0.625	0.784	-0.23
Mof_H 	H 	0.2117	0.5082	0.7878	0.154
Mof_C 	C 	0.1986	0.599	0.738	-0.275
Mof_H 	H 	0.1699	0.4964	0.7308	0.101
Mof_Br	Br	0.5	0.75	0.3609	-0.418
Mof_Br	Br	2.40691e-33	0.25	0.8609	-0.41
Mof_Br	Br	0.5	0.25	0.6391	-0.407
Mof_Br	Br	4.4515e-33	0.75	0.1391	-0.45
Mof_Cu	Cu	0.5	0	0.5	0.877
Mof_Cu	Cu	1.3542e-33	0.5	-0	0.835
Mof_Cu	Cu	0.5	0.5	0.5	0.886
Mof_Cu	Cu	-0	0	-0	0.827
Mof_N 	N 	0.3584	0.25	0.3574	-0.164
Mof_C 	C 	0.3018	0.25	0.3011	0.246
Mof_N 	N 	0.8584	0.75	0.8574	-0.16
Mof_C 	C 	0.8018	0.75	0.8011	0.192
Mof_N 	N 	0.6416	0.25	0.3574	-0.204
Mof_C 	C 	0.6982	0.25	0.3011	0.482
Mof_N 	N 	0.1416	0.75	0.8574	-0.197
Mof_C 	C 	0.1982	0.75	0.8011	0.405
Mof_N 	N 	0.6416	0.75	0.6426	-0.136
Mof_C 	C 	0.6982	0.75	0.6989	0.033
Mof_N 	N 	0.1416	0.25	0.1426	-0.112
Mof_C 	C 	0.1982	0.25	0.1989	-0.073
Mof_N 	N 	0.3584	0.75	0.6426	-0.1
Mof_C 	C 	0.3018	0.75	0.6989	-0.183
Mof_N 	N 	0.8584	0.25	0.1426	-0.072
Mof_C 	C 	0.8018	0.25	0.1989	-0.304
_end
