# CIF file generated by openbabel 3.1.0, see https://openbabel.org
data_I
_chemical_name_common 'image0'
_cell_length_a 14.0828
_cell_length_b 23.9967
_cell_length_c 37.1516
_cell_angle_alpha 90
_cell_angle_beta 90
_cell_angle_gamma 90
_space_group_name_H-M_alt 'P 1'
_space_group_name_Hall 'P 1'
loop_
    _symmetry_equiv_pos_as_xyz
    x,y,z
loop_
    _atom_site_label
    _atom_site_type_symbol
    _atom_site_fract_x
    _atom_site_fract_y
    _atom_site_fract_z
    _atom_site_occupancy
    C1       C        0.91060    0.40250    0.84373    1.000
    H1       H        0.91220    0.40610    0.81800    1.000
    H2       H        0.85520    0.42090    0.85300    1.000
    H3       H        0.90850    0.36370    0.85010    1.000
    C2       C        0.97100    0.93050    0.88060    1.000
    C3       C        0.95840    0.89650    0.90200    1.000
    C4       C        0.87500    0.91080    0.89210    1.000
    C5       C        0.32920    0.25680    0.20886    1.000
    H4       H        0.34360    0.21910    0.21090    1.000
    C6       C        0.33480    0.34580    0.21372    1.000
    H5       H        0.35410    0.38160    0.21990    1.000
    C7       C        0.25710    0.33310    0.19420    1.000
    H6       H        0.21380    0.35820    0.18450    1.000
    C8       C        0.18470    0.24470    0.17047    1.000
    H7       H        0.12100    0.25460    0.17810    1.000
    H8       H        0.19370    0.20530    0.17510    1.000
    C9       C        0.19450    0.25560    0.13022    1.000
    H9       H        0.14680    0.23410    0.11750    1.000
    H10      H        0.18220    0.29470    0.12560    1.000
    C10      C        0.29060    0.24100    0.11543    1.000
    H11      H        0.30070    0.20130    0.11850    1.000
    H12      H        0.33840    0.26020    0.12950    1.000
    C11      C        0.30510    0.25530    0.07597    1.000
    H13      H        0.29470    0.29490    0.07250    1.000
    H14      H        0.37020    0.24720    0.06930    1.000
    C12      C        0.16190    0.24350    0.03664    1.000
    H15      H        0.14010    0.28000    0.03850    1.000
    C13      C        0.17490    0.15680    0.02183    1.000
    H16      H        0.16300    0.12220    0.01150    1.000
    C14      C        0.24930    0.16930    0.04290    1.000
    H17      H        0.29760    0.14510    0.04970    1.000
    N1       N        0.38090    0.29737    0.22297    1.000
    N2       N        0.25410    0.27691    0.19144    1.000
    N3       N        0.24100    0.22416    0.05250    1.000
    N4       N        0.11890    0.20374    0.01803    1.000
    C15      C        0.05800    0.47920    0.95340    1.000
    C16      C        0.05600    0.43410    0.97550    1.000
    C17      C        0.58940    0.59750    0.34373    1.000
    H18      H        0.58780    0.59390    0.31800    1.000
    H19      H        0.64480    0.57910    0.35300    1.000
    H20      H        0.59150    0.63630    0.35010    1.000
    C18      C        0.52900    0.06950    0.38060    1.000
    C19      C        0.54160    0.10350    0.40200    1.000
    C20      C        0.62500    0.08920    0.39210    1.000
    C21      C        0.17080    0.74320    0.70886    1.000
    H21      H        0.15640    0.78090    0.71090    1.000
    C22      C        0.16520    0.65420    0.71372    1.000
    H22      H        0.14590    0.61840    0.71990    1.000
    C23      C        0.24290    0.66690    0.69420    1.000
    H23      H        0.28620    0.64180    0.68450    1.000
    C24      C        0.31530    0.75530    0.67047    1.000
    H24      H        0.37900    0.74540    0.67810    1.000
    H25      H        0.30630    0.79470    0.67510    1.000
    C25      C        0.30550    0.74440    0.63022    1.000
    H26      H        0.35320    0.76590    0.61750    1.000
    H27      H        0.31780    0.70530    0.62560    1.000
    C26      C        0.20940    0.75900    0.61543    1.000
    H28      H        0.19930    0.79870    0.61850    1.000
    H29      H        0.16160    0.73980    0.62950    1.000
    C27      C        0.19490    0.74470    0.57597    1.000
    H30      H        0.20530    0.70510    0.57250    1.000
    H31      H        0.12980    0.75280    0.56930    1.000
    C28      C        0.33810    0.75650    0.53664    1.000
    H32      H        0.35990    0.72000    0.53850    1.000
    C29      C        0.32510    0.84320    0.52183    1.000
    H33      H        0.33700    0.87780    0.51150    1.000
    C30      C        0.25070    0.83070    0.54290    1.000
    H34      H        0.20240    0.85490    0.54970    1.000
    N5       N        0.11910    0.70263    0.72297    1.000
    N6       N        0.24590    0.72309    0.69144    1.000
    N7       N        0.25900    0.77584    0.55250    1.000
    N8       N        0.38110    0.79626    0.51803    1.000
    C31      C        0.44200    0.52080    0.45340    1.000
    C32      C        0.44400    0.56590    0.47550    1.000
    C33      C        0.41060    0.59750    0.34373    1.000
    H35      H        0.41220    0.59390    0.31800    1.000
    H36      H        0.35520    0.57910    0.35300    1.000
    H37      H        0.40850    0.63630    0.35010    1.000
    C34      C        0.47100    0.06950    0.38060    1.000
    C35      C        0.45840    0.10350    0.40200    1.000
    C36      C        0.37500    0.08920    0.39210    1.000
    C37      C        0.82920    0.74320    0.70886    1.000
    H38      H        0.84360    0.78090    0.71090    1.000
    C38      C        0.83480    0.65420    0.71372    1.000
    H39      H        0.85410    0.61840    0.71990    1.000
    C39      C        0.75710    0.66690    0.69420    1.000
    H40      H        0.71380    0.64180    0.68450    1.000
    C40      C        0.68470    0.75530    0.67047    1.000
    H41      H        0.62100    0.74540    0.67810    1.000
    H42      H        0.69370    0.79470    0.67510    1.000
    C41      C        0.69450    0.74440    0.63022    1.000
    H43      H        0.64680    0.76590    0.61750    1.000
    H44      H        0.68220    0.70530    0.62560    1.000
    C42      C        0.79060    0.75900    0.61543    1.000
    H45      H        0.80070    0.79870    0.61850    1.000
    H46      H        0.83840    0.73980    0.62950    1.000
    C43      C        0.80510    0.74470    0.57597    1.000
    H47      H        0.79470    0.70510    0.57250    1.000
    H48      H        0.87020    0.75280    0.56930    1.000
    C44      C        0.66190    0.75650    0.53664    1.000
    H49      H        0.64010    0.72000    0.53850    1.000
    C45      C        0.67490    0.84320    0.52183    1.000
    H50      H        0.66300    0.87780    0.51150    1.000
    C46      C        0.74930    0.83070    0.54290    1.000
    H51      H        0.79760    0.85490    0.54970    1.000
    N9       N        0.88090    0.70263    0.72297    1.000
    N10      N        0.75410    0.72309    0.69144    1.000
    N11      N        0.74100    0.77584    0.55250    1.000
    N12      N        0.61890    0.79626    0.51803    1.000
    C47      C        0.55800    0.52080    0.45340    1.000
    C48      C        0.55600    0.56590    0.47550    1.000
    C49      C        0.08940    0.40250    0.84373    1.000
    H52      H        0.08780    0.40610    0.81800    1.000
    H53      H        0.14480    0.42090    0.85300    1.000
    H54      H        0.09150    0.36370    0.85010    1.000
    C50      C        0.02900    0.93050    0.88060    1.000
    C51      C        0.04160    0.89650    0.90200    1.000
    C52      C        0.12500    0.91080    0.89210    1.000
    C53      C        0.67080    0.25680    0.20886    1.000
    H55      H        0.65640    0.21910    0.21090    1.000
    C54      C        0.66520    0.34580    0.21372    1.000
    H56      H        0.64590    0.38160    0.21990    1.000
    C55      C        0.74290    0.33310    0.19420    1.000
    H57      H        0.78620    0.35820    0.18450    1.000
    C56      C        0.81530    0.24470    0.17047    1.000
    H58      H        0.87900    0.25460    0.17810    1.000
    H59      H        0.80630    0.20530    0.17510    1.000
    C57      C        0.80550    0.25560    0.13022    1.000
    H60      H        0.85320    0.23410    0.11750    1.000
    H61      H        0.81780    0.29470    0.12560    1.000
    C58      C        0.70940    0.24100    0.11543    1.000
    H62      H        0.69930    0.20130    0.11850    1.000
    H63      H        0.66160    0.26020    0.12950    1.000
    C59      C        0.69490    0.25530    0.07597    1.000
    H64      H        0.70530    0.29490    0.07250    1.000
    H65      H        0.62980    0.24720    0.06930    1.000
    C60      C        0.83810    0.24350    0.03664    1.000
    H66      H        0.85990    0.28000    0.03850    1.000
    C61      C        0.82510    0.15680    0.02183    1.000
    H67      H        0.83700    0.12220    0.01150    1.000
    C62      C        0.75070    0.16930    0.04290    1.000
    H68      H        0.70240    0.14510    0.04970    1.000
    N13      N        0.61910    0.29737    0.22297    1.000
    N14      N        0.74590    0.27691    0.19144    1.000
    N15      N        0.75900    0.22416    0.05250    1.000
    N16      N        0.88110    0.20374    0.01803    1.000
    C63      C        0.94200    0.47920    0.95340    1.000
    C64      C        0.94400    0.43410    0.97550    1.000
    C65      C        0.00000    0.52370    0.82428    1.000
    H69      H        0.00000    0.50580    0.80210    1.000
    C66      C        0.00000    0.58180    0.82567    1.000
    C67      C        0.00000    0.60770    0.85965    1.000
    H70      H        0.00000    0.64640    0.86080    1.000
    C68      C        0.00000    0.57780    0.89100    1.000
    H71      H        0.00000    0.59570    0.91320    1.000
    C69      C        0.00000    0.48360    0.95460    1.000
    C70      C        0.00000    0.43380    0.97460    1.000
    C71      C        0.00000    0.38100    0.95930    1.000
    C72      C        0.00000    0.37670    0.92169    1.000
    H72      H        0.00000    0.34180    0.91080    1.000
    C73      C        0.00000    0.42920    0.85994    1.000
    C74      C        0.00000    0.49270    0.85528    1.000
    C75      C        0.00000    0.51960    0.88880    1.000
    C76      C        0.00000    0.47660    0.91690    1.000
    C77      C        0.00000    0.42420    0.90070    1.000
    C78      C        0.00000    0.61590    0.79183    1.000
    C79      C        0.00000    0.33070    0.98340    1.000
    C80      C        0.00000    0.82870    0.76007    1.000
    C81      C        0.00000    0.88020    0.78216    1.000
    C82      C        0.00000    0.93240    0.76653    1.000
    H73      H        0.00000    0.93490    0.74160    1.000
    C83      C        0.00000    0.98080    0.78632    1.000
    H74      H        0.00000    0.01540    0.77500    1.000
    C84      C        0.00000    0.87670    0.81910    1.000
    H75      H        0.00000    0.84190    0.83020    1.000
    C85      C        0.00000    0.92470    0.84010    1.000
    C86      C        0.00000    0.97680    0.82366    1.000
    C87      C        0.00000    0.02030    0.85160    1.000
    C88      C        0.00000    0.07780    0.84970    1.000
    H76      H        0.00000    0.09580    0.82750    1.000
    C89      C        0.00000    0.10810    0.88143    1.000
    H77      H        0.00000    0.14680    0.88040    1.000
    C90      C        0.00000    0.08240    0.91444    1.000
    C91      C        0.00000    0.02430    0.91620    1.000
    H78      H        0.00000    0.00650    0.93840    1.000
    C92      C        0.00000    0.99350    0.88530    1.000
    C93      C        0.00000    0.11580    0.94860    1.000
    O1       O        0.00000    0.66836    0.79644    1.000
    O2       O        0.00000    0.59260    0.76254    1.000
    O3       O        0.00000    0.28444    0.96594    1.000
    O4       O        0.00000    0.33520    0.01629    1.000
    O5       O        0.00000    0.78301    0.77753    1.000
    O6       O        0.00000    0.83190    0.72733    1.000
    O7       O        0.00000    0.16888    0.94500    1.000
    O8       O        0.00000    0.09260    0.97851    1.000
    Zn1      Zn       0.00000    0.71230    0.75186    1.000
    Zn2      Zn       0.00000    0.21190    0.98968    1.000
    C94      C        0.50000    0.47630    0.32428    1.000
    H79      H        0.50000    0.49420    0.30210    1.000
    C95      C        0.50000    0.41820    0.32567    1.000
    C96      C        0.50000    0.39230    0.35965    1.000
    H80      H        0.50000    0.35360    0.36080    1.000
    C97      C        0.50000    0.42220    0.39100    1.000
    H81      H        0.50000    0.40430    0.41320    1.000
    C98      C        0.50000    0.51640    0.45460    1.000
    C99      C        0.50000    0.56620    0.47460    1.000
    C100     C        0.50000    0.61900    0.45930    1.000
    C101     C        0.50000    0.62330    0.42169    1.000
    H82      H        0.50000    0.65820    0.41080    1.000
    C102     C        0.50000    0.57080    0.35994    1.000
    C103     C        0.50000    0.50730    0.35528    1.000
    C104     C        0.50000    0.48040    0.38880    1.000
    C105     C        0.50000    0.52340    0.41690    1.000
    C106     C        0.50000    0.57580    0.40070    1.000
    C107     C        0.50000    0.38410    0.29183    1.000
    C108     C        0.50000    0.66930    0.48340    1.000
    C109     C        0.50000    0.17130    0.26007    1.000
    C110     C        0.50000    0.11980    0.28216    1.000
    C111     C        0.50000    0.06760    0.26653    1.000
    H83      H        0.50000    0.06510    0.24160    1.000
    C112     C        0.50000    0.01920    0.28632    1.000
    H84      H        0.50000    0.98460    0.27500    1.000
    C113     C        0.50000    0.12330    0.31910    1.000
    H85      H        0.50000    0.15810    0.33020    1.000
    C114     C        0.50000    0.07530    0.34010    1.000
    C115     C        0.50000    0.02320    0.32366    1.000
    C116     C        0.50000    0.97970    0.35160    1.000
    C117     C        0.50000    0.92220    0.34970    1.000
    H86      H        0.50000    0.90420    0.32750    1.000
    C118     C        0.50000    0.89190    0.38143    1.000
    H87      H        0.50000    0.85320    0.38040    1.000
    C119     C        0.50000    0.91760    0.41444    1.000
    C120     C        0.50000    0.97570    0.41620    1.000
    H88      H        0.50000    0.99350    0.43840    1.000
    C121     C        0.50000    0.00650    0.38530    1.000
    C122     C        0.50000    0.88420    0.44860    1.000
    O9       O        0.50000    0.33164    0.29644    1.000
    O10      O        0.50000    0.40740    0.26254    1.000
    O11      O        0.50000    0.71556    0.46594    1.000
    O12      O        0.50000    0.66480    0.51629    1.000
    O13      O        0.50000    0.21699    0.27753    1.000
    O14      O        0.50000    0.16810    0.22733    1.000
    O15      O        0.50000    0.83112    0.44500    1.000
    O16      O        0.50000    0.90740    0.47851    1.000
    Zn3      Zn       0.50000    0.28770    0.25186    1.000
    Zn4      Zn       0.50000    0.78810    0.48968    1.000
    C123     C        0.41060    0.90250    0.84373    1.000
    H89      H        0.41220    0.90610    0.81800    1.000
    H90      H        0.35520    0.92090    0.85300    1.000
    H91      H        0.40850    0.86370    0.85010    1.000
    C124     C        0.47100    0.43050    0.88060    1.000
    C125     C        0.45840    0.39650    0.90200    1.000
    C126     C        0.37500    0.41080    0.89210    1.000
    C127     C        0.82920    0.75680    0.20886    1.000
    H92      H        0.84360    0.71910    0.21090    1.000
    C128     C        0.83480    0.84580    0.21372    1.000
    H93      H        0.85410    0.88160    0.21990    1.000
    C129     C        0.75710    0.83310    0.19420    1.000
    H94      H        0.71380    0.85820    0.18450    1.000
    C130     C        0.68470    0.74470    0.17047    1.000
    H95      H        0.62100    0.75460    0.17810    1.000
    H96      H        0.69370    0.70530    0.17510    1.000
    C131     C        0.69450    0.75560    0.13022    1.000
    H97      H        0.64680    0.73410    0.11750    1.000
    H98      H        0.68220    0.79470    0.12560    1.000
    C132     C        0.79060    0.74100    0.11543    1.000
    H99      H        0.80070    0.70130    0.11850    1.000
    H100     H        0.83840    0.76020    0.12950    1.000
    C133     C        0.80510    0.75530    0.07597    1.000
    H101     H        0.79470    0.79490    0.07250    1.000
    H102     H        0.87020    0.74720    0.06930    1.000
    C134     C        0.66190    0.74350    0.03664    1.000
    H103     H        0.64010    0.78000    0.03850    1.000
    C135     C        0.67490    0.65680    0.02183    1.000
    H104     H        0.66300    0.62220    0.01150    1.000
    C136     C        0.74930    0.66930    0.04290    1.000
    H105     H        0.79760    0.64510    0.04970    1.000
    N17      N        0.88090    0.79737    0.22297    1.000
    N18      N        0.75410    0.77691    0.19144    1.000
    N19      N        0.74100    0.72416    0.05250    1.000
    N20      N        0.61890    0.70374    0.01803    1.000
    C137     C        0.55800    0.97920    0.95340    1.000
    C138     C        0.55600    0.93410    0.97550    1.000
    C139     C        0.08940    0.09750    0.34373    1.000
    H106     H        0.08780    0.09390    0.31800    1.000
    H107     H        0.14480    0.07910    0.35300    1.000
    H108     H        0.09150    0.13630    0.35010    1.000
    C140     C        0.02900    0.56950    0.38060    1.000
    C141     C        0.04160    0.60350    0.40200    1.000
    C142     C        0.12500    0.58920    0.39210    1.000
    C143     C        0.67080    0.24320    0.70886    1.000
    H109     H        0.65640    0.28090    0.71090    1.000
    C144     C        0.66520    0.15420    0.71372    1.000
    H110     H        0.64590    0.11840    0.71990    1.000
    C145     C        0.74290    0.16690    0.69420    1.000
    H111     H        0.78620    0.14180    0.68450    1.000
    C146     C        0.81530    0.25530    0.67047    1.000
    H112     H        0.87900    0.24540    0.67810    1.000
    H113     H        0.80630    0.29470    0.67510    1.000
    C147     C        0.80550    0.24440    0.63022    1.000
    H114     H        0.85320    0.26590    0.61750    1.000
    H115     H        0.81780    0.20530    0.62560    1.000
    C148     C        0.70940    0.25900    0.61543    1.000
    H116     H        0.69930    0.29870    0.61850    1.000
    H117     H        0.66160    0.23980    0.62950    1.000
    C149     C        0.69490    0.24470    0.57597    1.000
    H118     H        0.70530    0.20510    0.57250    1.000
    H119     H        0.62980    0.25280    0.56930    1.000
    C150     C        0.83810    0.25650    0.53664    1.000
    H120     H        0.85990    0.22000    0.53850    1.000
    C151     C        0.82510    0.34320    0.52183    1.000
    H121     H        0.83700    0.37780    0.51150    1.000
    C152     C        0.75070    0.33070    0.54290    1.000
    H122     H        0.70240    0.35490    0.54970    1.000
    N21      N        0.61910    0.20263    0.72297    1.000
    N22      N        0.74590    0.22309    0.69144    1.000
    N23      N        0.75900    0.27584    0.55250    1.000
    N24      N        0.88110    0.29626    0.51803    1.000
    C153     C        0.94200    0.02080    0.45340    1.000
    C154     C        0.94400    0.06590    0.47550    1.000
    C155     C        0.91060    0.09750    0.34373    1.000
    H123     H        0.91220    0.09390    0.31800    1.000
    H124     H        0.85520    0.07910    0.35300    1.000
    H125     H        0.90850    0.13630    0.35010    1.000
    C156     C        0.97100    0.56950    0.38060    1.000
    C157     C        0.95840    0.60350    0.40200    1.000
    C158     C        0.87500    0.58920    0.39210    1.000
    C159     C        0.32920    0.24320    0.70886    1.000
    H126     H        0.34360    0.28090    0.71090    1.000
    C160     C        0.33480    0.15420    0.71372    1.000
    H127     H        0.35410    0.11840    0.71990    1.000
    C161     C        0.25710    0.16690    0.69420    1.000
    H128     H        0.21380    0.14180    0.68450    1.000
    C162     C        0.18470    0.25530    0.67047    1.000
    H129     H        0.12100    0.24540    0.67810    1.000
    H130     H        0.19370    0.29470    0.67510    1.000
    C163     C        0.19450    0.24440    0.63022    1.000
    H131     H        0.14680    0.26590    0.61750    1.000
    H132     H        0.18220    0.20530    0.62560    1.000
    C164     C        0.29060    0.25900    0.61543    1.000
    H133     H        0.30070    0.29870    0.61850    1.000
    H134     H        0.33840    0.23980    0.62950    1.000
    C165     C        0.30510    0.24470    0.57597    1.000
    H135     H        0.29470    0.20510    0.57250    1.000
    H136     H        0.37020    0.25280    0.56930    1.000
    C166     C        0.16190    0.25650    0.53664    1.000
    H137     H        0.14010    0.22000    0.53850    1.000
    C167     C        0.17490    0.34320    0.52183    1.000
    H138     H        0.16300    0.37780    0.51150    1.000
    C168     C        0.24930    0.33070    0.54290    1.000
    H139     H        0.29760    0.35490    0.54970    1.000
    N25      N        0.38090    0.20263    0.72297    1.000
    N26      N        0.25410    0.22309    0.69144    1.000
    N27      N        0.24100    0.27584    0.55250    1.000
    N28      N        0.11890    0.29626    0.51803    1.000
    C169     C        0.05800    0.02080    0.45340    1.000
    C170     C        0.05600    0.06590    0.47550    1.000
    C171     C        0.58940    0.90250    0.84373    1.000
    H140     H        0.58780    0.90610    0.81800    1.000
    H141     H        0.64480    0.92090    0.85300    1.000
    H142     H        0.59150    0.86370    0.85010    1.000
    C172     C        0.52900    0.43050    0.88060    1.000
    C173     C        0.54160    0.39650    0.90200    1.000
    C174     C        0.62500    0.41080    0.89210    1.000
    C175     C        0.17080    0.75680    0.20886    1.000
    H143     H        0.15640    0.71910    0.21090    1.000
    C176     C        0.16520    0.84580    0.21372    1.000
    H144     H        0.14590    0.88160    0.21990    1.000
    C177     C        0.24290    0.83310    0.19420    1.000
    H145     H        0.28620    0.85820    0.18450    1.000
    C178     C        0.31530    0.74470    0.17047    1.000
    H146     H        0.37900    0.75460    0.17810    1.000
    H147     H        0.30630    0.70530    0.17510    1.000
    C179     C        0.30550    0.75560    0.13022    1.000
    H148     H        0.35320    0.73410    0.11750    1.000
    H149     H        0.31780    0.79470    0.12560    1.000
    C180     C        0.20940    0.74100    0.11543    1.000
    H150     H        0.19930    0.70130    0.11850    1.000
    H151     H        0.16160    0.76020    0.12950    1.000
    C181     C        0.19490    0.75530    0.07597    1.000
    H152     H        0.20530    0.79490    0.07250    1.000
    H153     H        0.12980    0.74720    0.06930    1.000
    C182     C        0.33810    0.74350    0.03664    1.000
    H154     H        0.35990    0.78000    0.03850    1.000
    C183     C        0.32510    0.65680    0.02183    1.000
    H155     H        0.33700    0.62220    0.01150    1.000
    C184     C        0.25070    0.66930    0.04290    1.000
    H156     H        0.20240    0.64510    0.04970    1.000
    N29      N        0.11910    0.79737    0.22297    1.000
    N30      N        0.24590    0.77691    0.19144    1.000
    N31      N        0.25900    0.72416    0.05250    1.000
    N32      N        0.38110    0.70374    0.01803    1.000
    C185     C        0.44200    0.97920    0.95340    1.000
    C186     C        0.44400    0.93410    0.97550    1.000
    C187     C        0.50000    0.02370    0.82428    1.000
    H157     H        0.50000    0.00580    0.80210    1.000
    C188     C        0.50000    0.08180    0.82567    1.000
    C189     C        0.50000    0.10770    0.85965    1.000
    H158     H        0.50000    0.14640    0.86080    1.000
    C190     C        0.50000    0.07780    0.89100    1.000
    H159     H        0.50000    0.09570    0.91320    1.000
    C191     C        0.50000    0.98360    0.95460    1.000
    C192     C        0.50000    0.93380    0.97460    1.000
    C193     C        0.50000    0.88100    0.95930    1.000
    C194     C        0.50000    0.87670    0.92169    1.000
    H160     H        0.50000    0.84180    0.91080    1.000
    C195     C        0.50000    0.92920    0.85994    1.000
    C196     C        0.50000    0.99270    0.85528    1.000
    C197     C        0.50000    0.01960    0.88880    1.000
    C198     C        0.50000    0.97660    0.91690    1.000
    C199     C        0.50000    0.92420    0.90070    1.000
    C200     C        0.50000    0.11590    0.79183    1.000
    C201     C        0.50000    0.83070    0.98340    1.000
    C202     C        0.50000    0.32870    0.76007    1.000
    C203     C        0.50000    0.38020    0.78216    1.000
    C204     C        0.50000    0.43240    0.76653    1.000
    H161     H        0.50000    0.43490    0.74160    1.000
    C205     C        0.50000    0.48080    0.78632    1.000
    H162     H        0.50000    0.51540    0.77500    1.000
    C206     C        0.50000    0.37670    0.81910    1.000
    H163     H        0.50000    0.34190    0.83020    1.000
    C207     C        0.50000    0.42470    0.84010    1.000
    C208     C        0.50000    0.47680    0.82366    1.000
    C209     C        0.50000    0.52030    0.85160    1.000
    C210     C        0.50000    0.57780    0.84970    1.000
    H164     H        0.50000    0.59580    0.82750    1.000
    C211     C        0.50000    0.60810    0.88143    1.000
    H165     H        0.50000    0.64680    0.88040    1.000
    C212     C        0.50000    0.58240    0.91444    1.000
    C213     C        0.50000    0.52430    0.91620    1.000
    H166     H        0.50000    0.50650    0.93840    1.000
    C214     C        0.50000    0.49350    0.88530    1.000
    C215     C        0.50000    0.61580    0.94860    1.000
    O17      O        0.50000    0.16836    0.79644    1.000
    O18      O        0.50000    0.09260    0.76254    1.000
    O19      O        0.50000    0.78444    0.96594    1.000
    O20      O        0.50000    0.83520    0.01629    1.000
    O21      O        0.50000    0.28301    0.77753    1.000
    O22      O        0.50000    0.33190    0.72733    1.000
    O23      O        0.50000    0.66888    0.94500    1.000
    O24      O        0.50000    0.59260    0.97851    1.000
    Zn5      Zn       0.50000    0.21230    0.75186    1.000
    Zn6      Zn       0.50000    0.71190    0.98968    1.000
    C216     C        0.00000    0.97630    0.32428    1.000
    H167     H        0.00000    0.99420    0.30210    1.000
    C217     C        0.00000    0.91820    0.32567    1.000
    C218     C        0.00000    0.89230    0.35965    1.000
    H168     H        0.00000    0.85360    0.36080    1.000
    C219     C        0.00000    0.92220    0.39100    1.000
    H169     H        0.00000    0.90430    0.41320    1.000
    C220     C        0.00000    0.01640    0.45460    1.000
    C221     C        0.00000    0.06620    0.47460    1.000
    C222     C        0.00000    0.11900    0.45930    1.000
    C223     C        0.00000    0.12330    0.42169    1.000
    H170     H        0.00000    0.15820    0.41080    1.000
    C224     C        0.00000    0.07080    0.35994    1.000
    C225     C        0.00000    0.00730    0.35528    1.000
    C226     C        0.00000    0.98040    0.38880    1.000
    C227     C        0.00000    0.02340    0.41690    1.000
    C228     C        0.00000    0.07580    0.40070    1.000
    C229     C        0.00000    0.88410    0.29183    1.000
    C230     C        0.00000    0.16930    0.48340    1.000
    C231     C        0.00000    0.67130    0.26007    1.000
    C232     C        0.00000    0.61980    0.28216    1.000
    C233     C        0.00000    0.56760    0.26653    1.000
    H171     H        0.00000    0.56510    0.24160    1.000
    C234     C        0.00000    0.51920    0.28632    1.000
    H172     H        0.00000    0.48460    0.27500    1.000
    C235     C        0.00000    0.62330    0.31910    1.000
    H173     H        0.00000    0.65810    0.33020    1.000
    C236     C        0.00000    0.57530    0.34010    1.000
    C237     C        0.00000    0.52320    0.32366    1.000
    C238     C        0.00000    0.47970    0.35160    1.000
    C239     C        0.00000    0.42220    0.34970    1.000
    H174     H        0.00000    0.40420    0.32750    1.000
    C240     C        0.00000    0.39190    0.38143    1.000
    H175     H        0.00000    0.35320    0.38040    1.000
    C241     C        0.00000    0.41760    0.41444    1.000
    C242     C        0.00000    0.47570    0.41620    1.000
    H176     H        0.00000    0.49350    0.43840    1.000
    C243     C        0.00000    0.50650    0.38530    1.000
    C244     C        0.00000    0.38420    0.44860    1.000
    O25      O        0.00000    0.83164    0.29644    1.000
    O26      O        0.00000    0.90740    0.26254    1.000
    O27      O        0.00000    0.21556    0.46594    1.000
    O28      O        0.00000    0.16480    0.51629    1.000
    O29      O        0.00000    0.71699    0.27753    1.000
    O30      O        0.00000    0.66810    0.22733    1.000
    O31      O        0.00000    0.33112    0.44500    1.000
    O32      O        0.00000    0.40740    0.47851    1.000
    Zn7      Zn       0.00000    0.78770    0.25186    1.000
    Zn8      Zn       0.00000    0.28810    0.48968    1.000
    C245     C        0.08940    0.90250    0.65627    1.000
    H177     H        0.08780    0.90610    0.68200    1.000
    H178     H        0.14480    0.92090    0.64700    1.000
    H179     H        0.09150    0.86370    0.64990    1.000
    C246     C        0.02900    0.43050    0.61940    1.000
    C247     C        0.04160    0.39650    0.59800    1.000
    C248     C        0.12500    0.41080    0.60790    1.000
    C249     C        0.67080    0.75680    0.29114    1.000
    H180     H        0.65640    0.71910    0.28910    1.000
    C250     C        0.66520    0.84580    0.28628    1.000
    H181     H        0.64590    0.88160    0.28010    1.000
    C251     C        0.74290    0.83310    0.30580    1.000
    H182     H        0.78620    0.85820    0.31550    1.000
    C252     C        0.81530    0.74470    0.32953    1.000
    H183     H        0.87900    0.75460    0.32190    1.000
    H184     H        0.80630    0.70530    0.32490    1.000
    C253     C        0.80550    0.75560    0.36978    1.000
    H185     H        0.85320    0.73410    0.38250    1.000
    H186     H        0.81780    0.79470    0.37440    1.000
    C254     C        0.70940    0.74100    0.38457    1.000
    H187     H        0.69930    0.70130    0.38150    1.000
    H188     H        0.66160    0.76020    0.37050    1.000
    C255     C        0.69490    0.75530    0.42403    1.000
    H189     H        0.70530    0.79490    0.42750    1.000
    H190     H        0.62980    0.74720    0.43070    1.000
    C256     C        0.83810    0.74350    0.46336    1.000
    H191     H        0.85990    0.78000    0.46150    1.000
    C257     C        0.82510    0.65680    0.47817    1.000
    H192     H        0.83700    0.62220    0.48850    1.000
    C258     C        0.75070    0.66930    0.45710    1.000
    H193     H        0.70240    0.64510    0.45030    1.000
    N33      N        0.61910    0.79737    0.27703    1.000
    N34      N        0.74590    0.77691    0.30856    1.000
    N35      N        0.75900    0.72416    0.44750    1.000
    N36      N        0.88110    0.70374    0.48197    1.000
    C259     C        0.94200    0.97920    0.54660    1.000
    C260     C        0.94400    0.93410    0.52450    1.000
    C261     C        0.41060    0.09750    0.15627    1.000
    H194     H        0.41220    0.09390    0.18200    1.000
    H195     H        0.35520    0.07910    0.14700    1.000
    H196     H        0.40850    0.13630    0.14990    1.000
    C262     C        0.47100    0.56950    0.11940    1.000
    C263     C        0.45840    0.60350    0.09800    1.000
    C264     C        0.37500    0.58920    0.10790    1.000
    C265     C        0.82920    0.24320    0.79114    1.000
    H197     H        0.84360    0.28090    0.78910    1.000
    C266     C        0.83480    0.15420    0.78628    1.000
    H198     H        0.85410    0.11840    0.78010    1.000
    C267     C        0.75710    0.16690    0.80580    1.000
    H199     H        0.71380    0.14180    0.81550    1.000
    C268     C        0.68470    0.25530    0.82953    1.000
    H200     H        0.62100    0.24540    0.82190    1.000
    H201     H        0.69370    0.29470    0.82490    1.000
    C269     C        0.69450    0.24440    0.86978    1.000
    H202     H        0.64680    0.26590    0.88250    1.000
    H203     H        0.68220    0.20530    0.87440    1.000
    C270     C        0.79060    0.25900    0.88457    1.000
    H204     H        0.80070    0.29870    0.88150    1.000
    H205     H        0.83840    0.23980    0.87050    1.000
    C271     C        0.80510    0.24470    0.92403    1.000
    H206     H        0.79470    0.20510    0.92750    1.000
    H207     H        0.87020    0.25280    0.93070    1.000
    C272     C        0.66190    0.25650    0.96336    1.000
    H208     H        0.64010    0.22000    0.96150    1.000
    C273     C        0.67490    0.34320    0.97817    1.000
    H209     H        0.66300    0.37780    0.98850    1.000
    C274     C        0.74930    0.33070    0.95710    1.000
    H210     H        0.79760    0.35490    0.95030    1.000
    N37      N        0.88090    0.20263    0.77703    1.000
    N38      N        0.75410    0.22309    0.80856    1.000
    N39      N        0.74100    0.27584    0.94750    1.000
    N40      N        0.61890    0.29626    0.98197    1.000
    C275     C        0.55800    0.02080    0.04660    1.000
    C276     C        0.55600    0.06590    0.02450    1.000
    C277     C        0.58940    0.09750    0.15627    1.000
    H211     H        0.58780    0.09390    0.18200    1.000
    H212     H        0.64480    0.07910    0.14700    1.000
    H213     H        0.59150    0.13630    0.14990    1.000
    C278     C        0.52900    0.56950    0.11940    1.000
    C279     C        0.54160    0.60350    0.09800    1.000
    C280     C        0.62500    0.58920    0.10790    1.000
    C281     C        0.17080    0.24320    0.79114    1.000
    H214     H        0.15640    0.28090    0.78910    1.000
    C282     C        0.16520    0.15420    0.78628    1.000
    H215     H        0.14590    0.11840    0.78010    1.000
    C283     C        0.24290    0.16690    0.80580    1.000
    H216     H        0.28620    0.14180    0.81550    1.000
    C284     C        0.31530    0.25530    0.82953    1.000
    H217     H        0.37900    0.24540    0.82190    1.000
    H218     H        0.30630    0.29470    0.82490    1.000
    C285     C        0.30550    0.24440    0.86978    1.000
    H219     H        0.35320    0.26590    0.88250    1.000
    H220     H        0.31780    0.20530    0.87440    1.000
    C286     C        0.20940    0.25900    0.88457    1.000
    H221     H        0.19930    0.29870    0.88150    1.000
    H222     H        0.16160    0.23980    0.87050    1.000
    C287     C        0.19490    0.24470    0.92403    1.000
    H223     H        0.20530    0.20510    0.92750    1.000
    H224     H        0.12980    0.25280    0.93070    1.000
    C288     C        0.33810    0.25650    0.96336    1.000
    H225     H        0.35990    0.22000    0.96150    1.000
    C289     C        0.32510    0.34320    0.97817    1.000
    H226     H        0.33700    0.37780    0.98850    1.000
    C290     C        0.25070    0.33070    0.95710    1.000
    H227     H        0.20240    0.35490    0.95030    1.000
    N41      N        0.11910    0.20263    0.77703    1.000
    N42      N        0.24590    0.22309    0.80856    1.000
    N43      N        0.25900    0.27584    0.94750    1.000
    N44      N        0.38110    0.29626    0.98197    1.000
    C291     C        0.44200    0.02080    0.04660    1.000
    C292     C        0.44400    0.06590    0.02450    1.000
    C293     C        0.91060    0.90250    0.65627    1.000
    H228     H        0.91220    0.90610    0.68200    1.000
    H229     H        0.85520    0.92090    0.64700    1.000
    H230     H        0.90850    0.86370    0.64990    1.000
    C294     C        0.97100    0.43050    0.61940    1.000
    C295     C        0.95840    0.39650    0.59800    1.000
    C296     C        0.87500    0.41080    0.60790    1.000
    C297     C        0.32920    0.75680    0.29114    1.000
    H231     H        0.34360    0.71910    0.28910    1.000
    C298     C        0.33480    0.84580    0.28628    1.000
    H232     H        0.35410    0.88160    0.28010    1.000
    C299     C        0.25710    0.83310    0.30580    1.000
    H233     H        0.21380    0.85820    0.31550    1.000
    C300     C        0.18470    0.74470    0.32953    1.000
    H234     H        0.12100    0.75460    0.32190    1.000
    H235     H        0.19370    0.70530    0.32490    1.000
    C301     C        0.19450    0.75560    0.36978    1.000
    H236     H        0.14680    0.73410    0.38250    1.000
    H237     H        0.18220    0.79470    0.37440    1.000
    C302     C        0.29060    0.74100    0.38457    1.000
    H238     H        0.30070    0.70130    0.38150    1.000
    H239     H        0.33840    0.76020    0.37050    1.000
    C303     C        0.30510    0.75530    0.42403    1.000
    H240     H        0.29470    0.79490    0.42750    1.000
    H241     H        0.37020    0.74720    0.43070    1.000
    C304     C        0.16190    0.74350    0.46336    1.000
    H242     H        0.14010    0.78000    0.46150    1.000
    C305     C        0.17490    0.65680    0.47817    1.000
    H243     H        0.16300    0.62220    0.48850    1.000
    C306     C        0.24930    0.66930    0.45710    1.000
    H244     H        0.29760    0.64510    0.45030    1.000
    N45      N        0.38090    0.79737    0.27703    1.000
    N46      N        0.25410    0.77691    0.30856    1.000
    N47      N        0.24100    0.72416    0.44750    1.000
    N48      N        0.11890    0.70374    0.48197    1.000
    C307     C        0.05800    0.97920    0.54660    1.000
    C308     C        0.05600    0.93410    0.52450    1.000
    C309     C        0.00000    0.02370    0.67572    1.000
    H245     H        0.00000    0.00580    0.69790    1.000
    C310     C        0.00000    0.08180    0.67433    1.000
    C311     C        0.00000    0.10770    0.64035    1.000
    H246     H        0.00000    0.14640    0.63920    1.000
    C312     C        0.00000    0.07780    0.60900    1.000
    H247     H        0.00000    0.09570    0.58680    1.000
    C313     C        0.00000    0.98360    0.54540    1.000
    C314     C        0.00000    0.93380    0.52540    1.000
    C315     C        0.00000    0.88100    0.54070    1.000
    C316     C        0.00000    0.87670    0.57831    1.000
    H248     H        0.00000    0.84180    0.58920    1.000
    C317     C        0.00000    0.92920    0.64006    1.000
    C318     C        0.00000    0.99270    0.64472    1.000
    C319     C        0.00000    0.01960    0.61120    1.000
    C320     C        0.00000    0.97660    0.58310    1.000
    C321     C        0.00000    0.92420    0.59930    1.000
    C322     C        0.00000    0.11590    0.70817    1.000
    C323     C        0.00000    0.83070    0.51660    1.000
    C324     C        0.00000    0.32870    0.73993    1.000
    C325     C        0.00000    0.38020    0.71784    1.000
    C326     C        0.00000    0.43240    0.73347    1.000
    H249     H        0.00000    0.43490    0.75840    1.000
    C327     C        0.00000    0.48080    0.71368    1.000
    H250     H        0.00000    0.51540    0.72500    1.000
    C328     C        0.00000    0.37670    0.68090    1.000
    H251     H        0.00000    0.34190    0.66980    1.000
    C329     C        0.00000    0.42470    0.65990    1.000
    C330     C        0.00000    0.47680    0.67634    1.000
    C331     C        0.00000    0.52030    0.64840    1.000
    C332     C        0.00000    0.57780    0.65030    1.000
    H252     H        0.00000    0.59580    0.67250    1.000
    C333     C        0.00000    0.60810    0.61857    1.000
    H253     H        0.00000    0.64680    0.61960    1.000
    C334     C        0.00000    0.58240    0.58556    1.000
    C335     C        0.00000    0.52430    0.58380    1.000
    H254     H        0.00000    0.50650    0.56160    1.000
    C336     C        0.00000    0.49350    0.61470    1.000
    C337     C        0.00000    0.61580    0.55140    1.000
    O33      O        0.00000    0.16836    0.70356    1.000
    O34      O        0.00000    0.09260    0.73746    1.000
    O35      O        0.00000    0.78444    0.53406    1.000
    O36      O        0.00000    0.83520    0.48371    1.000
    O37      O        0.00000    0.28301    0.72247    1.000
    O38      O        0.00000    0.33190    0.77267    1.000
    O39      O        0.00000    0.66888    0.55500    1.000
    O40      O        0.00000    0.59260    0.52149    1.000
    Zn9      Zn       0.00000    0.21230    0.74814    1.000
    Zn10     Zn       0.00000    0.71190    0.51032    1.000
    C338     C        0.50000    0.97630    0.17572    1.000
    H255     H        0.50000    0.99420    0.19790    1.000
    C339     C        0.50000    0.91820    0.17433    1.000
    C340     C        0.50000    0.89230    0.14035    1.000
    H256     H        0.50000    0.85360    0.13920    1.000
    C341     C        0.50000    0.92220    0.10900    1.000
    H257     H        0.50000    0.90430    0.08680    1.000
    C342     C        0.50000    0.01640    0.04540    1.000
    C343     C        0.50000    0.06620    0.02540    1.000
    C344     C        0.50000    0.11900    0.04070    1.000
    C345     C        0.50000    0.12330    0.07831    1.000
    H258     H        0.50000    0.15820    0.08920    1.000
    C346     C        0.50000    0.07080    0.14006    1.000
    C347     C        0.50000    0.00730    0.14472    1.000
    C348     C        0.50000    0.98040    0.11120    1.000
    C349     C        0.50000    0.02340    0.08310    1.000
    C350     C        0.50000    0.07580    0.09930    1.000
    C351     C        0.50000    0.88410    0.20817    1.000
    C352     C        0.50000    0.16930    0.01660    1.000
    C353     C        0.50000    0.67130    0.23993    1.000
    C354     C        0.50000    0.61980    0.21784    1.000
    C355     C        0.50000    0.56760    0.23347    1.000
    H259     H        0.50000    0.56510    0.25840    1.000
    C356     C        0.50000    0.51920    0.21368    1.000
    H260     H        0.50000    0.48460    0.22500    1.000
    C357     C        0.50000    0.62330    0.18090    1.000
    H261     H        0.50000    0.65810    0.16980    1.000
    C358     C        0.50000    0.57530    0.15990    1.000
    C359     C        0.50000    0.52320    0.17634    1.000
    C360     C        0.50000    0.47970    0.14840    1.000
    C361     C        0.50000    0.42220    0.15030    1.000
    H262     H        0.50000    0.40420    0.17250    1.000
    C362     C        0.50000    0.39190    0.11857    1.000
    H263     H        0.50000    0.35320    0.11960    1.000
    C363     C        0.50000    0.41760    0.08556    1.000
    C364     C        0.50000    0.47570    0.08380    1.000
    H264     H        0.50000    0.49350    0.06160    1.000
    C365     C        0.50000    0.50650    0.11470    1.000
    C366     C        0.50000    0.38420    0.05140    1.000
    O41      O        0.50000    0.83164    0.20356    1.000
    O42      O        0.50000    0.90740    0.23746    1.000
    O43      O        0.50000    0.21556    0.03406    1.000
    O44      O        0.50000    0.16480    0.98371    1.000
    O45      O        0.50000    0.71699    0.22247    1.000
    O46      O        0.50000    0.66810    0.27267    1.000
    O47      O        0.50000    0.33112    0.05500    1.000
    O48      O        0.50000    0.40740    0.02149    1.000
    Zn11     Zn       0.50000    0.78770    0.24814    1.000
    Zn12     Zn       0.50000    0.28810    0.01032    1.000
    C367     C        0.58940    0.40250    0.65627    1.000
    H265     H        0.58780    0.40610    0.68200    1.000
    H266     H        0.64480    0.42090    0.64700    1.000
    H267     H        0.59150    0.36370    0.64990    1.000
    C368     C        0.52900    0.93050    0.61940    1.000
    C369     C        0.54160    0.89650    0.59800    1.000
    C370     C        0.62500    0.91080    0.60790    1.000
    C371     C        0.17080    0.25680    0.29114    1.000
    H268     H        0.15640    0.21910    0.28910    1.000
    C372     C        0.16520    0.34580    0.28628    1.000
    H269     H        0.14590    0.38160    0.28010    1.000
    C373     C        0.24290    0.33310    0.30580    1.000
    H270     H        0.28620    0.35820    0.31550    1.000
    C374     C        0.31530    0.24470    0.32953    1.000
    H271     H        0.37900    0.25460    0.32190    1.000
    H272     H        0.30630    0.20530    0.32490    1.000
    C375     C        0.30550    0.25560    0.36978    1.000
    H273     H        0.35320    0.23410    0.38250    1.000
    H274     H        0.31780    0.29470    0.37440    1.000
    C376     C        0.20940    0.24100    0.38457    1.000
    H275     H        0.19930    0.20130    0.38150    1.000
    H276     H        0.16160    0.26020    0.37050    1.000
    C377     C        0.19490    0.25530    0.42403    1.000
    H277     H        0.20530    0.29490    0.42750    1.000
    H278     H        0.12980    0.24720    0.43070    1.000
    C378     C        0.33810    0.24350    0.46336    1.000
    H279     H        0.35990    0.28000    0.46150    1.000
    C379     C        0.32510    0.15680    0.47817    1.000
    H280     H        0.33700    0.12220    0.48850    1.000
    C380     C        0.25070    0.16930    0.45710    1.000
    H281     H        0.20240    0.14510    0.45030    1.000
    N49      N        0.11910    0.29737    0.27703    1.000
    N50      N        0.24590    0.27691    0.30856    1.000
    N51      N        0.25900    0.22416    0.44750    1.000
    N52      N        0.38110    0.20374    0.48197    1.000
    C381     C        0.44200    0.47920    0.54660    1.000
    C382     C        0.44400    0.43410    0.52450    1.000
    C383     C        0.91060    0.59750    0.15627    1.000
    H282     H        0.91220    0.59390    0.18200    1.000
    H283     H        0.85520    0.57910    0.14700    1.000
    H284     H        0.90850    0.63630    0.14990    1.000
    C384     C        0.97100    0.06950    0.11940    1.000
    C385     C        0.95840    0.10350    0.09800    1.000
    C386     C        0.87500    0.08920    0.10790    1.000
    C387     C        0.32920    0.74320    0.79114    1.000
    H285     H        0.34360    0.78090    0.78910    1.000
    C388     C        0.33480    0.65420    0.78628    1.000
    H286     H        0.35410    0.61840    0.78010    1.000
    C389     C        0.25710    0.66690    0.80580    1.000
    H287     H        0.21380    0.64180    0.81550    1.000
    C390     C        0.18470    0.75530    0.82953    1.000
    H288     H        0.12100    0.74540    0.82190    1.000
    H289     H        0.19370    0.79470    0.82490    1.000
    C391     C        0.19450    0.74440    0.86978    1.000
    H290     H        0.14680    0.76590    0.88250    1.000
    H291     H        0.18220    0.70530    0.87440    1.000
    C392     C        0.29060    0.75900    0.88457    1.000
    H292     H        0.30070    0.79870    0.88150    1.000
    H293     H        0.33840    0.73980    0.87050    1.000
    C393     C        0.30510    0.74470    0.92403    1.000
    H294     H        0.29470    0.70510    0.92750    1.000
    H295     H        0.37020    0.75280    0.93070    1.000
    C394     C        0.16190    0.75650    0.96336    1.000
    H296     H        0.14010    0.72000    0.96150    1.000
    C395     C        0.17490    0.84320    0.97817    1.000
    H297     H        0.16300    0.87780    0.98850    1.000
    C396     C        0.24930    0.83070    0.95710    1.000
    H298     H        0.29760    0.85490    0.95030    1.000
    N53      N        0.38090    0.70263    0.77703    1.000
    N54      N        0.25410    0.72309    0.80856    1.000
    N55      N        0.24100    0.77584    0.94750    1.000
    N56      N        0.11890    0.79626    0.98197    1.000
    C397     C        0.05800    0.52080    0.04660    1.000
    C398     C        0.05600    0.56590    0.02450    1.000
    C399     C        0.08940    0.59750    0.15627    1.000
    H299     H        0.08780    0.59390    0.18200    1.000
    H300     H        0.14480    0.57910    0.14700    1.000
    H301     H        0.09150    0.63630    0.14990    1.000
    C400     C        0.02900    0.06950    0.11940    1.000
    C401     C        0.04160    0.10350    0.09800    1.000
    C402     C        0.12500    0.08920    0.10790    1.000
    C403     C        0.67080    0.74320    0.79114    1.000
    H302     H        0.65640    0.78090    0.78910    1.000
    C404     C        0.66520    0.65420    0.78628    1.000
    H303     H        0.64590    0.61840    0.78010    1.000
    C405     C        0.74290    0.66690    0.80580    1.000
    H304     H        0.78620    0.64180    0.81550    1.000
    C406     C        0.81530    0.75530    0.82953    1.000
    H305     H        0.87900    0.74540    0.82190    1.000
    H306     H        0.80630    0.79470    0.82490    1.000
    C407     C        0.80550    0.74440    0.86978    1.000
    H307     H        0.85320    0.76590    0.88250    1.000
    H308     H        0.81780    0.70530    0.87440    1.000
    C408     C        0.70940    0.75900    0.88457    1.000
    H309     H        0.69930    0.79870    0.88150    1.000
    H310     H        0.66160    0.73980    0.87050    1.000
    C409     C        0.69490    0.74470    0.92403    1.000
    H311     H        0.70530    0.70510    0.92750    1.000
    H312     H        0.62980    0.75280    0.93070    1.000
    C410     C        0.83810    0.75650    0.96336    1.000
    H313     H        0.85990    0.72000    0.96150    1.000
    C411     C        0.82510    0.84320    0.97817    1.000
    H314     H        0.83700    0.87780    0.98850    1.000
    C412     C        0.75070    0.83070    0.95710    1.000
    H315     H        0.70240    0.85490    0.95030    1.000
    N57      N        0.61910    0.70263    0.77703    1.000
    N58      N        0.74590    0.72309    0.80856    1.000
    N59      N        0.75900    0.77584    0.94750    1.000
    N60      N        0.88110    0.79626    0.98197    1.000
    C413     C        0.94200    0.52080    0.04660    1.000
    C414     C        0.94400    0.56590    0.02450    1.000
    C415     C        0.41060    0.40250    0.65627    1.000
    H316     H        0.41220    0.40610    0.68200    1.000
    H317     H        0.35520    0.42090    0.64700    1.000
    H318     H        0.40850    0.36370    0.64990    1.000
    C416     C        0.47100    0.93050    0.61940    1.000
    C417     C        0.45840    0.89650    0.59800    1.000
    C418     C        0.37500    0.91080    0.60790    1.000
    C419     C        0.82920    0.25680    0.29114    1.000
    H319     H        0.84360    0.21910    0.28910    1.000
    C420     C        0.83480    0.34580    0.28628    1.000
    H320     H        0.85410    0.38160    0.28010    1.000
    C421     C        0.75710    0.33310    0.30580    1.000
    H321     H        0.71380    0.35820    0.31550    1.000
    C422     C        0.68470    0.24470    0.32953    1.000
    H322     H        0.62100    0.25460    0.32190    1.000
    H323     H        0.69370    0.20530    0.32490    1.000
    C423     C        0.69450    0.25560    0.36978    1.000
    H324     H        0.64680    0.23410    0.38250    1.000
    H325     H        0.68220    0.29470    0.37440    1.000
    C424     C        0.79060    0.24100    0.38457    1.000
    H326     H        0.80070    0.20130    0.38150    1.000
    H327     H        0.83840    0.26020    0.37050    1.000
    C425     C        0.80510    0.25530    0.42403    1.000
    H328     H        0.79470    0.29490    0.42750    1.000
    H329     H        0.87020    0.24720    0.43070    1.000
    C426     C        0.66190    0.24350    0.46336    1.000
    H330     H        0.64010    0.28000    0.46150    1.000
    C427     C        0.67490    0.15680    0.47817    1.000
    H331     H        0.66300    0.12220    0.48850    1.000
    C428     C        0.74930    0.16930    0.45710    1.000
    H332     H        0.79760    0.14510    0.45030    1.000
    N61      N        0.88090    0.29737    0.27703    1.000
    N62      N        0.75410    0.27691    0.30856    1.000
    N63      N        0.74100    0.22416    0.44750    1.000
    N64      N        0.61890    0.20374    0.48197    1.000
    C429     C        0.55800    0.47920    0.54660    1.000
    C430     C        0.55600    0.43410    0.52450    1.000
    C431     C        0.50000    0.52370    0.67572    1.000
    H333     H        0.50000    0.50580    0.69790    1.000
    C432     C        0.50000    0.58180    0.67433    1.000
    C433     C        0.50000    0.60770    0.64035    1.000
    H334     H        0.50000    0.64640    0.63920    1.000
    C434     C        0.50000    0.57780    0.60900    1.000
    H335     H        0.50000    0.59570    0.58680    1.000
    C435     C        0.50000    0.48360    0.54540    1.000
    C436     C        0.50000    0.43380    0.52540    1.000
    C437     C        0.50000    0.38100    0.54070    1.000
    C438     C        0.50000    0.37670    0.57831    1.000
    H336     H        0.50000    0.34180    0.58920    1.000
    C439     C        0.50000    0.42920    0.64006    1.000
    C440     C        0.50000    0.49270    0.64472    1.000
    C441     C        0.50000    0.51960    0.61120    1.000
    C442     C        0.50000    0.47660    0.58310    1.000
    C443     C        0.50000    0.42420    0.59930    1.000
    C444     C        0.50000    0.61590    0.70817    1.000
    C445     C        0.50000    0.33070    0.51660    1.000
    C446     C        0.50000    0.82870    0.73993    1.000
    C447     C        0.50000    0.88020    0.71784    1.000
    C448     C        0.50000    0.93240    0.73347    1.000
    H337     H        0.50000    0.93490    0.75840    1.000
    C449     C        0.50000    0.98080    0.71368    1.000
    H338     H        0.50000    0.01540    0.72500    1.000
    C450     C        0.50000    0.87670    0.68090    1.000
    H339     H        0.50000    0.84190    0.66980    1.000
    C451     C        0.50000    0.92470    0.65990    1.000
    C452     C        0.50000    0.97680    0.67634    1.000
    C453     C        0.50000    0.02030    0.64840    1.000
    C454     C        0.50000    0.07780    0.65030    1.000
    H340     H        0.50000    0.09580    0.67250    1.000
    C455     C        0.50000    0.10810    0.61857    1.000
    H341     H        0.50000    0.14680    0.61960    1.000
    C456     C        0.50000    0.08240    0.58556    1.000
    C457     C        0.50000    0.02430    0.58380    1.000
    H342     H        0.50000    0.00650    0.56160    1.000
    C458     C        0.50000    0.99350    0.61470    1.000
    C459     C        0.50000    0.11580    0.55140    1.000
    O49      O        0.50000    0.66836    0.70356    1.000
    O50      O        0.50000    0.59260    0.73746    1.000
    O51      O        0.50000    0.28444    0.53406    1.000
    O52      O        0.50000    0.33520    0.48371    1.000
    O53      O        0.50000    0.78301    0.72247    1.000
    O54      O        0.50000    0.83190    0.77267    1.000
    O55      O        0.50000    0.16888    0.55500    1.000
    O56      O        0.50000    0.09260    0.52149    1.000
    Zn13     Zn       0.50000    0.71230    0.74814    1.000
    Zn14     Zn       0.50000    0.21190    0.51032    1.000
    C460     C        0.00000    0.47630    0.17572    1.000
    H343     H        0.00000    0.49420    0.19790    1.000
    C461     C        0.00000    0.41820    0.17433    1.000
    C462     C        0.00000    0.39230    0.14035    1.000
    H344     H        0.00000    0.35360    0.13920    1.000
    C463     C        0.00000    0.42220    0.10900    1.000
    H345     H        0.00000    0.40430    0.08680    1.000
    C464     C        0.00000    0.51640    0.04540    1.000
    C465     C        0.00000    0.56620    0.02540    1.000
    C466     C        0.00000    0.61900    0.04070    1.000
    C467     C        0.00000    0.62330    0.07831    1.000
    H346     H        0.00000    0.65820    0.08920    1.000
    C468     C        0.00000    0.57080    0.14006    1.000
    C469     C        0.00000    0.50730    0.14472    1.000
    C470     C        0.00000    0.48040    0.11120    1.000
    C471     C        0.00000    0.52340    0.08310    1.000
    C472     C        0.00000    0.57580    0.09930    1.000
    C473     C        0.00000    0.38410    0.20817    1.000
    C474     C        0.00000    0.66930    0.01660    1.000
    C475     C        0.00000    0.17130    0.23993    1.000
    C476     C        0.00000    0.11980    0.21784    1.000
    C477     C        0.00000    0.06760    0.23347    1.000
    H347     H        0.00000    0.06510    0.25840    1.000
    C478     C        0.00000    0.01920    0.21368    1.000
    H348     H        0.00000    0.98460    0.22500    1.000
    C479     C        0.00000    0.12330    0.18090    1.000
    H349     H        0.00000    0.15810    0.16980    1.000
    C480     C        0.00000    0.07530    0.15990    1.000
    C481     C        0.00000    0.02320    0.17634    1.000
    C482     C        0.00000    0.97970    0.14840    1.000
    C483     C        0.00000    0.92220    0.15030    1.000
    H350     H        0.00000    0.90420    0.17250    1.000
    C484     C        0.00000    0.89190    0.11857    1.000
    H351     H        0.00000    0.85320    0.11960    1.000
    C485     C        0.00000    0.91760    0.08556    1.000
    C486     C        0.00000    0.97570    0.08380    1.000
    H352     H        0.00000    0.99350    0.06160    1.000
    C487     C        0.00000    0.00650    0.11470    1.000
    C488     C        0.00000    0.88420    0.05140    1.000
    O57      O        0.00000    0.33164    0.20356    1.000
    O58      O        0.00000    0.40740    0.23746    1.000
    O59      O        0.00000    0.71556    0.03406    1.000
    O60      O        0.00000    0.66480    0.98371    1.000
    O61      O        0.00000    0.21699    0.22247    1.000
    O62      O        0.00000    0.16810    0.27267    1.000
    O63      O        0.00000    0.83112    0.05500    1.000
    O64      O        0.00000    0.90740    0.02149    1.000
    Zn15     Zn       0.00000    0.28770    0.24814    1.000
    Zn16     Zn       0.00000    0.78810    0.01032    1.000
