data_functionalizedCrystal
_audit_creation_method	'EQeq! by Chris Wilmer'
_symmetry_space_group_name_H-M	'P1'
_symmetry_Int_Tables_number	1
_symmetry_cell_setting	triclinic
loop_
_symmetry_equiv_pos_as_xyz
  x,y,z
_cell_length_a	7.2729
_cell_length_b	7.2729
_cell_length_c	8.2099
_cell_angle_alpha	90
_cell_angle_beta	90
_cell_angle_gamma	120
loop_
_atom_site_label
_atom_site_type_symbol
_atom_site_fract_x
_atom_site_fract_y
_atom_site_fract_z
_atom_site_charge
Mof_O 	O 	0.89064	0.31027	0.89405	-0.29
Mof_O 	O 	0.68973	0.58037	0.89405	-0.317
Mof_O 	O 	0.41963	0.10936	0.89405	-0.324
Mof_O 	O 	0.10936	0.68973	0.39405	-0.425
Mof_O 	O 	0.31027	0.41963	0.39405	-0.464
Mof_O 	O 	0.58037	0.89064	0.39405	-0.36
Mof_O 	O 	0.31027	0.89064	0.10595	-0.343
Mof_O 	O 	0.58037	0.68973	0.10595	-0.399
Mof_O 	O 	0.10936	0.41963	0.10595	-0.417
Mof_O 	O 	0.68973	0.10936	0.60595	-0.416
Mof_O 	O 	0.41963	0.31027	0.60595	-0.456
Mof_O 	O 	0.89064	0.58037	0.60595	-0.373
Mof_Mg	Mg	0.66667	0.33333	0.75	1.479
Mof_Mg	Mg	0.33333	0.66667	0.25	1.478
Mof_C 	C 	-0	0.4397	-0	0.282
Mof_H 	H 	-0	0.5676	-0	-0.087
Mof_C 	C 	0.5603	0.5603	-0	0.364
Mof_H 	H 	0.4324	0.4324	-0	-0.11
Mof_C 	C 	0.4397	0	-0	0.239
Mof_H 	H 	0.5676	0	-0	-0.082
Mof_C 	C 	6.45179e-18	0.5603	0.5	0.439
Mof_H 	H 	6.45179e-18	0.4324	0.5	-0.118
Mof_C 	C 	0.4397	0.4397	0.5	0.53
Mof_H 	H 	0.5676	0.5676	0.5	-0.121
Mof_C 	C 	0.5603	-8.39028e-33	0.5	0.403
Mof_H 	H 	0.4324	-8.39028e-33	0.5	-0.112
_end
