# CIF file generated by openbabel 3.1.0, see https://openbabel.org
data_I
_chemical_name_common 'image0'
_cell_length_a 45.597
_cell_length_b 45.597
_cell_length_c 40.718
_cell_angle_alpha 90
_cell_angle_beta 90
_cell_angle_gamma 120
_space_group_name_H-M_alt 'P 1'
_space_group_name_Hall 'P 1'
loop_
    _symmetry_equiv_pos_as_xyz
    x,y,z
loop_
    _atom_site_label
    _atom_site_type_symbol
    _atom_site_fract_x
    _atom_site_fract_y
    _atom_site_fract_z
    _atom_site_occupancy
    In1      In       0.24066    0.06441    0.45780    1.000
    O1       O        0.26140    0.07450    0.50587    1.000
    O2       O        0.23070    0.02280    0.49440    1.000
    O3       O        0.19500    0.07440    0.48180    1.000
    O4       O        0.18677    0.03810    0.44770    1.000
    O5       O        0.23835    0.02558    0.42075    1.000
    O6       O        0.28661    0.05941    0.44200    1.000
    O7       O        0.27212    0.12068    0.45810    1.000
    O8       O        0.24730    0.09850    0.41260    1.000
    C1       C        0.25340    0.05160    0.51610    1.000
    C2       C        0.17350    0.05190    0.46360    1.000
    C3       C        0.25370    0.03840    0.53620    1.000
    C4       C        0.14140    0.04400    0.46380    1.000
    C5       C        0.27700    0.05850    0.56910    1.000
    C6       C        0.24390    0.01050    0.55380    1.000
    C7       C        0.12650    0.06060    0.47890    1.000
    C8       C        0.12140    0.01640    0.44380    1.000
    H1       H        0.29000    0.08170    0.56560    1.000
    C9       C        0.28230    0.04900    0.60150    1.000
    C10      C        0.24230    0.99220    0.58420    1.000
    H2       H        0.23130    0.99320    0.53890    1.000
    C11      C        0.09050    0.04700    0.47370    1.000
    C12      C        0.08580    0.00360    0.43960    1.000
    H3       H        0.29770    0.06510    0.61590    1.000
    C13      C        0.26370    0.01540    0.61040    1.000
    H4       H        0.22940    0.96880    0.58650    1.000
    H5       H        0.08010    0.05750    0.48420    1.000
    C14      C        0.07170    0.02030    0.45490    1.000
    H6       H        0.07270    0.98450    0.42680    1.000
    C15      C        0.26830    0.00830    0.64590    1.000
    C16      C        0.03340    0.01170    0.45490    1.000
    C17      C        0.24120    0.98480    0.66340    1.000
    C18      C        0.30060    0.02310    0.66170    1.000
    C19      C        0.01170    0.97720    0.45470    1.000
    H7       H        0.22000    0.97500    0.65360    1.000
    C20      C        0.24330    0.97480    0.69500    1.000
    C21      C        0.30360    0.01320    0.69350    1.000
    H8       H        0.31970    0.03940    0.65070    1.000
    H9       H        0.01960    0.96210    0.45430    1.000
    C22      C        0.27490    0.98960    0.70910    1.000
    C23      C        0.21440    0.95054    0.71360    1.000
    C24      C        0.33790    0.02810    0.70880    1.000
    H10      H        0.27680    0.98330    0.73030    1.000
    C25      C        0.18210    0.94339    0.70448    1.000
    C26      C        0.21846    0.93240    0.73890    1.000
    C27      C        0.34500    0.00650    0.72850    1.000
    C28      C        0.36320    0.06020    0.70430    1.000
    H11      H        0.17940    0.95550    0.68760    1.000
    C29      C        0.15389    0.91810    0.72060    1.000
    C30      C        0.19030    0.90710    0.75500    1.000
    H12      H        0.32840    0.98390    0.73130    1.000
    C31      C        0.37610    0.01850    0.74350    1.000
    C32      C        0.39360    0.07150    0.72150    1.000
    H13      H        0.36060    0.07460    0.69000    1.000
    H14      H        0.13230    0.91330    0.71450    1.000
    C33      C        0.15797    0.89991    0.74580    1.000
    H15      H        0.38050    0.00400    0.75590    1.000
    C34      C        0.40050    0.05210    0.74010    1.000
    H16      H        0.41000    0.09430    0.71970    1.000
    C35      C        0.12380    0.87130    0.76340    1.000
    C36      C        0.43330    0.06460    0.75730    1.000
    O9       O        0.09620    0.86240    0.75095    1.000
    O10      O        0.12985    0.86215    0.78906    1.000
    In2      In       0.06917    0.82880    0.79455    1.000
    O11      O        0.03460    0.79617    0.83641    1.000
    O12      O        0.09048    0.82420    0.84359    1.000
    O13      O        0.03035    0.84499    0.78176    1.000
    O14      O        0.07242    0.87573    0.81692    1.000
    O15      O        0.03723    0.78363    0.76027    1.000
    O16      O        0.07750    0.78470    0.78760    1.000
    C37      C        0.06200    0.80530    0.85320    1.000
    C38      C        0.04660    0.86960    0.79880    1.000
    C39      C        0.05470    0.78980    0.88851    1.000
    C40      C        0.03610    0.89670    0.80300    1.000
    C41      C        0.02610    0.75980    0.89780    1.000
    C42      C        0.08011    0.80806    0.91130    1.000
    C43      C        0.05180    0.92220    0.82620    1.000
    C44      C        0.00980    0.89472    0.78400    1.000
    C45      C        0.02292    0.74797    0.92980    1.000
    C46      C        0.07696    0.79630    0.94329    1.000
    C47      C        0.04120    0.94580    0.83050    1.000
    C48      C        0.99930    0.91830    0.78820    1.000
    C49      C        0.04840    0.76620    0.95254    1.000
    C50      C        0.01500    0.94380    0.81150    1.000
    C51      C        0.04690    0.75170    0.98550    1.000
    C52      C        0.00850    0.97250    0.81110    1.000
    C53      C        0.01660    0.72750    0.00070    1.000
    C54      C        0.07650    0.76190    0.00280    1.000
    C55      C        0.97370    0.96680    0.81460    1.000
    H17      H        0.99600    0.71940    0.98990    1.000
    C56      C        0.01770    0.71570    0.03210    1.000
    C57      C        0.07820    0.75160    0.03310    1.000
    H18      H        0.09670    0.77710    0.99260    1.000
    C58      C        0.04810    0.72740    0.04900    1.000
    C59      C        0.98470    0.69020    0.04839    1.000
    C60      C        0.11100    0.76370    0.05150    1.000
    H19      H        0.04860    0.71960    0.06990    1.000
    C61      C        0.95720    0.69544    0.04980    1.000
    C62      C        0.98227    0.66110    0.06200    1.000
    C63      C        0.11480    0.76970    0.08510    1.000
    C64      C        0.14100    0.77110    0.03330    1.000
    C65      C        0.92730    0.67160    0.06480    1.000
    C66      C        0.95240    0.63726    0.07700    1.000
    H20      H        0.09640    0.76500    0.09850    1.000
    C67      C        0.14790    0.78330    0.09830    1.000
    C68      C        0.17090    0.78360    0.04810    1.000
    H21      H        0.13940    0.76710    0.01080    1.000
    C69      C        0.92488    0.64250    0.07841    1.000
    H22      H        0.15090    0.78670    0.12080    1.000
    C70      C        0.17570    0.79170    0.07880    1.000
    H23      H        0.18930    0.78670    0.03560    1.000
    C71      C        0.89160    0.61660    0.09660    1.000
    C72      C        0.20890    0.80830    0.09570    1.000
    C73      C        0.18990    0.90410    0.75130    1.000
    C74      C        0.04730    0.95400    0.81510    1.000
    C75      C        0.05750    0.93010    0.81240    1.000
    C76      C        0.02130    0.94870    0.79370    1.000
    C77      C        0.00360    0.92030    0.77390    1.000
    C78      C        0.01030    0.97410    0.78990    1.000
    C79      C        0.97470    0.96540    0.79490    1.000
    C80      C        0.17810    0.05820    0.45800    1.000
    C81      C        0.13820    0.02490    0.45600    1.000
    C82      C        0.07740    0.77540    0.93420    1.000
    C83      C        0.08230    0.79020    0.90330    1.000
    C84      C        0.01990    0.76170    0.93570    1.000
    C85      C        0.02290    0.77230    0.90320    1.000
    C86      C        0.97190    0.69760    0.07620    1.000
    C87      C        0.94360    0.67390    0.09340    1.000
    C88      C        0.93570    0.63290    0.05060    1.000
    C89      C        0.96240    0.65930    0.03390    1.000
    O17      O        0.87330    0.62840    0.10500    1.000
    C90      C        0.43490    0.06357    0.75380    1.000
    In3      In       0.90732    0.39774    0.79113    1.000
    O18      O        0.92807    0.40783    0.83920    1.000
    O19      O        0.89737    0.35613    0.82773    1.000
    O20      O        0.86167    0.40773    0.81513    1.000
    O21      O        0.85344    0.37143    0.78103    1.000
    O22      O        0.90502    0.35891    0.75408    1.000
    O23      O        0.95328    0.39274    0.77533    1.000
    O24      O        0.93879    0.45401    0.79143    1.000
    O25      O        0.91397    0.43183    0.74593    1.000
    C91      C        0.92007    0.38493    0.84943    1.000
    C92      C        0.84017    0.38523    0.79693    1.000
    C93      C        0.92037    0.37173    0.86953    1.000
    C94      C        0.80807    0.37733    0.79713    1.000
    C95      C        0.94367    0.39183    0.90243    1.000
    C96      C        0.91057    0.34383    0.88713    1.000
    C97      C        0.79317    0.39393    0.81223    1.000
    C98      C        0.78807    0.34973    0.77713    1.000
    H24      H        0.95667    0.41503    0.89893    1.000
    C99      C        0.94897    0.38233    0.93483    1.000
    C100     C        0.90897    0.32553    0.91753    1.000
    H25      H        0.89797    0.32653    0.87223    1.000
    C101     C        0.75717    0.38033    0.80703    1.000
    C102     C        0.75247    0.33693    0.77293    1.000
    H26      H        0.96437    0.39843    0.94923    1.000
    C103     C        0.93037    0.34873    0.94373    1.000
    H27      H        0.89607    0.30213    0.91983    1.000
    H28      H        0.74677    0.39083    0.81753    1.000
    C104     C        0.73837    0.35363    0.78823    1.000
    H29      H        0.73937    0.31783    0.76013    1.000
    C105     C        0.93497    0.34163    0.97923    1.000
    C106     C        0.70007    0.34503    0.78823    1.000
    C107     C        0.90787    0.31813    0.99673    1.000
    C108     C        0.96727    0.35643    0.99503    1.000
    C109     C        0.67837    0.31053    0.78803    1.000
    H30      H        0.88667    0.30833    0.98693    1.000
    C110     C        0.90997    0.30813    0.02833    1.000
    C111     C        0.97027    0.34653    0.02683    1.000
    H31      H        0.98637    0.37273    0.98403    1.000
    H32      H        0.68627    0.29543    0.78763    1.000
    C112     C        0.94157    0.32293    0.04243    1.000
    C113     C        0.88107    0.28387    0.04693    1.000
    C114     C        0.00457    0.36143    0.04213    1.000
    H33      H        0.94347    0.31663    0.06363    1.000
    C115     C        0.84877    0.27672    0.03781    1.000
    C116     C        0.88513    0.26573    0.07223    1.000
    C117     C        0.01167    0.33983    0.06183    1.000
    C118     C        0.02987    0.39353    0.03763    1.000
    H34      H        0.84607    0.28883    0.02093    1.000
    C119     C        0.82056    0.25143    0.05393    1.000
    C120     C        0.85697    0.24043    0.08833    1.000
    H35      H        0.99507    0.31723    0.06463    1.000
    C121     C        0.04277    0.35183    0.07683    1.000
    C122     C        0.06027    0.40483    0.05483    1.000
    H36      H        0.02727    0.40793    0.02333    1.000
    H37      H        0.79897    0.24663    0.04783    1.000
    C123     C        0.82464    0.23324    0.07913    1.000
    H38      H        0.04717    0.33733    0.08923    1.000
    C124     C        0.06717    0.38543    0.07343    1.000
    H39      H        0.07667    0.42763    0.05303    1.000
    C125     C        0.79047    0.20463    0.09673    1.000
    C126     C        0.09997    0.39793    0.09063    1.000
    O26      O        0.76287    0.19573    0.08428    1.000
    O27      O        0.79652    0.19548    0.12239    1.000
    In4      In       0.73583    0.16214    0.12788    1.000
    O28      O        0.70127    0.12950    0.16974    1.000
    O29      O        0.75715    0.15753    0.17692    1.000
    O30      O        0.69702    0.17832    0.11509    1.000
    O31      O        0.73909    0.20906    0.15025    1.000
    O32      O        0.70390    0.11696    0.09360    1.000
    O33      O        0.74417    0.11803    0.12093    1.000
    C127     C        0.72867    0.13863    0.18653    1.000
    C128     C        0.71327    0.20293    0.13213    1.000
    C129     C        0.72137    0.12313    0.22184    1.000
    C130     C        0.70277    0.23003    0.13633    1.000
    C131     C        0.69277    0.09313    0.23113    1.000
    C132     C        0.74678    0.14139    0.24463    1.000
    C133     C        0.71847    0.25553    0.15953    1.000
    C134     C        0.67647    0.22805    0.11733    1.000
    C135     C        0.68959    0.08130    0.26313    1.000
    C136     C        0.74363    0.12963    0.27662    1.000
    C137     C        0.70787    0.27913    0.16383    1.000
    C138     C        0.66597    0.25163    0.12153    1.000
    C139     C        0.71507    0.09953    0.28587    1.000
    C140     C        0.68167    0.27713    0.14483    1.000
    C141     C        0.71357    0.08503    0.31883    1.000
    C142     C        0.67517    0.30583    0.14443    1.000
    C143     C        0.68327    0.06083    0.33403    1.000
    C144     C        0.74317    0.09523    0.33613    1.000
    C145     C        0.64037    0.30013    0.14793    1.000
    H40      H        0.66267    0.05273    0.32323    1.000
    C146     C        0.68437    0.04903    0.36543    1.000
    C147     C        0.74487    0.08493    0.36643    1.000
    H41      H        0.76337    0.11043    0.32593    1.000
    C148     C        0.71477    0.06073    0.38233    1.000
    C149     C        0.65137    0.02353    0.38172    1.000
    C150     C        0.77767    0.09703    0.38483    1.000
    H42      H        0.71527    0.05293    0.40323    1.000
    C151     C        0.62387    0.02877    0.38313    1.000
    C152     C        0.64894    0.99443    0.39533    1.000
    C153     C        0.78147    0.10303    0.41843    1.000
    C154     C        0.80767    0.10443    0.36663    1.000
    C155     C        0.59397    0.00493    0.39813    1.000
    C156     C        0.61907    0.97059    0.41033    1.000
    H43      H        0.76307    0.09833    0.43183    1.000
    C157     C        0.81457    0.11663    0.43163    1.000
    C158     C        0.83757    0.11693    0.38143    1.000
    H44      H        0.80607    0.10043    0.34413    1.000
    C159     C        0.59155    0.97583    0.41174    1.000
    H45      H        0.81757    0.12003    0.45413    1.000
    C160     C        0.84237    0.12503    0.41213    1.000
    H46      H        0.85597    0.12003    0.36893    1.000
    C161     C        0.55827    0.94993    0.42993    1.000
    C162     C        0.87557    0.14163    0.42903    1.000
    C163     C        0.85657    0.23743    0.08463    1.000
    C164     C        0.71397    0.28733    0.14843    1.000
    C165     C        0.72417    0.26343    0.14573    1.000
    C166     C        0.68797    0.28203    0.12703    1.000
    C167     C        0.67027    0.25363    0.10723    1.000
    C168     C        0.67697    0.30743    0.12323    1.000
    C169     C        0.64137    0.29873    0.12823    1.000
    C170     C        0.84477    0.39153    0.79133    1.000
    C171     C        0.80487    0.35823    0.78933    1.000
    C172     C        0.74407    0.10873    0.26753    1.000
    C173     C        0.74897    0.12353    0.23663    1.000
    C174     C        0.68657    0.09503    0.26903    1.000
    C175     C        0.68957    0.10563    0.23653    1.000
    C176     C        0.63857    0.03093    0.40953    1.000
    C177     C        0.61027    0.00723    0.42673    1.000
    C178     C        0.60237    0.96623    0.38393    1.000
    C179     C        0.62907    0.99263    0.36723    1.000
    O34      O        0.53997    0.96173    0.43833    1.000
    C180     C        0.10157    0.39690    0.08713    1.000
    In5      In       0.57399    0.73108    0.12447    1.000
    O35      O        0.59473    0.74117    0.17254    1.000
    O36      O        0.56403    0.68947    0.16107    1.000
    O37      O        0.52833    0.74107    0.14847    1.000
    O38      O        0.52010    0.70477    0.11437    1.000
    O39      O        0.57168    0.69225    0.08742    1.000
    O40      O        0.61994    0.72608    0.10867    1.000
    O41      O        0.60545    0.78735    0.12477    1.000
    O42      O        0.58063    0.76517    0.07927    1.000
    C181     C        0.58673    0.71827    0.18277    1.000
    C182     C        0.50683    0.71857    0.13027    1.000
    C183     C        0.58703    0.70507    0.20287    1.000
    C184     C        0.47473    0.71067    0.13047    1.000
    C185     C        0.61033    0.72517    0.23577    1.000
    C186     C        0.57723    0.67717    0.22047    1.000
    C187     C        0.45983    0.72727    0.14557    1.000
    C188     C        0.45473    0.68307    0.11047    1.000
    H47      H        0.62333    0.74837    0.23227    1.000
    C189     C        0.61563    0.71567    0.26817    1.000
    C190     C        0.57563    0.65887    0.25087    1.000
    H48      H        0.56463    0.65987    0.20557    1.000
    C191     C        0.42383    0.71367    0.14037    1.000
    C192     C        0.41913    0.67027    0.10627    1.000
    H49      H        0.63103    0.73177    0.28257    1.000
    C193     C        0.59703    0.68207    0.27707    1.000
    H50      H        0.56273    0.63547    0.25317    1.000
    H51      H        0.41343    0.72417    0.15087    1.000
    C194     C        0.40503    0.68697    0.12157    1.000
    H52      H        0.40603    0.65117    0.09347    1.000
    C195     C        0.60163    0.67497    0.31257    1.000
    C196     C        0.36673    0.67837    0.12157    1.000
    C197     C        0.57453    0.65147    0.33007    1.000
    C198     C        0.63393    0.68977    0.32837    1.000
    C199     C        0.34503    0.64387    0.12137    1.000
    H53      H        0.55333    0.64167    0.32027    1.000
    C200     C        0.57663    0.64147    0.36167    1.000
    C201     C        0.63693    0.67987    0.36017    1.000
    H54      H        0.65303    0.70607    0.31737    1.000
    H55      H        0.35293    0.62877    0.12097    1.000
    C202     C        0.60823    0.65627    0.37577    1.000
    C203     C        0.54773    0.61721    0.38027    1.000
    C204     C        0.67123    0.69477    0.37547    1.000
    H56      H        0.61013    0.64997    0.39697    1.000
    C205     C        0.51543    0.61006    0.37115    1.000
    C206     C        0.55179    0.59907    0.40557    1.000
    C207     C        0.67833    0.67317    0.39517    1.000
    C208     C        0.69653    0.72687    0.37097    1.000
    H57      H        0.51273    0.62217    0.35427    1.000
    C209     C        0.48722    0.58477    0.38727    1.000
    C210     C        0.52363    0.57377    0.42167    1.000
    H58      H        0.66173    0.65057    0.39797    1.000
    C211     C        0.70943    0.68517    0.41017    1.000
    C212     C        0.72693    0.73817    0.38817    1.000
    H59      H        0.69393    0.74127    0.35667    1.000
    H60      H        0.46563    0.57997    0.38117    1.000
    C213     C        0.49130    0.56658    0.41247    1.000
    H61      H        0.71383    0.67067    0.42257    1.000
    C214     C        0.73383    0.71877    0.40677    1.000
    H62      H        0.74333    0.76097    0.38637    1.000
    C215     C        0.45713    0.53797    0.43007    1.000
    C216     C        0.76663    0.73127    0.42397    1.000
    O43      O        0.42953    0.52907    0.41762    1.000
    O44      O        0.46318    0.52882    0.45573    1.000
    In6      In       0.40250    0.49547    0.46121    1.000
    O45      O        0.36793    0.46284    0.50308    1.000
    O46      O        0.42381    0.49087    0.51026    1.000
    O47      O        0.36368    0.51166    0.44843    1.000
    O48      O        0.40575    0.54240    0.48359    1.000
    O49      O        0.37056    0.45030    0.42694    1.000
    O50      O        0.41083    0.45137    0.45427    1.000
    C217     C        0.39533    0.47197    0.51987    1.000
    C218     C        0.37993    0.53627    0.46547    1.000
    C219     C        0.38803    0.45647    0.55518    1.000
    C220     C        0.36943    0.56337    0.46967    1.000
    C221     C        0.35943    0.42647    0.56447    1.000
    C222     C        0.41344    0.47473    0.57797    1.000
    C223     C        0.38513    0.58887    0.49287    1.000
    C224     C        0.34313    0.56139    0.45067    1.000
    C225     C        0.35625    0.41464    0.59647    1.000
    C226     C        0.41029    0.46297    0.60996    1.000
    C227     C        0.37453    0.61247    0.49717    1.000
    C228     C        0.33263    0.58497    0.45487    1.000
    C229     C        0.38173    0.43287    0.61921    1.000
    C230     C        0.34833    0.61047    0.47817    1.000
    C231     C        0.38023    0.41837    0.65217    1.000
    C232     C        0.34183    0.63917    0.47777    1.000
    C233     C        0.34993    0.39417    0.66737    1.000
    C234     C        0.40983    0.42857    0.66947    1.000
    C235     C        0.30703    0.63347    0.48127    1.000
    H63      H        0.32933    0.38607    0.65657    1.000
    C236     C        0.35103    0.38237    0.69877    1.000
    C237     C        0.41153    0.41827    0.69977    1.000
    H64      H        0.43003    0.44377    0.65927    1.000
    C238     C        0.38143    0.39407    0.71567    1.000
    C239     C        0.31803    0.35687    0.71506    1.000
    C240     C        0.44433    0.43037    0.71817    1.000
    H65      H        0.38193    0.38627    0.73657    1.000
    C241     C        0.29053    0.36211    0.71647    1.000
    C242     C        0.31560    0.32777    0.72867    1.000
    C243     C        0.44813    0.43637    0.75177    1.000
    C244     C        0.47433    0.43777    0.69997    1.000
    C245     C        0.26063    0.33827    0.73147    1.000
    C246     C        0.28573    0.30393    0.74367    1.000
    H66      H        0.42973    0.43167    0.76517    1.000
    C247     C        0.48123    0.44997    0.76497    1.000
    C248     C        0.50423    0.45027    0.71477    1.000
    H67      H        0.47273    0.43377    0.67747    1.000
    C249     C        0.25821    0.30917    0.74508    1.000
    H68      H        0.48423    0.45337    0.78747    1.000
    C250     C        0.50903    0.45837    0.74547    1.000
    H69      H        0.52263    0.45337    0.70227    1.000
    C251     C        0.22493    0.28327    0.76327    1.000
    C252     C        0.54223    0.47497    0.76237    1.000
    C253     C        0.52323    0.57077    0.41797    1.000
    C254     C        0.38063    0.62067    0.48177    1.000
    C255     C        0.39083    0.59677    0.47907    1.000
    C256     C        0.35463    0.61537    0.46037    1.000
    C257     C        0.33693    0.58697    0.44057    1.000
    C258     C        0.34363    0.64077    0.45657    1.000
    C259     C        0.30803    0.63207    0.46157    1.000
    C260     C        0.51143    0.72487    0.12467    1.000
    C261     C        0.47153    0.69157    0.12267    1.000
    C262     C        0.41073    0.44207    0.60087    1.000
    C263     C        0.41563    0.45687    0.56997    1.000
    C264     C        0.35323    0.42837    0.60237    1.000
    C265     C        0.35623    0.43897    0.56987    1.000
    C266     C        0.30523    0.36427    0.74287    1.000
    C267     C        0.27693    0.34057    0.76007    1.000
    C268     C        0.26903    0.29957    0.71727    1.000
    C269     C        0.29573    0.32597    0.70057    1.000
    O51      O        0.20663    0.29507    0.77167    1.000
    C270     C        0.76823    0.73024    0.42047    1.000
    In7      In       0.93559    0.17625    0.45780    1.000
    O52      O        0.92550    0.18690    0.50587    1.000
    O53      O        0.97720    0.20790    0.49440    1.000
    O54      O        0.92560    0.12060    0.48180    1.000
    O55      O        0.96190    0.14867    0.44770    1.000
    O56      O        0.97442    0.21277    0.42075    1.000
    O57      O        0.94059    0.22720    0.44200    1.000
    O58      O        0.87932    0.15144    0.45810    1.000
    O59      O        0.90150    0.14880    0.41260    1.000
    C271     C        0.94840    0.20180    0.51610    1.000
    C272     C        0.94810    0.12160    0.46360    1.000
    C273     C        0.96160    0.21530    0.53620    1.000
    C274     C        0.95600    0.09740    0.46380    1.000
    C275     C        0.94150    0.21850    0.56910    1.000
    C276     C        0.98950    0.23340    0.55380    1.000
    C277     C        0.93940    0.06590    0.47890    1.000
    C278     C        0.98360    0.10500    0.44380    1.000
    H70      H        0.91830    0.20830    0.56560    1.000
    C279     C        0.95100    0.23330    0.60150    1.000
    C280     C        0.00780    0.25010    0.58420    1.000
    H71      H        0.00680    0.23810    0.53890    1.000
    C281     C        0.95300    0.04350    0.47370    1.000
    C282     C        0.99640    0.08220    0.43960    1.000
    H72      H        0.93490    0.23260    0.61590    1.000
    C283     C        0.98460    0.24830    0.61040    1.000
    H73      H        0.03120    0.26060    0.58650    1.000
    H74      H        0.94250    0.02260    0.48420    1.000
    C284     C        0.97970    0.05140    0.45490    1.000
    H75      H        0.01550    0.08820    0.42680    1.000
    C285     C        0.99170    0.26000    0.64590    1.000
    C286     C        0.98830    0.02170    0.45490    1.000
    C287     C        0.01520    0.25640    0.66340    1.000
    C288     C        0.97690    0.27750    0.66170    1.000
    C289     C        0.02280    0.03450    0.45470    1.000
    H76      H        0.02500    0.24500    0.65360    1.000
    C290     C        0.02520    0.26850    0.69500    1.000
    C291     C        0.98680    0.29040    0.69350    1.000
    H77      H        0.96060    0.28030    0.65070    1.000
    H78      H        0.03790    0.05750    0.45430    1.000
    C292     C        0.01040    0.28530    0.70910    1.000
    C293     C        0.04946    0.26386    0.71360    1.000
    C294     C        0.97190    0.30980    0.70880    1.000
    H79      H        0.01670    0.29350    0.73030    1.000
    C295     C        0.05661    0.23871    0.70448    1.000
    C296     C        0.06760    0.28606    0.73890    1.000
    C297     C        0.99350    0.33850    0.72850    1.000
    C298     C        0.93980    0.30300    0.70430    1.000
    H80      H        0.04450    0.22390    0.68760    1.000
    C299     C        0.08190    0.23579    0.72060    1.000
    C300     C        0.09290    0.28320    0.75500    1.000
    H81      H        0.01610    0.34450    0.73130    1.000
    C301     C        0.98150    0.35760    0.74350    1.000
    C302     C        0.92850    0.32210    0.72150    1.000
    H82      H        0.92540    0.28600    0.69000    1.000
    H83      H        0.08670    0.21900    0.71450    1.000
    C303     C        0.10009    0.25806    0.74580    1.000
    H84      H        0.99600    0.37650    0.75590    1.000
    C304     C        0.94790    0.34840    0.74010    1.000
    H85      H        0.90570    0.31570    0.71970    1.000
    C305     C        0.12870    0.25250    0.76340    1.000
    C306     C        0.93540    0.36870    0.75730    1.000
    O60      O        0.13760    0.23380    0.75095    1.000
    O61      O        0.13785    0.26770    0.78906    1.000
    In8      In       0.17120    0.24036    0.79455    1.000
    O62      O        0.20383    0.23843    0.83641    1.000
    O63      O        0.17580    0.26628    0.84359    1.000
    O64      O        0.15501    0.18536    0.78176    1.000
    O65      O        0.12427    0.19669    0.81692    1.000
    O66      O        0.21637    0.25360    0.76027    1.000
    O67      O        0.21530    0.29280    0.78760    1.000
    C307     C        0.19470    0.25670    0.85320    1.000
    C308     C        0.13040    0.17700    0.79880    1.000
    C309     C        0.21020    0.26490    0.88851    1.000
    C310     C        0.10330    0.13940    0.80300    1.000
    C311     C        0.24020    0.26630    0.89780    1.000
    C312     C        0.19194    0.27205    0.91130    1.000
    C313     C        0.07780    0.12960    0.82620    1.000
    C314     C        0.10528    0.11508    0.78400    1.000
    C315     C        0.25203    0.27495    0.92980    1.000
    C316     C        0.20370    0.28066    0.94329    1.000
    C317     C        0.05420    0.09540    0.83050    1.000
    C318     C        0.08170    0.08100    0.78820    1.000
    C319     C        0.23380    0.28220    0.95254    1.000
    C320     C        0.05620    0.07120    0.81150    1.000
    C321     C        0.24830    0.29520    0.98550    1.000
    C322     C        0.02750    0.03600    0.81110    1.000
    C323     C        0.27250    0.28910    0.00070    1.000
    C324     C        0.23810    0.31460    0.00280    1.000
    C325     C        0.03320    0.00690    0.81460    1.000
    H86      H        0.28060    0.27660    0.98990    1.000
    C326     C        0.28430    0.30200    0.03210    1.000
    C327     C        0.24840    0.32660    0.03310    1.000
    H87      H        0.22290    0.31960    0.99260    1.000
    C328     C        0.27260    0.32070    0.04900    1.000
    C329     C        0.30980    0.29450    0.04839    1.000
    C330     C        0.23630    0.34730    0.05150    1.000
    H88      H        0.28040    0.32900    0.06990    1.000
    C331     C        0.30456    0.26176    0.04980    1.000
    C332     C        0.33890    0.32117    0.06200    1.000
    C333     C        0.23030    0.34510    0.08510    1.000
    C334     C        0.22890    0.36990    0.03330    1.000
    C335     C        0.32840    0.25570    0.06480    1.000
    C336     C        0.36274    0.31514    0.07700    1.000
    H89      H        0.23500    0.33140    0.09850    1.000
    C337     C        0.21670    0.36460    0.09830    1.000
    C338     C        0.21640    0.38730    0.04810    1.000
    H90      H        0.23290    0.37230    0.01080    1.000
    C339     C        0.35750    0.28238    0.07841    1.000
    H91      H        0.21330    0.36420    0.12080    1.000
    C340     C        0.20830    0.38400    0.07880    1.000
    H92      H        0.21330    0.40260    0.03560    1.000
    C341     C        0.38340    0.27500    0.09660    1.000
    C342     C        0.19170    0.40060    0.09570    1.000
    C343     C        0.09590    0.28580    0.75130    1.000
    C344     C        0.04600    0.09330    0.81510    1.000
    C345     C        0.06990    0.12740    0.81240    1.000
    C346     C        0.05130    0.07260    0.79370    1.000
    C347     C        0.07970    0.08330    0.77390    1.000
    C348     C        0.02590    0.03620    0.78990    1.000
    C349     C        0.03460    0.00930    0.79490    1.000
    C350     C        0.94180    0.11990    0.45800    1.000
    C351     C        0.97510    0.11330    0.45600    1.000
    C352     C        0.22460    0.30200    0.93420    1.000
    C353     C        0.20980    0.29210    0.90330    1.000
    C354     C        0.23830    0.25820    0.93570    1.000
    C355     C        0.22770    0.25060    0.90320    1.000
    C356     C        0.30240    0.27430    0.07620    1.000
    C357     C        0.32610    0.26970    0.09340    1.000
    C358     C        0.36710    0.30280    0.05060    1.000
    C359     C        0.34070    0.30310    0.03390    1.000
    O68      O        0.37160    0.24490    0.10500    1.000
    C360     C        0.93643    0.37133    0.75380    1.000
    In9      In       0.60226    0.50958    0.79113    1.000
    O69      O        0.59217    0.52023    0.83920    1.000
    O70      O        0.64387    0.54123    0.82773    1.000
    O71      O        0.59227    0.45393    0.81513    1.000
    O72      O        0.62857    0.48200    0.78103    1.000
    O73      O        0.64109    0.54610    0.75408    1.000
    O74      O        0.60726    0.56053    0.77533    1.000
    O75      O        0.54599    0.48477    0.79143    1.000
    O76      O        0.56817    0.48213    0.74593    1.000
    C361     C        0.61507    0.53513    0.84943    1.000
    C362     C        0.61477    0.45493    0.79693    1.000
    C363     C        0.62827    0.54863    0.86953    1.000
    C364     C        0.62267    0.43073    0.79713    1.000
    C365     C        0.60817    0.55183    0.90243    1.000
    C366     C        0.65617    0.56673    0.88713    1.000
    C367     C        0.60607    0.39923    0.81223    1.000
    C368     C        0.65027    0.43833    0.77713    1.000
    H93      H        0.58497    0.54163    0.89893    1.000
    C369     C        0.61767    0.56663    0.93483    1.000
    C370     C        0.67447    0.58343    0.91753    1.000
    H94      H        0.67347    0.57143    0.87223    1.000
    C371     C        0.61967    0.37683    0.80703    1.000
    C372     C        0.66307    0.41553    0.77293    1.000
    H95      H        0.60157    0.56593    0.94923    1.000
    C373     C        0.65127    0.58163    0.94373    1.000
    H96      H        0.69787    0.59393    0.91983    1.000
    H97      H        0.60917    0.35593    0.81753    1.000
    C374     C        0.64637    0.38473    0.78823    1.000
    H98      H        0.68217    0.42153    0.76013    1.000
    C375     C        0.65837    0.59333    0.97923    1.000
    C376     C        0.65497    0.35503    0.78823    1.000
    C377     C        0.68187    0.58973    0.99673    1.000
    C378     C        0.64357    0.61083    0.99503    1.000
    C379     C        0.68947    0.36783    0.78803    1.000
    H99      H        0.69167    0.57833    0.98693    1.000
    C380     C        0.69187    0.60183    0.02833    1.000
    C381     C        0.65347    0.62373    0.02683    1.000
    H100     H        0.62727    0.61363    0.98403    1.000
    H101     H        0.70457    0.39083    0.78763    1.000
    C382     C        0.67707    0.61863    0.04243    1.000
    C383     C        0.71613    0.59719    0.04693    1.000
    C384     C        0.63857    0.64313    0.04213    1.000
    H102     H        0.68337    0.62683    0.06363    1.000
    C385     C        0.72328    0.57204    0.03781    1.000
    C386     C        0.73427    0.61939    0.07223    1.000
    C387     C        0.66017    0.67183    0.06183    1.000
    C388     C        0.60647    0.63633    0.03763    1.000
    H103     H        0.71117    0.55723    0.02093    1.000
    C389     C        0.74857    0.56912    0.05393    1.000
    C390     C        0.75957    0.61653    0.08833    1.000
    H104     H        0.68277    0.67783    0.06463    1.000
    C391     C        0.64817    0.69093    0.07683    1.000
    C392     C        0.59517    0.65543    0.05483    1.000
    H105     H        0.59207    0.61933    0.02333    1.000
    H106     H        0.75337    0.55233    0.04783    1.000
    C393     C        0.76676    0.59139    0.07913    1.000
    H107     H        0.66267    0.70983    0.08923    1.000
    C394     C        0.61457    0.68173    0.07343    1.000
    H108     H        0.57237    0.64903    0.05303    1.000
    C395     C        0.79537    0.58583    0.09673    1.000
    C396     C        0.60207    0.70203    0.09063    1.000
    O77      O        0.80427    0.56713    0.08428    1.000
    O78      O        0.80452    0.60103    0.12239    1.000
    In10     In       0.83786    0.57370    0.12788    1.000
    O79      O        0.87050    0.57176    0.16974    1.000
    O80      O        0.84247    0.59961    0.17692    1.000
    O81      O        0.82168    0.51869    0.11509    1.000
    O82      O        0.79094    0.53002    0.15025    1.000
    O83      O        0.88304    0.58693    0.09360    1.000
    O84      O        0.88197    0.62613    0.12093    1.000
    C397     C        0.86137    0.59003    0.18653    1.000
    C398     C        0.79707    0.51033    0.13213    1.000
    C399     C        0.87687    0.59823    0.22184    1.000
    C400     C        0.76997    0.47273    0.13633    1.000
    C401     C        0.90687    0.59963    0.23113    1.000
    C402     C        0.85861    0.60538    0.24463    1.000
    C403     C        0.74447    0.46293    0.15953    1.000
    C404     C        0.77195    0.44841    0.11733    1.000
    C405     C        0.91870    0.60828    0.26313    1.000
    C406     C        0.87037    0.61399    0.27662    1.000
    C407     C        0.72087    0.42873    0.16383    1.000
    C408     C        0.74837    0.41433    0.12153    1.000
    C409     C        0.90047    0.61553    0.28587    1.000
    C410     C        0.72287    0.40453    0.14483    1.000
    C411     C        0.91497    0.62853    0.31883    1.000
    C412     C        0.69417    0.36933    0.14443    1.000
    C413     C        0.93917    0.62243    0.33403    1.000
    C414     C        0.90477    0.64793    0.33613    1.000
    C415     C        0.69987    0.34023    0.14793    1.000
    H109     H        0.94727    0.60993    0.32323    1.000
    C416     C        0.95097    0.63533    0.36543    1.000
    C417     C        0.91507    0.65993    0.36643    1.000
    H110     H        0.88957    0.65293    0.32593    1.000
    C418     C        0.93927    0.65403    0.38233    1.000
    C419     C        0.97647    0.62783    0.38172    1.000
    C420     C        0.90297    0.68063    0.38483    1.000
    H111     H        0.94707    0.66233    0.40323    1.000
    C421     C        0.97123    0.59509    0.38313    1.000
    C422     C        0.00557    0.65450    0.39533    1.000
    C423     C        0.89697    0.67843    0.41843    1.000
    C424     C        0.89557    0.70323    0.36663    1.000
    C425     C        0.99507    0.58903    0.39813    1.000
    C426     C        0.02941    0.64847    0.41033    1.000
    H112     H        0.90167    0.66473    0.43183    1.000
    C427     C        0.88337    0.69793    0.43163    1.000
    C428     C        0.88307    0.72063    0.38143    1.000
    H113     H        0.89957    0.70563    0.34413    1.000
    C429     C        0.02417    0.61571    0.41174    1.000
    H114     H        0.87997    0.69753    0.45413    1.000
    C430     C        0.87497    0.71733    0.41213    1.000
    H115     H        0.87997    0.73593    0.36893    1.000
    C431     C        0.05007    0.60833    0.42993    1.000
    C432     C        0.85837    0.73393    0.42903    1.000
    C433     C        0.76257    0.61913    0.08463    1.000
    C434     C        0.71267    0.42663    0.14843    1.000
    C435     C        0.73657    0.46073    0.14573    1.000
    C436     C        0.71797    0.40593    0.12703    1.000
    C437     C        0.74637    0.41663    0.10723    1.000
    C438     C        0.69257    0.36953    0.12323    1.000
    C439     C        0.70127    0.34263    0.12823    1.000
    C440     C        0.60847    0.45323    0.79133    1.000
    C441     C        0.64177    0.44663    0.78933    1.000
    C442     C        0.89127    0.63533    0.26753    1.000
    C443     C        0.87647    0.62543    0.23663    1.000
    C444     C        0.90497    0.59153    0.26903    1.000
    C445     C        0.89437    0.58393    0.23653    1.000
    C446     C        0.96907    0.60763    0.40953    1.000
    C447     C        0.99277    0.60303    0.42673    1.000
    C448     C        0.03377    0.63613    0.38393    1.000
    C449     C        0.00737    0.63643    0.36723    1.000
    O85      O        0.03827    0.57823    0.43833    1.000
    C450     C        0.60310    0.70466    0.08713    1.000
    In11     In       0.26892    0.84291    0.12447    1.000
    O86      O        0.25883    0.85357    0.17254    1.000
    O87      O        0.31053    0.87457    0.16107    1.000
    O88      O        0.25893    0.78727    0.14847    1.000
    O89      O        0.29523    0.81534    0.11437    1.000
    O90      O        0.30775    0.87944    0.08742    1.000
    O91      O        0.27392    0.89387    0.10867    1.000
    O92      O        0.21265    0.81811    0.12477    1.000
    O93      O        0.23483    0.81547    0.07927    1.000
    C451     C        0.28173    0.86847    0.18277    1.000
    C452     C        0.28143    0.78827    0.13027    1.000
    C453     C        0.29493    0.88197    0.20287    1.000
    C454     C        0.28933    0.76407    0.13047    1.000
    C455     C        0.27483    0.88517    0.23577    1.000
    C456     C        0.32283    0.90007    0.22047    1.000
    C457     C        0.27273    0.73257    0.14557    1.000
    C458     C        0.31693    0.77167    0.11047    1.000
    H116     H        0.25163    0.87497    0.23227    1.000
    C459     C        0.28433    0.89997    0.26817    1.000
    C460     C        0.34113    0.91677    0.25087    1.000
    H117     H        0.34013    0.90477    0.20557    1.000
    C461     C        0.28633    0.71017    0.14037    1.000
    C462     C        0.32973    0.74887    0.10627    1.000
    H118     H        0.26823    0.89927    0.28257    1.000
    C463     C        0.31793    0.91497    0.27707    1.000
    H119     H        0.36453    0.92727    0.25317    1.000
    H120     H        0.27583    0.68927    0.15087    1.000
    C464     C        0.31303    0.71807    0.12157    1.000
    H121     H        0.34883    0.75487    0.09347    1.000
    C465     C        0.32503    0.92667    0.31257    1.000
    C466     C        0.32163    0.68837    0.12157    1.000
    C467     C        0.34853    0.92307    0.33007    1.000
    C468     C        0.31023    0.94417    0.32837    1.000
    C469     C        0.35613    0.70117    0.12137    1.000
    H122     H        0.35833    0.91167    0.32027    1.000
    C470     C        0.35853    0.93517    0.36167    1.000
    C471     C        0.32013    0.95707    0.36017    1.000
    H123     H        0.29393    0.94697    0.31737    1.000
    H124     H        0.37123    0.72417    0.12097    1.000
    C472     C        0.34373    0.95197    0.37577    1.000
    C473     C        0.38279    0.93053    0.38027    1.000
    C474     C        0.30523    0.97647    0.37547    1.000
    H125     H        0.35003    0.96017    0.39697    1.000
    C475     C        0.38994    0.90538    0.37115    1.000
    C476     C        0.40093    0.95273    0.40557    1.000
    C477     C        0.32683    0.00517    0.39517    1.000
    C478     C        0.27313    0.96967    0.37097    1.000
    H126     H        0.37783    0.89057    0.35427    1.000
    C479     C        0.41523    0.90246    0.38727    1.000
    C480     C        0.42623    0.94987    0.42167    1.000
    H127     H        0.34943    0.01117    0.39797    1.000
    C481     C        0.31483    0.02427    0.41017    1.000
    C482     C        0.26183    0.98877    0.38817    1.000
    H128     H        0.25873    0.95267    0.35667    1.000
    H129     H        0.42003    0.88567    0.38117    1.000
    C483     C        0.43342    0.92473    0.41247    1.000
    H130     H        0.32933    0.04317    0.42257    1.000
    C484     C        0.28123    0.01507    0.40677    1.000
    H131     H        0.23903    0.98237    0.38637    1.000
    C485     C        0.46203    0.91917    0.43007    1.000
    C486     C        0.26873    0.03537    0.42397    1.000
    O94      O        0.47093    0.90047    0.41762    1.000
    O95      O        0.47118    0.93437    0.45573    1.000
    In12     In       0.50453    0.90703    0.46121    1.000
    O96      O        0.53716    0.90510    0.50308    1.000
    O97      O        0.50913    0.93295    0.51026    1.000
    O98      O        0.48834    0.85203    0.44843    1.000
    O99      O        0.45760    0.86336    0.48359    1.000
    O100     O        0.54970    0.92027    0.42694    1.000
    O101     O        0.54863    0.95947    0.45427    1.000
    C487     C        0.52803    0.92337    0.51987    1.000
    C488     C        0.46373    0.84367    0.46547    1.000
    C489     C        0.54353    0.93157    0.55518    1.000
    C490     C        0.43663    0.80607    0.46967    1.000
    C491     C        0.57353    0.93297    0.56447    1.000
    C492     C        0.52527    0.93872    0.57797    1.000
    C493     C        0.41113    0.79627    0.49287    1.000
    C494     C        0.43861    0.78175    0.45067    1.000
    C495     C        0.58536    0.94162    0.59647    1.000
    C496     C        0.53703    0.94733    0.60996    1.000
    C497     C        0.38753    0.76207    0.49717    1.000
    C498     C        0.41503    0.74767    0.45487    1.000
    C499     C        0.56713    0.94887    0.61921    1.000
    C500     C        0.38953    0.73787    0.47817    1.000
    C501     C        0.58163    0.96187    0.65217    1.000
    C502     C        0.36083    0.70267    0.47777    1.000
    C503     C        0.60583    0.95577    0.66737    1.000
    C504     C        0.57143    0.98127    0.66947    1.000
    C505     C        0.36653    0.67357    0.48127    1.000
    H132     H        0.61393    0.94327    0.65657    1.000
    C506     C        0.61763    0.96867    0.69877    1.000
    C507     C        0.58173    0.99327    0.69977    1.000
    H133     H        0.55623    0.98627    0.65927    1.000
    C508     C        0.60593    0.98737    0.71567    1.000
    C509     C        0.64313    0.96117    0.71506    1.000
    C510     C        0.56963    0.01397    0.71817    1.000
    H134     H        0.61373    0.99567    0.73657    1.000
    C511     C        0.63789    0.92843    0.71647    1.000
    C512     C        0.67223    0.98784    0.72867    1.000
    C513     C        0.56363    0.01177    0.75177    1.000
    C514     C        0.56223    0.03657    0.69997    1.000
    C515     C        0.66173    0.92237    0.73147    1.000
    C516     C        0.69607    0.98181    0.74367    1.000
    H135     H        0.56833    0.99807    0.76517    1.000
    C517     C        0.55003    0.03127    0.76497    1.000
    C518     C        0.54973    0.05397    0.71477    1.000
    H136     H        0.56623    0.03897    0.67747    1.000
    C519     C        0.69083    0.94905    0.74508    1.000
    H137     H        0.54663    0.03087    0.78747    1.000
    C520     C        0.54163    0.05067    0.74547    1.000
    H138     H        0.54663    0.06927    0.70227    1.000
    C521     C        0.71673    0.94167    0.76327    1.000
    C522     C        0.52503    0.06727    0.76237    1.000
    C523     C        0.42923    0.95247    0.41797    1.000
    C524     C        0.37933    0.75997    0.48177    1.000
    C525     C        0.40323    0.79407    0.47907    1.000
    C526     C        0.38463    0.73927    0.46037    1.000
    C527     C        0.41303    0.74997    0.44057    1.000
    C528     C        0.35923    0.70287    0.45657    1.000
    C529     C        0.36793    0.67597    0.46157    1.000
    C530     C        0.27513    0.78657    0.12467    1.000
    C531     C        0.30843    0.77997    0.12267    1.000
    C532     C        0.55793    0.96867    0.60087    1.000
    C533     C        0.54313    0.95877    0.56997    1.000
    C534     C        0.57163    0.92487    0.60237    1.000
    C535     C        0.56103    0.91727    0.56987    1.000
    C536     C        0.63573    0.94097    0.74287    1.000
    C537     C        0.65943    0.93637    0.76007    1.000
    C538     C        0.70043    0.96947    0.71727    1.000
    C539     C        0.67403    0.96977    0.70057    1.000
    O102     O        0.70493    0.91157    0.77167    1.000
    C540     C        0.26976    0.03800    0.42047    1.000
    In13     In       0.82375    0.75934    0.45780    1.000
    O103     O        0.81310    0.73860    0.50587    1.000
    O104     O        0.79210    0.76930    0.49440    1.000
    O105     O        0.87940    0.80500    0.48180    1.000
    O106     O        0.85133    0.81323    0.44770    1.000
    O107     O        0.78723    0.76165    0.42075    1.000
    O108     O        0.77280    0.71339    0.44200    1.000
    O109     O        0.84856    0.72788    0.45810    1.000
    O110     O        0.85120    0.75270    0.41260    1.000
    C541     C        0.79820    0.74660    0.51610    1.000
    C542     C        0.87840    0.82650    0.46360    1.000
    C543     C        0.78470    0.74630    0.53620    1.000
    C544     C        0.90260    0.85860    0.46380    1.000
    C545     C        0.78150    0.72300    0.56910    1.000
    C546     C        0.76660    0.75610    0.55380    1.000
    C547     C        0.93410    0.87350    0.47890    1.000
    C548     C        0.89500    0.87860    0.44380    1.000
    H139     H        0.79170    0.71000    0.56560    1.000
    C549     C        0.76670    0.71770    0.60150    1.000
    C550     C        0.74990    0.75770    0.58420    1.000
    H140     H        0.76190    0.76870    0.53890    1.000
    C551     C        0.95650    0.90950    0.47370    1.000
    C552     C        0.91780    0.91420    0.43960    1.000
    H141     H        0.76740    0.70230    0.61590    1.000
    C553     C        0.75170    0.73630    0.61040    1.000
    H142     H        0.73940    0.77060    0.58650    1.000
    H143     H        0.97740    0.91990    0.48420    1.000
    C554     C        0.94860    0.92830    0.45490    1.000
    H144     H        0.91180    0.92730    0.42680    1.000
    C555     C        0.74000    0.73170    0.64590    1.000
    C556     C        0.97830    0.96660    0.45490    1.000
    C557     C        0.74360    0.75880    0.66340    1.000
    C558     C        0.72250    0.69940    0.66170    1.000
    C559     C        0.96550    0.98830    0.45470    1.000
    H145     H        0.75500    0.78000    0.65360    1.000
    C560     C        0.73150    0.75670    0.69500    1.000
    C561     C        0.70960    0.69640    0.69350    1.000
    H146     H        0.71970    0.68030    0.65070    1.000
    H147     H        0.94250    0.98040    0.45430    1.000
    C562     C        0.71470    0.72510    0.70910    1.000
    C563     C        0.73614    0.78560    0.71360    1.000
    C564     C        0.69020    0.66210    0.70880    1.000
    H148     H        0.70650    0.72320    0.73030    1.000
    C565     C        0.76129    0.81790    0.70448    1.000
    C566     C        0.71394    0.78154    0.73890    1.000
    C567     C        0.66150    0.65500    0.72850    1.000
    C568     C        0.69700    0.63680    0.70430    1.000
    H149     H        0.77610    0.82060    0.68760    1.000
    C569     C        0.76421    0.84611    0.72060    1.000
    C570     C        0.71680    0.80970    0.75500    1.000
    H150     H        0.65550    0.67160    0.73130    1.000
    C571     C        0.64240    0.62390    0.74350    1.000
    C572     C        0.67790    0.60640    0.72150    1.000
    H151     H        0.71400    0.63940    0.69000    1.000
    H152     H        0.78100    0.86770    0.71450    1.000
    C573     C        0.74194    0.84203    0.74580    1.000
    H153     H        0.62350    0.61950    0.75590    1.000
    C574     C        0.65160    0.59950    0.74010    1.000
    H154     H        0.68430    0.59000    0.71970    1.000
    C575     C        0.74750    0.87620    0.76340    1.000
    C576     C        0.63130    0.56670    0.75730    1.000
    O111     O        0.76620    0.90380    0.75095    1.000
    O112     O        0.73230    0.87015    0.78906    1.000
    In14     In       0.75964    0.93083    0.79455    1.000
    O113     O        0.76157    0.96540    0.83641    1.000
    O114     O        0.73372    0.90952    0.84359    1.000
    O115     O        0.81464    0.96965    0.78176    1.000
    O116     O        0.80331    0.92758    0.81692    1.000
    O117     O        0.74640    0.96277    0.76027    1.000
    O118     O        0.70720    0.92250    0.78760    1.000
    C577     C        0.74330    0.93800    0.85320    1.000
    C578     C        0.82300    0.95340    0.79880    1.000
    C579     C        0.73510    0.94530    0.88851    1.000
    C580     C        0.86060    0.96390    0.80300    1.000
    C581     C        0.73370    0.97390    0.89780    1.000
    C582     C        0.72795    0.91989    0.91130    1.000
    C583     C        0.87040    0.94820    0.82620    1.000
    C584     C        0.88492    0.99020    0.78400    1.000
    C585     C        0.72505    0.97708    0.92980    1.000
    C586     C        0.71934    0.92304    0.94329    1.000
    C587     C        0.90460    0.95880    0.83050    1.000
    C588     C        0.91900    0.00070    0.78820    1.000
    C589     C        0.71780    0.95160    0.95254    1.000
    C590     C        0.92880    0.98500    0.81150    1.000
    C591     C        0.70480    0.95310    0.98550    1.000
    C592     C        0.96400    0.99150    0.81110    1.000
    C593     C        0.71090    0.98340    0.00070    1.000
    C594     C        0.68540    0.92350    0.00280    1.000
    C595     C        0.99310    0.02630    0.81460    1.000
    H155     H        0.72340    0.00400    0.98990    1.000
    C596     C        0.69800    0.98230    0.03210    1.000
    C597     C        0.67340    0.92180    0.03310    1.000
    H156     H        0.68040    0.90330    0.99260    1.000
    C598     C        0.67930    0.95190    0.04900    1.000
    C599     C        0.70550    0.01530    0.04839    1.000
    C600     C        0.65270    0.88900    0.05150    1.000
    H157     H        0.67100    0.95140    0.06990    1.000
    C601     C        0.73824    0.04280    0.04980    1.000
    C602     C        0.67883    0.01773    0.06200    1.000
    C603     C        0.65490    0.88520    0.08510    1.000
    C604     C        0.63010    0.85900    0.03330    1.000
    C605     C        0.74430    0.07270    0.06480    1.000
    C606     C        0.68486    0.04760    0.07700    1.000
    H158     H        0.66860    0.90360    0.09850    1.000
    C607     C        0.63540    0.85210    0.09830    1.000
    C608     C        0.61270    0.82910    0.04810    1.000
    H159     H        0.62770    0.86060    0.01080    1.000
    C609     C        0.71762    0.07512    0.07841    1.000
    H160     H        0.63580    0.84910    0.12080    1.000
    C610     C        0.61600    0.82430    0.07880    1.000
    H161     H        0.59740    0.81070    0.03560    1.000
    C611     C        0.72500    0.10840    0.09660    1.000
    C612     C        0.59940    0.79110    0.09570    1.000
    C613     C        0.71420    0.81010    0.75130    1.000
    C614     C        0.90670    0.95270    0.81510    1.000
    C615     C        0.87260    0.94250    0.81240    1.000
    C616     C        0.92740    0.97870    0.79370    1.000
    C617     C        0.91670    0.99640    0.77390    1.000
    C618     C        0.96380    0.98970    0.78990    1.000
    C619     C        0.99070    0.02530    0.79490    1.000
    C620     C        0.88010    0.82190    0.45800    1.000
    C621     C        0.88670    0.86180    0.45600    1.000
    C622     C        0.69800    0.92260    0.93420    1.000
    C623     C        0.70790    0.91770    0.90330    1.000
    C624     C        0.74180    0.98010    0.93570    1.000
    C625     C        0.74940    0.97710    0.90320    1.000
    C626     C        0.72570    0.02810    0.07620    1.000
    C627     C        0.73030    0.05640    0.09340    1.000
    C628     C        0.69720    0.06430    0.05060    1.000
    C629     C        0.69690    0.03760    0.03390    1.000
    O119     O        0.75510    0.12670    0.10500    1.000
    C630     C        0.62867    0.56510    0.75380    1.000
    In15     In       0.49042    0.09268    0.79113    1.000
    O120     O        0.47977    0.07193    0.83920    1.000
    O121     O        0.45877    0.10263    0.82773    1.000
    O122     O        0.54607    0.13833    0.81513    1.000
    O123     O        0.51800    0.14656    0.78103    1.000
    O124     O        0.45390    0.09498    0.75408    1.000
    O125     O        0.43947    0.04672    0.77533    1.000
    O126     O        0.51523    0.06121    0.79143    1.000
    O127     O        0.51787    0.08603    0.74593    1.000
    C631     C        0.46487    0.07993    0.84943    1.000
    C632     C        0.54507    0.15983    0.79693    1.000
    C633     C        0.45137    0.07963    0.86953    1.000
    C634     C        0.56927    0.19193    0.79713    1.000
    C635     C        0.44817    0.05633    0.90243    1.000
    C636     C        0.43327    0.08943    0.88713    1.000
    C637     C        0.60077    0.20683    0.81223    1.000
    C638     C        0.56167    0.21193    0.77713    1.000
    H162     H        0.45837    0.04333    0.89893    1.000
    C639     C        0.43337    0.05103    0.93483    1.000
    C640     C        0.41657    0.09103    0.91753    1.000
    H163     H        0.42857    0.10203    0.87223    1.000
    C641     C        0.62317    0.24283    0.80703    1.000
    C642     C        0.58447    0.24753    0.77293    1.000
    H164     H        0.43407    0.03563    0.94923    1.000
    C643     C        0.41837    0.06963    0.94373    1.000
    H165     H        0.40607    0.10393    0.91983    1.000
    H166     H        0.64407    0.25323    0.81753    1.000
    C644     C        0.61527    0.26163    0.78823    1.000
    H167     H        0.57847    0.26063    0.76013    1.000
    C645     C        0.40667    0.06503    0.97923    1.000
    C646     C        0.64497    0.29993    0.78823    1.000
    C647     C        0.41027    0.09213    0.99673    1.000
    C648     C        0.38917    0.03273    0.99503    1.000
    C649     C        0.63217    0.32163    0.78803    1.000
    H168     H        0.42167    0.11333    0.98693    1.000
    C650     C        0.39817    0.09003    0.02833    1.000
    C651     C        0.37627    0.02973    0.02683    1.000
    H169     H        0.38637    0.01363    0.98403    1.000
    H170     H        0.60917    0.31373    0.78763    1.000
    C652     C        0.38137    0.05843    0.04243    1.000
    C653     C        0.40281    0.11893    0.04693    1.000
    C654     C        0.35687    0.99543    0.04213    1.000
    H171     H        0.37317    0.05653    0.06363    1.000
    C655     C        0.42796    0.15123    0.03781    1.000
    C656     C        0.38061    0.11487    0.07223    1.000
    C657     C        0.32817    0.98833    0.06183    1.000
    C658     C        0.36367    0.97013    0.03763    1.000
    H172     H        0.44277    0.15393    0.02093    1.000
    C659     C        0.43088    0.17944    0.05393    1.000
    C660     C        0.38347    0.14303    0.08833    1.000
    H173     H        0.32217    0.00493    0.06463    1.000
    C661     C        0.30907    0.95723    0.07683    1.000
    C662     C        0.34457    0.93973    0.05483    1.000
    H174     H        0.38067    0.97273    0.02333    1.000
    H175     H        0.44767    0.20103    0.04783    1.000
    C663     C        0.40861    0.17536    0.07913    1.000
    H176     H        0.29017    0.95283    0.08923    1.000
    C664     C        0.31827    0.93283    0.07343    1.000
    H177     H        0.35097    0.92333    0.05303    1.000
    C665     C        0.41417    0.20953    0.09673    1.000
    C666     C        0.29797    0.90003    0.09063    1.000
    O128     O        0.43287    0.23713    0.08428    1.000
    O129     O        0.39897    0.20348    0.12239    1.000
    In16     In       0.42630    0.26417    0.12788    1.000
    O130     O        0.42824    0.29873    0.16974    1.000
    O131     O        0.40039    0.24285    0.17692    1.000
    O132     O        0.48131    0.30298    0.11509    1.000
    O133     O        0.46998    0.26091    0.15025    1.000
    O134     O        0.41307    0.29610    0.09360    1.000
    O135     O        0.37387    0.25583    0.12093    1.000
    C667     C        0.40997    0.27133    0.18653    1.000
    C668     C        0.48967    0.28673    0.13213    1.000
    C669     C        0.40177    0.27863    0.22184    1.000
    C670     C        0.52727    0.29723    0.13633    1.000
    C671     C        0.40037    0.30723    0.23113    1.000
    C672     C        0.39462    0.25322    0.24463    1.000
    C673     C        0.53707    0.28153    0.15953    1.000
    C674     C        0.55159    0.32353    0.11733    1.000
    C675     C        0.39172    0.31041    0.26313    1.000
    C676     C        0.38601    0.25637    0.27662    1.000
    C677     C        0.57127    0.29213    0.16383    1.000
    C678     C        0.58567    0.33403    0.12153    1.000
    C679     C        0.38447    0.28493    0.28587    1.000
    C680     C        0.59547    0.31833    0.14483    1.000
    C681     C        0.37147    0.28643    0.31883    1.000
    C682     C        0.63067    0.32483    0.14443    1.000
    C683     C        0.37757    0.31673    0.33403    1.000
    C684     C        0.35207    0.25683    0.33613    1.000
    C685     C        0.65977    0.35963    0.14793    1.000
    H178     H        0.39007    0.33733    0.32323    1.000
    C686     C        0.36467    0.31563    0.36543    1.000
    C687     C        0.34007    0.25513    0.36643    1.000
    H179     H        0.34707    0.23663    0.32593    1.000
    C688     C        0.34597    0.28523    0.38233    1.000
    C689     C        0.37217    0.34863    0.38172    1.000
    C690     C        0.31937    0.22233    0.38483    1.000
    H180     H        0.33767    0.28473    0.40323    1.000
    C691     C        0.40491    0.37613    0.38313    1.000
    C692     C        0.34550    0.35106    0.39533    1.000
    C693     C        0.32157    0.21853    0.41843    1.000
    C694     C        0.29677    0.19233    0.36663    1.000
    C695     C        0.41097    0.40603    0.39813    1.000
    C696     C        0.35153    0.38093    0.41033    1.000
    H181     H        0.33527    0.23693    0.43183    1.000
    C697     C        0.30207    0.18543    0.43163    1.000
    C698     C        0.27937    0.16243    0.38143    1.000
    H182     H        0.29437    0.19393    0.34413    1.000
    C699     C        0.38429    0.40845    0.41174    1.000
    H183     H        0.30247    0.18243    0.45413    1.000
    C700     C        0.28267    0.15763    0.41213    1.000
    H184     H        0.26407    0.14403    0.36893    1.000
    C701     C        0.39167    0.44173    0.42993    1.000
    C702     C        0.26607    0.12443    0.42903    1.000
    C703     C        0.38087    0.14343    0.08463    1.000
    C704     C        0.57337    0.28603    0.14843    1.000
    C705     C        0.53927    0.27583    0.14573    1.000
    C706     C        0.59407    0.31203    0.12703    1.000
    C707     C        0.58337    0.32973    0.10723    1.000
    C708     C        0.63047    0.32303    0.12323    1.000
    C709     C        0.65737    0.35863    0.12823    1.000
    C710     C        0.54677    0.15523    0.79133    1.000
    C711     C        0.55337    0.19513    0.78933    1.000
    C712     C        0.36467    0.25593    0.26753    1.000
    C713     C        0.37457    0.25103    0.23663    1.000
    C714     C        0.40847    0.31343    0.26903    1.000
    C715     C        0.41607    0.31043    0.23653    1.000
    C716     C        0.39237    0.36143    0.40953    1.000
    C717     C        0.39697    0.38973    0.42673    1.000
    C718     C        0.36387    0.39763    0.38393    1.000
    C719     C        0.36357    0.37093    0.36723    1.000
    O136     O        0.42177    0.46003    0.43833    1.000
    C720     C        0.29534    0.89843    0.08713    1.000
    In17     In       0.15709    0.42601    0.12447    1.000
    O137     O        0.14643    0.40527    0.17254    1.000
    O138     O        0.12543    0.43597    0.16107    1.000
    O139     O        0.21273    0.47167    0.14847    1.000
    O140     O        0.18466    0.47990    0.11437    1.000
    O141     O        0.12056    0.42832    0.08742    1.000
    O142     O        0.10613    0.38006    0.10867    1.000
    O143     O        0.18189    0.39455    0.12477    1.000
    O144     O        0.18453    0.41937    0.07927    1.000
    C721     C        0.13153    0.41327    0.18277    1.000
    C722     C        0.21173    0.49317    0.13027    1.000
    C723     C        0.11803    0.41297    0.20287    1.000
    C724     C        0.23593    0.52527    0.13047    1.000
    C725     C        0.11483    0.38967    0.23577    1.000
    C726     C        0.09993    0.42277    0.22047    1.000
    C727     C        0.26743    0.54017    0.14557    1.000
    C728     C        0.22833    0.54527    0.11047    1.000
    H185     H        0.12503    0.37667    0.23227    1.000
    C729     C        0.10003    0.38437    0.26817    1.000
    C730     C        0.08323    0.42437    0.25087    1.000
    H186     H        0.09523    0.43537    0.20557    1.000
    C731     C        0.28983    0.57617    0.14037    1.000
    C732     C        0.25113    0.58087    0.10627    1.000
    H187     H        0.10073    0.36897    0.28257    1.000
    C733     C        0.08503    0.40297    0.27707    1.000
    H188     H        0.07273    0.43727    0.25317    1.000
    H189     H        0.31073    0.58657    0.15087    1.000
    C734     C        0.28193    0.59497    0.12157    1.000
    H190     H        0.24513    0.59397    0.09347    1.000
    C735     C        0.07333    0.39837    0.31257    1.000
    C736     C        0.31163    0.63327    0.12157    1.000
    C737     C        0.07693    0.42547    0.33007    1.000
    C738     C        0.05583    0.36607    0.32837    1.000
    C739     C        0.29883    0.65497    0.12137    1.000
    H191     H        0.08833    0.44667    0.32027    1.000
    C740     C        0.06483    0.42337    0.36167    1.000
    C741     C        0.04293    0.36307    0.36017    1.000
    H192     H        0.05303    0.34697    0.31737    1.000
    H193     H        0.27583    0.64707    0.12097    1.000
    C742     C        0.04803    0.39177    0.37577    1.000
    C743     C        0.06947    0.45227    0.38027    1.000
    C744     C        0.02353    0.32877    0.37547    1.000
    H194     H        0.03983    0.38987    0.39697    1.000
    C745     C        0.09462    0.48457    0.37115    1.000
    C746     C        0.04727    0.44821    0.40557    1.000
    C747     C        0.99483    0.32167    0.39517    1.000
    C748     C        0.03033    0.30347    0.37097    1.000
    H195     H        0.10943    0.48727    0.35427    1.000
    C749     C        0.09754    0.51278    0.38727    1.000
    C750     C        0.05013    0.47637    0.42167    1.000
    H196     H        0.98883    0.33827    0.39797    1.000
    C751     C        0.97573    0.29057    0.41017    1.000
    C752     C        0.01123    0.27307    0.38817    1.000
    H197     H        0.04733    0.30607    0.35667    1.000
    H198     H        0.11433    0.53437    0.38117    1.000
    C753     C        0.07527    0.50870    0.41247    1.000
    H199     H        0.95683    0.28617    0.42257    1.000
    C754     C        0.98493    0.26617    0.40677    1.000
    H200     H        0.01763    0.25667    0.38637    1.000
    C755     C        0.08083    0.54287    0.43007    1.000
    C756     C        0.96463    0.23337    0.42397    1.000
    O145     O        0.09953    0.57047    0.41762    1.000
    O146     O        0.06563    0.53682    0.45573    1.000
    In18     In       0.09297    0.59750    0.46121    1.000
    O147     O        0.09490    0.63207    0.50308    1.000
    O148     O        0.06705    0.57619    0.51026    1.000
    O149     O        0.14797    0.63632    0.44843    1.000
    O150     O        0.13664    0.59425    0.48359    1.000
    O151     O        0.07973    0.62944    0.42694    1.000
    O152     O        0.04053    0.58917    0.45427    1.000
    C757     C        0.07663    0.60467    0.51987    1.000
    C758     C        0.15633    0.62007    0.46547    1.000
    C759     C        0.06843    0.61197    0.55518    1.000
    C760     C        0.19393    0.63057    0.46967    1.000
    C761     C        0.06703    0.64057    0.56447    1.000
    C762     C        0.06128    0.58656    0.57797    1.000
    C763     C        0.20373    0.61487    0.49287    1.000
    C764     C        0.21825    0.65687    0.45067    1.000
    C765     C        0.05838    0.64375    0.59647    1.000
    C766     C        0.05267    0.58971    0.60996    1.000
    C767     C        0.23793    0.62547    0.49717    1.000
    C768     C        0.25233    0.66737    0.45487    1.000
    C769     C        0.05113    0.61827    0.61921    1.000
    C770     C        0.26213    0.65167    0.47817    1.000
    C771     C        0.03813    0.61977    0.65217    1.000
    C772     C        0.29733    0.65817    0.47777    1.000
    C773     C        0.04423    0.65007    0.66737    1.000
    C774     C        0.01873    0.59017    0.66947    1.000
    C775     C        0.32643    0.69297    0.48127    1.000
    H201     H        0.05673    0.67067    0.65657    1.000
    C776     C        0.03133    0.64897    0.69877    1.000
    C777     C        0.00673    0.58847    0.69977    1.000
    H202     H        0.01373    0.56997    0.65927    1.000
    C778     C        0.01263    0.61857    0.71567    1.000
    C779     C        0.03883    0.68197    0.71506    1.000
    C780     C        0.98603    0.55567    0.71817    1.000
    H203     H        0.00433    0.61807    0.73657    1.000
    C781     C        0.07157    0.70947    0.71647    1.000
    C782     C        0.01216    0.68440    0.72867    1.000
    C783     C        0.98823    0.55187    0.75177    1.000
    C784     C        0.96343    0.52567    0.69997    1.000
    C785     C        0.07763    0.73937    0.73147    1.000
    C786     C        0.01819    0.71427    0.74367    1.000
    H204     H        0.00193    0.57027    0.76517    1.000
    C787     C        0.96873    0.51877    0.76497    1.000
    C788     C        0.94603    0.49577    0.71477    1.000
    H205     H        0.96103    0.52727    0.67747    1.000
    C789     C        0.05095    0.74179    0.74508    1.000
    H206     H        0.96913    0.51577    0.78747    1.000
    C790     C        0.94933    0.49097    0.74547    1.000
    H207     H        0.93073    0.47737    0.70227    1.000
    C791     C        0.05833    0.77507    0.76327    1.000
    C792     C        0.93273    0.45777    0.76237    1.000
    C793     C        0.04753    0.47677    0.41797    1.000
    C794     C        0.24003    0.61937    0.48177    1.000
    C795     C        0.20593    0.60917    0.47907    1.000
    C796     C        0.26073    0.64537    0.46037    1.000
    C797     C        0.25003    0.66307    0.44057    1.000
    C798     C        0.29713    0.65637    0.45657    1.000
    C799     C        0.32403    0.69197    0.46157    1.000
    C800     C        0.21343    0.48857    0.12467    1.000
    C801     C        0.22003    0.52847    0.12267    1.000
    C802     C        0.03133    0.58927    0.60087    1.000
    C803     C        0.04123    0.58437    0.56997    1.000
    C804     C        0.07513    0.64677    0.60237    1.000
    C805     C        0.08273    0.64377    0.56987    1.000
    C806     C        0.05903    0.69477    0.74287    1.000
    C807     C        0.06363    0.72307    0.76007    1.000
    C808     C        0.03053    0.73097    0.71727    1.000
    C809     C        0.03023    0.70427    0.70057    1.000
    O153     O        0.08843    0.79337    0.77167    1.000
    C810     C        0.96200    0.23177    0.42047    1.000
    In19     In       0.75934    0.93559    0.54220    1.000
    O154     O        0.73860    0.92550    0.49413    1.000
    O155     O        0.76930    0.97720    0.50560    1.000
    O156     O        0.80500    0.92560    0.51820    1.000
    O157     O        0.81323    0.96190    0.55230    1.000
    O158     O        0.76165    0.97442    0.57925    1.000
    O159     O        0.71339    0.94059    0.55800    1.000
    O160     O        0.72788    0.87932    0.54190    1.000
    O161     O        0.75270    0.90150    0.58740    1.000
    C811     C        0.74660    0.94840    0.48390    1.000
    C812     C        0.82650    0.94810    0.53640    1.000
    C813     C        0.74630    0.96160    0.46380    1.000
    C814     C        0.85860    0.95600    0.53620    1.000
    C815     C        0.72300    0.94150    0.43090    1.000
    C816     C        0.75610    0.98950    0.44620    1.000
    C817     C        0.87350    0.93940    0.52110    1.000
    C818     C        0.87860    0.98360    0.55620    1.000
    H208     H        0.71000    0.91830    0.43440    1.000
    C819     C        0.71770    0.95100    0.39850    1.000
    C820     C        0.75770    0.00780    0.41580    1.000
    H209     H        0.76870    0.00680    0.46110    1.000
    C821     C        0.90950    0.95300    0.52630    1.000
    C822     C        0.91420    0.99640    0.56040    1.000
    H210     H        0.70230    0.93490    0.38410    1.000
    C823     C        0.73630    0.98460    0.38960    1.000
    H211     H        0.77060    0.03120    0.41350    1.000
    H212     H        0.91990    0.94250    0.51580    1.000
    C824     C        0.92830    0.97970    0.54510    1.000
    H213     H        0.92730    0.01550    0.57320    1.000
    C825     C        0.73170    0.99170    0.35410    1.000
    C826     C        0.96660    0.98830    0.54510    1.000
    C827     C        0.75880    0.01520    0.33660    1.000
    C828     C        0.69940    0.97690    0.33830    1.000
    C829     C        0.98830    0.02280    0.54530    1.000
    H214     H        0.78000    0.02500    0.34640    1.000
    C830     C        0.75670    0.02520    0.30500    1.000
    C831     C        0.69640    0.98680    0.30650    1.000
    H215     H        0.68030    0.96060    0.34930    1.000
    H216     H        0.98040    0.03790    0.54570    1.000
    C832     C        0.72510    0.01040    0.29090    1.000
    C833     C        0.78560    0.04946    0.28640    1.000
    C834     C        0.66210    0.97190    0.29120    1.000
    H217     H        0.72320    0.01670    0.26970    1.000
    C835     C        0.81790    0.05661    0.29552    1.000
    C836     C        0.78154    0.06760    0.26110    1.000
    C837     C        0.65500    0.99350    0.27150    1.000
    C838     C        0.63680    0.93980    0.29570    1.000
    H218     H        0.82060    0.04450    0.31240    1.000
    C839     C        0.84611    0.08190    0.27940    1.000
    C840     C        0.80970    0.09290    0.24500    1.000
    H219     H        0.67160    0.01610    0.26870    1.000
    C841     C        0.62390    0.98150    0.25650    1.000
    C842     C        0.60640    0.92850    0.27850    1.000
    H220     H        0.63940    0.92540    0.31000    1.000
    H221     H        0.86770    0.08670    0.28550    1.000
    C843     C        0.84203    0.10009    0.25420    1.000
    H222     H        0.61950    0.99600    0.24410    1.000
    C844     C        0.59950    0.94790    0.25990    1.000
    H223     H        0.59000    0.90570    0.28030    1.000
    C845     C        0.87620    0.12870    0.23660    1.000
    C846     C        0.56670    0.93540    0.24270    1.000
    O162     O        0.90380    0.13760    0.24905    1.000
    O163     O        0.87015    0.13785    0.21094    1.000
    In20     In       0.93083    0.17120    0.20545    1.000
    O164     O        0.96540    0.20383    0.16359    1.000
    O165     O        0.90952    0.17580    0.15641    1.000
    O166     O        0.96965    0.15501    0.21824    1.000
    O167     O        0.92758    0.12427    0.18308    1.000
    O168     O        0.96277    0.21637    0.23973    1.000
    O169     O        0.92250    0.21530    0.21240    1.000
    C847     C        0.93800    0.19470    0.14680    1.000
    C848     C        0.95340    0.13040    0.20120    1.000
    C849     C        0.94530    0.21020    0.11149    1.000
    C850     C        0.96390    0.10330    0.19700    1.000
    C851     C        0.97390    0.24020    0.10220    1.000
    C852     C        0.91989    0.19194    0.08870    1.000
    C853     C        0.94820    0.07780    0.17380    1.000
    C854     C        0.99020    0.10528    0.21600    1.000
    C855     C        0.97708    0.25203    0.07020    1.000
    C856     C        0.92304    0.20370    0.05671    1.000
    C857     C        0.95880    0.05420    0.16950    1.000
    C858     C        0.00070    0.08170    0.21180    1.000
    C859     C        0.95160    0.23380    0.04746    1.000
    C860     C        0.98500    0.05620    0.18850    1.000
    C861     C        0.95310    0.24830    0.01450    1.000
    C862     C        0.99150    0.02750    0.18890    1.000
    C863     C        0.98340    0.27250    0.99930    1.000
    C864     C        0.92350    0.23810    0.99720    1.000
    C865     C        0.02630    0.03320    0.18540    1.000
    H224     H        0.00400    0.28060    0.01010    1.000
    C866     C        0.98230    0.28430    0.96790    1.000
    C867     C        0.92180    0.24840    0.96690    1.000
    H225     H        0.90330    0.22290    0.00740    1.000
    C868     C        0.95190    0.27260    0.95100    1.000
    C869     C        0.01530    0.30980    0.95161    1.000
    C870     C        0.88900    0.23630    0.94850    1.000
    H226     H        0.95140    0.28040    0.93010    1.000
    C871     C        0.04280    0.30456    0.95020    1.000
    C872     C        0.01773    0.33890    0.93800    1.000
    C873     C        0.88520    0.23030    0.91490    1.000
    C874     C        0.85900    0.22890    0.96670    1.000
    C875     C        0.07270    0.32840    0.93520    1.000
    C876     C        0.04760    0.36274    0.92300    1.000
    H227     H        0.90360    0.23500    0.90150    1.000
    C877     C        0.85210    0.21670    0.90170    1.000
    C878     C        0.82910    0.21640    0.95190    1.000
    H228     H        0.86060    0.23290    0.98920    1.000
    C879     C        0.07512    0.35750    0.92159    1.000
    H229     H        0.84910    0.21330    0.87920    1.000
    C880     C        0.82430    0.20830    0.92120    1.000
    H230     H        0.81070    0.21330    0.96440    1.000
    C881     C        0.10840    0.38340    0.90340    1.000
    C882     C        0.79110    0.19170    0.90430    1.000
    C883     C        0.81010    0.09590    0.24870    1.000
    C884     C        0.95270    0.04600    0.18490    1.000
    C885     C        0.94250    0.06990    0.18760    1.000
    C886     C        0.97870    0.05130    0.20630    1.000
    C887     C        0.99640    0.07970    0.22610    1.000
    C888     C        0.98970    0.02590    0.21010    1.000
    C889     C        0.02530    0.03460    0.20510    1.000
    C890     C        0.82190    0.94180    0.54200    1.000
    C891     C        0.86180    0.97510    0.54400    1.000
    C892     C        0.92260    0.22460    0.06580    1.000
    C893     C        0.91770    0.20980    0.09670    1.000
    C894     C        0.98010    0.23830    0.06430    1.000
    C895     C        0.97710    0.22770    0.09680    1.000
    C896     C        0.02810    0.30240    0.92380    1.000
    C897     C        0.05640    0.32610    0.90660    1.000
    C898     C        0.06430    0.36710    0.94940    1.000
    C899     C        0.03760    0.34070    0.96610    1.000
    O170     O        0.12670    0.37160    0.89500    1.000
    C900     C        0.56510    0.93643    0.24620    1.000
    In21     In       0.42601    0.26892    0.87553    1.000
    O171     O        0.40527    0.25883    0.82746    1.000
    O172     O        0.43597    0.31053    0.83893    1.000
    O173     O        0.47167    0.25893    0.85153    1.000
    O174     O        0.47990    0.29523    0.88563    1.000
    O175     O        0.42832    0.30775    0.91258    1.000
    O176     O        0.38006    0.27392    0.89133    1.000
    O177     O        0.39455    0.21265    0.87523    1.000
    O178     O        0.41937    0.23483    0.92073    1.000
    C901     C        0.41327    0.28173    0.81723    1.000
    C902     C        0.49317    0.28143    0.86973    1.000
    C903     C        0.41297    0.29493    0.79713    1.000
    C904     C        0.52527    0.28933    0.86953    1.000
    C905     C        0.38967    0.27483    0.76423    1.000
    C906     C        0.42277    0.32283    0.77953    1.000
    C907     C        0.54017    0.27273    0.85443    1.000
    C908     C        0.54527    0.31693    0.88953    1.000
    H231     H        0.37667    0.25163    0.76773    1.000
    C909     C        0.38437    0.28433    0.73183    1.000
    C910     C        0.42437    0.34113    0.74913    1.000
    H232     H        0.43537    0.34013    0.79443    1.000
    C911     C        0.57617    0.28633    0.85963    1.000
    C912     C        0.58087    0.32973    0.89373    1.000
    H233     H        0.36897    0.26823    0.71743    1.000
    C913     C        0.40297    0.31793    0.72293    1.000
    H234     H        0.43727    0.36453    0.74683    1.000
    H235     H        0.58657    0.27583    0.84913    1.000
    C914     C        0.59497    0.31303    0.87843    1.000
    H236     H        0.59397    0.34883    0.90653    1.000
    C915     C        0.39837    0.32503    0.68743    1.000
    C916     C        0.63327    0.32163    0.87843    1.000
    C917     C        0.42547    0.34853    0.66993    1.000
    C918     C        0.36607    0.31023    0.67163    1.000
    C919     C        0.65497    0.35613    0.87863    1.000
    H237     H        0.44667    0.35833    0.67973    1.000
    C920     C        0.42337    0.35853    0.63833    1.000
    C921     C        0.36307    0.32013    0.63983    1.000
    H238     H        0.34697    0.29393    0.68263    1.000
    H239     H        0.64707    0.37123    0.87903    1.000
    C922     C        0.39177    0.34373    0.62423    1.000
    C923     C        0.45227    0.38279    0.61973    1.000
    C924     C        0.32877    0.30523    0.62453    1.000
    H240     H        0.38987    0.35003    0.60303    1.000
    C925     C        0.48457    0.38994    0.62885    1.000
    C926     C        0.44821    0.40093    0.59443    1.000
    C927     C        0.32167    0.32683    0.60483    1.000
    C928     C        0.30347    0.27313    0.62903    1.000
    H241     H        0.48727    0.37783    0.64573    1.000
    C929     C        0.51278    0.41523    0.61273    1.000
    C930     C        0.47637    0.42623    0.57833    1.000
    H242     H        0.33827    0.34943    0.60203    1.000
    C931     C        0.29057    0.31483    0.58983    1.000
    C932     C        0.27307    0.26183    0.61183    1.000
    H243     H        0.30607    0.25873    0.64333    1.000
    H244     H        0.53437    0.42003    0.61883    1.000
    C933     C        0.50870    0.43342    0.58753    1.000
    H245     H        0.28617    0.32933    0.57743    1.000
    C934     C        0.26617    0.28123    0.59323    1.000
    H246     H        0.25667    0.23903    0.61363    1.000
    C935     C        0.54287    0.46203    0.56993    1.000
    C936     C        0.23337    0.26873    0.57603    1.000
    O179     O        0.57047    0.47093    0.58238    1.000
    O180     O        0.53682    0.47118    0.54427    1.000
    In22     In       0.59750    0.50453    0.53879    1.000
    O181     O        0.63207    0.53716    0.49692    1.000
    O182     O        0.57619    0.50913    0.48974    1.000
    O183     O        0.63632    0.48834    0.55157    1.000
    O184     O        0.59425    0.45760    0.51641    1.000
    O185     O        0.62944    0.54970    0.57306    1.000
    O186     O        0.58917    0.54863    0.54573    1.000
    C937     C        0.60467    0.52803    0.48013    1.000
    C938     C        0.62007    0.46373    0.53453    1.000
    C939     C        0.61197    0.54353    0.44482    1.000
    C940     C        0.63057    0.43663    0.53033    1.000
    C941     C        0.64057    0.57353    0.43553    1.000
    C942     C        0.58656    0.52527    0.42203    1.000
    C943     C        0.61487    0.41113    0.50713    1.000
    C944     C        0.65687    0.43861    0.54933    1.000
    C945     C        0.64375    0.58536    0.40353    1.000
    C946     C        0.58971    0.53703    0.39004    1.000
    C947     C        0.62547    0.38753    0.50283    1.000
    C948     C        0.66737    0.41503    0.54513    1.000
    C949     C        0.61827    0.56713    0.38079    1.000
    C950     C        0.65167    0.38953    0.52183    1.000
    C951     C        0.61977    0.58163    0.34783    1.000
    C952     C        0.65817    0.36083    0.52223    1.000
    C953     C        0.65007    0.60583    0.33263    1.000
    C954     C        0.59017    0.57143    0.33053    1.000
    C955     C        0.69297    0.36653    0.51873    1.000
    H247     H        0.67067    0.61393    0.34343    1.000
    C956     C        0.64897    0.61763    0.30123    1.000
    C957     C        0.58847    0.58173    0.30023    1.000
    H248     H        0.56997    0.55623    0.34073    1.000
    C958     C        0.61857    0.60593    0.28433    1.000
    C959     C        0.68197    0.64313    0.28494    1.000
    C960     C        0.55567    0.56963    0.28183    1.000
    H249     H        0.61807    0.61373    0.26343    1.000
    C961     C        0.70947    0.63789    0.28353    1.000
    C962     C        0.68440    0.67223    0.27133    1.000
    C963     C        0.55187    0.56363    0.24823    1.000
    C964     C        0.52567    0.56223    0.30003    1.000
    C965     C        0.73937    0.66173    0.26853    1.000
    C966     C        0.71427    0.69607    0.25633    1.000
    H250     H        0.57027    0.56833    0.23483    1.000
    C967     C        0.51877    0.55003    0.23503    1.000
    C968     C        0.49577    0.54973    0.28523    1.000
    H251     H        0.52727    0.56623    0.32253    1.000
    C969     C        0.74179    0.69083    0.25492    1.000
    H252     H        0.51577    0.54663    0.21253    1.000
    C970     C        0.49097    0.54163    0.25453    1.000
    H253     H        0.47737    0.54663    0.29773    1.000
    C971     C        0.77507    0.71673    0.23673    1.000
    C972     C        0.45777    0.52503    0.23763    1.000
    C973     C        0.47677    0.42923    0.58203    1.000
    C974     C        0.61937    0.37933    0.51823    1.000
    C975     C        0.60917    0.40323    0.52093    1.000
    C976     C        0.64537    0.38463    0.53963    1.000
    C977     C        0.66307    0.41303    0.55943    1.000
    C978     C        0.65637    0.35923    0.54343    1.000
    C979     C        0.69197    0.36793    0.53843    1.000
    C980     C        0.48857    0.27513    0.87533    1.000
    C981     C        0.52847    0.30843    0.87733    1.000
    C982     C        0.58927    0.55793    0.39913    1.000
    C983     C        0.58437    0.54313    0.43003    1.000
    C984     C        0.64677    0.57163    0.39763    1.000
    C985     C        0.64377    0.56103    0.43013    1.000
    C986     C        0.69477    0.63573    0.25713    1.000
    C987     C        0.72307    0.65943    0.23993    1.000
    C988     C        0.73097    0.70043    0.28273    1.000
    C989     C        0.70427    0.67403    0.29943    1.000
    O187     O        0.79337    0.70493    0.22833    1.000
    C990     C        0.23177    0.26976    0.57953    1.000
    In23     In       0.09268    0.60226    0.20887    1.000
    O188     O        0.07193    0.59217    0.16080    1.000
    O189     O        0.10263    0.64387    0.17227    1.000
    O190     O        0.13833    0.59227    0.18487    1.000
    O191     O        0.14656    0.62857    0.21897    1.000
    O192     O        0.09498    0.64109    0.24592    1.000
    O193     O        0.04672    0.60726    0.22467    1.000
    O194     O        0.06121    0.54599    0.20857    1.000
    O195     O        0.08603    0.56817    0.25407    1.000
    C991     C        0.07993    0.61507    0.15057    1.000
    C992     C        0.15983    0.61477    0.20307    1.000
    C993     C        0.07963    0.62827    0.13047    1.000
    C994     C        0.19193    0.62267    0.20287    1.000
    C995     C        0.05633    0.60817    0.09757    1.000
    C996     C        0.08943    0.65617    0.11287    1.000
    C997     C        0.20683    0.60607    0.18777    1.000
    C998     C        0.21193    0.65027    0.22287    1.000
    H254     H        0.04333    0.58497    0.10107    1.000
    C999     C        0.05103    0.61767    0.06517    1.000
    C1000    C        0.09103    0.67447    0.08247    1.000
    H255     H        0.10203    0.67347    0.12777    1.000
    C1001    C        0.24283    0.61967    0.19297    1.000
    C1002    C        0.24753    0.66307    0.22707    1.000
    H256     H        0.03563    0.60157    0.05077    1.000
    C1003    C        0.06963    0.65127    0.05627    1.000
    H257     H        0.10393    0.69787    0.08017    1.000
    H258     H        0.25323    0.60917    0.18247    1.000
    C1004    C        0.26163    0.64637    0.21177    1.000
    H259     H        0.26063    0.68217    0.23987    1.000
    C1005    C        0.06503    0.65837    0.02077    1.000
    C1006    C        0.29993    0.65497    0.21177    1.000
    C1007    C        0.09213    0.68187    0.00327    1.000
    C1008    C        0.03273    0.64357    0.00497    1.000
    C1009    C        0.32163    0.68947    0.21197    1.000
    H260     H        0.11333    0.69167    0.01307    1.000
    C1010    C        0.09003    0.69187    0.97167    1.000
    C1011    C        0.02973    0.65347    0.97317    1.000
    H261     H        0.01363    0.62727    0.01597    1.000
    H262     H        0.31373    0.70457    0.21237    1.000
    C1012    C        0.05843    0.67707    0.95757    1.000
    C1013    C        0.11893    0.71613    0.95307    1.000
    C1014    C        0.99543    0.63857    0.95787    1.000
    H263     H        0.05653    0.68337    0.93637    1.000
    C1015    C        0.15123    0.72328    0.96219    1.000
    C1016    C        0.11487    0.73427    0.92777    1.000
    C1017    C        0.98833    0.66017    0.93817    1.000
    C1018    C        0.97013    0.60647    0.96237    1.000
    H264     H        0.15393    0.71117    0.97907    1.000
    C1019    C        0.17944    0.74857    0.94607    1.000
    C1020    C        0.14303    0.75957    0.91167    1.000
    H265     H        0.00493    0.68277    0.93537    1.000
    C1021    C        0.95723    0.64817    0.92317    1.000
    C1022    C        0.93973    0.59517    0.94517    1.000
    H266     H        0.97273    0.59207    0.97667    1.000
    H267     H        0.20103    0.75337    0.95217    1.000
    C1023    C        0.17536    0.76676    0.92087    1.000
    H268     H        0.95283    0.66267    0.91077    1.000
    C1024    C        0.93283    0.61457    0.92657    1.000
    H269     H        0.92333    0.57237    0.94697    1.000
    C1025    C        0.20953    0.79537    0.90327    1.000
    C1026    C        0.90003    0.60207    0.90937    1.000
    O196     O        0.23713    0.80427    0.91572    1.000
    O197     O        0.20348    0.80452    0.87761    1.000
    In24     In       0.26417    0.83786    0.87212    1.000
    O198     O        0.29873    0.87050    0.83026    1.000
    O199     O        0.24285    0.84247    0.82308    1.000
    O200     O        0.30298    0.82168    0.88491    1.000
    O201     O        0.26091    0.79094    0.84975    1.000
    O202     O        0.29610    0.88304    0.90640    1.000
    O203     O        0.25583    0.88197    0.87907    1.000
    C1027    C        0.27133    0.86137    0.81347    1.000
    C1028    C        0.28673    0.79707    0.86787    1.000
    C1029    C        0.27863    0.87687    0.77816    1.000
    C1030    C        0.29723    0.76997    0.86367    1.000
    C1031    C        0.30723    0.90687    0.76887    1.000
    C1032    C        0.25322    0.85861    0.75537    1.000
    C1033    C        0.28153    0.74447    0.84047    1.000
    C1034    C        0.32353    0.77195    0.88267    1.000
    C1035    C        0.31041    0.91870    0.73687    1.000
    C1036    C        0.25637    0.87037    0.72338    1.000
    C1037    C        0.29213    0.72087    0.83617    1.000
    C1038    C        0.33403    0.74837    0.87847    1.000
    C1039    C        0.28493    0.90047    0.71413    1.000
    C1040    C        0.31833    0.72287    0.85517    1.000
    C1041    C        0.28643    0.91497    0.68117    1.000
    C1042    C        0.32483    0.69417    0.85557    1.000
    C1043    C        0.31673    0.93917    0.66597    1.000
    C1044    C        0.25683    0.90477    0.66387    1.000
    C1045    C        0.35963    0.69987    0.85207    1.000
    H270     H        0.33733    0.94727    0.67677    1.000
    C1046    C        0.31563    0.95097    0.63457    1.000
    C1047    C        0.25513    0.91507    0.63357    1.000
    H271     H        0.23663    0.88957    0.67407    1.000
    C1048    C        0.28523    0.93927    0.61767    1.000
    C1049    C        0.34863    0.97647    0.61828    1.000
    C1050    C        0.22233    0.90297    0.61517    1.000
    H272     H        0.28473    0.94707    0.59677    1.000
    C1051    C        0.37613    0.97123    0.61687    1.000
    C1052    C        0.35106    0.00557    0.60467    1.000
    C1053    C        0.21853    0.89697    0.58157    1.000
    C1054    C        0.19233    0.89557    0.63337    1.000
    C1055    C        0.40603    0.99507    0.60187    1.000
    C1056    C        0.38093    0.02941    0.58967    1.000
    H273     H        0.23693    0.90167    0.56817    1.000
    C1057    C        0.18543    0.88337    0.56837    1.000
    C1058    C        0.16243    0.88307    0.61857    1.000
    H274     H        0.19393    0.89957    0.65587    1.000
    C1059    C        0.40845    0.02417    0.58826    1.000
    H275     H        0.18243    0.87997    0.54587    1.000
    C1060    C        0.15763    0.87497    0.58787    1.000
    H276     H        0.14403    0.87997    0.63107    1.000
    C1061    C        0.44173    0.05007    0.57007    1.000
    C1062    C        0.12443    0.85837    0.57097    1.000
    C1063    C        0.14343    0.76257    0.91537    1.000
    C1064    C        0.28603    0.71267    0.85157    1.000
    C1065    C        0.27583    0.73657    0.85427    1.000
    C1066    C        0.31203    0.71797    0.87297    1.000
    C1067    C        0.32973    0.74637    0.89277    1.000
    C1068    C        0.32303    0.69257    0.87677    1.000
    C1069    C        0.35863    0.70127    0.87177    1.000
    C1070    C        0.15523    0.60847    0.20867    1.000
    C1071    C        0.19513    0.64177    0.21067    1.000
    C1072    C        0.25593    0.89127    0.73247    1.000
    C1073    C        0.25103    0.87647    0.76337    1.000
    C1074    C        0.31343    0.90497    0.73097    1.000
    C1075    C        0.31043    0.89437    0.76347    1.000
    C1076    C        0.36143    0.96907    0.59047    1.000
    C1077    C        0.38973    0.99277    0.57327    1.000
    C1078    C        0.39763    0.03377    0.61607    1.000
    C1079    C        0.37093    0.00737    0.63277    1.000
    O204     O        0.46003    0.03827    0.56167    1.000
    C1080    C        0.89843    0.60310    0.91287    1.000
    In25     In       0.06441    0.82375    0.54220    1.000
    O205     O        0.07450    0.81310    0.49413    1.000
    O206     O        0.02280    0.79210    0.50560    1.000
    O207     O        0.07440    0.87940    0.51820    1.000
    O208     O        0.03810    0.85133    0.55230    1.000
    O209     O        0.02558    0.78723    0.57925    1.000
    O210     O        0.05941    0.77280    0.55800    1.000
    O211     O        0.12068    0.84856    0.54190    1.000
    O212     O        0.09850    0.85120    0.58740    1.000
    C1081    C        0.05160    0.79820    0.48390    1.000
    C1082    C        0.05190    0.87840    0.53640    1.000
    C1083    C        0.03840    0.78470    0.46380    1.000
    C1084    C        0.04400    0.90260    0.53620    1.000
    C1085    C        0.05850    0.78150    0.43090    1.000
    C1086    C        0.01050    0.76660    0.44620    1.000
    C1087    C        0.06060    0.93410    0.52110    1.000
    C1088    C        0.01640    0.89500    0.55620    1.000
    H277     H        0.08170    0.79170    0.43440    1.000
    C1089    C        0.04900    0.76670    0.39850    1.000
    C1090    C        0.99220    0.74990    0.41580    1.000
    H278     H        0.99320    0.76190    0.46110    1.000
    C1091    C        0.04700    0.95650    0.52630    1.000
    C1092    C        0.00360    0.91780    0.56040    1.000
    H279     H        0.06510    0.76740    0.38410    1.000
    C1093    C        0.01540    0.75170    0.38960    1.000
    H280     H        0.96880    0.73940    0.41350    1.000
    H281     H        0.05750    0.97740    0.51580    1.000
    C1094    C        0.02030    0.94860    0.54510    1.000
    H282     H        0.98450    0.91180    0.57320    1.000
    C1095    C        0.00830    0.74000    0.35410    1.000
    C1096    C        0.01170    0.97830    0.54510    1.000
    C1097    C        0.98480    0.74360    0.33660    1.000
    C1098    C        0.02310    0.72250    0.33830    1.000
    C1099    C        0.97720    0.96550    0.54530    1.000
    H283     H        0.97500    0.75500    0.34640    1.000
    C1100    C        0.97480    0.73150    0.30500    1.000
    C1101    C        0.01320    0.70960    0.30650    1.000
    H284     H        0.03940    0.71970    0.34930    1.000
    H285     H        0.96210    0.94250    0.54570    1.000
    C1102    C        0.98960    0.71470    0.29090    1.000
    C1103    C        0.95054    0.73614    0.28640    1.000
    C1104    C        0.02810    0.69020    0.29120    1.000
    H286     H        0.98330    0.70650    0.26970    1.000
    C1105    C        0.94339    0.76129    0.29552    1.000
    C1106    C        0.93240    0.71394    0.26110    1.000
    C1107    C        0.00650    0.66150    0.27150    1.000
    C1108    C        0.06020    0.69700    0.29570    1.000
    H287     H        0.95550    0.77610    0.31240    1.000
    C1109    C        0.91810    0.76421    0.27940    1.000
    C1110    C        0.90710    0.71680    0.24500    1.000
    H288     H        0.98390    0.65550    0.26870    1.000
    C1111    C        0.01850    0.64240    0.25650    1.000
    C1112    C        0.07150    0.67790    0.27850    1.000
    H289     H        0.07460    0.71400    0.31000    1.000
    H290     H        0.91330    0.78100    0.28550    1.000
    C1113    C        0.89991    0.74194    0.25420    1.000
    H291     H        0.00400    0.62350    0.24410    1.000
    C1114    C        0.05210    0.65160    0.25990    1.000
    H292     H        0.09430    0.68430    0.28030    1.000
    C1115    C        0.87130    0.74750    0.23660    1.000
    C1116    C        0.06460    0.63130    0.24270    1.000
    O213     O        0.86240    0.76620    0.24905    1.000
    O214     O        0.86215    0.73230    0.21094    1.000
    In26     In       0.82880    0.75964    0.20545    1.000
    O215     O        0.79617    0.76157    0.16359    1.000
    O216     O        0.82420    0.73372    0.15641    1.000
    O217     O        0.84499    0.81464    0.21824    1.000
    O218     O        0.87573    0.80331    0.18308    1.000
    O219     O        0.78363    0.74640    0.23973    1.000
    O220     O        0.78470    0.70720    0.21240    1.000
    C1117    C        0.80530    0.74330    0.14680    1.000
    C1118    C        0.86960    0.82300    0.20120    1.000
    C1119    C        0.78980    0.73510    0.11149    1.000
    C1120    C        0.89670    0.86060    0.19700    1.000
    C1121    C        0.75980    0.73370    0.10220    1.000
    C1122    C        0.80806    0.72795    0.08870    1.000
    C1123    C        0.92220    0.87040    0.17380    1.000
    C1124    C        0.89472    0.88492    0.21600    1.000
    C1125    C        0.74797    0.72505    0.07020    1.000
    C1126    C        0.79630    0.71934    0.05671    1.000
    C1127    C        0.94580    0.90460    0.16950    1.000
    C1128    C        0.91830    0.91900    0.21180    1.000
    C1129    C        0.76620    0.71780    0.04746    1.000
    C1130    C        0.94380    0.92880    0.18850    1.000
    C1131    C        0.75170    0.70480    0.01450    1.000
    C1132    C        0.97250    0.96400    0.18890    1.000
    C1133    C        0.72750    0.71090    0.99930    1.000
    C1134    C        0.76190    0.68540    0.99720    1.000
    C1135    C        0.96680    0.99310    0.18540    1.000
    H293     H        0.71940    0.72340    0.01010    1.000
    C1136    C        0.71570    0.69800    0.96790    1.000
    C1137    C        0.75160    0.67340    0.96690    1.000
    H294     H        0.77710    0.68040    0.00740    1.000
    C1138    C        0.72740    0.67930    0.95100    1.000
    C1139    C        0.69020    0.70550    0.95161    1.000
    C1140    C        0.76370    0.65270    0.94850    1.000
    H295     H        0.71960    0.67100    0.93010    1.000
    C1141    C        0.69544    0.73824    0.95020    1.000
    C1142    C        0.66110    0.67883    0.93800    1.000
    C1143    C        0.76970    0.65490    0.91490    1.000
    C1144    C        0.77110    0.63010    0.96670    1.000
    C1145    C        0.67160    0.74430    0.93520    1.000
    C1146    C        0.63726    0.68486    0.92300    1.000
    H296     H        0.76500    0.66860    0.90150    1.000
    C1147    C        0.78330    0.63540    0.90170    1.000
    C1148    C        0.78360    0.61270    0.95190    1.000
    H297     H        0.76710    0.62770    0.98920    1.000
    C1149    C        0.64250    0.71762    0.92159    1.000
    H298     H        0.78670    0.63580    0.87920    1.000
    C1150    C        0.79170    0.61600    0.92120    1.000
    H299     H        0.78670    0.59740    0.96440    1.000
    C1151    C        0.61660    0.72500    0.90340    1.000
    C1152    C        0.80830    0.59940    0.90430    1.000
    C1153    C        0.90410    0.71420    0.24870    1.000
    C1154    C        0.95400    0.90670    0.18490    1.000
    C1155    C        0.93010    0.87260    0.18760    1.000
    C1156    C        0.94870    0.92740    0.20630    1.000
    C1157    C        0.92030    0.91670    0.22610    1.000
    C1158    C        0.97410    0.96380    0.21010    1.000
    C1159    C        0.96540    0.99070    0.20510    1.000
    C1160    C        0.05820    0.88010    0.54200    1.000
    C1161    C        0.02490    0.88670    0.54400    1.000
    C1162    C        0.77540    0.69800    0.06580    1.000
    C1163    C        0.79020    0.70790    0.09670    1.000
    C1164    C        0.76170    0.74180    0.06430    1.000
    C1165    C        0.77230    0.74940    0.09680    1.000
    C1166    C        0.69760    0.72570    0.92380    1.000
    C1167    C        0.67390    0.73030    0.90660    1.000
    C1168    C        0.63290    0.69720    0.94940    1.000
    C1169    C        0.65930    0.69690    0.96610    1.000
    O221     O        0.62840    0.75510    0.89500    1.000
    C1170    C        0.06357    0.62867    0.24620    1.000
    In27     In       0.73108    0.15709    0.87553    1.000
    O222     O        0.74117    0.14643    0.82746    1.000
    O223     O        0.68947    0.12543    0.83893    1.000
    O224     O        0.74107    0.21273    0.85153    1.000
    O225     O        0.70477    0.18466    0.88563    1.000
    O226     O        0.69225    0.12056    0.91258    1.000
    O227     O        0.72608    0.10613    0.89133    1.000
    O228     O        0.78735    0.18189    0.87523    1.000
    O229     O        0.76517    0.18453    0.92073    1.000
    C1171    C        0.71827    0.13153    0.81723    1.000
    C1172    C        0.71857    0.21173    0.86973    1.000
    C1173    C        0.70507    0.11803    0.79713    1.000
    C1174    C        0.71067    0.23593    0.86953    1.000
    C1175    C        0.72517    0.11483    0.76423    1.000
    C1176    C        0.67717    0.09993    0.77953    1.000
    C1177    C        0.72727    0.26743    0.85443    1.000
    C1178    C        0.68307    0.22833    0.88953    1.000
    H300     H        0.74837    0.12503    0.76773    1.000
    C1179    C        0.71567    0.10003    0.73183    1.000
    C1180    C        0.65887    0.08323    0.74913    1.000
    H301     H        0.65987    0.09523    0.79443    1.000
    C1181    C        0.71367    0.28983    0.85963    1.000
    C1182    C        0.67027    0.25113    0.89373    1.000
    H302     H        0.73177    0.10073    0.71743    1.000
    C1183    C        0.68207    0.08503    0.72293    1.000
    H303     H        0.63547    0.07273    0.74683    1.000
    H304     H        0.72417    0.31073    0.84913    1.000
    C1184    C        0.68697    0.28193    0.87843    1.000
    H305     H        0.65117    0.24513    0.90653    1.000
    C1185    C        0.67497    0.07333    0.68743    1.000
    C1186    C        0.67837    0.31163    0.87843    1.000
    C1187    C        0.65147    0.07693    0.66993    1.000
    C1188    C        0.68977    0.05583    0.67163    1.000
    C1189    C        0.64387    0.29883    0.87863    1.000
    H306     H        0.64167    0.08833    0.67973    1.000
    C1190    C        0.64147    0.06483    0.63833    1.000
    C1191    C        0.67987    0.04293    0.63983    1.000
    H307     H        0.70607    0.05303    0.68263    1.000
    H308     H        0.62877    0.27583    0.87903    1.000
    C1192    C        0.65627    0.04803    0.62423    1.000
    C1193    C        0.61721    0.06947    0.61973    1.000
    C1194    C        0.69477    0.02353    0.62453    1.000
    H309     H        0.64997    0.03983    0.60303    1.000
    C1195    C        0.61006    0.09462    0.62885    1.000
    C1196    C        0.59907    0.04727    0.59443    1.000
    C1197    C        0.67317    0.99483    0.60483    1.000
    C1198    C        0.72687    0.03033    0.62903    1.000
    H310     H        0.62217    0.10943    0.64573    1.000
    C1199    C        0.58477    0.09754    0.61273    1.000
    C1200    C        0.57377    0.05013    0.57833    1.000
    H311     H        0.65057    0.98883    0.60203    1.000
    C1201    C        0.68517    0.97573    0.58983    1.000
    C1202    C        0.73817    0.01123    0.61183    1.000
    H312     H        0.74127    0.04733    0.64333    1.000
    H313     H        0.57997    0.11433    0.61883    1.000
    C1203    C        0.56658    0.07527    0.58753    1.000
    H314     H        0.67067    0.95683    0.57743    1.000
    C1204    C        0.71877    0.98493    0.59323    1.000
    H315     H        0.76097    0.01763    0.61363    1.000
    C1205    C        0.53797    0.08083    0.56993    1.000
    C1206    C        0.73127    0.96463    0.57603    1.000
    O230     O        0.52907    0.09953    0.58238    1.000
    O231     O        0.52882    0.06563    0.54427    1.000
    In28     In       0.49547    0.09297    0.53879    1.000
    O232     O        0.46284    0.09490    0.49692    1.000
    O233     O        0.49087    0.06705    0.48974    1.000
    O234     O        0.51166    0.14797    0.55157    1.000
    O235     O        0.54240    0.13664    0.51641    1.000
    O236     O        0.45030    0.07973    0.57306    1.000
    O237     O        0.45137    0.04053    0.54573    1.000
    C1207    C        0.47197    0.07663    0.48013    1.000
    C1208    C        0.53627    0.15633    0.53453    1.000
    C1209    C        0.45647    0.06843    0.44482    1.000
    C1210    C        0.56337    0.19393    0.53033    1.000
    C1211    C        0.42647    0.06703    0.43553    1.000
    C1212    C        0.47473    0.06128    0.42203    1.000
    C1213    C        0.58887    0.20373    0.50713    1.000
    C1214    C        0.56139    0.21825    0.54933    1.000
    C1215    C        0.41464    0.05838    0.40353    1.000
    C1216    C        0.46297    0.05267    0.39004    1.000
    C1217    C        0.61247    0.23793    0.50283    1.000
    C1218    C        0.58497    0.25233    0.54513    1.000
    C1219    C        0.43287    0.05113    0.38079    1.000
    C1220    C        0.61047    0.26213    0.52183    1.000
    C1221    C        0.41837    0.03813    0.34783    1.000
    C1222    C        0.63917    0.29733    0.52223    1.000
    C1223    C        0.39417    0.04423    0.33263    1.000
    C1224    C        0.42857    0.01873    0.33053    1.000
    C1225    C        0.63347    0.32643    0.51873    1.000
    H316     H        0.38607    0.05673    0.34343    1.000
    C1226    C        0.38237    0.03133    0.30123    1.000
    C1227    C        0.41827    0.00673    0.30023    1.000
    H317     H        0.44377    0.01373    0.34073    1.000
    C1228    C        0.39407    0.01263    0.28433    1.000
    C1229    C        0.35687    0.03883    0.28494    1.000
    C1230    C        0.43037    0.98603    0.28183    1.000
    H318     H        0.38627    0.00433    0.26343    1.000
    C1231    C        0.36211    0.07157    0.28353    1.000
    C1232    C        0.32777    0.01216    0.27133    1.000
    C1233    C        0.43637    0.98823    0.24823    1.000
    C1234    C        0.43777    0.96343    0.30003    1.000
    C1235    C        0.33827    0.07763    0.26853    1.000
    C1236    C        0.30393    0.01819    0.25633    1.000
    H319     H        0.43167    0.00193    0.23483    1.000
    C1237    C        0.44997    0.96873    0.23503    1.000
    C1238    C        0.45027    0.94603    0.28523    1.000
    H320     H        0.43377    0.96103    0.32253    1.000
    C1239    C        0.30917    0.05095    0.25492    1.000
    H321     H        0.45337    0.96913    0.21253    1.000
    C1240    C        0.45837    0.94933    0.25453    1.000
    H322     H        0.45337    0.93073    0.29773    1.000
    C1241    C        0.28327    0.05833    0.23673    1.000
    C1242    C        0.47497    0.93273    0.23763    1.000
    C1243    C        0.57077    0.04753    0.58203    1.000
    C1244    C        0.62067    0.24003    0.51823    1.000
    C1245    C        0.59677    0.20593    0.52093    1.000
    C1246    C        0.61537    0.26073    0.53963    1.000
    C1247    C        0.58697    0.25003    0.55943    1.000
    C1248    C        0.64077    0.29713    0.54343    1.000
    C1249    C        0.63207    0.32403    0.53843    1.000
    C1250    C        0.72487    0.21343    0.87533    1.000
    C1251    C        0.69157    0.22003    0.87733    1.000
    C1252    C        0.44207    0.03133    0.39913    1.000
    C1253    C        0.45687    0.04123    0.43003    1.000
    C1254    C        0.42837    0.07513    0.39763    1.000
    C1255    C        0.43897    0.08273    0.43013    1.000
    C1256    C        0.36427    0.05903    0.25713    1.000
    C1257    C        0.34057    0.06363    0.23993    1.000
    C1258    C        0.29957    0.03053    0.28273    1.000
    C1259    C        0.32597    0.03023    0.29943    1.000
    O238     O        0.29507    0.08843    0.22833    1.000
    C1260    C        0.73024    0.96200    0.57953    1.000
    In29     In       0.39774    0.49042    0.20887    1.000
    O239     O        0.40783    0.47977    0.16080    1.000
    O240     O        0.35613    0.45877    0.17227    1.000
    O241     O        0.40773    0.54607    0.18487    1.000
    O242     O        0.37143    0.51800    0.21897    1.000
    O243     O        0.35891    0.45390    0.24592    1.000
    O244     O        0.39274    0.43947    0.22467    1.000
    O245     O        0.45401    0.51523    0.20857    1.000
    O246     O        0.43183    0.51787    0.25407    1.000
    C1261    C        0.38493    0.46487    0.15057    1.000
    C1262    C        0.38523    0.54507    0.20307    1.000
    C1263    C        0.37173    0.45137    0.13047    1.000
    C1264    C        0.37733    0.56927    0.20287    1.000
    C1265    C        0.39183    0.44817    0.09757    1.000
    C1266    C        0.34383    0.43327    0.11287    1.000
    C1267    C        0.39393    0.60077    0.18777    1.000
    C1268    C        0.34973    0.56167    0.22287    1.000
    H323     H        0.41503    0.45837    0.10107    1.000
    C1269    C        0.38233    0.43337    0.06517    1.000
    C1270    C        0.32553    0.41657    0.08247    1.000
    H324     H        0.32653    0.42857    0.12777    1.000
    C1271    C        0.38033    0.62317    0.19297    1.000
    C1272    C        0.33693    0.58447    0.22707    1.000
    H325     H        0.39843    0.43407    0.05077    1.000
    C1273    C        0.34873    0.41837    0.05627    1.000
    H326     H        0.30213    0.40607    0.08017    1.000
    H327     H        0.39083    0.64407    0.18247    1.000
    C1274    C        0.35363    0.61527    0.21177    1.000
    H328     H        0.31783    0.57847    0.23987    1.000
    C1275    C        0.34163    0.40667    0.02077    1.000
    C1276    C        0.34503    0.64497    0.21177    1.000
    C1277    C        0.31813    0.41027    0.00327    1.000
    C1278    C        0.35643    0.38917    0.00497    1.000
    C1279    C        0.31053    0.63217    0.21197    1.000
    H329     H        0.30833    0.42167    0.01307    1.000
    C1280    C        0.30813    0.39817    0.97167    1.000
    C1281    C        0.34653    0.37627    0.97317    1.000
    H330     H        0.37273    0.38637    0.01597    1.000
    H331     H        0.29543    0.60917    0.21237    1.000
    C1282    C        0.32293    0.38137    0.95757    1.000
    C1283    C        0.28387    0.40281    0.95307    1.000
    C1284    C        0.36143    0.35687    0.95787    1.000
    H332     H        0.31663    0.37317    0.93637    1.000
    C1285    C        0.27672    0.42796    0.96219    1.000
    C1286    C        0.26573    0.38061    0.92777    1.000
    C1287    C        0.33983    0.32817    0.93817    1.000
    C1288    C        0.39353    0.36367    0.96237    1.000
    H333     H        0.28883    0.44277    0.97907    1.000
    C1289    C        0.25143    0.43088    0.94607    1.000
    C1290    C        0.24043    0.38347    0.91167    1.000
    H334     H        0.31723    0.32217    0.93537    1.000
    C1291    C        0.35183    0.30907    0.92317    1.000
    C1292    C        0.40483    0.34457    0.94517    1.000
    H335     H        0.40793    0.38067    0.97667    1.000
    H336     H        0.24663    0.44767    0.95217    1.000
    C1293    C        0.23324    0.40861    0.92087    1.000
    H337     H        0.33733    0.29017    0.91077    1.000
    C1294    C        0.38543    0.31827    0.92657    1.000
    H338     H        0.42763    0.35097    0.94697    1.000
    C1295    C        0.20463    0.41417    0.90327    1.000
    C1296    C        0.39793    0.29797    0.90937    1.000
    O247     O        0.19573    0.43287    0.91572    1.000
    O248     O        0.19548    0.39897    0.87761    1.000
    In30     In       0.16214    0.42630    0.87212    1.000
    O249     O        0.12950    0.42824    0.83026    1.000
    O250     O        0.15753    0.40039    0.82308    1.000
    O251     O        0.17832    0.48131    0.88491    1.000
    O252     O        0.20906    0.46998    0.84975    1.000
    O253     O        0.11696    0.41307    0.90640    1.000
    O254     O        0.11803    0.37387    0.87907    1.000
    C1297    C        0.13863    0.40997    0.81347    1.000
    C1298    C        0.20293    0.48967    0.86787    1.000
    C1299    C        0.12313    0.40177    0.77816    1.000
    C1300    C        0.23003    0.52727    0.86367    1.000
    C1301    C        0.09313    0.40037    0.76887    1.000
    C1302    C        0.14139    0.39462    0.75537    1.000
    C1303    C        0.25553    0.53707    0.84047    1.000
    C1304    C        0.22805    0.55159    0.88267    1.000
    C1305    C        0.08130    0.39172    0.73687    1.000
    C1306    C        0.12963    0.38601    0.72338    1.000
    C1307    C        0.27913    0.57127    0.83617    1.000
    C1308    C        0.25163    0.58567    0.87847    1.000
    C1309    C        0.09953    0.38447    0.71413    1.000
    C1310    C        0.27713    0.59547    0.85517    1.000
    C1311    C        0.08503    0.37147    0.68117    1.000
    C1312    C        0.30583    0.63067    0.85557    1.000
    C1313    C        0.06083    0.37757    0.66597    1.000
    C1314    C        0.09523    0.35207    0.66387    1.000
    C1315    C        0.30013    0.65977    0.85207    1.000
    H339     H        0.05273    0.39007    0.67677    1.000
    C1316    C        0.04903    0.36467    0.63457    1.000
    C1317    C        0.08493    0.34007    0.63357    1.000
    H340     H        0.11043    0.34707    0.67407    1.000
    C1318    C        0.06073    0.34597    0.61767    1.000
    C1319    C        0.02353    0.37217    0.61828    1.000
    C1320    C        0.09703    0.31937    0.61517    1.000
    H341     H        0.05293    0.33767    0.59677    1.000
    C1321    C        0.02877    0.40491    0.61687    1.000
    C1322    C        0.99443    0.34550    0.60467    1.000
    C1323    C        0.10303    0.32157    0.58157    1.000
    C1324    C        0.10443    0.29677    0.63337    1.000
    C1325    C        0.00493    0.41097    0.60187    1.000
    C1326    C        0.97059    0.35153    0.58967    1.000
    H342     H        0.09833    0.33527    0.56817    1.000
    C1327    C        0.11663    0.30207    0.56837    1.000
    C1328    C        0.11693    0.27937    0.61857    1.000
    H343     H        0.10043    0.29437    0.65587    1.000
    C1329    C        0.97583    0.38429    0.58826    1.000
    H344     H        0.12003    0.30247    0.54587    1.000
    C1330    C        0.12503    0.28267    0.58787    1.000
    H345     H        0.12003    0.26407    0.63107    1.000
    C1331    C        0.94993    0.39167    0.57007    1.000
    C1332    C        0.14163    0.26607    0.57097    1.000
    C1333    C        0.23743    0.38087    0.91537    1.000
    C1334    C        0.28733    0.57337    0.85157    1.000
    C1335    C        0.26343    0.53927    0.85427    1.000
    C1336    C        0.28203    0.59407    0.87297    1.000
    C1337    C        0.25363    0.58337    0.89277    1.000
    C1338    C        0.30743    0.63047    0.87677    1.000
    C1339    C        0.29873    0.65737    0.87177    1.000
    C1340    C        0.39153    0.54677    0.20867    1.000
    C1341    C        0.35823    0.55337    0.21067    1.000
    C1342    C        0.10873    0.36467    0.73247    1.000
    C1343    C        0.12353    0.37457    0.76337    1.000
    C1344    C        0.09503    0.40847    0.73097    1.000
    C1345    C        0.10563    0.41607    0.76347    1.000
    C1346    C        0.03093    0.39237    0.59047    1.000
    C1347    C        0.00723    0.39697    0.57327    1.000
    C1348    C        0.96623    0.36387    0.61607    1.000
    C1349    C        0.99263    0.36357    0.63277    1.000
    O255     O        0.96173    0.42177    0.56167    1.000
    C1350    C        0.39690    0.29534    0.91287    1.000
    In31     In       0.17625    0.24066    0.54220    1.000
    O256     O        0.18690    0.26140    0.49413    1.000
    O257     O        0.20790    0.23070    0.50560    1.000
    O258     O        0.12060    0.19500    0.51820    1.000
    O259     O        0.14867    0.18677    0.55230    1.000
    O260     O        0.21277    0.23835    0.57925    1.000
    O261     O        0.22720    0.28661    0.55800    1.000
    O262     O        0.15144    0.27212    0.54190    1.000
    O263     O        0.14880    0.24730    0.58740    1.000
    C1351    C        0.20180    0.25340    0.48390    1.000
    C1352    C        0.12160    0.17350    0.53640    1.000
    C1353    C        0.21530    0.25370    0.46380    1.000
    C1354    C        0.09740    0.14140    0.53620    1.000
    C1355    C        0.21850    0.27700    0.43090    1.000
    C1356    C        0.23340    0.24390    0.44620    1.000
    C1357    C        0.06590    0.12650    0.52110    1.000
    C1358    C        0.10500    0.12140    0.55620    1.000
    H346     H        0.20830    0.29000    0.43440    1.000
    C1359    C        0.23330    0.28230    0.39850    1.000
    C1360    C        0.25010    0.24230    0.41580    1.000
    H347     H        0.23810    0.23130    0.46110    1.000
    C1361    C        0.04350    0.09050    0.52630    1.000
    C1362    C        0.08220    0.08580    0.56040    1.000
    H348     H        0.23260    0.29770    0.38410    1.000
    C1363    C        0.24830    0.26370    0.38960    1.000
    H349     H        0.26060    0.22940    0.41350    1.000
    H350     H        0.02260    0.08010    0.51580    1.000
    C1364    C        0.05140    0.07170    0.54510    1.000
    H351     H        0.08820    0.07270    0.57320    1.000
    C1365    C        0.26000    0.26830    0.35410    1.000
    C1366    C        0.02170    0.03340    0.54510    1.000
    C1367    C        0.25640    0.24120    0.33660    1.000
    C1368    C        0.27750    0.30060    0.33830    1.000
    C1369    C        0.03450    0.01170    0.54530    1.000
    H352     H        0.24500    0.22000    0.34640    1.000
    C1370    C        0.26850    0.24330    0.30500    1.000
    C1371    C        0.29040    0.30360    0.30650    1.000
    H353     H        0.28030    0.31970    0.34930    1.000
    H354     H        0.05750    0.01960    0.54570    1.000
    C1372    C        0.28530    0.27490    0.29090    1.000
    C1373    C        0.26386    0.21440    0.28640    1.000
    C1374    C        0.30980    0.33790    0.29120    1.000
    H355     H        0.29350    0.27680    0.26970    1.000
    C1375    C        0.23871    0.18210    0.29552    1.000
    C1376    C        0.28606    0.21846    0.26110    1.000
    C1377    C        0.33850    0.34500    0.27150    1.000
    C1378    C        0.30300    0.36320    0.29570    1.000
    H356     H        0.22390    0.17940    0.31240    1.000
    C1379    C        0.23579    0.15389    0.27940    1.000
    C1380    C        0.28320    0.19030    0.24500    1.000
    H357     H        0.34450    0.32840    0.26870    1.000
    C1381    C        0.35760    0.37610    0.25650    1.000
    C1382    C        0.32210    0.39360    0.27850    1.000
    H358     H        0.28600    0.36060    0.31000    1.000
    H359     H        0.21900    0.13230    0.28550    1.000
    C1383    C        0.25806    0.15797    0.25420    1.000
    H360     H        0.37650    0.38050    0.24410    1.000
    C1384    C        0.34840    0.40050    0.25990    1.000
    H361     H        0.31570    0.41000    0.28030    1.000
    C1385    C        0.25250    0.12380    0.23660    1.000
    C1386    C        0.36870    0.43330    0.24270    1.000
    O264     O        0.23380    0.09620    0.24905    1.000
    O265     O        0.26770    0.12985    0.21094    1.000
    In32     In       0.24036    0.06917    0.20545    1.000
    O266     O        0.23843    0.03460    0.16359    1.000
    O267     O        0.26628    0.09048    0.15641    1.000
    O268     O        0.18536    0.03035    0.21824    1.000
    O269     O        0.19669    0.07242    0.18308    1.000
    O270     O        0.25360    0.03723    0.23973    1.000
    O271     O        0.29280    0.07750    0.21240    1.000
    C1387    C        0.25670    0.06200    0.14680    1.000
    C1388    C        0.17700    0.04660    0.20120    1.000
    C1389    C        0.26490    0.05470    0.11149    1.000
    C1390    C        0.13940    0.03610    0.19700    1.000
    C1391    C        0.26630    0.02610    0.10220    1.000
    C1392    C        0.27205    0.08011    0.08870    1.000
    C1393    C        0.12960    0.05180    0.17380    1.000
    C1394    C        0.11508    0.00980    0.21600    1.000
    C1395    C        0.27495    0.02292    0.07020    1.000
    C1396    C        0.28066    0.07696    0.05671    1.000
    C1397    C        0.09540    0.04120    0.16950    1.000
    C1398    C        0.08100    0.99930    0.21180    1.000
    C1399    C        0.28220    0.04840    0.04746    1.000
    C1400    C        0.07120    0.01500    0.18850    1.000
    C1401    C        0.29520    0.04690    0.01450    1.000
    C1402    C        0.03600    0.00850    0.18890    1.000
    C1403    C        0.28910    0.01660    0.99930    1.000
    C1404    C        0.31460    0.07650    0.99720    1.000
    C1405    C        0.00690    0.97370    0.18540    1.000
    H362     H        0.27660    0.99600    0.01010    1.000
    C1406    C        0.30200    0.01770    0.96790    1.000
    C1407    C        0.32660    0.07820    0.96690    1.000
    H363     H        0.31960    0.09670    0.00740    1.000
    C1408    C        0.32070    0.04810    0.95100    1.000
    C1409    C        0.29450    0.98470    0.95161    1.000
    C1410    C        0.34730    0.11100    0.94850    1.000
    H364     H        0.32900    0.04860    0.93010    1.000
    C1411    C        0.26176    0.95720    0.95020    1.000
    C1412    C        0.32117    0.98227    0.93800    1.000
    C1413    C        0.34510    0.11480    0.91490    1.000
    C1414    C        0.36990    0.14100    0.96670    1.000
    C1415    C        0.25570    0.92730    0.93520    1.000
    C1416    C        0.31514    0.95240    0.92300    1.000
    H365     H        0.33140    0.09640    0.90150    1.000
    C1417    C        0.36460    0.14790    0.90170    1.000
    C1418    C        0.38730    0.17090    0.95190    1.000
    H366     H        0.37230    0.13940    0.98920    1.000
    C1419    C        0.28238    0.92488    0.92159    1.000
    H367     H        0.36420    0.15090    0.87920    1.000
    C1420    C        0.38400    0.17570    0.92120    1.000
    H368     H        0.40260    0.18930    0.96440    1.000
    C1421    C        0.27500    0.89160    0.90340    1.000
    C1422    C        0.40060    0.20890    0.90430    1.000
    C1423    C        0.28580    0.18990    0.24870    1.000
    C1424    C        0.09330    0.04730    0.18490    1.000
    C1425    C        0.12740    0.05750    0.18760    1.000
    C1426    C        0.07260    0.02130    0.20630    1.000
    C1427    C        0.08330    0.00360    0.22610    1.000
    C1428    C        0.03620    0.01030    0.21010    1.000
    C1429    C        0.00930    0.97470    0.20510    1.000
    C1430    C        0.11990    0.17810    0.54200    1.000
    C1431    C        0.11330    0.13820    0.54400    1.000
    C1432    C        0.30200    0.07740    0.06580    1.000
    C1433    C        0.29210    0.08230    0.09670    1.000
    C1434    C        0.25820    0.01990    0.06430    1.000
    C1435    C        0.25060    0.02290    0.09680    1.000
    C1436    C        0.27430    0.97190    0.92380    1.000
    C1437    C        0.26970    0.94360    0.90660    1.000
    C1438    C        0.30280    0.93570    0.94940    1.000
    C1439    C        0.30310    0.96240    0.96610    1.000
    O272     O        0.24490    0.87330    0.89500    1.000
    C1440    C        0.37133    0.43490    0.24620    1.000
    In33     In       0.84291    0.57399    0.87553    1.000
    O273     O        0.85357    0.59473    0.82746    1.000
    O274     O        0.87457    0.56403    0.83893    1.000
    O275     O        0.78727    0.52833    0.85153    1.000
    O276     O        0.81534    0.52010    0.88563    1.000
    O277     O        0.87944    0.57168    0.91258    1.000
    O278     O        0.89387    0.61994    0.89133    1.000
    O279     O        0.81811    0.60545    0.87523    1.000
    O280     O        0.81547    0.58063    0.92073    1.000
    C1441    C        0.86847    0.58673    0.81723    1.000
    C1442    C        0.78827    0.50683    0.86973    1.000
    C1443    C        0.88197    0.58703    0.79713    1.000
    C1444    C        0.76407    0.47473    0.86953    1.000
    C1445    C        0.88517    0.61033    0.76423    1.000
    C1446    C        0.90007    0.57723    0.77953    1.000
    C1447    C        0.73257    0.45983    0.85443    1.000
    C1448    C        0.77167    0.45473    0.88953    1.000
    H369     H        0.87497    0.62333    0.76773    1.000
    C1449    C        0.89997    0.61563    0.73183    1.000
    C1450    C        0.91677    0.57563    0.74913    1.000
    H370     H        0.90477    0.56463    0.79443    1.000
    C1451    C        0.71017    0.42383    0.85963    1.000
    C1452    C        0.74887    0.41913    0.89373    1.000
    H371     H        0.89927    0.63103    0.71743    1.000
    C1453    C        0.91497    0.59703    0.72293    1.000
    H372     H        0.92727    0.56273    0.74683    1.000
    H373     H        0.68927    0.41343    0.84913    1.000
    C1454    C        0.71807    0.40503    0.87843    1.000
    H374     H        0.75487    0.40603    0.90653    1.000
    C1455    C        0.92667    0.60163    0.68743    1.000
    C1456    C        0.68837    0.36673    0.87843    1.000
    C1457    C        0.92307    0.57453    0.66993    1.000
    C1458    C        0.94417    0.63393    0.67163    1.000
    C1459    C        0.70117    0.34503    0.87863    1.000
    H375     H        0.91167    0.55333    0.67973    1.000
    C1460    C        0.93517    0.57663    0.63833    1.000
    C1461    C        0.95707    0.63693    0.63983    1.000
    H376     H        0.94697    0.65303    0.68263    1.000
    H377     H        0.72417    0.35293    0.87903    1.000
    C1462    C        0.95197    0.60823    0.62423    1.000
    C1463    C        0.93053    0.54773    0.61973    1.000
    C1464    C        0.97647    0.67123    0.62453    1.000
    H378     H        0.96017    0.61013    0.60303    1.000
    C1465    C        0.90538    0.51543    0.62885    1.000
    C1466    C        0.95273    0.55179    0.59443    1.000
    C1467    C        0.00517    0.67833    0.60483    1.000
    C1468    C        0.96967    0.69653    0.62903    1.000
    H379     H        0.89057    0.51273    0.64573    1.000
    C1469    C        0.90246    0.48722    0.61273    1.000
    C1470    C        0.94987    0.52363    0.57833    1.000
    H380     H        0.01117    0.66173    0.60203    1.000
    C1471    C        0.02427    0.70943    0.58983    1.000
    C1472    C        0.98877    0.72693    0.61183    1.000
    H381     H        0.95267    0.69393    0.64333    1.000
    H382     H        0.88567    0.46563    0.61883    1.000
    C1473    C        0.92473    0.49130    0.58753    1.000
    H383     H        0.04317    0.71383    0.57743    1.000
    C1474    C        0.01507    0.73383    0.59323    1.000
    H384     H        0.98237    0.74333    0.61363    1.000
    C1475    C        0.91917    0.45713    0.56993    1.000
    C1476    C        0.03537    0.76663    0.57603    1.000
    O281     O        0.90047    0.42953    0.58238    1.000
    O282     O        0.93437    0.46318    0.54427    1.000
    In34     In       0.90703    0.40250    0.53879    1.000
    O283     O        0.90510    0.36793    0.49692    1.000
    O284     O        0.93295    0.42381    0.48974    1.000
    O285     O        0.85203    0.36368    0.55157    1.000
    O286     O        0.86336    0.40575    0.51641    1.000
    O287     O        0.92027    0.37056    0.57306    1.000
    O288     O        0.95947    0.41083    0.54573    1.000
    C1477    C        0.92337    0.39533    0.48013    1.000
    C1478    C        0.84367    0.37993    0.53453    1.000
    C1479    C        0.93157    0.38803    0.44482    1.000
    C1480    C        0.80607    0.36943    0.53033    1.000
    C1481    C        0.93297    0.35943    0.43553    1.000
    C1482    C        0.93872    0.41344    0.42203    1.000
    C1483    C        0.79627    0.38513    0.50713    1.000
    C1484    C        0.78175    0.34313    0.54933    1.000
    C1485    C        0.94162    0.35625    0.40353    1.000
    C1486    C        0.94733    0.41029    0.39004    1.000
    C1487    C        0.76207    0.37453    0.50283    1.000
    C1488    C        0.74767    0.33263    0.54513    1.000
    C1489    C        0.94887    0.38173    0.38079    1.000
    C1490    C        0.73787    0.34833    0.52183    1.000
    C1491    C        0.96187    0.38023    0.34783    1.000
    C1492    C        0.70267    0.34183    0.52223    1.000
    C1493    C        0.95577    0.34993    0.33263    1.000
    C1494    C        0.98127    0.40983    0.33053    1.000
    C1495    C        0.67357    0.30703    0.51873    1.000
    H385     H        0.94327    0.32933    0.34343    1.000
    C1496    C        0.96867    0.35103    0.30123    1.000
    C1497    C        0.99327    0.41153    0.30023    1.000
    H386     H        0.98627    0.43003    0.34073    1.000
    C1498    C        0.98737    0.38143    0.28433    1.000
    C1499    C        0.96117    0.31803    0.28494    1.000
    C1500    C        0.01397    0.44433    0.28183    1.000
    H387     H        0.99567    0.38193    0.26343    1.000
    C1501    C        0.92843    0.29053    0.28353    1.000
    C1502    C        0.98784    0.31560    0.27133    1.000
    C1503    C        0.01177    0.44813    0.24823    1.000
    C1504    C        0.03657    0.47433    0.30003    1.000
    C1505    C        0.92237    0.26063    0.26853    1.000
    C1506    C        0.98181    0.28573    0.25633    1.000
    H388     H        0.99807    0.42973    0.23483    1.000
    C1507    C        0.03127    0.48123    0.23503    1.000
    C1508    C        0.05397    0.50423    0.28523    1.000
    H389     H        0.03897    0.47273    0.32253    1.000
    C1509    C        0.94905    0.25821    0.25492    1.000
    H390     H        0.03087    0.48423    0.21253    1.000
    C1510    C        0.05067    0.50903    0.25453    1.000
    H391     H        0.06927    0.52263    0.29773    1.000
    C1511    C        0.94167    0.22493    0.23673    1.000
    C1512    C        0.06727    0.54223    0.23763    1.000
    C1513    C        0.95247    0.52323    0.58203    1.000
    C1514    C        0.75997    0.38063    0.51823    1.000
    C1515    C        0.79407    0.39083    0.52093    1.000
    C1516    C        0.73927    0.35463    0.53963    1.000
    C1517    C        0.74997    0.33693    0.55943    1.000
    C1518    C        0.70287    0.34363    0.54343    1.000
    C1519    C        0.67597    0.30803    0.53843    1.000
    C1520    C        0.78657    0.51143    0.87533    1.000
    C1521    C        0.77997    0.47153    0.87733    1.000
    C1522    C        0.96867    0.41073    0.39913    1.000
    C1523    C        0.95877    0.41563    0.43003    1.000
    C1524    C        0.92487    0.35323    0.39763    1.000
    C1525    C        0.91727    0.35623    0.43013    1.000
    C1526    C        0.94097    0.30523    0.25713    1.000
    C1527    C        0.93637    0.27693    0.23993    1.000
    C1528    C        0.96947    0.26903    0.28273    1.000
    C1529    C        0.96977    0.29573    0.29943    1.000
    O289     O        0.91157    0.20663    0.22833    1.000
    C1530    C        0.03800    0.76823    0.57953    1.000
    In35     In       0.50958    0.90732    0.20887    1.000
    O290     O        0.52023    0.92807    0.16080    1.000
    O291     O        0.54123    0.89737    0.17227    1.000
    O292     O        0.45393    0.86167    0.18487    1.000
    O293     O        0.48200    0.85344    0.21897    1.000
    O294     O        0.54610    0.90502    0.24592    1.000
    O295     O        0.56053    0.95328    0.22467    1.000
    O296     O        0.48477    0.93879    0.20857    1.000
    O297     O        0.48213    0.91397    0.25407    1.000
    C1531    C        0.53513    0.92007    0.15057    1.000
    C1532    C        0.45493    0.84017    0.20307    1.000
    C1533    C        0.54863    0.92037    0.13047    1.000
    C1534    C        0.43073    0.80807    0.20287    1.000
    C1535    C        0.55183    0.94367    0.09757    1.000
    C1536    C        0.56673    0.91057    0.11287    1.000
    C1537    C        0.39923    0.79317    0.18777    1.000
    C1538    C        0.43833    0.78807    0.22287    1.000
    H392     H        0.54163    0.95667    0.10107    1.000
    C1539    C        0.56663    0.94897    0.06517    1.000
    C1540    C        0.58343    0.90897    0.08247    1.000
    H393     H        0.57143    0.89797    0.12777    1.000
    C1541    C        0.37683    0.75717    0.19297    1.000
    C1542    C        0.41553    0.75247    0.22707    1.000
    H394     H        0.56593    0.96437    0.05077    1.000
    C1543    C        0.58163    0.93037    0.05627    1.000
    H395     H        0.59393    0.89607    0.08017    1.000
    H396     H        0.35593    0.74677    0.18247    1.000
    C1544    C        0.38473    0.73837    0.21177    1.000
    H397     H        0.42153    0.73937    0.23987    1.000
    C1545    C        0.59333    0.93497    0.02077    1.000
    C1546    C        0.35503    0.70007    0.21177    1.000
    C1547    C        0.58973    0.90787    0.00327    1.000
    C1548    C        0.61083    0.96727    0.00497    1.000
    C1549    C        0.36783    0.67837    0.21197    1.000
    H398     H        0.57833    0.88667    0.01307    1.000
    C1550    C        0.60183    0.90997    0.97167    1.000
    C1551    C        0.62373    0.97027    0.97317    1.000
    H399     H        0.61363    0.98637    0.01597    1.000
    H400     H        0.39083    0.68627    0.21237    1.000
    C1552    C        0.61863    0.94157    0.95757    1.000
    C1553    C        0.59719    0.88107    0.95307    1.000
    C1554    C        0.64313    0.00457    0.95787    1.000
    H401     H        0.62683    0.94347    0.93637    1.000
    C1555    C        0.57204    0.84877    0.96219    1.000
    C1556    C        0.61939    0.88513    0.92777    1.000
    C1557    C        0.67183    0.01167    0.93817    1.000
    C1558    C        0.63633    0.02987    0.96237    1.000
    H402     H        0.55723    0.84607    0.97907    1.000
    C1559    C        0.56912    0.82056    0.94607    1.000
    C1560    C        0.61653    0.85697    0.91167    1.000
    H403     H        0.67783    0.99507    0.93537    1.000
    C1561    C        0.69093    0.04277    0.92317    1.000
    C1562    C        0.65543    0.06027    0.94517    1.000
    H404     H        0.61933    0.02727    0.97667    1.000
    H405     H        0.55233    0.79897    0.95217    1.000
    C1563    C        0.59139    0.82464    0.92087    1.000
    H406     H        0.70983    0.04717    0.91077    1.000
    C1564    C        0.68173    0.06717    0.92657    1.000
    H407     H        0.64903    0.07667    0.94697    1.000
    C1565    C        0.58583    0.79047    0.90327    1.000
    C1566    C        0.70203    0.09997    0.90937    1.000
    O298     O        0.56713    0.76287    0.91572    1.000
    O299     O        0.60103    0.79652    0.87761    1.000
    In36     In       0.57370    0.73583    0.87212    1.000
    O300     O        0.57176    0.70127    0.83026    1.000
    O301     O        0.59961    0.75715    0.82308    1.000
    O302     O        0.51869    0.69702    0.88491    1.000
    O303     O        0.53002    0.73909    0.84975    1.000
    O304     O        0.58693    0.70390    0.90640    1.000
    O305     O        0.62613    0.74417    0.87907    1.000
    C1567    C        0.59003    0.72867    0.81347    1.000
    C1568    C        0.51033    0.71327    0.86787    1.000
    C1569    C        0.59823    0.72137    0.77816    1.000
    C1570    C        0.47273    0.70277    0.86367    1.000
    C1571    C        0.59963    0.69277    0.76887    1.000
    C1572    C        0.60538    0.74678    0.75537    1.000
    C1573    C        0.46293    0.71847    0.84047    1.000
    C1574    C        0.44841    0.67647    0.88267    1.000
    C1575    C        0.60828    0.68959    0.73687    1.000
    C1576    C        0.61399    0.74363    0.72338    1.000
    C1577    C        0.42873    0.70787    0.83617    1.000
    C1578    C        0.41433    0.66597    0.87847    1.000
    C1579    C        0.61553    0.71507    0.71413    1.000
    C1580    C        0.40453    0.68167    0.85517    1.000
    C1581    C        0.62853    0.71357    0.68117    1.000
    C1582    C        0.36933    0.67517    0.85557    1.000
    C1583    C        0.62243    0.68327    0.66597    1.000
    C1584    C        0.64793    0.74317    0.66387    1.000
    C1585    C        0.34023    0.64037    0.85207    1.000
    H408     H        0.60993    0.66267    0.67677    1.000
    C1586    C        0.63533    0.68437    0.63457    1.000
    C1587    C        0.65993    0.74487    0.63357    1.000
    H409     H        0.65293    0.76337    0.67407    1.000
    C1588    C        0.65403    0.71477    0.61767    1.000
    C1589    C        0.62783    0.65137    0.61828    1.000
    C1590    C        0.68063    0.77767    0.61517    1.000
    H410     H        0.66233    0.71527    0.59677    1.000
    C1591    C        0.59509    0.62387    0.61687    1.000
    C1592    C        0.65450    0.64894    0.60467    1.000
    C1593    C        0.67843    0.78147    0.58157    1.000
    C1594    C        0.70323    0.80767    0.63337    1.000
    C1595    C        0.58903    0.59397    0.60187    1.000
    C1596    C        0.64847    0.61907    0.58967    1.000
    H411     H        0.66473    0.76307    0.56817    1.000
    C1597    C        0.69793    0.81457    0.56837    1.000
    C1598    C        0.72063    0.83757    0.61857    1.000
    H412     H        0.70563    0.80607    0.65587    1.000
    C1599    C        0.61571    0.59155    0.58826    1.000
    H413     H        0.69753    0.81757    0.54587    1.000
    C1600    C        0.71733    0.84237    0.58787    1.000
    H414     H        0.73593    0.85597    0.63107    1.000
    C1601    C        0.60833    0.55827    0.57007    1.000
    C1602    C        0.73393    0.87557    0.57097    1.000
    C1603    C        0.61913    0.85657    0.91537    1.000
    C1604    C        0.42663    0.71397    0.85157    1.000
    C1605    C        0.46073    0.72417    0.85427    1.000
    C1606    C        0.40593    0.68797    0.87297    1.000
    C1607    C        0.41663    0.67027    0.89277    1.000
    C1608    C        0.36953    0.67697    0.87677    1.000
    C1609    C        0.34263    0.64137    0.87177    1.000
    C1610    C        0.45323    0.84477    0.20867    1.000
    C1611    C        0.44663    0.80487    0.21067    1.000
    C1612    C        0.63533    0.74407    0.73247    1.000
    C1613    C        0.62543    0.74897    0.76337    1.000
    C1614    C        0.59153    0.68657    0.73097    1.000
    C1615    C        0.58393    0.68957    0.76347    1.000
    C1616    C        0.60763    0.63857    0.59047    1.000
    C1617    C        0.60303    0.61027    0.57327    1.000
    C1618    C        0.63613    0.60237    0.61607    1.000
    C1619    C        0.63643    0.62907    0.63277    1.000
    O306     O        0.57823    0.53997    0.56167    1.000
    C1620    C        0.70466    0.10157    0.91287    1.000
