data_functionalizedCrystal
_audit_creation_method	'EQeq! by Chris Wilmer'
_symmetry_space_group_name_H-M	'P1'
_symmetry_Int_Tables_number	1
_symmetry_cell_setting	triclinic
loop_
_symmetry_equiv_pos_as_xyz
  x,y,z
_cell_length_a	19.8267
_cell_length_b	18.6253
_cell_length_c	27.8685
_cell_angle_alpha	90
_cell_angle_beta	107.1
_cell_angle_gamma	90
loop_
_atom_site_label
_atom_site_type_symbol
_atom_site_fract_x
_atom_site_fract_y
_atom_site_fract_z
_atom_site_charge
Mof_Eu	Eu	0.49451	0.01622	0.41361	1.157
Mof_Eu	Eu	0.45628	0.43118	0.44133	2.092
Mof_O 	O 	0.4077	0.9258	0.36681	-0.163
Mof_O 	O 	0.4882	0.8873	0.43482	-0.205
Mof_O 	O 	0.5765	0.1057	0.3906	-0.215
Mof_O 	O 	0.079	0.7011	0.115	-0.386
Mof_O 	O 	0.0918	0.589	0.1387	-0.576
Mof_O 	O 	0.421	0.5531	0.4255	-0.518
Mof_O 	O 	0.488	0.6295	0.4815	-0.567
Mof_O 	O 	0.4382	0.5044	0.5286	-0.617
Mof_O 	O 	0.4681	0.5355	0.8566	-0.443
Mof_O 	O 	0.3637	0.5687	0.8588	-0.451
Mof_O 	O 	0.0829	0.4918	0.5374	-0.648
Mof_O 	O 	0.11	0.5	0.4669	-0.593
Mof_O 	O 	0.3551	0.4466	0.4712	-0.518
Mof_C 	C 	0.4353	0.8762	0.3965	0.285
Mof_C 	C 	0.406	0.8017	0.3861	-0.048
Mof_C 	C 	0.4351	0.7458	0.4184	0.042
Mof_H 	H 	0.4718	0.755	0.4484	0.029
Mof_C 	C 	0.4106	0.6765	0.4068	-0.131
Mof_C 	C 	0.4437	0.6138	0.4409	0.495
Mof_C 	C 	0.3568	0.6632	0.3627	0.001
Mof_H 	H 	0.3405	0.6155	0.3548	0.045
Mof_C 	C 	0.3263	0.7192	0.3297	0.013
Mof_C 	C 	0.3516	0.7884	0.3425	-0.029
Mof_H 	H 	0.3314	0.8273	0.321	0.05
Mof_C 	C 	0.2696	0.7039	0.2824	-0.039
Mof_C 	C 	0.2618	0.6356	0.2614	-0.471
Mof_H 	H 	0.2934	0.5986	0.2775	0.169
Mof_C 	C 	0.209	0.6202	0.2176	-0.383
Mof_H 	H 	0.204	0.5726	0.2047	0.142
Mof_C 	C 	0.1731	0.7423	0.2114	-1.792
Mof_H 	H 	0.1438	0.7799	0.1936	0.549
Mof_C 	C 	0.2247	0.7574	0.2558	-1.969
Mof_H 	H 	0.2296	0.8051	0.2685	0.657
Mof_C 	C 	0.1637	0.6726	0.1924	-0.277
Mof_C 	C 	0.1074	0.6534	0.1453	0.504
Mof_C 	C 	0.3757	0.4816	0.5111	0.48
Mof_C 	C 	0.3241	0.4946	0.54	-0.204
Mof_C 	C 	0.2526	0.4897	0.5152	0.134
Mof_H 	H 	0.2371	0.4805	0.4801	0.007
Mof_C 	C 	0.2038	0.4984	0.5416	-0.23
Mof_C 	C 	0.127	0.4963	0.5138	0.557
Mof_C 	C 	0.2271	0.5087	0.5931	0.083
Mof_H 	H 	0.1936	0.5124	0.6113	0.004
Mof_C 	C 	0.2996	0.5138	0.6189	-0.089
Mof_C 	C 	0.3472	0.5076	0.5911	0.067
Mof_H 	H 	0.3963	0.5123	0.6075	-0.001
Mof_C 	C 	0.3253	0.5226	0.6744	0.061
Mof_C 	C 	0.3757	0.5383	0.7789	-0.099
Mof_C 	C 	0.4038	0.5492	0.8347	0.332
Mof_C 	C 	0.2793	0.544	0.7001	-0.012
Mof_H 	H 	0.2311	0.5537	0.6833	0.048
Mof_C 	C 	0.3069	0.5507	0.7517	-0.016
Mof_H 	H 	0.2754	0.5651	0.7699	0.003
Mof_C 	C 	0.4161	0.501	0.7532	-0.028
Mof_H 	H 	0.4605	0.4811	0.7712	0.041
Mof_C 	C 	0.3908	0.4934	0.7014	-0.03
Mof_H 	H 	0.4182	0.4682	0.684	0.039
Mof_O 	O 	0.5438	0.9638	0.3542	-0.032
Mof_N 	N 	0.5807	0.9618	0.2841	0.379
Mof_C 	C 	0.5629	0.9373	0.3212	0.181
Mof_C 	C 	0.6077	0.9239	0.2488	-1.255
Mof_H 	H 	0.6101	0.8724	0.2566	0.708
Mof_H 	H 	0.655	0.9417	0.251	0.52
Mof_H 	H 	0.5764	0.9316	0.2147	0.503
Mof_C 	C 	0.576	0.0388	0.2789	-1.04
Mof_H 	H 	0.5578	0.0591	0.3049	0.294
Mof_H 	H 	0.545	0.0513	0.2457	0.231
Mof_H 	H 	0.6236	0.0584	0.2827	0.34
Mof_C 	C 	0.576	0.8542	0.327	-0.016
Mof_H 	H 	0.5621	0.8367	0.3558	0.388
Mof_H 	H 	0.6262	0.8442	0.3322	0.04
Mof_H 	H 	0.548	0.8298	0.2965	0.066
Mof_O 	O 	0.5496	0.1123	0.3754	-0.12
Mof_C 	C 	0.23	0.641	0.2786	0.347
Mof_H 	H 	0.2385	0.6089	0.3061	-0.063
Mof_C 	C 	0.177	0.627	0.2342	0.475
Mof_H 	H 	0.1497	0.5843	0.232	-0.118
Mof_C 	C 	0.198	0.735	0.199	1.859
Mof_H 	H 	0.1859	0.7698	0.173	-0.542
Mof_C 	C 	0.251	0.75	0.2436	1.91
Mof_H 	H 	0.2746	0.7946	0.2466	-0.576
Mof_C 	C 	0.289	0.55	0.706	-0.058
Mof_H 	H 	0.2423	0.5634	0.6889	-0.003
Mof_C 	C 	0.307	0.561	0.7575	0.027
Mof_H 	H 	0.2774	0.5816	0.7749	0.012
Mof_C 	C 	0.4174	0.56	0.7502	0.036
Mof_H 	H 	0.4622	0.5812	0.7649	0.012
Mof_C 	C 	0.392	0.549	0.6988	-0.094
Mof_H 	H 	0.4223	0.5599	0.6791	0.06
Mof_O 	O 	0.537	0.819	0.3293	-0.737
Mof_C 	C 	0.5581	0.7873	0.2981	0.73
Mof_N 	N 	0.5337	0.7256	0.2783	-0.262
Mof_C 	C 	0.484	0.688	0.2978	0.194
Mof_H 	H 	0.4728	0.7154	0.3236	-0.016
Mof_H 	H 	0.4411	0.678	0.2715	-0.031
Mof_H 	H 	0.5052	0.6435	0.3117	-0.009
Mof_C 	C 	0.557	0.683	0.2427	0.046
Mof_H 	H 	0.5885	0.7132	0.2317	-0.003
Mof_H 	H 	0.58	0.6389	0.2553	0.011
Mof_H 	H 	0.5159	0.6735	0.2151	-0.079
Mof_C 	C 	0.6122	0.829	0.2769	-1.83
Mof_H 	H 	0.6239	0.8727	0.2952	0.537
Mof_H 	H 	0.6543	0.8011	0.2809	0.546
Mof_H 	H 	0.5909	0.8389	0.242	0.323
Mof_O 	O 	0.639	0.028	0.3288	-0.422
Mof_Eu	Eu	0.99451	0.51622	0.41361	2.372
Mof_Eu	Eu	0.95628	0.93118	0.44133	2.693
Mof_O 	O 	0.9077	0.4258	0.36681	-0.456
Mof_O 	O 	0.9882	0.3873	0.43482	-0.468
Mof_O 	O 	0.0765	0.6057	0.3906	0.029
Mof_O 	O 	0.579	0.2011	0.115	-0.372
Mof_O 	O 	0.5918	0.089	0.1387	-0.574
Mof_O 	O 	0.921	0.0531	0.4255	-0.864
Mof_O 	O 	0.988	0.1295	0.4815	-0.592
Mof_O 	O 	0.9382	0.0044	0.5286	-1.1
Mof_O 	O 	0.9681	0.0355	0.8566	-0.453
Mof_O 	O 	0.8637	0.0687	0.8588	-0.415
Mof_O 	O 	0.5829	0.9918	0.5374	-0.633
Mof_O 	O 	0.61	1.02655e-32	0.4669	-1.078
Mof_O 	O 	0.8551	0.9466	0.4712	-0.515
Mof_C 	C 	0.9353	0.3762	0.3965	0.33
Mof_C 	C 	0.906	0.3017	0.3861	-0.106
Mof_C 	C 	0.9351	0.2458	0.4184	0.075
Mof_H 	H 	0.9718	0.255	0.4484	0.006
Mof_C 	C 	0.9106	0.1765	0.4068	-0.21
Mof_C 	C 	0.9437	0.1138	0.4409	0.531
Mof_C 	C 	0.8568	0.1632	0.3627	0.037
Mof_H 	H 	0.8405	0.1155	0.3548	-0.02
Mof_C 	C 	0.8263	0.2192	0.3297	-0.014
Mof_C 	C 	0.8516	0.2884	0.3425	-0.01
Mof_H 	H 	0.8314	0.3273	0.321	0.034
Mof_C 	C 	0.7696	0.2039	0.2824	-0.069
Mof_C 	C 	0.7618	0.1356	0.2614	-0.721
Mof_H 	H 	0.7934	0.0986	0.2775	0.187
Mof_C 	C 	0.709	0.1202	0.2176	-0.628
Mof_H 	H 	0.704	0.0726	0.2047	0.031
Mof_C 	C 	0.6731	0.2423	0.2114	-2.608
Mof_H 	H 	0.6438	0.2799	0.1936	0.853
Mof_C 	C 	0.7247	0.2574	0.2558	-2.833
Mof_H 	H 	0.7296	0.3051	0.2685	0.934
Mof_C 	C 	0.6637	0.1726	0.1924	-0.368
Mof_C 	C 	0.6074	0.1534	0.1453	0.485
Mof_C 	C 	0.8757	0.9816	0.5111	0.767
Mof_C 	C 	0.8241	0.9946	0.54	0.999
Mof_C 	C 	0.7526	0.9897	0.5152	-0.66
Mof_H 	H 	0.7371	0.9805	0.4801	0.396
Mof_C 	C 	0.7038	0.9984	0.5416	0.908
Mof_C 	C 	0.627	0.9963	0.5138	0.937
Mof_C 	C 	0.7271	0.0087	0.5931	-1.417
Mof_H 	H 	0.6936	0.0124	0.6113	0.314
Mof_C 	C 	0.7996	0.0138	0.6189	1.012
Mof_C 	C 	0.8472	0.0076	0.5911	-1.511
Mof_H 	H 	0.8963	0.0123	0.6075	0.408
Mof_C 	C 	0.8253	0.0226	0.6744	-1.116
Mof_C 	C 	0.8757	0.0383	0.7789	0.739
Mof_C 	C 	0.9038	0.0492	0.8347	-0.033
Mof_C 	C 	0.7793	0.044	0.7001	-0.07
Mof_H 	H 	0.7311	0.0537	0.6833	-0.006
Mof_C 	C 	0.8069	0.0507	0.7517	-0.076
Mof_H 	H 	0.7754	0.0651	0.7699	0.059
Mof_C 	C 	0.9161	0.001	0.7532	7.566
Mof_H 	H 	0.9605	0.9811	0.7712	-2.055
Mof_C 	C 	0.8908	0.9934	0.7014	-8.839
Mof_H 	H 	0.9182	0.9682	0.684	3.222
Mof_O 	O 	0.0438	0.4638	0.3542	-0.509
Mof_N 	N 	0.0807	0.4618	0.2841	-0.046
Mof_C 	C 	0.0629	0.4373	0.3212	0.316
Mof_C 	C 	0.1077	0.4239	0.2488	-0.823
Mof_H 	H 	0.1101	0.3724	0.2566	0.49
Mof_H 	H 	0.155	0.4417	0.251	0.265
Mof_H 	H 	0.0764	0.4316	0.2147	0.278
Mof_C 	C 	0.076	0.5388	0.2789	-0.25
Mof_H 	H 	0.0578	0.5591	0.3049	0.145
Mof_H 	H 	0.045	0.5513	0.2457	0.109
Mof_H 	H 	0.1236	0.5584	0.2827	0.155
Mof_C 	C 	0.076	0.3542	0.327	-0.222
Mof_H 	H 	0.0621	0.3367	0.3558	0.378
Mof_H 	H 	0.1262	0.3442	0.3322	0.065
Mof_H 	H 	0.048	0.3298	0.2965	0.169
Mof_O 	O 	0.0496	0.6123	0.3754	-0.361
Mof_C 	C 	0.73	0.141	0.2786	0.543
Mof_H 	H 	0.7385	0.1089	0.3061	-0.182
Mof_C 	C 	0.677	0.127	0.2342	0.774
Mof_H 	H 	0.6497	0.0843	0.232	-0.292
Mof_C 	C 	0.698	0.235	0.199	2.683
Mof_H 	H 	0.6859	0.2698	0.173	-0.795
Mof_C 	C 	0.751	0.25	0.2436	2.784
Mof_H 	H 	0.7746	0.2946	0.2466	-0.824
Mof_C 	C 	0.789	0.05	0.706	0.146
Mof_H 	H 	0.7423	0.0634	0.6889	-0.045
Mof_C 	C 	0.807	0.061	0.7575	-0.268
Mof_H 	H 	0.7774	0.0816	0.7749	0.021
Mof_C 	C 	0.9174	0.06	0.7502	-9.73
Mof_H 	H 	0.9622	0.0812	0.7649	3.151
Mof_C 	C 	0.892	0.049	0.6988	10.206
Mof_H 	H 	0.9223	0.0599	0.6791	-3.363
Mof_O 	O 	0.037	0.319	0.3293	-0.635
Mof_C 	C 	0.0581	0.2873	0.2981	0.499
Mof_N 	N 	0.0337	0.2256	0.2783	-0.238
Mof_C 	C 	0.984	0.188	0.2978	0.182
Mof_H 	H 	0.9728	0.2154	0.3236	-0.019
Mof_H 	H 	0.9411	0.178	0.2715	-0.035
Mof_H 	H 	0.0052	0.1435	0.3117	-0.028
Mof_C 	C 	0.057	0.183	0.2427	0.082
Mof_H 	H 	0.0885	0.2132	0.2317	-0.027
Mof_H 	H 	0.08	0.1389	0.2553	-0.073
Mof_H 	H 	0.0159	0.1735	0.2151	-0.092
Mof_C 	C 	0.1122	0.329	0.2769	-1.389
Mof_H 	H 	0.1239	0.3727	0.2952	0.402
Mof_H 	H 	0.1543	0.3011	0.2809	0.38
Mof_H 	H 	0.0909	0.3389	0.242	0.267
Mof_O 	O 	0.139	0.528	0.3288	-0.168
Mof_Eu	Eu	0.50549	0.01622	0.08639	1.16
Mof_Eu	Eu	0.54372	0.43118	0.05867	2.091
Mof_O 	O 	0.5923	0.9258	0.13319	-0.162
Mof_O 	O 	0.5118	0.8873	0.06518	-0.205
Mof_O 	O 	0.4235	0.1057	0.1094	-0.215
Mof_O 	O 	0.921	0.7011	0.385	-0.385
Mof_O 	O 	0.9082	0.589	0.3613	-0.576
Mof_O 	O 	0.579	0.5531	0.0745	-0.518
Mof_O 	O 	0.512	0.6295	0.0185	-0.567
Mof_O 	O 	0.5618	0.5044	0.9714	-0.617
Mof_O 	O 	0.5319	0.5355	0.6434	-0.443
Mof_O 	O 	0.6363	0.5687	0.6412	-0.451
Mof_O 	O 	0.9171	0.4918	0.9626	-0.646
Mof_O 	O 	0.89	0.5	0.0331	-0.589
Mof_O 	O 	0.6449	0.4466	0.0288	-0.518
Mof_C 	C 	0.5647	0.8762	0.1035	0.285
Mof_C 	C 	0.594	0.8017	0.1139	-0.048
Mof_C 	C 	0.5649	0.7458	0.0816	0.042
Mof_H 	H 	0.5282	0.755	0.0516	0.029
Mof_C 	C 	0.5894	0.6765	0.0932	-0.131
Mof_C 	C 	0.5563	0.6138	0.0591	0.495
Mof_C 	C 	0.6432	0.6632	0.1373	0.001
Mof_H 	H 	0.6595	0.6155	0.1452	0.045
Mof_C 	C 	0.6737	0.7192	0.1703	0.014
Mof_C 	C 	0.6484	0.7884	0.1575	-0.029
Mof_H 	H 	0.6686	0.8273	0.179	0.05
Mof_C 	C 	0.7304	0.7039	0.2176	-0.04
Mof_C 	C 	0.7382	0.6356	0.2386	-0.473
Mof_H 	H 	0.7066	0.5986	0.2225	0.169
Mof_C 	C 	0.791	0.6202	0.2824	-0.385
Mof_H 	H 	0.796	0.5726	0.2953	0.142
Mof_C 	C 	0.8269	0.7423	0.2886	-1.802
Mof_H 	H 	0.8562	0.7799	0.3064	0.553
Mof_C 	C 	0.7753	0.7574	0.2442	-1.98
Mof_H 	H 	0.7704	0.8051	0.2315	0.66
Mof_C 	C 	0.8363	0.6726	0.3076	-0.277
Mof_C 	C 	0.8926	0.6534	0.3547	0.505
Mof_C 	C 	0.6243	0.4816	0.9889	0.479
Mof_C 	C 	0.6759	0.4946	0.96	-0.203
Mof_C 	C 	0.7474	0.4897	0.9848	0.131
Mof_H 	H 	0.7629	0.4805	0.0199	0.009
Mof_C 	C 	0.7962	0.4984	0.9584	-0.227
Mof_C 	C 	0.873	0.4963	0.9862	0.554
Mof_C 	C 	0.7729	0.5087	0.9069	0.081
Mof_H 	H 	0.8064	0.5124	0.8887	0.005
Mof_C 	C 	0.7004	0.5138	0.8811	-0.088
Mof_C 	C 	0.6528	0.5076	0.9089	0.066
Mof_H 	H 	0.6037	0.5123	0.8925	-0.001
Mof_C 	C 	0.6747	0.5226	0.8256	0.06
Mof_C 	C 	0.6243	0.5383	0.7211	-0.099
Mof_C 	C 	0.5962	0.5492	0.6653	0.332
Mof_C 	C 	0.7207	0.544	0.7999	-0.012
Mof_H 	H 	0.7689	0.5537	0.8167	0.048
Mof_C 	C 	0.6931	0.5507	0.7483	-0.016
Mof_H 	H 	0.7246	0.5651	0.7301	0.003
Mof_C 	C 	0.5839	0.501	0.7468	-0.028
Mof_H 	H 	0.5395	0.4811	0.7288	0.041
Mof_C 	C 	0.6092	0.4934	0.7986	-0.03
Mof_H 	H 	0.5818	0.4682	0.816	0.039
Mof_O 	O 	0.4562	0.9638	0.1458	-0.032
Mof_N 	N 	0.4193	0.9618	0.2159	0.379
Mof_C 	C 	0.4371	0.9373	0.1788	0.181
Mof_C 	C 	0.3923	0.9239	0.2512	-1.255
Mof_H 	H 	0.3899	0.8724	0.2434	0.708
Mof_H 	H 	0.345	0.9417	0.249	0.52
Mof_H 	H 	0.4236	0.9316	0.2853	0.503
Mof_C 	C 	0.424	0.0388	0.2211	-1.039
Mof_H 	H 	0.4422	0.0591	0.1951	0.294
Mof_H 	H 	0.455	0.0513	0.2543	0.231
Mof_H 	H 	0.3764	0.0584	0.2173	0.34
Mof_C 	C 	0.424	0.8542	0.173	-0.016
Mof_H 	H 	0.4379	0.8367	0.1442	0.388
Mof_H 	H 	0.3738	0.8442	0.1678	0.04
Mof_H 	H 	0.452	0.8298	0.2035	0.066
Mof_O 	O 	0.4504	0.1123	0.1246	-0.121
Mof_C 	C 	0.77	0.641	0.2214	0.349
Mof_H 	H 	0.7615	0.6089	0.1939	-0.063
Mof_C 	C 	0.823	0.627	0.2658	0.477
Mof_H 	H 	0.8503	0.5843	0.268	-0.119
Mof_C 	C 	0.802	0.735	0.301	1.87
Mof_H 	H 	0.8141	0.7698	0.327	-0.545
Mof_C 	C 	0.749	0.75	0.2564	1.921
Mof_H 	H 	0.7254	0.7946	0.2534	-0.579
Mof_C 	C 	0.711	0.55	0.794	-0.058
Mof_H 	H 	0.7577	0.5634	0.8111	-0.003
Mof_C 	C 	0.693	0.561	0.7425	0.027
Mof_H 	H 	0.7226	0.5816	0.7251	0.012
Mof_C 	C 	0.5826	0.56	0.7498	0.035
Mof_H 	H 	0.5378	0.5812	0.7351	0.012
Mof_C 	C 	0.608	0.549	0.8012	-0.094
Mof_H 	H 	0.5777	0.5599	0.8209	0.06
Mof_O 	O 	0.463	0.819	0.1707	-0.737
Mof_C 	C 	0.4419	0.7873	0.2019	0.73
Mof_N 	N 	0.4663	0.7256	0.2217	-0.262
Mof_C 	C 	0.516	0.688	0.2022	0.194
Mof_H 	H 	0.5272	0.7154	0.1764	-0.016
Mof_H 	H 	0.5589	0.678	0.2285	-0.031
Mof_H 	H 	0.4948	0.6435	0.1883	-0.009
Mof_C 	C 	0.443	0.683	0.2573	0.046
Mof_H 	H 	0.4115	0.7132	0.2683	-0.003
Mof_H 	H 	0.42	0.6389	0.2447	0.011
Mof_H 	H 	0.4841	0.6735	0.2849	-0.079
Mof_C 	C 	0.3878	0.829	0.2231	-1.831
Mof_H 	H 	0.3761	0.8727	0.2048	0.537
Mof_H 	H 	0.3457	0.8011	0.2191	0.546
Mof_H 	H 	0.4091	0.8389	0.258	0.323
Mof_O 	O 	0.361	0.028	0.1712	-0.421
Mof_Eu	Eu	0.00549	0.51622	0.08639	2.366
Mof_Eu	Eu	0.04372	0.93118	0.05867	2.688
Mof_O 	O 	0.0923	0.4258	0.13319	-0.455
Mof_O 	O 	0.0118	0.3873	0.06518	-0.468
Mof_O 	O 	0.9235	0.6057	0.1094	0.027
Mof_O 	O 	0.421	0.2011	0.385	-0.372
Mof_O 	O 	0.4082	0.089	0.3613	-0.574
Mof_O 	O 	0.079	0.0531	0.0745	-0.863
Mof_O 	O 	0.012	0.1295	0.0185	-0.594
Mof_O 	O 	0.0618	0.0044	0.9714	-1.088
Mof_O 	O 	0.0319	0.0355	0.6434	-0.452
Mof_O 	O 	0.1363	0.0687	0.6412	-0.415
Mof_O 	O 	0.4171	0.9918	0.9626	-0.633
Mof_O 	O 	0.39	0	0.0331	-1.075
Mof_O 	O 	0.1449	0.9466	0.0288	-0.512
Mof_C 	C 	0.0647	0.3762	0.1035	0.33
Mof_C 	C 	0.094	0.3017	0.1139	-0.107
Mof_C 	C 	0.0649	0.2458	0.0816	0.075
Mof_H 	H 	0.0282	0.255	0.0516	0.005
Mof_C 	C 	0.0894	0.1765	0.0932	-0.21
Mof_C 	C 	0.0563	0.1138	0.0591	0.531
Mof_C 	C 	0.1432	0.1632	0.1373	0.037
Mof_H 	H 	0.1595	0.1155	0.1452	-0.02
Mof_C 	C 	0.1737	0.2192	0.1703	-0.014
Mof_C 	C 	0.1484	0.2884	0.1575	-0.01
Mof_H 	H 	0.1686	0.3273	0.179	0.034
Mof_C 	C 	0.2304	0.2039	0.2176	-0.069
Mof_C 	C 	0.2382	0.1356	0.2386	-0.722
Mof_H 	H 	0.2066	0.0986	0.2225	0.187
Mof_C 	C 	0.291	0.1202	0.2824	-0.629
Mof_H 	H 	0.296	0.0726	0.2953	0.031
Mof_C 	C 	0.3269	0.2423	0.2886	-2.612
Mof_H 	H 	0.3562	0.2799	0.3064	0.854
Mof_C 	C 	0.2753	0.2574	0.2442	-2.837
Mof_H 	H 	0.2704	0.3051	0.2315	0.935
Mof_C 	C 	0.3363	0.1726	0.3076	-0.369
Mof_C 	C 	0.3926	0.1534	0.3547	0.485
Mof_C 	C 	0.1243	0.9816	0.9889	0.757
Mof_C 	C 	0.1759	0.9946	0.96	0.99
Mof_C 	C 	0.2474	0.9897	0.9848	-0.657
Mof_H 	H 	0.2629	0.9805	0.0199	0.396
Mof_C 	C 	0.2962	0.9984	0.9584	0.897
Mof_C 	C 	0.373	0.9963	0.9862	0.934
Mof_C 	C 	0.2729	0.0087	0.9069	-1.401
Mof_H 	H 	0.3064	0.0124	0.8887	0.31
Mof_C 	C 	0.2004	0.0138	0.8811	1.002
Mof_C 	C 	0.1528	0.0076	0.9089	-1.496
Mof_H 	H 	0.1037	0.0123	0.8925	0.405
Mof_C 	C 	0.1747	0.0226	0.8256	-1.109
Mof_C 	C 	0.1243	0.0383	0.7211	0.736
Mof_C 	C 	0.0962	0.0492	0.6653	-0.032
Mof_C 	C 	0.2207	0.044	0.7999	-0.07
Mof_H 	H 	0.2689	0.0537	0.8167	-0.006
Mof_C 	C 	0.1931	0.0507	0.7483	-0.076
Mof_H 	H 	0.2246	0.0651	0.7301	0.059
Mof_C 	C 	0.0839	0.001	0.7468	7.539
Mof_H 	H 	0.0395	0.9811	0.7288	-2.046
Mof_C 	C 	0.1092	0.9934	0.7986	-8.812
Mof_H 	H 	0.0818	0.9682	0.816	3.212
Mof_O 	O 	0.9562	0.4638	0.1458	-0.507
Mof_N 	N 	0.9193	0.4618	0.2159	-0.046
Mof_C 	C 	0.9371	0.4373	0.1788	0.316
Mof_C 	C 	0.8923	0.4239	0.2512	-0.823
Mof_H 	H 	0.8899	0.3724	0.2434	0.49
Mof_H 	H 	0.845	0.4417	0.249	0.265
Mof_H 	H 	0.9236	0.4316	0.2853	0.278
Mof_C 	C 	0.924	0.5388	0.2211	-0.251
Mof_H 	H 	0.9422	0.5591	0.1951	0.146
Mof_H 	H 	0.955	0.5513	0.2543	0.111
Mof_H 	H 	0.8764	0.5584	0.2173	0.156
Mof_C 	C 	0.924	0.3542	0.173	-0.224
Mof_H 	H 	0.9379	0.3367	0.1442	0.379
Mof_H 	H 	0.8738	0.3442	0.1678	0.066
Mof_H 	H 	0.952	0.3298	0.2035	0.17
Mof_O 	O 	0.9504	0.6123	0.1246	-0.358
Mof_C 	C 	0.27	0.141	0.2214	0.544
Mof_H 	H 	0.2615	0.1089	0.1939	-0.182
Mof_C 	C 	0.323	0.127	0.2658	0.775
Mof_H 	H 	0.3503	0.0843	0.268	-0.293
Mof_C 	C 	0.302	0.235	0.301	2.687
Mof_H 	H 	0.3141	0.2698	0.327	-0.796
Mof_C 	C 	0.249	0.25	0.2564	2.788
Mof_H 	H 	0.2254	0.2946	0.2534	-0.825
Mof_C 	C 	0.211	0.05	0.794	0.144
Mof_H 	H 	0.2577	0.0634	0.8111	-0.044
Mof_C 	C 	0.193	0.061	0.7425	-0.267
Mof_H 	H 	0.2226	0.0816	0.7251	0.021
Mof_C 	C 	0.0826	0.06	0.7498	-9.696
Mof_H 	H 	0.0378	0.0812	0.7351	3.141
Mof_C 	C 	0.108	0.049	0.8012	10.172
Mof_H 	H 	0.0777	0.0599	0.8209	-3.351
Mof_O 	O 	0.963	0.319	0.1707	-0.633
Mof_C 	C 	0.9419	0.2873	0.2019	0.499
Mof_N 	N 	0.9663	0.2256	0.2217	-0.237
Mof_C 	C 	0.016	0.188	0.2022	0.183
Mof_H 	H 	0.0272	0.2154	0.1764	-0.02
Mof_H 	H 	0.0589	0.178	0.2285	-0.034
Mof_H 	H 	0.9948	0.1435	0.1883	-0.026
Mof_C 	C 	0.943	0.183	0.2573	0.082
Mof_H 	H 	0.9115	0.2132	0.2683	-0.027
Mof_H 	H 	0.92	0.1389	0.2447	-0.073
Mof_H 	H 	0.9841	0.1735	0.2849	-0.089
Mof_C 	C 	0.8878	0.329	0.2231	-1.388
Mof_H 	H 	0.8761	0.3727	0.2048	0.402
Mof_H 	H 	0.8457	0.3011	0.2191	0.38
Mof_H 	H 	0.9091	0.3389	0.258	0.267
Mof_O 	O 	0.861	0.528	0.1712	-0.168
Mof_Eu	Eu	0.50549	0.98378	0.58639	4.149
Mof_Eu	Eu	0.54372	0.56882	0.55867	2.113
Mof_O 	O 	0.5923	0.0742	0.63319	-0.787
Mof_O 	O 	0.5118	0.1127	0.56518	-0.726
Mof_O 	O 	0.4235	0.8943	0.6094	0.596
Mof_O 	O 	0.921	0.2989	0.885	-0.352
Mof_O 	O 	0.9082	0.411	0.8613	-0.563
Mof_O 	O 	0.579	0.4469	0.5745	-0.525
Mof_O 	O 	0.512	0.3705	0.5185	-0.576
Mof_O 	O 	0.5618	0.4956	0.4714	-0.617
Mof_O 	O 	0.5319	0.4645	0.1434	-0.441
Mof_O 	O 	0.6363	0.4313	0.1412	-0.452
Mof_O 	O 	0.9171	0.5082	0.4626	-0.649
Mof_O 	O 	0.89	0.5	0.5331	-0.593
Mof_O 	O 	0.6449	0.5534	0.5288	-0.513
Mof_C 	C 	0.5647	0.1238	0.6035	0.369
Mof_C 	C 	0.594	0.1983	0.6139	-0.142
Mof_C 	C 	0.5649	0.2542	0.5816	0.075
Mof_H 	H 	0.5282	0.245	0.5516	0.004
Mof_C 	C 	0.5894	0.3235	0.5932	-0.173
Mof_C 	C 	0.5563	0.3862	0.5591	0.504
Mof_C 	C 	0.6432	0.3368	0.6373	0.036
Mof_H 	H 	0.6595	0.3845	0.6452	0.028
Mof_C 	C 	0.6737	0.2808	0.6703	-0.066
Mof_C 	C 	0.6484	0.2116	0.6575	0.015
Mof_H 	H 	0.6686	0.1727	0.679	0.012
Mof_C 	C 	0.7304	0.2961	0.7176	0.05
Mof_C 	C 	0.7382	0.3644	0.7386	-0.104
Mof_H 	H 	0.7066	0.4014	0.7225	0.063
Mof_C 	C 	0.791	0.3798	0.7824	-0.011
Mof_H 	H 	0.796	0.4274	0.7953	0.033
Mof_C 	C 	0.8269	0.2577	0.7886	-0.15
Mof_H 	H 	0.8562	0.2201	0.8064	0.111
Mof_C 	C 	0.7753	0.2426	0.7442	-0.243
Mof_H 	H 	0.7704	0.1949	0.7315	0.107
Mof_C 	C 	0.8363	0.3274	0.8076	-0.159
Mof_C 	C 	0.8926	0.3466	0.8547	0.45
Mof_C 	C 	0.6243	0.5184	0.4889	0.476
Mof_C 	C 	0.6759	0.5054	0.46	-0.204
Mof_C 	C 	0.7474	0.5103	0.4848	0.131
Mof_H 	H 	0.7629	0.5195	0.5199	0.009
Mof_C 	C 	0.7962	0.5016	0.4584	-0.231
Mof_C 	C 	0.873	0.5037	0.4862	0.556
Mof_C 	C 	0.7729	0.4913	0.4069	0.079
Mof_H 	H 	0.8064	0.4876	0.3887	0.003
Mof_C 	C 	0.7004	0.4862	0.3811	-0.09
Mof_C 	C 	0.6528	0.4924	0.4089	0.064
Mof_H 	H 	0.6037	0.4877	0.3925	-0
Mof_C 	C 	0.6747	0.4774	0.3256	0.059
Mof_C 	C 	0.6243	0.4617	0.2211	-0.095
Mof_C 	C 	0.5962	0.4508	0.1653	0.329
Mof_C 	C 	0.7207	0.456	0.2999	-0.014
Mof_H 	H 	0.7689	0.4463	0.3167	0.042
Mof_C 	C 	0.6931	0.4493	0.2483	-0.022
Mof_H 	H 	0.7246	0.4349	0.2301	0.001
Mof_C 	C 	0.5839	0.499	0.2468	-0.048
Mof_H 	H 	0.5395	0.5189	0.2288	0.047
Mof_C 	C 	0.6092	0.5066	0.2986	-0.032
Mof_H 	H 	0.5818	0.5318	0.316	0.038
Mof_O 	O 	0.4562	0.0362	0.6458	-0.995
Mof_N 	N 	0.4193	0.0382	0.7159	-0.458
Mof_C 	C 	0.4371	0.0627	0.6788	0.445
Mof_C 	C 	0.3923	0.0761	0.7512	-0.503
Mof_H 	H 	0.3899	0.1276	0.7434	0.346
Mof_H 	H 	0.345	0.0583	0.749	0.035
Mof_H 	H 	0.4236	0.0684	0.7853	0.079
Mof_C 	C 	0.424	0.9612	0.7211	0.538
Mof_H 	H 	0.4422	0.9409	0.6951	-0.007
Mof_H 	H 	0.455	0.9487	0.7543	-0.022
Mof_H 	H 	0.3764	0.9416	0.7173	-0.039
Mof_C 	C 	0.424	0.1458	0.673	-0.36
Mof_H 	H 	0.4379	0.1633	0.6442	0.397
Mof_H 	H 	0.3738	0.1558	0.6678	0.102
Mof_H 	H 	0.452	0.1702	0.7035	0.195
Mof_O 	O 	0.4504	0.8877	0.6246	-0.941
Mof_C 	C 	0.77	0.359	0.7214	-0.03
Mof_H 	H 	0.7615	0.3911	0.6939	0.043
Mof_C 	C 	0.823	0.373	0.7658	0.053
Mof_H 	H 	0.8503	0.4157	0.768	0.004
Mof_C 	C 	0.802	0.265	0.801	0.172
Mof_H 	H 	0.8141	0.2302	0.827	-0.036
Mof_C 	C 	0.749	0.25	0.7564	0.137
Mof_H 	H 	0.7254	0.2054	0.7534	-0.045
Mof_C 	C 	0.711	0.45	0.294	-0.059
Mof_H 	H 	0.7577	0.4366	0.3111	-0.002
Mof_C 	C 	0.693	0.439	0.2425	0.026
Mof_H 	H 	0.7226	0.4184	0.2251	0.016
Mof_C 	C 	0.5826	0.44	0.2498	0.059
Mof_H 	H 	0.5378	0.4188	0.2351	0.017
Mof_C 	C 	0.608	0.451	0.3012	-0.086
Mof_H 	H 	0.5777	0.4401	0.3209	0.063
Mof_O 	O 	0.463	0.181	0.6707	-0.6
Mof_C 	C 	0.4419	0.2127	0.7019	0.488
Mof_N 	N 	0.4663	0.2744	0.7217	-0.222
Mof_C 	C 	0.516	0.312	0.7022	0.195
Mof_H 	H 	0.5272	0.2846	0.6764	-0.017
Mof_H 	H 	0.5589	0.322	0.7285	-0.049
Mof_H 	H 	0.4948	0.3565	0.6883	-0.006
Mof_C 	C 	0.443	0.317	0.7573	0.064
Mof_H 	H 	0.4115	0.2868	0.7683	0.017
Mof_H 	H 	0.42	0.3611	0.7447	0.019
Mof_H 	H 	0.4841	0.3265	0.7849	-0.083
Mof_C 	C 	0.3878	0.171	0.7231	-1.303
Mof_H 	H 	0.3761	0.1273	0.7048	0.368
Mof_H 	H 	0.3457	0.1989	0.7191	0.404
Mof_H 	H 	0.4091	0.1611	0.758	0.29
Mof_O 	O 	0.361	0.972	0.6712	0.089
Mof_Eu	Eu	0.00549	0.48378	0.58639	2.362
Mof_Eu	Eu	0.04372	0.06882	0.55867	1.524
Mof_O 	O 	0.0923	0.5742	0.63319	-0.456
Mof_O 	O 	0.0118	0.6127	0.56518	-0.462
Mof_O 	O 	0.9235	0.3943	0.6094	0.013
Mof_O 	O 	0.421	0.7989	0.885	-0.375
Mof_O 	O 	0.4082	0.911	0.8613	-0.626
Mof_O 	O 	0.079	0.9469	0.5745	-0.179
Mof_O 	O 	0.012	0.8705	0.5185	-0.552
Mof_O 	O 	0.0618	0.9956	0.4714	-0.145
Mof_O 	O 	0.0319	0.9645	0.1434	-0.431
Mof_O 	O 	0.1363	0.9313	0.1412	-0.486
Mof_O 	O 	0.4171	0.0082	0.4626	-0.926
Mof_O 	O 	0.39	-1.02655e-32	0.5331	-1.152
Mof_O 	O 	0.1449	0.0534	0.5288	-0.523
Mof_C 	C 	0.0647	0.6238	0.6035	0.328
Mof_C 	C 	0.094	0.6983	0.6139	-0.088
Mof_C 	C 	0.0649	0.7542	0.5816	0.044
Mof_H 	H 	0.0282	0.745	0.5516	0.024
Mof_C 	C 	0.0894	0.8235	0.5932	-0.094
Mof_C 	C 	0.0563	0.8862	0.5591	0.47
Mof_C 	C 	0.1432	0.8368	0.6373	0.001
Mof_H 	H 	0.1595	0.8845	0.6452	0.095
Mof_C 	C 	0.1737	0.7808	0.6703	-0.037
Mof_C 	C 	0.1484	0.7116	0.6575	-0.002
Mof_H 	H 	0.1686	0.6727	0.679	0.028
Mof_C 	C 	0.2304	0.7961	0.7176	0.077
Mof_C 	C 	0.2382	0.8644	0.7386	0.112
Mof_H 	H 	0.2066	0.9014	0.7225	0.055
Mof_C 	C 	0.291	0.8798	0.7824	0.21
Mof_H 	H 	0.296	0.9274	0.7953	0.148
Mof_C 	C 	0.3269	0.7577	0.7886	0.544
Mof_H 	H 	0.3562	0.7201	0.8064	-0.154
Mof_C 	C 	0.2753	0.7426	0.7442	0.487
Mof_H 	H 	0.2704	0.6949	0.7315	-0.128
Mof_C 	C 	0.3363	0.8274	0.8076	-0.089
Mof_C 	C 	0.3926	0.8466	0.8547	0.506
Mof_C 	C 	0.1243	0.0184	0.4889	0.232
Mof_C 	C 	0.1759	0.0054	0.46	-1.52
Mof_C 	C 	0.2474	0.0103	0.4848	1.147
Mof_H 	H 	0.2629	0.0195	0.5199	-0.402
Mof_C 	C 	0.2962	0.0016	0.4584	-1.694
Mof_C 	C 	0.373	0.0037	0.4862	1.014
Mof_C 	C 	0.2729	0.9913	0.4069	1.782
Mof_H 	H 	0.3064	0.9876	0.3887	-0.386
Mof_C 	C 	0.2004	0.9862	0.3811	-1.303
Mof_C 	C 	0.1528	0.9924	0.4089	1.748
Mof_H 	H 	0.1037	0.9877	0.3925	-0.444
Mof_C 	C 	0.1747	0.9774	0.3256	1.284
Mof_C 	C 	0.1243	0.9617	0.2211	-0.943
Mof_C 	C 	0.0962	0.9508	0.1653	0.697
Mof_C 	C 	0.2207	0.956	0.2999	0.037
Mof_H 	H 	0.2689	0.9463	0.3167	0.103
Mof_C 	C 	0.1931	0.9493	0.2483	0.041
Mof_H 	H 	0.2246	0.9349	0.2301	-0.053
Mof_C 	C 	0.0839	0.999	0.2468	-7.666
Mof_H 	H 	0.0395	0.0189	0.2288	2.148
Mof_C 	C 	0.1092	0.0066	0.2986	8.802
Mof_H 	H 	0.0818	0.0318	0.316	-3.154
Mof_O 	O 	0.9562	0.5362	0.6458	-0.499
Mof_N 	N 	0.9193	0.5382	0.7159	-0.025
Mof_C 	C 	0.9371	0.5627	0.6788	0.284
Mof_C 	C 	0.8923	0.5761	0.7512	-0.952
Mof_H 	H 	0.8899	0.6276	0.7434	0.572
Mof_H 	H 	0.845	0.5583	0.749	0.295
Mof_H 	H 	0.9236	0.5684	0.7853	0.313
Mof_C 	C 	0.924	0.4612	0.7211	-0.247
Mof_H 	H 	0.9422	0.4409	0.6951	0.136
Mof_H 	H 	0.955	0.4487	0.7543	0.099
Mof_H 	H 	0.8764	0.4416	0.7173	0.146
Mof_C 	C 	0.924	0.6458	0.673	-0.141
Mof_H 	H 	0.9379	0.6633	0.6442	0.394
Mof_H 	H 	0.8738	0.6558	0.6678	0.068
Mof_H 	H 	0.952	0.6702	0.7035	0.09
Mof_O 	O 	0.9504	0.3877	0.6246	-0.368
Mof_C 	C 	0.27	0.859	0.7214	-0.197
Mof_H 	H 	0.2615	0.8911	0.6939	0.155
Mof_C 	C 	0.323	0.873	0.7658	-0.209
Mof_H 	H 	0.3503	0.9157	0.768	0.167
Mof_C 	C 	0.302	0.765	0.801	-0.52
Mof_H 	H 	0.3141	0.7302	0.827	0.175
Mof_C 	C 	0.249	0.75	0.7564	-0.602
Mof_H 	H 	0.2254	0.7054	0.7534	0.163
Mof_C 	C 	0.211	0.95	0.294	-0.272
Mof_H 	H 	0.2577	0.9366	0.3111	0.038
Mof_C 	C 	0.193	0.939	0.2425	0.327
Mof_H 	H 	0.2226	0.9184	0.2251	0.003
Mof_C 	C 	0.0826	0.94	0.2498	9.871
Mof_H 	H 	0.0378	0.9188	0.2351	-3.138
Mof_C 	C 	0.108	0.951	0.3012	-10.445
Mof_H 	H 	0.0777	0.9401	0.3209	3.507
Mof_O 	O 	0.963	0.681	0.6707	-0.7
Mof_C 	C 	0.9419	0.7127	0.7019	0.716
Mof_N 	N 	0.9663	0.7744	0.7217	-0.246
Mof_C 	C 	0.016	0.812	0.7022	0.206
Mof_H 	H 	0.0272	0.7846	0.6764	-0.014
Mof_H 	H 	0.0589	0.822	0.7285	-0.046
Mof_H 	H 	0.9948	0.8565	0.6883	0.012
Mof_C 	C 	0.943	0.817	0.7573	0.028
Mof_H 	H 	0.9115	0.7868	0.7683	0.04
Mof_H 	H 	0.92	0.8611	0.7447	0.101
Mof_H 	H 	0.9841	0.8265	0.7849	-0.073
Mof_C 	C 	0.8878	0.671	0.7231	-1.744
Mof_H 	H 	0.8761	0.6273	0.7048	0.503
Mof_H 	H 	0.8457	0.6989	0.7191	0.568
Mof_H 	H 	0.9091	0.6611	0.758	0.344
Mof_O 	O 	0.861	0.472	0.6712	-0.176
Mof_Eu	Eu	0.49451	0.98378	0.91361	4.132
Mof_Eu	Eu	0.45628	0.56882	0.94133	2.112
Mof_O 	O 	0.4077	0.0742	0.86681	-0.784
Mof_O 	O 	0.4882	0.1127	0.93482	-0.722
Mof_O 	O 	0.5765	0.8943	0.8906	0.587
Mof_O 	O 	0.079	0.2989	0.615	-0.352
Mof_O 	O 	0.0918	0.411	0.6387	-0.563
Mof_O 	O 	0.421	0.4469	0.9255	-0.524
Mof_O 	O 	0.488	0.3705	0.9815	-0.575
Mof_O 	O 	0.4382	0.4956	0.0286	-0.616
Mof_O 	O 	0.4681	0.4645	0.3566	-0.441
Mof_O 	O 	0.3637	0.4313	0.3588	-0.453
Mof_O 	O 	0.0829	0.5082	0.0374	-0.647
Mof_O 	O 	0.11	0.5	0.9669	-0.588
Mof_O 	O 	0.3551	0.5534	0.9712	-0.511
Mof_C 	C 	0.4353	0.1238	0.8965	0.368
Mof_C 	C 	0.406	0.1983	0.8861	-0.141
Mof_C 	C 	0.4351	0.2542	0.9184	0.075
Mof_H 	H 	0.4718	0.245	0.9484	0.004
Mof_C 	C 	0.4106	0.3235	0.9068	-0.172
Mof_C 	C 	0.4437	0.3862	0.9409	0.504
Mof_C 	C 	0.3568	0.3368	0.8627	0.036
Mof_H 	H 	0.3405	0.3845	0.8548	0.029
Mof_C 	C 	0.3263	0.2808	0.8297	-0.065
Mof_C 	C 	0.3516	0.2116	0.8425	0.014
Mof_H 	H 	0.3314	0.1727	0.821	0.013
Mof_C 	C 	0.2696	0.2961	0.7824	0.049
Mof_C 	C 	0.2618	0.3644	0.7614	-0.109
Mof_H 	H 	0.2934	0.4014	0.7775	0.064
Mof_C 	C 	0.209	0.3798	0.7176	-0.016
Mof_H 	H 	0.204	0.4274	0.7047	0.034
Mof_C 	C 	0.1731	0.2577	0.7114	-0.172
Mof_H 	H 	0.1438	0.2201	0.6936	0.117
Mof_C 	C 	0.2247	0.2426	0.7558	-0.265
Mof_H 	H 	0.2296	0.1949	0.7685	0.114
Mof_C 	C 	0.1637	0.3274	0.6924	-0.161
Mof_C 	C 	0.1074	0.3466	0.6453	0.451
Mof_C 	C 	0.3757	0.5184	0.0111	0.474
Mof_C 	C 	0.3241	0.5054	0.04	-0.201
Mof_C 	C 	0.2526	0.5103	0.0152	0.125
Mof_H 	H 	0.2371	0.5195	0.9801	0.012
Mof_C 	C 	0.2038	0.5016	0.0416	-0.228
Mof_C 	C 	0.127	0.5037	0.0138	0.551
Mof_C 	C 	0.2271	0.4913	0.0931	0.076
Mof_H 	H 	0.1936	0.4876	0.1113	0.004
Mof_C 	C 	0.2996	0.4862	0.1189	-0.088
Mof_C 	C 	0.3472	0.4924	0.0911	0.062
Mof_H 	H 	0.3963	0.4877	0.1075	0
Mof_C 	C 	0.3253	0.4774	0.1744	0.059
Mof_C 	C 	0.3757	0.4617	0.2789	-0.095
Mof_C 	C 	0.4038	0.4508	0.3347	0.329
Mof_C 	C 	0.2793	0.456	0.2001	-0.014
Mof_H 	H 	0.2311	0.4463	0.1833	0.042
Mof_C 	C 	0.3069	0.4493	0.2517	-0.022
Mof_H 	H 	0.2754	0.4349	0.2699	0.001
Mof_C 	C 	0.4161	0.499	0.2532	-0.048
Mof_H 	H 	0.4605	0.5189	0.2712	0.047
Mof_C 	C 	0.3908	0.5066	0.2014	-0.032
Mof_H 	H 	0.4182	0.5318	0.184	0.037
Mof_O 	O 	0.5438	0.0362	0.8542	-0.991
Mof_N 	N 	0.5807	0.0382	0.7841	-0.457
Mof_C 	C 	0.5629	0.0627	0.8212	0.444
Mof_C 	C 	0.6077	0.0761	0.7488	-0.504
Mof_H 	H 	0.6101	0.1276	0.7566	0.347
Mof_H 	H 	0.655	0.0583	0.751	0.036
Mof_H 	H 	0.5764	0.0684	0.7147	0.079
Mof_C 	C 	0.576	0.9612	0.7789	0.537
Mof_H 	H 	0.5578	0.9409	0.8049	-0.007
Mof_H 	H 	0.545	0.9487	0.7457	-0.021
Mof_H 	H 	0.6236	0.9416	0.7827	-0.038
Mof_C 	C 	0.576	0.1458	0.827	-0.359
Mof_H 	H 	0.5621	0.1633	0.8558	0.397
Mof_H 	H 	0.6262	0.1558	0.8322	0.102
Mof_H 	H 	0.548	0.1702	0.7965	0.194
Mof_O 	O 	0.5496	0.8877	0.8754	-0.933
Mof_C 	C 	0.23	0.359	0.7786	-0.025
Mof_H 	H 	0.2385	0.3911	0.8061	0.042
Mof_C 	C 	0.177	0.373	0.7342	0.058
Mof_H 	H 	0.1497	0.4157	0.732	0.003
Mof_C 	C 	0.198	0.265	0.699	0.193
Mof_H 	H 	0.1859	0.2302	0.673	-0.043
Mof_C 	C 	0.251	0.25	0.7436	0.16
Mof_H 	H 	0.2746	0.2054	0.7466	-0.052
Mof_C 	C 	0.289	0.45	0.206	-0.059
Mof_H 	H 	0.2423	0.4366	0.1889	-0.001
Mof_C 	C 	0.307	0.439	0.2575	0.026
Mof_H 	H 	0.2774	0.4184	0.2749	0.016
Mof_C 	C 	0.4174	0.44	0.2502	0.059
Mof_H 	H 	0.4622	0.4188	0.2649	0.017
Mof_C 	C 	0.392	0.451	0.1988	-0.086
Mof_H 	H 	0.4223	0.4401	0.1791	0.063
Mof_O 	O 	0.537	0.181	0.8293	-0.601
Mof_C 	C 	0.5581	0.2127	0.7981	0.49
Mof_N 	N 	0.5337	0.2744	0.7783	-0.222
Mof_C 	C 	0.484	0.312	0.7978	0.195
Mof_H 	H 	0.4728	0.2846	0.8236	-0.017
Mof_H 	H 	0.4411	0.322	0.7715	-0.049
Mof_H 	H 	0.5052	0.3565	0.8117	-0.006
Mof_C 	C 	0.557	0.317	0.7427	0.064
Mof_H 	H 	0.5885	0.2868	0.7317	0.017
Mof_H 	H 	0.58	0.3611	0.7553	0.019
Mof_H 	H 	0.5159	0.3265	0.7151	-0.083
Mof_C 	C 	0.6122	0.171	0.7769	-1.305
Mof_H 	H 	0.6239	0.1273	0.7952	0.369
Mof_H 	H 	0.6543	0.1989	0.7809	0.405
Mof_H 	H 	0.5909	0.1611	0.742	0.291
Mof_O 	O 	0.639	0.972	0.8288	0.087
Mof_Eu	Eu	0.99451	0.48378	0.91361	2.355
Mof_Eu	Eu	0.95628	0.06882	0.94133	1.526
Mof_O 	O 	0.9077	0.5742	0.86681	-0.456
Mof_O 	O 	0.9882	0.6127	0.93482	-0.462
Mof_O 	O 	0.0765	0.3943	0.8906	0.011
Mof_O 	O 	0.579	0.7989	0.615	-0.375
Mof_O 	O 	0.5918	0.911	0.6387	-0.627
Mof_O 	O 	0.921	0.9469	0.9255	-0.183
Mof_O 	O 	0.988	0.8705	0.9815	-0.555
Mof_O 	O 	0.9382	0.9956	0.0286	-0.146
Mof_O 	O 	0.9681	0.9645	0.3566	-0.43
Mof_O 	O 	0.8637	0.9313	0.3588	-0.486
Mof_O 	O 	0.5829	0.0082	0.0374	-0.923
Mof_O 	O 	0.61	2.0531e-32	0.9669	-1.144
Mof_O 	O 	0.8551	0.0534	0.9712	-0.522
Mof_C 	C 	0.9353	0.6238	0.8965	0.327
Mof_C 	C 	0.906	0.6983	0.8861	-0.089
Mof_C 	C 	0.9351	0.7542	0.9184	0.045
Mof_H 	H 	0.9718	0.745	0.9484	0.023
Mof_C 	C 	0.9106	0.8235	0.9068	-0.095
Mof_C 	C 	0.9437	0.8862	0.9409	0.47
Mof_C 	C 	0.8568	0.8368	0.8627	0.002
Mof_H 	H 	0.8405	0.8845	0.8548	0.094
Mof_C 	C 	0.8263	0.7808	0.8297	-0.038
Mof_C 	C 	0.8516	0.7116	0.8425	-0.002
Mof_H 	H 	0.8314	0.6727	0.821	0.028
Mof_C 	C 	0.7696	0.7961	0.7824	0.077
Mof_C 	C 	0.7618	0.8644	0.7614	0.116
Mof_H 	H 	0.7934	0.9014	0.7775	0.054
Mof_C 	C 	0.709	0.8798	0.7176	0.214
Mof_H 	H 	0.704	0.9274	0.7047	0.148
Mof_C 	C 	0.6731	0.7577	0.7114	0.557
Mof_H 	H 	0.6438	0.7201	0.6936	-0.158
Mof_C 	C 	0.7247	0.7426	0.7558	0.501
Mof_H 	H 	0.7296	0.6949	0.7685	-0.132
Mof_C 	C 	0.6637	0.8274	0.6924	-0.088
Mof_C 	C 	0.6074	0.8466	0.6453	0.506
Mof_C 	C 	0.8757	0.0184	0.0111	0.232
Mof_C 	C 	0.8241	0.0054	0.04	-1.514
Mof_C 	C 	0.7526	0.0103	0.0152	1.139
Mof_H 	H 	0.7371	0.0195	0.9801	-0.397
Mof_C 	C 	0.7038	0.0016	0.0416	-1.686
Mof_C 	C 	0.627	0.0037	0.0138	1.008
Mof_C 	C 	0.7271	0.9913	0.0931	1.775
Mof_H 	H 	0.6936	0.9876	0.1113	-0.384
Mof_C 	C 	0.7996	0.9862	0.1189	-1.298
Mof_C 	C 	0.8472	0.9924	0.0911	1.741
Mof_H 	H 	0.8963	0.9877	0.1075	-0.441
Mof_C 	C 	0.8253	0.9774	0.1744	1.281
Mof_C 	C 	0.8757	0.9617	0.2789	-0.942
Mof_C 	C 	0.9038	0.9508	0.3347	0.697
Mof_C 	C 	0.7793	0.956	0.2001	0.038
Mof_H 	H 	0.7311	0.9463	0.1833	0.103
Mof_C 	C 	0.8069	0.9493	0.2517	0.041
Mof_H 	H 	0.7754	0.9349	0.2699	-0.053
Mof_C 	C 	0.9161	0.999	0.2532	-7.659
Mof_H 	H 	0.9605	0.0189	0.2712	2.147
Mof_C 	C 	0.8908	0.0066	0.2014	8.795
Mof_H 	H 	0.9182	0.0318	0.184	-3.151
Mof_O 	O 	0.0438	0.5362	0.8542	-0.497
Mof_N 	N 	0.0807	0.5382	0.7841	-0.025
Mof_C 	C 	0.0629	0.5627	0.8212	0.285
Mof_C 	C 	0.1077	0.5761	0.7488	-0.952
Mof_H 	H 	0.1101	0.6276	0.7566	0.571
Mof_H 	H 	0.155	0.5583	0.751	0.295
Mof_H 	H 	0.0764	0.5684	0.7147	0.313
Mof_C 	C 	0.076	0.4612	0.7789	-0.248
Mof_H 	H 	0.0578	0.4409	0.8049	0.137
Mof_H 	H 	0.045	0.4487	0.7457	0.1
Mof_H 	H 	0.1236	0.4416	0.7827	0.146
Mof_C 	C 	0.076	0.6458	0.827	-0.143
Mof_H 	H 	0.0621	0.6633	0.8558	0.394
Mof_H 	H 	0.1262	0.6558	0.8322	0.068
Mof_H 	H 	0.048	0.6702	0.7965	0.092
Mof_O 	O 	0.0496	0.3877	0.8754	-0.364
Mof_C 	C 	0.73	0.859	0.7786	-0.2
Mof_H 	H 	0.7385	0.8911	0.8061	0.155
Mof_C 	C 	0.677	0.873	0.7342	-0.213
Mof_H 	H 	0.6497	0.9157	0.732	0.168
Mof_C 	C 	0.698	0.765	0.699	-0.534
Mof_H 	H 	0.6859	0.7302	0.673	0.179
Mof_C 	C 	0.751	0.75	0.7436	-0.617
Mof_H 	H 	0.7746	0.7054	0.7466	0.168
Mof_C 	C 	0.789	0.95	0.206	-0.272
Mof_H 	H 	0.7423	0.9366	0.1889	0.038
Mof_C 	C 	0.807	0.939	0.2575	0.327
Mof_H 	H 	0.7774	0.9184	0.2749	0.003
Mof_C 	C 	0.9174	0.94	0.2502	9.861
Mof_H 	H 	0.9622	0.9188	0.2649	-3.134
Mof_C 	C 	0.892	0.951	0.1988	-10.434
Mof_H 	H 	0.9223	0.9401	0.1791	3.504
Mof_O 	O 	0.037	0.681	0.8293	-0.699
Mof_C 	C 	0.0581	0.7127	0.7981	0.715
Mof_N 	N 	0.0337	0.7744	0.7783	-0.245
Mof_C 	C 	0.984	0.812	0.7978	0.206
Mof_H 	H 	0.9728	0.7846	0.8236	-0.015
Mof_H 	H 	0.9411	0.822	0.7715	-0.045
Mof_H 	H 	0.0052	0.8565	0.8117	0.013
Mof_C 	C 	0.057	0.817	0.7427	0.028
Mof_H 	H 	0.0885	0.7868	0.7317	0.04
Mof_H 	H 	0.08	0.8611	0.7553	0.101
Mof_H 	H 	0.0159	0.8265	0.7151	-0.07
Mof_C 	C 	0.1122	0.671	0.7769	-1.742
Mof_H 	H 	0.1239	0.6273	0.7952	0.502
Mof_H 	H 	0.1543	0.6989	0.7809	0.567
Mof_H 	H 	0.0909	0.6611	0.742	0.344
Mof_O 	O 	0.139	0.472	0.8288	-0.176
_end
