# CIF file generated by openbabel 3.1.0, see https://openbabel.org
data_I
_chemical_name_common 'GELVEZ02_clean'
_cell_length_a 9.0553
_cell_length_b 9.0553
_cell_length_c 10.8872
_cell_angle_alpha 90
_cell_angle_beta 90
_cell_angle_gamma 120
_space_group_name_H-M_alt 'P 1'
_space_group_name_Hall 'P 1'
loop_
    _symmetry_equiv_pos_as_xyz
    x,y,z
loop_
    _atom_site_label
    _atom_site_type_symbol
    _atom_site_fract_x
    _atom_site_fract_y
    _atom_site_fract_z
    _atom_site_occupancy
    Mn1      Mn       0.03000    0.00000    0.50000    1.000
    Mn2      Mn       0.97000    0.97000    0.83333    1.000
    Mn3      Mn       0.00000    0.03000    0.16667    1.000
    H1       H        0.37400    0.24700    0.59700    1.000
    H2       H        0.58880    0.51450    0.51050    1.000
    H3       H        0.87300    0.62600    0.93033    1.000
    H4       H        0.92570    0.41120    0.84383    1.000
    H5       H        0.75300    0.12700    0.26367    1.000
    H6       H        0.48550    0.07430    0.17717    1.000
    H7       H        0.12700    0.75300    0.40300    1.000
    H8       H        0.07430    0.48550    0.48950    1.000
    H9       H        0.24700    0.37400    0.06967    1.000
    H10      H        0.51450    0.58880    0.15617    1.000
    H11      H        0.62600    0.87300    0.73633    1.000
    H12      H        0.41120    0.92570    0.82283    1.000
    C1       C        0.37280    0.32350    0.43754    1.000
    C2       C        0.52330    0.47720    0.43935    1.000
    C3       C        0.95070    0.62720    0.77087    1.000
    C4       C        0.95390    0.47670    0.77268    1.000
    C5       C        0.67650    0.04930    0.10421    1.000
    C6       C        0.52280    0.04610    0.10602    1.000
    C7       C        0.04930    0.67650    0.56246    1.000
    C8       C        0.04610    0.52280    0.56065    1.000
    C9       C        0.32350    0.37280    0.22913    1.000
    C10      C        0.47720    0.52330    0.22732    1.000
    C11      C        0.62720    0.95070    0.89579    1.000
    C12      C        0.47670    0.95390    0.89398    1.000
    C13      C        0.74020    0.74020    0.33333    1.000
    C14      C        0.26930    0.26930    0.33333    1.000
    C15      C        0.57550    0.57550    0.33333    1.000
    C16      C        0.00000    0.25980    0.66667    1.000
    C17      C        0.00000    0.73070    0.66667    1.000
    C18      C        0.00000    0.42450    0.66667    1.000
    C19      C        0.25980    0.00000    0.00000    1.000
    C20      C        0.73070    0.00000    0.00000    1.000
    C21      C        0.42450    0.00000    0.00000    1.000
    O1       O        0.78270    0.82770    0.43051    1.000
    O2       O        0.30970    0.21130    0.53484    1.000
    O3       O        0.04500    0.21730    0.76384    1.000
    O4       O        0.90160    0.69030    0.86817    1.000
    O5       O        0.17230    0.95500    0.09718    1.000
    O6       O        0.78870    0.09840    0.20151    1.000
    O7       O        0.95500    0.17230    0.56949    1.000
    O8       O        0.09840    0.78870    0.46516    1.000
    O9       O        0.82770    0.78270    0.23616    1.000
    O10      O        0.21130    0.30970    0.13183    1.000
    O11      O        0.21730    0.04500    0.90282    1.000
    O12      O        0.69030    0.90160    0.79849    1.000
    O13      O        0.12270    0.12270    0.33333    1.000
    O14      O        0.00000    0.87730    0.66667    1.000
    O15      O        0.87730    0.00000    0.00000    1.000
