# CIF file generated by openbabel 3.1.0, see https://openbabel.org
data_I
_chemical_name_common 'image0'
_cell_length_a 8.258
_cell_length_b 14.371
_cell_length_c 16.189
_cell_angle_alpha 90
_cell_angle_beta 90
_cell_angle_gamma 90
_space_group_name_H-M_alt 'P 1'
_space_group_name_Hall 'P 1'
loop_
    _symmetry_equiv_pos_as_xyz
    x,y,z
loop_
    _atom_site_label
    _atom_site_type_symbol
    _atom_site_fract_x
    _atom_site_fract_y
    _atom_site_fract_z
    _atom_site_occupancy
    Ag1      Ag       0.20658    0.08698    0.15224    1.000
    S1       S        0.22530    0.24290    0.23810    1.000
    S2       S        0.45520    0.36700    0.93440    1.000
    S3       S        0.97050    0.49170    0.89520    1.000
    S4       S        0.83180    0.45460    0.23450    1.000
    C1       C        0.37800    0.30910    0.18430    1.000
    C2       C        0.35800    0.30880    0.09020    1.000
    C3       C        0.48900    0.36190    0.04560    1.000
    C4       C        0.29200    0.45230    0.92540    1.000
    C5       C        0.12800    0.40570    0.91350    1.000
    C6       C        0.94300    0.54340    0.99610    1.000
    C7       C        0.89800    0.47720    0.06600    1.000
    C8       C        0.87400    0.52820    0.14610    1.000
    C9       C        0.02600    0.39710    0.25470    1.000
    C10      C        0.04100    0.30420    0.21260    1.000
    O1       O        0.26500    0.26100    0.05660    1.000
    O2       O        0.36700    0.10120    0.94460    1.000
    H1       H        0.48300    0.28400    0.19600    1.000
    H2       H        0.37400    0.37300    0.20200    1.000
    H3       H        0.59200    0.33000    0.05500    1.000
    H4       H        0.49500    0.42400    0.06700    1.000
    H5       H        0.31300    0.49200    0.87900    1.000
    H6       H        0.28900    0.48900    0.97500    1.000
    H7       H        0.10100    0.37200    0.96200    1.000
    H8       H        0.13300    0.36500    0.86700    1.000
    H9       H        0.85900    0.58900    0.99100    1.000
    H10      H        0.04300    0.57300    0.01100    1.000
    H11      H        0.78500    0.57100    0.13900    1.000
    H12      H        0.97100    0.56300    0.15800    1.000
    H13      H        0.03400    0.38800    0.31300    1.000
    H14      H        0.11000    0.43700    0.23600    1.000
    H15      H        0.03700    0.31400    0.15300    1.000
    H16      H        0.94900    0.26600    0.22700    1.000
    Ag2      Ag       0.29342    0.91302    0.65224    1.000
    S5       S        0.27470    0.75710    0.73810    1.000
    S6       S        0.04480    0.63300    0.43440    1.000
    S7       S        0.52950    0.50830    0.39520    1.000
    S8       S        0.66820    0.54540    0.73450    1.000
    C11      C        0.12200    0.69090    0.68430    1.000
    C12      C        0.14200    0.69120    0.59020    1.000
    C13      C        0.01100    0.63810    0.54560    1.000
    C14      C        0.20800    0.54770    0.42540    1.000
    C15      C        0.37200    0.59430    0.41350    1.000
    C16      C        0.55700    0.45660    0.49610    1.000
    C17      C        0.60200    0.52280    0.56600    1.000
    C18      C        0.62600    0.47180    0.64610    1.000
    C19      C        0.47400    0.60290    0.75470    1.000
    C20      C        0.45900    0.69580    0.71260    1.000
    O3       O        0.23500    0.73900    0.55660    1.000
    O4       O        0.13300    0.89880    0.44460    1.000
    H17      H        0.01700    0.71600    0.69600    1.000
    H18      H        0.12600    0.62700    0.70200    1.000
    H19      H        0.90800    0.67000    0.55500    1.000
    H20      H        0.00500    0.57600    0.56700    1.000
    H21      H        0.18700    0.50800    0.37900    1.000
    H22      H        0.21100    0.51100    0.47500    1.000
    H23      H        0.39900    0.62800    0.46200    1.000
    H24      H        0.36700    0.63500    0.36700    1.000
    H25      H        0.64100    0.41100    0.49100    1.000
    H26      H        0.45700    0.42700    0.51100    1.000
    H27      H        0.71500    0.42900    0.63900    1.000
    H28      H        0.52900    0.43700    0.65800    1.000
    H29      H        0.46600    0.61200    0.81300    1.000
    H30      H        0.39000    0.56300    0.73600    1.000
    H31      H        0.46300    0.68600    0.65300    1.000
    H32      H        0.55100    0.73400    0.72700    1.000
    Ag3      Ag       0.79342    0.58698    0.34776    1.000
    S9       S        0.77470    0.74290    0.26190    1.000
    S10      S        0.54480    0.86700    0.56560    1.000
    S11      S        0.02950    0.99170    0.60480    1.000
    S12      S        0.16820    0.95460    0.26550    1.000
    C21      C        0.62200    0.80910    0.31570    1.000
    C22      C        0.64200    0.80880    0.40980    1.000
    C23      C        0.51100    0.86190    0.45440    1.000
    C24      C        0.70800    0.95230    0.57460    1.000
    C25      C        0.87200    0.90570    0.58650    1.000
    C26      C        0.05700    0.04340    0.50390    1.000
    C27      C        0.10200    0.97720    0.43400    1.000
    C28      C        0.12600    0.02820    0.35390    1.000
    C29      C        0.97400    0.89710    0.24530    1.000
    C30      C        0.95900    0.80420    0.28740    1.000
    O5       O        0.73500    0.76100    0.44340    1.000
    O6       O        0.63300    0.60120    0.55540    1.000
    H33      H        0.51700    0.78400    0.30400    1.000
    H34      H        0.62600    0.87300    0.29800    1.000
    H35      H        0.40800    0.83000    0.44500    1.000
    H36      H        0.50500    0.92400    0.43300    1.000
    H37      H        0.68700    0.99200    0.62100    1.000
    H38      H        0.71100    0.98900    0.52500    1.000
    H39      H        0.89900    0.87200    0.53800    1.000
    H40      H        0.86700    0.86500    0.63300    1.000
    H41      H        0.14100    0.08900    0.50900    1.000
    H42      H        0.95700    0.07300    0.48900    1.000
    H43      H        0.21500    0.07100    0.36100    1.000
    H44      H        0.02900    0.06300    0.34200    1.000
    H45      H        0.96600    0.88800    0.18700    1.000
    H46      H        0.89000    0.93700    0.26400    1.000
    H47      H        0.96300    0.81400    0.34700    1.000
    H48      H        0.05100    0.76600    0.27300    1.000
    Ag4      Ag       0.70658    0.41302    0.84776    1.000
    S13      S        0.72530    0.25710    0.76190    1.000
    S14      S        0.95520    0.13300    0.06560    1.000
    S15      S        0.47050    0.00830    0.10480    1.000
    S16      S        0.33180    0.04540    0.76550    1.000
    C31      C        0.87800    0.19090    0.81570    1.000
    C32      C        0.85800    0.19120    0.90980    1.000
    C33      C        0.98900    0.13810    0.95440    1.000
    C34      C        0.79200    0.04770    0.07460    1.000
    C35      C        0.62800    0.09430    0.08650    1.000
    C36      C        0.44300    0.95660    0.00390    1.000
    C37      C        0.39800    0.02280    0.93400    1.000
    C38      C        0.37400    0.97180    0.85390    1.000
    C39      C        0.52600    0.10290    0.74530    1.000
    C40      C        0.54100    0.19580    0.78740    1.000
    O7       O        0.76500    0.23900    0.94340    1.000
    O8       O        0.86700    0.39880    0.05540    1.000
    H49      H        0.98300    0.21600    0.80400    1.000
    H50      H        0.87400    0.12700    0.79800    1.000
    H51      H        0.09200    0.17000    0.94500    1.000
    H52      H        0.99500    0.07600    0.93300    1.000
    H53      H        0.81300    0.00800    0.12100    1.000
    H54      H        0.78900    0.01100    0.02500    1.000
    H55      H        0.60100    0.12800    0.03800    1.000
    H56      H        0.63300    0.13500    0.13300    1.000
    H57      H        0.35900    0.91100    0.00900    1.000
    H58      H        0.54300    0.92700    0.98900    1.000
    H59      H        0.28500    0.92900    0.86100    1.000
    H60      H        0.47100    0.93700    0.84200    1.000
    H61      H        0.53400    0.11200    0.68700    1.000
    H62      H        0.61000    0.06300    0.76400    1.000
    H63      H        0.53700    0.18600    0.84700    1.000
    H64      H        0.44900    0.23400    0.77300    1.000
