data_functionalizedCrystal
_audit_creation_method	'EQeq! by Chris Wilmer'
_symmetry_space_group_name_H-M	'P1'
_symmetry_Int_Tables_number	1
_symmetry_cell_setting	triclinic
loop_
_symmetry_equiv_pos_as_xyz
  x,y,z
_cell_length_a	6.419
_cell_length_b	7.9361
_cell_length_c	8.911
_cell_angle_alpha	103.757
_cell_angle_beta	104.137
_cell_angle_gamma	106.945
loop_
_atom_site_label
_atom_site_type_symbol
_atom_site_fract_x
_atom_site_fract_y
_atom_site_fract_z
_atom_site_charge
Mof_Ba	Ba	0.15118	0.27066	0.4275	1.722
Mof_O 	O 	0.1647	0.5782	0.68498	-0.54
Mof_O 	O 	0.198	0.3399	0.76488	-0.407
Mof_O 	O 	0.383	0.5793	0.36247	-0.579
Mof_O 	O 	0.3721	0.8102	0.26313	-0.424
Mof_C 	C 	0.1631	0.4895	0.7873	0.318
Mof_C 	C 	0.1085	0.572	0.9377	-0.092
Mof_H 	H 	0.1797	0.7115	0.9773	0.011
Mof_C 	C 	0.3188	0.6393	0.2469	0.38
Mof_C 	C 	0.158	0.4964	0.082	-0.145
Mof_H 	H 	0.2078	0.3883	0.0529	0.025
Mof_O 	O 	0.2177	0.9589	0.50826	-0.937
Mof_H 	H 	0.261	0.908	0.435	0.333
Mof_H 	H 	0.344	0.015	0.582	0.335
Mof_Ba	Ba	0.84882	0.72934	0.5725	1.722
Mof_O 	O 	0.8353	0.4218	0.31502	-0.54
Mof_O 	O 	0.802	0.6601	0.23512	-0.407
Mof_O 	O 	0.617	0.4207	0.63753	-0.579
Mof_O 	O 	0.6279	0.1898	0.73687	-0.424
Mof_C 	C 	0.8369	0.5105	0.2127	0.318
Mof_C 	C 	0.8915	0.428	0.0623	-0.092
Mof_H 	H 	0.8203	0.2885	0.0227	0.011
Mof_C 	C 	0.6812	0.3607	0.7531	0.38
Mof_C 	C 	0.842	0.5036	0.918	-0.145
Mof_H 	H 	0.7922	0.6117	0.9471	0.025
Mof_O 	O 	0.7823	0.0411	0.49174	-0.937
Mof_H 	H 	0.739	0.092	0.565	0.333
Mof_H 	H 	0.656	0.985	0.418	0.335
_end
