data_functionalizedCrystal
_audit_creation_method	'EQeq! by Chris Wilmer'
_symmetry_space_group_name_H-M	'P1'
_symmetry_Int_Tables_number	1
_symmetry_cell_setting	triclinic
loop_
_symmetry_equiv_pos_as_xyz
  x,y,z
_cell_length_a	8.5389
_cell_length_b	17.2009
_cell_length_c	17.2009
_cell_angle_alpha	90
_cell_angle_beta	90
_cell_angle_gamma	90
loop_
_atom_site_label
_atom_site_type_symbol
_atom_site_fract_x
_atom_site_fract_y
_atom_site_fract_z
_atom_site_charge
Mof_Eu	Eu	0.15047	0.96304	0.11061	2.358
Mof_Eu	Eu	0.15047	0.03696	0.88939	2.358
Mof_Eu	Eu	0.84953	0.11061	0.03696	2.358
Mof_Eu	Eu	0.84953	0.88939	0.96304	2.358
Mof_Eu	Eu	0.34953	0.53696	0.61061	2.358
Mof_Eu	Eu	0.34953	0.46304	0.38939	2.358
Mof_Eu	Eu	0.65047	0.38939	0.53696	2.358
Mof_Eu	Eu	0.65047	0.61061	0.46304	2.358
Mof_H 	H 	0.444	0.2362	0.248	-0.026
Mof_H 	H 	0.6765	0.1674	0.4383	-0.034
Mof_H 	H 	0.7423	0.0522	0.3772	0.113
Mof_H 	H 	0.6517	0.0267	0.2526	-0.03
Mof_H 	H 	0.201	0.109	0.04	0.269
Mof_H 	H 	0.444	0.7638	0.752	-0.026
Mof_H 	H 	0.6765	0.8326	0.5617	-0.034
Mof_H 	H 	0.7423	0.9478	0.6228	0.113
Mof_H 	H 	0.6517	0.9733	0.7474	-0.03
Mof_H 	H 	0.201	0.891	0.96	0.269
Mof_H 	H 	0.556	0.248	0.7638	-0.026
Mof_H 	H 	0.3235	0.4383	0.8326	-0.034
Mof_H 	H 	0.2577	0.3772	0.9478	0.113
Mof_H 	H 	0.3483	0.2526	0.9733	-0.03
Mof_H 	H 	0.799	0.04	0.891	0.269
Mof_H 	H 	0.556	0.752	0.2362	-0.026
Mof_H 	H 	0.3235	0.5617	0.1674	-0.034
Mof_H 	H 	0.2577	0.6228	0.0522	0.113
Mof_H 	H 	0.3483	0.7474	0.0267	-0.03
Mof_H 	H 	0.799	0.96	0.109	0.269
Mof_H 	H 	0.056	0.2638	0.748	-0.026
Mof_H 	H 	0.8235	0.3326	0.9383	-0.034
Mof_H 	H 	0.7577	0.4478	0.8772	0.113
Mof_H 	H 	0.8483	0.4733	0.7526	-0.03
Mof_H 	H 	0.299	0.391	0.54	0.269
Mof_H 	H 	0.056	0.7362	0.252	-0.026
Mof_H 	H 	0.8235	0.6674	0.0617	-0.034
Mof_H 	H 	0.7577	0.5522	0.1228	0.113
Mof_H 	H 	0.8483	0.5267	0.2474	-0.03
Mof_H 	H 	0.299	0.609	0.46	0.269
Mof_H 	H 	0.944	0.252	0.2638	-0.026
Mof_H 	H 	0.1765	0.0617	0.3326	-0.034
Mof_H 	H 	0.2423	0.1228	0.4478	0.113
Mof_H 	H 	0.1517	0.2474	0.4733	-0.03
Mof_H 	H 	0.701	0.46	0.391	0.269
Mof_H 	H 	0.944	0.748	0.7362	-0.026
Mof_H 	H 	0.1765	0.9383	0.6674	-0.034
Mof_H 	H 	0.2423	0.8772	0.5522	0.113
Mof_H 	H 	0.1517	0.7526	0.5267	-0.03
Mof_H 	H 	0.701	0.54	0.609	0.269
Mof_C 	C 	0.5414	0.12905	0.23851	-0.274
Mof_C 	C 	0.503	0.19907	0.2743	0.187
Mof_C 	C 	0.5537	0.2127	0.3495	-0.262
Mof_C 	C 	0.5097	0.28687	0.3901	0.528
Mof_C 	C 	0.6424	0.1579	0.3879	0.178
Mof_C 	C 	0.681	0.0887	0.3515	-0.246
Mof_C 	C 	0.6284	0.07367	0.2767	0.178
Mof_C 	C 	0.5414	0.87095	0.76149	-0.274
Mof_C 	C 	0.503	0.80093	0.7257	0.187
Mof_C 	C 	0.5537	0.7873	0.6505	-0.262
Mof_C 	C 	0.5097	0.71313	0.6099	0.528
Mof_C 	C 	0.6424	0.8421	0.6121	0.178
Mof_C 	C 	0.681	0.9113	0.6485	-0.246
Mof_C 	C 	0.6284	0.92633	0.7233	0.178
Mof_C 	C 	0.4586	0.23851	0.87095	-0.274
Mof_C 	C 	0.497	0.2743	0.80093	0.187
Mof_C 	C 	0.4463	0.3495	0.7873	-0.262
Mof_C 	C 	0.4903	0.3901	0.71313	0.528
Mof_C 	C 	0.3576	0.3879	0.8421	0.178
Mof_C 	C 	0.319	0.3515	0.9113	-0.246
Mof_C 	C 	0.3716	0.2767	0.92633	0.178
Mof_C 	C 	0.4586	0.76149	0.12905	-0.274
Mof_C 	C 	0.497	0.7257	0.19907	0.187
Mof_C 	C 	0.4463	0.6505	0.2127	-0.262
Mof_C 	C 	0.4903	0.6099	0.28687	0.528
Mof_C 	C 	0.3576	0.6121	0.1579	0.178
Mof_C 	C 	0.319	0.6485	0.0887	-0.246
Mof_C 	C 	0.3716	0.7233	0.07367	0.178
Mof_C 	C 	0.9586	0.37095	0.73851	-0.274
Mof_C 	C 	0.997	0.30093	0.7743	0.187
Mof_C 	C 	0.9463	0.2873	0.8495	-0.262
Mof_C 	C 	0.9903	0.21313	0.8901	0.528
Mof_C 	C 	0.8576	0.3421	0.8879	0.178
Mof_C 	C 	0.819	0.4113	0.8515	-0.246
Mof_C 	C 	0.8716	0.42633	0.7767	0.178
Mof_C 	C 	0.9586	0.62905	0.26149	-0.274
Mof_C 	C 	0.997	0.69907	0.2257	0.187
Mof_C 	C 	0.9463	0.7127	0.1505	-0.262
Mof_C 	C 	0.9903	0.78687	0.1099	0.528
Mof_C 	C 	0.8576	0.6579	0.1121	0.178
Mof_C 	C 	0.819	0.5887	0.1485	-0.246
Mof_C 	C 	0.8716	0.57367	0.2233	0.178
Mof_C 	C 	0.0414	0.26149	0.37095	-0.274
Mof_C 	C 	0.003	0.2257	0.30093	0.187
Mof_C 	C 	0.0537	0.1505	0.2873	-0.262
Mof_C 	C 	0.0097	0.1099	0.21313	0.528
Mof_C 	C 	0.1424	0.1121	0.3421	0.178
Mof_C 	C 	0.181	0.1485	0.4113	-0.246
Mof_C 	C 	0.1284	0.2233	0.42633	0.178
Mof_C 	C 	0.0414	0.73851	0.62905	-0.274
Mof_C 	C 	0.003	0.7743	0.69907	0.187
Mof_C 	C 	0.0537	0.8495	0.7127	-0.262
Mof_C 	C 	0.0097	0.8901	0.78687	0.528
Mof_C 	C 	0.1424	0.8879	0.6579	0.178
Mof_C 	C 	0.181	0.8515	0.5887	-0.246
Mof_C 	C 	0.1284	0.7767	0.57367	0.178
Mof_S 	S 	0.47619	0.10829	0.14323	0.769
Mof_S 	S 	0.47619	0.89171	0.85677	0.769
Mof_S 	S 	0.52381	0.14323	0.89171	0.769
Mof_S 	S 	0.52381	0.85677	0.10829	0.769
Mof_S 	S 	0.02381	0.39171	0.64323	0.769
Mof_S 	S 	0.02381	0.60829	0.35677	0.769
Mof_S 	S 	0.97619	0.35677	0.39171	0.769
Mof_S 	S 	0.97619	0.64323	0.60829	0.769
Mof_O 	O 	0.3534	0.05071	0.15149	-0.582
Mof_O 	O 	0.6124	0.07563	0.10369	-0.592
Mof_O 	O 	0.4191	0.17954	0.10865	-0.376
Mof_O 	O 	0.457	0.34153	0.35072	-0.605
Mof_O 	O 	0.5305	0.28935	0.46328	-0.594
Mof_O 	O 	0.1214	0.07366	0.0258	-0.959
Mof_O 	O 	0.3534	0.94929	0.84851	-0.582
Mof_O 	O 	0.6124	0.92437	0.89631	-0.592
Mof_O 	O 	0.4191	0.82046	0.89135	-0.376
Mof_O 	O 	0.457	0.65847	0.64928	-0.605
Mof_O 	O 	0.5305	0.71065	0.53672	-0.594
Mof_O 	O 	0.1214	0.92634	0.9742	-0.959
Mof_O 	O 	0.6466	0.15149	0.94929	-0.582
Mof_O 	O 	0.3876	0.10369	0.92437	-0.592
Mof_O 	O 	0.5809	0.10865	0.82046	-0.376
Mof_O 	O 	0.543	0.35072	0.65847	-0.605
Mof_O 	O 	0.4695	0.46328	0.71065	-0.594
Mof_O 	O 	0.8786	0.0258	0.92634	-0.959
Mof_O 	O 	0.6466	0.84851	0.05071	-0.582
Mof_O 	O 	0.3876	0.89631	0.07563	-0.592
Mof_O 	O 	0.5809	0.89135	0.17954	-0.376
Mof_O 	O 	0.543	0.64928	0.34153	-0.605
Mof_O 	O 	0.4695	0.53672	0.28935	-0.594
Mof_O 	O 	0.8786	0.9742	0.07366	-0.959
Mof_O 	O 	0.1466	0.44929	0.65149	-0.582
Mof_O 	O 	0.8876	0.42437	0.60369	-0.592
Mof_O 	O 	0.0809	0.32046	0.60865	-0.376
Mof_O 	O 	0.043	0.15847	0.85072	-0.605
Mof_O 	O 	0.9695	0.21065	0.96328	-0.594
Mof_O 	O 	0.3786	0.42634	0.5258	-0.959
Mof_O 	O 	0.1466	0.55071	0.34851	-0.582
Mof_O 	O 	0.8876	0.57563	0.39631	-0.592
Mof_O 	O 	0.0809	0.67954	0.39135	-0.376
Mof_O 	O 	0.043	0.84153	0.14928	-0.605
Mof_O 	O 	0.9695	0.78935	0.03672	-0.594
Mof_O 	O 	0.3786	0.57366	0.4742	-0.959
Mof_O 	O 	0.8534	0.34851	0.44929	-0.582
Mof_O 	O 	0.1124	0.39631	0.42437	-0.592
Mof_O 	O 	0.9191	0.39135	0.32046	-0.376
Mof_O 	O 	0.957	0.14928	0.15847	-0.605
Mof_O 	O 	0.0305	0.03672	0.21065	-0.594
Mof_O 	O 	0.6214	0.4742	0.42634	-0.959
Mof_O 	O 	0.8534	0.65149	0.55071	-0.582
Mof_O 	O 	0.1124	0.60369	0.57563	-0.592
Mof_O 	O 	0.9191	0.60865	0.67954	-0.376
Mof_O 	O 	0.957	0.85072	0.84153	-0.605
Mof_O 	O 	0.0305	0.96328	0.78935	-0.594
Mof_O 	O 	0.6214	0.5258	0.57366	-0.959
_end
