# CIF file generated by openbabel 3.1.0, see https://openbabel.org
data_I
_chemical_name_common 'RILVOZ_clean'
_cell_length_a 7.437
_cell_length_b 11.278
_cell_length_c 15.164
_cell_angle_alpha 90
_cell_angle_beta 90
_cell_angle_gamma 90
_space_group_name_H-M_alt 'P 1'
_space_group_name_Hall 'P 1'
loop_
    _symmetry_equiv_pos_as_xyz
    x,y,z
loop_
    _atom_site_label
    _atom_site_type_symbol
    _atom_site_fract_x
    _atom_site_fract_y
    _atom_site_fract_z
    _atom_site_occupancy
    Mn1      Mn       0.53531    0.28615    0.22059    1.000
    Mn2      Mn       0.46469    0.78615    0.77941    1.000
    Mn3      Mn       0.03531    0.28615    0.27941    1.000
    Mn4      Mn       0.96469    0.78615    0.72059    1.000
    H1       H        0.80640    0.02990    0.50070    1.000
    H2       H        0.36060    0.82160    0.49620    1.000
    H3       H        0.49430    0.01800    0.28210    1.000
    H4       H        0.03050    0.79080    0.33190    1.000
    H5       H        0.06690    0.86920    0.41800    1.000
    H6       H        0.16670    0.74460    0.40610    1.000
    H7       H        0.19360    0.52990    0.49930    1.000
    H8       H        0.63940    0.32160    0.50380    1.000
    H9       H        0.50570    0.51800    0.71790    1.000
    H10      H        0.96950    0.29080    0.66810    1.000
    H11      H        0.93310    0.36920    0.58200    1.000
    H12      H        0.83330    0.24460    0.59390    1.000
    H13      H        0.30640    0.02990    0.99930    1.000
    H14      H        0.86060    0.82160    0.00380    1.000
    H15      H        0.99430    0.01800    0.21790    1.000
    H16      H        0.53050    0.79080    0.16810    1.000
    H17      H        0.56690    0.86920    0.08200    1.000
    H18      H        0.66670    0.74460    0.09390    1.000
    H19      H        0.69360    0.52990    0.00070    1.000
    H20      H        0.13940    0.32160    0.99620    1.000
    H21      H        0.00570    0.51800    0.78210    1.000
    H22      H        0.46950    0.29080    0.83190    1.000
    H23      H        0.43310    0.36920    0.91800    1.000
    H24      H        0.33330    0.24460    0.90610    1.000
    C1       C        0.78130    0.13093    0.34182    1.000
    C2       C        0.63620    0.86816    0.60106    1.000
    C3       C        0.66420    0.03949    0.38606    1.000
    C4       C        0.70340    0.00041    0.47080    1.000
    C5       C        0.59170    0.91794    0.51200    1.000
    C6       C        0.43960    0.87551    0.46776    1.000
    C7       C        0.40470    0.91237    0.38234    1.000
    C8       C        0.51770    0.99381    0.34106    1.000
    C9       C        0.12120    0.81480    0.37527    1.000
    C10      C        0.21870    0.63093    0.65818    1.000
    C11      C        0.36380    0.36816    0.39894    1.000
    C12      C        0.33580    0.53949    0.61394    1.000
    C13      C        0.29660    0.50041    0.52920    1.000
    C14      C        0.40830    0.41794    0.48800    1.000
    C15      C        0.56040    0.37551    0.53224    1.000
    C16      C        0.59530    0.41237    0.61766    1.000
    C17      C        0.48230    0.49381    0.65894    1.000
    C18      C        0.87880    0.31480    0.62473    1.000
    C19      C        0.28130    0.13093    0.15818    1.000
    C20      C        0.13620    0.86816    0.89894    1.000
    C21      C        0.16420    0.03949    0.11394    1.000
    C22      C        0.20340    0.00041    0.02920    1.000
    C23      C        0.09170    0.91794    0.98800    1.000
    C24      C        0.93960    0.87551    0.03224    1.000
    C25      C        0.90470    0.91237    0.11766    1.000
    C26      C        0.01770    0.99381    0.15894    1.000
    C27      C        0.62120    0.81480    0.12473    1.000
    C28      C        0.71870    0.63093    0.84182    1.000
    C29      C        0.86380    0.36816    0.10106    1.000
    C30      C        0.83580    0.53949    0.88606    1.000
    C31      C        0.79660    0.50041    0.97080    1.000
    C32      C        0.90830    0.41794    0.01200    1.000
    C33      C        0.06040    0.37551    0.96776    1.000
    C34      C        0.09530    0.41237    0.88234    1.000
    C35      C        0.98230    0.49381    0.84106    1.000
    C36      C        0.37880    0.31480    0.87527    1.000
    O1       O        0.73831    0.16835    0.26589    1.000
    O2       O        0.92038    0.16532    0.37936    1.000
    O3       O        0.79761    0.87057    0.62475    1.000
    O4       O        0.50775    0.82510    0.64465    1.000
    O5       O        0.26321    0.87173    0.33220    1.000
    O6       O        0.26169    0.66835    0.73411    1.000
    O7       O        0.07962    0.66532    0.62064    1.000
    O8       O        0.20239    0.37057    0.37525    1.000
    O9       O        0.49225    0.32510    0.35535    1.000
    O10      O        0.73679    0.37173    0.66780    1.000
    O11      O        0.23831    0.16835    0.23411    1.000
    O12      O        0.42038    0.16532    0.12064    1.000
    O13      O        0.29761    0.87057    0.87525    1.000
    O14      O        0.00775    0.82510    0.85535    1.000
    O15      O        0.76321    0.87173    0.16780    1.000
    O16      O        0.76169    0.66835    0.76589    1.000
    O17      O        0.57962    0.66532    0.87936    1.000
    O18      O        0.70239    0.37057    0.12475    1.000
    O19      O        0.99225    0.32510    0.14465    1.000
    O20      O        0.23679    0.37173    0.83220    1.000
