# CIF file generated by openbabel 3.1.0, see https://openbabel.org
data_I
_chemical_name_common 'image0'
_cell_length_a 7.4022
_cell_length_b 11.0853
_cell_length_c 19.2932
_cell_angle_alpha 90
_cell_angle_beta 90
_cell_angle_gamma 90
_space_group_name_H-M_alt 'P 1'
_space_group_name_Hall 'P 1'
loop_
    _symmetry_equiv_pos_as_xyz
    x,y,z
loop_
    _atom_site_label
    _atom_site_type_symbol
    _atom_site_fract_x
    _atom_site_fract_y
    _atom_site_fract_z
    _atom_site_occupancy
    N1       N        0.15980    0.06700    0.84010    1.000
    N2       N        0.84500    0.93110    0.98770    1.000
    C1       C        0.10400    0.12480    0.78430    1.000
    H1       H        0.98370    0.13680    0.77210    1.000
    C2       C        0.89060    0.86920    0.04400    1.000
    H2       H        0.01000    0.85380    0.05620    1.000
    N3       N        0.65980    0.56700    0.34010    1.000
    N4       N        0.34500    0.43110    0.48770    1.000
    C3       C        0.60400    0.62480    0.28430    1.000
    H3       H        0.48370    0.63680    0.27210    1.000
    C4       C        0.39060    0.36920    0.54400    1.000
    H4       H        0.51000    0.35380    0.55620    1.000
    N5       N        0.84020    0.93300    0.84010    1.000
    N6       N        0.15500    0.06890    0.98770    1.000
    C5       C        0.89600    0.87520    0.78430    1.000
    H5       H        0.01630    0.86320    0.77210    1.000
    C6       C        0.10940    0.13080    0.04400    1.000
    H6       H        0.99000    0.14620    0.05620    1.000
    N7       N        0.34020    0.43300    0.34010    1.000
    N8       N        0.65500    0.56890    0.48770    1.000
    C7       C        0.39600    0.37520    0.28430    1.000
    H7       H        0.51630    0.36320    0.27210    1.000
    C8       C        0.60940    0.63080    0.54400    1.000
    H8       H        0.49000    0.64620    0.55620    1.000
    N9       N        0.65980    0.93300    0.84010    1.000
    N10      N        0.34500    0.06890    0.98770    1.000
    C9       C        0.60400    0.87520    0.78430    1.000
    H9       H        0.48370    0.86320    0.77210    1.000
    C10      C        0.39060    0.13080    0.04400    1.000
    H10      H        0.51000    0.14620    0.05620    1.000
    N11      N        0.15980    0.43300    0.34010    1.000
    N12      N        0.84500    0.56890    0.48770    1.000
    C11      C        0.10400    0.37520    0.28430    1.000
    H11      H        0.98370    0.36320    0.27210    1.000
    C12      C        0.89060    0.63080    0.54400    1.000
    H12      H        0.01000    0.64620    0.55620    1.000
    N13      N        0.34020    0.06700    0.84010    1.000
    N14      N        0.65500    0.93110    0.98770    1.000
    C13      C        0.39600    0.12480    0.78430    1.000
    H13      H        0.51630    0.13680    0.77210    1.000
    C14      C        0.60940    0.86920    0.04400    1.000
    H14      H        0.49000    0.85380    0.05620    1.000
    N15      N        0.84020    0.56700    0.34010    1.000
    N16      N        0.15500    0.43110    0.48770    1.000
    C15      C        0.89600    0.62480    0.28430    1.000
    H15      H        0.01630    0.63680    0.27210    1.000
    C16      C        0.10940    0.36920    0.54400    1.000
    H16      H        0.99000    0.35380    0.55620    1.000
    Cu1      Cu       0.00000    0.00000    0.91473    1.000
    Cu2      Cu       0.50000    0.50000    0.41473    1.000
    Cu3      Cu       0.50000    0.00000    0.91473    1.000
    Cu4      Cu       0.00000    0.50000    0.41473    1.000
    Cu5      Cu       0.25000    0.24450    0.66273    1.000
    N17      N        0.25000    0.16460    0.74700    1.000
    N18      N        0.25000    0.33070    0.58170    1.000
    Cu6      Cu       0.75000    0.74450    0.16273    1.000
    N19      N        0.75000    0.66460    0.24700    1.000
    N20      N        0.75000    0.83070    0.08170    1.000
    Cu7      Cu       0.75000    0.75550    0.66273    1.000
    N21      N        0.75000    0.83540    0.74700    1.000
    N22      N        0.75000    0.66930    0.58170    1.000
    Cu8      Cu       0.25000    0.25550    0.16273    1.000
    N23      N        0.25000    0.33540    0.24700    1.000
    N24      N        0.25000    0.16930    0.08170    1.000
