data_functionalizedCrystal
_audit_creation_method	'EQeq! by Chris Wilmer'
_symmetry_space_group_name_H-M	'P1'
_symmetry_Int_Tables_number	1
_symmetry_cell_setting	triclinic
loop_
_symmetry_equiv_pos_as_xyz
  x,y,z
_cell_length_a	9.805
_cell_length_b	17.747
_cell_length_c	21.359
_cell_angle_alpha	103.13
_cell_angle_beta	90
_cell_angle_gamma	90
loop_
_atom_site_label
_atom_site_type_symbol
_atom_site_fract_x
_atom_site_fract_y
_atom_site_fract_z
_atom_site_charge
Mof_Mg	Mg	0.09839	0.22181	0.70888	1.476
Mof_Mg	Mg	0.76911	0.78468	0.93839	1.469
Mof_Mg	Mg	0.11229	0.30221	0.87833	1.455
Mof_Mg	Mg	0.59839	0.77819	0.79112	1.476
Mof_Mg	Mg	0.26911	0.21532	0.56161	1.469
Mof_Mg	Mg	0.61229	0.69779	0.62167	1.455
Mof_Mg	Mg	0.90161	0.77819	0.29112	1.476
Mof_Mg	Mg	0.23089	0.21532	0.06161	1.469
Mof_Mg	Mg	0.88771	0.69779	0.12167	1.455
Mof_Mg	Mg	0.40161	0.22181	0.20888	1.476
Mof_Mg	Mg	0.73089	0.78468	0.43839	1.469
Mof_Mg	Mg	0.38771	0.30221	0.37833	1.455
Mof_H 	H 	0.0086	0.9926	0.9295	0.027
Mof_H 	H 	0.0886	0.1114	0.9016	0.013
Mof_H 	H 	0.7666	0.5594	0.6932	0.001
Mof_H 	H 	0.8406	0.4243	0.6761	0.041
Mof_H 	H 	0.558	0.2265	0.6067	0.023
Mof_H 	H 	0.7886	0.2211	0.6482	0.046
Mof_H 	H 	0.5086	0.0074	0.5705	0.031
Mof_H 	H 	0.5886	0.8886	0.5984	0.006
Mof_H 	H 	0.2666	0.4406	0.8068	0.001
Mof_H 	H 	0.3406	0.5757	0.8239	0.041
Mof_H 	H 	0.058	0.7735	0.8933	0.024
Mof_H 	H 	0.2886	0.7789	0.8518	0.045
Mof_H 	H 	0.9914	0.0074	0.0705	0.026
Mof_H 	H 	0.9114	0.8886	0.0984	0.012
Mof_H 	H 	0.2334	0.4406	0.3068	0.001
Mof_H 	H 	0.1594	0.5757	0.3239	0.041
Mof_H 	H 	0.442	0.7735	0.3933	0.023
Mof_H 	H 	0.2114	0.7789	0.3518	0.046
Mof_H 	H 	0.4914	0.9926	0.4295	0.031
Mof_H 	H 	0.4114	0.1114	0.4016	0.006
Mof_H 	H 	0.7334	0.5594	0.1932	0.001
Mof_H 	H 	0.6594	0.4243	0.1761	0.041
Mof_H 	H 	0.942	0.2265	0.1067	0.024
Mof_H 	H 	0.7114	0.2211	0.1482	0.045
Mof_C 	C 	0.0156	0.2428	0.57242	0.381
Mof_C 	C 	0.5175	0.25578	0.48192	0.442
Mof_C 	C 	0.9803	0.0086	0.89301	0.012
Mof_C 	C 	0.8196	0.89377	0.85088	0.438
Mof_C 	C 	0.0012	0.14777	0.78516	0.373
Mof_C 	C 	0.8037	0.66301	0.8137	0.438
Mof_C 	C 	0.8659	0.24538	0.56711	-0.117
Mof_C 	C 	0.8425	0.58146	0.78406	-0.132
Mof_C 	C 	0.9748	0.37095	0.7752	0.453
Mof_C 	C 	0.8896	0.96825	0.84965	-0.132
Mof_C 	C 	0.9174	0.44546	0.76677	-0.122
Mof_C 	C 	0.9702	0.08752	0.82094	-0.108
Mof_C 	C 	0.6344	0.24918	0.52433	-0.148
Mof_C 	C 	0.0268	0.07725	0.87697	-0.015
Mof_C 	C 	0.8112	0.5392	0.72415	0.013
Mof_C 	C 	0.8542	0.46099	0.71427	-0.011
Mof_C 	C 	0.6362	0.23411	0.58425	0.011
Mof_C 	C 	0.7692	0.23137	0.60835	-0.01
Mof_C 	C 	0.5156	0.7572	0.92758	0.383
Mof_C 	C 	0.0175	0.74422	0.01808	0.444
Mof_C 	C 	0.4803	0.9914	0.60699	-0.006
Mof_C 	C 	0.3196	0.10623	0.64912	0.435
Mof_C 	C 	0.5012	0.85223	0.71484	0.383
Mof_C 	C 	0.3037	0.33699	0.6863	0.438
Mof_C 	C 	0.3659	0.75462	0.93289	-0.12
Mof_C 	C 	0.3425	0.41854	0.71594	-0.132
Mof_C 	C 	0.4748	0.62905	0.7248	0.451
Mof_C 	C 	0.3896	0.03175	0.65035	-0.123
Mof_C 	C 	0.4174	0.55454	0.73323	-0.122
Mof_C 	C 	0.4702	0.91248	0.67906	-0.119
Mof_C 	C 	0.1344	0.75082	0.97567	-0.149
Mof_C 	C 	0.5268	0.92275	0.62303	0.003
Mof_C 	C 	0.3112	0.4608	0.77585	0.013
Mof_C 	C 	0.3542	0.53901	0.78573	-0.012
Mof_C 	C 	0.1362	0.76589	0.91575	0.011
Mof_C 	C 	0.2692	0.76863	0.89165	-0.009
Mof_C 	C 	0.9844	0.7572	0.42758	0.381
Mof_C 	C 	0.4825	0.74422	0.51808	0.442
Mof_C 	C 	0.0197	0.9914	0.10699	0.012
Mof_C 	C 	0.1804	0.10623	0.14912	0.438
Mof_C 	C 	0.9988	0.85223	0.21484	0.373
Mof_C 	C 	0.1963	0.33699	0.1863	0.438
Mof_C 	C 	0.1341	0.75462	0.43289	-0.117
Mof_C 	C 	0.1575	0.41854	0.21594	-0.132
Mof_C 	C 	0.0252	0.62905	0.2248	0.453
Mof_C 	C 	0.1104	0.03175	0.15035	-0.132
Mof_C 	C 	0.0826	0.55454	0.23323	-0.122
Mof_C 	C 	0.0298	0.91248	0.17906	-0.108
Mof_C 	C 	0.3656	0.75082	0.47567	-0.148
Mof_C 	C 	0.9732	0.92275	0.12303	-0.015
Mof_C 	C 	0.1888	0.4608	0.27585	0.013
Mof_C 	C 	0.1458	0.53901	0.28573	-0.011
Mof_C 	C 	0.3638	0.76589	0.41575	0.011
Mof_C 	C 	0.2308	0.76863	0.39165	-0.01
Mof_C 	C 	0.4844	0.2428	0.07242	0.383
Mof_C 	C 	0.9825	0.25578	0.98192	0.444
Mof_C 	C 	0.5197	0.0086	0.39301	-0.006
Mof_C 	C 	0.6804	0.89377	0.35088	0.435
Mof_C 	C 	0.4988	0.14777	0.28516	0.383
Mof_C 	C 	0.6963	0.66301	0.3137	0.438
Mof_C 	C 	0.6341	0.24538	0.06711	-0.12
Mof_C 	C 	0.6575	0.58146	0.28406	-0.132
Mof_C 	C 	0.5252	0.37095	0.2752	0.451
Mof_C 	C 	0.6104	0.96825	0.34965	-0.123
Mof_C 	C 	0.5826	0.44546	0.26677	-0.122
Mof_C 	C 	0.5298	0.08752	0.32094	-0.119
Mof_C 	C 	0.8656	0.24918	0.02433	-0.149
Mof_C 	C 	0.4732	0.07725	0.37697	0.003
Mof_C 	C 	0.6888	0.5392	0.22415	0.013
Mof_C 	C 	0.6458	0.46099	0.21427	-0.012
Mof_C 	C 	0.8638	0.23411	0.08425	0.011
Mof_C 	C 	0.7308	0.23137	0.10835	-0.009
Mof_S 	S 	0.8597	0.01373	0.78801	0.085
Mof_S 	S 	0.926	0.52667	0.82895	0.056
Mof_S 	S 	0.79557	0.2617	0.4979	0.065
Mof_S 	S 	0.3597	0.98627	0.71199	0.083
Mof_S 	S 	0.426	0.47333	0.67105	0.055
Mof_S 	S 	0.29557	0.7383	0.0021	0.066
Mof_S 	S 	0.1403	0.98627	0.21199	0.085
Mof_S 	S 	0.074	0.47333	0.17105	0.056
Mof_S 	S 	0.20443	0.7383	0.5021	0.065
Mof_S 	S 	0.6403	0.01373	0.28801	0.083
Mof_S 	S 	0.574	0.52667	0.32895	0.055
Mof_S 	S 	0.70443	0.2617	0.9979	0.066
Mof_O 	O 	0.08721	0.20085	0.80823	-0.634
Mof_O 	O 	0.85678	0.86036	0.89385	-0.546
Mof_O 	O 	0.9681	0.31409	0.72811	-0.504
Mof_O 	O 	0.75361	0.70163	0.77657	-0.551
Mof_O 	O 	0.0259	0.37106	0.82926	-0.592
Mof_O 	O 	0.94947	0.14286	0.73077	-0.424
Mof_O 	O 	0.72974	0.87166	0.80898	-0.496
Mof_O 	O 	0.821	0.68613	0.87335	-0.515
Mof_O 	O 	0.39911	0.24046	0.49776	-0.607
Mof_O 	O 	0.54388	0.27643	0.4306	-0.54
Mof_O 	O 	0.06944	0.20985	0.61344	-0.625
Mof_O 	O 	0.08746	0.26717	0.53306	-0.486
Mof_O 	O 	0.58721	0.79915	0.69177	-0.636
Mof_O 	O 	0.35678	0.13964	0.60615	-0.545
Mof_O 	O 	0.4681	0.68591	0.77189	-0.504
Mof_O 	O 	0.25361	0.29837	0.72343	-0.551
Mof_O 	O 	0.5259	0.62894	0.67074	-0.59
Mof_O 	O 	0.44947	0.85714	0.76923	-0.428
Mof_O 	O 	0.22974	0.12834	0.69102	-0.495
Mof_O 	O 	0.321	0.31387	0.62665	-0.515
Mof_O 	O 	0.89911	0.75954	0.00224	-0.609
Mof_O 	O 	0.04388	0.72357	0.0694	-0.539
Mof_O 	O 	0.56944	0.79015	0.88656	-0.625
Mof_O 	O 	0.58746	0.73283	0.96694	-0.486
Mof_O 	O 	0.91279	0.79915	0.19177	-0.634
Mof_O 	O 	0.14322	0.13964	0.10615	-0.546
Mof_O 	O 	0.0319	0.68591	0.27189	-0.504
Mof_O 	O 	0.24639	0.29837	0.22343	-0.551
Mof_O 	O 	0.9741	0.62894	0.17074	-0.592
Mof_O 	O 	0.05053	0.85714	0.26923	-0.424
Mof_O 	O 	0.27026	0.12834	0.19102	-0.496
Mof_O 	O 	0.179	0.31387	0.12665	-0.515
Mof_O 	O 	0.60089	0.75954	0.50224	-0.607
Mof_O 	O 	0.45612	0.72357	0.5694	-0.54
Mof_O 	O 	0.93056	0.79015	0.38656	-0.625
Mof_O 	O 	0.91254	0.73283	0.46694	-0.486
Mof_O 	O 	0.41279	0.20085	0.30823	-0.636
Mof_O 	O 	0.64322	0.86036	0.39385	-0.545
Mof_O 	O 	0.5319	0.31409	0.22811	-0.504
Mof_O 	O 	0.74639	0.70163	0.27657	-0.551
Mof_O 	O 	0.4741	0.37106	0.32926	-0.59
Mof_O 	O 	0.55053	0.14286	0.23077	-0.428
Mof_O 	O 	0.77026	0.87166	0.30898	-0.495
Mof_O 	O 	0.679	0.68613	0.37335	-0.515
Mof_O 	O 	0.10089	0.24046	0.99776	-0.609
Mof_O 	O 	0.95612	0.27643	0.9306	-0.539
Mof_O 	O 	0.43056	0.20985	0.11344	-0.625
Mof_O 	O 	0.41254	0.26717	0.03306	-0.486
_end
