# CIF file generated by openbabel 3.1.0, see https://openbabel.org
data_I
_chemical_name_common 'image0'
_cell_length_a 27.574
_cell_length_b 9.776
_cell_length_c 15.557
_cell_angle_alpha 90
_cell_angle_beta 119.48
_cell_angle_gamma 90
_space_group_name_H-M_alt 'P 1'
_space_group_name_Hall 'P 1'
loop_
    _symmetry_equiv_pos_as_xyz
    x,y,z
loop_
    _atom_site_label
    _atom_site_type_symbol
    _atom_site_fract_x
    _atom_site_fract_y
    _atom_site_fract_z
    _atom_site_occupancy
    Co1      Co       0.29002    0.63531    0.03208    1.000
    N1       N        0.48764    0.97560    0.45840    1.000
    O1       O        0.33284    0.73280    0.16420    1.000
    C1       C        0.39100    0.32220    0.02470    1.000
    H1       H        0.40970    0.27820    0.99660    1.000
    O2       O        0.26544    0.89010    0.11470    1.000
    N2       N        0.39010    0.28550    0.10920    1.000
    C2       C        0.31341    0.97930    0.31290    1.000
    H2       H        0.27470    0.97900    0.27930    1.000
    C3       C        0.42857    0.98020    0.41280    1.000
    N3       N        0.33872    0.46890    0.05240    1.000
    C4       C        0.40010    0.05500    0.45030    1.000
    H3       H        0.41960    0.10640    0.50760    1.000
    C5       C        0.39974    0.90640    0.32550    1.000
    H4       H        0.41910    0.85640    0.30130    1.000
    C6       C        0.35890    0.43540    0.99090    1.000
    H5       H        0.35170    0.48320    0.93420    1.000
    C7       C        0.34204    0.90760    0.27500    1.000
    C8       C        0.31108    0.83740    0.17670    1.000
    C9       C        0.35680    0.37370    0.12010    1.000
    C10      C        0.34237    0.05170    0.40100    1.000
    C11      C        0.31104    0.12840    0.44180    1.000
    O3       O        0.26653    0.07670    0.42820    1.000
    O4       O        0.33224    0.23760    0.48670    1.000
    C12      C        0.33940    0.35980    0.19480    1.000
    H6       H        0.37160    0.32710    0.25450    1.000
    H7       H        0.33160    0.45130    0.20880    1.000
    C13      C        0.29290    0.27520    0.17900    1.000
    H8       H        0.29590    0.18780    0.15380    1.000
    H9       H        0.25880    0.31870    0.13220    1.000
    H10      H        0.29320    0.26280    0.24040    1.000
    C14      C        0.40390    0.14440    0.16100    1.000
    C15      C        0.46650    0.12580    0.20270    1.000
    C16      C        0.43950    0.19980    0.17490    1.000
    C17      C        0.50100    0.23560    0.21180    1.000
    H11      H        0.38340    0.07240    0.11410    1.000
    H12      H        0.48410    0.04850    0.25790    1.000
    H13      H        0.43340    0.11220    0.14190    1.000
    H14      H        0.39460    0.14270    0.21340    1.000
    H15      H        0.50820    0.32470    0.20500    1.000
    H16      H        0.43670    0.18320    0.23380    1.000
    H17      H        0.47730    0.09750    0.15660    1.000
    H18      H        0.52080    0.17270    0.19010    1.000
    Co2      Co       0.79002    0.13531    0.03208    1.000
    N4       N        0.98764    0.47560    0.45840    1.000
    O5       O        0.83284    0.23280    0.16420    1.000
    C18      C        0.89100    0.82220    0.02470    1.000
    H19      H        0.90970    0.77820    0.99660    1.000
    O6       O        0.76544    0.39010    0.11470    1.000
    N5       N        0.89010    0.78550    0.10920    1.000
    C19      C        0.81341    0.47930    0.31290    1.000
    H20      H        0.77470    0.47900    0.27930    1.000
    C20      C        0.92857    0.48020    0.41280    1.000
    N6       N        0.83872    0.96890    0.05240    1.000
    C21      C        0.90010    0.55500    0.45030    1.000
    H21      H        0.91960    0.60640    0.50760    1.000
    C22      C        0.89974    0.40640    0.32550    1.000
    H22      H        0.91910    0.35640    0.30130    1.000
    C23      C        0.85890    0.93540    0.99090    1.000
    H23      H        0.85170    0.98320    0.93420    1.000
    C24      C        0.84204    0.40760    0.27500    1.000
    C25      C        0.81108    0.33740    0.17670    1.000
    C26      C        0.85680    0.87370    0.12010    1.000
    C27      C        0.84237    0.55170    0.40100    1.000
    C28      C        0.81104    0.62840    0.44180    1.000
    O7       O        0.76653    0.57670    0.42820    1.000
    O8       O        0.83224    0.73760    0.48670    1.000
    C29      C        0.83940    0.85980    0.19480    1.000
    H24      H        0.87160    0.82710    0.25450    1.000
    H25      H        0.83160    0.95130    0.20880    1.000
    C30      C        0.79290    0.77520    0.17900    1.000
    H26      H        0.79590    0.68780    0.15380    1.000
    H27      H        0.75880    0.81870    0.13220    1.000
    H28      H        0.79320    0.76280    0.24040    1.000
    C31      C        0.90390    0.64440    0.16100    1.000
    C32      C        0.96650    0.62580    0.20270    1.000
    C33      C        0.93950    0.69980    0.17490    1.000
    C34      C        0.00100    0.73560    0.21180    1.000
    H29      H        0.88340    0.57240    0.11410    1.000
    H30      H        0.98410    0.54850    0.25790    1.000
    H31      H        0.93340    0.61220    0.14190    1.000
    H32      H        0.89460    0.64270    0.21340    1.000
    H33      H        0.00820    0.82470    0.20500    1.000
    H34      H        0.93670    0.68320    0.23380    1.000
    H35      H        0.97730    0.59750    0.15660    1.000
    H36      H        0.02080    0.67270    0.19010    1.000
    Co3      Co       0.70998    0.63531    0.46792    1.000
    N7       N        0.51236    0.97560    0.04160    1.000
    O9       O        0.66716    0.73280    0.33580    1.000
    C35      C        0.60900    0.32220    0.47530    1.000
    H37      H        0.59030    0.27820    0.50340    1.000
    O10      O        0.73456    0.89010    0.38530    1.000
    N8       N        0.60990    0.28550    0.39080    1.000
    C36      C        0.68659    0.97930    0.18710    1.000
    H38      H        0.72530    0.97900    0.22070    1.000
    C37      C        0.57143    0.98020    0.08720    1.000
    N9       N        0.66128    0.46890    0.44760    1.000
    C38      C        0.59990    0.05500    0.04970    1.000
    H39      H        0.58040    0.10640    0.99240    1.000
    C39      C        0.60026    0.90640    0.17450    1.000
    H40      H        0.58090    0.85640    0.19870    1.000
    C40      C        0.64110    0.43540    0.50910    1.000
    H41      H        0.64830    0.48320    0.56580    1.000
    C41      C        0.65796    0.90760    0.22500    1.000
    C42      C        0.68892    0.83740    0.32330    1.000
    C43      C        0.64320    0.37370    0.37990    1.000
    C44      C        0.65763    0.05170    0.09900    1.000
    C45      C        0.68896    0.12840    0.05820    1.000
    O11      O        0.73347    0.07670    0.07180    1.000
    O12      O        0.66776    0.23760    0.01330    1.000
    C46      C        0.66060    0.35980    0.30520    1.000
    H42      H        0.62840    0.32710    0.24550    1.000
    H43      H        0.66840    0.45130    0.29120    1.000
    C47      C        0.70710    0.27520    0.32100    1.000
    H44      H        0.70410    0.18780    0.34620    1.000
    H45      H        0.74120    0.31870    0.36780    1.000
    H46      H        0.70680    0.26280    0.25960    1.000
    C48      C        0.59610    0.14440    0.33900    1.000
    C49      C        0.53350    0.12580    0.29730    1.000
    C50      C        0.56050    0.19980    0.32510    1.000
    C51      C        0.49900    0.23560    0.28820    1.000
    H47      H        0.61660    0.07240    0.38590    1.000
    H48      H        0.51590    0.04850    0.24210    1.000
    H49      H        0.56660    0.11220    0.35810    1.000
    H50      H        0.60540    0.14270    0.28660    1.000
    H51      H        0.49180    0.32470    0.29500    1.000
    H52      H        0.56330    0.18320    0.26620    1.000
    H53      H        0.52270    0.09750    0.34340    1.000
    H54      H        0.47920    0.17270    0.30990    1.000
    Co4      Co       0.20998    0.13531    0.46792    1.000
    N10      N        0.01236    0.47560    0.04160    1.000
    O13      O        0.16716    0.23280    0.33580    1.000
    C52      C        0.10900    0.82220    0.47530    1.000
    H55      H        0.09030    0.77820    0.50340    1.000
    O14      O        0.23456    0.39010    0.38530    1.000
    N11      N        0.10990    0.78550    0.39080    1.000
    C53      C        0.18659    0.47930    0.18710    1.000
    H56      H        0.22530    0.47900    0.22070    1.000
    C54      C        0.07143    0.48020    0.08720    1.000
    N12      N        0.16128    0.96890    0.44760    1.000
    C55      C        0.09990    0.55500    0.04970    1.000
    H57      H        0.08040    0.60640    0.99240    1.000
    C56      C        0.10026    0.40640    0.17450    1.000
    H58      H        0.08090    0.35640    0.19870    1.000
    C57      C        0.14110    0.93540    0.50910    1.000
    H59      H        0.14830    0.98320    0.56580    1.000
    C58      C        0.15796    0.40760    0.22500    1.000
    C59      C        0.18892    0.33740    0.32330    1.000
    C60      C        0.14320    0.87370    0.37990    1.000
    C61      C        0.15763    0.55170    0.09900    1.000
    C62      C        0.18896    0.62840    0.05820    1.000
    O15      O        0.23347    0.57670    0.07180    1.000
    O16      O        0.16776    0.73760    0.01330    1.000
    C63      C        0.16060    0.85980    0.30520    1.000
    H60      H        0.12840    0.82710    0.24550    1.000
    H61      H        0.16840    0.95130    0.29120    1.000
    C64      C        0.20710    0.77520    0.32100    1.000
    H62      H        0.20410    0.68780    0.34620    1.000
    H63      H        0.24120    0.81870    0.36780    1.000
    H64      H        0.20680    0.76280    0.25960    1.000
    C65      C        0.09610    0.64440    0.33900    1.000
    C66      C        0.03350    0.62580    0.29730    1.000
    C67      C        0.06050    0.69980    0.32510    1.000
    C68      C        0.99900    0.73560    0.28820    1.000
    H65      H        0.11660    0.57240    0.38590    1.000
    H66      H        0.01590    0.54850    0.24210    1.000
    H67      H        0.06660    0.61220    0.35810    1.000
    H68      H        0.10540    0.64270    0.28660    1.000
    H69      H        0.99180    0.82470    0.29500    1.000
    H70      H        0.06330    0.68320    0.26620    1.000
    H71      H        0.02270    0.59750    0.34340    1.000
    H72      H        0.97920    0.67270    0.30990    1.000
    Co5      Co       0.70998    0.36469    0.96792    1.000
    N13      N        0.51236    0.02440    0.54160    1.000
    O17      O        0.66716    0.26720    0.83580    1.000
    C69      C        0.60900    0.67780    0.97530    1.000
    H73      H        0.59030    0.72180    0.00340    1.000
    O18      O        0.73456    0.10990    0.88530    1.000
    N14      N        0.60990    0.71450    0.89080    1.000
    C70      C        0.68659    0.02070    0.68710    1.000
    H74      H        0.72530    0.02100    0.72070    1.000
    C71      C        0.57143    0.01980    0.58720    1.000
    N15      N        0.66128    0.53110    0.94760    1.000
    C72      C        0.59990    0.94500    0.54970    1.000
    H75      H        0.58040    0.89360    0.49240    1.000
    C73      C        0.60026    0.09360    0.67450    1.000
    H76      H        0.58090    0.14360    0.69870    1.000
    C74      C        0.64110    0.56460    0.00910    1.000
    H77      H        0.64830    0.51680    0.06580    1.000
    C75      C        0.65796    0.09240    0.72500    1.000
    C76      C        0.68892    0.16260    0.82330    1.000
    C77      C        0.64320    0.62630    0.87990    1.000
    C78      C        0.65763    0.94830    0.59900    1.000
    C79      C        0.68896    0.87160    0.55820    1.000
    O19      O        0.73347    0.92330    0.57180    1.000
    O20      O        0.66776    0.76240    0.51330    1.000
    C80      C        0.66060    0.64020    0.80520    1.000
    H78      H        0.62840    0.67290    0.74550    1.000
    H79      H        0.66840    0.54870    0.79120    1.000
    C81      C        0.70710    0.72480    0.82100    1.000
    H80      H        0.70410    0.81220    0.84620    1.000
    H81      H        0.74120    0.68130    0.86780    1.000
    H82      H        0.70680    0.73720    0.75960    1.000
    C82      C        0.59610    0.85560    0.83900    1.000
    C83      C        0.53350    0.87420    0.79730    1.000
    C84      C        0.56050    0.80020    0.82510    1.000
    C85      C        0.49900    0.76440    0.78820    1.000
    H83      H        0.61660    0.92760    0.88590    1.000
    H84      H        0.51590    0.95150    0.74210    1.000
    H85      H        0.56660    0.88780    0.85810    1.000
    H86      H        0.60540    0.85730    0.78660    1.000
    H87      H        0.49180    0.67530    0.79500    1.000
    H88      H        0.56330    0.81680    0.76620    1.000
    H89      H        0.52270    0.90250    0.84340    1.000
    H90      H        0.47920    0.82730    0.80990    1.000
    Co6      Co       0.20998    0.86469    0.96792    1.000
    N16      N        0.01236    0.52440    0.54160    1.000
    O21      O        0.16716    0.76720    0.83580    1.000
    C86      C        0.10900    0.17780    0.97530    1.000
    H91      H        0.09030    0.22180    0.00340    1.000
    O22      O        0.23456    0.60990    0.88530    1.000
    N17      N        0.10990    0.21450    0.89080    1.000
    C87      C        0.18659    0.52070    0.68710    1.000
    H92      H        0.22530    0.52100    0.72070    1.000
    C88      C        0.07143    0.51980    0.58720    1.000
    N18      N        0.16128    0.03110    0.94760    1.000
    C89      C        0.09990    0.44500    0.54970    1.000
    H93      H        0.08040    0.39360    0.49240    1.000
    C90      C        0.10026    0.59360    0.67450    1.000
    H94      H        0.08090    0.64360    0.69870    1.000
    C91      C        0.14110    0.06460    0.00910    1.000
    H95      H        0.14830    0.01680    0.06580    1.000
    C92      C        0.15796    0.59240    0.72500    1.000
    C93      C        0.18892    0.66260    0.82330    1.000
    C94      C        0.14320    0.12630    0.87990    1.000
    C95      C        0.15763    0.44830    0.59900    1.000
    C96      C        0.18896    0.37160    0.55820    1.000
    O23      O        0.23347    0.42330    0.57180    1.000
    O24      O        0.16776    0.26240    0.51330    1.000
    C97      C        0.16060    0.14020    0.80520    1.000
    H96      H        0.12840    0.17290    0.74550    1.000
    H97      H        0.16840    0.04870    0.79120    1.000
    C98      C        0.20710    0.22480    0.82100    1.000
    H98      H        0.20410    0.31220    0.84620    1.000
    H99      H        0.24120    0.18130    0.86780    1.000
    H100     H        0.20680    0.23720    0.75960    1.000
    C99      C        0.09610    0.35560    0.83900    1.000
    C100     C        0.03350    0.37420    0.79730    1.000
    C101     C        0.06050    0.30020    0.82510    1.000
    C102     C        0.99900    0.26440    0.78820    1.000
    H101     H        0.11660    0.42760    0.88590    1.000
    H102     H        0.01590    0.45150    0.74210    1.000
    H103     H        0.06660    0.38780    0.85810    1.000
    H104     H        0.10540    0.35730    0.78660    1.000
    H105     H        0.99180    0.17530    0.79500    1.000
    H106     H        0.06330    0.31680    0.76620    1.000
    H107     H        0.02270    0.40250    0.84340    1.000
    H108     H        0.97920    0.32730    0.80990    1.000
    Co7      Co       0.29002    0.36469    0.53208    1.000
    N19      N        0.48764    0.02440    0.95840    1.000
    O25      O        0.33284    0.26720    0.66420    1.000
    C103     C        0.39100    0.67780    0.52470    1.000
    H109     H        0.40970    0.72180    0.49660    1.000
    O26      O        0.26544    0.10990    0.61470    1.000
    N20      N        0.39010    0.71450    0.60920    1.000
    C104     C        0.31341    0.02070    0.81290    1.000
    H110     H        0.27470    0.02100    0.77930    1.000
    C105     C        0.42857    0.01980    0.91280    1.000
    N21      N        0.33872    0.53110    0.55240    1.000
    C106     C        0.40010    0.94500    0.95030    1.000
    H111     H        0.41960    0.89360    0.00760    1.000
    C107     C        0.39974    0.09360    0.82550    1.000
    H112     H        0.41910    0.14360    0.80130    1.000
    C108     C        0.35890    0.56460    0.49090    1.000
    H113     H        0.35170    0.51680    0.43420    1.000
    C109     C        0.34204    0.09240    0.77500    1.000
    C110     C        0.31108    0.16260    0.67670    1.000
    C111     C        0.35680    0.62630    0.62010    1.000
    C112     C        0.34237    0.94830    0.90100    1.000
    C113     C        0.31104    0.87160    0.94180    1.000
    O27      O        0.26653    0.92330    0.92820    1.000
    O28      O        0.33224    0.76240    0.98670    1.000
    C114     C        0.33940    0.64020    0.69480    1.000
    H114     H        0.37160    0.67290    0.75450    1.000
    H115     H        0.33160    0.54870    0.70880    1.000
    C115     C        0.29290    0.72480    0.67900    1.000
    H116     H        0.29590    0.81220    0.65380    1.000
    H117     H        0.25880    0.68130    0.63220    1.000
    H118     H        0.29320    0.73720    0.74040    1.000
    C116     C        0.40390    0.85560    0.66100    1.000
    C117     C        0.46650    0.87420    0.70270    1.000
    C118     C        0.43950    0.80020    0.67490    1.000
    C119     C        0.50100    0.76440    0.71180    1.000
    H119     H        0.38340    0.92760    0.61410    1.000
    H120     H        0.48410    0.95150    0.75790    1.000
    H121     H        0.43340    0.88780    0.64190    1.000
    H122     H        0.39460    0.85730    0.71340    1.000
    H123     H        0.50820    0.67530    0.70500    1.000
    H124     H        0.43670    0.81680    0.73380    1.000
    H125     H        0.47730    0.90250    0.65660    1.000
    H126     H        0.52080    0.82730    0.69010    1.000
    Co8      Co       0.79002    0.86469    0.53208    1.000
    N22      N        0.98764    0.52440    0.95840    1.000
    O29      O        0.83284    0.76720    0.66420    1.000
    C120     C        0.89100    0.17780    0.52470    1.000
    H127     H        0.90970    0.22180    0.49660    1.000
    O30      O        0.76544    0.60990    0.61470    1.000
    N23      N        0.89010    0.21450    0.60920    1.000
    C121     C        0.81341    0.52070    0.81290    1.000
    H128     H        0.77470    0.52100    0.77930    1.000
    C122     C        0.92857    0.51980    0.91280    1.000
    N24      N        0.83872    0.03110    0.55240    1.000
    C123     C        0.90010    0.44500    0.95030    1.000
    H129     H        0.91960    0.39360    0.00760    1.000
    C124     C        0.89974    0.59360    0.82550    1.000
    H130     H        0.91910    0.64360    0.80130    1.000
    C125     C        0.85890    0.06460    0.49090    1.000
    H131     H        0.85170    0.01680    0.43420    1.000
    C126     C        0.84204    0.59240    0.77500    1.000
    C127     C        0.81108    0.66260    0.67670    1.000
    C128     C        0.85680    0.12630    0.62010    1.000
    C129     C        0.84237    0.44830    0.90100    1.000
    C130     C        0.81104    0.37160    0.94180    1.000
    O31      O        0.76653    0.42330    0.92820    1.000
    O32      O        0.83224    0.26240    0.98670    1.000
    C131     C        0.83940    0.14020    0.69480    1.000
    H132     H        0.87160    0.17290    0.75450    1.000
    H133     H        0.83160    0.04870    0.70880    1.000
    C132     C        0.79290    0.22480    0.67900    1.000
    H134     H        0.79590    0.31220    0.65380    1.000
    H135     H        0.75880    0.18130    0.63220    1.000
    H136     H        0.79320    0.23720    0.74040    1.000
    C133     C        0.90390    0.35560    0.66100    1.000
    C134     C        0.96650    0.37420    0.70270    1.000
    C135     C        0.93950    0.30020    0.67490    1.000
    C136     C        0.00100    0.26440    0.71180    1.000
    H137     H        0.88340    0.42760    0.61410    1.000
    H138     H        0.98410    0.45150    0.75790    1.000
    H139     H        0.93340    0.38780    0.64190    1.000
    H140     H        0.89460    0.35730    0.71340    1.000
    H141     H        0.00820    0.17530    0.70500    1.000
    H142     H        0.93670    0.31680    0.73380    1.000
    H143     H        0.97730    0.40250    0.65660    1.000
    H144     H        0.02080    0.32730    0.69010    1.000
