# CIF file generated by openbabel 3.1.0, see https://openbabel.org
data_I
_chemical_name_common 'image0'
_cell_length_a 22.2913
_cell_length_b 16.1324
_cell_length_c 17.39
_cell_angle_alpha 90
_cell_angle_beta 90
_cell_angle_gamma 90
_space_group_name_H-M_alt 'P 1'
_space_group_name_Hall 'P 1'
loop_
    _symmetry_equiv_pos_as_xyz
    x,y,z
loop_
    _atom_site_label
    _atom_site_type_symbol
    _atom_site_fract_x
    _atom_site_fract_y
    _atom_site_fract_z
    _atom_site_occupancy
    Zn1      Zn       0.04337    0.03394    0.44149    1.000
    Zn2      Zn       0.19649    0.53647    0.49191    1.000
    O1       O        0.08724    0.12779    0.48121    1.000
    O2       O        0.00861    0.20079    0.44220    1.000
    O3       O        0.08136    0.48796    0.44650    1.000
    O4       O        0.15592    0.43233    0.51119    1.000
    O5       O        0.06496    0.22580    0.64435    1.000
    O6       O        0.15736    0.18650    0.67212    1.000
    O7       O        0.08242    0.92740    0.45724    1.000
    O8       O        0.16470    0.96330    0.39500    1.000
    O9       O        0.12689    0.66183    0.57595    1.000
    O10      O        0.17626    0.64925    0.46528    1.000
    O11      O        0.19500    0.78180    0.30117    1.000
    O12      O        0.29153    0.80450    0.32364    1.000
    N1       N        0.25734    0.53910    0.58070    1.000
    N2       N        0.44904    0.56040    0.73620    1.000
    H1       H        0.44420    0.60550    0.71000    1.000
    N3       N        0.57545    0.52150    0.72710    1.000
    N4       N        0.75572    0.49050    0.89470    1.000
    N5       N        0.97684    0.01080    0.52080    1.000
    N6       N        0.78950    0.99610    0.67730    1.000
    N7       N        0.66183    0.98200    0.65770    1.000
    H2       H        0.66110    0.92780    0.66300    1.000
    N8       N        0.48876    0.03090    0.83340    1.000
    C1       C        0.27567    0.60980    0.61310    1.000
    H3       H        0.25970    0.66080    0.59490    1.000
    C2       C        0.31708    0.61150    0.67230    1.000
    H4       H        0.32840    0.66280    0.69470    1.000
    C3       C        0.34182    0.53870    0.69860    1.000
    C4       C        0.32280    0.46460    0.66510    1.000
    H5       H        0.33870    0.41290    0.68160    1.000
    C5       C        0.28055    0.46830    0.60790    1.000
    H6       H        0.26690    0.41760    0.58630    1.000
    C6       C        0.38622    0.53910    0.76380    1.000
    H7       H        0.38670    0.48380    0.78850    1.000
    H8       H        0.37350    0.58010    0.80280    1.000
    C7       C        0.49011    0.56540    0.80470    1.000
    H9       H        0.48960    0.51190    0.83260    1.000
    H10      H        0.47570    0.60900    0.84030    1.000
    C8       C        0.55356    0.58500    0.77940    1.000
    H11      H        0.55430    0.63960    0.75340    1.000
    H12      H        0.58010    0.58800    0.82500    1.000
    C9       C        0.53705    0.51960    0.65820    1.000
    H13      H        0.55250    0.47770    0.62170    1.000
    H14      H        0.53830    0.57430    0.63250    1.000
    C10      C        0.47278    0.49890    0.67960    1.000
    H15      H        0.44750    0.49930    0.63270    1.000
    H16      H        0.47110    0.44260    0.70210    1.000
    C11      C        0.63827    0.53750    0.70370    1.000
    H17      H        0.64220    0.59550    0.68590    1.000
    H18      H        0.64910    0.50050    0.66040    1.000
    C12      C        0.73426    0.42910    0.85030    1.000
    H19      H        0.74520    0.37370    0.86240    1.000
    C13      C        0.69718    0.44270    0.78820    1.000
    H20      H        0.68330    0.39730    0.75840    1.000
    C14      C        0.68024    0.52270    0.76950    1.000
    C15      C        0.70380    0.58660    0.81400    1.000
    H21      H        0.69440    0.64260    0.80230    1.000
    C16      C        0.74084    0.56820    0.87530    1.000
    H22      H        0.75650    0.61260    0.90510    1.000
    C17      C        0.95630    0.93360    0.53260    1.000
    H23      H        0.97030    0.89010    0.50050    1.000
    C18      C        0.91573    0.91540    0.58950    1.000
    H24      H        0.90250    0.85990    0.59630    1.000
    C19      C        0.89407    0.97690    0.63700    1.000
    C20      C        0.91518    0.05680    0.62460    1.000
    H25      H        0.90150    0.10130    0.65580    1.000
    C21      C        0.95579    0.07090    0.56700    1.000
    H26      H        0.96980    0.12590    0.55940    1.000
    C22      C        0.84797    0.96080    0.69860    1.000
    H27      H        0.84380    0.90040    0.70650    1.000
    H28      H        0.86160    0.98580    0.74760    1.000
    C23      C        0.74858    0.98860    0.74320    1.000
    H29      H        0.76620    0.01680    0.78840    1.000
    H30      H        0.74310    0.92940    0.75620    1.000
    C24      C        0.68833    0.02700    0.72460    1.000
    H31      H        0.66130    0.02260    0.76960    1.000
    H32      H        0.69340    0.08640    0.71190    1.000
    C25      C        0.70373    0.98680    0.58990    1.000
    H33      H        0.70840    0.04530    0.57390    1.000
    H34      H        0.68660    0.95540    0.54620    1.000
    C26      C        0.76407    0.95140    0.61080    1.000
    H35      H        0.75980    0.89190    0.62360    1.000
    H36      H        0.79160    0.95620    0.56630    1.000
    C27      C        0.60079    0.01210    0.63390    1.000
    H37      H        0.58400    0.97380    0.59490    1.000
    H38      H        0.60450    0.06750    0.60990    1.000
    C28      C        0.50251    0.09830    0.79160    1.000
    H39      H        0.48780    0.15070    0.80780    1.000
    C29      C        0.53721    0.09400    0.72610    1.000
    H40      H        0.54660    0.14280    0.69800    1.000
    C30      C        0.55825    0.01720    0.70190    1.000
    C31      C        0.54072    0.94720    0.74180    1.000
    H41      H        0.55200    0.89360    0.72440    1.000
    C32      C        0.50689    0.95650    0.80670    1.000
    H42      H        0.49560    0.90820    0.83450    1.000
    C33      C        0.05851    0.19650    0.47090    1.000
    C34      C        0.09293    0.27360    0.49650    1.000
    C35      C        0.07698    0.34470    0.46680    1.000
    H43      H        0.04240    0.34350    0.43490    1.000
    C36      C        0.10610    0.42810    0.47620    1.000
    C37      C        0.14222    0.25730    0.55430    1.000
    H44      H        0.17170    0.21850    0.53160    1.000
    H45      H        0.16330    0.31000    0.56550    1.000
    C38      C        0.11880    0.22150    0.62810    1.000
    C39      C        0.13475    0.91280    0.43280    1.000
    C40      C        0.16134    0.82910    0.45220    1.000
    C41      C        0.12702    0.77540    0.48880    1.000
    H46      H        0.08750    0.79280    0.50120    1.000
    C42      C        0.14437    0.68980    0.51260    1.000
    C43      C        0.22588    0.81590    0.43050    1.000
    H47      H        0.24160    0.76850    0.46050    1.000
    H48      H        0.24900    0.86560    0.44580    1.000
    C44      C        0.23738    0.79930    0.34510    1.000
    Zn3      Zn       0.95663    0.96606    0.94149    1.000
    Zn4      Zn       0.80351    0.46353    0.99191    1.000
    O13      O        0.91276    0.87221    0.98121    1.000
    O14      O        0.99139    0.79921    0.94220    1.000
    O15      O        0.91864    0.51204    0.94650    1.000
    O16      O        0.84408    0.56767    0.01119    1.000
    O17      O        0.93504    0.77420    0.14435    1.000
    O18      O        0.84264    0.81350    0.17212    1.000
    O19      O        0.91758    0.07260    0.95724    1.000
    O20      O        0.83530    0.03670    0.89500    1.000
    O21      O        0.87311    0.33817    0.07595    1.000
    O22      O        0.82374    0.35075    0.96528    1.000
    O23      O        0.80500    0.21820    0.80117    1.000
    O24      O        0.70847    0.19550    0.82364    1.000
    N9       N        0.74266    0.46090    0.08070    1.000
    N10      N        0.55096    0.43960    0.23620    1.000
    H49      H        0.55580    0.39450    0.21000    1.000
    N11      N        0.42455    0.47850    0.22710    1.000
    N12      N        0.24428    0.50950    0.39470    1.000
    N13      N        0.02316    0.98920    0.02080    1.000
    N14      N        0.21050    0.00390    0.17730    1.000
    N15      N        0.33817    0.01800    0.15770    1.000
    H50      H        0.33890    0.07220    0.16300    1.000
    N16      N        0.51124    0.96910    0.33340    1.000
    C45      C        0.72433    0.39020    0.11310    1.000
    H51      H        0.74030    0.33920    0.09490    1.000
    C46      C        0.68292    0.38850    0.17230    1.000
    H52      H        0.67160    0.33720    0.19470    1.000
    C47      C        0.65818    0.46130    0.19860    1.000
    C48      C        0.67720    0.53540    0.16510    1.000
    H53      H        0.66130    0.58710    0.18160    1.000
    C49      C        0.71945    0.53170    0.10790    1.000
    H54      H        0.73310    0.58240    0.08630    1.000
    C50      C        0.61378    0.46090    0.26380    1.000
    H55      H        0.61330    0.51620    0.28850    1.000
    H56      H        0.62650    0.41990    0.30280    1.000
    C51      C        0.50989    0.43460    0.30470    1.000
    H57      H        0.51040    0.48810    0.33260    1.000
    H58      H        0.52430    0.39100    0.34030    1.000
    C52      C        0.44644    0.41500    0.27940    1.000
    H59      H        0.44570    0.36040    0.25340    1.000
    H60      H        0.41990    0.41200    0.32500    1.000
    C53      C        0.46295    0.48040    0.15820    1.000
    H61      H        0.44750    0.52230    0.12170    1.000
    H62      H        0.46170    0.42570    0.13250    1.000
    C54      C        0.52722    0.50110    0.17960    1.000
    H63      H        0.55250    0.50070    0.13270    1.000
    H64      H        0.52890    0.55740    0.20210    1.000
    C55      C        0.36173    0.46250    0.20370    1.000
    H65      H        0.35780    0.40450    0.18590    1.000
    H66      H        0.35090    0.49950    0.16040    1.000
    C56      C        0.26574    0.57090    0.35030    1.000
    H67      H        0.25480    0.62630    0.36240    1.000
    C57      C        0.30282    0.55730    0.28820    1.000
    H68      H        0.31670    0.60270    0.25840    1.000
    C58      C        0.31976    0.47730    0.26950    1.000
    C59      C        0.29620    0.41340    0.31400    1.000
    H69      H        0.30560    0.35740    0.30230    1.000
    C60      C        0.25916    0.43180    0.37530    1.000
    H70      H        0.24350    0.38740    0.40510    1.000
    C61      C        0.04370    0.06640    0.03260    1.000
    H71      H        0.02970    0.10990    0.00050    1.000
    C62      C        0.08427    0.08460    0.08950    1.000
    H72      H        0.09750    0.14010    0.09630    1.000
    C63      C        0.10593    0.02310    0.13700    1.000
    C64      C        0.08482    0.94320    0.12460    1.000
    H73      H        0.09850    0.89870    0.15580    1.000
    C65      C        0.04421    0.92910    0.06700    1.000
    H74      H        0.03020    0.87410    0.05940    1.000
    C66      C        0.15203    0.03920    0.19860    1.000
    H75      H        0.15620    0.09960    0.20650    1.000
    H76      H        0.13840    0.01420    0.24760    1.000
    C67      C        0.25142    0.01140    0.24320    1.000
    H77      H        0.23380    0.98320    0.28840    1.000
    H78      H        0.25690    0.07060    0.25620    1.000
    C68      C        0.31167    0.97300    0.22460    1.000
    H79      H        0.33870    0.97740    0.26960    1.000
    H80      H        0.30660    0.91360    0.21190    1.000
    C69      C        0.29627    0.01320    0.08990    1.000
    H81      H        0.29160    0.95470    0.07390    1.000
    H82      H        0.31340    0.04460    0.04620    1.000
    C70      C        0.23593    0.04860    0.11080    1.000
    H83      H        0.24020    0.10810    0.12360    1.000
    H84      H        0.20840    0.04380    0.06630    1.000
    C71      C        0.39921    0.98790    0.13390    1.000
    H85      H        0.41600    0.02620    0.09490    1.000
    H86      H        0.39550    0.93250    0.10990    1.000
    C72      C        0.49749    0.90170    0.29160    1.000
    H87      H        0.51220    0.84930    0.30780    1.000
    C73      C        0.46279    0.90600    0.22610    1.000
    H88      H        0.45340    0.85720    0.19800    1.000
    C74      C        0.44175    0.98280    0.20190    1.000
    C75      C        0.45928    0.05280    0.24180    1.000
    H89      H        0.44800    0.10640    0.22440    1.000
    C76      C        0.49311    0.04350    0.30670    1.000
    H90      H        0.50440    0.09180    0.33450    1.000
    C77      C        0.94149    0.80350    0.97090    1.000
    C78      C        0.90707    0.72640    0.99650    1.000
    C79      C        0.92302    0.65530    0.96680    1.000
    H91      H        0.95760    0.65650    0.93490    1.000
    C80      C        0.89390    0.57190    0.97620    1.000
    C81      C        0.85778    0.74270    0.05430    1.000
    H92      H        0.82830    0.78150    0.03160    1.000
    H93      H        0.83670    0.69000    0.06550    1.000
    C82      C        0.88120    0.77850    0.12810    1.000
    C83      C        0.86525    0.08720    0.93280    1.000
    C84      C        0.83866    0.17090    0.95220    1.000
    C85      C        0.87298    0.22460    0.98880    1.000
    H94      H        0.91250    0.20720    0.00120    1.000
    C86      C        0.85563    0.31020    0.01260    1.000
    C87      C        0.77412    0.18410    0.93050    1.000
    H95      H        0.75840    0.23150    0.96050    1.000
    H96      H        0.75100    0.13440    0.94580    1.000
    C88      C        0.76262    0.20070    0.84510    1.000
    Zn5      Zn       0.54337    0.96606    0.44149    1.000
    Zn6      Zn       0.69649    0.46353    0.49191    1.000
    O25      O        0.58724    0.87221    0.48121    1.000
    O26      O        0.50861    0.79921    0.44220    1.000
    O27      O        0.58136    0.51204    0.44650    1.000
    O28      O        0.65592    0.56767    0.51119    1.000
    O29      O        0.56496    0.77420    0.64435    1.000
    O30      O        0.65736    0.81350    0.67212    1.000
    O31      O        0.58242    0.07260    0.45724    1.000
    O32      O        0.66470    0.03670    0.39500    1.000
    O33      O        0.62689    0.33817    0.57595    1.000
    O34      O        0.67626    0.35075    0.46528    1.000
    O35      O        0.69500    0.21820    0.30117    1.000
    O36      O        0.79153    0.19550    0.32364    1.000
    N17      N        0.75734    0.46090    0.58070    1.000
    N18      N        0.94904    0.43960    0.73620    1.000
    H97      H        0.94420    0.39450    0.71000    1.000
    N19      N        0.07545    0.47850    0.72710    1.000
    N20      N        0.25572    0.50950    0.89470    1.000
    N21      N        0.47684    0.98920    0.52080    1.000
    N22      N        0.28950    0.00390    0.67730    1.000
    N23      N        0.16183    0.01800    0.65770    1.000
    H98      H        0.16110    0.07220    0.66300    1.000
    N24      N        0.98876    0.96910    0.83340    1.000
    C89      C        0.77567    0.39020    0.61310    1.000
    H99      H        0.75970    0.33920    0.59490    1.000
    C90      C        0.81708    0.38850    0.67230    1.000
    H100     H        0.82840    0.33720    0.69470    1.000
    C91      C        0.84182    0.46130    0.69860    1.000
    C92      C        0.82280    0.53540    0.66510    1.000
    H101     H        0.83870    0.58710    0.68160    1.000
    C93      C        0.78055    0.53170    0.60790    1.000
    H102     H        0.76690    0.58240    0.58630    1.000
    C94      C        0.88622    0.46090    0.76380    1.000
    H103     H        0.88670    0.51620    0.78850    1.000
    H104     H        0.87350    0.41990    0.80280    1.000
    C95      C        0.99011    0.43460    0.80470    1.000
    H105     H        0.98960    0.48810    0.83260    1.000
    H106     H        0.97570    0.39100    0.84030    1.000
    C96      C        0.05356    0.41500    0.77940    1.000
    H107     H        0.05430    0.36040    0.75340    1.000
    H108     H        0.08010    0.41200    0.82500    1.000
    C97      C        0.03705    0.48040    0.65820    1.000
    H109     H        0.05250    0.52230    0.62170    1.000
    H110     H        0.03830    0.42570    0.63250    1.000
    C98      C        0.97278    0.50110    0.67960    1.000
    H111     H        0.94750    0.50070    0.63270    1.000
    H112     H        0.97110    0.55740    0.70210    1.000
    C99      C        0.13827    0.46250    0.70370    1.000
    H113     H        0.14220    0.40450    0.68590    1.000
    H114     H        0.14910    0.49950    0.66040    1.000
    C100     C        0.23426    0.57090    0.85030    1.000
    H115     H        0.24520    0.62630    0.86240    1.000
    C101     C        0.19718    0.55730    0.78820    1.000
    H116     H        0.18330    0.60270    0.75840    1.000
    C102     C        0.18024    0.47730    0.76950    1.000
    C103     C        0.20380    0.41340    0.81400    1.000
    H117     H        0.19440    0.35740    0.80230    1.000
    C104     C        0.24084    0.43180    0.87530    1.000
    H118     H        0.25650    0.38740    0.90510    1.000
    C105     C        0.45630    0.06640    0.53260    1.000
    H119     H        0.47030    0.10990    0.50050    1.000
    C106     C        0.41573    0.08460    0.58950    1.000
    H120     H        0.40250    0.14010    0.59630    1.000
    C107     C        0.39407    0.02310    0.63700    1.000
    C108     C        0.41518    0.94320    0.62460    1.000
    H121     H        0.40150    0.89870    0.65580    1.000
    C109     C        0.45579    0.92910    0.56700    1.000
    H122     H        0.46980    0.87410    0.55940    1.000
    C110     C        0.34797    0.03920    0.69860    1.000
    H123     H        0.34380    0.09960    0.70650    1.000
    H124     H        0.36160    0.01420    0.74760    1.000
    C111     C        0.24858    0.01140    0.74320    1.000
    H125     H        0.26620    0.98320    0.78840    1.000
    H126     H        0.24310    0.07060    0.75620    1.000
    C112     C        0.18833    0.97300    0.72460    1.000
    H127     H        0.16130    0.97740    0.76960    1.000
    H128     H        0.19340    0.91360    0.71190    1.000
    C113     C        0.20373    0.01320    0.58990    1.000
    H129     H        0.20840    0.95470    0.57390    1.000
    H130     H        0.18660    0.04460    0.54620    1.000
    C114     C        0.26407    0.04860    0.61080    1.000
    H131     H        0.25980    0.10810    0.62360    1.000
    H132     H        0.29160    0.04380    0.56630    1.000
    C115     C        0.10079    0.98790    0.63390    1.000
    H133     H        0.08400    0.02620    0.59490    1.000
    H134     H        0.10450    0.93250    0.60990    1.000
    C116     C        0.00251    0.90170    0.79160    1.000
    H135     H        0.98780    0.84930    0.80780    1.000
    C117     C        0.03721    0.90600    0.72610    1.000
    H136     H        0.04660    0.85720    0.69800    1.000
    C118     C        0.05825    0.98280    0.70190    1.000
    C119     C        0.04072    0.05280    0.74180    1.000
    H137     H        0.05200    0.10640    0.72440    1.000
    C120     C        0.00689    0.04350    0.80670    1.000
    H138     H        0.99560    0.09180    0.83450    1.000
    C121     C        0.55851    0.80350    0.47090    1.000
    C122     C        0.59293    0.72640    0.49650    1.000
    C123     C        0.57698    0.65530    0.46680    1.000
    H139     H        0.54240    0.65650    0.43490    1.000
    C124     C        0.60610    0.57190    0.47620    1.000
    C125     C        0.64222    0.74270    0.55430    1.000
    H140     H        0.67170    0.78150    0.53160    1.000
    H141     H        0.66330    0.69000    0.56550    1.000
    C126     C        0.61880    0.77850    0.62810    1.000
    C127     C        0.63475    0.08720    0.43280    1.000
    C128     C        0.66134    0.17090    0.45220    1.000
    C129     C        0.62702    0.22460    0.48880    1.000
    H142     H        0.58750    0.20720    0.50120    1.000
    C130     C        0.64437    0.31020    0.51260    1.000
    C131     C        0.72588    0.18410    0.43050    1.000
    H143     H        0.74160    0.23150    0.46050    1.000
    H144     H        0.74900    0.13440    0.44580    1.000
    C132     C        0.73738    0.20070    0.34510    1.000
    Zn7      Zn       0.45663    0.03394    0.94149    1.000
    Zn8      Zn       0.30351    0.53647    0.99191    1.000
    O37      O        0.41276    0.12779    0.98121    1.000
    O38      O        0.49139    0.20079    0.94220    1.000
    O39      O        0.41864    0.48796    0.94650    1.000
    O40      O        0.34408    0.43233    0.01119    1.000
    O41      O        0.43504    0.22580    0.14435    1.000
    O42      O        0.34264    0.18650    0.17212    1.000
    O43      O        0.41758    0.92740    0.95724    1.000
    O44      O        0.33530    0.96330    0.89500    1.000
    O45      O        0.37311    0.66183    0.07595    1.000
    O46      O        0.32374    0.64925    0.96528    1.000
    O47      O        0.30500    0.78180    0.80117    1.000
    O48      O        0.20847    0.80450    0.82364    1.000
    N25      N        0.24266    0.53910    0.08070    1.000
    N26      N        0.05096    0.56040    0.23620    1.000
    H145     H        0.05580    0.60550    0.21000    1.000
    N27      N        0.92455    0.52150    0.22710    1.000
    N28      N        0.74428    0.49050    0.39470    1.000
    N29      N        0.52316    0.01080    0.02080    1.000
    N30      N        0.71050    0.99610    0.17730    1.000
    N31      N        0.83817    0.98200    0.15770    1.000
    H146     H        0.83890    0.92780    0.16300    1.000
    N32      N        0.01124    0.03090    0.33340    1.000
    C133     C        0.22433    0.60980    0.11310    1.000
    H147     H        0.24030    0.66080    0.09490    1.000
    C134     C        0.18292    0.61150    0.17230    1.000
    H148     H        0.17160    0.66280    0.19470    1.000
    C135     C        0.15818    0.53870    0.19860    1.000
    C136     C        0.17720    0.46460    0.16510    1.000
    H149     H        0.16130    0.41290    0.18160    1.000
    C137     C        0.21945    0.46830    0.10790    1.000
    H150     H        0.23310    0.41760    0.08630    1.000
    C138     C        0.11378    0.53910    0.26380    1.000
    H151     H        0.11330    0.48380    0.28850    1.000
    H152     H        0.12650    0.58010    0.30280    1.000
    C139     C        0.00989    0.56540    0.30470    1.000
    H153     H        0.01040    0.51190    0.33260    1.000
    H154     H        0.02430    0.60900    0.34030    1.000
    C140     C        0.94644    0.58500    0.27940    1.000
    H155     H        0.94570    0.63960    0.25340    1.000
    H156     H        0.91990    0.58800    0.32500    1.000
    C141     C        0.96295    0.51960    0.15820    1.000
    H157     H        0.94750    0.47770    0.12170    1.000
    H158     H        0.96170    0.57430    0.13250    1.000
    C142     C        0.02722    0.49890    0.17960    1.000
    H159     H        0.05250    0.49930    0.13270    1.000
    H160     H        0.02890    0.44260    0.20210    1.000
    C143     C        0.86173    0.53750    0.20370    1.000
    H161     H        0.85780    0.59550    0.18590    1.000
    H162     H        0.85090    0.50050    0.16040    1.000
    C144     C        0.76574    0.42910    0.35030    1.000
    H163     H        0.75480    0.37370    0.36240    1.000
    C145     C        0.80282    0.44270    0.28820    1.000
    H164     H        0.81670    0.39730    0.25840    1.000
    C146     C        0.81976    0.52270    0.26950    1.000
    C147     C        0.79620    0.58660    0.31400    1.000
    H165     H        0.80560    0.64260    0.30230    1.000
    C148     C        0.75916    0.56820    0.37530    1.000
    H166     H        0.74350    0.61260    0.40510    1.000
    C149     C        0.54370    0.93360    0.03260    1.000
    H167     H        0.52970    0.89010    0.00050    1.000
    C150     C        0.58427    0.91540    0.08950    1.000
    H168     H        0.59750    0.85990    0.09630    1.000
    C151     C        0.60593    0.97690    0.13700    1.000
    C152     C        0.58482    0.05680    0.12460    1.000
    H169     H        0.59850    0.10130    0.15580    1.000
    C153     C        0.54421    0.07090    0.06700    1.000
    H170     H        0.53020    0.12590    0.05940    1.000
    C154     C        0.65203    0.96080    0.19860    1.000
    H171     H        0.65620    0.90040    0.20650    1.000
    H172     H        0.63840    0.98580    0.24760    1.000
    C155     C        0.75142    0.98860    0.24320    1.000
    H173     H        0.73380    0.01680    0.28840    1.000
    H174     H        0.75690    0.92940    0.25620    1.000
    C156     C        0.81167    0.02700    0.22460    1.000
    H175     H        0.83870    0.02260    0.26960    1.000
    H176     H        0.80660    0.08640    0.21190    1.000
    C157     C        0.79627    0.98680    0.08990    1.000
    H177     H        0.79160    0.04530    0.07390    1.000
    H178     H        0.81340    0.95540    0.04620    1.000
    C158     C        0.73593    0.95140    0.11080    1.000
    H179     H        0.74020    0.89190    0.12360    1.000
    H180     H        0.70840    0.95620    0.06630    1.000
    C159     C        0.89921    0.01210    0.13390    1.000
    H181     H        0.91600    0.97380    0.09490    1.000
    H182     H        0.89550    0.06750    0.10990    1.000
    C160     C        0.99749    0.09830    0.29160    1.000
    H183     H        0.01220    0.15070    0.30780    1.000
    C161     C        0.96279    0.09400    0.22610    1.000
    H184     H        0.95340    0.14280    0.19800    1.000
    C162     C        0.94175    0.01720    0.20190    1.000
    C163     C        0.95928    0.94720    0.24180    1.000
    H185     H        0.94800    0.89360    0.22440    1.000
    C164     C        0.99311    0.95650    0.30670    1.000
    H186     H        0.00440    0.90820    0.33450    1.000
    C165     C        0.44149    0.19650    0.97090    1.000
    C166     C        0.40707    0.27360    0.99650    1.000
    C167     C        0.42302    0.34470    0.96680    1.000
    H187     H        0.45760    0.34350    0.93490    1.000
    C168     C        0.39390    0.42810    0.97620    1.000
    C169     C        0.35778    0.25730    0.05430    1.000
    H188     H        0.32830    0.21850    0.03160    1.000
    H189     H        0.33670    0.31000    0.06550    1.000
    C170     C        0.38120    0.22150    0.12810    1.000
    C171     C        0.36525    0.91280    0.93280    1.000
    C172     C        0.33866    0.82910    0.95220    1.000
    C173     C        0.37298    0.77540    0.98880    1.000
    H190     H        0.41250    0.79280    0.00120    1.000
    C174     C        0.35563    0.68980    0.01260    1.000
    C175     C        0.27412    0.81590    0.93050    1.000
    H191     H        0.25840    0.76850    0.96050    1.000
    H192     H        0.25100    0.86560    0.94580    1.000
    C176     C        0.26262    0.79930    0.84510    1.000
