# CIF file generated by openbabel 3.1.0, see https://openbabel.org
data_I
_chemical_name_common 'image0'
_cell_length_a 12.6177
_cell_length_b 12.5869
_cell_length_c 28.561
_cell_angle_alpha 90
_cell_angle_beta 96.843
_cell_angle_gamma 90
_space_group_name_H-M_alt 'P 1'
_space_group_name_Hall 'P 1'
loop_
    _symmetry_equiv_pos_as_xyz
    x,y,z
loop_
    _atom_site_label
    _atom_site_type_symbol
    _atom_site_fract_x
    _atom_site_fract_y
    _atom_site_fract_z
    _atom_site_occupancy
    Cd1      Cd       0.56515    0.33110    0.61116    1.000
    Cd2      Cd       0.35594    0.54012    0.60874    1.000
    O1       O        0.44200    0.42810    0.56360    1.000
    N1       N        0.97580    0.06600    0.84640    1.000
    N2       N        0.52740    0.76580    0.53310    1.000
    N3       N        0.90000    0.99110    0.84520    1.000
    N4       N        0.94550    0.13680    0.81200    1.000
    N5       N        0.67940    0.24320    0.67000    1.000
    N6       N        0.32290    0.52880    0.46090    1.000
    N7       N        0.52480    0.15960    0.57900    1.000
    N8       N        0.08000    0.81250    0.84140    1.000
    N9       N        0.21300    0.87030    0.80760    1.000
    N10      N        0.39020    0.78350    0.57420    1.000
    N11      N        0.48200    0.66870    0.53620    1.000
    N12      N        0.20140    0.62920    0.42360    1.000
    N13      N        0.15180    0.88790    0.84200    1.000
    N14      N        0.40200    0.68050    0.56130    1.000
    C1       C        0.85270    0.10110    0.79190    1.000
    N15      N        0.82140    0.01240    0.81210    1.000
    C2       C        0.15800    0.54370    0.44320    1.000
    C3       C        0.17410    0.77940    0.78740    1.000
    N16      N        0.09230    0.74260    0.80870    1.000
    C4       C        0.83020    0.24340    0.72930    1.000
    H1       H        0.89140    0.27750    0.74320    1.000
    N17      N        0.28080    0.64350    0.66430    1.000
    C5       C        0.79300    0.15020    0.75030    1.000
    C6       C        0.69390    0.11100    0.73110    1.000
    H2       H        0.66250    0.05430    0.74510    1.000
    N18      N        0.23030    0.48120    0.46630    1.000
    C7       C        0.96990    0.60820    0.42250    1.000
    H3       H        0.99620    0.67510    0.41620    1.000
    N19      N        0.30470    0.61530    0.43630    1.000
    C8       C        0.04000    0.52900    0.43740    1.000
    C9       C        0.60030    0.09970    0.56330    1.000
    H4       H        0.66450    0.13160    0.55840    1.000
    C10      C        0.41210    0.01080    0.57710    1.000
    H5       H        0.34610    0.98260    0.58190    1.000
    C11      C        0.49160    0.94430    0.56220    1.000
    C12      C        0.77610    0.28290    0.68870    1.000
    H6       H        0.80610    0.33850    0.67340    1.000
    N20      N        0.82060    0.49310    0.42290    1.000
    C13      C        0.43200    0.11670    0.58450    1.000
    H7       H        0.37820    0.15970    0.59360    1.000
    C14      C        0.58750    0.99250    0.55400    1.000
    H8       H        0.64140    0.95330    0.54260    1.000
    C15      C        0.21390    0.73260    0.74670    1.000
    C16      C        0.47020    0.83170    0.55610    1.000
    C17      C        0.16500    0.64220    0.72500    1.000
    H9       H        0.10830    0.61030    0.73760    1.000
    C18      C        0.88740    0.41510    0.43830    1.000
    H10      H        0.85910    0.34910    0.44450    1.000
    C19      C        0.29610    0.77750    0.72460    1.000
    H11      H        0.32910    0.83950    0.73660    1.000
    C20      C        0.64380    0.15780    0.69100    1.000
    H12      H        0.58020    0.12770    0.67740    1.000
    C21      C        0.19950    0.60090    0.68550    1.000
    H13      H        0.16590    0.54040    0.67240    1.000
    C22      C        0.86320    0.59150    0.41680    1.000
    H14      H        0.81760    0.64830    0.40840    1.000
    C23      C        0.32890    0.73040    0.68490    1.000
    H15      H        0.38630    0.75980    0.67190    1.000
    C24      C        0.99490    0.42780    0.44510    1.000
    H16      H        0.03890    0.37060    0.45480    1.000
    Cd3      Cd       0.93485    0.83110    0.88884    1.000
    Cd4      Cd       0.14406    0.04012    0.89126    1.000
    O2       O        0.05800    0.92810    0.93640    1.000
    N21      N        0.52420    0.56600    0.65360    1.000
    N22      N        0.97260    0.26580    0.96690    1.000
    N23      N        0.60000    0.49110    0.65480    1.000
    N24      N        0.55450    0.63680    0.68800    1.000
    N25      N        0.82060    0.74320    0.83000    1.000
    N26      N        0.17710    0.02880    0.03910    1.000
    N27      N        0.97520    0.65960    0.92100    1.000
    N28      N        0.42000    0.31250    0.65860    1.000
    N29      N        0.28700    0.37030    0.69240    1.000
    N30      N        0.10980    0.28350    0.92580    1.000
    N31      N        0.01800    0.16870    0.96380    1.000
    N32      N        0.29860    0.12920    0.07640    1.000
    N33      N        0.34820    0.38790    0.65800    1.000
    N34      N        0.09800    0.18050    0.93870    1.000
    C25      C        0.64730    0.60110    0.70810    1.000
    N35      N        0.67860    0.51240    0.68790    1.000
    C26      C        0.34200    0.04370    0.05680    1.000
    C27      C        0.32590    0.27940    0.71260    1.000
    N36      N        0.40770    0.24260    0.69130    1.000
    C28      C        0.66980    0.74340    0.77070    1.000
    H17      H        0.60860    0.77750    0.75680    1.000
    N37      N        0.21920    0.14350    0.83570    1.000
    C29      C        0.70700    0.65020    0.74970    1.000
    C30      C        0.80610    0.61100    0.76890    1.000
    H18      H        0.83750    0.55430    0.75490    1.000
    N38      N        0.26970    0.98120    0.03370    1.000
    C31      C        0.53010    0.10820    0.07750    1.000
    H19      H        0.50380    0.17510    0.08380    1.000
    N39      N        0.19530    0.11530    0.06370    1.000
    C32      C        0.46000    0.02900    0.06260    1.000
    C33      C        0.89970    0.59970    0.93670    1.000
    H20      H        0.83550    0.63160    0.94160    1.000
    C34      C        0.08790    0.51080    0.92290    1.000
    H21      H        0.15390    0.48260    0.91810    1.000
    C35      C        0.00840    0.44430    0.93780    1.000
    C36      C        0.72390    0.78290    0.81130    1.000
    H22      H        0.69390    0.83850    0.82660    1.000
    N40      N        0.67940    0.99310    0.07710    1.000
    C37      C        0.06800    0.61670    0.91550    1.000
    H23      H        0.12180    0.65970    0.90640    1.000
    C38      C        0.91250    0.49250    0.94600    1.000
    H24      H        0.85860    0.45330    0.95740    1.000
    C39      C        0.28610    0.23260    0.75330    1.000
    C40      C        0.02980    0.33170    0.94390    1.000
    C41      C        0.33500    0.14220    0.77500    1.000
    H25      H        0.39170    0.11030    0.76240    1.000
    C42      C        0.61260    0.91510    0.06170    1.000
    H26      H        0.64090    0.84910    0.05550    1.000
    C43      C        0.20390    0.27750    0.77540    1.000
    H27      H        0.17090    0.33950    0.76340    1.000
    C44      C        0.85620    0.65780    0.80900    1.000
    H28      H        0.91980    0.62770    0.82260    1.000
    C45      C        0.30050    0.10090    0.81450    1.000
    H29      H        0.33410    0.04040    0.82760    1.000
    C46      C        0.63680    0.09150    0.08320    1.000
    H30      H        0.68240    0.14830    0.09160    1.000
    C47      C        0.17110    0.23040    0.81510    1.000
    H31      H        0.11370    0.25980    0.82810    1.000
    C48      C        0.50510    0.92780    0.05490    1.000
    H32      H        0.46110    0.87060    0.04520    1.000
    Cd5      Cd       0.43485    0.66890    0.38884    1.000
    Cd6      Cd       0.64406    0.45988    0.39126    1.000
    O3       O        0.55800    0.57190    0.43640    1.000
    N41      N        0.02420    0.93400    0.15360    1.000
    N42      N        0.47260    0.23420    0.46690    1.000
    N43      N        0.10000    0.00890    0.15480    1.000
    N44      N        0.05450    0.86320    0.18800    1.000
    N45      N        0.32060    0.75680    0.33000    1.000
    N46      N        0.67710    0.47120    0.53910    1.000
    N47      N        0.47520    0.84040    0.42100    1.000
    N48      N        0.92000    0.18750    0.15860    1.000
    N49      N        0.78700    0.12970    0.19240    1.000
    N50      N        0.60980    0.21650    0.42580    1.000
    N51      N        0.51800    0.33130    0.46380    1.000
    N52      N        0.79860    0.37080    0.57640    1.000
    N53      N        0.84820    0.11210    0.15800    1.000
    N54      N        0.59800    0.31950    0.43870    1.000
    C49      C        0.14730    0.89890    0.20810    1.000
    N55      N        0.17860    0.98760    0.18790    1.000
    C50      C        0.84200    0.45630    0.55680    1.000
    C51      C        0.82590    0.22060    0.21260    1.000
    N56      N        0.90770    0.25740    0.19130    1.000
    C52      C        0.16980    0.75660    0.27070    1.000
    H33      H        0.10860    0.72250    0.25680    1.000
    N57      N        0.71920    0.35650    0.33570    1.000
    C53      C        0.20700    0.84980    0.24970    1.000
    C54      C        0.30610    0.88900    0.26890    1.000
    H34      H        0.33750    0.94570    0.25490    1.000
    N58      N        0.76970    0.51880    0.53370    1.000
    C55      C        0.03010    0.39180    0.57750    1.000
    H35      H        0.00380    0.32490    0.58380    1.000
    N59      N        0.69530    0.38470    0.56370    1.000
    C56      C        0.96000    0.47100    0.56260    1.000
    C57      C        0.39970    0.90030    0.43670    1.000
    H36      H        0.33550    0.86840    0.44160    1.000
    C58      C        0.58790    0.98920    0.42290    1.000
    H37      H        0.65390    0.01740    0.41810    1.000
    C59      C        0.50840    0.05570    0.43780    1.000
    C60      C        0.22390    0.71710    0.31130    1.000
    H38      H        0.19390    0.66150    0.32660    1.000
    N60      N        0.17940    0.50690    0.57710    1.000
    C61      C        0.56800    0.88330    0.41550    1.000
    H39      H        0.62180    0.84030    0.40640    1.000
    C62      C        0.41250    0.00750    0.44600    1.000
    H40      H        0.35860    0.04670    0.45740    1.000
    C63      C        0.78610    0.26740    0.25330    1.000
    C64      C        0.52980    0.16830    0.44390    1.000
    C65      C        0.83500    0.35780    0.27500    1.000
    H41      H        0.89170    0.38970    0.26240    1.000
    C66      C        0.11260    0.58490    0.56170    1.000
    H42      H        0.14090    0.65090    0.55550    1.000
    C67      C        0.70390    0.22250    0.27540    1.000
    H43      H        0.67090    0.16050    0.26340    1.000
    C68      C        0.35620    0.84220    0.30900    1.000
    H44      H        0.41980    0.87230    0.32260    1.000
    C69      C        0.80050    0.39910    0.31450    1.000
    H45      H        0.83410    0.45960    0.32760    1.000
    C70      C        0.13680    0.40850    0.58320    1.000
    H46      H        0.18240    0.35170    0.59160    1.000
    C71      C        0.67110    0.26960    0.31510    1.000
    H47      H        0.61370    0.24020    0.32810    1.000
    C72      C        0.00510    0.57220    0.55490    1.000
    H48      H        0.96110    0.62940    0.54520    1.000
    Cd7      Cd       0.06515    0.16890    0.11116    1.000
    Cd8      Cd       0.85594    0.95988    0.10874    1.000
    O4       O        0.94200    0.07190    0.06360    1.000
    N61      N        0.47580    0.43400    0.34640    1.000
    N62      N        0.02740    0.73420    0.03310    1.000
    N63      N        0.40000    0.50890    0.34520    1.000
    N64      N        0.44550    0.36320    0.31200    1.000
    N65      N        0.17940    0.25680    0.17000    1.000
    N66      N        0.82290    0.97120    0.96090    1.000
    N67      N        0.02480    0.34040    0.07900    1.000
    N68      N        0.58000    0.68750    0.34140    1.000
    N69      N        0.71300    0.62970    0.30760    1.000
    N70      N        0.89020    0.71650    0.07420    1.000
    N71      N        0.98200    0.83130    0.03620    1.000
    N72      N        0.70140    0.87080    0.92360    1.000
    N73      N        0.65180    0.61210    0.34200    1.000
    N74      N        0.90200    0.81950    0.06130    1.000
    C73      C        0.35270    0.39890    0.29190    1.000
    N75      N        0.32140    0.48760    0.31210    1.000
    C74      C        0.65800    0.95630    0.94320    1.000
    C75      C        0.67410    0.72060    0.28740    1.000
    N76      N        0.59230    0.75740    0.30870    1.000
    C76      C        0.33020    0.25660    0.22930    1.000
    H49      H        0.39140    0.22250    0.24320    1.000
    N77      N        0.78080    0.85650    0.16430    1.000
    C77      C        0.29300    0.34980    0.25030    1.000
    C78      C        0.19390    0.38900    0.23110    1.000
    H50      H        0.16250    0.44570    0.24510    1.000
    N78      N        0.73030    0.01880    0.96630    1.000
    C79      C        0.46990    0.89180    0.92250    1.000
    H51      H        0.49620    0.82490    0.91620    1.000
    N79      N        0.80470    0.88470    0.93630    1.000
    C80      C        0.54000    0.97100    0.93740    1.000
    C81      C        0.10030    0.40030    0.06330    1.000
    H52      H        0.16450    0.36840    0.05840    1.000
    C82      C        0.91210    0.48920    0.07710    1.000
    H53      H        0.84610    0.51740    0.08190    1.000
    C83      C        0.99160    0.55570    0.06220    1.000
    C84      C        0.27610    0.21710    0.18870    1.000
    H54      H        0.30610    0.16150    0.17340    1.000
    N80      N        0.32060    0.00690    0.92290    1.000
    C85      C        0.93200    0.38330    0.08450    1.000
    H55      H        0.87820    0.34030    0.09360    1.000
    C86      C        0.08750    0.50750    0.05400    1.000
    H56      H        0.14140    0.54670    0.04260    1.000
    C87      C        0.71390    0.76740    0.24670    1.000
    C88      C        0.97020    0.66830    0.05610    1.000
    C89      C        0.66500    0.85780    0.22500    1.000
    H57      H        0.60830    0.88970    0.23760    1.000
    C90      C        0.38740    0.08490    0.93830    1.000
    H58      H        0.35910    0.15090    0.94450    1.000
    C91      C        0.79610    0.72250    0.22460    1.000
    H59      H        0.82910    0.66050    0.23660    1.000
    C92      C        0.14380    0.34220    0.19100    1.000
    H60      H        0.08020    0.37230    0.17740    1.000
    C93      C        0.69950    0.89910    0.18550    1.000
    H61      H        0.66590    0.95960    0.17240    1.000
    C94      C        0.36320    0.90850    0.91680    1.000
    H62      H        0.31760    0.85170    0.90840    1.000
    C95      C        0.82890    0.76960    0.18490    1.000
    H63      H        0.88630    0.74020    0.17190    1.000
    C96      C        0.49490    0.07220    0.94510    1.000
    H64      H        0.53890    0.12940    0.95480    1.000
    Cd9      Cd       0.50000    0.50000    0.50000    1.000
    Cd10     Cd       0.00000    0.00000    0.00000    1.000
