# CIF file generated by openbabel 3.1.0, see https://openbabel.org
data_I
_chemical_name_common 'image0'
_cell_length_a 24.755
_cell_length_b 24.755
_cell_length_c 24.755
_cell_angle_alpha 90
_cell_angle_beta 90
_cell_angle_gamma 90
_space_group_name_H-M_alt 'P 1'
_space_group_name_Hall 'P 1'
loop_
    _symmetry_equiv_pos_as_xyz
    x,y,z
loop_
    _atom_site_label
    _atom_site_type_symbol
    _atom_site_fract_x
    _atom_site_fract_y
    _atom_site_fract_z
    _atom_site_occupancy
    Co1      Co       0.41481    0.21026    0.20530    1.000
    O1       O        0.28650    0.19900    0.39240    1.000
    O2       O        0.33140    0.23850    0.45810    1.000
    O3       O        0.61910    0.20760    0.10510    1.000
    O4       O        0.68154    0.20010    0.16670    1.000
    N1       N        0.41756    0.20810    0.29055    1.000
    N2       N        0.49784    0.20651    0.22170    1.000
    C1       C        0.37460    0.20960    0.32350    1.000
    H1       H        0.34040    0.21040    0.30790    1.000
    C2       C        0.37790    0.21000    0.37860    1.000
    C3       C        0.42930    0.20660    0.40130    1.000
    H2       H        0.43360    0.20580    0.43860    1.000
    C4       C        0.47430    0.20450    0.36740    1.000
    H3       H        0.50880    0.20230    0.38210    1.000
    C5       C        0.46760    0.20590    0.31220    1.000
    C6       C        0.51280    0.20380    0.27330    1.000
    C7       C        0.56590    0.20000    0.28840    1.000
    H4       H        0.57520    0.19760    0.32470    1.000
    C8       C        0.60470    0.19960    0.24970    1.000
    H5       H        0.64090    0.19700    0.25950    1.000
    C9       C        0.59090    0.20300    0.19640    1.000
    C10      C        0.53600    0.20670    0.18400    1.000
    H6       H        0.52580    0.20930    0.14790    1.000
    C11      C        0.32870    0.21190    0.41320    1.000
    C12      C        0.63340    0.20310    0.15270    1.000
    O5       O        0.28530    0.21410    0.38660    1.000
    O6       O        0.33490    0.20040    0.46300    1.000
    Co2      Co       0.08519    0.78974    0.70530    1.000
    O7       O        0.21350    0.80100    0.89240    1.000
    O8       O        0.16860    0.76150    0.95810    1.000
    O9       O        0.88090    0.79240    0.60510    1.000
    O10      O        0.81846    0.79990    0.66670    1.000
    N3       N        0.08244    0.79190    0.79055    1.000
    N4       N        0.00216    0.79349    0.72170    1.000
    C13      C        0.12540    0.79040    0.82350    1.000
    H7       H        0.15960    0.78960    0.80790    1.000
    C14      C        0.12210    0.79000    0.87860    1.000
    C15      C        0.07070    0.79340    0.90130    1.000
    H8       H        0.06640    0.79420    0.93860    1.000
    C16      C        0.02570    0.79550    0.86740    1.000
    H9       H        0.99120    0.79770    0.88210    1.000
    C17      C        0.03240    0.79410    0.81220    1.000
    C18      C        0.98720    0.79620    0.77330    1.000
    C19      C        0.93410    0.80000    0.78840    1.000
    H10      H        0.92480    0.80240    0.82470    1.000
    C20      C        0.89530    0.80040    0.74970    1.000
    H11      H        0.85910    0.80300    0.75950    1.000
    C21      C        0.90910    0.79700    0.69640    1.000
    C22      C        0.96400    0.79330    0.68400    1.000
    H12      H        0.97420    0.79070    0.64790    1.000
    C23      C        0.17130    0.78810    0.91320    1.000
    C24      C        0.86660    0.79690    0.65270    1.000
    O11      O        0.21470    0.78590    0.88660    1.000
    O12      O        0.16510    0.79960    0.96300    1.000
    Co3      Co       0.58519    0.71026    0.29470    1.000
    O13      O        0.71350    0.69900    0.10760    1.000
    O14      O        0.66860    0.73850    0.04190    1.000
    O15      O        0.38090    0.70760    0.39490    1.000
    O16      O        0.31846    0.70010    0.33330    1.000
    N5       N        0.58244    0.70810    0.20945    1.000
    N6       N        0.50216    0.70651    0.27830    1.000
    C25      C        0.62540    0.70960    0.17650    1.000
    H13      H        0.65960    0.71040    0.19210    1.000
    C26      C        0.62210    0.71000    0.12140    1.000
    C27      C        0.57070    0.70660    0.09870    1.000
    H14      H        0.56640    0.70580    0.06140    1.000
    C28      C        0.52570    0.70450    0.13260    1.000
    H15      H        0.49120    0.70230    0.11790    1.000
    C29      C        0.53240    0.70590    0.18780    1.000
    C30      C        0.48720    0.70380    0.22670    1.000
    C31      C        0.43410    0.70000    0.21160    1.000
    H16      H        0.42480    0.69760    0.17530    1.000
    C32      C        0.39530    0.69960    0.25030    1.000
    H17      H        0.35910    0.69700    0.24050    1.000
    C33      C        0.40910    0.70300    0.30360    1.000
    C34      C        0.46400    0.70670    0.31600    1.000
    H18      H        0.47420    0.70930    0.35210    1.000
    C35      C        0.67130    0.71190    0.08680    1.000
    C36      C        0.36660    0.70310    0.34730    1.000
    O17      O        0.71470    0.71410    0.11340    1.000
    O18      O        0.66510    0.70040    0.03700    1.000
    Co4      Co       0.91481    0.28974    0.79470    1.000
    O19      O        0.78650    0.30100    0.60760    1.000
    O20      O        0.83140    0.26150    0.54190    1.000
    O21      O        0.11910    0.29240    0.89490    1.000
    O22      O        0.18154    0.29990    0.83330    1.000
    N7       N        0.91756    0.29190    0.70945    1.000
    N8       N        0.99784    0.29349    0.77830    1.000
    C37      C        0.87460    0.29040    0.67650    1.000
    H19      H        0.84040    0.28960    0.69210    1.000
    C38      C        0.87790    0.29000    0.62140    1.000
    C39      C        0.92930    0.29340    0.59870    1.000
    H20      H        0.93360    0.29420    0.56140    1.000
    C40      C        0.97430    0.29550    0.63260    1.000
    H21      H        0.00880    0.29770    0.61790    1.000
    C41      C        0.96760    0.29410    0.68780    1.000
    C42      C        0.01280    0.29620    0.72670    1.000
    C43      C        0.06590    0.30000    0.71160    1.000
    H22      H        0.07520    0.30240    0.67530    1.000
    C44      C        0.10470    0.30040    0.75030    1.000
    H23      H        0.14090    0.30300    0.74050    1.000
    C45      C        0.09090    0.29700    0.80360    1.000
    C46      C        0.03600    0.29330    0.81600    1.000
    H24      H        0.02580    0.29070    0.85210    1.000
    C47      C        0.82870    0.28810    0.58680    1.000
    C48      C        0.13340    0.29690    0.84730    1.000
    O23      O        0.78530    0.28590    0.61340    1.000
    O24      O        0.83490    0.29960    0.53700    1.000
    Co5      Co       0.20530    0.41481    0.21026    1.000
    O25      O        0.39240    0.28650    0.19900    1.000
    O26      O        0.45810    0.33140    0.23850    1.000
    O27      O        0.10510    0.61910    0.20760    1.000
    O28      O        0.16670    0.68154    0.20010    1.000
    N9       N        0.29055    0.41756    0.20810    1.000
    N10      N        0.22170    0.49784    0.20651    1.000
    C49      C        0.32350    0.37460    0.20960    1.000
    H25      H        0.30790    0.34040    0.21040    1.000
    C50      C        0.37860    0.37790    0.21000    1.000
    C51      C        0.40130    0.42930    0.20660    1.000
    H26      H        0.43860    0.43360    0.20580    1.000
    C52      C        0.36740    0.47430    0.20450    1.000
    H27      H        0.38210    0.50880    0.20230    1.000
    C53      C        0.31220    0.46760    0.20590    1.000
    C54      C        0.27330    0.51280    0.20380    1.000
    C55      C        0.28840    0.56590    0.20000    1.000
    H28      H        0.32470    0.57520    0.19760    1.000
    C56      C        0.24970    0.60470    0.19960    1.000
    H29      H        0.25950    0.64090    0.19700    1.000
    C57      C        0.19640    0.59090    0.20300    1.000
    C58      C        0.18400    0.53600    0.20670    1.000
    H30      H        0.14790    0.52580    0.20930    1.000
    C59      C        0.41320    0.32870    0.21190    1.000
    C60      C        0.15270    0.63340    0.20310    1.000
    O29      O        0.38660    0.28530    0.21410    1.000
    O30      O        0.46300    0.33490    0.20040    1.000
    Co6      Co       0.70530    0.08519    0.78974    1.000
    O31      O        0.89240    0.21350    0.80100    1.000
    O32      O        0.95810    0.16860    0.76150    1.000
    O33      O        0.60510    0.88090    0.79240    1.000
    O34      O        0.66670    0.81846    0.79990    1.000
    N11      N        0.79055    0.08244    0.79190    1.000
    N12      N        0.72170    0.00216    0.79349    1.000
    C61      C        0.82350    0.12540    0.79040    1.000
    H31      H        0.80790    0.15960    0.78960    1.000
    C62      C        0.87860    0.12210    0.79000    1.000
    C63      C        0.90130    0.07070    0.79340    1.000
    H32      H        0.93860    0.06640    0.79420    1.000
    C64      C        0.86740    0.02570    0.79550    1.000
    H33      H        0.88210    0.99120    0.79770    1.000
    C65      C        0.81220    0.03240    0.79410    1.000
    C66      C        0.77330    0.98720    0.79620    1.000
    C67      C        0.78840    0.93410    0.80000    1.000
    H34      H        0.82470    0.92480    0.80240    1.000
    C68      C        0.74970    0.89530    0.80040    1.000
    H35      H        0.75950    0.85910    0.80300    1.000
    C69      C        0.69640    0.90910    0.79700    1.000
    C70      C        0.68400    0.96400    0.79330    1.000
    H36      H        0.64790    0.97420    0.79070    1.000
    C71      C        0.91320    0.17130    0.78810    1.000
    C72      C        0.65270    0.86660    0.79690    1.000
    O35      O        0.88660    0.21470    0.78590    1.000
    O36      O        0.96300    0.16510    0.79960    1.000
    Co7      Co       0.29470    0.58519    0.71026    1.000
    O37      O        0.10760    0.71350    0.69900    1.000
    O38      O        0.04190    0.66860    0.73850    1.000
    O39      O        0.39490    0.38090    0.70760    1.000
    O40      O        0.33330    0.31846    0.70010    1.000
    N13      N        0.20945    0.58244    0.70810    1.000
    N14      N        0.27830    0.50216    0.70651    1.000
    C73      C        0.17650    0.62540    0.70960    1.000
    H37      H        0.19210    0.65960    0.71040    1.000
    C74      C        0.12140    0.62210    0.71000    1.000
    C75      C        0.09870    0.57070    0.70660    1.000
    H38      H        0.06140    0.56640    0.70580    1.000
    C76      C        0.13260    0.52570    0.70450    1.000
    H39      H        0.11790    0.49120    0.70230    1.000
    C77      C        0.18780    0.53240    0.70590    1.000
    C78      C        0.22670    0.48720    0.70380    1.000
    C79      C        0.21160    0.43410    0.70000    1.000
    H40      H        0.17530    0.42480    0.69760    1.000
    C80      C        0.25030    0.39530    0.69960    1.000
    H41      H        0.24050    0.35910    0.69700    1.000
    C81      C        0.30360    0.40910    0.70300    1.000
    C82      C        0.31600    0.46400    0.70670    1.000
    H42      H        0.35210    0.47420    0.70930    1.000
    C83      C        0.08680    0.67130    0.71190    1.000
    C84      C        0.34730    0.36660    0.70310    1.000
    O41      O        0.11340    0.71470    0.71410    1.000
    O42      O        0.03700    0.66510    0.70040    1.000
    Co8      Co       0.79470    0.91481    0.28974    1.000
    O43      O        0.60760    0.78650    0.30100    1.000
    O44      O        0.54190    0.83140    0.26150    1.000
    O45      O        0.89490    0.11910    0.29240    1.000
    O46      O        0.83330    0.18154    0.29990    1.000
    N15      N        0.70945    0.91756    0.29190    1.000
    N16      N        0.77830    0.99784    0.29349    1.000
    C85      C        0.67650    0.87460    0.29040    1.000
    H43      H        0.69210    0.84040    0.28960    1.000
    C86      C        0.62140    0.87790    0.29000    1.000
    C87      C        0.59870    0.92930    0.29340    1.000
    H44      H        0.56140    0.93360    0.29420    1.000
    C88      C        0.63260    0.97430    0.29550    1.000
    H45      H        0.61790    0.00880    0.29770    1.000
    C89      C        0.68780    0.96760    0.29410    1.000
    C90      C        0.72670    0.01280    0.29620    1.000
    C91      C        0.71160    0.06590    0.30000    1.000
    H46      H        0.67530    0.07520    0.30240    1.000
    C92      C        0.75030    0.10470    0.30040    1.000
    H47      H        0.74050    0.14090    0.30300    1.000
    C93      C        0.80360    0.09090    0.29700    1.000
    C94      C        0.81600    0.03600    0.29330    1.000
    H48      H        0.85210    0.02580    0.29070    1.000
    C95      C        0.58680    0.82870    0.28810    1.000
    C96      C        0.84730    0.13340    0.29690    1.000
    O47      O        0.61340    0.78530    0.28590    1.000
    O48      O        0.53700    0.83490    0.29960    1.000
    Co9      Co       0.21026    0.20530    0.41481    1.000
    O49      O        0.19900    0.39240    0.28650    1.000
    O50      O        0.23850    0.45810    0.33140    1.000
    O51      O        0.20760    0.10510    0.61910    1.000
    O52      O        0.20010    0.16670    0.68154    1.000
    N17      N        0.20810    0.29055    0.41756    1.000
    N18      N        0.20651    0.22170    0.49784    1.000
    C97      C        0.20960    0.32350    0.37460    1.000
    H49      H        0.21040    0.30790    0.34040    1.000
    C98      C        0.21000    0.37860    0.37790    1.000
    C99      C        0.20660    0.40130    0.42930    1.000
    H50      H        0.20580    0.43860    0.43360    1.000
    C100     C        0.20450    0.36740    0.47430    1.000
    H51      H        0.20230    0.38210    0.50880    1.000
    C101     C        0.20590    0.31220    0.46760    1.000
    C102     C        0.20380    0.27330    0.51280    1.000
    C103     C        0.20000    0.28840    0.56590    1.000
    H52      H        0.19760    0.32470    0.57520    1.000
    C104     C        0.19960    0.24970    0.60470    1.000
    H53      H        0.19700    0.25950    0.64090    1.000
    C105     C        0.20300    0.19640    0.59090    1.000
    C106     C        0.20670    0.18400    0.53600    1.000
    H54      H        0.20930    0.14790    0.52580    1.000
    C107     C        0.21190    0.41320    0.32870    1.000
    C108     C        0.20310    0.15270    0.63340    1.000
    O53      O        0.21410    0.38660    0.28530    1.000
    O54      O        0.20040    0.46300    0.33490    1.000
    Co10     Co       0.78974    0.70530    0.08519    1.000
    O55      O        0.80100    0.89240    0.21350    1.000
    O56      O        0.76150    0.95810    0.16860    1.000
    O57      O        0.79240    0.60510    0.88090    1.000
    O58      O        0.79990    0.66670    0.81846    1.000
    N19      N        0.79190    0.79055    0.08244    1.000
    N20      N        0.79349    0.72170    0.00216    1.000
    C109     C        0.79040    0.82350    0.12540    1.000
    H55      H        0.78960    0.80790    0.15960    1.000
    C110     C        0.79000    0.87860    0.12210    1.000
    C111     C        0.79340    0.90130    0.07070    1.000
    H56      H        0.79420    0.93860    0.06640    1.000
    C112     C        0.79550    0.86740    0.02570    1.000
    H57      H        0.79770    0.88210    0.99120    1.000
    C113     C        0.79410    0.81220    0.03240    1.000
    C114     C        0.79620    0.77330    0.98720    1.000
    C115     C        0.80000    0.78840    0.93410    1.000
    H58      H        0.80240    0.82470    0.92480    1.000
    C116     C        0.80040    0.74970    0.89530    1.000
    H59      H        0.80300    0.75950    0.85910    1.000
    C117     C        0.79700    0.69640    0.90910    1.000
    C118     C        0.79330    0.68400    0.96400    1.000
    H60      H        0.79070    0.64790    0.97420    1.000
    C119     C        0.78810    0.91320    0.17130    1.000
    C120     C        0.79690    0.65270    0.86660    1.000
    O59      O        0.78590    0.88660    0.21470    1.000
    O60      O        0.79960    0.96300    0.16510    1.000
    Co11     Co       0.71026    0.29470    0.58519    1.000
    O61      O        0.69900    0.10760    0.71350    1.000
    O62      O        0.73850    0.04190    0.66860    1.000
    O63      O        0.70760    0.39490    0.38090    1.000
    O64      O        0.70010    0.33330    0.31846    1.000
    N21      N        0.70810    0.20945    0.58244    1.000
    N22      N        0.70651    0.27830    0.50216    1.000
    C121     C        0.70960    0.17650    0.62540    1.000
    H61      H        0.71040    0.19210    0.65960    1.000
    C122     C        0.71000    0.12140    0.62210    1.000
    C123     C        0.70660    0.09870    0.57070    1.000
    H62      H        0.70580    0.06140    0.56640    1.000
    C124     C        0.70450    0.13260    0.52570    1.000
    H63      H        0.70230    0.11790    0.49120    1.000
    C125     C        0.70590    0.18780    0.53240    1.000
    C126     C        0.70380    0.22670    0.48720    1.000
    C127     C        0.70000    0.21160    0.43410    1.000
    H64      H        0.69760    0.17530    0.42480    1.000
    C128     C        0.69960    0.25030    0.39530    1.000
    H65      H        0.69700    0.24050    0.35910    1.000
    C129     C        0.70300    0.30360    0.40910    1.000
    C130     C        0.70670    0.31600    0.46400    1.000
    H66      H        0.70930    0.35210    0.47420    1.000
    C131     C        0.71190    0.08680    0.67130    1.000
    C132     C        0.70310    0.34730    0.36660    1.000
    O65      O        0.71410    0.11340    0.71470    1.000
    O66      O        0.70040    0.03700    0.66510    1.000
    Co12     Co       0.28974    0.79470    0.91481    1.000
    O67      O        0.30100    0.60760    0.78650    1.000
    O68      O        0.26150    0.54190    0.83140    1.000
    O69      O        0.29240    0.89490    0.11910    1.000
    O70      O        0.29990    0.83330    0.18154    1.000
    N23      N        0.29190    0.70945    0.91756    1.000
    N24      N        0.29349    0.77830    0.99784    1.000
    C133     C        0.29040    0.67650    0.87460    1.000
    H67      H        0.28960    0.69210    0.84040    1.000
    C134     C        0.29000    0.62140    0.87790    1.000
    C135     C        0.29340    0.59870    0.92930    1.000
    H68      H        0.29420    0.56140    0.93360    1.000
    C136     C        0.29550    0.63260    0.97430    1.000
    H69      H        0.29770    0.61790    0.00880    1.000
    C137     C        0.29410    0.68780    0.96760    1.000
    C138     C        0.29620    0.72670    0.01280    1.000
    C139     C        0.30000    0.71160    0.06590    1.000
    H70      H        0.30240    0.67530    0.07520    1.000
    C140     C        0.30040    0.75030    0.10470    1.000
    H71      H        0.30300    0.74050    0.14090    1.000
    C141     C        0.29700    0.80360    0.09090    1.000
    C142     C        0.29330    0.81600    0.03600    1.000
    H72      H        0.29070    0.85210    0.02580    1.000
    C143     C        0.28810    0.58680    0.82870    1.000
    C144     C        0.29690    0.84730    0.13340    1.000
    O71      O        0.28590    0.61340    0.78530    1.000
    O72      O        0.29960    0.53700    0.83490    1.000
    Co13     Co       0.58519    0.78974    0.79470    1.000
    O73      O        0.71350    0.80100    0.60760    1.000
    O74      O        0.66860    0.76150    0.54190    1.000
    O75      O        0.38090    0.79240    0.89490    1.000
    O76      O        0.31846    0.79990    0.83330    1.000
    N25      N        0.58244    0.79190    0.70945    1.000
    N26      N        0.50216    0.79349    0.77830    1.000
    C145     C        0.62540    0.79040    0.67650    1.000
    H73      H        0.65960    0.78960    0.69210    1.000
    C146     C        0.62210    0.79000    0.62140    1.000
    C147     C        0.57070    0.79340    0.59870    1.000
    H74      H        0.56640    0.79420    0.56140    1.000
    C148     C        0.52570    0.79550    0.63260    1.000
    H75      H        0.49120    0.79770    0.61790    1.000
    C149     C        0.53240    0.79410    0.68780    1.000
    C150     C        0.48720    0.79620    0.72670    1.000
    C151     C        0.43410    0.80000    0.71160    1.000
    H76      H        0.42480    0.80240    0.67530    1.000
    C152     C        0.39530    0.80040    0.75030    1.000
    H77      H        0.35910    0.80300    0.74050    1.000
    C153     C        0.40910    0.79700    0.80360    1.000
    C154     C        0.46400    0.79330    0.81600    1.000
    H78      H        0.47420    0.79070    0.85210    1.000
    C155     C        0.67130    0.78810    0.58680    1.000
    C156     C        0.36660    0.79690    0.84730    1.000
    O77      O        0.71470    0.78590    0.61340    1.000
    O78      O        0.66510    0.79960    0.53700    1.000
    Co14     Co       0.91481    0.21026    0.29470    1.000
    O79      O        0.78650    0.19900    0.10760    1.000
    O80      O        0.83140    0.23850    0.04190    1.000
    O81      O        0.11910    0.20760    0.39490    1.000
    O82      O        0.18154    0.20010    0.33330    1.000
    N27      N        0.91756    0.20810    0.20945    1.000
    N28      N        0.99784    0.20651    0.27830    1.000
    C157     C        0.87460    0.20960    0.17650    1.000
    H79      H        0.84040    0.21040    0.19210    1.000
    C158     C        0.87790    0.21000    0.12140    1.000
    C159     C        0.92930    0.20660    0.09870    1.000
    H80      H        0.93360    0.20580    0.06140    1.000
    C160     C        0.97430    0.20450    0.13260    1.000
    H81      H        0.00880    0.20230    0.11790    1.000
    C161     C        0.96760    0.20590    0.18780    1.000
    C162     C        0.01280    0.20380    0.22670    1.000
    C163     C        0.06590    0.20000    0.21160    1.000
    H82      H        0.07520    0.19760    0.17530    1.000
    C164     C        0.10470    0.19960    0.25030    1.000
    H83      H        0.14090    0.19700    0.24050    1.000
    C165     C        0.09090    0.20300    0.30360    1.000
    C166     C        0.03600    0.20670    0.31600    1.000
    H84      H        0.02580    0.20930    0.35210    1.000
    C167     C        0.82870    0.21190    0.08680    1.000
    C168     C        0.13340    0.20310    0.34730    1.000
    O83      O        0.78530    0.21410    0.11340    1.000
    O84      O        0.83490    0.20040    0.03700    1.000
    Co15     Co       0.41481    0.28974    0.70530    1.000
    O85      O        0.28650    0.30100    0.89240    1.000
    O86      O        0.33140    0.26150    0.95810    1.000
    O87      O        0.61910    0.29240    0.60510    1.000
    O88      O        0.68154    0.29990    0.66670    1.000
    N29      N        0.41756    0.29190    0.79055    1.000
    N30      N        0.49784    0.29349    0.72170    1.000
    C169     C        0.37460    0.29040    0.82350    1.000
    H85      H        0.34040    0.28960    0.80790    1.000
    C170     C        0.37790    0.29000    0.87860    1.000
    C171     C        0.42930    0.29340    0.90130    1.000
    H86      H        0.43360    0.29420    0.93860    1.000
    C172     C        0.47430    0.29550    0.86740    1.000
    H87      H        0.50880    0.29770    0.88210    1.000
    C173     C        0.46760    0.29410    0.81220    1.000
    C174     C        0.51280    0.29620    0.77330    1.000
    C175     C        0.56590    0.30000    0.78840    1.000
    H88      H        0.57520    0.30240    0.82470    1.000
    C176     C        0.60470    0.30040    0.74970    1.000
    H89      H        0.64090    0.30300    0.75950    1.000
    C177     C        0.59090    0.29700    0.69640    1.000
    C178     C        0.53600    0.29330    0.68400    1.000
    H90      H        0.52580    0.29070    0.64790    1.000
    C179     C        0.32870    0.28810    0.91320    1.000
    C180     C        0.63340    0.29690    0.65270    1.000
    O89      O        0.28530    0.28590    0.88660    1.000
    O90      O        0.33490    0.29960    0.96300    1.000
    Co16     Co       0.08519    0.71026    0.20530    1.000
    O91      O        0.21350    0.69900    0.39240    1.000
    O92      O        0.16860    0.73850    0.45810    1.000
    O93      O        0.88090    0.70760    0.10510    1.000
    O94      O        0.81846    0.70010    0.16670    1.000
    N31      N        0.08244    0.70810    0.29055    1.000
    N32      N        0.00216    0.70651    0.22170    1.000
    C181     C        0.12540    0.70960    0.32350    1.000
    H91      H        0.15960    0.71040    0.30790    1.000
    C182     C        0.12210    0.71000    0.37860    1.000
    C183     C        0.07070    0.70660    0.40130    1.000
    H92      H        0.06640    0.70580    0.43860    1.000
    C184     C        0.02570    0.70450    0.36740    1.000
    H93      H        0.99120    0.70230    0.38210    1.000
    C185     C        0.03240    0.70590    0.31220    1.000
    C186     C        0.98720    0.70380    0.27330    1.000
    C187     C        0.93410    0.70000    0.28840    1.000
    H94      H        0.92480    0.69760    0.32470    1.000
    C188     C        0.89530    0.69960    0.24970    1.000
    H95      H        0.85910    0.69700    0.25950    1.000
    C189     C        0.90910    0.70300    0.19640    1.000
    C190     C        0.96400    0.70670    0.18400    1.000
    H96      H        0.97420    0.70930    0.14790    1.000
    C191     C        0.17130    0.71190    0.41320    1.000
    C192     C        0.86660    0.70310    0.15270    1.000
    O95      O        0.21470    0.71410    0.38660    1.000
    O96      O        0.16510    0.70040    0.46300    1.000
    Co17     Co       0.79470    0.58519    0.78974    1.000
    O97      O        0.60760    0.71350    0.80100    1.000
    O98      O        0.54190    0.66860    0.76150    1.000
    O99      O        0.89490    0.38090    0.79240    1.000
    O100     O        0.83330    0.31846    0.79990    1.000
    N33      N        0.70945    0.58244    0.79190    1.000
    N34      N        0.77830    0.50216    0.79349    1.000
    C193     C        0.67650    0.62540    0.79040    1.000
    H97      H        0.69210    0.65960    0.78960    1.000
    C194     C        0.62140    0.62210    0.79000    1.000
    C195     C        0.59870    0.57070    0.79340    1.000
    H98      H        0.56140    0.56640    0.79420    1.000
    C196     C        0.63260    0.52570    0.79550    1.000
    H99      H        0.61790    0.49120    0.79770    1.000
    C197     C        0.68780    0.53240    0.79410    1.000
    C198     C        0.72670    0.48720    0.79620    1.000
    C199     C        0.71160    0.43410    0.80000    1.000
    H100     H        0.67530    0.42480    0.80240    1.000
    C200     C        0.75030    0.39530    0.80040    1.000
    H101     H        0.74050    0.35910    0.80300    1.000
    C201     C        0.80360    0.40910    0.79700    1.000
    C202     C        0.81600    0.46400    0.79330    1.000
    H102     H        0.85210    0.47420    0.79070    1.000
    C203     C        0.58680    0.67130    0.78810    1.000
    C204     C        0.84730    0.36660    0.79690    1.000
    O101     O        0.61340    0.71470    0.78590    1.000
    O102     O        0.53700    0.66510    0.79960    1.000
    Co18     Co       0.29470    0.91481    0.21026    1.000
    O103     O        0.10760    0.78650    0.19900    1.000
    O104     O        0.04190    0.83140    0.23850    1.000
    O105     O        0.39490    0.11910    0.20760    1.000
    O106     O        0.33330    0.18154    0.20010    1.000
    N35      N        0.20945    0.91756    0.20810    1.000
    N36      N        0.27830    0.99784    0.20651    1.000
    C205     C        0.17650    0.87460    0.20960    1.000
    H103     H        0.19210    0.84040    0.21040    1.000
    C206     C        0.12140    0.87790    0.21000    1.000
    C207     C        0.09870    0.92930    0.20660    1.000
    H104     H        0.06140    0.93360    0.20580    1.000
    C208     C        0.13260    0.97430    0.20450    1.000
    H105     H        0.11790    0.00880    0.20230    1.000
    C209     C        0.18780    0.96760    0.20590    1.000
    C210     C        0.22670    0.01280    0.20380    1.000
    C211     C        0.21160    0.06590    0.20000    1.000
    H106     H        0.17530    0.07520    0.19760    1.000
    C212     C        0.25030    0.10470    0.19960    1.000
    H107     H        0.24050    0.14090    0.19700    1.000
    C213     C        0.30360    0.09090    0.20300    1.000
    C214     C        0.31600    0.03600    0.20670    1.000
    H108     H        0.35210    0.02580    0.20930    1.000
    C215     C        0.08680    0.82870    0.21190    1.000
    C216     C        0.34730    0.13340    0.20310    1.000
    O107     O        0.11340    0.78530    0.21410    1.000
    O108     O        0.03700    0.83490    0.20040    1.000
    Co19     Co       0.70530    0.41481    0.28974    1.000
    O109     O        0.89240    0.28650    0.30100    1.000
    O110     O        0.95810    0.33140    0.26150    1.000
    O111     O        0.60510    0.61910    0.29240    1.000
    O112     O        0.66670    0.68154    0.29990    1.000
    N37      N        0.79055    0.41756    0.29190    1.000
    N38      N        0.72170    0.49784    0.29349    1.000
    C217     C        0.82350    0.37460    0.29040    1.000
    H109     H        0.80790    0.34040    0.28960    1.000
    C218     C        0.87860    0.37790    0.29000    1.000
    C219     C        0.90130    0.42930    0.29340    1.000
    H110     H        0.93860    0.43360    0.29420    1.000
    C220     C        0.86740    0.47430    0.29550    1.000
    H111     H        0.88210    0.50880    0.29770    1.000
    C221     C        0.81220    0.46760    0.29410    1.000
    C222     C        0.77330    0.51280    0.29620    1.000
    C223     C        0.78840    0.56590    0.30000    1.000
    H112     H        0.82470    0.57520    0.30240    1.000
    C224     C        0.74970    0.60470    0.30040    1.000
    H113     H        0.75950    0.64090    0.30300    1.000
    C225     C        0.69640    0.59090    0.29700    1.000
    C226     C        0.68400    0.53600    0.29330    1.000
    H114     H        0.64790    0.52580    0.29070    1.000
    C227     C        0.91320    0.32870    0.28810    1.000
    C228     C        0.65270    0.63340    0.29690    1.000
    O113     O        0.88660    0.28530    0.28590    1.000
    O114     O        0.96300    0.33490    0.29960    1.000
    Co20     Co       0.20530    0.08519    0.71026    1.000
    O115     O        0.39240    0.21350    0.69900    1.000
    O116     O        0.45810    0.16860    0.73850    1.000
    O117     O        0.10510    0.88090    0.70760    1.000
    O118     O        0.16670    0.81846    0.70010    1.000
    N39      N        0.29055    0.08244    0.70810    1.000
    N40      N        0.22170    0.00216    0.70651    1.000
    C229     C        0.32350    0.12540    0.70960    1.000
    H115     H        0.30790    0.15960    0.71040    1.000
    C230     C        0.37860    0.12210    0.71000    1.000
    C231     C        0.40130    0.07070    0.70660    1.000
    H116     H        0.43860    0.06640    0.70580    1.000
    C232     C        0.36740    0.02570    0.70450    1.000
    H117     H        0.38210    0.99120    0.70230    1.000
    C233     C        0.31220    0.03240    0.70590    1.000
    C234     C        0.27330    0.98720    0.70380    1.000
    C235     C        0.28840    0.93410    0.70000    1.000
    H118     H        0.32470    0.92480    0.69760    1.000
    C236     C        0.24970    0.89530    0.69960    1.000
    H119     H        0.25950    0.85910    0.69700    1.000
    C237     C        0.19640    0.90910    0.70300    1.000
    C238     C        0.18400    0.96400    0.70670    1.000
    H120     H        0.14790    0.97420    0.70930    1.000
    C239     C        0.41320    0.17130    0.71190    1.000
    C240     C        0.15270    0.86660    0.70310    1.000
    O119     O        0.38660    0.21470    0.71410    1.000
    O120     O        0.46300    0.16510    0.70040    1.000
    Co21     Co       0.78974    0.79470    0.58519    1.000
    O121     O        0.80100    0.60760    0.71350    1.000
    O122     O        0.76150    0.54190    0.66860    1.000
    O123     O        0.79240    0.89490    0.38090    1.000
    O124     O        0.79990    0.83330    0.31846    1.000
    N41      N        0.79190    0.70945    0.58244    1.000
    N42      N        0.79349    0.77830    0.50216    1.000
    C241     C        0.79040    0.67650    0.62540    1.000
    H121     H        0.78960    0.69210    0.65960    1.000
    C242     C        0.79000    0.62140    0.62210    1.000
    C243     C        0.79340    0.59870    0.57070    1.000
    H122     H        0.79420    0.56140    0.56640    1.000
    C244     C        0.79550    0.63260    0.52570    1.000
    H123     H        0.79770    0.61790    0.49120    1.000
    C245     C        0.79410    0.68780    0.53240    1.000
    C246     C        0.79620    0.72670    0.48720    1.000
    C247     C        0.80000    0.71160    0.43410    1.000
    H124     H        0.80240    0.67530    0.42480    1.000
    C248     C        0.80040    0.75030    0.39530    1.000
    H125     H        0.80300    0.74050    0.35910    1.000
    C249     C        0.79700    0.80360    0.40910    1.000
    C250     C        0.79330    0.81600    0.46400    1.000
    H126     H        0.79070    0.85210    0.47420    1.000
    C251     C        0.78810    0.58680    0.67130    1.000
    C252     C        0.79690    0.84730    0.36660    1.000
    O125     O        0.78590    0.61340    0.71470    1.000
    O126     O        0.79960    0.53700    0.66510    1.000
    Co22     Co       0.21026    0.29470    0.91481    1.000
    O127     O        0.19900    0.10760    0.78650    1.000
    O128     O        0.23850    0.04190    0.83140    1.000
    O129     O        0.20760    0.39490    0.11910    1.000
    O130     O        0.20010    0.33330    0.18154    1.000
    N43      N        0.20810    0.20945    0.91756    1.000
    N44      N        0.20651    0.27830    0.99784    1.000
    C253     C        0.20960    0.17650    0.87460    1.000
    H127     H        0.21040    0.19210    0.84040    1.000
    C254     C        0.21000    0.12140    0.87790    1.000
    C255     C        0.20660    0.09870    0.92930    1.000
    H128     H        0.20580    0.06140    0.93360    1.000
    C256     C        0.20450    0.13260    0.97430    1.000
    H129     H        0.20230    0.11790    0.00880    1.000
    C257     C        0.20590    0.18780    0.96760    1.000
    C258     C        0.20380    0.22670    0.01280    1.000
    C259     C        0.20000    0.21160    0.06590    1.000
    H130     H        0.19760    0.17530    0.07520    1.000
    C260     C        0.19960    0.25030    0.10470    1.000
    H131     H        0.19700    0.24050    0.14090    1.000
    C261     C        0.20300    0.30360    0.09090    1.000
    C262     C        0.20670    0.31600    0.03600    1.000
    H132     H        0.20930    0.35210    0.02580    1.000
    C263     C        0.21190    0.08680    0.82870    1.000
    C264     C        0.20310    0.34730    0.13340    1.000
    O131     O        0.21410    0.11340    0.78530    1.000
    O132     O        0.20040    0.03700    0.83490    1.000
    Co23     Co       0.28974    0.70530    0.41481    1.000
    O133     O        0.30100    0.89240    0.28650    1.000
    O134     O        0.26150    0.95810    0.33140    1.000
    O135     O        0.29240    0.60510    0.61910    1.000
    O136     O        0.29990    0.66670    0.68154    1.000
    N45      N        0.29190    0.79055    0.41756    1.000
    N46      N        0.29349    0.72170    0.49784    1.000
    C265     C        0.29040    0.82350    0.37460    1.000
    H133     H        0.28960    0.80790    0.34040    1.000
    C266     C        0.29000    0.87860    0.37790    1.000
    C267     C        0.29340    0.90130    0.42930    1.000
    H134     H        0.29420    0.93860    0.43360    1.000
    C268     C        0.29550    0.86740    0.47430    1.000
    H135     H        0.29770    0.88210    0.50880    1.000
    C269     C        0.29410    0.81220    0.46760    1.000
    C270     C        0.29620    0.77330    0.51280    1.000
    C271     C        0.30000    0.78840    0.56590    1.000
    H136     H        0.30240    0.82470    0.57520    1.000
    C272     C        0.30040    0.74970    0.60470    1.000
    H137     H        0.30300    0.75950    0.64090    1.000
    C273     C        0.29700    0.69640    0.59090    1.000
    C274     C        0.29330    0.68400    0.53600    1.000
    H138     H        0.29070    0.64790    0.52580    1.000
    C275     C        0.28810    0.91320    0.32870    1.000
    C276     C        0.29690    0.65270    0.63340    1.000
    O137     O        0.28590    0.88660    0.28530    1.000
    O138     O        0.29960    0.96300    0.33490    1.000
    Co24     Co       0.71026    0.20530    0.08519    1.000
    O139     O        0.69900    0.39240    0.21350    1.000
    O140     O        0.73850    0.45810    0.16860    1.000
    O141     O        0.70760    0.10510    0.88090    1.000
    O142     O        0.70010    0.16670    0.81846    1.000
    N47      N        0.70810    0.29055    0.08244    1.000
    N48      N        0.70651    0.22170    0.00216    1.000
    C277     C        0.70960    0.32350    0.12540    1.000
    H139     H        0.71040    0.30790    0.15960    1.000
    C278     C        0.71000    0.37860    0.12210    1.000
    C279     C        0.70660    0.40130    0.07070    1.000
    H140     H        0.70580    0.43860    0.06640    1.000
    C280     C        0.70450    0.36740    0.02570    1.000
    H141     H        0.70230    0.38210    0.99120    1.000
    C281     C        0.70590    0.31220    0.03240    1.000
    C282     C        0.70380    0.27330    0.98720    1.000
    C283     C        0.70000    0.28840    0.93410    1.000
    H142     H        0.69760    0.32470    0.92480    1.000
    C284     C        0.69960    0.24970    0.89530    1.000
    H143     H        0.69700    0.25950    0.85910    1.000
    C285     C        0.70300    0.19640    0.90910    1.000
    C286     C        0.70670    0.18400    0.96400    1.000
    H144     H        0.70930    0.14790    0.97420    1.000
    C287     C        0.71190    0.41320    0.17130    1.000
    C288     C        0.70310    0.15270    0.86660    1.000
    O143     O        0.71410    0.38660    0.21470    1.000
    O144     O        0.70040    0.46300    0.16510    1.000
