data_functionalizedCrystal
_audit_creation_method	'EQeq! by Chris Wilmer'
_symmetry_space_group_name_H-M	'P1'
_symmetry_Int_Tables_number	1
_symmetry_cell_setting	triclinic
loop_
_symmetry_equiv_pos_as_xyz
  x,y,z
_cell_length_a	13.81
_cell_length_b	13.81
_cell_length_c	18.33
_cell_angle_alpha	90
_cell_angle_beta	90
_cell_angle_gamma	120
loop_
_atom_site_label
_atom_site_type_symbol
_atom_site_fract_x
_atom_site_fract_y
_atom_site_fract_z
_atom_site_charge
Mof_O 	O 	0.649	0.1365	0.6645	-0.741
Mof_C 	C 	0.5991	0.026	0.5336	0.006
Mof_H 	H 	0.6654	0.0421	0.5567	0.034
Mof_O 	O 	0.8635	0.5125	0.6645	-0.741
Mof_C 	C 	0.974	0.5731	0.5336	0.006
Mof_H 	H 	0.9579	0.6233	0.5567	0.034
Mof_O 	O 	0.4875	0.351	0.6645	-0.74
Mof_C 	C 	0.4269	0.4009	0.5336	0.007
Mof_H 	H 	0.3767	0.3346	0.5567	0.035
Mof_O 	O 	0.351	0.8635	0.1645	-0.74
Mof_C 	C 	0.4009	0.974	0.0336	0.007
Mof_H 	H 	0.3346	0.9579	0.0567	0.035
Mof_O 	O 	0.1365	0.4875	0.1645	-0.74
Mof_C 	C 	0.026	0.4269	0.0336	0.007
Mof_H 	H 	0.0421	0.3767	0.0567	0.035
Mof_O 	O 	0.5125	0.649	0.1645	-0.74
Mof_C 	C 	0.5731	0.5991	0.0336	0.007
Mof_H 	H 	0.6233	0.6654	0.0567	0.035
Mof_O 	O 	0.1365	0.649	0.3355	-0.74
Mof_C 	C 	0.026	0.5991	0.4664	0.007
Mof_H 	H 	0.0421	0.6654	0.4433	0.035
Mof_O 	O 	0.5125	0.8635	0.3355	-0.74
Mof_C 	C 	0.5731	0.974	0.4664	0.007
Mof_H 	H 	0.6233	0.9579	0.4433	0.035
Mof_O 	O 	0.351	0.4875	0.3355	-0.74
Mof_C 	C 	0.4009	0.4269	0.4664	0.007
Mof_H 	H 	0.3346	0.3767	0.4433	0.035
Mof_O 	O 	0.8635	0.351	0.8355	-0.74
Mof_C 	C 	0.974	0.4009	0.9664	0.007
Mof_H 	H 	0.9579	0.3346	0.9433	0.035
Mof_O 	O 	0.4875	0.1365	0.8355	-0.74
Mof_C 	C 	0.4269	0.026	0.9664	0.007
Mof_H 	H 	0.3767	0.0421	0.9433	0.035
Mof_O 	O 	0.649	0.5125	0.8355	-0.74
Mof_C 	C 	0.5991	0.5731	0.9664	0.007
Mof_H 	H 	0.6654	0.6233	0.9433	0.035
Mof_O 	O 	0.351	0.8635	0.3355	-0.74
Mof_C 	C 	0.4009	0.974	0.4664	0.007
Mof_H 	H 	0.3346	0.9579	0.4433	0.035
Mof_O 	O 	0.1365	0.4875	0.3355	-0.74
Mof_C 	C 	0.026	0.4269	0.4664	0.007
Mof_H 	H 	0.0421	0.3767	0.4433	0.035
Mof_O 	O 	0.5125	0.649	0.3355	-0.74
Mof_C 	C 	0.5731	0.5991	0.4664	0.007
Mof_H 	H 	0.6233	0.6654	0.4433	0.035
Mof_O 	O 	0.649	0.1365	0.8355	-0.74
Mof_C 	C 	0.5991	0.026	0.9664	0.007
Mof_H 	H 	0.6654	0.0421	0.9433	0.035
Mof_O 	O 	0.8635	0.5125	0.8355	-0.74
Mof_C 	C 	0.974	0.5731	0.9664	0.007
Mof_H 	H 	0.9579	0.6233	0.9433	0.035
Mof_O 	O 	0.4875	0.351	0.8355	-0.74
Mof_C 	C 	0.4269	0.4009	0.9664	0.007
Mof_H 	H 	0.3767	0.3346	0.9433	0.035
Mof_O 	O 	0.8635	0.351	0.6645	-0.74
Mof_C 	C 	0.974	0.4009	0.5336	0.007
Mof_H 	H 	0.9579	0.3346	0.5567	0.035
Mof_O 	O 	0.4875	0.1365	0.6645	-0.74
Mof_C 	C 	0.4269	0.026	0.5336	0.007
Mof_H 	H 	0.3767	0.0421	0.5567	0.035
Mof_O 	O 	0.649	0.5125	0.6645	-0.74
Mof_C 	C 	0.5991	0.5731	0.5336	0.007
Mof_H 	H 	0.6654	0.6233	0.5567	0.035
Mof_O 	O 	0.1365	0.649	0.1645	-0.74
Mof_C 	C 	0.026	0.5991	0.0336	0.007
Mof_H 	H 	0.0421	0.6654	0.0567	0.035
Mof_O 	O 	0.5125	0.8635	0.1645	-0.74
Mof_C 	C 	0.5731	0.974	0.0336	0.007
Mof_H 	H 	0.6233	0.9579	0.0567	0.035
Mof_O 	O 	0.351	0.4875	0.1645	-0.74
Mof_C 	C 	0.4009	0.4269	0.0336	0.007
Mof_H 	H 	0.3346	0.3767	0.0567	0.035
Mof_In	In	0.75119	0.24881	0.75	2.778
Mof_N 	N 	0.8408	0.1592	0.75	-0.441
Mof_In	In	0.75119	0.50238	0.75	2.778
Mof_N 	N 	0.8408	0.6816	0.75	-0.441
Mof_In	In	0.49762	0.24881	0.75	2.778
Mof_N 	N 	0.3184	0.1592	0.75	-0.441
Mof_In	In	0.24881	0.75119	0.25	2.778
Mof_N 	N 	0.1592	0.8408	0.25	-0.441
Mof_In	In	0.24881	0.49762	0.25	2.778
Mof_N 	N 	0.1592	0.3184	0.25	-0.441
Mof_In	In	0.50238	0.75119	0.25	2.778
Mof_N 	N 	0.6816	0.8408	0.25	-0.441
Mof_O 	O 	0.66667	0.33333	0.75	-1.466
Mof_O 	O 	0.33333	0.66667	0.25	-1.466
Mof_C 	C 	0.5571	0.1142	0.6378	0.599
Mof_C 	C 	0.527	0.054	0.5663	-0.165
Mof_C 	C 	0.8858	0.4429	0.6378	0.599
Mof_C 	C 	0.946	0.473	0.5663	-0.165
Mof_C 	C 	0.5571	0.4429	0.6378	0.599
Mof_C 	C 	0.527	0.473	0.5663	-0.164
Mof_C 	C 	0.4429	0.8858	0.1378	0.599
Mof_C 	C 	0.473	0.946	0.0663	-0.165
Mof_C 	C 	0.1142	0.5571	0.1378	0.599
Mof_C 	C 	0.054	0.527	0.0663	-0.165
Mof_C 	C 	0.4429	0.5571	0.1378	0.599
Mof_C 	C 	0.473	0.527	0.0663	-0.164
Mof_C 	C 	0.1142	0.5571	0.3622	0.599
Mof_C 	C 	0.054	0.527	0.4337	-0.165
Mof_C 	C 	0.4429	0.8858	0.3622	0.599
Mof_C 	C 	0.473	0.946	0.4337	-0.165
Mof_C 	C 	0.4429	0.5571	0.3622	0.599
Mof_C 	C 	0.473	0.527	0.4337	-0.164
Mof_C 	C 	0.8858	0.4429	0.8622	0.599
Mof_C 	C 	0.946	0.473	0.9337	-0.165
Mof_C 	C 	0.5571	0.1142	0.8622	0.599
Mof_C 	C 	0.527	0.054	0.9337	-0.165
Mof_C 	C 	0.5571	0.4429	0.8622	0.599
Mof_C 	C 	0.527	0.473	0.9337	-0.164
Mof_C 	C 	0.8736	0.1264	0.6962	0.188
Mof_N 	N 	0.9273	0.0727	0.7124	-0.101
Mof_H 	H 	0.8608	0.1392	0.6483	-0.049
Mof_C 	C 	0.8736	0.7472	0.6962	0.188
Mof_N 	N 	0.9273	0.8546	0.7124	-0.101
Mof_H 	H 	0.8608	0.7216	0.6483	-0.049
Mof_C 	C 	0.2528	0.1264	0.6962	0.188
Mof_N 	N 	0.1454	0.0727	0.7124	-0.101
Mof_H 	H 	0.2784	0.1392	0.6483	-0.049
Mof_C 	C 	0.1264	0.8736	0.1962	0.188
Mof_N 	N 	0.0727	0.9273	0.2124	-0.101
Mof_H 	H 	0.1392	0.8608	0.1483	-0.049
Mof_C 	C 	0.1264	0.2528	0.1962	0.188
Mof_N 	N 	0.0727	0.1454	0.2124	-0.101
Mof_H 	H 	0.1392	0.2784	0.1483	-0.049
Mof_C 	C 	0.7472	0.8736	0.1962	0.188
Mof_N 	N 	0.8546	0.9273	0.2124	-0.101
Mof_H 	H 	0.7216	0.8608	0.1483	-0.049
Mof_C 	C 	0.1264	0.8736	0.3038	0.188
Mof_N 	N 	0.0727	0.9273	0.2876	-0.101
Mof_H 	H 	0.1392	0.8608	0.3517	-0.049
Mof_C 	C 	0.7472	0.8736	0.3038	0.188
Mof_N 	N 	0.8546	0.9273	0.2876	-0.101
Mof_H 	H 	0.7216	0.8608	0.3517	-0.049
Mof_C 	C 	0.1264	0.2528	0.3038	0.188
Mof_N 	N 	0.0727	0.1454	0.2876	-0.101
Mof_H 	H 	0.1392	0.2784	0.3517	-0.049
Mof_C 	C 	0.8736	0.1264	0.8038	0.188
Mof_N 	N 	0.9273	0.0727	0.7876	-0.101
Mof_H 	H 	0.8608	0.1392	0.8517	-0.049
Mof_C 	C 	0.2528	0.1264	0.8038	0.188
Mof_N 	N 	0.1454	0.0727	0.7876	-0.101
Mof_H 	H 	0.2784	0.1392	0.8517	-0.049
Mof_C 	C 	0.8736	0.7472	0.8038	0.188
Mof_N 	N 	0.9273	0.8546	0.7876	-0.101
Mof_H 	H 	0.8608	0.7216	0.8517	-0.049
_end
