# CIF file generated by openbabel 3.1.0, see https://openbabel.org
data_I
_chemical_name_common 'ja039022msi20031007_110612_clean'
_cell_length_a 9.8416
_cell_length_b 11.2145
_cell_length_c 11.2145
_cell_angle_alpha 68.183
_cell_angle_beta 72.9908
_cell_angle_gamma 107.009
_space_group_name_H-M_alt 'P 1'
_space_group_name_Hall 'P 1'
loop_
    _symmetry_equiv_pos_as_xyz
    x,y,z
loop_
    _atom_site_label
    _atom_site_type_symbol
    _atom_site_fract_x
    _atom_site_fract_y
    _atom_site_fract_z
    _atom_site_occupancy
    Zn1      Zn       0.62663    0.37663    0.24674    1.000
    Zn2      Zn       0.12663    0.75326    0.62337    1.000
    Zn3      Zn       0.87337    0.24674    0.37663    1.000
    Zn4      Zn       0.37338    0.62338    0.75325    1.000
    Zn5      Zn       0.75000    0.62337    0.62337    1.000
    Zn6      Zn       0.25000    0.37663    0.37663    1.000
    H1       H        0.54420    0.08230    0.61090    1.000
    H2       H        0.04420    0.38910    0.91770    1.000
    H3       H        0.43030    0.59440    0.02770    1.000
    H4       H        0.03810    0.08230    0.30680    1.000
    H5       H        0.33590    0.40560    0.62210    1.000
    H6       H        0.49510    0.34670    0.93020    1.000
    H7       H        0.85160    0.27690    0.65330    1.000
    H8       H        0.07470    0.72310    0.93020    1.000
    H9       H        0.50490    0.65330    0.06980    1.000
    H10      H        0.95580    0.61090    0.08230    1.000
    H11      H        0.34490    0.30680    0.61090    1.000
    H12      H        0.96190    0.91770    0.69320    1.000
    H13      H        0.45580    0.91770    0.38910    1.000
    H14      H        0.06970    0.02770    0.59440    1.000
    H15      H        0.14840    0.72310    0.34670    1.000
    H16      H        0.84490    0.38910    0.69320    1.000
    H17      H        0.42530    0.93020    0.72310    1.000
    H18      H        0.16410    0.62210    0.40560    1.000
    H19      H        0.04200    0.37790    0.02770    1.000
    H20      H        0.92530    0.27690    0.06980    1.000
    H21      H        0.35160    0.34670    0.72310    1.000
    H22      H        0.65510    0.69320    0.38910    1.000
    H23      H        0.00490    0.93020    0.34670    1.000
    H24      H        0.46190    0.30680    0.08230    1.000
    H25      H        0.45800    0.02770    0.37790    1.000
    H26      H        0.54200    0.97230    0.62210    1.000
    H27      H        0.57470    0.06980    0.27690    1.000
    H28      H        0.95800    0.62210    0.97230    1.000
    H29      H        0.99510    0.06980    0.65330    1.000
    H30      H        0.93030    0.97230    0.40560    1.000
    H31      H        0.64840    0.65330    0.27690    1.000
    H32      H        0.83590    0.37790    0.59440    1.000
    H33      H        0.56970    0.40560    0.97230    1.000
    H34      H        0.53810    0.69320    0.91770    1.000
    H35      H        0.66410    0.59440    0.37790    1.000
    H36      H        0.15510    0.61090    0.30680    1.000
    C1       C        0.70384    0.53018    0.41106    1.000
    C2       C        0.29616    0.46982    0.58894    1.000
    C3       C        0.11490    0.41106    0.05876    1.000
    C4       C        0.88510    0.58894    0.94124    1.000
    C5       C        0.67366    0.46982    0.94124    1.000
    C6       C        0.17366    0.05876    0.53018    1.000
    C7       C        0.79616    0.41106    0.53018    1.000
    C8       C        0.20384    0.58894    0.46982    1.000
    C9       C        0.38510    0.05876    0.41106    1.000
    C10      C        0.61490    0.94124    0.58894    1.000
    C11      C        0.82634    0.94124    0.46982    1.000
    C12      C        0.32634    0.53018    0.05876    1.000
    N1       N        0.28058    0.55875    0.63671    1.000
    N2       N        0.52450    0.36070    0.99100    1.000
    N3       N        0.83620    0.35170    0.63930    1.000
    N4       N        0.75000    0.51589    0.51589    1.000
    N5       N        0.27817    0.19546    0.44125    1.000
    N6       N        0.41729    0.19546    0.36329    1.000
    N7       N        0.97550    0.99100    0.36070    1.000
    N8       N        0.66380    0.63930    0.35170    1.000
    N9       N        0.71942    0.44125    0.36329    1.000
    N10      N        0.08271    0.36329    0.19546    1.000
    N11      N        0.98450    0.64830    0.99100    1.000
    N12      N        0.01550    0.35170    0.00900    1.000
    N13      N        0.33620    0.36070    0.64830    1.000
    N14      N        0.91729    0.63671    0.80454    1.000
    N15      N        0.16380    0.64830    0.36070    1.000
    N16      N        0.77817    0.55875    0.80454    1.000
    N17      N        0.23411    0.96822    0.51589    1.000
    N18      N        0.73411    0.48411    0.03178    1.000
    N19      N        0.22183    0.44125    0.19546    1.000
    N20      N        0.26589    0.51589    0.96822    1.000
    N21      N        0.72183    0.80454    0.55875    1.000
    N22      N        0.58271    0.80454    0.63671    1.000
    N23      N        0.51550    0.99100    0.64830    1.000
    N24      N        0.48450    0.00900    0.35170    1.000
    N25      N        0.47550    0.63930    0.00900    1.000
    N26      N        0.02450    0.00900    0.63930    1.000
    N27      N        0.21942    0.63671    0.55875    1.000
    N28      N        0.25000    0.48411    0.48411    1.000
    N29      N        0.78058    0.36329    0.44125    1.000
    N30      N        0.76589    0.03178    0.48411    1.000
    F1       F        0.75000    0.25492    0.25492    1.000
    F2       F        0.99508    0.74508    0.50984    1.000
    F3       F        0.00492    0.25492    0.49016    1.000
    F4       F        0.50492    0.50984    0.74508    1.000
    F5       F        0.25000    0.74508    0.74508    1.000
    F6       F        0.49508    0.49016    0.25492    1.000
