data_functionalizedCrystal
_audit_creation_method	'EQeq! by Chris Wilmer'
_symmetry_space_group_name_H-M	'P1'
_symmetry_Int_Tables_number	1
_symmetry_cell_setting	triclinic
loop_
_symmetry_equiv_pos_as_xyz
  x,y,z
_cell_length_a	20.1716
_cell_length_b	20.1716
_cell_length_c	41.23
_cell_angle_alpha	90
_cell_angle_beta	90
_cell_angle_gamma	90
loop_
_atom_site_label
_atom_site_type_symbol
_atom_site_fract_x
_atom_site_fract_y
_atom_site_fract_z
_atom_site_charge
Mof_Mn	Mn	0.04727	0.72723	0.89173	0.931
Mof_Mn	Mn	0.5508	0.736	0.88027	0.914
Mof_Mn	Mn	0.95273	0.27277	0.39173	0.931
Mof_Mn	Mn	0.4492	0.264	0.38027	0.914
Mof_Mn	Mn	0.77277	0.54727	0.64173	0.93
Mof_Mn	Mn	0.764	0.0508	0.63027	0.917
Mof_Mn	Mn	0.22723	0.45273	0.14173	0.93
Mof_Mn	Mn	0.236	0.9492	0.13027	0.917
Mof_H 	H 	0.8687	0.6905	0.7555	0.07
Mof_H 	H 	0.9571	0.643	0.7793	0.053
Mof_H 	H 	0.9985	0.8129	0.8246	0.065
Mof_H 	H 	0.9047	0.8593	0.8038	0.015
Mof_H 	H 	0.001	0.5765	0.8073	0.648
Mof_H 	H 	0.0671	0.536	0.8106	0.668
Mof_H 	H 	0.0394	0.5754	0.8404	0.646
Mof_H 	H 	0.1527	0.6381	0.8448	0.593
Mof_H 	H 	0.1811	0.6029	0.8139	0.583
Mof_H 	H 	0.1755	0.6804	0.8149	0.571
Mof_H 	H 	0.0504	0.6353	0.7588	0.575
Mof_H 	H 	0.1141	0.6787	0.7635	0.561
Mof_H 	H 	0.1198	0.6012	0.7625	0.618
Mof_H 	H 	0.7571	0.9253	0.7923	0.014
Mof_H 	H 	0.6929	0.937	0.8369	0.057
Mof_H 	H 	0.7086	0.7439	0.8547	0.132
Mof_H 	H 	0.7701	0.733	0.8084	0.088
Mof_H 	H 	0.5969	0.9526	0.8565	0.671
Mof_H 	H 	0.5439	0.9106	0.8752	0.66
Mof_H 	H 	0.5647	0.9805	0.8883	0.659
Mof_H 	H 	0.6431	0.87	0.9446	0.651
Mof_H 	H 	0.5933	0.9295	0.9427	0.651
Mof_H 	H 	0.5724	0.8596	0.9296	0.622
Mof_H 	H 	0.714	0.9661	0.881	0.725
Mof_H 	H 	0.6839	0.9941	0.9133	0.779
Mof_H 	H 	0.7305	0.932	0.9142	0.779
Mof_H 	H 	0.6898	0.7538	0.7645	0.069
Mof_H 	H 	0.6357	0.6904	0.7264	0.054
Mof_H 	H 	0.7925	0.7037	0.6676	0.112
Mof_H 	H 	0.8431	0.7686	0.7039	0.06
Mof_H 	H 	0.5419	0.5897	0.6323	0.577
Mof_H 	H 	0.5956	0.6383	0.6185	0.559
Mof_H 	H 	0.6161	0.567	0.6299	0.567
Mof_H 	H 	0.5971	0.5979	0.7163	0.741
Mof_H 	H 	0.5431	0.5644	0.6944	0.737
Mof_H 	H 	0.6173	0.5419	0.6919	0.744
Mof_H 	H 	0.5657	0.7118	0.6957	0.655
Mof_H 	H 	0.5706	0.7273	0.6585	0.647
Mof_H 	H 	0.5121	0.684	0.6718	0.665
Mof_H 	H 	0.7339	0.9092	0.7387	0.082
Mof_H 	H 	0.7559	0.0032	0.7091	0.072
Mof_H 	H 	0.9489	0.9517	0.7071	0.003
Mof_H 	H 	0.9267	0.8634	0.7399	0.037
Mof_H 	H 	0.9459	0.0295	0.6337	0.793
Mof_H 	H 	0.0138	0.0536	0.648	0.778
Mof_H 	H 	0.9786	0.991	0.6626	0.736
Mof_H 	H 	0.0158	0.1066	0.7043	0.666
Mof_H 	H 	0.9488	0.1158	0.7231	0.653
Mof_H 	H 	0.9795	0.0448	0.7191	0.647
Mof_H 	H 	0.8992	0.1395	0.6428	0.84
Mof_H 	H 	0.898	0.1708	0.6776	0.806
Mof_H 	H 	0.965	0.1653	0.6586	0.821
Mof_H 	H 	0.0718	0.5855	0.973	0.107
Mof_H 	H 	0.8324	0.7575	0.897	0.083
Mof_H 	H 	0.556	0.6964	0.7766	0.026
Mof_H 	H 	0.3341	0.7543	0.8887	0.072
Mof_H 	H 	0.1313	0.3095	0.2555	0.07
Mof_H 	H 	0.0429	0.357	0.2793	0.053
Mof_H 	H 	0.0015	0.1871	0.3246	0.065
Mof_H 	H 	0.0953	0.1407	0.3038	0.015
Mof_H 	H 	0.999	0.4235	0.3073	0.648
Mof_H 	H 	0.9329	0.464	0.3106	0.668
Mof_H 	H 	0.9606	0.4246	0.3404	0.647
Mof_H 	H 	0.8473	0.3619	0.3448	0.593
Mof_H 	H 	0.8189	0.3971	0.3139	0.583
Mof_H 	H 	0.8245	0.3196	0.3149	0.571
Mof_H 	H 	0.9496	0.3647	0.2588	0.575
Mof_H 	H 	0.8859	0.3213	0.2635	0.561
Mof_H 	H 	0.8802	0.3988	0.2625	0.618
Mof_H 	H 	0.2429	0.0747	0.2923	0.014
Mof_H 	H 	0.3071	0.063	0.3369	0.057
Mof_H 	H 	0.2914	0.2561	0.3547	0.132
Mof_H 	H 	0.2299	0.267	0.3084	0.088
Mof_H 	H 	0.4031	0.0474	0.3565	0.671
Mof_H 	H 	0.4561	0.0894	0.3752	0.66
Mof_H 	H 	0.4353	0.0195	0.3883	0.66
Mof_H 	H 	0.3569	0.13	0.4446	0.651
Mof_H 	H 	0.4067	0.0705	0.4427	0.651
Mof_H 	H 	0.4276	0.1404	0.4296	0.622
Mof_H 	H 	0.286	0.0339	0.381	0.725
Mof_H 	H 	0.3161	0.0059	0.4133	0.779
Mof_H 	H 	0.2695	0.068	0.4142	0.779
Mof_H 	H 	0.3102	0.2462	0.2645	0.069
Mof_H 	H 	0.3643	0.3096	0.2264	0.054
Mof_H 	H 	0.2075	0.2963	0.1676	0.112
Mof_H 	H 	0.1569	0.2314	0.2039	0.06
Mof_H 	H 	0.4581	0.4103	0.1323	0.577
Mof_H 	H 	0.4044	0.3617	0.1185	0.559
Mof_H 	H 	0.3839	0.433	0.1299	0.567
Mof_H 	H 	0.4029	0.4021	0.2163	0.741
Mof_H 	H 	0.4569	0.4356	0.1944	0.737
Mof_H 	H 	0.3827	0.4581	0.1919	0.744
Mof_H 	H 	0.4343	0.2882	0.1957	0.655
Mof_H 	H 	0.4294	0.2727	0.1585	0.647
Mof_H 	H 	0.4879	0.316	0.1718	0.665
Mof_H 	H 	0.2661	0.0908	0.2387	0.082
Mof_H 	H 	0.2441	0.9968	0.2091	0.072
Mof_H 	H 	0.0511	0.0483	0.2071	0.003
Mof_H 	H 	0.0733	0.1366	0.2399	0.037
Mof_H 	H 	0.0541	0.9705	0.1337	0.792
Mof_H 	H 	0.9862	0.9464	0.148	0.777
Mof_H 	H 	0.0214	0.009	0.1626	0.735
Mof_H 	H 	0.9842	0.8934	0.2043	0.665
Mof_H 	H 	0.0512	0.8842	0.2231	0.652
Mof_H 	H 	0.0205	0.9552	0.2191	0.646
Mof_H 	H 	0.1008	0.8605	0.1428	0.84
Mof_H 	H 	0.102	0.8292	0.1776	0.806
Mof_H 	H 	0.035	0.8347	0.1586	0.821
Mof_H 	H 	0.9282	0.4145	0.473	0.107
Mof_H 	H 	0.1676	0.2425	0.397	0.083
Mof_H 	H 	0.444	0.3036	0.2766	0.026
Mof_H 	H 	0.6659	0.2457	0.3887	0.072
Mof_H 	H 	0.8095	0.3687	0.5055	0.07
Mof_H 	H 	0.857	0.4571	0.5293	0.053
Mof_H 	H 	0.6871	0.4985	0.5746	0.065
Mof_H 	H 	0.6407	0.4047	0.5538	0.014
Mof_H 	H 	0.9235	0.501	0.5573	0.648
Mof_H 	H 	0.964	0.5671	0.5606	0.669
Mof_H 	H 	0.9246	0.5394	0.5904	0.647
Mof_H 	H 	0.8619	0.6527	0.5948	0.593
Mof_H 	H 	0.8971	0.6811	0.5639	0.582
Mof_H 	H 	0.8196	0.6755	0.5649	0.571
Mof_H 	H 	0.8647	0.5504	0.5088	0.575
Mof_H 	H 	0.8213	0.6141	0.5135	0.561
Mof_H 	H 	0.8988	0.6198	0.5125	0.618
Mof_H 	H 	0.5747	0.2571	0.5423	0.014
Mof_H 	H 	0.563	0.1929	0.5869	0.057
Mof_H 	H 	0.7561	0.2086	0.6047	0.132
Mof_H 	H 	0.767	0.2701	0.5584	0.088
Mof_H 	H 	0.5474	0.0969	0.6065	0.673
Mof_H 	H 	0.5894	0.0439	0.6252	0.662
Mof_H 	H 	0.5195	0.0647	0.6383	0.661
Mof_H 	H 	0.63	0.1431	0.6946	0.652
Mof_H 	H 	0.5705	0.0933	0.6927	0.652
Mof_H 	H 	0.6404	0.0724	0.6796	0.624
Mof_H 	H 	0.5339	0.214	0.631	0.727
Mof_H 	H 	0.5059	0.1839	0.6633	0.78
Mof_H 	H 	0.568	0.2305	0.6642	0.78
Mof_H 	H 	0.7462	0.1898	0.5145	0.069
Mof_H 	H 	0.8096	0.1357	0.4764	0.054
Mof_H 	H 	0.7963	0.2925	0.4176	0.112
Mof_H 	H 	0.7314	0.3431	0.4539	0.06
Mof_H 	H 	0.9103	0.0419	0.3823	0.579
Mof_H 	H 	0.8617	0.0956	0.3685	0.561
Mof_H 	H 	0.933	0.1161	0.3799	0.569
Mof_H 	H 	0.9021	0.0971	0.4663	0.742
Mof_H 	H 	0.9356	0.0431	0.4444	0.739
Mof_H 	H 	0.9581	0.1173	0.4419	0.746
Mof_H 	H 	0.7882	0.0657	0.4457	0.657
Mof_H 	H 	0.7727	0.0706	0.4085	0.648
Mof_H 	H 	0.816	0.0121	0.4218	0.667
Mof_H 	H 	0.5908	0.2339	0.4887	0.084
Mof_H 	H 	0.4968	0.2559	0.4591	0.067
Mof_H 	H 	0.5483	0.4489	0.4571	0.002
Mof_H 	H 	0.6366	0.4267	0.4899	0.037
Mof_H 	H 	0.4705	0.4459	0.3837	0.811
Mof_H 	H 	0.4464	0.5138	0.398	0.8
Mof_H 	H 	0.509	0.4786	0.4126	0.758
Mof_H 	H 	0.3934	0.5158	0.4543	0.682
Mof_H 	H 	0.3842	0.4488	0.4731	0.665
Mof_H 	H 	0.4552	0.4795	0.4691	0.658
Mof_H 	H 	0.3605	0.3992	0.3928	0.851
Mof_H 	H 	0.3292	0.398	0.4276	0.816
Mof_H 	H 	0.3347	0.465	0.4086	0.83
Mof_H 	H 	0.9145	0.5718	0.723	0.107
Mof_H 	H 	0.7425	0.3324	0.647	0.083
Mof_H 	H 	0.8036	0.056	0.5266	0.026
Mof_H 	H 	0.7457	0.8341	0.6387	0.072
Mof_H 	H 	0.1905	0.6313	0.0055	0.07
Mof_H 	H 	0.143	0.5429	0.0293	0.053
Mof_H 	H 	0.3129	0.5015	0.0746	0.065
Mof_H 	H 	0.3593	0.5953	0.0538	0.014
Mof_H 	H 	0.0765	0.499	0.0573	0.649
Mof_H 	H 	0.036	0.4329	0.0606	0.669
Mof_H 	H 	0.0754	0.4606	0.0904	0.647
Mof_H 	H 	0.1381	0.3473	0.0948	0.593
Mof_H 	H 	0.1029	0.3189	0.0639	0.583
Mof_H 	H 	0.1804	0.3245	0.0649	0.571
Mof_H 	H 	0.1353	0.4496	0.0088	0.575
Mof_H 	H 	0.1787	0.3859	0.0135	0.561
Mof_H 	H 	0.1012	0.3802	0.0125	0.618
Mof_H 	H 	0.4253	0.7429	0.0423	0.014
Mof_H 	H 	0.437	0.8071	0.0869	0.057
Mof_H 	H 	0.2439	0.7914	0.1047	0.132
Mof_H 	H 	0.233	0.7299	0.0584	0.088
Mof_H 	H 	0.4526	0.9031	0.1065	0.673
Mof_H 	H 	0.4106	0.9561	0.1252	0.662
Mof_H 	H 	0.4805	0.9353	0.1383	0.661
Mof_H 	H 	0.37	0.8569	0.1946	0.652
Mof_H 	H 	0.4295	0.9067	0.1927	0.652
Mof_H 	H 	0.3596	0.9276	0.1796	0.624
Mof_H 	H 	0.4661	0.786	0.131	0.727
Mof_H 	H 	0.4941	0.8161	0.1633	0.78
Mof_H 	H 	0.432	0.7695	0.1642	0.78
Mof_H 	H 	0.2538	0.8102	0.0145	0.07
Mof_H 	H 	0.1904	0.8643	0.9764	0.054
Mof_H 	H 	0.2037	0.7075	0.9176	0.112
Mof_H 	H 	0.2686	0.6569	0.9539	0.06
Mof_H 	H 	0.0897	0.9581	0.8823	0.579
Mof_H 	H 	0.1383	0.9044	0.8685	0.56
Mof_H 	H 	0.067	0.8839	0.8799	0.569
Mof_H 	H 	0.0979	0.9029	0.9663	0.742
Mof_H 	H 	0.0644	0.9569	0.9444	0.738
Mof_H 	H 	0.0419	0.8827	0.9419	0.746
Mof_H 	H 	0.2118	0.9343	0.9457	0.656
Mof_H 	H 	0.2273	0.9294	0.9085	0.648
Mof_H 	H 	0.184	0.9879	0.9218	0.666
Mof_H 	H 	0.4092	0.7661	0.9887	0.083
Mof_H 	H 	0.5032	0.7441	0.9591	0.067
Mof_H 	H 	0.4517	0.5511	0.9571	0.003
Mof_H 	H 	0.3634	0.5733	0.9899	0.037
Mof_H 	H 	0.5295	0.5541	0.8837	0.811
Mof_H 	H 	0.5536	0.4862	0.898	0.8
Mof_H 	H 	0.491	0.5214	0.9126	0.758
Mof_H 	H 	0.6066	0.4842	0.9543	0.682
Mof_H 	H 	0.6158	0.5512	0.9731	0.665
Mof_H 	H 	0.5448	0.5205	0.9691	0.658
Mof_H 	H 	0.6395	0.6008	0.8928	0.851
Mof_H 	H 	0.6708	0.602	0.9276	0.816
Mof_H 	H 	0.6653	0.535	0.9086	0.83
Mof_H 	H 	0.0855	0.4282	0.223	0.107
Mof_H 	H 	0.2575	0.6676	0.147	0.083
Mof_H 	H 	0.1964	0.944	0.0266	0.026
Mof_H 	H 	0.2543	0.1659	0.1387	0.072
Mof_C 	C 	0.81086	0.81381	0.76367	-0.02
Mof_C 	C 	0.87464	0.78071	0.77654	0.001
Mof_C 	C 	0.89405	0.71534	0.76992	-0.002
Mof_C 	C 	0.94735	0.68723	0.78339	-0.11
Mof_C 	C 	0.98813	0.72429	0.80355	0.122
Mof_C 	C 	0.97156	0.78823	0.81088	-0.112
Mof_C 	C 	0.91585	0.81612	0.79818	-0.008
Mof_C 	C 	0.08284	0.63512	0.80693	1.22
Mof_C 	C 	0.0441	0.57539	0.81723	-1.995
Mof_C 	C 	0.15514	0.63958	0.8216	-1.737
Mof_C 	C 	0.09274	0.6379	0.7693	-1.776
Mof_C 	C 	0.76933	0.82802	0.79412	-0.003
Mof_C 	C 	0.74661	0.88783	0.80438	0.028
Mof_C 	C 	0.7092	0.89525	0.83159	-0.145
Mof_C 	C 	0.69513	0.84233	0.85134	0.176
Mof_C 	C 	0.71793	0.78099	0.8421	-0.113
Mof_C 	C 	0.75456	0.77476	0.81414	0.004
Mof_C 	C 	0.63597	0.9086	0.89789	1.333
Mof_C 	C 	0.58002	0.94121	0.87752	-1.978
Mof_C 	C 	0.60859	0.89017	0.93195	-1.919
Mof_C 	C 	0.6969	0.95457	0.90197	-2.133
Mof_C 	C 	0.77303	0.76943	0.73926	0.02
Mof_C 	C 	0.71062	0.74466	0.74491	0.02
Mof_C 	C 	0.678	0.70621	0.72193	-0.08
Mof_C 	C 	0.70725	0.69112	0.69263	0.153
Mof_C 	C 	0.77094	0.7145	0.68684	-0.1
Mof_C 	C 	0.8011	0.75234	0.7088	0.004
Mof_C 	C 	0.60047	0.63104	0.66923	1.279
Mof_C 	C 	0.58723	0.60386	0.63406	-1.757
Mof_C 	C 	0.58836	0.579	0.69541	-2.131
Mof_C 	C 	0.55817	0.69459	0.67426	-1.943
Mof_C 	C 	0.82806	0.87664	0.74344	0.013
Mof_C 	C 	0.7775	0.91892	0.73309	-0.048
Mof_C 	C 	0.79032	0.97477	0.71481	-0.086
Mof_C 	C 	0.85592	0.98869	0.70475	0.092
Mof_C 	C 	0.90562	0.94455	0.71412	-0.109
Mof_C 	C 	0.89217	0.89089	0.73341	-0.046
Mof_C 	C 	0.9349	0.07788	0.67713	1.655
Mof_C 	C 	0.97169	0.03392	0.65313	-2.37
Mof_C 	C 	0.97336	0.08712	0.70889	-2.166
Mof_C 	C 	0.92324	0.14422	0.66277	-2.514
Mof_C 	C 	0.0279	0.6909	0.99777	1.06
Mof_C 	C 	0.04582	0.67905	0.96268	-0.027
Mof_C 	C 	0.07079	0.61683	0.95645	-0.132
Mof_C 	C 	0.09396	0.60055	0.92653	0.202
Mof_C 	C 	0.85101	0.63559	0.87668	0.939
Mof_C 	C 	0.89767	0.68965	0.88354	-0.081
Mof_C 	C 	0.87733	0.75141	0.89288	0.066
Mof_C 	C 	0.91673	0.80294	0.89647	-0.059
Mof_C 	C 	0.88307	0.86886	0.9043	0.997
Mof_C 	C 	0.6076	0.59181	0.8079	1.181
Mof_C 	C 	0.58627	0.66027	0.81985	-0.143
Mof_C 	C 	0.55992	0.70673	0.79847	0.157
Mof_C 	C 	0.54008	0.76646	0.80933	-0.21
Mof_C 	C 	0.5203	0.8102	0.78524	1.004
Mof_C 	C 	0.3547	0.64539	0.87016	0.965
Mof_C 	C 	0.40362	0.69292	0.87905	-0.112
Mof_C 	C 	0.37982	0.74845	0.88903	0.001
Mof_C 	C 	0.41896	0.7998	0.90018	0.04
Mof_C 	C 	0.3751	0.86449	0.90749	0.695
Mof_C 	C 	0.18914	0.18619	0.26367	-0.02
Mof_C 	C 	0.12536	0.21929	0.27654	0.001
Mof_C 	C 	0.10595	0.28466	0.26992	-0.002
Mof_C 	C 	0.05265	0.31277	0.28339	-0.11
Mof_C 	C 	0.01187	0.27571	0.30355	0.122
Mof_C 	C 	0.02844	0.21177	0.31088	-0.112
Mof_C 	C 	0.08415	0.18388	0.29818	-0.009
Mof_C 	C 	0.91716	0.36488	0.30693	1.22
Mof_C 	C 	0.9559	0.42461	0.31723	-1.996
Mof_C 	C 	0.84486	0.36042	0.3216	-1.737
Mof_C 	C 	0.90726	0.3621	0.2693	-1.776
Mof_C 	C 	0.23067	0.17198	0.29412	-0.003
Mof_C 	C 	0.25339	0.11217	0.30438	0.028
Mof_C 	C 	0.2908	0.10475	0.33159	-0.145
Mof_C 	C 	0.30487	0.15767	0.35134	0.176
Mof_C 	C 	0.28207	0.21901	0.3421	-0.113
Mof_C 	C 	0.24544	0.22524	0.31414	0.004
Mof_C 	C 	0.36403	0.0914	0.39789	1.333
Mof_C 	C 	0.41998	0.05879	0.37752	-1.978
Mof_C 	C 	0.39141	0.10983	0.43195	-1.92
Mof_C 	C 	0.3031	0.04543	0.40197	-2.134
Mof_C 	C 	0.22697	0.23057	0.23926	0.02
Mof_C 	C 	0.28938	0.25534	0.24491	0.02
Mof_C 	C 	0.322	0.29379	0.22193	-0.08
Mof_C 	C 	0.29275	0.30888	0.19263	0.153
Mof_C 	C 	0.22906	0.2855	0.18684	-0.1
Mof_C 	C 	0.1989	0.24766	0.2088	0.004
Mof_C 	C 	0.39953	0.36896	0.16923	1.279
Mof_C 	C 	0.41277	0.39614	0.13406	-1.757
Mof_C 	C 	0.41164	0.421	0.19541	-2.131
Mof_C 	C 	0.44183	0.30541	0.17426	-1.943
Mof_C 	C 	0.17194	0.12336	0.24344	0.013
Mof_C 	C 	0.2225	0.08108	0.23309	-0.048
Mof_C 	C 	0.20968	0.02523	0.21481	-0.086
Mof_C 	C 	0.14408	0.01131	0.20475	0.092
Mof_C 	C 	0.09438	0.05545	0.21412	-0.109
Mof_C 	C 	0.10783	0.10911	0.23341	-0.046
Mof_C 	C 	0.0651	0.92212	0.17713	1.653
Mof_C 	C 	0.02831	0.96608	0.15313	-2.368
Mof_C 	C 	0.02664	0.91288	0.20889	-2.164
Mof_C 	C 	0.07676	0.85578	0.16277	-2.513
Mof_C 	C 	0.9721	0.3091	0.49777	1.062
Mof_C 	C 	0.95418	0.32095	0.46268	-0.027
Mof_C 	C 	0.92921	0.38317	0.45645	-0.132
Mof_C 	C 	0.90604	0.39945	0.42653	0.202
Mof_C 	C 	0.14899	0.36441	0.37668	0.939
Mof_C 	C 	0.10233	0.31035	0.38354	-0.081
Mof_C 	C 	0.12267	0.24859	0.39288	0.066
Mof_C 	C 	0.08327	0.19706	0.39647	-0.059
Mof_C 	C 	0.11693	0.13114	0.4043	0.997
Mof_C 	C 	0.3924	0.40819	0.3079	1.181
Mof_C 	C 	0.41373	0.33973	0.31985	-0.143
Mof_C 	C 	0.44008	0.29327	0.29847	0.157
Mof_C 	C 	0.45992	0.23354	0.30933	-0.21
Mof_C 	C 	0.4797	0.1898	0.28524	1.004
Mof_C 	C 	0.6453	0.35461	0.37016	0.965
Mof_C 	C 	0.59638	0.30708	0.37905	-0.112
Mof_C 	C 	0.62018	0.25155	0.38903	0.001
Mof_C 	C 	0.58104	0.2002	0.40018	0.04
Mof_C 	C 	0.6249	0.13551	0.40749	0.695
Mof_C 	C 	0.68619	0.31086	0.51367	-0.021
Mof_C 	C 	0.71929	0.37464	0.52654	0
Mof_C 	C 	0.78466	0.39405	0.51992	-0.002
Mof_C 	C 	0.81277	0.44735	0.53339	-0.11
Mof_C 	C 	0.77571	0.48813	0.55355	0.122
Mof_C 	C 	0.71177	0.47156	0.56088	-0.112
Mof_C 	C 	0.68388	0.41585	0.54818	-0.008
Mof_C 	C 	0.86488	0.58284	0.55693	1.221
Mof_C 	C 	0.92461	0.5441	0.56723	-1.997
Mof_C 	C 	0.86042	0.65514	0.5716	-1.737
Mof_C 	C 	0.8621	0.59274	0.5193	-1.776
Mof_C 	C 	0.67198	0.26933	0.54412	-0.003
Mof_C 	C 	0.61217	0.24661	0.55438	0.028
Mof_C 	C 	0.60475	0.2092	0.58159	-0.145
Mof_C 	C 	0.65767	0.19513	0.60134	0.176
Mof_C 	C 	0.71901	0.21793	0.5921	-0.114
Mof_C 	C 	0.72524	0.25456	0.56414	0.004
Mof_C 	C 	0.5914	0.13597	0.64789	1.336
Mof_C 	C 	0.55879	0.08002	0.62752	-1.982
Mof_C 	C 	0.60983	0.10859	0.68195	-1.924
Mof_C 	C 	0.54543	0.1969	0.65197	-2.138
Mof_C 	C 	0.73057	0.27303	0.48926	0.02
Mof_C 	C 	0.75534	0.21062	0.49491	0.02
Mof_C 	C 	0.79379	0.178	0.47193	-0.08
Mof_C 	C 	0.80888	0.20725	0.44263	0.153
Mof_C 	C 	0.7855	0.27094	0.43684	-0.1
Mof_C 	C 	0.74766	0.3011	0.4588	0.004
Mof_C 	C 	0.86896	0.10047	0.41923	1.282
Mof_C 	C 	0.89614	0.08723	0.38406	-1.762
Mof_C 	C 	0.921	0.08836	0.44541	-2.136
Mof_C 	C 	0.80541	0.05817	0.42426	-1.947
Mof_C 	C 	0.62336	0.32806	0.49344	0.014
Mof_C 	C 	0.58108	0.2775	0.48309	-0.051
Mof_C 	C 	0.52523	0.29032	0.46481	-0.08
Mof_C 	C 	0.51131	0.35592	0.45475	0.093
Mof_C 	C 	0.55545	0.40562	0.46412	-0.109
Mof_C 	C 	0.60911	0.39217	0.48341	-0.047
Mof_C 	C 	0.42212	0.4349	0.42713	1.687
Mof_C 	C 	0.46608	0.47169	0.40313	-2.436
Mof_C 	C 	0.41288	0.47336	0.45889	-2.212
Mof_C 	C 	0.35578	0.42324	0.41277	-2.551
Mof_C 	C 	0.8091	0.5279	0.74777	1.06
Mof_C 	C 	0.82095	0.54582	0.71268	-0.027
Mof_C 	C 	0.88317	0.57079	0.70645	-0.132
Mof_C 	C 	0.89945	0.59396	0.67653	0.203
Mof_C 	C 	0.86441	0.35101	0.62668	0.938
Mof_C 	C 	0.81035	0.39767	0.63354	-0.081
Mof_C 	C 	0.74859	0.37733	0.64288	0.066
Mof_C 	C 	0.69706	0.41673	0.64647	-0.059
Mof_C 	C 	0.63114	0.38307	0.6543	0.997
Mof_C 	C 	0.90819	0.1076	0.5579	1.18
Mof_C 	C 	0.83973	0.08627	0.56985	-0.143
Mof_C 	C 	0.79327	0.05992	0.54847	0.158
Mof_C 	C 	0.73354	0.04008	0.55933	-0.21
Mof_C 	C 	0.6898	0.0203	0.53524	1.005
Mof_C 	C 	0.85461	0.8547	0.62016	0.965
Mof_C 	C 	0.80708	0.90362	0.62905	-0.111
Mof_C 	C 	0.75155	0.87982	0.63903	-0
Mof_C 	C 	0.7002	0.91896	0.65018	0.04
Mof_C 	C 	0.63551	0.8751	0.65749	0.695
Mof_C 	C 	0.31381	0.68914	0.01367	-0.02
Mof_C 	C 	0.28071	0.62536	0.02654	0
Mof_C 	C 	0.21534	0.60595	0.01992	-0.002
Mof_C 	C 	0.18723	0.55265	0.03339	-0.11
Mof_C 	C 	0.22429	0.51187	0.05355	0.122
Mof_C 	C 	0.28823	0.52844	0.06088	-0.112
Mof_C 	C 	0.31612	0.58415	0.04818	-0.008
Mof_C 	C 	0.13512	0.41716	0.05693	1.221
Mof_C 	C 	0.07539	0.4559	0.06723	-1.997
Mof_C 	C 	0.13958	0.34486	0.0716	-1.737
Mof_C 	C 	0.1379	0.40726	0.0193	-1.777
Mof_C 	C 	0.32802	0.73067	0.04412	-0.003
Mof_C 	C 	0.38783	0.75339	0.05438	0.028
Mof_C 	C 	0.39525	0.7908	0.08159	-0.145
Mof_C 	C 	0.34233	0.80487	0.10134	0.176
Mof_C 	C 	0.28099	0.78207	0.0921	-0.114
Mof_C 	C 	0.27476	0.74544	0.06414	0.004
Mof_C 	C 	0.4086	0.86403	0.14789	1.336
Mof_C 	C 	0.44121	0.91998	0.12752	-1.983
Mof_C 	C 	0.39017	0.89141	0.18195	-1.924
Mof_C 	C 	0.45457	0.8031	0.15197	-2.138
Mof_C 	C 	0.26943	0.72697	0.98926	0.02
Mof_C 	C 	0.24466	0.78938	0.99491	0.018
Mof_C 	C 	0.20621	0.822	0.97193	-0.079
Mof_C 	C 	0.19112	0.79275	0.94263	0.153
Mof_C 	C 	0.2145	0.72906	0.93684	-0.1
Mof_C 	C 	0.25234	0.6989	0.9588	0.004
Mof_C 	C 	0.13104	0.89953	0.91923	1.281
Mof_C 	C 	0.10386	0.91277	0.88406	-1.761
Mof_C 	C 	0.079	0.91164	0.94541	-2.135
Mof_C 	C 	0.19459	0.94183	0.92426	-1.945
Mof_C 	C 	0.37664	0.67194	0.99344	0.014
Mof_C 	C 	0.41892	0.7225	0.98309	-0.051
Mof_C 	C 	0.47477	0.70968	0.96481	-0.08
Mof_C 	C 	0.48869	0.64408	0.95475	0.093
Mof_C 	C 	0.44455	0.59438	0.96412	-0.109
Mof_C 	C 	0.39089	0.60783	0.98341	-0.047
Mof_C 	C 	0.57788	0.5651	0.92713	1.687
Mof_C 	C 	0.53392	0.52831	0.90313	-2.436
Mof_C 	C 	0.58712	0.52664	0.95889	-2.212
Mof_C 	C 	0.64422	0.57676	0.91277	-2.551
Mof_C 	C 	0.1909	0.4721	0.24777	1.06
Mof_C 	C 	0.17905	0.45418	0.21268	-0.027
Mof_C 	C 	0.11683	0.42921	0.20645	-0.132
Mof_C 	C 	0.10055	0.40604	0.17653	0.203
Mof_C 	C 	0.13559	0.64899	0.12668	0.938
Mof_C 	C 	0.18965	0.60233	0.13354	-0.081
Mof_C 	C 	0.25141	0.62267	0.14288	0.066
Mof_C 	C 	0.30294	0.58327	0.14647	-0.059
Mof_C 	C 	0.36886	0.61693	0.1543	0.997
Mof_C 	C 	0.09181	0.8924	0.0579	1.18
Mof_C 	C 	0.16027	0.91373	0.06985	-0.143
Mof_C 	C 	0.20673	0.94008	0.04847	0.158
Mof_C 	C 	0.26646	0.95992	0.05933	-0.21
Mof_C 	C 	0.3102	0.9797	0.03524	1.005
Mof_C 	C 	0.14539	0.1453	0.12016	0.965
Mof_C 	C 	0.19292	0.09638	0.12905	-0.111
Mof_C 	C 	0.24845	0.12018	0.13903	-0
Mof_C 	C 	0.2998	0.08104	0.15018	0.04
Mof_C 	C 	0.36449	0.1249	0.15749	0.695
Mof_N 	N 	0.04728	0.69672	0.81834	-0.22
Mof_N 	N 	0.65614	0.8457	0.87948	-0.225
Mof_N 	N 	0.67503	0.65216	0.66891	-0.206
Mof_N 	N 	0.86766	0.04683	0.68528	-0.266
Mof_N 	N 	0.95272	0.30328	0.31834	-0.22
Mof_N 	N 	0.34386	0.1543	0.37948	-0.225
Mof_N 	N 	0.32497	0.34784	0.16891	-0.206
Mof_N 	N 	0.13234	0.95317	0.18528	-0.266
Mof_N 	N 	0.80328	0.54728	0.56834	-0.221
Mof_N 	N 	0.6543	0.15614	0.62948	-0.225
Mof_N 	N 	0.84784	0.17503	0.41891	-0.206
Mof_N 	N 	0.45317	0.36766	0.43528	-0.272
Mof_N 	N 	0.19672	0.45272	0.06834	-0.221
Mof_N 	N 	0.3457	0.84386	0.12948	-0.225
Mof_N 	N 	0.15216	0.82497	0.91891	-0.206
Mof_N 	N 	0.54683	0.63234	0.93528	-0.272
Mof_O 	O 	0.07237	0.7307	0.8422	-0.243
Mof_O 	O 	0.63625	0.7904	0.89177	-0.226
Mof_O 	O 	0.71185	0.63109	0.64544	-0.238
Mof_O 	O 	0.81576	0.07408	0.6729	-0.24
Mof_O 	O 	0.03585	0.72673	0.9431	-0.201
Mof_O 	O 	0.09546	0.63513	0.90102	-0.34
Mof_O 	O 	0.95827	0.67236	0.88022	-0.203
Mof_O 	O 	0.97682	0.80694	0.89369	-0.251
Mof_O 	O 	0.59474	0.66543	0.8494	-0.23
Mof_O 	O 	0.53958	0.79011	0.83662	-0.168
Mof_O 	O 	0.46353	0.67661	0.87442	-0.197
Mof_O 	O 	0.48123	0.80403	0.90016	-0.29
Mof_O 	O 	0.92763	0.2693	0.3422	-0.243
Mof_O 	O 	0.36375	0.2096	0.39177	-0.226
Mof_O 	O 	0.28815	0.36891	0.14544	-0.238
Mof_O 	O 	0.18424	0.92592	0.1729	-0.24
Mof_O 	O 	0.96415	0.27327	0.4431	-0.201
Mof_O 	O 	0.90454	0.36487	0.40102	-0.34
Mof_O 	O 	0.04173	0.32764	0.38022	-0.203
Mof_O 	O 	0.02318	0.19306	0.39369	-0.251
Mof_O 	O 	0.40526	0.33457	0.3494	-0.23
Mof_O 	O 	0.46042	0.20989	0.33662	-0.168
Mof_O 	O 	0.53647	0.32339	0.37442	-0.197
Mof_O 	O 	0.51877	0.19597	0.40016	-0.29
Mof_O 	O 	0.7693	0.57237	0.5922	-0.244
Mof_O 	O 	0.7096	0.13625	0.64177	-0.226
Mof_O 	O 	0.86891	0.21185	0.39544	-0.237
Mof_O 	O 	0.42592	0.31576	0.4229	-0.24
Mof_O 	O 	0.77327	0.53585	0.6931	-0.201
Mof_O 	O 	0.86487	0.59546	0.65102	-0.34
Mof_O 	O 	0.82764	0.45827	0.63022	-0.203
Mof_O 	O 	0.69306	0.47682	0.64369	-0.251
Mof_O 	O 	0.83457	0.09474	0.5994	-0.229
Mof_O 	O 	0.70989	0.03958	0.58662	-0.168
Mof_O 	O 	0.82339	0.96353	0.62442	-0.198
Mof_O 	O 	0.69597	0.98123	0.65016	-0.292
Mof_O 	O 	0.2307	0.42763	0.0922	-0.244
Mof_O 	O 	0.2904	0.86375	0.14177	-0.226
Mof_O 	O 	0.13109	0.78815	0.89544	-0.237
Mof_O 	O 	0.57408	0.68424	0.9229	-0.24
Mof_O 	O 	0.22673	0.46415	0.1931	-0.201
Mof_O 	O 	0.13513	0.40454	0.15102	-0.34
Mof_O 	O 	0.17236	0.54173	0.13022	-0.203
Mof_O 	O 	0.30694	0.52318	0.14369	-0.251
Mof_O 	O 	0.16543	0.90526	0.0994	-0.229
Mof_O 	O 	0.29011	0.96042	0.08662	-0.168
Mof_O 	O 	0.17661	0.03647	0.12442	-0.198
Mof_O 	O 	0.30403	0.01877	0.15016	-0.292
Mof_F 	F 	0.0741	0.72753	0.01093	-0.481
Mof_F 	F 	0.97701	0.7196	0.00206	-0.564
Mof_F 	F 	0.02974	0.64192	0.01694	-0.582
Mof_F 	F 	0.85864	0.61352	0.84588	-0.515
Mof_F 	F 	0.78961	0.64956	0.88163	-0.541
Mof_F 	F 	0.85769	0.58401	0.89457	-0.557
Mof_F 	F 	0.85827	0.89868	0.87775	-0.549
Mof_F 	F 	0.91909	0.9115	0.9147	-0.556
Mof_F 	F 	0.82923	0.86142	0.92099	-0.532
Mof_F 	F 	0.5753	0.5476	0.81768	-0.588
Mof_F 	F 	0.66134	0.56918	0.82081	-0.498
Mof_F 	F 	0.6087	0.58542	0.77861	-0.599
Mof_F 	F 	0.5619	0.8575	0.77825	-0.49
Mof_F 	F 	0.51211	0.79234	0.75436	-0.533
Mof_F 	F 	0.47562	0.85147	0.78914	-0.557
Mof_F 	F 	0.35406	0.59335	0.89138	-0.518
Mof_F 	F 	0.36473	0.61303	0.8442	-0.555
Mof_F 	F 	0.29327	0.65723	0.86948	-0.564
Mof_F 	F 	0.40175	0.91558	0.90149	-0.602
Mof_F 	F 	0.33666	0.85492	0.93117	-0.553
Mof_F 	F 	0.9259	0.27247	0.51093	-0.481
Mof_F 	F 	0.02299	0.2804	0.50206	-0.564
Mof_F 	F 	0.97026	0.35808	0.51694	-0.583
Mof_F 	F 	0.14136	0.38648	0.34588	-0.515
Mof_F 	F 	0.21039	0.35044	0.38163	-0.541
Mof_F 	F 	0.14231	0.41599	0.39457	-0.557
Mof_F 	F 	0.14173	0.10132	0.37775	-0.549
Mof_F 	F 	0.08091	0.0885	0.4147	-0.556
Mof_F 	F 	0.17077	0.13858	0.42099	-0.532
Mof_F 	F 	0.4247	0.4524	0.31768	-0.588
Mof_F 	F 	0.33866	0.43082	0.32081	-0.498
Mof_F 	F 	0.3913	0.41458	0.27861	-0.599
Mof_F 	F 	0.4381	0.1425	0.27825	-0.49
Mof_F 	F 	0.48789	0.20766	0.25436	-0.533
Mof_F 	F 	0.52438	0.14853	0.28914	-0.557
Mof_F 	F 	0.64594	0.40665	0.39138	-0.518
Mof_F 	F 	0.63527	0.38697	0.3442	-0.555
Mof_F 	F 	0.70673	0.34277	0.36948	-0.564
Mof_F 	F 	0.59825	0.08442	0.40149	-0.602
Mof_F 	F 	0.66334	0.14508	0.43117	-0.553
Mof_F 	F 	0.77247	0.5741	0.76093	-0.481
Mof_F 	F 	0.7804	0.47701	0.75206	-0.562
Mof_F 	F 	0.85808	0.52974	0.76694	-0.583
Mof_F 	F 	0.88648	0.35864	0.59588	-0.514
Mof_F 	F 	0.85044	0.28961	0.63163	-0.54
Mof_F 	F 	0.91599	0.35769	0.64457	-0.556
Mof_F 	F 	0.60132	0.35827	0.62775	-0.549
Mof_F 	F 	0.5885	0.41909	0.6647	-0.555
Mof_F 	F 	0.63858	0.32923	0.67099	-0.531
Mof_F 	F 	0.9524	0.0753	0.56768	-0.586
Mof_F 	F 	0.93082	0.16134	0.57081	-0.497
Mof_F 	F 	0.91458	0.1087	0.52861	-0.599
Mof_F 	F 	0.6425	0.0619	0.52825	-0.49
Mof_F 	F 	0.70766	0.01211	0.50436	-0.533
Mof_F 	F 	0.64853	0.97562	0.53914	-0.557
Mof_F 	F 	0.90665	0.85406	0.64138	-0.518
Mof_F 	F 	0.88697	0.86473	0.5942	-0.556
Mof_F 	F 	0.84277	0.79327	0.61948	-0.564
Mof_F 	F 	0.58442	0.90175	0.65149	-0.602
Mof_F 	F 	0.64508	0.83666	0.68117	-0.553
Mof_F 	F 	0.22753	0.4259	0.26093	-0.481
Mof_F 	F 	0.2196	0.52299	0.25206	-0.562
Mof_F 	F 	0.14192	0.47026	0.26694	-0.583
Mof_F 	F 	0.11352	0.64136	0.09588	-0.514
Mof_F 	F 	0.14956	0.71039	0.13163	-0.54
Mof_F 	F 	0.08401	0.64231	0.14457	-0.556
Mof_F 	F 	0.39868	0.64173	0.12775	-0.549
Mof_F 	F 	0.4115	0.58091	0.1647	-0.555
Mof_F 	F 	0.36142	0.67077	0.17099	-0.531
Mof_F 	F 	0.0476	0.9247	0.06768	-0.586
Mof_F 	F 	0.06918	0.83866	0.07081	-0.496
Mof_F 	F 	0.08542	0.8913	0.02861	-0.599
Mof_F 	F 	0.3575	0.9381	0.02825	-0.49
Mof_F 	F 	0.29234	0.98789	0.00436	-0.532
Mof_F 	F 	0.35147	0.02438	0.03914	-0.558
Mof_F 	F 	0.09335	0.14594	0.14138	-0.518
Mof_F 	F 	0.11303	0.13527	0.0942	-0.556
Mof_F 	F 	0.15723	0.20673	0.11948	-0.564
Mof_F 	F 	0.41558	0.09825	0.15149	-0.603
Mof_F 	F 	0.35492	0.16334	0.18117	-0.553
Mof_Mn	Mn	0.45273	0.22723	0.85827	0.929
Mof_Mn	Mn	0.9492	0.236	0.86973	0.916
Mof_Mn	Mn	0.54727	0.77277	0.35827	0.929
Mof_Mn	Mn	0.0508	0.764	0.36973	0.916
Mof_Mn	Mn	0.72723	0.04727	0.10827	0.93
Mof_Mn	Mn	0.736	0.5508	0.11973	0.913
Mof_Mn	Mn	0.27277	0.95273	0.60827	0.93
Mof_Mn	Mn	0.264	0.4492	0.61973	0.913
Mof_H 	H 	0.6313	0.1905	0.9945	0.07
Mof_H 	H 	0.5429	0.143	0.9707	0.053
Mof_H 	H 	0.5015	0.3129	0.9254	0.065
Mof_H 	H 	0.5953	0.3593	0.9462	0.014
Mof_H 	H 	0.499	0.0765	0.9427	0.649
Mof_H 	H 	0.4329	0.036	0.9394	0.669
Mof_H 	H 	0.4606	0.0754	0.9096	0.647
Mof_H 	H 	0.3473	0.1381	0.9052	0.593
Mof_H 	H 	0.3189	0.1029	0.9361	0.583
Mof_H 	H 	0.3245	0.1804	0.9351	0.571
Mof_H 	H 	0.4496	0.1353	0.9912	0.575
Mof_H 	H 	0.3859	0.1787	0.9865	0.561
Mof_H 	H 	0.3802	0.1012	0.9875	0.618
Mof_H 	H 	0.7429	0.4253	0.9577	0.014
Mof_H 	H 	0.8071	0.437	0.9131	0.057
Mof_H 	H 	0.7914	0.2439	0.8953	0.132
Mof_H 	H 	0.7299	0.233	0.9416	0.088
Mof_H 	H 	0.9031	0.4526	0.8935	0.673
Mof_H 	H 	0.9561	0.4106	0.8748	0.662
Mof_H 	H 	0.9353	0.4805	0.8617	0.661
Mof_H 	H 	0.8569	0.37	0.8054	0.652
Mof_H 	H 	0.9067	0.4295	0.8073	0.652
Mof_H 	H 	0.9276	0.3596	0.8204	0.624
Mof_H 	H 	0.786	0.4661	0.869	0.727
Mof_H 	H 	0.8161	0.4941	0.8367	0.78
Mof_H 	H 	0.7695	0.432	0.8358	0.78
Mof_H 	H 	0.8102	0.2538	0.9855	0.07
Mof_H 	H 	0.8643	0.1904	0.0236	0.054
Mof_H 	H 	0.7075	0.2037	0.0824	0.112
Mof_H 	H 	0.6569	0.2686	0.0461	0.06
Mof_H 	H 	0.9581	0.0897	0.1177	0.579
Mof_H 	H 	0.9044	0.1383	0.1315	0.56
Mof_H 	H 	0.8839	0.067	0.1201	0.569
Mof_H 	H 	0.9029	0.0979	0.0337	0.742
Mof_H 	H 	0.9569	0.0644	0.0556	0.738
Mof_H 	H 	0.8827	0.0419	0.0581	0.746
Mof_H 	H 	0.9343	0.2118	0.0543	0.656
Mof_H 	H 	0.9294	0.2273	0.0915	0.648
Mof_H 	H 	0.9879	0.184	0.0782	0.666
Mof_H 	H 	0.7661	0.4092	0.0113	0.083
Mof_H 	H 	0.7441	0.5032	0.0409	0.067
Mof_H 	H 	0.5511	0.4517	0.0429	0.003
Mof_H 	H 	0.5733	0.3634	0.0101	0.037
Mof_H 	H 	0.5541	0.5295	0.1163	0.811
Mof_H 	H 	0.4862	0.5536	0.102	0.8
Mof_H 	H 	0.5214	0.491	0.0874	0.758
Mof_H 	H 	0.4842	0.6066	0.0457	0.682
Mof_H 	H 	0.5512	0.6158	0.0269	0.665
Mof_H 	H 	0.5205	0.5448	0.0309	0.658
Mof_H 	H 	0.6008	0.6395	0.1072	0.851
Mof_H 	H 	0.602	0.6708	0.0724	0.816
Mof_H 	H 	0.535	0.6653	0.0914	0.83
Mof_H 	H 	0.4282	0.0855	0.777	0.107
Mof_H 	H 	0.6676	0.2575	0.853	0.083
Mof_H 	H 	0.944	0.1964	0.9734	0.026
Mof_H 	H 	0.1659	0.2543	0.8613	0.072
Mof_H 	H 	0.3687	0.8095	0.4945	0.07
Mof_H 	H 	0.4571	0.857	0.4707	0.053
Mof_H 	H 	0.4985	0.6871	0.4254	0.065
Mof_H 	H 	0.4047	0.6407	0.4462	0.014
Mof_H 	H 	0.501	0.9235	0.4427	0.648
Mof_H 	H 	0.5671	0.964	0.4394	0.669
Mof_H 	H 	0.5394	0.9246	0.4096	0.647
Mof_H 	H 	0.6527	0.8619	0.4052	0.593
Mof_H 	H 	0.6811	0.8971	0.4361	0.582
Mof_H 	H 	0.6755	0.8196	0.4351	0.571
Mof_H 	H 	0.5504	0.8647	0.4912	0.575
Mof_H 	H 	0.6141	0.8213	0.4865	0.561
Mof_H 	H 	0.6198	0.8988	0.4875	0.618
Mof_H 	H 	0.2571	0.5747	0.4577	0.014
Mof_H 	H 	0.1929	0.563	0.4131	0.057
Mof_H 	H 	0.2086	0.7561	0.3953	0.132
Mof_H 	H 	0.2701	0.767	0.4416	0.088
Mof_H 	H 	0.0969	0.5474	0.3935	0.673
Mof_H 	H 	0.0439	0.5894	0.3748	0.662
Mof_H 	H 	0.0647	0.5195	0.3617	0.661
Mof_H 	H 	0.1431	0.63	0.3054	0.652
Mof_H 	H 	0.0933	0.5705	0.3073	0.652
Mof_H 	H 	0.0724	0.6404	0.3204	0.624
Mof_H 	H 	0.214	0.5339	0.369	0.727
Mof_H 	H 	0.1839	0.5059	0.3367	0.78
Mof_H 	H 	0.2305	0.568	0.3358	0.78
Mof_H 	H 	0.1898	0.7462	0.4855	0.069
Mof_H 	H 	0.1357	0.8096	0.5236	0.054
Mof_H 	H 	0.2925	0.7963	0.5824	0.112
Mof_H 	H 	0.3431	0.7314	0.5461	0.06
Mof_H 	H 	0.0419	0.9103	0.6177	0.579
Mof_H 	H 	0.0956	0.8617	0.6315	0.561
Mof_H 	H 	0.1161	0.933	0.6201	0.569
Mof_H 	H 	0.0971	0.9021	0.5337	0.742
Mof_H 	H 	0.0431	0.9356	0.5556	0.739
Mof_H 	H 	0.1173	0.9581	0.5581	0.746
Mof_H 	H 	0.0657	0.7882	0.5543	0.657
Mof_H 	H 	0.0706	0.7727	0.5915	0.648
Mof_H 	H 	0.0121	0.816	0.5782	0.667
Mof_H 	H 	0.2339	0.5908	0.5113	0.084
Mof_H 	H 	0.2559	0.4968	0.5409	0.067
Mof_H 	H 	0.4489	0.5483	0.5429	0.002
Mof_H 	H 	0.4267	0.6366	0.5101	0.037
Mof_H 	H 	0.4459	0.4705	0.6163	0.811
Mof_H 	H 	0.5138	0.4464	0.602	0.8
Mof_H 	H 	0.4786	0.509	0.5874	0.758
Mof_H 	H 	0.5158	0.3934	0.5457	0.682
Mof_H 	H 	0.4488	0.3842	0.5269	0.665
Mof_H 	H 	0.4795	0.4552	0.5309	0.658
Mof_H 	H 	0.3992	0.3605	0.6072	0.851
Mof_H 	H 	0.398	0.3292	0.5724	0.816
Mof_H 	H 	0.465	0.3347	0.5914	0.83
Mof_H 	H 	0.5718	0.9145	0.277	0.107
Mof_H 	H 	0.3324	0.7425	0.353	0.083
Mof_H 	H 	0.056	0.8036	0.4734	0.026
Mof_H 	H 	0.8341	0.7457	0.3613	0.072
Mof_H 	H 	0.6905	0.8687	0.2445	0.07
Mof_H 	H 	0.643	0.9571	0.2207	0.053
Mof_H 	H 	0.8129	0.9985	0.1754	0.065
Mof_H 	H 	0.8593	0.9047	0.1962	0.015
Mof_H 	H 	0.5765	0.001	0.1927	0.648
Mof_H 	H 	0.536	0.0671	0.1894	0.668
Mof_H 	H 	0.5754	0.0394	0.1596	0.646
Mof_H 	H 	0.6381	0.1527	0.1552	0.593
Mof_H 	H 	0.6029	0.1811	0.1861	0.583
Mof_H 	H 	0.6804	0.1755	0.1851	0.571
Mof_H 	H 	0.6353	0.0504	0.2412	0.575
Mof_H 	H 	0.6787	0.1141	0.2365	0.561
Mof_H 	H 	0.6012	0.1198	0.2375	0.618
Mof_H 	H 	0.9253	0.7571	0.2077	0.014
Mof_H 	H 	0.937	0.6929	0.1631	0.057
Mof_H 	H 	0.7439	0.7086	0.1453	0.132
Mof_H 	H 	0.733	0.7701	0.1916	0.088
Mof_H 	H 	0.9526	0.5969	0.1435	0.671
Mof_H 	H 	0.9106	0.5439	0.1248	0.66
Mof_H 	H 	0.9805	0.5647	0.1117	0.659
Mof_H 	H 	0.87	0.6431	0.0554	0.651
Mof_H 	H 	0.9295	0.5933	0.0573	0.651
Mof_H 	H 	0.8596	0.5724	0.0704	0.622
Mof_H 	H 	0.9661	0.714	0.119	0.725
Mof_H 	H 	0.9941	0.6839	0.0867	0.779
Mof_H 	H 	0.932	0.7305	0.0858	0.779
Mof_H 	H 	0.7538	0.6898	0.2355	0.069
Mof_H 	H 	0.6904	0.6357	0.2736	0.054
Mof_H 	H 	0.7037	0.7925	0.3324	0.112
Mof_H 	H 	0.7686	0.8431	0.2961	0.06
Mof_H 	H 	0.5897	0.5419	0.3677	0.577
Mof_H 	H 	0.6383	0.5956	0.3815	0.559
Mof_H 	H 	0.567	0.6161	0.3701	0.567
Mof_H 	H 	0.5979	0.5971	0.2837	0.741
Mof_H 	H 	0.5644	0.5431	0.3056	0.737
Mof_H 	H 	0.5419	0.6173	0.3081	0.744
Mof_H 	H 	0.7118	0.5657	0.3043	0.655
Mof_H 	H 	0.7273	0.5706	0.3415	0.647
Mof_H 	H 	0.684	0.5121	0.3282	0.665
Mof_H 	H 	0.9092	0.7339	0.2613	0.082
Mof_H 	H 	0.0032	0.7559	0.2909	0.072
Mof_H 	H 	0.9517	0.9489	0.2929	0.003
Mof_H 	H 	0.8634	0.9267	0.2601	0.037
Mof_H 	H 	0.0295	0.9459	0.3663	0.793
Mof_H 	H 	0.0536	0.0138	0.352	0.778
Mof_H 	H 	0.991	0.9786	0.3374	0.736
Mof_H 	H 	0.1066	0.0158	0.2957	0.666
Mof_H 	H 	0.1158	0.9488	0.2769	0.653
Mof_H 	H 	0.0448	0.9795	0.2809	0.647
Mof_H 	H 	0.1395	0.8992	0.3572	0.84
Mof_H 	H 	0.1708	0.898	0.3224	0.806
Mof_H 	H 	0.1653	0.965	0.3414	0.821
Mof_H 	H 	0.5855	0.0718	0.027	0.107
Mof_H 	H 	0.7575	0.8324	0.103	0.083
Mof_H 	H 	0.6964	0.556	0.2234	0.026
Mof_H 	H 	0.7543	0.3341	0.1113	0.072
Mof_H 	H 	0.3095	0.1313	0.7445	0.07
Mof_H 	H 	0.357	0.0429	0.7207	0.053
Mof_H 	H 	0.1871	0.0015	0.6754	0.065
Mof_H 	H 	0.1407	0.0953	0.6962	0.015
Mof_H 	H 	0.4235	0.999	0.6927	0.648
Mof_H 	H 	0.464	0.9329	0.6894	0.668
Mof_H 	H 	0.4246	0.9606	0.6596	0.647
Mof_H 	H 	0.3619	0.8473	0.6552	0.593
Mof_H 	H 	0.3971	0.8189	0.6861	0.583
Mof_H 	H 	0.3196	0.8245	0.6851	0.571
Mof_H 	H 	0.3647	0.9496	0.7412	0.575
Mof_H 	H 	0.3213	0.8859	0.7365	0.561
Mof_H 	H 	0.3988	0.8802	0.7375	0.618
Mof_H 	H 	0.0747	0.2429	0.7077	0.014
Mof_H 	H 	0.063	0.3071	0.6631	0.057
Mof_H 	H 	0.2561	0.2914	0.6453	0.132
Mof_H 	H 	0.267	0.2299	0.6916	0.088
Mof_H 	H 	0.0474	0.4031	0.6435	0.671
Mof_H 	H 	0.0894	0.4561	0.6248	0.66
Mof_H 	H 	0.0195	0.4353	0.6117	0.66
Mof_H 	H 	0.13	0.3569	0.5554	0.651
Mof_H 	H 	0.0705	0.4067	0.5573	0.651
Mof_H 	H 	0.1404	0.4276	0.5704	0.622
Mof_H 	H 	0.0339	0.286	0.619	0.725
Mof_H 	H 	0.0059	0.3161	0.5867	0.779
Mof_H 	H 	0.068	0.2695	0.5858	0.779
Mof_H 	H 	0.2462	0.3102	0.7355	0.069
Mof_H 	H 	0.3096	0.3643	0.7736	0.054
Mof_H 	H 	0.2963	0.2075	0.8324	0.112
Mof_H 	H 	0.2314	0.1569	0.7961	0.06
Mof_H 	H 	0.4103	0.4581	0.8677	0.577
Mof_H 	H 	0.3617	0.4044	0.8815	0.559
Mof_H 	H 	0.433	0.3839	0.8701	0.567
Mof_H 	H 	0.4021	0.4029	0.7837	0.741
Mof_H 	H 	0.4356	0.4569	0.8056	0.737
Mof_H 	H 	0.4581	0.3827	0.8081	0.744
Mof_H 	H 	0.2882	0.4343	0.8043	0.655
Mof_H 	H 	0.2727	0.4294	0.8415	0.647
Mof_H 	H 	0.316	0.4879	0.8282	0.665
Mof_H 	H 	0.0908	0.2661	0.7613	0.082
Mof_H 	H 	0.9968	0.2441	0.7909	0.072
Mof_H 	H 	0.0483	0.0511	0.7929	0.003
Mof_H 	H 	0.1366	0.0733	0.7601	0.037
Mof_H 	H 	0.9705	0.0541	0.8663	0.792
Mof_H 	H 	0.9464	0.9862	0.852	0.777
Mof_H 	H 	0.009	0.0214	0.8374	0.735
Mof_H 	H 	0.8934	0.9842	0.7957	0.665
Mof_H 	H 	0.8842	0.0512	0.7769	0.652
Mof_H 	H 	0.9552	0.0205	0.7809	0.646
Mof_H 	H 	0.8605	0.1008	0.8572	0.84
Mof_H 	H 	0.8292	0.102	0.8224	0.806
Mof_H 	H 	0.8347	0.035	0.8414	0.821
Mof_H 	H 	0.4145	0.9282	0.527	0.107
Mof_H 	H 	0.2425	0.1676	0.603	0.083
Mof_H 	H 	0.3036	0.444	0.7234	0.026
Mof_H 	H 	0.2457	0.6659	0.6113	0.072
Mof_C 	C 	0.68914	0.31381	0.98633	-0.02
Mof_C 	C 	0.62536	0.28071	0.97346	0
Mof_C 	C 	0.60595	0.21534	0.98008	-0.002
Mof_C 	C 	0.55265	0.18723	0.96661	-0.11
Mof_C 	C 	0.51187	0.22429	0.94645	0.122
Mof_C 	C 	0.52844	0.28823	0.93912	-0.112
Mof_C 	C 	0.58415	0.31612	0.95182	-0.008
Mof_C 	C 	0.41716	0.13512	0.94307	1.221
Mof_C 	C 	0.4559	0.07539	0.93277	-1.997
Mof_C 	C 	0.34486	0.13958	0.9284	-1.737
Mof_C 	C 	0.40726	0.1379	0.9807	-1.777
Mof_C 	C 	0.73067	0.32802	0.95588	-0.003
Mof_C 	C 	0.75339	0.38783	0.94562	0.028
Mof_C 	C 	0.7908	0.39525	0.91841	-0.145
Mof_C 	C 	0.80487	0.34233	0.89866	0.176
Mof_C 	C 	0.78207	0.28099	0.9079	-0.114
Mof_C 	C 	0.74544	0.27476	0.93586	0.004
Mof_C 	C 	0.86403	0.4086	0.85211	1.336
Mof_C 	C 	0.91998	0.44121	0.87248	-1.983
Mof_C 	C 	0.89141	0.39017	0.81805	-1.924
Mof_C 	C 	0.8031	0.45457	0.84803	-2.138
Mof_C 	C 	0.72697	0.26943	0.01074	0.02
Mof_C 	C 	0.78938	0.24466	0.00509	0.018
Mof_C 	C 	0.822	0.20621	0.02807	-0.079
Mof_C 	C 	0.79275	0.19112	0.05737	0.153
Mof_C 	C 	0.72906	0.2145	0.06316	-0.1
Mof_C 	C 	0.6989	0.25234	0.0412	0.004
Mof_C 	C 	0.89953	0.13104	0.08077	1.281
Mof_C 	C 	0.91277	0.10386	0.11594	-1.761
Mof_C 	C 	0.91164	0.079	0.05459	-2.135
Mof_C 	C 	0.94183	0.19459	0.07574	-1.945
Mof_C 	C 	0.67194	0.37664	0.00656	0.014
Mof_C 	C 	0.7225	0.41892	0.01691	-0.051
Mof_C 	C 	0.70968	0.47477	0.03519	-0.08
Mof_C 	C 	0.64408	0.48869	0.04525	0.093
Mof_C 	C 	0.59438	0.44455	0.03588	-0.109
Mof_C 	C 	0.60783	0.39089	0.01659	-0.047
Mof_C 	C 	0.5651	0.57788	0.07287	1.687
Mof_C 	C 	0.52831	0.53392	0.09687	-2.436
Mof_C 	C 	0.52664	0.58712	0.04111	-2.212
Mof_C 	C 	0.57676	0.64422	0.08723	-2.551
Mof_C 	C 	0.4721	0.1909	0.75223	1.06
Mof_C 	C 	0.45418	0.17905	0.78732	-0.027
Mof_C 	C 	0.42921	0.11683	0.79355	-0.132
Mof_C 	C 	0.40604	0.10055	0.82347	0.203
Mof_C 	C 	0.64899	0.13559	0.87332	0.938
Mof_C 	C 	0.60233	0.18965	0.86646	-0.081
Mof_C 	C 	0.62267	0.25141	0.85712	0.066
Mof_C 	C 	0.58327	0.30294	0.85353	-0.059
Mof_C 	C 	0.61693	0.36886	0.8457	0.997
Mof_C 	C 	0.8924	0.09181	0.9421	1.18
Mof_C 	C 	0.91373	0.16027	0.93015	-0.143
Mof_C 	C 	0.94008	0.20673	0.95153	0.158
Mof_C 	C 	0.95992	0.26646	0.94067	-0.21
Mof_C 	C 	0.9797	0.3102	0.96476	1.005
Mof_C 	C 	0.1453	0.14539	0.87984	0.965
Mof_C 	C 	0.09638	0.19292	0.87095	-0.111
Mof_C 	C 	0.12018	0.24845	0.86097	-0
Mof_C 	C 	0.08104	0.2998	0.84982	0.04
Mof_C 	C 	0.1249	0.36449	0.84251	0.695
Mof_C 	C 	0.31086	0.68619	0.48633	-0.021
Mof_C 	C 	0.37464	0.71929	0.47346	0
Mof_C 	C 	0.39405	0.78466	0.48008	-0.002
Mof_C 	C 	0.44735	0.81277	0.46661	-0.11
Mof_C 	C 	0.48813	0.77571	0.44645	0.122
Mof_C 	C 	0.47156	0.71177	0.43912	-0.112
Mof_C 	C 	0.41585	0.68388	0.45182	-0.008
Mof_C 	C 	0.58284	0.86488	0.44307	1.221
Mof_C 	C 	0.5441	0.92461	0.43277	-1.997
Mof_C 	C 	0.65514	0.86042	0.4284	-1.737
Mof_C 	C 	0.59274	0.8621	0.4807	-1.776
Mof_C 	C 	0.26933	0.67198	0.45588	-0.003
Mof_C 	C 	0.24661	0.61217	0.44562	0.028
Mof_C 	C 	0.2092	0.60475	0.41841	-0.145
Mof_C 	C 	0.19513	0.65767	0.39866	0.176
Mof_C 	C 	0.21793	0.71901	0.4079	-0.114
Mof_C 	C 	0.25456	0.72524	0.43586	0.004
Mof_C 	C 	0.13597	0.5914	0.35211	1.336
Mof_C 	C 	0.08002	0.55879	0.37248	-1.982
Mof_C 	C 	0.10859	0.60983	0.31805	-1.924
Mof_C 	C 	0.1969	0.54543	0.34803	-2.138
Mof_C 	C 	0.27303	0.73057	0.51074	0.02
Mof_C 	C 	0.21062	0.75534	0.50509	0.02
Mof_C 	C 	0.178	0.79379	0.52807	-0.08
Mof_C 	C 	0.20725	0.80888	0.55737	0.153
Mof_C 	C 	0.27094	0.7855	0.56316	-0.1
Mof_C 	C 	0.3011	0.74766	0.5412	0.004
Mof_C 	C 	0.10047	0.86896	0.58077	1.282
Mof_C 	C 	0.08723	0.89614	0.61594	-1.762
Mof_C 	C 	0.08836	0.921	0.55459	-2.136
Mof_C 	C 	0.05817	0.80541	0.57574	-1.947
Mof_C 	C 	0.32806	0.62336	0.50656	0.014
Mof_C 	C 	0.2775	0.58108	0.51691	-0.051
Mof_C 	C 	0.29032	0.52523	0.53519	-0.08
Mof_C 	C 	0.35592	0.51131	0.54525	0.093
Mof_C 	C 	0.40562	0.55545	0.53588	-0.109
Mof_C 	C 	0.39217	0.60911	0.51659	-0.047
Mof_C 	C 	0.4349	0.42212	0.57287	1.687
Mof_C 	C 	0.47169	0.46608	0.59687	-2.436
Mof_C 	C 	0.47336	0.41288	0.54111	-2.212
Mof_C 	C 	0.42324	0.35578	0.58723	-2.551
Mof_C 	C 	0.5279	0.8091	0.25223	1.06
Mof_C 	C 	0.54582	0.82095	0.28732	-0.027
Mof_C 	C 	0.57079	0.88317	0.29355	-0.132
Mof_C 	C 	0.59396	0.89945	0.32347	0.203
Mof_C 	C 	0.35101	0.86441	0.37332	0.938
Mof_C 	C 	0.39767	0.81035	0.36646	-0.081
Mof_C 	C 	0.37733	0.74859	0.35712	0.066
Mof_C 	C 	0.41673	0.69706	0.35353	-0.059
Mof_C 	C 	0.38307	0.63114	0.3457	0.997
Mof_C 	C 	0.1076	0.90819	0.4421	1.18
Mof_C 	C 	0.08627	0.83973	0.43015	-0.143
Mof_C 	C 	0.05992	0.79327	0.45153	0.158
Mof_C 	C 	0.04008	0.73354	0.44067	-0.21
Mof_C 	C 	0.0203	0.6898	0.46476	1.005
Mof_C 	C 	0.8547	0.85461	0.37984	0.965
Mof_C 	C 	0.90362	0.80708	0.37095	-0.111
Mof_C 	C 	0.87982	0.75155	0.36097	-0
Mof_C 	C 	0.91896	0.7002	0.34982	0.04
Mof_C 	C 	0.8751	0.63551	0.34251	0.695
Mof_C 	C 	0.81381	0.81086	0.23633	-0.02
Mof_C 	C 	0.78071	0.87464	0.22346	0.001
Mof_C 	C 	0.71534	0.89405	0.23008	-0.002
Mof_C 	C 	0.68723	0.94735	0.21661	-0.11
Mof_C 	C 	0.72429	0.98813	0.19645	0.122
Mof_C 	C 	0.78823	0.97156	0.18912	-0.112
Mof_C 	C 	0.81612	0.91585	0.20182	-0.008
Mof_C 	C 	0.63512	0.08284	0.19307	1.22
Mof_C 	C 	0.57539	0.0441	0.18277	-1.995
Mof_C 	C 	0.63958	0.15514	0.1784	-1.737
Mof_C 	C 	0.6379	0.09274	0.2307	-1.776
Mof_C 	C 	0.82802	0.76933	0.20588	-0.003
Mof_C 	C 	0.88783	0.74661	0.19562	0.028
Mof_C 	C 	0.89525	0.7092	0.16841	-0.145
Mof_C 	C 	0.84233	0.69513	0.14866	0.176
Mof_C 	C 	0.78099	0.71793	0.1579	-0.113
Mof_C 	C 	0.77476	0.75456	0.18586	0.004
Mof_C 	C 	0.9086	0.63597	0.10211	1.333
Mof_C 	C 	0.94121	0.58002	0.12248	-1.978
Mof_C 	C 	0.89017	0.60859	0.06805	-1.919
Mof_C 	C 	0.95457	0.6969	0.09803	-2.133
Mof_C 	C 	0.76943	0.77303	0.26074	0.02
Mof_C 	C 	0.74466	0.71062	0.25509	0.02
Mof_C 	C 	0.70621	0.678	0.27807	-0.08
Mof_C 	C 	0.69112	0.70725	0.30737	0.153
Mof_C 	C 	0.7145	0.77094	0.31316	-0.1
Mof_C 	C 	0.75234	0.8011	0.2912	0.004
Mof_C 	C 	0.63104	0.60047	0.33077	1.279
Mof_C 	C 	0.60386	0.58723	0.36594	-1.757
Mof_C 	C 	0.579	0.58836	0.30459	-2.131
Mof_C 	C 	0.69459	0.55817	0.32574	-1.943
Mof_C 	C 	0.87664	0.82806	0.25656	0.013
Mof_C 	C 	0.91892	0.7775	0.26691	-0.048
Mof_C 	C 	0.97477	0.79032	0.28519	-0.086
Mof_C 	C 	0.98869	0.85592	0.29525	0.092
Mof_C 	C 	0.94455	0.90562	0.28588	-0.109
Mof_C 	C 	0.89089	0.89217	0.26659	-0.046
Mof_C 	C 	0.07788	0.9349	0.32287	1.655
Mof_C 	C 	0.03392	0.97169	0.34687	-2.37
Mof_C 	C 	0.08712	0.97336	0.29111	-2.166
Mof_C 	C 	0.14422	0.92324	0.33723	-2.514
Mof_C 	C 	0.6909	0.0279	0.00223	1.06
Mof_C 	C 	0.67905	0.04582	0.03732	-0.027
Mof_C 	C 	0.61683	0.07079	0.04355	-0.132
Mof_C 	C 	0.60055	0.09396	0.07347	0.202
Mof_C 	C 	0.63559	0.85101	0.12332	0.939
Mof_C 	C 	0.68965	0.89767	0.11646	-0.081
Mof_C 	C 	0.75141	0.87733	0.10712	0.066
Mof_C 	C 	0.80294	0.91673	0.10353	-0.059
Mof_C 	C 	0.86886	0.88307	0.0957	0.997
Mof_C 	C 	0.59181	0.6076	0.1921	1.181
Mof_C 	C 	0.66027	0.58627	0.18015	-0.143
Mof_C 	C 	0.70673	0.55992	0.20153	0.157
Mof_C 	C 	0.76646	0.54008	0.19067	-0.21
Mof_C 	C 	0.8102	0.5203	0.21476	1.004
Mof_C 	C 	0.64539	0.3547	0.12984	0.965
Mof_C 	C 	0.69292	0.40362	0.12095	-0.112
Mof_C 	C 	0.74845	0.37982	0.11097	0.001
Mof_C 	C 	0.7998	0.41896	0.09982	0.04
Mof_C 	C 	0.86449	0.3751	0.09251	0.695
Mof_C 	C 	0.18619	0.18914	0.73633	-0.02
Mof_C 	C 	0.21929	0.12536	0.72346	0.001
Mof_C 	C 	0.28466	0.10595	0.73008	-0.002
Mof_C 	C 	0.31277	0.05265	0.71661	-0.11
Mof_C 	C 	0.27571	0.01187	0.69645	0.122
Mof_C 	C 	0.21177	0.02844	0.68912	-0.112
Mof_C 	C 	0.18388	0.08415	0.70182	-0.009
Mof_C 	C 	0.36488	0.91716	0.69307	1.22
Mof_C 	C 	0.42461	0.9559	0.68277	-1.996
Mof_C 	C 	0.36042	0.84486	0.6784	-1.737
Mof_C 	C 	0.3621	0.90726	0.7307	-1.776
Mof_C 	C 	0.17198	0.23067	0.70588	-0.003
Mof_C 	C 	0.11217	0.25339	0.69562	0.028
Mof_C 	C 	0.10475	0.2908	0.66841	-0.145
Mof_C 	C 	0.15767	0.30487	0.64866	0.176
Mof_C 	C 	0.21901	0.28207	0.6579	-0.113
Mof_C 	C 	0.22524	0.24544	0.68586	0.004
Mof_C 	C 	0.0914	0.36403	0.60211	1.333
Mof_C 	C 	0.05879	0.41998	0.62248	-1.978
Mof_C 	C 	0.10983	0.39141	0.56805	-1.92
Mof_C 	C 	0.04543	0.3031	0.59803	-2.134
Mof_C 	C 	0.23057	0.22697	0.76074	0.02
Mof_C 	C 	0.25534	0.28938	0.75509	0.02
Mof_C 	C 	0.29379	0.322	0.77807	-0.08
Mof_C 	C 	0.30888	0.29275	0.80737	0.153
Mof_C 	C 	0.2855	0.22906	0.81316	-0.1
Mof_C 	C 	0.24766	0.1989	0.7912	0.004
Mof_C 	C 	0.36896	0.39953	0.83077	1.279
Mof_C 	C 	0.39614	0.41277	0.86594	-1.757
Mof_C 	C 	0.421	0.41164	0.80459	-2.131
Mof_C 	C 	0.30541	0.44183	0.82574	-1.943
Mof_C 	C 	0.12336	0.17194	0.75656	0.013
Mof_C 	C 	0.08108	0.2225	0.76691	-0.048
Mof_C 	C 	0.02523	0.20968	0.78519	-0.086
Mof_C 	C 	0.01131	0.14408	0.79525	0.092
Mof_C 	C 	0.05545	0.09438	0.78588	-0.109
Mof_C 	C 	0.10911	0.10783	0.76659	-0.046
Mof_C 	C 	0.92212	0.0651	0.82287	1.653
Mof_C 	C 	0.96608	0.02831	0.84687	-2.368
Mof_C 	C 	0.91288	0.02664	0.79111	-2.164
Mof_C 	C 	0.85578	0.07676	0.83723	-2.513
Mof_C 	C 	0.3091	0.9721	0.50223	1.062
Mof_C 	C 	0.32095	0.95418	0.53732	-0.027
Mof_C 	C 	0.38317	0.92921	0.54355	-0.132
Mof_C 	C 	0.39945	0.90604	0.57347	0.202
Mof_C 	C 	0.36441	0.14899	0.62332	0.939
Mof_C 	C 	0.31035	0.10233	0.61646	-0.081
Mof_C 	C 	0.24859	0.12267	0.60712	0.066
Mof_C 	C 	0.19706	0.08327	0.60353	-0.059
Mof_C 	C 	0.13114	0.11693	0.5957	0.997
Mof_C 	C 	0.40819	0.3924	0.6921	1.181
Mof_C 	C 	0.33973	0.41373	0.68015	-0.143
Mof_C 	C 	0.29327	0.44008	0.70153	0.157
Mof_C 	C 	0.23354	0.45992	0.69067	-0.21
Mof_C 	C 	0.1898	0.4797	0.71476	1.004
Mof_C 	C 	0.35461	0.6453	0.62984	0.965
Mof_C 	C 	0.30708	0.59638	0.62095	-0.112
Mof_C 	C 	0.25155	0.62018	0.61097	0.001
Mof_C 	C 	0.2002	0.58104	0.59982	0.04
Mof_C 	C 	0.13551	0.6249	0.59251	0.695
Mof_N 	N 	0.45272	0.19672	0.93166	-0.221
Mof_N 	N 	0.84386	0.3457	0.87052	-0.225
Mof_N 	N 	0.82497	0.15216	0.08109	-0.206
Mof_N 	N 	0.63234	0.54683	0.06472	-0.272
Mof_N 	N 	0.54728	0.80328	0.43166	-0.221
Mof_N 	N 	0.15614	0.6543	0.37052	-0.225
Mof_N 	N 	0.17503	0.84784	0.58109	-0.206
Mof_N 	N 	0.36766	0.45317	0.56472	-0.272
Mof_N 	N 	0.69672	0.04728	0.18166	-0.22
Mof_N 	N 	0.8457	0.65614	0.12052	-0.225
Mof_N 	N 	0.65216	0.67503	0.33109	-0.206
Mof_N 	N 	0.04683	0.86766	0.31472	-0.266
Mof_N 	N 	0.30328	0.95272	0.68166	-0.22
Mof_N 	N 	0.1543	0.34386	0.62052	-0.225
Mof_N 	N 	0.34784	0.32497	0.83109	-0.206
Mof_N 	N 	0.95317	0.13234	0.81472	-0.266
Mof_O 	O 	0.42763	0.2307	0.9078	-0.244
Mof_O 	O 	0.86375	0.2904	0.85823	-0.226
Mof_O 	O 	0.78815	0.13109	0.10456	-0.237
Mof_O 	O 	0.68424	0.57408	0.0771	-0.24
Mof_O 	O 	0.46415	0.22673	0.8069	-0.201
Mof_O 	O 	0.40454	0.13513	0.84898	-0.34
Mof_O 	O 	0.54173	0.17236	0.86978	-0.203
Mof_O 	O 	0.52318	0.30694	0.85631	-0.251
Mof_O 	O 	0.90526	0.16543	0.9006	-0.229
Mof_O 	O 	0.96042	0.29011	0.91338	-0.168
Mof_O 	O 	0.03647	0.17661	0.87558	-0.198
Mof_O 	O 	0.01877	0.30403	0.84984	-0.292
Mof_O 	O 	0.57237	0.7693	0.4078	-0.244
Mof_O 	O 	0.13625	0.7096	0.35823	-0.226
Mof_O 	O 	0.21185	0.86891	0.60456	-0.237
Mof_O 	O 	0.31576	0.42592	0.5771	-0.24
Mof_O 	O 	0.53585	0.77327	0.3069	-0.201
Mof_O 	O 	0.59546	0.86487	0.34898	-0.34
Mof_O 	O 	0.45827	0.82764	0.36978	-0.203
Mof_O 	O 	0.47682	0.69306	0.35631	-0.251
Mof_O 	O 	0.09474	0.83457	0.4006	-0.229
Mof_O 	O 	0.03958	0.70989	0.41338	-0.168
Mof_O 	O 	0.96353	0.82339	0.37558	-0.198
Mof_O 	O 	0.98123	0.69597	0.34984	-0.292
Mof_O 	O 	0.7307	0.07237	0.1578	-0.243
Mof_O 	O 	0.7904	0.63625	0.10823	-0.226
Mof_O 	O 	0.63109	0.71185	0.35456	-0.238
Mof_O 	O 	0.07408	0.81576	0.3271	-0.24
Mof_O 	O 	0.72673	0.03585	0.0569	-0.201
Mof_O 	O 	0.63513	0.09546	0.09898	-0.34
Mof_O 	O 	0.67236	0.95827	0.11978	-0.203
Mof_O 	O 	0.80694	0.97682	0.10631	-0.251
Mof_O 	O 	0.66543	0.59474	0.1506	-0.23
Mof_O 	O 	0.79011	0.53958	0.16338	-0.168
Mof_O 	O 	0.67661	0.46353	0.12558	-0.197
Mof_O 	O 	0.80403	0.48123	0.09984	-0.29
Mof_O 	O 	0.2693	0.92763	0.6578	-0.243
Mof_O 	O 	0.2096	0.36375	0.60823	-0.226
Mof_O 	O 	0.36891	0.28815	0.85456	-0.238
Mof_O 	O 	0.92592	0.18424	0.8271	-0.24
Mof_O 	O 	0.27327	0.96415	0.5569	-0.201
Mof_O 	O 	0.36487	0.90454	0.59898	-0.34
Mof_O 	O 	0.32764	0.04173	0.61978	-0.203
Mof_O 	O 	0.19306	0.02318	0.60631	-0.251
Mof_O 	O 	0.33457	0.40526	0.6506	-0.23
Mof_O 	O 	0.20989	0.46042	0.66338	-0.168
Mof_O 	O 	0.32339	0.53647	0.62558	-0.197
Mof_O 	O 	0.19597	0.51877	0.59984	-0.29
Mof_F 	F 	0.4259	0.22753	0.73907	-0.481
Mof_F 	F 	0.52299	0.2196	0.74794	-0.562
Mof_F 	F 	0.47026	0.14192	0.73306	-0.583
Mof_F 	F 	0.64136	0.11352	0.90412	-0.514
Mof_F 	F 	0.71039	0.14956	0.86837	-0.54
Mof_F 	F 	0.64231	0.08401	0.85543	-0.556
Mof_F 	F 	0.64173	0.39868	0.87225	-0.549
Mof_F 	F 	0.58091	0.4115	0.8353	-0.555
Mof_F 	F 	0.67077	0.36142	0.82901	-0.531
Mof_F 	F 	0.9247	0.0476	0.93232	-0.586
Mof_F 	F 	0.83866	0.06918	0.92919	-0.496
Mof_F 	F 	0.8913	0.08542	0.97139	-0.599
Mof_F 	F 	0.9381	0.3575	0.97175	-0.49
Mof_F 	F 	0.98789	0.29234	0.99564	-0.532
Mof_F 	F 	0.02438	0.35147	0.96086	-0.558
Mof_F 	F 	0.14594	0.09335	0.85862	-0.518
Mof_F 	F 	0.13527	0.11303	0.9058	-0.556
Mof_F 	F 	0.20673	0.15723	0.88052	-0.564
Mof_F 	F 	0.09825	0.41558	0.84851	-0.603
Mof_F 	F 	0.16334	0.35492	0.81883	-0.553
Mof_F 	F 	0.5741	0.77247	0.23907	-0.481
Mof_F 	F 	0.47701	0.7804	0.24794	-0.562
Mof_F 	F 	0.52974	0.85808	0.23306	-0.583
Mof_F 	F 	0.35864	0.88648	0.40412	-0.514
Mof_F 	F 	0.28961	0.85044	0.36837	-0.54
Mof_F 	F 	0.35769	0.91599	0.35543	-0.556
Mof_F 	F 	0.35827	0.60132	0.37225	-0.549
Mof_F 	F 	0.41909	0.5885	0.3353	-0.555
Mof_F 	F 	0.32923	0.63858	0.32901	-0.531
Mof_F 	F 	0.0753	0.9524	0.43232	-0.586
Mof_F 	F 	0.16134	0.93082	0.42919	-0.497
Mof_F 	F 	0.1087	0.91458	0.47139	-0.599
Mof_F 	F 	0.0619	0.6425	0.47175	-0.49
Mof_F 	F 	0.01211	0.70766	0.49564	-0.533
Mof_F 	F 	0.97562	0.64853	0.46086	-0.557
Mof_F 	F 	0.85406	0.90665	0.35862	-0.518
Mof_F 	F 	0.86473	0.88697	0.4058	-0.556
Mof_F 	F 	0.79327	0.84277	0.38052	-0.564
Mof_F 	F 	0.90175	0.58442	0.34851	-0.602
Mof_F 	F 	0.83666	0.64508	0.31883	-0.553
Mof_F 	F 	0.72753	0.0741	0.98907	-0.481
Mof_F 	F 	0.7196	0.97701	0.99794	-0.564
Mof_F 	F 	0.64192	0.02974	0.98306	-0.582
Mof_F 	F 	0.61352	0.85864	0.15412	-0.515
Mof_F 	F 	0.64956	0.78961	0.11837	-0.541
Mof_F 	F 	0.58401	0.85769	0.10543	-0.557
Mof_F 	F 	0.89868	0.85827	0.12225	-0.549
Mof_F 	F 	0.9115	0.91909	0.0853	-0.556
Mof_F 	F 	0.86142	0.82923	0.07901	-0.532
Mof_F 	F 	0.5476	0.5753	0.18232	-0.588
Mof_F 	F 	0.56918	0.66134	0.17919	-0.498
Mof_F 	F 	0.58542	0.6087	0.22139	-0.599
Mof_F 	F 	0.8575	0.5619	0.22175	-0.49
Mof_F 	F 	0.79234	0.51211	0.24564	-0.533
Mof_F 	F 	0.85147	0.47562	0.21086	-0.557
Mof_F 	F 	0.59335	0.35406	0.10862	-0.518
Mof_F 	F 	0.61303	0.36473	0.1558	-0.555
Mof_F 	F 	0.65723	0.29327	0.13052	-0.564
Mof_F 	F 	0.91558	0.40175	0.09851	-0.602
Mof_F 	F 	0.85492	0.33666	0.06883	-0.553
Mof_F 	F 	0.27247	0.9259	0.48907	-0.481
Mof_F 	F 	0.2804	0.02299	0.49794	-0.564
Mof_F 	F 	0.35808	0.97026	0.48306	-0.583
Mof_F 	F 	0.38648	0.14136	0.65412	-0.515
Mof_F 	F 	0.35044	0.21039	0.61837	-0.541
Mof_F 	F 	0.41599	0.14231	0.60543	-0.557
Mof_F 	F 	0.10132	0.14173	0.62225	-0.549
Mof_F 	F 	0.0885	0.08091	0.5853	-0.556
Mof_F 	F 	0.13858	0.17077	0.57901	-0.532
Mof_F 	F 	0.4524	0.4247	0.68232	-0.588
Mof_F 	F 	0.43082	0.33866	0.67919	-0.498
Mof_F 	F 	0.41458	0.3913	0.72139	-0.599
Mof_F 	F 	0.1425	0.4381	0.72175	-0.49
Mof_F 	F 	0.20766	0.48789	0.74564	-0.533
Mof_F 	F 	0.14853	0.52438	0.71086	-0.557
Mof_F 	F 	0.40665	0.64594	0.60862	-0.518
Mof_F 	F 	0.38697	0.63527	0.6558	-0.555
Mof_F 	F 	0.34277	0.70673	0.63052	-0.564
Mof_F 	F 	0.08442	0.59825	0.59851	-0.602
Mof_F 	F 	0.14508	0.66334	0.56883	-0.553
_end
