data_functionalizedCrystal
_audit_creation_method	'EQeq! by Chris Wilmer'
_symmetry_space_group_name_H-M	'P1'
_symmetry_Int_Tables_number	1
_symmetry_cell_setting	triclinic
loop_
_symmetry_equiv_pos_as_xyz
  x,y,z
_cell_length_a	13.029
_cell_length_b	13.828
_cell_length_c	28.021
_cell_angle_alpha	75.72
_cell_angle_beta	79.23
_cell_angle_gamma	85.59
loop_
_atom_site_label
_atom_site_type_symbol
_atom_site_fract_x
_atom_site_fract_y
_atom_site_fract_z
_atom_site_charge
Mof_O 	O 	0.9458	0.9319	0.47203	-0.575
Mof_O 	O 	0.799	0.8996	0.52606	-0.493
Mof_O 	O 	0.6004	0.568	0.45629	-0.576
Mof_O 	O 	0.6237	0.5907	0.52874	-0.555
Mof_O 	O 	0.0455	0.8893	0.14445	-0.481
Mof_O 	O 	0.9316	0.786	0.14063	-0.471
Mof_O 	O 	0.6393	0.5163	0.35791	-0.425
Mof_O 	O 	0.5954	0.3921	0.42319	-0.437
Mof_O 	O 	0.869	0.1345	0.47604	-0.564
Mof_O 	O 	0.0189	0.1266	0.42223	-0.482
Mof_O 	O 	0.2609	0.6587	0.14699	-0.373
Mof_O 	O 	0.3253	0.508	0.14124	-0.547
Mof_O 	O 	0.8893	0.9833	0.07775	-0.521
Mof_O 	O 	0.8761	0.1277	0.02161	-0.535
Mof_O 	O 	0.5041	0.3515	0.13867	-0.446
Mof_O 	O 	0.6125	0.3868	0.06702	-0.453
Mof_O 	O 	0.4904	0.6942	0.36318	-0.567
Mof_O 	O 	0.444	0.8145	0.4033	-0.352
Mof_O 	O 	0.597	0.5725	0.95454	-0.599
Mof_O 	O 	0.611	0.6068	0.02551	-0.619
Mof_O 	O 	0.9012	0.9684	0.96693	-0.567
Mof_O 	O 	0.8936	0.8271	0.02533	-0.533
Mof_O 	O 	0.7784	0.9362	0.63536	-0.455
Mof_O 	O 	0.9135	0.0179	0.63796	-0.482
Mof_C 	C 	0.8252	0.8235	0.4573	-0.18
Mof_C 	C 	0.7505	0.7524	0.4811	0.113
Mof_H 	H 	0.7239	0.745	0.515	0.004
Mof_C 	C 	0.7157	0.6929	0.455	-0.205
Mof_C 	C 	0.752	0.7053	0.4043	0.07
Mof_H 	H 	0.7259	0.667	0.3865	0.01
Mof_C 	C 	0.8289	0.7762	0.3793	-0.092
Mof_C 	C 	0.8657	0.8333	0.4066	0.053
Mof_H 	H 	0.9179	0.8786	0.3909	0.015
Mof_C 	C 	0.8671	0.7882	0.324	0.119
Mof_C 	C 	0.9616	0.8319	0.3018	-0.161
Mof_H 	H 	0.0027	0.8525	0.321	0.079
Mof_C 	C 	0.9949	0.8448	0.2502	0.101
Mof_H 	H 	0.0583	0.8748	0.2353	-0.003
Mof_C 	C 	0.9363	0.8143	0.2212	-0.154
Mof_C 	C 	0.8468	0.7641	0.244	0.088
Mof_H 	H 	0.8086	0.7386	0.2252	0.005
Mof_C 	C 	0.8131	0.7514	0.2952	-0.176
Mof_H 	H 	0.7523	0.7171	0.3102	0.098
Mof_C 	C 	0.8593	0.8887	0.4867	0.44
Mof_C 	C 	0.6399	0.6121	0.4817	0.504
Mof_C 	C 	0.9728	0.8304	0.1653	0.38
Mof_C 	C 	0.7662	0.3827	0.3749	-0.109
Mof_C 	C 	0.7954	0.2981	0.408	0.057
Mof_H 	H 	0.7497	0.2713	0.4372	0.015
Mof_C 	C 	0.8944	0.2526	0.3975	-0.156
Mof_C 	C 	0.9613	0.2927	0.3534	0.029
Mof_H 	H 	0.0262	0.2614	0.3461	0.032
Mof_C 	C 	0.9334	0.379	0.3196	-0.07
Mof_C 	C 	0.8353	0.4228	0.3314	0.011
Mof_H 	H 	0.8153	0.4805	0.3097	0.033
Mof_C 	C 	0.0109	0.4262	0.2752	0.121
Mof_C 	C 	0.017	0.5288	0.2599	-0.198
Mof_H 	H 	0.968	0.5682	0.2759	0.101
Mof_C 	C 	0.0934	0.5751	0.2215	0.101
Mof_H 	H 	0.0953	0.6444	0.2123	-0.009
Mof_C 	C 	0.1677	0.5177	0.1966	-0.195
Mof_C 	C 	0.1597	0.4152	0.2108	0.102
Mof_H 	H 	0.2068	0.3756	0.1941	0.005
Mof_C 	C 	0.082	0.3694	0.25	-0.185
Mof_H 	H 	0.0786	0.3001	0.259	0.099
Mof_C 	C 	0.6607	0.4325	0.3859	0.317
Mof_C 	C 	0.9298	0.1637	0.4348	0.463
Mof_C 	C 	0.2564	0.5647	0.1586	0.409
Mof_C 	C 	0.7625	0.1026	0.1001	-0.173
Mof_C 	C 	0.7152	0.1963	0.0881	0.072
Mof_H 	H 	0.7387	0.2396	0.0575	0.003
Mof_C 	C 	0.6331	0.2269	0.1211	-0.124
Mof_C 	C 	0.5991	0.1622	0.1667	0.021
Mof_H 	H 	0.5452	0.1829	0.1892	0.029
Mof_C 	C 	0.6436	0.0669	0.1796	-0.076
Mof_C 	C 	0.7266	0.0383	0.1459	0.033
Mof_H 	H 	0.7581	0.9752	0.1542	0.033
Mof_C 	C 	0.6017	0.9955	0.2277	0.123
Mof_C 	C 	0.5992	0.8954	0.2297	-0.181
Mof_H 	H 	0.6243	0.8723	0.201	0.086
Mof_C 	C 	0.5592	0.8278	0.2742	0.102
Mof_H 	H 	0.5589	0.7602	0.2749	-0.01
Mof_C 	C 	0.5203	0.8604	0.3171	-0.186
Mof_C 	C 	0.5215	0.9602	0.3156	0.105
Mof_H 	H 	0.4957	0.9829	0.3443	0.001
Mof_C 	C 	0.561	0.0279	0.2714	-0.181
Mof_H 	H 	0.5604	0.0955	0.2708	0.091
Mof_C 	C 	0.8492	0.0684	0.0637	0.48
Mof_C 	C 	0.5808	0.3276	0.1077	0.323
Mof_C 	C 	0.4811	0.7843	0.365	0.426
Mof_C 	C 	0.6985	0.7079	0.9523	-0.248
Mof_C 	C 	0.7518	0.7535	0.9792	0.15
Mof_H 	H 	0.7456	0.7296	0.0137	-0.02
Mof_C 	C 	0.8144	0.8349	0.9548	-0.224
Mof_C 	C 	0.8237	0.8693	0.9039	0.09
Mof_H 	H 	0.8634	0.925	0.8879	0.004
Mof_C 	C 	0.7756	0.8235	0.8755	-0.115
Mof_C 	C 	0.712	0.7419	0.8999	0.095
Mof_H 	H 	0.6788	0.7105	0.8815	0.003
Mof_C 	C 	0.7903	0.859	0.8199	0.125
Mof_C 	C 	0.7135	0.851	0.7931	-0.173
Mof_H 	H 	0.6505	0.823	0.8102	0.096
Mof_C 	C 	0.7278	0.8836	0.7415	0.078
Mof_H 	H 	0.6743	0.8788	0.7245	0.012
Mof_C 	C 	0.8221	0.9234	0.7153	-0.14
Mof_C 	C 	0.8993	0.9308	0.7412	0.075
Mof_H 	H 	0.9632	0.9565	0.7238	0.021
Mof_C 	C 	0.8839	0.9004	0.7933	-0.167
Mof_H 	H 	0.9366	0.9079	0.8103	0.097
Mof_C 	C 	0.6304	0.6233	0.979	0.566
Mof_C 	C 	0.8727	0.8803	0.9849	0.505
Mof_C 	C 	0.8394	0.9616	0.6591	0.364
Mof_Eu	Eu	0.51687	0.48081	0.91415	1.958
Mof_Eu	Eu	0.03079	0.87523	0.06044	2.106
Mof_Eu	Eu	0.88013	0.02129	0.55403	2.089
Mof_Eu	Eu	0.47153	0.5376	0.41498	1.924
Mof_Tb	Tb	0.96921	0.12477	0.93955	1.892
Mof_Tb	Tb	0.11987	0.97871	0.44597	1.868
Mof_Tb	Tb	0.52847	0.4624	0.58502	1.73
Mof_O 	O 	0.0542	0.0681	0.52797	-0.6
Mof_O 	O 	0.201	0.1004	0.47394	-0.472
Mof_O 	O 	0.3996	0.432	0.54371	-0.553
Mof_O 	O 	0.3763	0.4093	0.47126	-0.587
Mof_O 	O 	0.9545	0.1107	0.85555	-0.453
Mof_O 	O 	0.0684	0.214	0.85937	-0.445
Mof_O 	O 	0.3607	0.4837	0.64209	-0.403
Mof_O 	O 	0.4046	0.6079	0.57681	-0.416
Mof_O 	O 	0.131	0.8655	0.52396	-0.532
Mof_O 	O 	0.9811	0.8734	0.57777	-0.502
Mof_O 	O 	0.7391	0.3413	0.85301	-0.367
Mof_O 	O 	0.6747	0.492	0.85876	-0.545
Mof_O 	O 	0.1107	0.0167	0.92225	-0.499
Mof_O 	O 	0.1239	0.8723	0.97839	-0.564
Mof_O 	O 	0.4959	0.6485	0.86133	-0.445
Mof_O 	O 	0.3875	0.6132	0.93298	-0.454
Mof_O 	O 	0.5096	0.3058	0.63682	-0.53
Mof_O 	O 	0.556	0.1855	0.5967	-0.348
Mof_O 	O 	0.403	0.4275	0.04546	-0.598
Mof_O 	O 	0.389	0.3932	0.97449	-0.616
Mof_O 	O 	0.0988	0.0316	0.03307	-0.599
Mof_O 	O 	0.1064	0.1729	0.97467	-0.506
Mof_O 	O 	0.2216	0.0638	0.36464	-0.43
Mof_O 	O 	0.0865	0.9821	0.36204	-0.453
Mof_C 	C 	0.1748	0.1765	0.5427	-0.19
Mof_C 	C 	0.2495	0.2476	0.5189	0.118
Mof_H 	H 	0.2761	0.255	0.485	0.001
Mof_C 	C 	0.2843	0.3071	0.545	-0.206
Mof_C 	C 	0.248	0.2947	0.5957	0.07
Mof_H 	H 	0.2741	0.333	0.6135	0.011
Mof_C 	C 	0.1711	0.2238	0.6207	-0.095
Mof_C 	C 	0.1343	0.1667	0.5934	0.059
Mof_H 	H 	0.0821	0.1214	0.6091	0.009
Mof_C 	C 	0.1329	0.2118	0.676	0.121
Mof_C 	C 	0.0384	0.1681	0.6982	-0.165
Mof_H 	H 	0.9973	0.1475	0.679	0.082
Mof_C 	C 	0.0051	0.1552	0.7498	0.093
Mof_H 	H 	0.9417	0.1252	0.7647	0.001
Mof_C 	C 	0.0637	0.1857	0.7788	-0.151
Mof_C 	C 	0.1532	0.2359	0.756	0.086
Mof_H 	H 	0.1914	0.2614	0.7748	0.006
Mof_C 	C 	0.1869	0.2486	0.7048	-0.176
Mof_H 	H 	0.2477	0.2829	0.6898	0.098
Mof_C 	C 	0.1407	0.1113	0.5133	0.452
Mof_C 	C 	0.3601	0.3879	0.5183	0.502
Mof_C 	C 	0.0272	0.1696	0.8347	0.37
Mof_C 	C 	0.2338	0.6173	0.6251	-0.107
Mof_C 	C 	0.2046	0.7019	0.592	0.052
Mof_H 	H 	0.2503	0.7287	0.5628	0.017
Mof_C 	C 	0.1056	0.7474	0.6025	-0.15
Mof_C 	C 	0.0387	0.7073	0.6466	0.02
Mof_H 	H 	0.9738	0.7386	0.6539	0.038
Mof_C 	C 	0.0666	0.621	0.6804	-0.067
Mof_C 	C 	0.1647	0.5772	0.6686	0.008
Mof_H 	H 	0.1847	0.5195	0.6903	0.034
Mof_C 	C 	0.9891	0.5738	0.7248	0.118
Mof_C 	C 	0.983	0.4712	0.7401	-0.184
Mof_H 	H 	0.032	0.4318	0.7241	0.095
Mof_C 	C 	0.9066	0.4249	0.7785	0.094
Mof_H 	H 	0.9047	0.3556	0.7877	-0.003
Mof_C 	C 	0.8323	0.4823	0.8034	-0.188
Mof_C 	C 	0.8403	0.5848	0.7892	0.098
Mof_H 	H 	0.7932	0.6244	0.8059	0.007
Mof_C 	C 	0.918	0.6306	0.75	-0.181
Mof_H 	H 	0.9214	0.6999	0.741	0.098
Mof_C 	C 	0.3393	0.5675	0.6141	0.314
Mof_C 	C 	0.0702	0.8363	0.5652	0.457
Mof_C 	C 	0.7436	0.4353	0.8414	0.408
Mof_C 	C 	0.2375	0.8974	0.8999	-0.175
Mof_C 	C 	0.2848	0.8037	0.9119	0.074
Mof_H 	H 	0.2613	0.7604	0.9425	0.001
Mof_C 	C 	0.3669	0.7731	0.8789	-0.123
Mof_C 	C 	0.4009	0.8378	0.8333	0.018
Mof_H 	H 	0.4548	0.8171	0.8108	0.031
Mof_C 	C 	0.3564	0.9331	0.8204	-0.068
Mof_C 	C 	0.2734	0.9617	0.8541	0.035
Mof_H 	H 	0.2419	0.0248	0.8458	0.03
Mof_C 	C 	0.3983	0.0045	0.7723	0.106
Mof_C 	C 	0.4008	0.1046	0.7703	-0.166
Mof_H 	H 	0.3757	0.1277	0.799	0.081
Mof_C 	C 	0.4408	0.1722	0.7258	0.087
Mof_H 	H 	0.4411	0.2398	0.7251	-0.004
Mof_C 	C 	0.4797	0.1396	0.6829	-0.171
Mof_C 	C 	0.4785	0.0398	0.6844	0.086
Mof_H 	H 	0.5043	0.0171	0.6557	0.005
Mof_C 	C 	0.439	0.9721	0.7286	-0.159
Mof_H 	H 	0.4396	0.9045	0.7292	0.085
Mof_C 	C 	0.1508	0.9316	0.9363	0.484
Mof_C 	C 	0.4192	0.6724	0.8923	0.323
Mof_C 	C 	0.5189	0.2157	0.635	0.411
Mof_C 	C 	0.3015	0.2921	0.0477	-0.244
Mof_C 	C 	0.2482	0.2465	0.0208	0.141
Mof_H 	H 	0.2544	0.2704	0.9863	-0.015
Mof_C 	C 	0.1856	0.1651	0.0452	-0.226
Mof_C 	C 	0.1763	0.1307	0.0961	0.092
Mof_H 	H 	0.1366	0.075	0.1121	0
Mof_C 	C 	0.2244	0.1765	0.1245	-0.116
Mof_C 	C 	0.288	0.2581	0.1001	0.092
Mof_H 	H 	0.3212	0.2895	0.1185	0.003
Mof_C 	C 	0.2097	0.141	0.1801	0.124
Mof_C 	C 	0.2865	0.149	0.2069	-0.173
Mof_H 	H 	0.3495	0.177	0.1898	0.095
Mof_C 	C 	0.2722	0.1164	0.2585	0.076
Mof_H 	H 	0.3257	0.1212	0.2755	0.012
Mof_C 	C 	0.1779	0.0766	0.2847	-0.139
Mof_C 	C 	0.1007	0.0692	0.2588	0.073
Mof_H 	H 	0.0368	0.0435	0.2762	0.019
Mof_C 	C 	0.1161	0.0996	0.2067	-0.167
Mof_H 	H 	0.0634	0.0921	0.1897	0.095
Mof_C 	C 	0.3696	0.3767	0.021	0.56
Mof_C 	C 	0.1273	0.1197	0.0151	0.509
Mof_C 	C 	0.1606	0.0384	0.3409	0.356
Mof_Eu	Eu	0.48313	0.51919	0.08585	1.954
_end
