data_functionalizedCrystal
_audit_creation_method	'EQeq! by Chris Wilmer'
_symmetry_space_group_name_H-M	'P1'
_symmetry_Int_Tables_number	1
_symmetry_cell_setting	triclinic
loop_
_symmetry_equiv_pos_as_xyz
  x,y,z
_cell_length_a	14.7533
_cell_length_b	14.7533
_cell_length_c	14.7533
_cell_angle_alpha	109.471
_cell_angle_beta	109.471
_cell_angle_gamma	109.471
loop_
_atom_site_label
_atom_site_type_symbol
_atom_site_fract_x
_atom_site_fract_y
_atom_site_fract_z
_atom_site_charge
Mof_Zn	Zn	0.75	0.25	0.5	1.174
Mof_Zn	Zn	0.25	0.75	0.5	1.174
Mof_Zn	Zn	0.5	0.25	0.75	1.175
Mof_Zn	Zn	0.5	0.75	0.25	1.175
Mof_Zn	Zn	0.25	0.5	0.75	1.175
Mof_Zn	Zn	0.75	0.5	0.25	1.175
Mof_C 	C 	0.6772	0.21284	0.26926	-0.008
Mof_C 	C 	0.94358	0.40794	0.73074	-0.013
Mof_C 	C 	0.05642	0.78716	0.46436	-0.005
Mof_C 	C 	0.3228	0.59206	0.53564	-0.009
Mof_C 	C 	0.46436	0.05642	0.78716	-0.005
Mof_C 	C 	0.53564	0.3228	0.59206	-0.009
Mof_C 	C 	0.26926	0.6772	0.21284	-0.009
Mof_C 	C 	0.73074	0.94358	0.40794	-0.014
Mof_C 	C 	0.40794	0.73074	0.94358	-0.019
Mof_C 	C 	0.21284	0.26926	0.6772	-0.009
Mof_C 	C 	0.59206	0.53564	0.3228	-0.009
Mof_C 	C 	0.78716	0.46436	0.05642	0.001
Mof_C 	C 	0.40794	0.94358	0.73074	-0.014
Mof_C 	C 	0.21284	0.6772	0.26926	-0.008
Mof_C 	C 	0.59206	0.3228	0.53564	-0.009
Mof_C 	C 	0.78716	0.05642	0.46436	-0.004
Mof_C 	C 	0.6772	0.26926	0.21284	-0.008
Mof_C 	C 	0.94358	0.73074	0.40794	-0.013
Mof_C 	C 	0.05642	0.46436	0.78716	-0.005
Mof_C 	C 	0.3228	0.53564	0.59206	-0.009
Mof_C 	C 	0.46436	0.78716	0.05642	0.001
Mof_C 	C 	0.53564	0.59206	0.3228	-0.009
Mof_C 	C 	0.26926	0.21284	0.6772	-0.008
Mof_C 	C 	0.73074	0.40794	0.94358	-0.019
Mof_C 	C 	0.81344	0.49333	0.49333	-0.239
Mof_C 	C 	0.75596	0.38689	0.38689	0.13
Mof_C 	C 	-1.14974e-17	0.32011	0.50667	-0.234
Mof_C 	C 	-2.29949e-17	0.36907	0.61311	0.131
Mof_C 	C 	-1.14974e-17	0.50667	0.32011	-0.235
Mof_C 	C 	-0	0.61311	0.36907	0.132
Mof_C 	C 	0.18656	0.67989	0.67989	-0.239
Mof_C 	C 	0.24404	0.63093	0.63093	0.128
Mof_C 	C 	0.32011	4.59897e-17	0.50667	-0.236
Mof_C 	C 	0.36907	-4.59897e-17	0.61311	0.132
Mof_C 	C 	0.67989	0.18656	0.67989	-0.236
Mof_C 	C 	0.63093	0.24404	0.63093	0.129
Mof_C 	C 	0.49333	0.81344	0.49333	-0.239
Mof_C 	C 	0.38689	0.75596	0.38689	0.13
Mof_C 	C 	0.50667	0	0.32011	-0.235
Mof_C 	C 	0.61311	0	0.36907	0.133
Mof_C 	C 	0.32011	0.50667	-0	-0.229
Mof_C 	C 	0.36907	0.61311	-0	0.134
Mof_C 	C 	0.49333	0.49333	0.81344	-0.238
Mof_C 	C 	0.38689	0.38689	0.75596	0.129
Mof_C 	C 	0.67989	0.67989	0.18656	-0.239
Mof_C 	C 	0.63093	0.63093	0.24404	0.129
Mof_C 	C 	0.50667	0.32011	-0	-0.222
Mof_C 	C 	0.61311	0.36907	-0	0.133
Mof_N 	N 	0.72717	0.28738	0.37979	-0.292
Mof_N 	N 	0.90759	0.34738	0.62021	-0.293
Mof_N 	N 	0.09241	0.71262	0.43979	-0.293
Mof_N 	N 	0.27283	0.65262	0.56021	-0.292
Mof_N 	N 	0.43979	0.09241	0.71262	-0.293
Mof_N 	N 	0.56021	0.27283	0.65262	-0.293
Mof_N 	N 	0.37979	0.72717	0.28738	-0.292
Mof_N 	N 	0.62021	0.90759	0.34738	-0.293
Mof_N 	N 	0.34738	0.62021	0.90759	-0.294
Mof_N 	N 	0.28738	0.37979	0.72717	-0.292
Mof_N 	N 	0.65262	0.56021	0.27283	-0.292
Mof_N 	N 	0.71262	0.43979	0.09241	-0.294
Mof_N 	N 	0.34738	0.90759	0.62021	-0.294
Mof_N 	N 	0.28738	0.72717	0.37979	-0.292
Mof_N 	N 	0.65262	0.27283	0.56021	-0.292
Mof_N 	N 	0.71262	0.09241	0.43979	-0.293
Mof_N 	N 	0.72717	0.37979	0.28738	-0.292
Mof_N 	N 	0.90759	0.62021	0.34738	-0.293
Mof_N 	N 	0.09241	0.43979	0.71262	-0.294
Mof_N 	N 	0.27283	0.56021	0.65262	-0.293
Mof_N 	N 	0.43979	0.71262	0.09241	-0.294
Mof_N 	N 	0.56021	0.65262	0.27283	-0.292
Mof_N 	N 	0.37979	0.28738	0.72717	-0.292
Mof_N 	N 	0.62021	0.34738	0.90759	-0.294
Mof_H 	H 	0.63921	0.11884	0.22257	-0
Mof_H 	H 	0.89626	0.41664	0.77743	-0
Mof_H 	H 	0.36079	0.58336	0.47962	-0.001
Mof_H 	H 	0.52038	0.10374	0.88116	-0.004
Mof_H 	H 	0.47962	0.36079	0.58336	-0.001
Mof_H 	H 	0.22257	0.63921	0.11884	0
Mof_H 	H 	0.77743	0.89626	0.41664	-0.001
Mof_H 	H 	0.41664	0.77743	0.89626	-0.001
Mof_H 	H 	0.11884	0.22257	0.63921	-0.001
Mof_H 	H 	0.58336	0.47962	0.36079	-0.001
Mof_H 	H 	0.88116	0.52038	0.10374	-0.002
Mof_H 	H 	0.11884	0.63921	0.22257	-0
Mof_H 	H 	0.58336	0.36079	0.47962	-0.001
Mof_H 	H 	0.88116	0.10374	0.52038	-0.002
Mof_H 	H 	0.63921	0.22257	0.11884	0.001
Mof_H 	H 	0.89626	0.77743	0.41664	-0.001
Mof_H 	H 	0.10374	0.52038	0.88116	-0.002
Mof_H 	H 	0.36079	0.47962	0.58336	-0.001
Mof_H 	H 	0.52038	0.88116	0.10374	-0.003
Mof_H 	H 	0.47962	0.58336	0.36079	-0.001
Mof_H 	H 	0.22257	0.11884	0.63921	-0.001
Mof_H 	H 	0.77743	0.41664	0.89626	-0.001
Mof_H 	H 	0.86204	0.56511	0.48454	0.036
Mof_H 	H 	0.8729	0.48949	0.56298	0.04
Mof_H 	H 	0.74925	0.50662	0.51369	0.049
Mof_H 	H 	0.0518	0.38955	0.49712	0.047
Mof_H 	H 	0.91119	0.26983	0.4342	0.029
Mof_H 	H 	0.03701	0.26358	0.50746	0.047
Mof_H 	H 	0.02348	0.50126	0.25304	0.049
Mof_H 	H 	0.91371	0.43383	0.28202	0.031
Mof_H 	H 	0.06281	0.50369	0.38791	0.044
Mof_H 	H 	0.1271	0.6166	0.69009	0.04
Mof_H 	H 	0.13796	0.70307	0.62251	0.037
Mof_H 	H 	0.25075	0.75736	0.76444	0.048
Mof_H 	H 	0.30238	0.92218	0.43565	0.036
Mof_H 	H 	0.38114	0.0767	0.51269	0.039
Mof_H 	H 	0.23945	0.00112	0.49044	0.05
Mof_H 	H 	0.73752	0.17259	0.6483	0.03
Mof_H 	H 	0.61052	0.10315	0.65449	0.049
Mof_H 	H 	0.729	0.24008	0.77424	0.044
Mof_H 	H 	0.56233	0.87528	0.49077	0.04
Mof_H 	H 	0.51538	0.74954	0.505	0.049
Mof_H 	H 	0.48351	0.85936	0.56545	0.035
Mof_H 	H 	0.43392	0.91462	0.28492	0.032
Mof_H 	H 	0.49975	0.02027	0.25081	0.05
Mof_H 	H 	0.50512	0.06512	0.38723	0.044
Mof_H 	H 	0.38948	0.49263	0.04398	0.049
Mof_H 	H 	0.26248	0.43507	0.91078	0.025
Mof_H 	H 	0.271	0.51108	0.04524	0.046
Mof_H 	H 	0.50026	0.52052	0.75107	0.048
Mof_H 	H 	0.56608	0.4807	0.85101	0.032
Mof_H 	H 	0.49488	0.56	0.88211	0.042
Mof_H 	H 	0.61886	0.69557	0.13155	0.039
Mof_H 	H 	0.69762	0.6198	0.13327	0.039
Mof_H 	H 	0.76055	0.76167	0.25099	0.049
Mof_H 	H 	0.48462	0.23416	0.98963	0.041
Mof_H 	H 	0.43767	0.31295	0.92844	0.034
Mof_H 	H 	0.51649	0.37585	0.08193	0.034
Mof_H 	H 	0.41664	0.89626	0.77743	-0.002
Mof_H 	H 	0.10374	0.88116	0.52038	-0.003
_end
