data_functionalizedCrystal
_audit_creation_method	'EQeq! by Chris Wilmer'
_symmetry_space_group_name_H-M	'P1'
_symmetry_Int_Tables_number	1
_symmetry_cell_setting	triclinic
loop_
_symmetry_equiv_pos_as_xyz
  x,y,z
_cell_length_a	7.8888
_cell_length_b	13.7799
_cell_length_c	7.4295
_cell_angle_alpha	90
_cell_angle_beta	90
_cell_angle_gamma	90
loop_
_atom_site_label
_atom_site_type_symbol
_atom_site_fract_x
_atom_site_fract_y
_atom_site_fract_z
_atom_site_charge
Mof_Mg	Mg	0.22587	0.16461	0.25858	1.48
Mof_O 	O 	0.10763	0.26988	0.10834	-0.466
Mof_O 	O 	0.93298	0.33405	0.90949	-0.468
Mof_O 	O 	0.31596	0.2852	0.40169	-0.434
Mof_O 	O 	0.51044	0.35145	0.57951	-0.441
Mof_O 	O 	0.12016	0.04889	0.11786	-0.435
Mof_O 	O 	0.13351	0.9296	0.91832	-0.441
Mof_C 	C 	0.9931	0.26561	0.9958	0.557
Mof_H 	H 	0.9472	0.2046	0.9737	-0.139
Mof_C 	C 	0.447	0.28398	0.4951	0.516
Mof_H 	H 	0.5036	0.2249	0.5018	-0.126
Mof_C 	C 	0.1936	0.99842	0.003	0.51
Mof_H 	H 	0.3058	0.0143	0.9784	-0.12
Mof_Mg	Mg	0.27413	0.83539	0.75858	1.481
Mof_O 	O 	0.39237	0.73012	0.60834	-0.468
Mof_O 	O 	0.56702	0.66595	0.40949	-0.467
Mof_O 	O 	0.18404	0.7148	0.90169	-0.431
Mof_O 	O 	0.98956	0.64855	0.07951	-0.439
Mof_O 	O 	0.37984	0.95111	0.61786	-0.438
Mof_O 	O 	0.36649	0.0704	0.41832	-0.446
Mof_C 	C 	0.5069	0.73439	0.4958	0.563
Mof_H 	H 	0.5528	0.7954	0.4737	-0.139
Mof_C 	C 	0.053	0.71602	0.9951	0.512
Mof_H 	H 	0.9964	0.7751	0.0018	-0.123
Mof_C 	C 	0.3064	0.00158	0.503	0.521
Mof_H 	H 	0.1942	0.9857	0.4784	-0.124
Mof_Mg	Mg	0.77413	0.66461	0.24142	1.481
Mof_O 	O 	0.89237	0.76988	0.39166	-0.464
Mof_O 	O 	0.06702	0.83405	0.59051	-0.466
Mof_O 	O 	0.68404	0.7852	0.09831	-0.43
Mof_O 	O 	0.48956	0.85145	0.92049	-0.437
Mof_O 	O 	0.87984	0.54889	0.38214	-0.44
Mof_O 	O 	0.86649	0.4296	0.58168	-0.448
Mof_C 	C 	0.0069	0.76561	0.5042	0.557
Mof_H 	H 	0.0528	0.7046	0.5263	-0.137
Mof_C 	C 	0.553	0.78398	0.0049	0.509
Mof_H 	H 	0.4964	0.7249	0.9982	-0.123
Mof_C 	C 	0.8064	0.49842	0.497	0.525
Mof_H 	H 	0.6942	0.5143	0.5216	-0.124
Mof_Mg	Mg	0.72587	0.33539	0.74142	1.481
Mof_O 	O 	0.60763	0.23012	0.89166	-0.47
Mof_O 	O 	0.43298	0.16595	0.09051	-0.468
Mof_O 	O 	0.81596	0.2148	0.59831	-0.431
Mof_O 	O 	0.01044	0.14855	0.42049	-0.438
Mof_O 	O 	0.62016	0.45111	0.88214	-0.439
Mof_O 	O 	0.63351	0.5704	0.08168	-0.445
Mof_C 	C 	0.4931	0.23439	0.0042	0.567
Mof_H 	H 	0.4472	0.2954	0.0263	-0.14
Mof_C 	C 	0.947	0.21602	0.5049	0.508
Mof_H 	H 	0.0036	0.2751	0.4982	-0.122
Mof_C 	C 	0.6936	0.50158	0.997	0.52
Mof_H 	H 	0.8058	0.4857	0.0216	-0.121
_end
