# CIF file generated by openbabel 3.1.0, see https://openbabel.org
data_I
_chemical_name_common 'image0'
_cell_length_a 10.4477
_cell_length_b 11.4945
_cell_length_c 12.9583
_cell_angle_alpha 106.639
_cell_angle_beta 90.322
_cell_angle_gamma 93.194
_space_group_name_H-M_alt 'P 1'
_space_group_name_Hall 'P 1'
loop_
    _symmetry_equiv_pos_as_xyz
    x,y,z
loop_
    _atom_site_label
    _atom_site_type_symbol
    _atom_site_fract_x
    _atom_site_fract_y
    _atom_site_fract_z
    _atom_site_occupancy
    Pr1      Pr       0.47424    0.45386    0.33549    1.000
    C1       C        0.49340    0.23160    0.16590    1.000
    C2       C        0.51250    0.74800    0.50460    1.000
    C3       C        0.26420    0.48900    0.56660    1.000
    C4       C        0.49820    0.11330    0.08210    1.000
    C5       C        0.50690    0.87980    0.50480    1.000
    C6       C        0.12870    0.49320    0.53190    1.000
    C7       C        0.44740    0.00530    0.10120    1.000
    C8       C        0.39130    0.93620    0.52630    1.000
    C9       C        0.07540    0.40420    0.44280    1.000
    C10      C        0.39630    0.00360    0.20440    1.000
    H1       H        0.39730    0.07570    0.26000    1.000
    C11      C        0.27760    0.87600    0.55090    1.000
    H2       H        0.27970    0.79610    0.55360    1.000
    C12      C        0.14680    0.30640    0.38340    1.000
    H3       H        0.23110    0.30160    0.40460    1.000
    C13      C        0.34730    0.90030    0.22190    1.000
    H4       H        0.31470    0.90250    0.28900    1.000
    C14      C        0.16760    0.93250    0.57020    1.000
    H5       H        0.09420    0.89110    0.58500    1.000
    C15      C        0.09500    0.21970    0.29630    1.000
    H6       H        0.14390    0.15690    0.25820    1.000
    C16      C        0.34490    0.78850    0.13950    1.000
    H7       H        0.31100    0.71790    0.15300    1.000
    C17      C        0.16190    0.05530    0.56820    1.000
    H8       H        0.08600    0.09460    0.58460    1.000
    C18      C        0.96470    0.22510    0.26330    1.000
    H9       H        0.92930    0.16560    0.20390    1.000
    C19      C        0.39210    0.78360    0.04000    1.000
    H10      H        0.38900    0.70970    0.98640    1.000
    C20      C        0.26600    0.11480    0.54270    1.000
    H11      H        0.26000    0.19410    0.53940    1.000
    C21      C        0.89310    0.31600    0.31790    1.000
    H12      H        0.80870    0.31770    0.29560    1.000
    C22      C        0.44670    0.89160    0.01720    1.000
    C23      C        0.38540    0.05900    0.52050    1.000
    C24      C        0.94430    0.41000    0.40960    1.000
    O1       O        0.38540    0.27750    0.18460    1.000
    O2       O        0.48970    0.67160    0.41440    1.000
    O3       O        0.35460    0.50990    0.50770    1.000
    O4       O        0.59510    0.28380    0.21380    1.000
    O5       O        0.53880    0.72610    0.59040    1.000
    O6       O        0.28470    0.47430    0.65600    1.000
    Pr2      Pr       0.52576    0.54614    0.66451    1.000
    C25      C        0.50660    0.76840    0.83410    1.000
    C26      C        0.48750    0.25200    0.49540    1.000
    C27      C        0.73580    0.51100    0.43340    1.000
    C28      C        0.50180    0.88670    0.91790    1.000
    C29      C        0.49310    0.12020    0.49520    1.000
    C30      C        0.87130    0.50680    0.46810    1.000
    C31      C        0.55260    0.99470    0.89880    1.000
    C32      C        0.60870    0.06380    0.47370    1.000
    C33      C        0.92460    0.59580    0.55720    1.000
    C34      C        0.60370    0.99640    0.79560    1.000
    H13      H        0.60270    0.92430    0.74000    1.000
    C35      C        0.72240    0.12400    0.44910    1.000
    H14      H        0.72030    0.20390    0.44640    1.000
    C36      C        0.85320    0.69360    0.61660    1.000
    H15      H        0.76890    0.69840    0.59540    1.000
    C37      C        0.65270    0.09970    0.77810    1.000
    H16      H        0.68530    0.09750    0.71100    1.000
    C38      C        0.83240    0.06750    0.42980    1.000
    H17      H        0.90580    0.10890    0.41500    1.000
    C39      C        0.90500    0.78030    0.70370    1.000
    H18      H        0.85610    0.84310    0.74180    1.000
    C40      C        0.65510    0.21150    0.86050    1.000
    H19      H        0.68900    0.28210    0.84700    1.000
    C41      C        0.83810    0.94470    0.43180    1.000
    H20      H        0.91400    0.90540    0.41540    1.000
    C42      C        0.03530    0.77490    0.73670    1.000
    H21      H        0.07070    0.83440    0.79610    1.000
    C43      C        0.60790    0.21640    0.96000    1.000
    H22      H        0.61100    0.29030    0.01360    1.000
    C44      C        0.73400    0.88520    0.45730    1.000
    H23      H        0.74000    0.80590    0.46060    1.000
    C45      C        0.10690    0.68400    0.68210    1.000
    H24      H        0.19130    0.68230    0.70440    1.000
    C46      C        0.55330    0.10840    0.98280    1.000
    C47      C        0.61460    0.94100    0.47950    1.000
    C48      C        0.05570    0.59000    0.59040    1.000
    O7       O        0.61460    0.72250    0.81540    1.000
    O8       O        0.51030    0.32840    0.58560    1.000
    O9       O        0.64540    0.49010    0.49230    1.000
    O10      O        0.40490    0.71620    0.78620    1.000
    O11      O        0.46120    0.27390    0.40960    1.000
    O12      O        0.71530    0.52570    0.34400    1.000
