# CIF file generated by openbabel 3.1.0, see https://openbabel.org
data_I
_chemical_name_common 'image0'
_cell_length_a 27.9927
_cell_length_b 13.9755
_cell_length_c 22.6184
_cell_angle_alpha 90
_cell_angle_beta 99.5272
_cell_angle_gamma 90
_space_group_name_H-M_alt 'P 1'
_space_group_name_Hall 'P 1'
loop_
    _symmetry_equiv_pos_as_xyz
    x,y,z
loop_
    _atom_site_label
    _atom_site_type_symbol
    _atom_site_fract_x
    _atom_site_fract_y
    _atom_site_fract_z
    _atom_site_occupancy
    Tb1      Tb       0.03293    0.87657    0.04300    1.000
    Zn1      Zn       0.26291    0.87943    0.35197    1.000
    C1       C        0.19423    0.10060    0.23299    1.000
    H1       H        0.19990    0.15900    0.22600    1.000
    O1       O        0.07987    0.94562    0.13000    1.000
    O2       O        0.08677    0.02548    0.40892    1.000
    O3       O        0.99979    0.03716    0.05690    1.000
    C2       C        0.15376    0.05880    0.20012    1.000
    H2       H        0.13390    0.09300    0.16810    1.000
    O4       O        0.43006    0.66354    0.41753    1.000
    N1       N        0.22613    0.91557    0.42644    1.000
    O5       O        0.07725    0.85621    0.21170    1.000
    C3       C        0.16009    0.97715    0.46942    1.000
    N2       N        0.21248    0.95600    0.28805    1.000
    C4       C        0.24951    0.89119    0.48142    1.000
    O6       O        0.40160    0.13885    0.48366    1.000
    O7       O        0.45085    0.65797    0.51765    1.000
    N3       N        0.31120    0.83090    0.42889    1.000
    C5       C        0.29698    0.84302    0.48274    1.000
    C6       C        0.18432    0.95276    0.52659    1.000
    H3       H        0.17000    0.97270    0.56190    1.000
    C7       C        0.36718    0.76048    0.53193    1.000
    H4       H        0.38350    0.73450    0.56260    1.000
    C8       C        0.11071    0.02278    0.46099    1.000
    C9       C        0.42413    0.68404    0.46934    1.000
    N4       N        0.29045    0.02769    0.35722    1.000
    O8       O        0.40844    0.26276    0.42327    1.000
    O9       O        0.09737    0.05455    0.50737    1.000
    C10      C        0.38894    0.18700    0.43760    1.000
    C11      C        0.32861    0.06070    0.39460    1.000
    H5       H        0.34090    0.02400    0.41670    1.000
    C12      C        0.38054    0.74374    0.47658    1.000
    C13      C        0.18250    0.95652    0.42143    1.000
    H6       H        0.16800    0.97410    0.38310    1.000
    C14      C        0.17229    0.91743    0.25743    1.000
    H7       H        0.16560    0.85300    0.26820    1.000
    C15      C        0.35176    0.78153    0.42659    1.000
    H8       H        0.36210    0.76970    0.39220    1.000
    C16      C        0.22898    0.90842    0.53228    1.000
    H9       H        0.24610    0.88740    0.57160    1.000
    C17      C        0.09568    0.91883    0.18257    1.000
    C18      C        0.26622    0.08870    0.31704    1.000
    C19      C        0.14124    0.96606    0.21360    1.000
    C20      C        0.32494    0.80975    0.53512    1.000
    H10      H        0.31400    0.81330    0.56960    1.000
    C21      C        0.22288    0.04810    0.27753    1.000
    Cl1      Cl       0.22453    0.72885    0.33420    1.000
    C22      C        0.34540    0.15320    0.39421    1.000
    C23      C        0.28054    0.18220    0.31349    1.000
    H11      H        0.26620    0.22400    0.29150    1.000
    C24      C        0.32078    0.21420    0.35171    1.000
    H12      H        0.33080    0.27100    0.35000    1.000
    H13      H        0.97860    0.04200    0.07760    1.000
    H14      H        0.02280    0.07700    0.07470    1.000
    Tb2      Tb       0.53293    0.37657    0.04300    1.000
    Zn2      Zn       0.76291    0.37943    0.35197    1.000
    C25      C        0.69423    0.60060    0.23299    1.000
    H15      H        0.69990    0.65900    0.22600    1.000
    O10      O        0.57987    0.44562    0.13000    1.000
    O11      O        0.58677    0.52548    0.40892    1.000
    O12      O        0.49979    0.53716    0.05690    1.000
    C26      C        0.65376    0.55880    0.20012    1.000
    H16      H        0.63390    0.59300    0.16810    1.000
    O13      O        0.93006    0.16354    0.41753    1.000
    N5       N        0.72613    0.41557    0.42644    1.000
    O14      O        0.57725    0.35621    0.21170    1.000
    C27      C        0.66009    0.47715    0.46942    1.000
    N6       N        0.71248    0.45600    0.28805    1.000
    C28      C        0.74951    0.39119    0.48142    1.000
    O15      O        0.90160    0.63885    0.48366    1.000
    O16      O        0.95085    0.15797    0.51765    1.000
    N7       N        0.81120    0.33090    0.42889    1.000
    C29      C        0.79698    0.34302    0.48274    1.000
    C30      C        0.68432    0.45276    0.52659    1.000
    H17      H        0.67000    0.47270    0.56190    1.000
    C31      C        0.86718    0.26048    0.53193    1.000
    H18      H        0.88350    0.23450    0.56260    1.000
    C32      C        0.61071    0.52278    0.46099    1.000
    C33      C        0.92413    0.18404    0.46934    1.000
    N8       N        0.79045    0.52769    0.35722    1.000
    O17      O        0.90844    0.76276    0.42327    1.000
    O18      O        0.59737    0.55455    0.50737    1.000
    C34      C        0.88894    0.68700    0.43760    1.000
    C35      C        0.82861    0.56070    0.39460    1.000
    H19      H        0.84090    0.52400    0.41670    1.000
    C36      C        0.88054    0.24374    0.47658    1.000
    C37      C        0.68250    0.45652    0.42143    1.000
    H20      H        0.66800    0.47410    0.38310    1.000
    C38      C        0.67229    0.41743    0.25743    1.000
    H21      H        0.66560    0.35300    0.26820    1.000
    C39      C        0.85176    0.28153    0.42659    1.000
    H22      H        0.86210    0.26970    0.39220    1.000
    C40      C        0.72898    0.40842    0.53228    1.000
    H23      H        0.74610    0.38740    0.57160    1.000
    C41      C        0.59568    0.41883    0.18257    1.000
    C42      C        0.76622    0.58870    0.31704    1.000
    C43      C        0.64124    0.46606    0.21360    1.000
    C44      C        0.82494    0.30975    0.53512    1.000
    H24      H        0.81400    0.31330    0.56960    1.000
    C45      C        0.72288    0.54810    0.27753    1.000
    Cl2      Cl       0.72453    0.22885    0.33420    1.000
    C46      C        0.84540    0.65320    0.39421    1.000
    C47      C        0.78054    0.68220    0.31349    1.000
    H25      H        0.76620    0.72400    0.29150    1.000
    C48      C        0.82078    0.71420    0.35171    1.000
    H26      H        0.83080    0.77100    0.35000    1.000
    H27      H        0.47860    0.54200    0.07760    1.000
    H28      H        0.52280    0.57700    0.07470    1.000
    Tb3      Tb       0.96707    0.87657    0.45700    1.000
    Zn3      Zn       0.73709    0.87943    0.14803    1.000
    C49      C        0.80577    0.10060    0.26701    1.000
    H29      H        0.80010    0.15900    0.27400    1.000
    O19      O        0.92013    0.94562    0.37000    1.000
    O20      O        0.91323    0.02548    0.09108    1.000
    O21      O        0.00021    0.03716    0.44310    1.000
    C50      C        0.84624    0.05880    0.29988    1.000
    H30      H        0.86610    0.09300    0.33190    1.000
    O22      O        0.56994    0.66354    0.08247    1.000
    N9       N        0.77387    0.91557    0.07356    1.000
    O23      O        0.92275    0.85621    0.28830    1.000
    C51      C        0.83991    0.97715    0.03058    1.000
    N10      N        0.78752    0.95600    0.21195    1.000
    C52      C        0.75049    0.89119    0.01858    1.000
    O24      O        0.59840    0.13885    0.01634    1.000
    O25      O        0.54915    0.65797    0.98235    1.000
    N11      N        0.68880    0.83090    0.07111    1.000
    C53      C        0.70302    0.84302    0.01726    1.000
    C54      C        0.81568    0.95276    0.97341    1.000
    H31      H        0.83000    0.97270    0.93810    1.000
    C55      C        0.63282    0.76048    0.96807    1.000
    H32      H        0.61650    0.73450    0.93740    1.000
    C56      C        0.88929    0.02278    0.03901    1.000
    C57      C        0.57587    0.68404    0.03066    1.000
    N12      N        0.70955    0.02769    0.14278    1.000
    O26      O        0.59156    0.26276    0.07673    1.000
    O27      O        0.90263    0.05455    0.99263    1.000
    C58      C        0.61106    0.18700    0.06240    1.000
    C59      C        0.67139    0.06070    0.10540    1.000
    H33      H        0.65910    0.02400    0.08330    1.000
    C60      C        0.61946    0.74374    0.02342    1.000
    C61      C        0.81750    0.95652    0.07857    1.000
    H34      H        0.83200    0.97410    0.11690    1.000
    C62      C        0.82771    0.91743    0.24257    1.000
    H35      H        0.83440    0.85300    0.23180    1.000
    C63      C        0.64824    0.78153    0.07341    1.000
    H36      H        0.63790    0.76970    0.10780    1.000
    C64      C        0.77102    0.90842    0.96772    1.000
    H37      H        0.75390    0.88740    0.92840    1.000
    C65      C        0.90432    0.91883    0.31743    1.000
    C66      C        0.73378    0.08870    0.18296    1.000
    C67      C        0.85876    0.96606    0.28640    1.000
    C68      C        0.67506    0.80975    0.96488    1.000
    H38      H        0.68600    0.81330    0.93040    1.000
    C69      C        0.77712    0.04810    0.22247    1.000
    Cl3      Cl       0.77547    0.72885    0.16580    1.000
    C70      C        0.65460    0.15320    0.10579    1.000
    C71      C        0.71946    0.18220    0.18651    1.000
    H39      H        0.73380    0.22400    0.20850    1.000
    C72      C        0.67922    0.21420    0.14829    1.000
    H40      H        0.66920    0.27100    0.15000    1.000
    H41      H        0.02140    0.04200    0.42240    1.000
    H42      H        0.97720    0.07700    0.42530    1.000
    Tb4      Tb       0.46707    0.37657    0.45700    1.000
    Zn4      Zn       0.23709    0.37943    0.14803    1.000
    C73      C        0.30577    0.60060    0.26701    1.000
    H43      H        0.30010    0.65900    0.27400    1.000
    O28      O        0.42013    0.44562    0.37000    1.000
    O29      O        0.41323    0.52548    0.09108    1.000
    O30      O        0.50021    0.53716    0.44310    1.000
    C74      C        0.34624    0.55880    0.29988    1.000
    H44      H        0.36610    0.59300    0.33190    1.000
    O31      O        0.06994    0.16354    0.08247    1.000
    N13      N        0.27387    0.41557    0.07356    1.000
    O32      O        0.42275    0.35621    0.28830    1.000
    C75      C        0.33991    0.47715    0.03058    1.000
    N14      N        0.28752    0.45600    0.21195    1.000
    C76      C        0.25049    0.39119    0.01858    1.000
    O33      O        0.09840    0.63885    0.01634    1.000
    O34      O        0.04915    0.15797    0.98235    1.000
    N15      N        0.18880    0.33090    0.07111    1.000
    C77      C        0.20302    0.34302    0.01726    1.000
    C78      C        0.31568    0.45276    0.97341    1.000
    H45      H        0.33000    0.47270    0.93810    1.000
    C79      C        0.13282    0.26048    0.96807    1.000
    H46      H        0.11650    0.23450    0.93740    1.000
    C80      C        0.38929    0.52278    0.03901    1.000
    C81      C        0.07587    0.18404    0.03066    1.000
    N16      N        0.20955    0.52769    0.14278    1.000
    O35      O        0.09156    0.76276    0.07673    1.000
    O36      O        0.40263    0.55455    0.99263    1.000
    C82      C        0.11106    0.68700    0.06240    1.000
    C83      C        0.17139    0.56070    0.10540    1.000
    H47      H        0.15910    0.52400    0.08330    1.000
    C84      C        0.11946    0.24374    0.02342    1.000
    C85      C        0.31750    0.45652    0.07857    1.000
    H48      H        0.33200    0.47410    0.11690    1.000
    C86      C        0.32771    0.41743    0.24257    1.000
    H49      H        0.33440    0.35300    0.23180    1.000
    C87      C        0.14824    0.28153    0.07341    1.000
    H50      H        0.13790    0.26970    0.10780    1.000
    C88      C        0.27102    0.40842    0.96772    1.000
    H51      H        0.25390    0.38740    0.92840    1.000
    C89      C        0.40432    0.41883    0.31743    1.000
    C90      C        0.23378    0.58870    0.18296    1.000
    C91      C        0.35876    0.46606    0.28640    1.000
    C92      C        0.17506    0.30975    0.96488    1.000
    H52      H        0.18600    0.31330    0.93040    1.000
    C93      C        0.27712    0.54810    0.22247    1.000
    Cl4      Cl       0.27547    0.22885    0.16580    1.000
    C94      C        0.15460    0.65320    0.10579    1.000
    C95      C        0.21946    0.68220    0.18651    1.000
    H53      H        0.23380    0.72400    0.20850    1.000
    C96      C        0.17922    0.71420    0.14829    1.000
    H54      H        0.16920    0.77100    0.15000    1.000
    H55      H        0.52140    0.54200    0.42240    1.000
    H56      H        0.47720    0.57700    0.42530    1.000
    Tb5      Tb       0.96707    0.12343    0.95700    1.000
    Zn5      Zn       0.73709    0.12057    0.64803    1.000
    C97      C        0.80577    0.89940    0.76701    1.000
    H57      H        0.80010    0.84100    0.77400    1.000
    O37      O        0.92013    0.05438    0.87000    1.000
    O38      O        0.91323    0.97452    0.59108    1.000
    O39      O        0.00021    0.96284    0.94310    1.000
    C98      C        0.84624    0.94120    0.79988    1.000
    H58      H        0.86610    0.90700    0.83190    1.000
    O40      O        0.56994    0.33646    0.58247    1.000
    N17      N        0.77387    0.08443    0.57356    1.000
    O41      O        0.92275    0.14379    0.78830    1.000
    C99      C        0.83991    0.02285    0.53058    1.000
    N18      N        0.78752    0.04400    0.71195    1.000
    C100     C        0.75049    0.10881    0.51858    1.000
    O42      O        0.59840    0.86115    0.51634    1.000
    O43      O        0.54915    0.34203    0.48235    1.000
    N19      N        0.68880    0.16910    0.57111    1.000
    C101     C        0.70302    0.15698    0.51726    1.000
    C102     C        0.81568    0.04724    0.47341    1.000
    H59      H        0.83000    0.02730    0.43810    1.000
    C103     C        0.63282    0.23952    0.46807    1.000
    H60      H        0.61650    0.26550    0.43740    1.000
    C104     C        0.88929    0.97722    0.53901    1.000
    C105     C        0.57587    0.31596    0.53066    1.000
    N20      N        0.70955    0.97231    0.64278    1.000
    O44      O        0.59156    0.73724    0.57673    1.000
    O45      O        0.90263    0.94545    0.49263    1.000
    C106     C        0.61106    0.81300    0.56240    1.000
    C107     C        0.67139    0.93930    0.60540    1.000
    H61      H        0.65910    0.97600    0.58330    1.000
    C108     C        0.61946    0.25626    0.52342    1.000
    C109     C        0.81750    0.04348    0.57857    1.000
    H62      H        0.83200    0.02590    0.61690    1.000
    C110     C        0.82771    0.08257    0.74257    1.000
    H63      H        0.83440    0.14700    0.73180    1.000
    C111     C        0.64824    0.21847    0.57341    1.000
    H64      H        0.63790    0.23030    0.60780    1.000
    C112     C        0.77102    0.09158    0.46772    1.000
    H65      H        0.75390    0.11260    0.42840    1.000
    C113     C        0.90432    0.08117    0.81743    1.000
    C114     C        0.73378    0.91130    0.68296    1.000
    C115     C        0.85876    0.03394    0.78640    1.000
    C116     C        0.67506    0.19025    0.46488    1.000
    H66      H        0.68600    0.18670    0.43040    1.000
    C117     C        0.77712    0.95190    0.72247    1.000
    Cl5      Cl       0.77547    0.27115    0.66580    1.000
    C118     C        0.65460    0.84680    0.60579    1.000
    C119     C        0.71946    0.81780    0.68651    1.000
    H67      H        0.73380    0.77600    0.70850    1.000
    C120     C        0.67922    0.78580    0.64829    1.000
    H68      H        0.66920    0.72900    0.65000    1.000
    H69      H        0.02140    0.95800    0.92240    1.000
    H70      H        0.97720    0.92300    0.92530    1.000
    Tb6      Tb       0.46707    0.62343    0.95700    1.000
    Zn6      Zn       0.23709    0.62057    0.64803    1.000
    C121     C        0.30577    0.39940    0.76701    1.000
    H71      H        0.30010    0.34100    0.77400    1.000
    O46      O        0.42013    0.55438    0.87000    1.000
    O47      O        0.41323    0.47452    0.59108    1.000
    O48      O        0.50021    0.46284    0.94310    1.000
    C122     C        0.34624    0.44120    0.79988    1.000
    H72      H        0.36610    0.40700    0.83190    1.000
    O49      O        0.06994    0.83646    0.58247    1.000
    N21      N        0.27387    0.58443    0.57356    1.000
    O50      O        0.42275    0.64379    0.78830    1.000
    C123     C        0.33991    0.52285    0.53058    1.000
    N22      N        0.28752    0.54400    0.71195    1.000
    C124     C        0.25049    0.60881    0.51858    1.000
    O51      O        0.09840    0.36115    0.51634    1.000
    O52      O        0.04915    0.84203    0.48235    1.000
    N23      N        0.18880    0.66910    0.57111    1.000
    C125     C        0.20302    0.65698    0.51726    1.000
    C126     C        0.31568    0.54724    0.47341    1.000
    H73      H        0.33000    0.52730    0.43810    1.000
    C127     C        0.13282    0.73952    0.46807    1.000
    H74      H        0.11650    0.76550    0.43740    1.000
    C128     C        0.38929    0.47722    0.53901    1.000
    C129     C        0.07587    0.81596    0.53066    1.000
    N24      N        0.20955    0.47231    0.64278    1.000
    O53      O        0.09156    0.23724    0.57673    1.000
    O54      O        0.40263    0.44545    0.49263    1.000
    C130     C        0.11106    0.31300    0.56240    1.000
    C131     C        0.17139    0.43930    0.60540    1.000
    H75      H        0.15910    0.47600    0.58330    1.000
    C132     C        0.11946    0.75626    0.52342    1.000
    C133     C        0.31750    0.54348    0.57857    1.000
    H76      H        0.33200    0.52590    0.61690    1.000
    C134     C        0.32771    0.58257    0.74257    1.000
    H77      H        0.33440    0.64700    0.73180    1.000
    C135     C        0.14824    0.71847    0.57341    1.000
    H78      H        0.13790    0.73030    0.60780    1.000
    C136     C        0.27102    0.59158    0.46772    1.000
    H79      H        0.25390    0.61260    0.42840    1.000
    C137     C        0.40432    0.58117    0.81743    1.000
    C138     C        0.23378    0.41130    0.68296    1.000
    C139     C        0.35876    0.53394    0.78640    1.000
    C140     C        0.17506    0.69025    0.46488    1.000
    H80      H        0.18600    0.68670    0.43040    1.000
    C141     C        0.27712    0.45190    0.72247    1.000
    Cl6      Cl       0.27547    0.77115    0.66580    1.000
    C142     C        0.15460    0.34680    0.60579    1.000
    C143     C        0.21946    0.31780    0.68651    1.000
    H81      H        0.23380    0.27600    0.70850    1.000
    C144     C        0.17922    0.28580    0.64829    1.000
    H82      H        0.16920    0.22900    0.65000    1.000
    H83      H        0.52140    0.45800    0.92240    1.000
    H84      H        0.47720    0.42300    0.92530    1.000
    Tb7      Tb       0.03293    0.12343    0.54300    1.000
    Zn7      Zn       0.26291    0.12057    0.85197    1.000
    C145     C        0.19423    0.89940    0.73299    1.000
    H85      H        0.19990    0.84100    0.72600    1.000
    O55      O        0.07987    0.05438    0.63000    1.000
    O56      O        0.08677    0.97452    0.90892    1.000
    O57      O        0.99979    0.96284    0.55690    1.000
    C146     C        0.15376    0.94120    0.70012    1.000
    H86      H        0.13390    0.90700    0.66810    1.000
    O58      O        0.43006    0.33646    0.91753    1.000
    N25      N        0.22613    0.08443    0.92644    1.000
    O59      O        0.07725    0.14379    0.71170    1.000
    C147     C        0.16009    0.02285    0.96942    1.000
    N26      N        0.21248    0.04400    0.78805    1.000
    C148     C        0.24951    0.10881    0.98142    1.000
    O60      O        0.40160    0.86115    0.98366    1.000
    O61      O        0.45085    0.34203    0.01765    1.000
    N27      N        0.31120    0.16910    0.92889    1.000
    C149     C        0.29698    0.15698    0.98274    1.000
    C150     C        0.18432    0.04724    0.02659    1.000
    H87      H        0.17000    0.02730    0.06190    1.000
    C151     C        0.36718    0.23952    0.03193    1.000
    H88      H        0.38350    0.26550    0.06260    1.000
    C152     C        0.11071    0.97722    0.96099    1.000
    C153     C        0.42413    0.31596    0.96934    1.000
    N28      N        0.29045    0.97231    0.85722    1.000
    O62      O        0.40844    0.73724    0.92327    1.000
    O63      O        0.09737    0.94545    0.00737    1.000
    C154     C        0.38894    0.81300    0.93760    1.000
    C155     C        0.32861    0.93930    0.89460    1.000
    H89      H        0.34090    0.97600    0.91670    1.000
    C156     C        0.38054    0.25626    0.97658    1.000
    C157     C        0.18250    0.04348    0.92143    1.000
    H90      H        0.16800    0.02590    0.88310    1.000
    C158     C        0.17229    0.08257    0.75743    1.000
    H91      H        0.16560    0.14700    0.76820    1.000
    C159     C        0.35176    0.21847    0.92659    1.000
    H92      H        0.36210    0.23030    0.89220    1.000
    C160     C        0.22898    0.09158    0.03228    1.000
    H93      H        0.24610    0.11260    0.07160    1.000
    C161     C        0.09568    0.08117    0.68257    1.000
    C162     C        0.26622    0.91130    0.81704    1.000
    C163     C        0.14124    0.03394    0.71360    1.000
    C164     C        0.32494    0.19025    0.03512    1.000
    H94      H        0.31400    0.18670    0.06960    1.000
    C165     C        0.22288    0.95190    0.77753    1.000
    Cl7      Cl       0.22453    0.27115    0.83420    1.000
    C166     C        0.34540    0.84680    0.89421    1.000
    C167     C        0.28054    0.81780    0.81349    1.000
    H95      H        0.26620    0.77600    0.79150    1.000
    C168     C        0.32078    0.78580    0.85171    1.000
    H96      H        0.33080    0.72900    0.85000    1.000
    H97      H        0.97860    0.95800    0.57760    1.000
    H98      H        0.02280    0.92300    0.57470    1.000
    Tb8      Tb       0.53293    0.62343    0.54300    1.000
    Zn8      Zn       0.76291    0.62057    0.85197    1.000
    C169     C        0.69423    0.39940    0.73299    1.000
    H99      H        0.69990    0.34100    0.72600    1.000
    O64      O        0.57987    0.55438    0.63000    1.000
    O65      O        0.58677    0.47452    0.90892    1.000
    O66      O        0.49979    0.46284    0.55690    1.000
    C170     C        0.65376    0.44120    0.70012    1.000
    H100     H        0.63390    0.40700    0.66810    1.000
    O67      O        0.93006    0.83646    0.91753    1.000
    N29      N        0.72613    0.58443    0.92644    1.000
    O68      O        0.57725    0.64379    0.71170    1.000
    C171     C        0.66009    0.52285    0.96942    1.000
    N30      N        0.71248    0.54400    0.78805    1.000
    C172     C        0.74951    0.60881    0.98142    1.000
    O69      O        0.90160    0.36115    0.98366    1.000
    O70      O        0.95085    0.84203    0.01765    1.000
    N31      N        0.81120    0.66910    0.92889    1.000
    C173     C        0.79698    0.65698    0.98274    1.000
    C174     C        0.68432    0.54724    0.02659    1.000
    H101     H        0.67000    0.52730    0.06190    1.000
    C175     C        0.86718    0.73952    0.03193    1.000
    H102     H        0.88350    0.76550    0.06260    1.000
    C176     C        0.61071    0.47722    0.96099    1.000
    C177     C        0.92413    0.81596    0.96934    1.000
    N32      N        0.79045    0.47231    0.85722    1.000
    O71      O        0.90844    0.23724    0.92327    1.000
    O72      O        0.59737    0.44545    0.00737    1.000
    C178     C        0.88894    0.31300    0.93760    1.000
    C179     C        0.82861    0.43930    0.89460    1.000
    H103     H        0.84090    0.47600    0.91670    1.000
    C180     C        0.88054    0.75626    0.97658    1.000
    C181     C        0.68250    0.54348    0.92143    1.000
    H104     H        0.66800    0.52590    0.88310    1.000
    C182     C        0.67229    0.58257    0.75743    1.000
    H105     H        0.66560    0.64700    0.76820    1.000
    C183     C        0.85176    0.71847    0.92659    1.000
    H106     H        0.86210    0.73030    0.89220    1.000
    C184     C        0.72898    0.59158    0.03228    1.000
    H107     H        0.74610    0.61260    0.07160    1.000
    C185     C        0.59568    0.58117    0.68257    1.000
    C186     C        0.76622    0.41130    0.81704    1.000
    C187     C        0.64124    0.53394    0.71360    1.000
    C188     C        0.82494    0.69025    0.03512    1.000
    H108     H        0.81400    0.68670    0.06960    1.000
    C189     C        0.72288    0.45190    0.77753    1.000
    Cl8      Cl       0.72453    0.77115    0.83420    1.000
    C190     C        0.84540    0.34680    0.89421    1.000
    C191     C        0.78054    0.31780    0.81349    1.000
    H109     H        0.76620    0.27600    0.79150    1.000
    C192     C        0.82078    0.28580    0.85171    1.000
    H110     H        0.83080    0.22900    0.85000    1.000
    H111     H        0.47860    0.45800    0.57760    1.000
    H112     H        0.52280    0.42300    0.57470    1.000
