data_functionalizedCrystal
_audit_creation_method	'EQeq! by Chris Wilmer'
_symmetry_space_group_name_H-M	'P1'
_symmetry_Int_Tables_number	1
_symmetry_cell_setting	triclinic
loop_
_symmetry_equiv_pos_as_xyz
  x,y,z
_cell_length_a	24.258
_cell_length_b	9.4877
_cell_length_c	16.473
_cell_angle_alpha	90
_cell_angle_beta	118.79
_cell_angle_gamma	90
loop_
_atom_site_label
_atom_site_type_symbol
_atom_site_fract_x
_atom_site_fract_y
_atom_site_fract_z
_atom_site_charge
Mof_Cu	Cu	0.04272	0.17662	0.03882	0.827
Mof_Cu	Cu	0.04255	0.38483	0.37785	0.823
Mof_N 	N 	0.13703	0.0186	0.53	-0.113
Mof_N 	N 	0.07927	0.0066	0.5216	-0.17
Mof_N 	N 	0.04633	0.1198	0.4829	-0.18
Mof_N 	N 	0.08149	0.21	0.464	-0.212
Mof_N 	N 	0.08264	0.3183	0.2988	-0.214
Mof_N 	N 	0.04816	0.3015	0.2069	-0.179
Mof_N 	N 	0.08206	0.2366	0.1764	-0.17
Mof_N 	N 	0.13992	0.2109	0.2476	-0.111
Mof_N 	N 	0.044	0.4345	0.9288	-0.228
Mof_C 	C 	0.2509	0.3028	0.423	-0.044
Mof_H 	H 	0.2514	0.339	0.3709	0.045
Mof_C 	C 	0.1937	0.2566	0.4147	-0.04
Mof_C 	C 	0.1928	0.2031	0.4938	-0.04
Mof_C 	C 	0.1367	0.145	0.4934	0.106
Mof_C 	C 	0.1379	0.2608	0.3216	0.107
Mof_C 	C 	0.0436	0.3319	0.9637	-0.204
Mof_Cu	Cu	0.54272	0.67662	0.03882	0.827
Mof_Cu	Cu	0.54255	0.88483	0.37785	0.822
Mof_N 	N 	0.63703	0.5186	0.53	-0.114
Mof_N 	N 	0.57927	0.5066	0.5216	-0.171
Mof_N 	N 	0.54633	0.6198	0.4829	-0.18
Mof_N 	N 	0.58149	0.71	0.464	-0.212
Mof_N 	N 	0.58264	0.8183	0.2988	-0.214
Mof_N 	N 	0.54816	0.8015	0.2069	-0.178
Mof_N 	N 	0.58206	0.7366	0.1764	-0.169
Mof_N 	N 	0.63992	0.7109	0.2476	-0.111
Mof_N 	N 	0.544	0.9345	0.9288	-0.228
Mof_C 	C 	0.7509	0.8028	0.423	-0.044
Mof_H 	H 	0.7514	0.839	0.3709	0.045
Mof_C 	C 	0.6937	0.7566	0.4147	-0.04
Mof_C 	C 	0.6928	0.7031	0.4938	-0.04
Mof_C 	C 	0.6367	0.645	0.4934	0.106
Mof_C 	C 	0.6379	0.7608	0.3216	0.108
Mof_C 	C 	0.5436	0.8319	0.9637	-0.206
Mof_Cu	Cu	0.95728	0.17662	0.46118	0.827
Mof_Cu	Cu	0.95745	0.38483	0.12215	0.822
Mof_N 	N 	0.86297	0.0186	0.97	-0.115
Mof_N 	N 	0.92073	0.0066	0.9784	-0.173
Mof_N 	N 	0.95367	0.1198	0.0171	-0.179
Mof_N 	N 	0.91851	0.21	0.036	-0.212
Mof_N 	N 	0.91736	0.3183	0.2012	-0.214
Mof_N 	N 	0.95184	0.3015	0.2931	-0.178
Mof_N 	N 	0.91794	0.2366	0.3236	-0.169
Mof_N 	N 	0.86008	0.2109	0.2524	-0.111
Mof_N 	N 	0.956	0.4345	0.5712	-0.228
Mof_C 	C 	0.7491	0.3028	0.077	-0.041
Mof_H 	H 	0.7486	0.339	0.1291	0.044
Mof_C 	C 	0.8063	0.2566	0.0853	-0.042
Mof_C 	C 	0.8072	0.2031	0.0062	-0.037
Mof_C 	C 	0.8633	0.145	0.0066	0.107
Mof_C 	C 	0.8621	0.2608	0.1784	0.108
Mof_C 	C 	0.9564	0.3319	0.5363	-0.206
Mof_Cu	Cu	0.45728	0.67662	0.46118	0.827
Mof_Cu	Cu	0.45745	0.88483	0.12215	0.822
Mof_N 	N 	0.36297	0.5186	0.97	-0.114
Mof_N 	N 	0.42073	0.5066	0.9784	-0.171
Mof_N 	N 	0.45367	0.6198	0.0171	-0.181
Mof_N 	N 	0.41851	0.71	0.036	-0.212
Mof_N 	N 	0.41736	0.8183	0.2012	-0.214
Mof_N 	N 	0.45184	0.8015	0.2931	-0.178
Mof_N 	N 	0.41794	0.7366	0.3236	-0.169
Mof_N 	N 	0.36008	0.7109	0.2524	-0.111
Mof_N 	N 	0.456	0.9345	0.5712	-0.228
Mof_C 	C 	0.2491	0.8028	0.077	-0.048
Mof_H 	H 	0.2486	0.839	0.1291	0.046
Mof_C 	C 	0.3063	0.7566	0.0853	-0.039
Mof_C 	C 	0.3072	0.7031	0.0062	-0.042
Mof_C 	C 	0.3633	0.645	0.0066	0.106
Mof_C 	C 	0.3621	0.7608	0.1784	0.107
Mof_C 	C 	0.4564	0.8319	0.5363	-0.206
Mof_Cu	Cu	0.95728	0.82338	0.96118	0.826
Mof_Cu	Cu	0.95745	0.61517	0.62215	0.822
Mof_N 	N 	0.86297	0.9814	0.47	-0.114
Mof_N 	N 	0.92073	0.9934	0.4784	-0.171
Mof_N 	N 	0.95367	0.8802	0.5171	-0.18
Mof_N 	N 	0.91851	0.79	0.536	-0.212
Mof_N 	N 	0.91736	0.6817	0.7012	-0.214
Mof_N 	N 	0.95184	0.6985	0.7931	-0.179
Mof_N 	N 	0.91794	0.7634	0.8236	-0.17
Mof_N 	N 	0.86008	0.7891	0.7524	-0.111
Mof_N 	N 	0.956	0.5655	0.0712	-0.228
Mof_C 	C 	0.7491	0.6972	0.577	-0.044
Mof_H 	H 	0.7486	0.661	0.6291	0.045
Mof_C 	C 	0.8063	0.7434	0.5853	-0.04
Mof_C 	C 	0.8072	0.7969	0.5062	-0.04
Mof_C 	C 	0.8633	0.855	0.5066	0.106
Mof_C 	C 	0.8621	0.7392	0.6784	0.107
Mof_C 	C 	0.9564	0.6681	0.0363	-0.204
Mof_Cu	Cu	0.45728	0.32338	0.96118	0.827
Mof_Cu	Cu	0.45745	0.11517	0.62215	0.822
Mof_N 	N 	0.36297	0.4814	0.47	-0.114
Mof_N 	N 	0.42073	0.4934	0.4784	-0.171
Mof_N 	N 	0.45367	0.3802	0.5171	-0.18
Mof_N 	N 	0.41851	0.29	0.536	-0.212
Mof_N 	N 	0.41736	0.1817	0.7012	-0.214
Mof_N 	N 	0.45184	0.1985	0.7931	-0.178
Mof_N 	N 	0.41794	0.2634	0.8236	-0.169
Mof_N 	N 	0.36008	0.2891	0.7524	-0.111
Mof_N 	N 	0.456	0.0655	0.0712	-0.228
Mof_C 	C 	0.2491	0.1972	0.577	-0.044
Mof_H 	H 	0.2486	0.161	0.6291	0.045
Mof_C 	C 	0.3063	0.2434	0.5853	-0.04
Mof_C 	C 	0.3072	0.2969	0.5062	-0.04
Mof_C 	C 	0.3633	0.355	0.5066	0.106
Mof_C 	C 	0.3621	0.2392	0.6784	0.108
Mof_C 	C 	0.4564	0.1681	0.0363	-0.206
Mof_Cu	Cu	0.04272	0.82338	0.53882	0.827
Mof_Cu	Cu	0.04255	0.61517	0.87785	0.822
Mof_N 	N 	0.13703	0.9814	0.03	-0.115
Mof_N 	N 	0.07927	0.9934	0.0216	-0.173
Mof_N 	N 	0.04633	0.8802	0.9829	-0.179
Mof_N 	N 	0.08149	0.79	0.964	-0.212
Mof_N 	N 	0.08264	0.6817	0.7988	-0.214
Mof_N 	N 	0.04816	0.6985	0.7069	-0.178
Mof_N 	N 	0.08206	0.7634	0.6764	-0.169
Mof_N 	N 	0.13992	0.7891	0.7476	-0.111
Mof_N 	N 	0.044	0.5655	0.4288	-0.228
Mof_C 	C 	0.2509	0.6972	0.923	-0.041
Mof_H 	H 	0.2514	0.661	0.8709	0.044
Mof_C 	C 	0.1937	0.7434	0.9147	-0.042
Mof_C 	C 	0.1928	0.7969	0.9938	-0.037
Mof_C 	C 	0.1367	0.855	0.9934	0.107
Mof_C 	C 	0.1379	0.7392	0.8216	0.108
Mof_C 	C 	0.0436	0.6681	0.4637	-0.206
Mof_Cu	Cu	0.54272	0.32338	0.53882	0.827
Mof_Cu	Cu	0.54255	0.11517	0.87785	0.822
Mof_N 	N 	0.63703	0.4814	0.03	-0.114
Mof_N 	N 	0.57927	0.4934	0.0216	-0.171
Mof_N 	N 	0.54633	0.3802	0.9829	-0.181
Mof_N 	N 	0.58149	0.29	0.964	-0.212
Mof_N 	N 	0.58264	0.1817	0.7988	-0.214
Mof_N 	N 	0.54816	0.1985	0.7069	-0.178
Mof_N 	N 	0.58206	0.2634	0.6764	-0.169
Mof_N 	N 	0.63992	0.2891	0.7476	-0.111
Mof_N 	N 	0.544	0.0655	0.4288	-0.228
Mof_C 	C 	0.7509	0.1972	0.923	-0.048
Mof_H 	H 	0.7514	0.161	0.8709	0.046
Mof_C 	C 	0.6937	0.2434	0.9147	-0.039
Mof_C 	C 	0.6928	0.2969	0.9938	-0.042
Mof_C 	C 	0.6367	0.355	0.9934	0.106
Mof_C 	C 	0.6379	0.2392	0.8216	0.107
Mof_C 	C 	0.5436	0.1681	0.4637	-0.206
_end
