data_functionalizedCrystal
_audit_creation_method	'EQeq! by Chris Wilmer'
_symmetry_space_group_name_H-M	'P1'
_symmetry_Int_Tables_number	1
_symmetry_cell_setting	triclinic
loop_
_symmetry_equiv_pos_as_xyz
  x,y,z
_cell_length_a	16.1086
_cell_length_b	16.1086
_cell_length_c	27.9632
_cell_angle_alpha	79.9799
_cell_angle_beta	79.9799
_cell_angle_gamma	63.0188
loop_
_atom_site_label
_atom_site_type_symbol
_atom_site_fract_x
_atom_site_fract_y
_atom_site_fract_z
_atom_site_charge
Mof_Sm	Sm	0.53125	0.06657	0.0461	2.169
Mof_Sm	Sm	0.93343	0.46875	0.4539	2.173
Mof_Sm	Sm	0.46875	0.93343	0.9539	2.169
Mof_Sm	Sm	0.06657	0.53125	0.5461	2.173
Mof_H 	H 	0.6332	0.065	0.2028	0.02
Mof_H 	H 	0.7076	0.1062	0.2537	0.096
Mof_H 	H 	0.8406	0.195	0.1337	0.095
Mof_H 	H 	0.7599	0.1601	0.0855	0.02
Mof_H 	H 	0.3257	0.8271	0.09	-0.032
Mof_H 	H 	0.2612	0.7676	0.1583	0.138
Mof_H 	H 	0.3676	0.865	0.2424	0.117
Mof_H 	H 	0.4291	0.9337	0.1707	-0.017
Mof_H 	H 	0.8233	0.7891	0.0561	-0.014
Mof_H 	H 	0.9497	0.6465	0.0428	0.125
Mof_H 	H 	0.8064	0.588	0.9611	0.133
Mof_H 	H 	0.682	0.7322	0.9689	-0.102
Mof_H 	H 	0.935	0.3668	0.2972	0.021
Mof_H 	H 	0.8938	0.2924	0.2463	0.097
Mof_H 	H 	0.805	0.1594	0.3663	0.095
Mof_H 	H 	0.8399	0.2401	0.4145	0.021
Mof_H 	H 	0.1729	0.6743	0.41	-0.032
Mof_H 	H 	0.2324	0.7388	0.3417	0.138
Mof_H 	H 	0.135	0.6324	0.2576	0.117
Mof_H 	H 	0.0663	0.5709	0.3293	-0.017
Mof_H 	H 	0.2109	0.1767	0.4439	-0.015
Mof_H 	H 	0.3535	0.0503	0.4572	0.126
Mof_H 	H 	0.412	0.1936	0.5389	0.134
Mof_H 	H 	0.2678	0.318	0.5311	-0.103
Mof_H 	H 	0.3668	0.935	0.7972	0.021
Mof_H 	H 	0.2924	0.8938	0.7463	0.097
Mof_H 	H 	0.1594	0.805	0.8663	0.095
Mof_H 	H 	0.2401	0.8399	0.9145	0.02
Mof_H 	H 	0.6743	0.1729	0.91	-0.032
Mof_H 	H 	0.7388	0.2324	0.8417	0.138
Mof_H 	H 	0.6324	0.135	0.7576	0.117
Mof_H 	H 	0.5709	0.0663	0.8293	-0.017
Mof_H 	H 	0.1767	0.2109	0.9439	-0.014
Mof_H 	H 	0.0503	0.3535	0.9572	0.125
Mof_H 	H 	0.1936	0.412	0.0389	0.133
Mof_H 	H 	0.318	0.2678	0.0311	-0.102
Mof_H 	H 	0.065	0.6332	0.7028	0.021
Mof_H 	H 	0.1062	0.7076	0.7537	0.097
Mof_H 	H 	0.195	0.8406	0.6337	0.095
Mof_H 	H 	0.1601	0.7599	0.5855	0.021
Mof_H 	H 	0.8271	0.3257	0.59	-0.032
Mof_H 	H 	0.7676	0.2612	0.6583	0.138
Mof_H 	H 	0.865	0.3676	0.7424	0.117
Mof_H 	H 	0.9337	0.4291	0.6707	-0.017
Mof_H 	H 	0.7891	0.8233	0.5561	-0.015
Mof_H 	H 	0.6465	0.9497	0.5428	0.126
Mof_H 	H 	0.588	0.8064	0.4611	0.134
Mof_H 	H 	0.7322	0.682	0.4689	-0.103
Mof_C 	C 	0.64529	0.07709	0.10971	0.316
Mof_C 	C 	0.7054	0.0922	0.13885	-0.115
Mof_C 	C 	0.67793	0.08653	0.18965	0.052
Mof_C 	C 	0.71993	0.11453	0.21991	-0.163
Mof_C 	C 	0.7796	0.1542	0.19912	0.15
Mof_C 	C 	0.79958	0.16898	0.14747	-0.166
Mof_C 	C 	0.75581	0.14301	0.11908	0.066
Mof_C 	C 	0.42113	0.92393	0.07698	0.512
Mof_C 	C 	0.38147	0.88707	0.12269	-0.254
Mof_C 	C 	0.33298	0.83678	0.12057	0.19
Mof_C 	C 	0.29481	0.80021	0.16113	-0.281
Mof_C 	C 	0.30707	0.81227	0.20493	0.223
Mof_C 	C 	0.35839	0.85979	0.2114	-0.235
Mof_C 	C 	0.3961	0.9001	0.16837	0.151
Mof_C 	C 	0.66537	0.87017	0.01899	0.53
Mof_C 	C 	0.74074	0.77674	0.01253	-0.282
Mof_C 	C 	0.82067	0.75007	0.03603	0.176
Mof_C 	C 	0.8952	0.6646	0.0286	-0.247
Mof_C 	C 	0.88955	0.60215	0.9986	0.239
Mof_C 	C 	0.81084	0.62904	0.979	-0.312
Mof_C 	C 	0.73537	0.71497	0.98395	0.222
Mof_C 	C 	0.92291	0.35471	0.39029	0.316
Mof_C 	C 	0.9078	0.2946	0.36115	-0.114
Mof_C 	C 	0.91347	0.32207	0.31035	0.052
Mof_C 	C 	0.88547	0.28007	0.28009	-0.163
Mof_C 	C 	0.8458	0.2204	0.30088	0.15
Mof_C 	C 	0.83102	0.20042	0.35253	-0.166
Mof_C 	C 	0.85699	0.24419	0.38092	0.066
Mof_C 	C 	0.07607	0.57887	0.42302	0.512
Mof_C 	C 	0.11293	0.61853	0.37731	-0.255
Mof_C 	C 	0.16322	0.66702	0.37943	0.19
Mof_C 	C 	0.19979	0.70519	0.33887	-0.282
Mof_C 	C 	0.18773	0.69293	0.29507	0.223
Mof_C 	C 	0.14021	0.64161	0.2886	-0.236
Mof_C 	C 	0.0999	0.6039	0.33163	0.151
Mof_C 	C 	0.12983	0.33463	0.48101	0.529
Mof_C 	C 	0.22326	0.25926	0.48747	-0.284
Mof_C 	C 	0.24993	0.17933	0.46397	0.178
Mof_C 	C 	0.3354	0.1048	0.4714	-0.25
Mof_C 	C 	0.39785	0.11045	0.5014	0.241
Mof_C 	C 	0.37096	0.18916	0.521	-0.314
Mof_C 	C 	0.28503	0.26463	0.51605	0.225
Mof_C 	C 	0.35471	0.92291	0.89029	0.316
Mof_C 	C 	0.2946	0.9078	0.86115	-0.115
Mof_C 	C 	0.32207	0.91347	0.81035	0.052
Mof_C 	C 	0.28007	0.88547	0.78009	-0.163
Mof_C 	C 	0.2204	0.8458	0.80088	0.15
Mof_C 	C 	0.20042	0.83102	0.85253	-0.166
Mof_C 	C 	0.24419	0.85699	0.88092	0.066
Mof_C 	C 	0.57887	0.07607	0.92302	0.512
Mof_C 	C 	0.61853	0.11293	0.87731	-0.254
Mof_C 	C 	0.66702	0.16322	0.87943	0.19
Mof_C 	C 	0.70519	0.19979	0.83887	-0.281
Mof_C 	C 	0.69293	0.18773	0.79507	0.223
Mof_C 	C 	0.64161	0.14021	0.7886	-0.235
Mof_C 	C 	0.6039	0.0999	0.83163	0.151
Mof_C 	C 	0.33463	0.12983	0.98101	0.53
Mof_C 	C 	0.25926	0.22326	0.98747	-0.282
Mof_C 	C 	0.17933	0.24993	0.96397	0.176
Mof_C 	C 	0.1048	0.3354	0.9714	-0.247
Mof_C 	C 	0.11045	0.39785	0.0014	0.239
Mof_C 	C 	0.18916	0.37096	0.021	-0.312
Mof_C 	C 	0.26463	0.28503	0.01605	0.222
Mof_C 	C 	0.07709	0.64529	0.60971	0.316
Mof_C 	C 	0.0922	0.7054	0.63885	-0.114
Mof_C 	C 	0.08653	0.67793	0.68965	0.052
Mof_C 	C 	0.11453	0.71993	0.71991	-0.163
Mof_C 	C 	0.1542	0.7796	0.69912	0.15
Mof_C 	C 	0.16898	0.79958	0.64747	-0.166
Mof_C 	C 	0.14301	0.75581	0.61908	0.066
Mof_C 	C 	0.92393	0.42113	0.57698	0.512
Mof_C 	C 	0.88707	0.38147	0.62269	-0.255
Mof_C 	C 	0.83678	0.33298	0.62057	0.19
Mof_C 	C 	0.80021	0.29481	0.66113	-0.282
Mof_C 	C 	0.81227	0.30707	0.70493	0.223
Mof_C 	C 	0.85979	0.35839	0.7114	-0.236
Mof_C 	C 	0.9001	0.3961	0.66837	0.151
Mof_C 	C 	0.87017	0.66537	0.51899	0.529
Mof_C 	C 	0.77674	0.74074	0.51253	-0.284
Mof_C 	C 	0.75007	0.82067	0.53603	0.178
Mof_C 	C 	0.6646	0.8952	0.5286	-0.25
Mof_C 	C 	0.60215	0.88955	0.4986	0.241
Mof_C 	C 	0.62904	0.81084	0.479	-0.314
Mof_C 	C 	0.71497	0.73537	0.48395	0.225
Mof_N 	N 	0.82001	0.19101	0.2252	-0.102
Mof_N 	N 	0.27595	0.77435	0.24909	-0.115
Mof_N 	N 	0.95578	0.51538	0.99502	-0.124
Mof_N 	N 	0.80899	0.17999	0.2748	-0.102
Mof_N 	N 	0.22565	0.72405	0.25091	-0.115
Mof_N 	N 	0.48462	0.04422	0.50498	-0.125
Mof_N 	N 	0.17999	0.80899	0.7748	-0.102
Mof_N 	N 	0.72405	0.22565	0.75091	-0.115
Mof_N 	N 	0.04422	0.48462	0.00498	-0.124
Mof_N 	N 	0.19101	0.82001	0.7252	-0.102
Mof_N 	N 	0.77435	0.27595	0.74909	-0.115
Mof_N 	N 	0.51538	0.95578	0.49502	-0.125
Mof_O 	O 	0.59047	0.04213	0.12601	-0.455
Mof_O 	O 	0.65658	0.10354	0.06314	-0.438
Mof_O 	O 	0.40814	0.91496	0.03498	-0.573
Mof_O 	O 	0.46905	0.96401	0.08607	-0.565
Mof_O 	O 	0.59699	0.89603	0.99714	-0.661
Mof_O 	O 	0.67558	0.92066	0.04619	-0.487
Mof_O 	O 	0.95787	0.40953	0.37399	-0.455
Mof_O 	O 	0.89646	0.34342	0.43686	-0.438
Mof_O 	O 	0.08504	0.59186	0.46502	-0.575
Mof_O 	O 	0.03599	0.53095	0.41393	-0.567
Mof_O 	O 	0.10397	0.40301	0.50286	-0.66
Mof_O 	O 	0.07934	0.32442	0.45381	-0.488
Mof_O 	O 	0.40953	0.95787	0.87399	-0.455
Mof_O 	O 	0.34342	0.89646	0.93686	-0.438
Mof_O 	O 	0.59186	0.08504	0.96502	-0.573
Mof_O 	O 	0.53095	0.03599	0.91393	-0.565
Mof_O 	O 	0.40301	0.10397	0.00286	-0.661
Mof_O 	O 	0.32442	0.07934	0.95381	-0.487
Mof_O 	O 	0.04213	0.59047	0.62601	-0.455
Mof_O 	O 	0.10354	0.65658	0.56314	-0.438
Mof_O 	O 	0.91496	0.40814	0.53498	-0.575
Mof_O 	O 	0.96401	0.46905	0.58607	-0.567
Mof_O 	O 	0.89603	0.59699	0.49714	-0.66
Mof_O 	O 	0.92066	0.67558	0.54619	-0.488
_end
