data_functionalizedCrystal
_audit_creation_method	'EQeq! by Chris Wilmer'
_symmetry_space_group_name_H-M	'P1'
_symmetry_Int_Tables_number	1
_symmetry_cell_setting	triclinic
loop_
_symmetry_equiv_pos_as_xyz
  x,y,z
_cell_length_a	17.1006
_cell_length_b	17.1006
_cell_length_c	10.7525
_cell_angle_alpha	90
_cell_angle_beta	90
_cell_angle_gamma	90
loop_
_atom_site_label
_atom_site_type_symbol
_atom_site_fract_x
_atom_site_fract_y
_atom_site_fract_z
_atom_site_charge
Mof_W 	W 	0.30815	0.58802	0.05378	1.164
Mof_P 	P 	0.13448	0.66721	0.05305	0.469
Mof_O 	O 	0.3999	0.5427	0.0841	-0.468
Mof_O 	O 	0.2036	0.6322	0.9768	-0.259
Mof_O 	O 	0.319	0.6763	0.1393	-0.455
Mof_O 	O 	0.2837	0.5012	0.9156	-0.381
Mof_O 	O 	0.1076	0.6049	0.1496	-0.369
Mof_O 	O 	0.1596	0.7424	0.1177	-0.382
Mof_O 	O 	0.0664	0.6786	0.9662	-0.395
Mof_W 	W 	0.80815	0.08802	0.55378	1.259
Mof_P 	P 	0.63448	0.16721	0.55305	0.552
Mof_O 	O 	0.8999	0.0427	0.5841	-0.409
Mof_O 	O 	0.7036	0.1322	0.4768	-0.323
Mof_O 	O 	0.819	0.1763	0.6393	-0.435
Mof_O 	O 	0.7837	0.0012	0.4156	-0.462
Mof_O 	O 	0.6076	0.1049	0.6496	-0.337
Mof_O 	O 	0.6596	0.2424	0.6177	-0.358
Mof_O 	O 	0.5664	0.1786	0.4662	-0.396
Mof_W 	W 	0.19185	0.41198	0.55378	1.259
Mof_P 	P 	0.36552	0.33279	0.55305	0.553
Mof_O 	O 	0.1001	0.4573	0.5841	-0.506
Mof_O 	O 	0.2964	0.3678	0.4768	-0.32
Mof_O 	O 	0.181	0.3237	0.6393	-0.476
Mof_O 	O 	0.2163	0.4988	0.4156	-0.407
Mof_O 	O 	0.3924	0.3951	0.6496	-0.332
Mof_O 	O 	0.3404	0.2576	0.6177	-0.365
Mof_O 	O 	0.4336	0.3214	0.4662	-0.39
Mof_W 	W 	0.69185	0.91198	0.05378	1.162
Mof_P 	P 	0.86552	0.83279	0.05305	0.465
Mof_O 	O 	0.6001	0.9573	0.0841	-0.436
Mof_O 	O 	0.7964	0.8678	0.9768	-0.232
Mof_O 	O 	0.681	0.8237	0.1393	-0.455
Mof_O 	O 	0.7163	0.9988	0.9156	-0.303
Mof_O 	O 	0.8924	0.8951	0.1496	-0.296
Mof_O 	O 	0.8404	0.7576	0.1177	-0.342
Mof_O 	O 	0.9336	0.8214	0.9662	-0.237
Mof_W 	W 	0.16198	0.55815	0.30378	1.254
Mof_P 	P 	0.08279	0.38448	0.30305	0.55
Mof_O 	O 	0.2073	0.6499	0.3341	-0.47
Mof_O 	O 	0.1178	0.4536	0.2268	-0.345
Mof_O 	O 	0.0737	0.569	0.3893	-0.509
Mof_O 	O 	0.2488	0.5337	0.1656	-0.407
Mof_O 	O 	0.1451	0.3576	0.3996	-0.348
Mof_O 	O 	0.0076	0.4096	0.3677	-0.443
Mof_O 	O 	0.0714	0.3164	0.2162	-0.441
Mof_W 	W 	0.66198	0.05815	0.80378	1.155
Mof_P 	P 	0.58279	0.88448	0.80305	0.548
Mof_O 	O 	0.7073	0.1499	0.8341	-0.44
Mof_O 	O 	0.6178	0.9536	0.7268	-0.261
Mof_O 	O 	0.5737	0.069	0.8893	-0.446
Mof_O 	O 	0.7488	0.0337	0.6656	-0.418
Mof_O 	O 	0.6451	0.8576	0.8996	-0.29
Mof_O 	O 	0.5076	0.9096	0.8677	-0.306
Mof_O 	O 	0.5714	0.8164	0.7162	-0.377
Mof_W 	W 	0.33802	0.44185	0.80378	1.259
Mof_P 	P 	0.41721	0.61552	0.80305	0.551
Mof_O 	O 	0.2927	0.3501	0.8341	-0.455
Mof_O 	O 	0.3822	0.5464	0.7268	-0.316
Mof_O 	O 	0.4263	0.431	0.8893	-0.433
Mof_O 	O 	0.2512	0.4663	0.6656	-0.413
Mof_O 	O 	0.3549	0.6424	0.8996	-0.298
Mof_O 	O 	0.4924	0.5904	0.8677	-0.336
Mof_O 	O 	0.4286	0.6836	0.7162	-0.383
Mof_W 	W 	0.83802	0.94185	0.30378	1.353
Mof_P 	P 	0.91721	0.11552	0.30305	0.552
Mof_O 	O 	0.7927	0.8501	0.3341	-0.457
Mof_O 	O 	0.8822	0.0464	0.2268	-0.349
Mof_O 	O 	0.9263	0.931	0.3893	-0.361
Mof_O 	O 	0.7512	0.9663	0.1656	-0.383
Mof_O 	O 	0.8549	0.1424	0.3996	-0.321
Mof_O 	O 	0.9924	0.0904	0.3677	-0.269
Mof_O 	O 	0.9286	0.1836	0.2162	-0.321
Mof_W 	W 	0.69185	0.41198	0.94622	1.354
Mof_P 	P 	0.86552	0.33279	0.94695	0.628
Mof_O 	O 	0.6001	0.4573	0.9159	-0.449
Mof_O 	O 	0.7964	0.3678	0.0232	-0.368
Mof_O 	O 	0.681	0.3237	0.8607	-0.46
Mof_O 	O 	0.7163	0.4988	0.0844	-0.43
Mof_O 	O 	0.8924	0.3951	0.8504	-0.294
Mof_O 	O 	0.8404	0.2576	0.8823	-0.335
Mof_O 	O 	0.9336	0.3214	0.0338	-0.342
Mof_W 	W 	0.19185	0.91198	0.44622	1.26
Mof_P 	P 	0.36552	0.83279	0.44695	0.554
Mof_O 	O 	0.1001	0.9573	0.4159	-0.476
Mof_O 	O 	0.2964	0.8678	0.5232	-0.308
Mof_O 	O 	0.181	0.8237	0.3607	-0.478
Mof_O 	O 	0.2163	0.9988	0.5844	-0.342
Mof_O 	O 	0.3924	0.8951	0.3504	-0.329
Mof_O 	O 	0.3404	0.7576	0.3823	-0.363
Mof_O 	O 	0.4336	0.8214	0.5338	-0.38
Mof_W 	W 	0.80815	0.58802	0.44622	1.261
Mof_P 	P 	0.63448	0.66721	0.44695	0.553
Mof_O 	O 	0.8999	0.5427	0.4159	-0.392
Mof_O 	O 	0.7036	0.6322	0.5232	-0.313
Mof_O 	O 	0.819	0.6763	0.3607	-0.437
Mof_O 	O 	0.7837	0.5012	0.5844	-0.404
Mof_O 	O 	0.6076	0.6049	0.3504	-0.334
Mof_O 	O 	0.6596	0.7424	0.3823	-0.356
Mof_O 	O 	0.5664	0.6786	0.5338	-0.386
Mof_W 	W 	0.30815	0.08802	0.94622	1.344
Mof_P 	P 	0.13448	0.16721	0.94695	0.626
Mof_O 	O 	0.3999	0.0427	0.9159	-0.474
Mof_O 	O 	0.2036	0.1322	0.0232	-0.39
Mof_O 	O 	0.319	0.1763	0.8607	-0.458
Mof_O 	O 	0.2837	0.0012	0.0844	-0.501
Mof_O 	O 	0.1076	0.1049	0.8504	-0.369
Mof_O 	O 	0.1596	0.2424	0.8823	-0.375
Mof_O 	O 	0.0664	0.1786	0.0338	-0.501
Mof_W 	W 	0.83802	0.44185	0.69622	1.267
Mof_P 	P 	0.91721	0.61552	0.69695	0.551
Mof_O 	O 	0.7927	0.3501	0.6659	-0.454
Mof_O 	O 	0.8822	0.5464	0.7732	-0.284
Mof_O 	O 	0.9263	0.431	0.6107	-0.378
Mof_O 	O 	0.7512	0.4663	0.8344	-0.406
Mof_O 	O 	0.8549	0.6424	0.6004	-0.314
Mof_O 	O 	0.9924	0.5904	0.6323	-0.249
Mof_O 	O 	0.9286	0.6836	0.7838	-0.302
Mof_W 	W 	0.33802	0.94185	0.19622	1.36
Mof_P 	P 	0.41721	0.11552	0.19695	0.557
Mof_O 	O 	0.2927	0.8501	0.1659	-0.484
Mof_O 	O 	0.3822	0.0464	0.2732	-0.369
Mof_O 	O 	0.4263	0.931	0.1107	-0.454
Mof_O 	O 	0.2512	0.9663	0.3344	-0.394
Mof_O 	O 	0.3549	0.1424	0.1004	-0.369
Mof_O 	O 	0.4924	0.0904	0.1323	-0.393
Mof_O 	O 	0.4286	0.1836	0.2838	-0.399
Mof_W 	W 	0.66198	0.55815	0.19622	1.263
Mof_P 	P 	0.58279	0.38448	0.19695	0.555
Mof_O 	O 	0.7073	0.6499	0.1659	-0.47
Mof_O 	O 	0.6178	0.4536	0.2732	-0.317
Mof_O 	O 	0.5737	0.569	0.1107	-0.474
Mof_O 	O 	0.7488	0.5337	0.3344	-0.4
Mof_O 	O 	0.6451	0.3576	0.1004	-0.365
Mof_O 	O 	0.5076	0.4096	0.1323	-0.377
Mof_O 	O 	0.5714	0.3164	0.2838	-0.392
Mof_W 	W 	0.16198	0.05815	0.69622	1.155
Mof_P 	P 	0.08279	0.88448	0.69695	0.548
Mof_O 	O 	0.2073	0.1499	0.6659	-0.466
Mof_O 	O 	0.1178	0.9536	0.7732	-0.271
Mof_O 	O 	0.0737	0.069	0.6107	-0.52
Mof_O 	O 	0.2488	0.0337	0.8344	-0.432
Mof_O 	O 	0.1451	0.8576	0.6004	-0.339
Mof_O 	O 	0.0076	0.9096	0.6323	-0.408
Mof_O 	O 	0.0714	0.8164	0.7838	-0.419
Mof_Co	Co	0.25	0.75	0.25	1.214
Mof_Co	Co	0.25	0.25	0.75	1.216
Mof_Co	Co	1.17877e-33	0.5	0.5	1.133
Mof_Co	Co	0.5	0	-0	1.159
Mof_Co	Co	0.5	0.5	-0	1.19
Mof_Co	Co	1.17877e-33	0	0.5	1.097
Mof_Co	Co	0.75	0.25	0.75	1.219
Mof_Co	Co	0.75	0.75	0.25	1.217
Mof_Co	Co	2.06285e-33	0.75	0.875	1.134
Mof_Co	Co	0.5	0.25	0.375	1.209
Mof_Co	Co	2.30174e-33	0.25	0.125	1.123
Mof_Co	Co	0.5	0.75	0.625	1.213
_end
