data_functionalizedCrystal
_audit_creation_method	'EQeq! by Chris Wilmer'
_symmetry_space_group_name_H-M	'P1'
_symmetry_Int_Tables_number	1
_symmetry_cell_setting	triclinic
loop_
_symmetry_equiv_pos_as_xyz
  x,y,z
_cell_length_a	5.459
_cell_length_b	18.467
_cell_length_c	11.634
_cell_angle_alpha	90
_cell_angle_beta	94.86
_cell_angle_gamma	90
loop_
_atom_site_label
_atom_site_type_symbol
_atom_site_fract_x
_atom_site_fract_y
_atom_site_fract_z
_atom_site_charge
Mof_Ag	Ag	0.20849	0.04623	0.49247	0.623
Mof_C 	C 	0.2413	0.88	0.4266	0.417
Mof_C 	C 	0.3884	0.8212	0.3724	-0.281
Mof_H 	H 	0.4278	0.8366	0.2964	0.103
Mof_H 	H 	0.5418	0.8136	0.4193	0.106
Mof_C 	C 	0.378	0.6968	0.2965	0.02
Mof_H 	H 	0.5522	0.6973	0.3213	0.02
Mof_H 	H 	0.3596	0.709	0.2151	0.017
Mof_C 	C 	0.2769	0.6209	0.3131	-0.255
Mof_H 	H 	0.3903	0.586	0.2852	0.088
Mof_H 	H 	0.2688	0.6123	0.395	0.091
Mof_C 	C 	0.033	0.6089	0.2536	0.112
Mof_N 	N 	0.2523	0.75255	0.3618	-0.174
Mof_H 	H 	0.092	0.7614	0.3239	0.098
Mof_H 	H 	0.2313	0.73429	0.4376	0.089
Mof_N 	N 	0.8457	0.5974	0.2077	-0.205
Mof_O 	O 	0.0211	0.86869	0.4341	-0.41
Mof_O 	O 	0.3582	0.93644	0.4558	-0.465
Mof_Ag	Ag	0.79151	0.95377	0.50753	0.624
Mof_C 	C 	0.7587	0.12	0.5734	0.418
Mof_C 	C 	0.6116	0.1788	0.6276	-0.28
Mof_H 	H 	0.5722	0.1634	0.7036	0.104
Mof_H 	H 	0.4582	0.1864	0.5807	0.107
Mof_C 	C 	0.622	0.3032	0.7035	0.021
Mof_H 	H 	0.4478	0.3027	0.6787	0.02
Mof_H 	H 	0.6404	0.291	0.7849	0.017
Mof_C 	C 	0.7231	0.3791	0.6869	-0.255
Mof_H 	H 	0.6097	0.414	0.7148	0.088
Mof_H 	H 	0.7312	0.3877	0.605	0.091
Mof_C 	C 	0.967	0.3911	0.7464	0.112
Mof_N 	N 	0.7477	0.24745	0.6382	-0.174
Mof_H 	H 	0.908	0.2386	0.6761	0.098
Mof_H 	H 	0.7687	0.26571	0.5624	0.089
Mof_N 	N 	0.1543	0.4026	0.7923	-0.205
Mof_O 	O 	0.9789	0.13131	0.5659	-0.41
Mof_O 	O 	0.6418	0.06356	0.5442	-0.465
Mof_C 	C 	0.7587	0.38	0.0734	0.418
Mof_C 	C 	0.6116	0.3212	0.1276	-0.28
Mof_H 	H 	0.5722	0.3366	0.2036	0.104
Mof_H 	H 	0.4582	0.3136	0.0807	0.107
Mof_C 	C 	0.622	0.1968	0.2035	0.022
Mof_H 	H 	0.4478	0.1973	0.1787	0.02
Mof_H 	H 	0.6404	0.209	0.2849	0.017
Mof_C 	C 	0.7231	0.1209	0.1869	-0.256
Mof_H 	H 	0.6097	0.086	0.2148	0.088
Mof_H 	H 	0.7312	0.1123	0.105	0.092
Mof_C 	C 	0.967	0.1089	0.2464	0.113
Mof_N 	N 	0.7477	0.25255	0.1382	-0.174
Mof_H 	H 	0.908	0.2614	0.1761	0.098
Mof_H 	H 	0.7687	0.23429	0.0624	0.089
Mof_N 	N 	0.1543	0.0974	0.2923	-0.205
Mof_O 	O 	0.9789	0.36869	0.0659	-0.41
Mof_O 	O 	0.6418	0.43644	0.0442	-0.465
Mof_Ag	Ag	0.79151	0.54623	0.00753	0.625
Mof_C 	C 	0.2413	0.62	0.9266	0.418
Mof_C 	C 	0.3884	0.6788	0.8724	-0.28
Mof_H 	H 	0.4278	0.6634	0.7964	0.104
Mof_H 	H 	0.5418	0.6864	0.9193	0.107
Mof_C 	C 	0.378	0.8032	0.7965	0.022
Mof_H 	H 	0.5522	0.8027	0.8213	0.02
Mof_H 	H 	0.3596	0.791	0.7151	0.017
Mof_C 	C 	0.2769	0.8791	0.8131	-0.256
Mof_H 	H 	0.3903	0.914	0.7852	0.088
Mof_H 	H 	0.2688	0.8877	0.895	0.092
Mof_C 	C 	0.033	0.8911	0.7536	0.113
Mof_N 	N 	0.2523	0.74745	0.8618	-0.174
Mof_H 	H 	0.092	0.7386	0.8239	0.098
Mof_H 	H 	0.2313	0.76571	0.9376	0.089
Mof_N 	N 	0.8457	0.9026	0.7077	-0.205
Mof_O 	O 	0.0211	0.63131	0.9341	-0.41
Mof_O 	O 	0.3582	0.56356	0.9558	-0.465
Mof_Ag	Ag	0.20849	0.45377	0.99247	0.625
_end
