data_functionalizedCrystal
_audit_creation_method	'EQeq! by Chris Wilmer'
_symmetry_space_group_name_H-M	'P1'
_symmetry_Int_Tables_number	1
_symmetry_cell_setting	triclinic
loop_
_symmetry_equiv_pos_as_xyz
  x,y,z
_cell_length_a	29.689
_cell_length_b	19.312
_cell_length_c	29.424
_cell_angle_alpha	90
_cell_angle_beta	107.292
_cell_angle_gamma	90
loop_
_atom_site_label
_atom_site_type_symbol
_atom_site_fract_x
_atom_site_fract_y
_atom_site_fract_z
_atom_site_charge
Mof_C 	C 	0.27789	0.28772	0.29223	0.362
Mof_C 	C 	0.63308	0.92624	0.30891	0.323
Mof_C 	C 	0.39464	0.2231	0.28304	-0.118
Mof_H 	H 	0.4056	0.1881	0.2674	0.071
Mof_C 	C 	0.27614	0.14988	0.36293	0.378
Mof_C 	C 	0.20185	0.19424	0.4898	0.116
Mof_H 	H 	0.1953	0.2414	0.4864	-0.008
Mof_C 	C 	0.32977	0.28245	0.29942	-0.121
Mof_C 	C 	0.61592	0.85864	0.40837	-0.084
Mof_C 	C 	0.6112	0.99414	0.31375	-0.095
Mof_C 	C 	0.64204	0.79828	0.39748	0.297
Mof_C 	C 	0.47498	0.0929	0.44889	0.048
Mof_C 	C 	0.64063	0.9186	0.42723	0.015
Mof_H 	H 	0.6729	0.9213	0.4316	0.042
Mof_C 	C 	0.55155	0.3179	0.3197	0.04
Mof_C 	C 	0.34781	0.1411	0.43396	0.045
Mof_H 	H 	0.3296	0.1561	0.4529	0.029
Mof_C 	C 	0.35457	0.10881	0.35749	0.044
Mof_H 	H 	0.3408	0.1007	0.3252	0.028
Mof_C 	C 	0.21955	0.09538	0.54039	0.149
Mof_C 	C 	0.64971	0.57465	0.31489	0.393
Mof_C 	C 	0.32721	0.13205	0.38517	-0.121
Mof_C 	C 	0.34667	0.23097	0.27565	0.042
Mof_H 	H 	0.3256	0.2017	0.2547	0.028
Mof_C 	C 	0.50428	0.3216	0.31917	-0.109
Mof_H 	H 	0.4903	0.3646	0.3192	0.072
Mof_C 	C 	0.64794	0.21	0.7014	0.374
Mof_C 	C 	0.56755	0.8559	0.40005	0.019
Mof_H 	H 	0.5508	0.8167	0.3862	0.046
Mof_C 	C 	0.61731	0.9735	0.43938	-0.089
Mof_H 	H 	0.634	0.0133	0.4521	0.062
Mof_C 	C 	0.42375	0.107	0.42658	0.042
Mof_C 	C 	0.56911	0.12322	0.31991	0.034
Mof_C 	C 	0.22512	0.9944	0.59315	-0.074
Mof_H 	H 	0.2259	0.967	0.5674	0.055
Mof_C 	C 	0.20994	0.16486	0.53439	-0.196
Mof_H 	H 	0.2089	0.192	0.5601	0.109
Mof_C 	C 	0.40255	0.09753	0.37782	-0.11
Mof_H 	H 	0.4208	0.0835	0.3587	0.067
Mof_C 	C 	0.47815	0.2621	0.31856	0.043
Mof_C 	C 	0.4267	0.26762	0.314	0.045
Mof_C 	C 	0.4997	0.19792	0.31979	-0.107
Mof_H 	H 	0.4824	0.1579	0.3203	0.067
Mof_C 	C 	0.36195	0.32596	0.33109	0.044
Mof_H 	H 	0.3511	0.3598	0.3477	0.028
Mof_C 	C 	0.2242	0.0616	0.58667	-0.102
Mof_H 	H 	0.2266	0.0899	0.6129	0.075
Mof_C 	C 	0.22507	0.9582	0.6368	0.126
Mof_C 	C 	0.49991	0.1265	0.49051	-0.115
Mof_H 	H 	0.4852	0.1612	0.5029	0.072
Mof_C 	C 	0.57187	0.25299	0.31979	-0.11
Mof_H 	H 	0.603	0.2502	0.3195	0.069
Mof_C 	C 	0.57249	0.1378	0.56131	0.041
Mof_C 	C 	0.39533	0.1278	0.45424	-0.113
Mof_H 	H 	0.4086	0.1329	0.4869	0.075
Mof_C 	C 	0.62161	0.1862	0.65196	-0.111
Mof_C 	C 	0.54703	0.19242	0.32033	0.045
Mof_C 	C 	0.54212	0.0638	0.3064	-0.098
Mof_H 	H 	0.5095	0.0669	0.2991	0.064
Mof_C 	C 	0.49776	0.0435	0.42929	-0.116
Mof_H 	H 	0.4814	0.0217	0.4011	0.071
Mof_C 	C 	0.22053	0.8508	0.67652	0.104
Mof_H 	H 	0.2202	0.8026	0.6759	-0.001
Mof_C 	C 	0.57005	0.2071	0.57303	-0.108
Mof_H 	H 	0.5515	0.2375	0.5507	0.07
Mof_C 	C 	0.22461	0.99078	0.67889	-0.178
Mof_H 	H 	0.2269	0.0387	0.6814	0.104
Mof_C 	C 	0.56244	0.0004	0.30343	0.023
Mof_H 	H 	0.5434	0.9614	0.2945	0.041
Mof_C 	C 	0.56848	0.059	0.49367	-0.116
Mof_H 	H 	0.5997	0.0474	0.5089	0.073
Mof_C 	C 	0.54405	0.9115	0.41232	-0.094
Mof_H 	H 	0.5116	0.9093	0.4067	0.068
Mof_C 	C 	0.40971	0.3187	0.33764	-0.115
Mof_H 	H 	0.4308	0.3485	0.3582	0.072
Mof_C 	C 	0.56873	0.9707	0.43298	0.029
Mof_C 	C 	0.54631	0.1092	0.51386	0.047
Mof_C 	C 	0.22354	0.0593	0.50104	-0.192
Mof_H 	H 	0.2321	0.0128	0.5039	0.098
Mof_C 	C 	0.22081	0.95203	0.71656	0.109
Mof_H 	H 	0.2205	0.975	0.7442	-0.002
Mof_C 	C 	0.60086	0.3937	0.28466	-0.129
Mof_H 	H 	0.6014	0.3587	0.2632	0.082
Mof_C 	C 	0.5448	0.0261	0.45126	0.054
Mof_C 	C 	0.6026	0.4964	0.35	0.057
Mof_H 	H 	0.6041	0.5301	0.373	0.026
Mof_C 	C 	0.59934	0.0935	0.59577	-0.112
Mof_H 	H 	0.6012	0.0469	0.5884	0.073
Mof_C 	C 	0.57799	0.38294	0.31831	0.059
Mof_C 	C 	0.62338	0.1166	0.64081	0.041
Mof_H 	H 	0.6407	0.0857	0.6636	0.035
Mof_C 	C 	0.21502	0.0919	0.45819	0.115
Mof_H 	H 	0.2177	0.0663	0.4324	-0.009
Mof_C 	C 	0.62442	0.50737	0.31497	-0.129
Mof_C 	C 	0.59516	0.2316	0.61792	0.039
Mof_H 	H 	0.5942	0.2783	0.6251	0.034
Mof_C 	C 	0.61781	0.1157	0.3319	-0.099
Mof_H 	H 	0.637	0.1542	0.3422	0.063
Mof_C 	C 	0.63835	0.0523	0.32887	0.024
Mof_H 	H 	0.671	0.0489	0.3372	0.039
Mof_C 	C 	0.62318	0.4562	0.28224	0.063
Mof_H 	H 	0.6373	0.4634	0.2584	0.023
Mof_C 	C 	0.5784	0.4352	0.3505	-0.123
Mof_H 	H 	0.5623	0.4291	0.3729	0.075
Mof_C 	C 	0.22412	0.8859	0.63662	-0.176
Mof_H 	H 	0.2259	0.8615	0.61	0.091
Mof_Co	Co	0.20092	0.17458	0.2697	1.176
Mof_Co	Co	0.18894	0.19907	0.38114	1.181
Mof_Co	Co	0.19283	0.33214	0.29956	1.176
Mof_N 	N 	0.20301	0.15848	0.4513	-0.237
Mof_N 	N 	0.21756	0.88253	0.71575	-0.229
Mof_O 	O 	0.64772	0.27309	0.7116	-0.395
Mof_O 	O 	0.66839	0.16246	0.72922	-0.437
Mof_O 	O 	0.25145	0.24703	0.26309	-0.445
Mof_O 	O 	0.26324	0.33272	0.31601	-0.448
Mof_O 	O 	0.65564	0.59439	0.27626	-0.41
Mof_O 	O 	0.66284	0.60547	0.35416	-0.44
Mof_O 	O 	0.25619	0.12876	0.32174	-0.432
Mof_O 	O 	0.25801	0.18737	0.38807	-0.454
Mof_O 	O 	0.17484	0.23818	0.3126	-0.588
Mof_O 	O 	0.68593	0.8021	0.40485	-0.403
Mof_O 	O 	0.62067	0.74219	0.38241	-0.349
Mof_O 	O 	0.67763	0.92329	0.32159	-0.417
Mof_O 	O 	0.60845	0.87519	0.29186	-0.306
Mof_C 	C 	0.77789	0.78772	0.29223	0.363
Mof_C 	C 	0.13308	0.42624	0.30891	0.324
Mof_C 	C 	0.89464	0.7231	0.28304	-0.117
Mof_H 	H 	0.9056	0.6881	0.2674	0.072
Mof_C 	C 	0.77614	0.64988	0.36293	0.379
Mof_C 	C 	0.70185	0.69424	0.4898	0.117
Mof_H 	H 	0.6953	0.7414	0.4864	-0.007
Mof_C 	C 	0.82977	0.78245	0.29942	-0.12
Mof_C 	C 	0.11592	0.35864	0.40837	-0.083
Mof_C 	C 	0.1112	0.49414	0.31375	-0.093
Mof_C 	C 	0.14204	0.29828	0.39748	0.298
Mof_C 	C 	0.97498	0.5929	0.44889	0.049
Mof_C 	C 	0.14063	0.4186	0.42723	0.016
Mof_H 	H 	0.1729	0.4213	0.4316	0.043
Mof_C 	C 	0.05155	0.8179	0.3197	0.04
Mof_C 	C 	0.84781	0.6411	0.43396	0.045
Mof_H 	H 	0.8296	0.6561	0.4529	0.029
Mof_C 	C 	0.85457	0.60881	0.35749	0.044
Mof_H 	H 	0.8408	0.6007	0.3252	0.028
Mof_C 	C 	0.71955	0.59538	0.54039	0.149
Mof_C 	C 	0.14971	0.07465	0.31489	0.393
Mof_C 	C 	0.82721	0.63205	0.38517	-0.121
Mof_C 	C 	0.84667	0.73097	0.27565	0.042
Mof_H 	H 	0.8256	0.7017	0.2547	0.028
Mof_C 	C 	0.00428	0.8216	0.31917	-0.11
Mof_H 	H 	0.9903	0.8646	0.3192	0.072
Mof_C 	C 	0.14794	0.71	0.7014	0.374
Mof_C 	C 	0.06755	0.3559	0.40005	0.019
Mof_H 	H 	0.0508	0.3167	0.3862	0.046
Mof_C 	C 	0.11731	0.4735	0.43938	-0.089
Mof_H 	H 	0.134	0.5133	0.4521	0.062
Mof_C 	C 	0.92375	0.607	0.42658	0.042
Mof_C 	C 	0.06911	0.62322	0.31991	0.033
Mof_C 	C 	0.72512	0.4944	0.59315	-0.074
Mof_H 	H 	0.7259	0.467	0.5674	0.055
Mof_C 	C 	0.70994	0.66486	0.53439	-0.196
Mof_H 	H 	0.7089	0.692	0.5601	0.109
Mof_C 	C 	0.90255	0.59753	0.37782	-0.11
Mof_H 	H 	0.9208	0.5835	0.3587	0.067
Mof_C 	C 	0.97815	0.7621	0.31856	0.044
Mof_C 	C 	0.9267	0.76762	0.314	0.045
Mof_C 	C 	0.9997	0.69792	0.31979	-0.108
Mof_H 	H 	0.9824	0.6579	0.3203	0.067
Mof_C 	C 	0.86195	0.82596	0.33109	0.044
Mof_H 	H 	0.8511	0.8598	0.3477	0.028
Mof_C 	C 	0.7242	0.5616	0.58667	-0.101
Mof_H 	H 	0.7266	0.5899	0.6129	0.075
Mof_C 	C 	0.72507	0.4582	0.6368	0.126
Mof_C 	C 	0.99991	0.6265	0.49051	-0.115
Mof_H 	H 	0.9852	0.6612	0.5029	0.072
Mof_C 	C 	0.07187	0.75299	0.31979	-0.11
Mof_H 	H 	0.103	0.7502	0.3195	0.069
Mof_C 	C 	0.07249	0.6378	0.56131	0.041
Mof_C 	C 	0.89533	0.6278	0.45424	-0.113
Mof_H 	H 	0.9086	0.6329	0.4869	0.075
Mof_C 	C 	0.12161	0.6862	0.65196	-0.111
Mof_C 	C 	0.04703	0.69242	0.32033	0.045
Mof_C 	C 	0.04212	0.5638	0.3064	-0.098
Mof_H 	H 	0.0095	0.5669	0.2991	0.064
Mof_C 	C 	0.99776	0.5435	0.42929	-0.117
Mof_H 	H 	0.9814	0.5217	0.4011	0.071
Mof_C 	C 	0.72053	0.3508	0.67652	0.104
Mof_H 	H 	0.7202	0.3026	0.6759	-0.001
Mof_C 	C 	0.07005	0.7071	0.57303	-0.108
Mof_H 	H 	0.0515	0.7375	0.5507	0.07
Mof_C 	C 	0.72461	0.49078	0.67889	-0.179
Mof_H 	H 	0.7269	0.5387	0.6814	0.105
Mof_C 	C 	0.06244	0.5004	0.30343	0.023
Mof_H 	H 	0.0434	0.4614	0.2945	0.041
Mof_C 	C 	0.06848	0.559	0.49367	-0.116
Mof_H 	H 	0.0997	0.5474	0.5089	0.073
Mof_C 	C 	0.04405	0.4115	0.41232	-0.094
Mof_H 	H 	0.0116	0.4093	0.4067	0.068
Mof_C 	C 	0.90971	0.8187	0.33764	-0.115
Mof_H 	H 	0.9308	0.8485	0.3582	0.072
Mof_C 	C 	0.06873	0.4707	0.43298	0.029
Mof_C 	C 	0.04631	0.6092	0.51386	0.047
Mof_C 	C 	0.72354	0.5593	0.50104	-0.192
Mof_H 	H 	0.7321	0.5128	0.5039	0.098
Mof_C 	C 	0.72081	0.45203	0.71656	0.11
Mof_H 	H 	0.7205	0.475	0.7442	-0.002
Mof_C 	C 	0.10086	0.8937	0.28466	-0.129
Mof_H 	H 	0.1014	0.8587	0.2632	0.082
Mof_C 	C 	0.0448	0.5261	0.45126	0.054
Mof_C 	C 	0.1026	0.9964	0.35	0.057
Mof_H 	H 	0.1041	0.0301	0.373	0.027
Mof_C 	C 	0.09934	0.5935	0.59577	-0.112
Mof_H 	H 	0.1012	0.5469	0.5884	0.073
Mof_C 	C 	0.07799	0.88294	0.31831	0.058
Mof_C 	C 	0.12338	0.6166	0.64081	0.041
Mof_H 	H 	0.1407	0.5857	0.6636	0.035
Mof_C 	C 	0.71502	0.5919	0.45819	0.115
Mof_H 	H 	0.7177	0.5663	0.4324	-0.009
Mof_C 	C 	0.12442	0.00737	0.31497	-0.129
Mof_C 	C 	0.09516	0.7316	0.61792	0.039
Mof_H 	H 	0.0942	0.7783	0.6251	0.034
Mof_C 	C 	0.11781	0.6157	0.3319	-0.099
Mof_H 	H 	0.137	0.6542	0.3422	0.063
Mof_C 	C 	0.13835	0.5523	0.32887	0.024
Mof_H 	H 	0.171	0.5489	0.3372	0.039
Mof_C 	C 	0.12318	0.9562	0.28224	0.062
Mof_H 	H 	0.1373	0.9634	0.2584	0.023
Mof_C 	C 	0.0784	0.9352	0.3505	-0.123
Mof_H 	H 	0.0623	0.9291	0.3729	0.075
Mof_C 	C 	0.72412	0.3859	0.63662	-0.176
Mof_H 	H 	0.7259	0.3615	0.61	0.091
Mof_Co	Co	0.70092	0.67458	0.2697	1.176
Mof_Co	Co	0.68894	0.69907	0.38114	1.181
Mof_Co	Co	0.69283	0.83214	0.29956	1.176
Mof_N 	N 	0.70301	0.65848	0.4513	-0.237
Mof_N 	N 	0.71756	0.38253	0.71575	-0.229
Mof_O 	O 	0.14772	0.77309	0.7116	-0.395
Mof_O 	O 	0.16839	0.66246	0.72922	-0.437
Mof_O 	O 	0.75145	0.74703	0.26309	-0.445
Mof_O 	O 	0.76324	0.83272	0.31601	-0.448
Mof_O 	O 	0.15564	0.09439	0.27626	-0.41
Mof_O 	O 	0.16284	0.10547	0.35416	-0.439
Mof_O 	O 	0.75619	0.62876	0.32174	-0.432
Mof_O 	O 	0.75801	0.68737	0.38807	-0.454
Mof_O 	O 	0.67484	0.73818	0.3126	-0.588
Mof_O 	O 	0.18593	0.3021	0.40485	-0.403
Mof_O 	O 	0.12067	0.24219	0.38241	-0.349
Mof_O 	O 	0.17763	0.42329	0.32159	-0.417
Mof_O 	O 	0.10845	0.37519	0.29186	-0.306
Mof_C 	C 	0.27789	0.71228	0.79223	0.363
Mof_C 	C 	0.63308	0.07376	0.80891	0.324
Mof_C 	C 	0.39464	0.7769	0.78304	-0.117
Mof_H 	H 	0.4056	0.8119	0.7674	0.072
Mof_C 	C 	0.27614	0.85012	0.86293	0.379
Mof_C 	C 	0.20185	0.80576	0.9898	0.118
Mof_H 	H 	0.1953	0.7586	0.9864	-0.007
Mof_C 	C 	0.32977	0.71755	0.79942	-0.12
Mof_C 	C 	0.61592	0.14136	0.90837	-0.083
Mof_C 	C 	0.6112	0.00586	0.81375	-0.094
Mof_C 	C 	0.64204	0.20172	0.89748	0.298
Mof_C 	C 	0.47498	0.9071	0.94889	0.048
Mof_C 	C 	0.64063	0.0814	0.92723	0.016
Mof_H 	H 	0.6729	0.0787	0.9316	0.043
Mof_C 	C 	0.55155	0.6821	0.8197	0.039
Mof_C 	C 	0.34781	0.8589	0.93396	0.045
Mof_H 	H 	0.3296	0.8439	0.9529	0.029
Mof_C 	C 	0.35457	0.89119	0.85749	0.044
Mof_H 	H 	0.3408	0.8993	0.8252	0.028
Mof_C 	C 	0.21955	0.90462	0.04039	0.149
Mof_C 	C 	0.64971	0.42535	0.81489	0.393
Mof_C 	C 	0.32721	0.86795	0.88517	-0.121
Mof_C 	C 	0.34667	0.76903	0.77565	0.042
Mof_H 	H 	0.3256	0.7983	0.7547	0.028
Mof_C 	C 	0.50428	0.6784	0.81917	-0.109
Mof_H 	H 	0.4903	0.6354	0.8192	0.072
Mof_C 	C 	0.64794	0.79	0.2014	0.374
Mof_C 	C 	0.56755	0.1441	0.90005	0.019
Mof_H 	H 	0.5508	0.1833	0.8862	0.046
Mof_C 	C 	0.61731	0.0265	0.93938	-0.09
Mof_H 	H 	0.634	0.9867	0.9521	0.063
Mof_C 	C 	0.42375	0.893	0.92658	0.042
Mof_C 	C 	0.56911	0.87678	0.81991	0.034
Mof_C 	C 	0.22512	0.0056	0.09315	-0.074
Mof_H 	H 	0.2259	0.033	0.0674	0.055
Mof_C 	C 	0.20994	0.83514	0.03439	-0.196
Mof_H 	H 	0.2089	0.808	0.0601	0.109
Mof_C 	C 	0.40255	0.90247	0.87782	-0.111
Mof_H 	H 	0.4208	0.9165	0.8587	0.067
Mof_C 	C 	0.47815	0.7379	0.81856	0.043
Mof_C 	C 	0.4267	0.73238	0.814	0.045
Mof_C 	C 	0.4997	0.80208	0.81979	-0.107
Mof_H 	H 	0.4824	0.8421	0.8203	0.067
Mof_C 	C 	0.36195	0.67404	0.83109	0.044
Mof_H 	H 	0.3511	0.6402	0.8477	0.028
Mof_C 	C 	0.2242	0.9384	0.08667	-0.102
Mof_H 	H 	0.2266	0.9101	0.1129	0.075
Mof_C 	C 	0.22507	0.0418	0.1368	0.126
Mof_C 	C 	0.49991	0.8735	0.99051	-0.113
Mof_H 	H 	0.4852	0.8388	0.0029	0.071
Mof_C 	C 	0.57187	0.74701	0.81979	-0.11
Mof_H 	H 	0.603	0.7498	0.8195	0.069
Mof_C 	C 	0.57249	0.8622	0.06131	0.042
Mof_C 	C 	0.39533	0.8722	0.95424	-0.113
Mof_H 	H 	0.4086	0.8671	0.9869	0.075
Mof_C 	C 	0.62161	0.8138	0.15196	-0.111
Mof_C 	C 	0.54703	0.80758	0.82033	0.045
Mof_C 	C 	0.54212	0.9362	0.8064	-0.098
Mof_H 	H 	0.5095	0.9331	0.7991	0.064
Mof_C 	C 	0.49776	0.9565	0.92929	-0.116
Mof_H 	H 	0.4814	0.9783	0.9011	0.071
Mof_C 	C 	0.22053	0.1492	0.17652	0.104
Mof_H 	H 	0.2202	0.1974	0.1759	-0.001
Mof_C 	C 	0.57005	0.7929	0.07303	-0.109
Mof_H 	H 	0.5515	0.7625	0.0507	0.07
Mof_C 	C 	0.22461	0.00922	0.17889	-0.178
Mof_H 	H 	0.2269	0.9613	0.1814	0.104
Mof_C 	C 	0.56244	0.9996	0.80343	0.024
Mof_H 	H 	0.5434	0.0386	0.7945	0.041
Mof_C 	C 	0.56848	0.941	0.99367	-0.115
Mof_H 	H 	0.5997	0.9526	0.0089	0.072
Mof_C 	C 	0.54405	0.0885	0.91232	-0.095
Mof_H 	H 	0.5116	0.0907	0.9067	0.068
Mof_C 	C 	0.40971	0.6813	0.83764	-0.115
Mof_H 	H 	0.4308	0.6515	0.8582	0.072
Mof_C 	C 	0.56873	0.0293	0.93298	0.029
Mof_C 	C 	0.54631	0.8908	0.01386	0.046
Mof_C 	C 	0.22354	0.9407	0.00104	-0.193
Mof_H 	H 	0.2321	0.9872	0.0039	0.098
Mof_C 	C 	0.22081	0.04797	0.21656	0.109
Mof_H 	H 	0.2205	0.025	0.2442	-0.002
Mof_C 	C 	0.60086	0.6063	0.78466	-0.129
Mof_H 	H 	0.6014	0.6413	0.7632	0.082
Mof_C 	C 	0.5448	0.9739	0.95126	0.053
Mof_C 	C 	0.6026	0.5036	0.85	0.057
Mof_H 	H 	0.6041	0.4699	0.873	0.026
Mof_C 	C 	0.59934	0.9065	0.09577	-0.113
Mof_H 	H 	0.6012	0.9531	0.0884	0.073
Mof_C 	C 	0.57799	0.61706	0.81831	0.059
Mof_C 	C 	0.62338	0.8834	0.14081	0.041
Mof_H 	H 	0.6407	0.9143	0.1636	0.034
Mof_C 	C 	0.21502	0.9081	0.95819	0.115
Mof_H 	H 	0.2177	0.9337	0.9324	-0.009
Mof_C 	C 	0.62442	0.49263	0.81497	-0.129
Mof_C 	C 	0.59516	0.7684	0.11792	0.039
Mof_H 	H 	0.5942	0.7217	0.1251	0.034
Mof_C 	C 	0.61781	0.8843	0.8319	-0.099
Mof_H 	H 	0.637	0.8458	0.8422	0.063
Mof_C 	C 	0.63835	0.9477	0.82887	0.024
Mof_H 	H 	0.671	0.9511	0.8372	0.039
Mof_C 	C 	0.62318	0.5438	0.78224	0.063
Mof_H 	H 	0.6373	0.5366	0.7584	0.023
Mof_C 	C 	0.5784	0.5648	0.8505	-0.123
Mof_H 	H 	0.5623	0.5709	0.8729	0.075
Mof_C 	C 	0.22412	0.1141	0.13662	-0.176
Mof_H 	H 	0.2259	0.1385	0.11	0.091
Mof_Co	Co	0.20092	0.82542	0.7697	1.176
Mof_Co	Co	0.18894	0.80093	0.88114	1.181
Mof_Co	Co	0.19283	0.66786	0.79956	1.176
Mof_N 	N 	0.20301	0.84152	0.9513	-0.237
Mof_N 	N 	0.21756	0.11747	0.21575	-0.229
Mof_O 	O 	0.64772	0.72691	0.2116	-0.395
Mof_O 	O 	0.66839	0.83754	0.22922	-0.437
Mof_O 	O 	0.25145	0.75297	0.76309	-0.445
Mof_O 	O 	0.26324	0.66728	0.81601	-0.448
Mof_O 	O 	0.65564	0.40561	0.77626	-0.41
Mof_O 	O 	0.66284	0.39453	0.85416	-0.44
Mof_O 	O 	0.25619	0.87124	0.82174	-0.432
Mof_O 	O 	0.25801	0.81263	0.88807	-0.454
Mof_O 	O 	0.17484	0.76182	0.8126	-0.588
Mof_O 	O 	0.68593	0.1979	0.90485	-0.403
Mof_O 	O 	0.62067	0.25781	0.88241	-0.349
Mof_O 	O 	0.67763	0.07671	0.82159	-0.417
Mof_O 	O 	0.60845	0.12481	0.79186	-0.306
Mof_C 	C 	0.77789	0.21228	0.79223	0.363
Mof_C 	C 	0.13308	0.57376	0.80891	0.324
Mof_C 	C 	0.89464	0.2769	0.78304	-0.117
Mof_H 	H 	0.9056	0.3119	0.7674	0.072
Mof_C 	C 	0.77614	0.35012	0.86293	0.379
Mof_C 	C 	0.70185	0.30576	0.9898	0.117
Mof_H 	H 	0.6953	0.2586	0.9864	-0.007
Mof_C 	C 	0.82977	0.21755	0.79942	-0.12
Mof_C 	C 	0.11592	0.64136	0.90837	-0.083
Mof_C 	C 	0.1112	0.50586	0.81375	-0.093
Mof_C 	C 	0.14204	0.70172	0.89748	0.298
Mof_C 	C 	0.97498	0.4071	0.94889	0.049
Mof_C 	C 	0.14063	0.5814	0.92723	0.016
Mof_H 	H 	0.1729	0.5787	0.9316	0.043
Mof_C 	C 	0.05155	0.1821	0.8197	0.04
Mof_C 	C 	0.84781	0.3589	0.93396	0.045
Mof_H 	H 	0.8296	0.3439	0.9529	0.029
Mof_C 	C 	0.85457	0.39119	0.85749	0.044
Mof_H 	H 	0.8408	0.3993	0.8252	0.028
Mof_C 	C 	0.71955	0.40462	0.04039	0.149
Mof_C 	C 	0.14971	0.92535	0.81489	0.393
Mof_C 	C 	0.82721	0.36795	0.88517	-0.121
Mof_C 	C 	0.84667	0.26903	0.77565	0.042
Mof_H 	H 	0.8256	0.2983	0.7547	0.028
Mof_C 	C 	0.00428	0.1784	0.81917	-0.11
Mof_H 	H 	0.9903	0.1354	0.8192	0.072
Mof_C 	C 	0.14794	0.29	0.2014	0.374
Mof_C 	C 	0.06755	0.6441	0.90005	0.019
Mof_H 	H 	0.0508	0.6833	0.8862	0.046
Mof_C 	C 	0.11731	0.5265	0.93938	-0.089
Mof_H 	H 	0.134	0.4867	0.9521	0.062
Mof_C 	C 	0.92375	0.393	0.92658	0.042
Mof_C 	C 	0.06911	0.37678	0.81991	0.033
Mof_C 	C 	0.72512	0.5056	0.09315	-0.074
Mof_H 	H 	0.7259	0.533	0.0674	0.055
Mof_C 	C 	0.70994	0.33514	0.03439	-0.195
Mof_H 	H 	0.7089	0.308	0.0601	0.109
Mof_C 	C 	0.90255	0.40247	0.87782	-0.11
Mof_H 	H 	0.9208	0.4165	0.8587	0.067
Mof_C 	C 	0.97815	0.2379	0.81856	0.044
Mof_C 	C 	0.9267	0.23238	0.814	0.045
Mof_C 	C 	0.9997	0.30208	0.81979	-0.108
Mof_H 	H 	0.9824	0.3421	0.8203	0.067
Mof_C 	C 	0.86195	0.17404	0.83109	0.044
Mof_H 	H 	0.8511	0.1402	0.8477	0.028
Mof_C 	C 	0.7242	0.4384	0.08667	-0.101
Mof_H 	H 	0.7266	0.4101	0.1129	0.074
Mof_C 	C 	0.72507	0.5418	0.1368	0.126
Mof_C 	C 	0.99991	0.3735	0.99051	-0.115
Mof_H 	H 	0.9852	0.3388	0.0029	0.072
Mof_C 	C 	0.07187	0.24701	0.81979	-0.11
Mof_H 	H 	0.103	0.2498	0.8195	0.069
Mof_C 	C 	0.07249	0.3622	0.06131	0.041
Mof_C 	C 	0.89533	0.3722	0.95424	-0.113
Mof_H 	H 	0.9086	0.3671	0.9869	0.075
Mof_C 	C 	0.12161	0.3138	0.15196	-0.111
Mof_C 	C 	0.04703	0.30758	0.82033	0.045
Mof_C 	C 	0.04212	0.4362	0.8064	-0.098
Mof_H 	H 	0.0095	0.4331	0.7991	0.064
Mof_C 	C 	0.99776	0.4565	0.92929	-0.117
Mof_H 	H 	0.9814	0.4783	0.9011	0.071
Mof_C 	C 	0.72053	0.6492	0.17652	0.104
Mof_H 	H 	0.7202	0.6974	0.1759	-0.001
Mof_C 	C 	0.07005	0.2929	0.07303	-0.108
Mof_H 	H 	0.0515	0.2625	0.0507	0.07
Mof_C 	C 	0.72461	0.50922	0.17889	-0.179
Mof_H 	H 	0.7269	0.4613	0.1814	0.105
Mof_C 	C 	0.06244	0.4996	0.80343	0.023
Mof_H 	H 	0.0434	0.5386	0.7945	0.041
Mof_C 	C 	0.06848	0.441	0.99367	-0.117
Mof_H 	H 	0.0997	0.4526	0.0089	0.073
Mof_C 	C 	0.04405	0.5885	0.91232	-0.094
Mof_H 	H 	0.0116	0.5907	0.9067	0.068
Mof_C 	C 	0.90971	0.1813	0.83764	-0.115
Mof_H 	H 	0.9308	0.1515	0.8582	0.072
Mof_C 	C 	0.06873	0.5293	0.93298	0.029
Mof_C 	C 	0.04631	0.3908	0.01386	0.048
Mof_C 	C 	0.72354	0.4407	0.00104	-0.192
Mof_H 	H 	0.7321	0.4872	0.0039	0.098
Mof_C 	C 	0.72081	0.54797	0.21656	0.11
Mof_H 	H 	0.7205	0.525	0.2442	-0.002
Mof_C 	C 	0.10086	0.1063	0.78466	-0.128
Mof_H 	H 	0.1014	0.1413	0.7632	0.082
Mof_C 	C 	0.0448	0.4739	0.95126	0.054
Mof_C 	C 	0.1026	0.0036	0.85	0.056
Mof_H 	H 	0.1041	0.9699	0.873	0.027
Mof_C 	C 	0.09934	0.4065	0.09577	-0.112
Mof_H 	H 	0.1012	0.4531	0.0884	0.073
Mof_C 	C 	0.07799	0.11706	0.81831	0.058
Mof_C 	C 	0.12338	0.3834	0.14081	0.041
Mof_H 	H 	0.1407	0.4143	0.1636	0.035
Mof_C 	C 	0.71502	0.4081	0.95819	0.115
Mof_H 	H 	0.7177	0.4337	0.9324	-0.009
Mof_C 	C 	0.12442	0.99263	0.81497	-0.129
Mof_C 	C 	0.09516	0.2684	0.11792	0.039
Mof_H 	H 	0.0942	0.2217	0.1251	0.034
Mof_C 	C 	0.11781	0.3843	0.8319	-0.099
Mof_H 	H 	0.137	0.3458	0.8422	0.063
Mof_C 	C 	0.13835	0.4477	0.82887	0.024
Mof_H 	H 	0.171	0.4511	0.8372	0.039
Mof_C 	C 	0.12318	0.0438	0.78224	0.062
Mof_H 	H 	0.1373	0.0366	0.7584	0.023
Mof_C 	C 	0.0784	0.0648	0.8505	-0.123
Mof_H 	H 	0.0623	0.0709	0.8729	0.075
Mof_C 	C 	0.72412	0.6141	0.13662	-0.176
Mof_H 	H 	0.7259	0.6385	0.11	0.091
Mof_Co	Co	0.70092	0.32542	0.7697	1.176
Mof_Co	Co	0.68894	0.30093	0.88114	1.181
Mof_Co	Co	0.69283	0.16786	0.79956	1.176
Mof_N 	N 	0.70301	0.34152	0.9513	-0.237
Mof_N 	N 	0.71756	0.61747	0.21575	-0.229
Mof_O 	O 	0.14772	0.22691	0.2116	-0.395
Mof_O 	O 	0.16839	0.33754	0.22922	-0.437
Mof_O 	O 	0.75145	0.25297	0.76309	-0.445
Mof_O 	O 	0.76324	0.16728	0.81601	-0.448
Mof_O 	O 	0.15564	0.90561	0.77626	-0.409
Mof_O 	O 	0.16284	0.89453	0.85416	-0.439
Mof_O 	O 	0.75619	0.37124	0.82174	-0.432
Mof_O 	O 	0.75801	0.31263	0.88807	-0.454
Mof_O 	O 	0.67484	0.26182	0.8126	-0.588
Mof_O 	O 	0.18593	0.6979	0.90485	-0.403
Mof_O 	O 	0.12067	0.75781	0.88241	-0.349
Mof_O 	O 	0.17763	0.57671	0.82159	-0.417
Mof_O 	O 	0.10845	0.62481	0.79186	-0.306
Mof_C 	C 	0.72211	0.28772	0.20777	0.363
Mof_C 	C 	0.36692	0.92624	0.19109	0.324
Mof_C 	C 	0.60536	0.2231	0.21696	-0.117
Mof_H 	H 	0.5944	0.1881	0.2326	0.072
Mof_C 	C 	0.72386	0.14988	0.13707	0.379
Mof_C 	C 	0.79815	0.19424	0.0102	0.118
Mof_H 	H 	0.8047	0.2414	0.0136	-0.007
Mof_C 	C 	0.67023	0.28245	0.20058	-0.12
Mof_C 	C 	0.38408	0.85864	0.09163	-0.083
Mof_C 	C 	0.3888	0.99414	0.18625	-0.094
Mof_C 	C 	0.35796	0.79828	0.10252	0.298
Mof_C 	C 	0.52502	0.0929	0.05111	0.048
Mof_C 	C 	0.35937	0.9186	0.07277	0.016
Mof_H 	H 	0.3271	0.9213	0.0684	0.043
Mof_C 	C 	0.44845	0.3179	0.1803	0.039
Mof_C 	C 	0.65219	0.1411	0.06604	0.045
Mof_H 	H 	0.6704	0.1561	0.0471	0.029
Mof_C 	C 	0.64543	0.10881	0.14251	0.044
Mof_H 	H 	0.6592	0.1007	0.1748	0.028
Mof_C 	C 	0.78045	0.09538	0.95961	0.149
Mof_C 	C 	0.35029	0.57465	0.18511	0.393
Mof_C 	C 	0.67279	0.13205	0.11483	-0.121
Mof_C 	C 	0.65333	0.23097	0.22435	0.042
Mof_H 	H 	0.6744	0.2017	0.2453	0.028
Mof_C 	C 	0.49572	0.3216	0.18083	-0.109
Mof_H 	H 	0.5097	0.3646	0.1808	0.072
Mof_C 	C 	0.35206	0.21	0.7986	0.374
Mof_C 	C 	0.43245	0.8559	0.09995	0.019
Mof_H 	H 	0.4492	0.8167	0.1138	0.046
Mof_C 	C 	0.38269	0.9735	0.06062	-0.09
Mof_H 	H 	0.366	0.0133	0.0479	0.063
Mof_C 	C 	0.57625	0.107	0.07342	0.042
Mof_C 	C 	0.43089	0.12322	0.18009	0.034
Mof_C 	C 	0.77488	0.9944	0.90685	-0.074
Mof_H 	H 	0.7741	0.967	0.9326	0.055
Mof_C 	C 	0.79006	0.16486	0.96561	-0.196
Mof_H 	H 	0.7911	0.192	0.9399	0.109
Mof_C 	C 	0.59745	0.09753	0.12218	-0.111
Mof_H 	H 	0.5792	0.0835	0.1413	0.067
Mof_C 	C 	0.52185	0.2621	0.18144	0.043
Mof_C 	C 	0.5733	0.26762	0.186	0.045
Mof_C 	C 	0.5003	0.19792	0.18021	-0.107
Mof_H 	H 	0.5176	0.1579	0.1797	0.067
Mof_C 	C 	0.63805	0.32596	0.16891	0.044
Mof_H 	H 	0.6489	0.3598	0.1523	0.028
Mof_C 	C 	0.7758	0.0616	0.91333	-0.102
Mof_H 	H 	0.7734	0.0899	0.8871	0.075
Mof_C 	C 	0.77493	0.9582	0.8632	0.126
Mof_C 	C 	0.50009	0.1265	0.00949	-0.113
Mof_H 	H 	0.5148	0.1612	0.9971	0.071
Mof_C 	C 	0.42813	0.25299	0.18021	-0.11
Mof_H 	H 	0.397	0.2502	0.1805	0.069
Mof_C 	C 	0.42751	0.1378	0.93869	0.042
Mof_C 	C 	0.60467	0.1278	0.04576	-0.113
Mof_H 	H 	0.5914	0.1329	0.0131	0.075
Mof_C 	C 	0.37839	0.1862	0.84804	-0.111
Mof_C 	C 	0.45297	0.19242	0.17967	0.045
Mof_C 	C 	0.45788	0.0638	0.1936	-0.098
Mof_H 	H 	0.4905	0.0669	0.2009	0.064
Mof_C 	C 	0.50224	0.0435	0.07071	-0.116
Mof_H 	H 	0.5186	0.0217	0.0989	0.071
Mof_C 	C 	0.77947	0.8508	0.82348	0.104
Mof_H 	H 	0.7798	0.8026	0.8241	-0.001
Mof_C 	C 	0.42995	0.2071	0.92697	-0.109
Mof_H 	H 	0.4485	0.2375	0.9493	0.07
Mof_C 	C 	0.77539	0.99078	0.82111	-0.178
Mof_H 	H 	0.7731	0.0387	0.8186	0.104
Mof_C 	C 	0.43756	0.0004	0.19657	0.024
Mof_H 	H 	0.4566	0.9614	0.2055	0.041
Mof_C 	C 	0.43152	0.059	0.00633	-0.115
Mof_H 	H 	0.4003	0.0474	0.9911	0.072
Mof_C 	C 	0.45595	0.9115	0.08768	-0.095
Mof_H 	H 	0.4884	0.9093	0.0933	0.068
Mof_C 	C 	0.59029	0.3187	0.16236	-0.115
Mof_H 	H 	0.5692	0.3485	0.1418	0.072
Mof_C 	C 	0.43127	0.9707	0.06702	0.029
Mof_C 	C 	0.45369	0.1092	0.98614	0.046
Mof_C 	C 	0.77646	0.0593	0.99896	-0.193
Mof_H 	H 	0.7679	0.0128	0.9961	0.098
Mof_C 	C 	0.77919	0.95203	0.78344	0.109
Mof_H 	H 	0.7795	0.975	0.7558	-0.002
Mof_C 	C 	0.39914	0.3937	0.21534	-0.129
Mof_H 	H 	0.3986	0.3587	0.2368	0.082
Mof_C 	C 	0.4552	0.0261	0.04874	0.053
Mof_C 	C 	0.3974	0.4964	0.15	0.057
Mof_H 	H 	0.3959	0.5301	0.127	0.026
Mof_C 	C 	0.40066	0.0935	0.90423	-0.113
Mof_H 	H 	0.3988	0.0469	0.9116	0.073
Mof_C 	C 	0.42201	0.38294	0.18169	0.059
Mof_C 	C 	0.37662	0.1166	0.85919	0.041
Mof_H 	H 	0.3593	0.0857	0.8364	0.034
Mof_C 	C 	0.78498	0.0919	0.04181	0.115
Mof_H 	H 	0.7823	0.0663	0.0676	-0.009
Mof_C 	C 	0.37558	0.50737	0.18503	-0.129
Mof_C 	C 	0.40484	0.2316	0.88208	0.039
Mof_H 	H 	0.4058	0.2783	0.8749	0.034
Mof_C 	C 	0.38219	0.1157	0.1681	-0.099
Mof_H 	H 	0.363	0.1542	0.1578	0.063
Mof_C 	C 	0.36165	0.0523	0.17113	0.024
Mof_H 	H 	0.329	0.0489	0.1628	0.039
Mof_C 	C 	0.37682	0.4562	0.21776	0.063
Mof_H 	H 	0.3627	0.4634	0.2416	0.023
Mof_C 	C 	0.4216	0.4352	0.1495	-0.123
Mof_H 	H 	0.4377	0.4291	0.1271	0.075
Mof_C 	C 	0.77588	0.8859	0.86338	-0.176
Mof_H 	H 	0.7741	0.8615	0.89	0.091
Mof_Co	Co	0.79908	0.17458	0.2303	1.176
Mof_Co	Co	0.81106	0.19907	0.11886	1.181
Mof_Co	Co	0.80717	0.33214	0.20044	1.176
Mof_N 	N 	0.79699	0.15848	0.0487	-0.237
Mof_N 	N 	0.78244	0.88253	0.78425	-0.229
Mof_O 	O 	0.35228	0.27309	0.7884	-0.395
Mof_O 	O 	0.33161	0.16246	0.77078	-0.437
Mof_O 	O 	0.74855	0.24703	0.23691	-0.445
Mof_O 	O 	0.73676	0.33272	0.18399	-0.448
Mof_O 	O 	0.34436	0.59439	0.22374	-0.41
Mof_O 	O 	0.33716	0.60547	0.14584	-0.44
Mof_O 	O 	0.74381	0.12876	0.17826	-0.432
Mof_O 	O 	0.74199	0.18737	0.11193	-0.454
Mof_O 	O 	0.82516	0.23818	0.1874	-0.588
Mof_O 	O 	0.31407	0.8021	0.09515	-0.403
Mof_O 	O 	0.37933	0.74219	0.11759	-0.349
Mof_O 	O 	0.32237	0.92329	0.17841	-0.417
Mof_O 	O 	0.39155	0.87519	0.20814	-0.306
Mof_C 	C 	0.22211	0.78772	0.20777	0.363
Mof_C 	C 	0.86692	0.42624	0.19109	0.324
Mof_C 	C 	0.10536	0.7231	0.21696	-0.117
Mof_H 	H 	0.0944	0.6881	0.2326	0.072
Mof_C 	C 	0.22386	0.64988	0.13707	0.379
Mof_C 	C 	0.29815	0.69424	0.0102	0.117
Mof_H 	H 	0.3047	0.7414	0.0136	-0.007
Mof_C 	C 	0.17023	0.78245	0.20058	-0.12
Mof_C 	C 	0.88408	0.35864	0.09163	-0.083
Mof_C 	C 	0.8888	0.49414	0.18625	-0.093
Mof_C 	C 	0.85796	0.29828	0.10252	0.298
Mof_C 	C 	0.02502	0.5929	0.05111	0.049
Mof_C 	C 	0.85937	0.4186	0.07277	0.016
Mof_H 	H 	0.8271	0.4213	0.0684	0.043
Mof_C 	C 	0.94845	0.8179	0.1803	0.04
Mof_C 	C 	0.15219	0.6411	0.06604	0.045
Mof_H 	H 	0.1704	0.6561	0.0471	0.029
Mof_C 	C 	0.14543	0.60881	0.14251	0.044
Mof_H 	H 	0.1592	0.6007	0.1748	0.028
Mof_C 	C 	0.28045	0.59538	0.95961	0.149
Mof_C 	C 	0.85029	0.07465	0.18511	0.393
Mof_C 	C 	0.17279	0.63205	0.11483	-0.121
Mof_C 	C 	0.15333	0.73097	0.22435	0.042
Mof_H 	H 	0.1744	0.7017	0.2453	0.028
Mof_C 	C 	0.99572	0.8216	0.18083	-0.11
Mof_H 	H 	0.0097	0.8646	0.1808	0.072
Mof_C 	C 	0.85206	0.71	0.7986	0.374
Mof_C 	C 	0.93245	0.3559	0.09995	0.019
Mof_H 	H 	0.9492	0.3167	0.1138	0.046
Mof_C 	C 	0.88269	0.4735	0.06062	-0.089
Mof_H 	H 	0.866	0.5133	0.0479	0.062
Mof_C 	C 	0.07625	0.607	0.07342	0.042
Mof_C 	C 	0.93089	0.62322	0.18009	0.033
Mof_C 	C 	0.27488	0.4944	0.90685	-0.074
Mof_H 	H 	0.2741	0.467	0.9326	0.055
Mof_C 	C 	0.29006	0.66486	0.96561	-0.195
Mof_H 	H 	0.2911	0.692	0.9399	0.109
Mof_C 	C 	0.09745	0.59753	0.12218	-0.11
Mof_H 	H 	0.0792	0.5835	0.1413	0.067
Mof_C 	C 	0.02185	0.7621	0.18144	0.044
Mof_C 	C 	0.0733	0.76762	0.186	0.045
Mof_C 	C 	0.0003	0.69792	0.18021	-0.108
Mof_H 	H 	0.0176	0.6579	0.1797	0.067
Mof_C 	C 	0.13805	0.82596	0.16891	0.044
Mof_H 	H 	0.1489	0.8598	0.1523	0.028
Mof_C 	C 	0.2758	0.5616	0.91333	-0.101
Mof_H 	H 	0.2734	0.5899	0.8871	0.074
Mof_C 	C 	0.27493	0.4582	0.8632	0.126
Mof_C 	C 	9e-05	0.6265	0.00949	-0.115
Mof_H 	H 	0.0148	0.6612	0.9971	0.072
Mof_C 	C 	0.92813	0.75299	0.18021	-0.11
Mof_H 	H 	0.897	0.7502	0.1805	0.069
Mof_C 	C 	0.92751	0.6378	0.93869	0.041
Mof_C 	C 	0.10467	0.6278	0.04576	-0.113
Mof_H 	H 	0.0914	0.6329	0.0131	0.075
Mof_C 	C 	0.87839	0.6862	0.84804	-0.111
Mof_C 	C 	0.95297	0.69242	0.17967	0.045
Mof_C 	C 	0.95788	0.5638	0.1936	-0.098
Mof_H 	H 	0.9905	0.5669	0.2009	0.064
Mof_C 	C 	0.00224	0.5435	0.07071	-0.117
Mof_H 	H 	0.0186	0.5217	0.0989	0.071
Mof_C 	C 	0.27947	0.3508	0.82348	0.104
Mof_H 	H 	0.2798	0.3026	0.8241	-0.001
Mof_C 	C 	0.92995	0.7071	0.92697	-0.108
Mof_H 	H 	0.9485	0.7375	0.9493	0.07
Mof_C 	C 	0.27539	0.49078	0.82111	-0.179
Mof_H 	H 	0.2731	0.5387	0.8186	0.105
Mof_C 	C 	0.93756	0.5004	0.19657	0.023
Mof_H 	H 	0.9566	0.4614	0.2055	0.041
Mof_C 	C 	0.93152	0.559	0.00633	-0.117
Mof_H 	H 	0.9003	0.5474	0.9911	0.073
Mof_C 	C 	0.95595	0.4115	0.08768	-0.094
Mof_H 	H 	0.9884	0.4093	0.0933	0.068
Mof_C 	C 	0.09029	0.8187	0.16236	-0.115
Mof_H 	H 	0.0692	0.8485	0.1418	0.072
Mof_C 	C 	0.93127	0.4707	0.06702	0.029
Mof_C 	C 	0.95369	0.6092	0.98614	0.048
Mof_C 	C 	0.27646	0.5593	0.99896	-0.192
Mof_H 	H 	0.2679	0.5128	0.9961	0.098
Mof_C 	C 	0.27919	0.45203	0.78344	0.11
Mof_H 	H 	0.2795	0.475	0.7558	-0.002
Mof_C 	C 	0.89914	0.8937	0.21534	-0.128
Mof_H 	H 	0.8986	0.8587	0.2368	0.082
Mof_C 	C 	0.9552	0.5261	0.04874	0.054
Mof_C 	C 	0.8974	0.9964	0.15	0.056
Mof_H 	H 	0.8959	0.0301	0.127	0.027
Mof_C 	C 	0.90066	0.5935	0.90423	-0.112
Mof_H 	H 	0.8988	0.5469	0.9116	0.073
Mof_C 	C 	0.92201	0.88294	0.18169	0.058
Mof_C 	C 	0.87662	0.6166	0.85919	0.041
Mof_H 	H 	0.8593	0.5857	0.8364	0.035
Mof_C 	C 	0.28498	0.5919	0.04181	0.115
Mof_H 	H 	0.2823	0.5663	0.0676	-0.009
Mof_C 	C 	0.87558	0.00737	0.18503	-0.129
Mof_C 	C 	0.90484	0.7316	0.88208	0.039
Mof_H 	H 	0.9058	0.7783	0.8749	0.034
Mof_C 	C 	0.88219	0.6157	0.1681	-0.099
Mof_H 	H 	0.863	0.6542	0.1578	0.063
Mof_C 	C 	0.86165	0.5523	0.17113	0.024
Mof_H 	H 	0.829	0.5489	0.1628	0.039
Mof_C 	C 	0.87682	0.9562	0.21776	0.062
Mof_H 	H 	0.8627	0.9634	0.2416	0.023
Mof_C 	C 	0.9216	0.9352	0.1495	-0.123
Mof_H 	H 	0.9377	0.9291	0.1271	0.075
Mof_C 	C 	0.27588	0.3859	0.86338	-0.176
Mof_H 	H 	0.2741	0.3615	0.89	0.091
Mof_Co	Co	0.29908	0.67458	0.2303	1.176
Mof_Co	Co	0.31106	0.69907	0.11886	1.181
Mof_Co	Co	0.30717	0.83214	0.20044	1.176
Mof_N 	N 	0.29699	0.65848	0.0487	-0.237
Mof_N 	N 	0.28244	0.38253	0.78425	-0.229
Mof_O 	O 	0.85228	0.77309	0.7884	-0.395
Mof_O 	O 	0.83161	0.66246	0.77078	-0.437
Mof_O 	O 	0.24855	0.74703	0.23691	-0.445
Mof_O 	O 	0.23676	0.83272	0.18399	-0.448
Mof_O 	O 	0.84436	0.09439	0.22374	-0.409
Mof_O 	O 	0.83716	0.10547	0.14584	-0.439
Mof_O 	O 	0.24381	0.62876	0.17826	-0.432
Mof_O 	O 	0.24199	0.68737	0.11193	-0.454
Mof_O 	O 	0.32516	0.73818	0.1874	-0.588
Mof_O 	O 	0.81407	0.3021	0.09515	-0.403
Mof_O 	O 	0.87933	0.24219	0.11759	-0.349
Mof_O 	O 	0.82237	0.42329	0.17841	-0.417
Mof_O 	O 	0.89155	0.37519	0.20814	-0.306
Mof_C 	C 	0.72211	0.71228	0.70777	0.363
Mof_C 	C 	0.36692	0.07376	0.69109	0.324
Mof_C 	C 	0.60536	0.7769	0.71696	-0.117
Mof_H 	H 	0.5944	0.8119	0.7326	0.072
Mof_C 	C 	0.72386	0.85012	0.63707	0.379
Mof_C 	C 	0.79815	0.80576	0.5102	0.117
Mof_H 	H 	0.8047	0.7586	0.5136	-0.007
Mof_C 	C 	0.67023	0.71755	0.70058	-0.12
Mof_C 	C 	0.38408	0.14136	0.59163	-0.083
Mof_C 	C 	0.3888	0.00586	0.68625	-0.094
Mof_C 	C 	0.35796	0.20172	0.60252	0.298
Mof_C 	C 	0.52502	0.9071	0.55111	0.049
Mof_C 	C 	0.35937	0.0814	0.57277	0.016
Mof_H 	H 	0.3271	0.0787	0.5684	0.043
Mof_C 	C 	0.44845	0.6821	0.6803	0.04
Mof_C 	C 	0.65219	0.8589	0.56604	0.045
Mof_H 	H 	0.6704	0.8439	0.5471	0.029
Mof_C 	C 	0.64543	0.89119	0.64251	0.044
Mof_H 	H 	0.6592	0.8993	0.6748	0.028
Mof_C 	C 	0.78045	0.90462	0.45961	0.149
Mof_C 	C 	0.35029	0.42535	0.68511	0.393
Mof_C 	C 	0.67279	0.86795	0.61483	-0.121
Mof_C 	C 	0.65333	0.76903	0.72435	0.042
Mof_H 	H 	0.6744	0.7983	0.7453	0.028
Mof_C 	C 	0.49572	0.6784	0.68083	-0.109
Mof_H 	H 	0.5097	0.6354	0.6808	0.072
Mof_C 	C 	0.35206	0.79	0.2986	0.374
Mof_C 	C 	0.43245	0.1441	0.59995	0.019
Mof_H 	H 	0.4492	0.1833	0.6138	0.046
Mof_C 	C 	0.38269	0.0265	0.56062	-0.089
Mof_H 	H 	0.366	0.9867	0.5479	0.062
Mof_C 	C 	0.57625	0.893	0.57342	0.042
Mof_C 	C 	0.43089	0.87678	0.68009	0.034
Mof_C 	C 	0.77488	0.0056	0.40685	-0.074
Mof_H 	H 	0.7741	0.033	0.4326	0.055
Mof_C 	C 	0.79006	0.83514	0.46561	-0.196
Mof_H 	H 	0.7911	0.808	0.4399	0.109
Mof_C 	C 	0.59745	0.90247	0.62218	-0.11
Mof_H 	H 	0.5792	0.9165	0.6413	0.067
Mof_C 	C 	0.52185	0.7379	0.68144	0.043
Mof_C 	C 	0.5733	0.73238	0.686	0.045
Mof_C 	C 	0.5003	0.80208	0.68021	-0.107
Mof_H 	H 	0.5176	0.8421	0.6797	0.067
Mof_C 	C 	0.63805	0.67404	0.66891	0.044
Mof_H 	H 	0.6489	0.6402	0.6523	0.028
Mof_C 	C 	0.7758	0.9384	0.41333	-0.102
Mof_H 	H 	0.7734	0.9101	0.3871	0.075
Mof_C 	C 	0.77493	0.0418	0.3632	0.126
Mof_C 	C 	0.50009	0.8735	0.50949	-0.115
Mof_H 	H 	0.5148	0.8388	0.4971	0.072
Mof_C 	C 	0.42813	0.74701	0.68021	-0.11
Mof_H 	H 	0.397	0.7498	0.6805	0.069
Mof_C 	C 	0.42751	0.8622	0.43869	0.041
Mof_C 	C 	0.60467	0.8722	0.54576	-0.113
Mof_H 	H 	0.5914	0.8671	0.5131	0.075
Mof_C 	C 	0.37839	0.8138	0.34804	-0.111
Mof_C 	C 	0.45297	0.80758	0.67967	0.045
Mof_C 	C 	0.45788	0.9362	0.6936	-0.098
Mof_H 	H 	0.4905	0.9331	0.7009	0.064
Mof_C 	C 	0.50224	0.9565	0.57071	-0.116
Mof_H 	H 	0.5186	0.9783	0.5989	0.071
Mof_C 	C 	0.77947	0.1492	0.32348	0.104
Mof_H 	H 	0.7798	0.1974	0.3241	-0.001
Mof_C 	C 	0.42995	0.7929	0.42697	-0.108
Mof_H 	H 	0.4485	0.7625	0.4493	0.07
Mof_C 	C 	0.77539	0.00922	0.32111	-0.178
Mof_H 	H 	0.7731	0.9613	0.3186	0.104
Mof_C 	C 	0.43756	0.9996	0.69657	0.023
Mof_H 	H 	0.4566	0.0386	0.7055	0.041
Mof_C 	C 	0.43152	0.941	0.50633	-0.116
Mof_H 	H 	0.4003	0.9526	0.4911	0.073
Mof_C 	C 	0.45595	0.0885	0.58768	-0.094
Mof_H 	H 	0.4884	0.0907	0.5933	0.068
Mof_C 	C 	0.59029	0.6813	0.66236	-0.115
Mof_H 	H 	0.5692	0.6515	0.6418	0.072
Mof_C 	C 	0.43127	0.0293	0.56702	0.029
Mof_C 	C 	0.45369	0.8908	0.48614	0.047
Mof_C 	C 	0.77646	0.9407	0.49896	-0.192
Mof_H 	H 	0.7679	0.9872	0.4961	0.098
Mof_C 	C 	0.77919	0.04797	0.28344	0.109
Mof_H 	H 	0.7795	0.025	0.2558	-0.002
Mof_C 	C 	0.39914	0.6063	0.71534	-0.129
Mof_H 	H 	0.3986	0.6413	0.7368	0.082
Mof_C 	C 	0.4552	0.9739	0.54874	0.054
Mof_C 	C 	0.3974	0.5036	0.65	0.057
Mof_H 	H 	0.3959	0.4699	0.627	0.026
Mof_C 	C 	0.40066	0.9065	0.40423	-0.112
Mof_H 	H 	0.3988	0.9531	0.4116	0.073
Mof_C 	C 	0.42201	0.61706	0.68169	0.059
Mof_C 	C 	0.37662	0.8834	0.35919	0.041
Mof_H 	H 	0.3593	0.9143	0.3364	0.035
Mof_C 	C 	0.78498	0.9081	0.54181	0.115
Mof_H 	H 	0.7823	0.9337	0.5676	-0.009
Mof_C 	C 	0.37558	0.49263	0.68503	-0.129
Mof_C 	C 	0.40484	0.7684	0.38208	0.039
Mof_H 	H 	0.4058	0.7217	0.3749	0.034
Mof_C 	C 	0.38219	0.8843	0.6681	-0.099
Mof_H 	H 	0.363	0.8458	0.6578	0.063
Mof_C 	C 	0.36165	0.9477	0.67113	0.024
Mof_H 	H 	0.329	0.9511	0.6628	0.039
Mof_C 	C 	0.37682	0.5438	0.71776	0.063
Mof_H 	H 	0.3627	0.5366	0.7416	0.023
Mof_C 	C 	0.4216	0.5648	0.6495	-0.123
Mof_H 	H 	0.4377	0.5709	0.6271	0.075
Mof_C 	C 	0.77588	0.1141	0.36338	-0.176
Mof_H 	H 	0.7741	0.1385	0.39	0.091
Mof_Co	Co	0.79908	0.82542	0.7303	1.176
Mof_Co	Co	0.81106	0.80093	0.61886	1.181
Mof_Co	Co	0.80717	0.66786	0.70044	1.176
Mof_N 	N 	0.79699	0.84152	0.5487	-0.237
Mof_N 	N 	0.78244	0.11747	0.28425	-0.229
Mof_O 	O 	0.35228	0.72691	0.2884	-0.395
Mof_O 	O 	0.33161	0.83754	0.27078	-0.437
Mof_O 	O 	0.74855	0.75297	0.73691	-0.445
Mof_O 	O 	0.73676	0.66728	0.68399	-0.448
Mof_O 	O 	0.34436	0.40561	0.72374	-0.41
Mof_O 	O 	0.33716	0.39453	0.64584	-0.44
Mof_O 	O 	0.74381	0.87124	0.67826	-0.432
Mof_O 	O 	0.74199	0.81263	0.61193	-0.454
Mof_O 	O 	0.82516	0.76182	0.6874	-0.588
Mof_O 	O 	0.31407	0.1979	0.59515	-0.403
Mof_O 	O 	0.37933	0.25781	0.61759	-0.349
Mof_O 	O 	0.32237	0.07671	0.67841	-0.417
Mof_O 	O 	0.39155	0.12481	0.70814	-0.306
Mof_C 	C 	0.22211	0.21228	0.70777	0.363
Mof_C 	C 	0.86692	0.57376	0.69109	0.324
Mof_C 	C 	0.10536	0.2769	0.71696	-0.117
Mof_H 	H 	0.0944	0.3119	0.7326	0.072
Mof_C 	C 	0.22386	0.35012	0.63707	0.379
Mof_C 	C 	0.29815	0.30576	0.5102	0.117
Mof_H 	H 	0.3047	0.2586	0.5136	-0.007
Mof_C 	C 	0.17023	0.21755	0.70058	-0.12
Mof_C 	C 	0.88408	0.64136	0.59163	-0.083
Mof_C 	C 	0.8888	0.50586	0.68625	-0.093
Mof_C 	C 	0.85796	0.70172	0.60252	0.298
Mof_C 	C 	0.02502	0.4071	0.55111	0.049
Mof_C 	C 	0.85937	0.5814	0.57277	0.016
Mof_H 	H 	0.8271	0.5787	0.5684	0.043
Mof_C 	C 	0.94845	0.1821	0.6803	0.04
Mof_C 	C 	0.15219	0.3589	0.56604	0.045
Mof_H 	H 	0.1704	0.3439	0.5471	0.029
Mof_C 	C 	0.14543	0.39119	0.64251	0.044
Mof_H 	H 	0.1592	0.3993	0.6748	0.028
Mof_C 	C 	0.28045	0.40462	0.45961	0.149
Mof_C 	C 	0.85029	0.92535	0.68511	0.393
Mof_C 	C 	0.17279	0.36795	0.61483	-0.121
Mof_C 	C 	0.15333	0.26903	0.72435	0.042
Mof_H 	H 	0.1744	0.2983	0.7453	0.028
Mof_C 	C 	0.99572	0.1784	0.68083	-0.11
Mof_H 	H 	0.0097	0.1354	0.6808	0.072
Mof_C 	C 	0.85206	0.29	0.2986	0.374
Mof_C 	C 	0.93245	0.6441	0.59995	0.019
Mof_H 	H 	0.9492	0.6833	0.6138	0.046
Mof_C 	C 	0.88269	0.5265	0.56062	-0.089
Mof_H 	H 	0.866	0.4867	0.5479	0.062
Mof_C 	C 	0.07625	0.393	0.57342	0.042
Mof_C 	C 	0.93089	0.37678	0.68009	0.033
Mof_C 	C 	0.27488	0.5056	0.40685	-0.074
Mof_H 	H 	0.2741	0.533	0.4326	0.055
Mof_C 	C 	0.29006	0.33514	0.46561	-0.196
Mof_H 	H 	0.2911	0.308	0.4399	0.109
Mof_C 	C 	0.09745	0.40247	0.62218	-0.11
Mof_H 	H 	0.0792	0.4165	0.6413	0.067
Mof_C 	C 	0.02185	0.2379	0.68144	0.044
Mof_C 	C 	0.0733	0.23238	0.686	0.045
Mof_C 	C 	0.0003	0.30208	0.68021	-0.108
Mof_H 	H 	0.0176	0.3421	0.6797	0.067
Mof_C 	C 	0.13805	0.17404	0.66891	0.044
Mof_H 	H 	0.1489	0.1402	0.6523	0.028
Mof_C 	C 	0.2758	0.4384	0.41333	-0.101
Mof_H 	H 	0.2734	0.4101	0.3871	0.075
Mof_C 	C 	0.27493	0.5418	0.3632	0.126
Mof_C 	C 	9e-05	0.3735	0.50949	-0.115
Mof_H 	H 	0.0148	0.3388	0.4971	0.072
Mof_C 	C 	0.92813	0.24701	0.68021	-0.11
Mof_H 	H 	0.897	0.2498	0.6805	0.069
Mof_C 	C 	0.92751	0.3622	0.43869	0.041
Mof_C 	C 	0.10467	0.3722	0.54576	-0.113
Mof_H 	H 	0.0914	0.3671	0.5131	0.075
Mof_C 	C 	0.87839	0.3138	0.34804	-0.111
Mof_C 	C 	0.95297	0.30758	0.67967	0.045
Mof_C 	C 	0.95788	0.4362	0.6936	-0.098
Mof_H 	H 	0.9905	0.4331	0.7009	0.064
Mof_C 	C 	0.00224	0.4565	0.57071	-0.117
Mof_H 	H 	0.0186	0.4783	0.5989	0.071
Mof_C 	C 	0.27947	0.6492	0.32348	0.104
Mof_H 	H 	0.2798	0.6974	0.3241	-0.001
Mof_C 	C 	0.92995	0.2929	0.42697	-0.108
Mof_H 	H 	0.9485	0.2625	0.4493	0.07
Mof_C 	C 	0.27539	0.50922	0.32111	-0.179
Mof_H 	H 	0.2731	0.4613	0.3186	0.105
Mof_C 	C 	0.93756	0.4996	0.69657	0.023
Mof_H 	H 	0.9566	0.5386	0.7055	0.041
Mof_C 	C 	0.93152	0.441	0.50633	-0.116
Mof_H 	H 	0.9003	0.4526	0.4911	0.073
Mof_C 	C 	0.95595	0.5885	0.58768	-0.094
Mof_H 	H 	0.9884	0.5907	0.5933	0.068
Mof_C 	C 	0.09029	0.1813	0.66236	-0.115
Mof_H 	H 	0.0692	0.1515	0.6418	0.072
Mof_C 	C 	0.93127	0.5293	0.56702	0.029
Mof_C 	C 	0.95369	0.3908	0.48614	0.047
Mof_C 	C 	0.27646	0.4407	0.49896	-0.192
Mof_H 	H 	0.2679	0.4872	0.4961	0.098
Mof_C 	C 	0.27919	0.54797	0.28344	0.11
Mof_H 	H 	0.2795	0.525	0.2558	-0.002
Mof_C 	C 	0.89914	0.1063	0.71534	-0.129
Mof_H 	H 	0.8986	0.1413	0.7368	0.082
Mof_C 	C 	0.9552	0.4739	0.54874	0.054
Mof_C 	C 	0.8974	0.0036	0.65	0.057
Mof_H 	H 	0.8959	0.9699	0.627	0.027
Mof_C 	C 	0.90066	0.4065	0.40423	-0.112
Mof_H 	H 	0.8988	0.4531	0.4116	0.073
Mof_C 	C 	0.92201	0.11706	0.68169	0.058
Mof_C 	C 	0.87662	0.3834	0.35919	0.041
Mof_H 	H 	0.8593	0.4143	0.3364	0.035
Mof_C 	C 	0.28498	0.4081	0.54181	0.115
Mof_H 	H 	0.2823	0.4337	0.5676	-0.009
Mof_C 	C 	0.87558	0.99263	0.68503	-0.129
Mof_C 	C 	0.90484	0.2684	0.38208	0.039
Mof_H 	H 	0.9058	0.2217	0.3749	0.034
Mof_C 	C 	0.88219	0.3843	0.6681	-0.099
Mof_H 	H 	0.863	0.3458	0.6578	0.063
Mof_C 	C 	0.86165	0.4477	0.67113	0.024
Mof_H 	H 	0.829	0.4511	0.6628	0.039
Mof_C 	C 	0.87682	0.0438	0.71776	0.062
Mof_H 	H 	0.8627	0.0366	0.7416	0.023
Mof_C 	C 	0.9216	0.0648	0.6495	-0.123
Mof_H 	H 	0.9377	0.0709	0.6271	0.075
Mof_C 	C 	0.27588	0.6141	0.36338	-0.176
Mof_H 	H 	0.2741	0.6385	0.39	0.091
Mof_Co	Co	0.29908	0.32542	0.7303	1.176
Mof_Co	Co	0.31106	0.30093	0.61886	1.181
Mof_Co	Co	0.30717	0.16786	0.70044	1.176
Mof_N 	N 	0.29699	0.34152	0.5487	-0.237
Mof_N 	N 	0.28244	0.61747	0.28425	-0.229
Mof_O 	O 	0.85228	0.22691	0.2884	-0.395
Mof_O 	O 	0.83161	0.33754	0.27078	-0.437
Mof_O 	O 	0.24855	0.25297	0.73691	-0.445
Mof_O 	O 	0.23676	0.16728	0.68399	-0.448
Mof_O 	O 	0.84436	0.90561	0.72374	-0.41
Mof_O 	O 	0.83716	0.89453	0.64584	-0.439
Mof_O 	O 	0.24381	0.37124	0.67826	-0.432
Mof_O 	O 	0.24199	0.31263	0.61193	-0.454
Mof_O 	O 	0.32516	0.26182	0.6874	-0.588
Mof_O 	O 	0.81407	0.6979	0.59515	-0.403
Mof_O 	O 	0.87933	0.75781	0.61759	-0.349
Mof_O 	O 	0.82237	0.57671	0.67841	-0.417
Mof_O 	O 	0.89155	0.62481	0.70814	-0.306
_end
