# CIF file generated by openbabel 3.1.0, see https://openbabel.org
data_I
_chemical_name_common 'image0'
_cell_length_a 16.8753
_cell_length_b 16.8753
_cell_length_c 16.8753
_cell_angle_alpha 90
_cell_angle_beta 90
_cell_angle_gamma 90
_space_group_name_H-M_alt 'P 1'
_space_group_name_Hall 'P 1'
loop_
    _symmetry_equiv_pos_as_xyz
    x,y,z
loop_
    _atom_site_label
    _atom_site_type_symbol
    _atom_site_fract_x
    _atom_site_fract_y
    _atom_site_fract_z
    _atom_site_occupancy
    In1      In       0.50770    0.61417    0.45050    1.000
    O1       O        0.41050    0.54300    0.49540    1.000
    O2       O        0.46250    0.71950    0.50040    1.000
    O3       O        0.61330    0.66280    0.40290    1.000
    O4       O        0.61700    0.58000    0.30030    1.000
    O5       O        0.44740    0.64690    0.34500    1.000
    O6       O        0.55290    0.74300    0.59060    1.000
    C1       C        0.37720    0.62650    0.22590    1.000
    C2       C        0.41160    0.59750    0.30290    1.000
    C3       C        0.49050    0.75970    0.55710    1.000
    C4       C        0.64080    0.63770    0.33710    1.000
    C5       C        0.40870    0.69490    0.18930    1.000
    H1       H        0.45360    0.71900    0.21030    1.000
    C6       C        0.73830    0.75060    0.34590    1.000
    H2       H        0.71240    0.76850    0.39110    1.000
    C7       C        0.44200    0.83080    0.58020    1.000
    C8       C        0.37600    0.85290    0.53780    1.000
    H3       H        0.36070    0.82250    0.49440    1.000
    C9       C        0.71130    0.68280    0.30410    1.000
    O7       O        0.40370    0.52410    0.31660    1.000
    In2      In       0.99230    0.38583    0.95050    1.000
    O8       O        0.08950    0.45700    0.99540    1.000
    O9       O        0.03750    0.28050    0.00040    1.000
    O10      O        0.88670    0.33720    0.90290    1.000
    O11      O        0.88300    0.42000    0.80030    1.000
    O12      O        0.05260    0.35310    0.84500    1.000
    O13      O        0.94710    0.25700    0.09060    1.000
    C10      C        0.12280    0.37350    0.72590    1.000
    C11      C        0.08840    0.40250    0.80290    1.000
    C12      C        0.00950    0.24030    0.05710    1.000
    C13      C        0.85920    0.36230    0.83710    1.000
    C14      C        0.09130    0.30510    0.68930    1.000
    H4       H        0.04640    0.28100    0.71030    1.000
    C15      C        0.76170    0.24940    0.84590    1.000
    H5       H        0.78760    0.23150    0.89110    1.000
    C16      C        0.05800    0.16920    0.08020    1.000
    C17      C        0.12400    0.14710    0.03780    1.000
    H6       H        0.13930    0.17750    0.99440    1.000
    C18      C        0.78870    0.31720    0.80410    1.000
    O14      O        0.09630    0.47590    0.81660    1.000
    In3      In       0.49230    0.11417    0.04950    1.000
    O15      O        0.58950    0.04300    0.00460    1.000
    O16      O        0.53750    0.21950    0.99960    1.000
    O17      O        0.38670    0.16280    0.09710    1.000
    O18      O        0.38300    0.08000    0.19970    1.000
    O19      O        0.55260    0.14690    0.15500    1.000
    O20      O        0.44710    0.24300    0.90940    1.000
    C19      C        0.62280    0.12650    0.27410    1.000
    C20      C        0.58840    0.09750    0.19710    1.000
    C21      C        0.50950    0.25970    0.94290    1.000
    C22      C        0.35920    0.13770    0.16290    1.000
    C23      C        0.59130    0.19490    0.31070    1.000
    H7       H        0.54640    0.21900    0.28970    1.000
    C24      C        0.26170    0.25060    0.15410    1.000
    H8       H        0.28760    0.26850    0.10890    1.000
    C25      C        0.55800    0.33080    0.91980    1.000
    C26      C        0.62400    0.35290    0.96220    1.000
    H9       H        0.63930    0.32250    0.00560    1.000
    C27      C        0.28870    0.18280    0.19590    1.000
    O21      O        0.59630    0.02410    0.18340    1.000
    In4      In       0.00770    0.88583    0.54950    1.000
    O22      O        0.91050    0.95700    0.50460    1.000
    O23      O        0.96250    0.78050    0.49960    1.000
    O24      O        0.11330    0.83720    0.59710    1.000
    O25      O        0.11700    0.92000    0.69970    1.000
    O26      O        0.94740    0.85310    0.65500    1.000
    O27      O        0.05290    0.75700    0.40940    1.000
    C28      C        0.87720    0.87350    0.77410    1.000
    C29      C        0.91160    0.90250    0.69710    1.000
    C30      C        0.99050    0.74030    0.44290    1.000
    C31      C        0.14080    0.86230    0.66290    1.000
    C32      C        0.90870    0.80510    0.81070    1.000
    H10      H        0.95360    0.78100    0.78970    1.000
    C33      C        0.23830    0.74940    0.65410    1.000
    H11      H        0.21240    0.73150    0.60890    1.000
    C34      C        0.94200    0.66920    0.41980    1.000
    C35      C        0.87600    0.64710    0.46220    1.000
    H12      H        0.86070    0.67750    0.50560    1.000
    C36      C        0.21130    0.81720    0.69590    1.000
    O28      O        0.90370    0.97590    0.68340    1.000
    In5      In       0.45050    0.50770    0.61417    1.000
    O29      O        0.49540    0.41050    0.54300    1.000
    O30      O        0.50040    0.46250    0.71950    1.000
    O31      O        0.40290    0.61330    0.66280    1.000
    O32      O        0.30030    0.61700    0.58000    1.000
    O33      O        0.34500    0.44740    0.64690    1.000
    O34      O        0.59060    0.55290    0.74300    1.000
    C37      C        0.22590    0.37720    0.62650    1.000
    C38      C        0.30290    0.41160    0.59750    1.000
    C39      C        0.55710    0.49050    0.75970    1.000
    C40      C        0.33710    0.64080    0.63770    1.000
    C41      C        0.18930    0.40870    0.69490    1.000
    H13      H        0.21030    0.45360    0.71900    1.000
    C42      C        0.34590    0.73830    0.75060    1.000
    H14      H        0.39110    0.71240    0.76850    1.000
    C43      C        0.58020    0.44200    0.83080    1.000
    C44      C        0.53780    0.37600    0.85290    1.000
    H15      H        0.49440    0.36070    0.82250    1.000
    C45      C        0.30410    0.71130    0.68280    1.000
    O35      O        0.31660    0.40370    0.52410    1.000
    In6      In       0.95050    0.99230    0.38583    1.000
    O36      O        0.99540    0.08950    0.45700    1.000
    O37      O        0.00040    0.03750    0.28050    1.000
    O38      O        0.90290    0.88670    0.33720    1.000
    O39      O        0.80030    0.88300    0.42000    1.000
    O40      O        0.84500    0.05260    0.35310    1.000
    O41      O        0.09060    0.94710    0.25700    1.000
    C46      C        0.72590    0.12280    0.37350    1.000
    C47      C        0.80290    0.08840    0.40250    1.000
    C48      C        0.05710    0.00950    0.24030    1.000
    C49      C        0.83710    0.85920    0.36230    1.000
    C50      C        0.68930    0.09130    0.30510    1.000
    H16      H        0.71030    0.04640    0.28100    1.000
    C51      C        0.84590    0.76170    0.24940    1.000
    H17      H        0.89110    0.78760    0.23150    1.000
    C52      C        0.08020    0.05800    0.16920    1.000
    C53      C        0.03780    0.12400    0.14710    1.000
    H18      H        0.99440    0.13930    0.17750    1.000
    C54      C        0.80410    0.78870    0.31720    1.000
    O42      O        0.81660    0.09630    0.47590    1.000
    In7      In       0.04950    0.49230    0.11417    1.000
    O43      O        0.00460    0.58950    0.04300    1.000
    O44      O        0.99960    0.53750    0.21950    1.000
    O45      O        0.09710    0.38670    0.16280    1.000
    O46      O        0.19970    0.38300    0.08000    1.000
    O47      O        0.15500    0.55260    0.14690    1.000
    O48      O        0.90940    0.44710    0.24300    1.000
    C55      C        0.27410    0.62280    0.12650    1.000
    C56      C        0.19710    0.58840    0.09750    1.000
    C57      C        0.94290    0.50950    0.25970    1.000
    C58      C        0.16290    0.35920    0.13770    1.000
    C59      C        0.31070    0.59130    0.19490    1.000
    H19      H        0.28970    0.54640    0.21900    1.000
    C60      C        0.15410    0.26170    0.25060    1.000
    H20      H        0.10890    0.28760    0.26850    1.000
    C61      C        0.91980    0.55800    0.33080    1.000
    C62      C        0.96220    0.62400    0.35290    1.000
    H21      H        0.00560    0.63930    0.32250    1.000
    C63      C        0.19590    0.28870    0.18280    1.000
    O49      O        0.18340    0.59630    0.02410    1.000
    In8      In       0.54950    0.00770    0.88583    1.000
    O50      O        0.50460    0.91050    0.95700    1.000
    O51      O        0.49960    0.96250    0.78050    1.000
    O52      O        0.59710    0.11330    0.83720    1.000
    O53      O        0.69970    0.11700    0.92000    1.000
    O54      O        0.65500    0.94740    0.85310    1.000
    O55      O        0.40940    0.05290    0.75700    1.000
    C64      C        0.77410    0.87720    0.87350    1.000
    C65      C        0.69710    0.91160    0.90250    1.000
    C66      C        0.44290    0.99050    0.74030    1.000
    C67      C        0.66290    0.14080    0.86230    1.000
    C68      C        0.81070    0.90870    0.80510    1.000
    H22      H        0.78970    0.95360    0.78100    1.000
    C69      C        0.65410    0.23830    0.74940    1.000
    H23      H        0.60890    0.21240    0.73150    1.000
    C70      C        0.41980    0.94200    0.66920    1.000
    C71      C        0.46220    0.87600    0.64710    1.000
    H24      H        0.50560    0.86070    0.67750    1.000
    C72      C        0.69590    0.21130    0.81720    1.000
    O56      O        0.68340    0.90370    0.97590    1.000
    In9      In       0.61417    0.45050    0.50770    1.000
    O57      O        0.54300    0.49540    0.41050    1.000
    O58      O        0.71950    0.50040    0.46250    1.000
    O59      O        0.66280    0.40290    0.61330    1.000
    O60      O        0.58000    0.30030    0.61700    1.000
    O61      O        0.64690    0.34500    0.44740    1.000
    O62      O        0.74300    0.59060    0.55290    1.000
    C73      C        0.62650    0.22590    0.37720    1.000
    C74      C        0.59750    0.30290    0.41160    1.000
    C75      C        0.75970    0.55710    0.49050    1.000
    C76      C        0.63770    0.33710    0.64080    1.000
    C77      C        0.69490    0.18930    0.40870    1.000
    H25      H        0.71900    0.21030    0.45360    1.000
    C78      C        0.75060    0.34590    0.73830    1.000
    H26      H        0.76850    0.39110    0.71240    1.000
    C79      C        0.83080    0.58020    0.44200    1.000
    C80      C        0.85290    0.53780    0.37600    1.000
    H27      H        0.82250    0.49440    0.36070    1.000
    C81      C        0.68280    0.30410    0.71130    1.000
    O63      O        0.52410    0.31660    0.40370    1.000
    In10     In       0.38583    0.95050    0.99230    1.000
    O64      O        0.45700    0.99540    0.08950    1.000
    O65      O        0.28050    0.00040    0.03750    1.000
    O66      O        0.33720    0.90290    0.88670    1.000
    O67      O        0.42000    0.80030    0.88300    1.000
    O68      O        0.35310    0.84500    0.05260    1.000
    O69      O        0.25700    0.09060    0.94710    1.000
    C82      C        0.37350    0.72590    0.12280    1.000
    C83      C        0.40250    0.80290    0.08840    1.000
    C84      C        0.24030    0.05710    0.00950    1.000
    C85      C        0.36230    0.83710    0.85920    1.000
    C86      C        0.30510    0.68930    0.09130    1.000
    H28      H        0.28100    0.71030    0.04640    1.000
    C87      C        0.24940    0.84590    0.76170    1.000
    H29      H        0.23150    0.89110    0.78760    1.000
    C88      C        0.16920    0.08020    0.05800    1.000
    C89      C        0.14710    0.03780    0.12400    1.000
    H30      H        0.17750    0.99440    0.13930    1.000
    C90      C        0.31720    0.80410    0.78870    1.000
    O70      O        0.47590    0.81660    0.09630    1.000
    In11     In       0.11417    0.04950    0.49230    1.000
    O71      O        0.04300    0.00460    0.58950    1.000
    O72      O        0.21950    0.99960    0.53750    1.000
    O73      O        0.16280    0.09710    0.38670    1.000
    O74      O        0.08000    0.19970    0.38300    1.000
    O75      O        0.14690    0.15500    0.55260    1.000
    O76      O        0.24300    0.90940    0.44710    1.000
    C91      C        0.12650    0.27410    0.62280    1.000
    C92      C        0.09750    0.19710    0.58840    1.000
    C93      C        0.25970    0.94290    0.50950    1.000
    C94      C        0.13770    0.16290    0.35920    1.000
    C95      C        0.19490    0.31070    0.59130    1.000
    H31      H        0.21900    0.28970    0.54640    1.000
    C96      C        0.25060    0.15410    0.26170    1.000
    H32      H        0.26850    0.10890    0.28760    1.000
    C97      C        0.33080    0.91980    0.55800    1.000
    C98      C        0.35290    0.96220    0.62400    1.000
    H33      H        0.32250    0.00560    0.63930    1.000
    C99      C        0.18280    0.19590    0.28870    1.000
    O77      O        0.02410    0.18340    0.59630    1.000
    In12     In       0.88583    0.54950    0.00770    1.000
    O78      O        0.95700    0.50460    0.91050    1.000
    O79      O        0.78050    0.49960    0.96250    1.000
    O80      O        0.83720    0.59710    0.11330    1.000
    O81      O        0.92000    0.69970    0.11700    1.000
    O82      O        0.85310    0.65500    0.94740    1.000
    O83      O        0.75700    0.40940    0.05290    1.000
    C100     C        0.87350    0.77410    0.87720    1.000
    C101     C        0.90250    0.69710    0.91160    1.000
    C102     C        0.74030    0.44290    0.99050    1.000
    C103     C        0.86230    0.66290    0.14080    1.000
    C104     C        0.80510    0.81070    0.90870    1.000
    H34      H        0.78100    0.78970    0.95360    1.000
    C105     C        0.74940    0.65410    0.23830    1.000
    H35      H        0.73150    0.60890    0.21240    1.000
    C106     C        0.66920    0.41980    0.94200    1.000
    C107     C        0.64710    0.46220    0.87600    1.000
    H36      H        0.67750    0.50560    0.86070    1.000
    C108     C        0.81720    0.69590    0.21130    1.000
    O84      O        0.97590    0.68340    0.90370    1.000
    Nd1      Nd       0.41544    0.41544    0.41544    1.000
    O85      O        0.56030    0.56030    0.56030    1.000
    Nd2      Nd       0.08456    0.58456    0.91544    1.000
    O86      O        0.93970    0.43970    0.06030    1.000
    Nd3      Nd       0.58456    0.91544    0.08456    1.000
    O87      O        0.43970    0.06030    0.93970    1.000
    Nd4      Nd       0.91544    0.08456    0.58456    1.000
    O88      O        0.06030    0.93970    0.43970    1.000
