# CIF file generated by openbabel 3.1.0, see https://openbabel.org
data_I
_chemical_name_common 'image0'
_cell_length_a 17.317
_cell_length_b 25.397
_cell_length_c 21.54
_cell_angle_alpha 90
_cell_angle_beta 94.431
_cell_angle_gamma 90
_space_group_name_H-M_alt 'P 1'
_space_group_name_Hall 'P 1'
loop_
    _symmetry_equiv_pos_as_xyz
    x,y,z
loop_
    _atom_site_label
    _atom_site_type_symbol
    _atom_site_fract_x
    _atom_site_fract_y
    _atom_site_fract_z
    _atom_site_occupancy
    C1       C        0.87300    0.81030    0.56560    1.000
    H1       H        0.82820    0.79280    0.54770    1.000
    C2       C        0.93150    0.78120    0.59600    1.000
    H2       H        0.92700    0.74400    0.59860    1.000
    C3       C        0.99460    0.80560    0.62180    1.000
    H3       H        0.03480    0.78570    0.64320    1.000
    C4       C        0.00090    0.85920    0.61730    1.000
    H4       H        0.04590    0.87670    0.63480    1.000
    C5       C        0.94130    0.88720    0.58730    1.000
    C6       C        0.94050    0.94560    0.58220    1.000
    C7       C        0.86570    0.01796    0.54610    1.000
    C8       C        0.87220    0.04640    0.49130    1.000
    H5       H        0.89000    0.02960    0.45570    1.000
    C9       C        0.85240    0.09940    0.48920    1.000
    H6       H        0.85790    0.11890    0.45220    1.000
    C10      C        0.82500    0.12379    0.53950    1.000
    C11      C        0.81940    0.09570    0.59420    1.000
    H7       H        0.80180    0.11280    0.62970    1.000
    C12      C        0.83910    0.04300    0.59750    1.000
    H8       H        0.83450    0.02390    0.63500    1.000
    C13      C        0.80410    0.18100    0.53560    1.000
    C14      C        0.07000    0.08620    0.57220    1.000
    H9       H        0.04970    0.05660    0.54960    1.000
    C15      C        0.02990    0.10590    0.62040    1.000
    H10      H        0.98220    0.09050    0.62980    1.000
    C16      C        0.05990    0.14770    0.65410    1.000
    H11      H        0.03320    0.16220    0.68700    1.000
    C17      C        0.13040    0.16850    0.63930    1.000
    H12      H        0.15310    0.19680    0.66300    1.000
    C18      C        0.16690    0.14810    0.59060    1.000
    C19      C        0.24130    0.16830    0.57140    1.000
    C20      C        0.33920    0.15760    0.50260    1.000
    C21      C        0.40180    0.12890    0.52470    1.000
    H13      H        0.39620    0.09970    0.55140    1.000
    C22      C        0.47680    0.14420    0.50640    1.000
    H14      H        0.52120    0.12520    0.52240    1.000
    C23      C        0.48570    0.18490    0.46680    1.000
    C24      C        0.42300    0.21230    0.44570    1.000
    H15      H        0.42840    0.24080    0.41790    1.000
    C25      C        0.35050    0.19930    0.46410    1.000
    H16      H        0.30710    0.22000    0.44940    1.000
    C26      C        0.56610    0.19990    0.44420    1.000
    C27      C        0.74120    0.02260    0.91360    1.000
    H17      H        0.77180    0.04130    0.88630    1.000
    C28      C        0.69780    0.97990    0.89160    1.000
    H18      H        0.69900    0.96940    0.84940    1.000
    C29      C        0.65370    0.95320    0.92990    1.000
    H19      H        0.62520    0.92310    0.91540    1.000
    C30      C        0.65090    0.97060    0.99070    1.000
    H20      H        0.61930    0.95290    0.01840    1.000
    C31      C        0.69410    0.01340    0.01040    1.000
    C32      C        0.69430    0.03460    0.07370    1.000
    C33      C        0.74790    0.09990    0.14310    1.000
    C34      C        0.68420    0.12760    0.16000    1.000
    H21      H        0.63800    0.12860    0.13310    1.000
    C35      C        0.68800    0.15380    0.21640    1.000
    H22      H        0.64430    0.17290    0.22820    1.000
    C36      C        0.75700    0.15260    0.25680    1.000
    C37      C        0.81520    0.12270    0.23910    1.000
    H23      H        0.86150    0.12050    0.26570    1.000
    C38      C        0.81070    0.09500    0.18430    1.000
    H24      H        0.85180    0.07220    0.17510    1.000
    C39      C        0.76130    0.18190    0.31680    1.000
    Co1      Co       0.80604    0.90982    0.51526    1.000
    N1       N        0.87780    0.86285    0.56070    1.000
    N2       N        0.88100    0.96279    0.54730    1.000
    N3       N        0.13640    0.10754    0.55650    1.000
    N4       N        0.26290    0.14523    0.52050    1.000
    N5       N        0.74050    0.03795    0.97360    1.000
    N6       N        0.74410    0.07455    0.08370    1.000
    O1       O        0.99240    0.97257    0.60890    1.000
    O2       O        0.79930    0.20202    0.48270    1.000
    O3       O        0.79410    0.20535    0.58500    1.000
    O4       O        0.27770    0.20300    0.60210    1.000
    O5       O        0.56770    0.22960    0.40080    1.000
    O6       O        0.62170    0.18280    0.47390    1.000
    O7       O        0.65300    0.01470    0.11250    1.000
    O8       O        0.81790    0.20950    0.32980    1.000
    O9       O        0.70460    0.17950    0.34800    1.000
    Zn1      Zn       0.70533    0.21700    0.42708    1.000
    C40      C        0.37300    0.31030    0.56560    1.000
    H25      H        0.32820    0.29280    0.54770    1.000
    C41      C        0.43150    0.28120    0.59600    1.000
    H26      H        0.42700    0.24400    0.59860    1.000
    C42      C        0.49460    0.30560    0.62180    1.000
    H27      H        0.53480    0.28570    0.64320    1.000
    C43      C        0.50090    0.35920    0.61730    1.000
    H28      H        0.54590    0.37670    0.63480    1.000
    C44      C        0.44130    0.38720    0.58730    1.000
    C45      C        0.44050    0.44560    0.58220    1.000
    C46      C        0.36570    0.51796    0.54610    1.000
    C47      C        0.37220    0.54640    0.49130    1.000
    H29      H        0.39000    0.52960    0.45570    1.000
    C48      C        0.35240    0.59940    0.48920    1.000
    H30      H        0.35790    0.61890    0.45220    1.000
    C49      C        0.32500    0.62379    0.53950    1.000
    C50      C        0.31940    0.59570    0.59420    1.000
    H31      H        0.30180    0.61280    0.62970    1.000
    C51      C        0.33910    0.54300    0.59750    1.000
    H32      H        0.33450    0.52390    0.63500    1.000
    C52      C        0.30410    0.68100    0.53560    1.000
    C53      C        0.57000    0.58620    0.57220    1.000
    H33      H        0.54970    0.55660    0.54960    1.000
    C54      C        0.52990    0.60590    0.62040    1.000
    H34      H        0.48220    0.59050    0.62980    1.000
    C55      C        0.55990    0.64770    0.65410    1.000
    H35      H        0.53320    0.66220    0.68700    1.000
    C56      C        0.63040    0.66850    0.63930    1.000
    H36      H        0.65310    0.69680    0.66300    1.000
    C57      C        0.66690    0.64810    0.59060    1.000
    C58      C        0.74130    0.66830    0.57140    1.000
    C59      C        0.83920    0.65760    0.50260    1.000
    C60      C        0.90180    0.62890    0.52470    1.000
    H37      H        0.89620    0.59970    0.55140    1.000
    C61      C        0.97680    0.64420    0.50640    1.000
    H38      H        0.02120    0.62520    0.52240    1.000
    C62      C        0.98570    0.68490    0.46680    1.000
    C63      C        0.92300    0.71230    0.44570    1.000
    H39      H        0.92840    0.74080    0.41790    1.000
    C64      C        0.85050    0.69930    0.46410    1.000
    H40      H        0.80710    0.72000    0.44940    1.000
    C65      C        0.06610    0.69990    0.44420    1.000
    C66      C        0.24120    0.52260    0.91360    1.000
    H41      H        0.27180    0.54130    0.88630    1.000
    C67      C        0.19780    0.47990    0.89160    1.000
    H42      H        0.19900    0.46940    0.84940    1.000
    C68      C        0.15370    0.45320    0.92990    1.000
    H43      H        0.12520    0.42310    0.91540    1.000
    C69      C        0.15090    0.47060    0.99070    1.000
    H44      H        0.11930    0.45290    0.01840    1.000
    C70      C        0.19410    0.51340    0.01040    1.000
    C71      C        0.19430    0.53460    0.07370    1.000
    C72      C        0.24790    0.59990    0.14310    1.000
    C73      C        0.18420    0.62760    0.16000    1.000
    H45      H        0.13800    0.62860    0.13310    1.000
    C74      C        0.18800    0.65380    0.21640    1.000
    H46      H        0.14430    0.67290    0.22820    1.000
    C75      C        0.25700    0.65260    0.25680    1.000
    C76      C        0.31520    0.62270    0.23910    1.000
    H47      H        0.36150    0.62050    0.26570    1.000
    C77      C        0.31070    0.59500    0.18430    1.000
    H48      H        0.35180    0.57220    0.17510    1.000
    C78      C        0.26130    0.68190    0.31680    1.000
    Co2      Co       0.30604    0.40982    0.51526    1.000
    N7       N        0.37780    0.36285    0.56070    1.000
    N8       N        0.38100    0.46279    0.54730    1.000
    N9       N        0.63640    0.60754    0.55650    1.000
    N10      N        0.76290    0.64523    0.52050    1.000
    N11      N        0.24050    0.53795    0.97360    1.000
    N12      N        0.24410    0.57455    0.08370    1.000
    O10      O        0.49240    0.47257    0.60890    1.000
    O11      O        0.29930    0.70202    0.48270    1.000
    O12      O        0.29410    0.70535    0.58500    1.000
    O13      O        0.77770    0.70300    0.60210    1.000
    O14      O        0.06770    0.72960    0.40080    1.000
    O15      O        0.12170    0.68280    0.47390    1.000
    O16      O        0.15300    0.51470    0.11250    1.000
    O17      O        0.31790    0.70950    0.32980    1.000
    O18      O        0.20460    0.67950    0.34800    1.000
    Zn2      Zn       0.20533    0.71700    0.42708    1.000
    C79      C        0.12700    0.81030    0.93440    1.000
    H49      H        0.17180    0.79280    0.95230    1.000
    C80      C        0.06850    0.78120    0.90400    1.000
    H50      H        0.07300    0.74400    0.90140    1.000
    C81      C        0.00540    0.80560    0.87820    1.000
    H51      H        0.96520    0.78570    0.85680    1.000
    C82      C        0.99910    0.85920    0.88270    1.000
    H52      H        0.95410    0.87670    0.86520    1.000
    C83      C        0.05870    0.88720    0.91270    1.000
    C84      C        0.05950    0.94560    0.91780    1.000
    C85      C        0.13430    0.01796    0.95390    1.000
    C86      C        0.12780    0.04640    0.00870    1.000
    H53      H        0.11000    0.02960    0.04430    1.000
    C87      C        0.14760    0.09940    0.01080    1.000
    H54      H        0.14210    0.11890    0.04780    1.000
    C88      C        0.17500    0.12379    0.96050    1.000
    C89      C        0.18060    0.09570    0.90580    1.000
    H55      H        0.19820    0.11280    0.87030    1.000
    C90      C        0.16090    0.04300    0.90250    1.000
    H56      H        0.16550    0.02390    0.86500    1.000
    C91      C        0.19590    0.18100    0.96440    1.000
    C92      C        0.93000    0.08620    0.92780    1.000
    H57      H        0.95030    0.05660    0.95040    1.000
    C93      C        0.97010    0.10590    0.87960    1.000
    H58      H        0.01780    0.09050    0.87020    1.000
    C94      C        0.94010    0.14770    0.84590    1.000
    H59      H        0.96680    0.16220    0.81300    1.000
    C95      C        0.86960    0.16850    0.86070    1.000
    H60      H        0.84690    0.19680    0.83700    1.000
    C96      C        0.83310    0.14810    0.90940    1.000
    C97      C        0.75870    0.16830    0.92860    1.000
    C98      C        0.66080    0.15760    0.99740    1.000
    C99      C        0.59820    0.12890    0.97530    1.000
    H61      H        0.60380    0.09970    0.94860    1.000
    C100     C        0.52320    0.14420    0.99360    1.000
    H62      H        0.47880    0.12520    0.97760    1.000
    C101     C        0.51430    0.18490    0.03320    1.000
    C102     C        0.57700    0.21230    0.05430    1.000
    H63      H        0.57160    0.24080    0.08210    1.000
    C103     C        0.64950    0.19930    0.03590    1.000
    H64      H        0.69290    0.22000    0.05060    1.000
    C104     C        0.43390    0.19990    0.05580    1.000
    C105     C        0.25880    0.02260    0.58640    1.000
    H65      H        0.22820    0.04130    0.61370    1.000
    C106     C        0.30220    0.97990    0.60840    1.000
    H66      H        0.30100    0.96940    0.65060    1.000
    C107     C        0.34630    0.95320    0.57010    1.000
    H67      H        0.37480    0.92310    0.58460    1.000
    C108     C        0.34910    0.97060    0.50930    1.000
    H68      H        0.38070    0.95290    0.48160    1.000
    C109     C        0.30590    0.01340    0.48960    1.000
    C110     C        0.30570    0.03460    0.42630    1.000
    C111     C        0.25210    0.09990    0.35690    1.000
    C112     C        0.31580    0.12760    0.34000    1.000
    H69      H        0.36200    0.12860    0.36690    1.000
    C113     C        0.31200    0.15380    0.28360    1.000
    H70      H        0.35570    0.17290    0.27180    1.000
    C114     C        0.24300    0.15260    0.24320    1.000
    C115     C        0.18480    0.12270    0.26090    1.000
    H71      H        0.13850    0.12050    0.23430    1.000
    C116     C        0.18930    0.09500    0.31570    1.000
    H72      H        0.14820    0.07220    0.32490    1.000
    C117     C        0.23870    0.18190    0.18320    1.000
    Co3      Co       0.19396    0.90982    0.98474    1.000
    N13      N        0.12220    0.86285    0.93930    1.000
    N14      N        0.11900    0.96279    0.95270    1.000
    N15      N        0.86360    0.10754    0.94350    1.000
    N16      N        0.73710    0.14523    0.97950    1.000
    N17      N        0.25950    0.03795    0.52640    1.000
    N18      N        0.25590    0.07455    0.41630    1.000
    O19      O        0.00760    0.97257    0.89110    1.000
    O20      O        0.20070    0.20202    0.01730    1.000
    O21      O        0.20590    0.20535    0.91500    1.000
    O22      O        0.72230    0.20300    0.89790    1.000
    O23      O        0.43230    0.22960    0.09920    1.000
    O24      O        0.37830    0.18280    0.02610    1.000
    O25      O        0.34700    0.01470    0.38750    1.000
    O26      O        0.18210    0.20950    0.17020    1.000
    O27      O        0.29540    0.17950    0.15200    1.000
    Zn3      Zn       0.29467    0.21700    0.07292    1.000
    C118     C        0.62700    0.31030    0.93440    1.000
    H73      H        0.67180    0.29280    0.95230    1.000
    C119     C        0.56850    0.28120    0.90400    1.000
    H74      H        0.57300    0.24400    0.90140    1.000
    C120     C        0.50540    0.30560    0.87820    1.000
    H75      H        0.46520    0.28570    0.85680    1.000
    C121     C        0.49910    0.35920    0.88270    1.000
    H76      H        0.45410    0.37670    0.86520    1.000
    C122     C        0.55870    0.38720    0.91270    1.000
    C123     C        0.55950    0.44560    0.91780    1.000
    C124     C        0.63430    0.51796    0.95390    1.000
    C125     C        0.62780    0.54640    0.00870    1.000
    H77      H        0.61000    0.52960    0.04430    1.000
    C126     C        0.64760    0.59940    0.01080    1.000
    H78      H        0.64210    0.61890    0.04780    1.000
    C127     C        0.67500    0.62379    0.96050    1.000
    C128     C        0.68060    0.59570    0.90580    1.000
    H79      H        0.69820    0.61280    0.87030    1.000
    C129     C        0.66090    0.54300    0.90250    1.000
    H80      H        0.66550    0.52390    0.86500    1.000
    C130     C        0.69590    0.68100    0.96440    1.000
    C131     C        0.43000    0.58620    0.92780    1.000
    H81      H        0.45030    0.55660    0.95040    1.000
    C132     C        0.47010    0.60590    0.87960    1.000
    H82      H        0.51780    0.59050    0.87020    1.000
    C133     C        0.44010    0.64770    0.84590    1.000
    H83      H        0.46680    0.66220    0.81300    1.000
    C134     C        0.36960    0.66850    0.86070    1.000
    H84      H        0.34690    0.69680    0.83700    1.000
    C135     C        0.33310    0.64810    0.90940    1.000
    C136     C        0.25870    0.66830    0.92860    1.000
    C137     C        0.16080    0.65760    0.99740    1.000
    C138     C        0.09820    0.62890    0.97530    1.000
    H85      H        0.10380    0.59970    0.94860    1.000
    C139     C        0.02320    0.64420    0.99360    1.000
    H86      H        0.97880    0.62520    0.97760    1.000
    C140     C        0.01430    0.68490    0.03320    1.000
    C141     C        0.07700    0.71230    0.05430    1.000
    H87      H        0.07160    0.74080    0.08210    1.000
    C142     C        0.14950    0.69930    0.03590    1.000
    H88      H        0.19290    0.72000    0.05060    1.000
    C143     C        0.93390    0.69990    0.05580    1.000
    C144     C        0.75880    0.52260    0.58640    1.000
    H89      H        0.72820    0.54130    0.61370    1.000
    C145     C        0.80220    0.47990    0.60840    1.000
    H90      H        0.80100    0.46940    0.65060    1.000
    C146     C        0.84630    0.45320    0.57010    1.000
    H91      H        0.87480    0.42310    0.58460    1.000
    C147     C        0.84910    0.47060    0.50930    1.000
    H92      H        0.88070    0.45290    0.48160    1.000
    C148     C        0.80590    0.51340    0.48960    1.000
    C149     C        0.80570    0.53460    0.42630    1.000
    C150     C        0.75210    0.59990    0.35690    1.000
    C151     C        0.81580    0.62760    0.34000    1.000
    H93      H        0.86200    0.62860    0.36690    1.000
    C152     C        0.81200    0.65380    0.28360    1.000
    H94      H        0.85570    0.67290    0.27180    1.000
    C153     C        0.74300    0.65260    0.24320    1.000
    C154     C        0.68480    0.62270    0.26090    1.000
    H95      H        0.63850    0.62050    0.23430    1.000
    C155     C        0.68930    0.59500    0.31570    1.000
    H96      H        0.64820    0.57220    0.32490    1.000
    C156     C        0.73870    0.68190    0.18320    1.000
    Co4      Co       0.69396    0.40982    0.98474    1.000
    N19      N        0.62220    0.36285    0.93930    1.000
    N20      N        0.61900    0.46279    0.95270    1.000
    N21      N        0.36360    0.60754    0.94350    1.000
    N22      N        0.23710    0.64523    0.97950    1.000
    N23      N        0.75950    0.53795    0.52640    1.000
    N24      N        0.75590    0.57455    0.41630    1.000
    O28      O        0.50760    0.47257    0.89110    1.000
    O29      O        0.70070    0.70202    0.01730    1.000
    O30      O        0.70590    0.70535    0.91500    1.000
    O31      O        0.22230    0.70300    0.89790    1.000
    O32      O        0.93230    0.72960    0.09920    1.000
    O33      O        0.87830    0.68280    0.02610    1.000
    O34      O        0.84700    0.51470    0.38750    1.000
    O35      O        0.68210    0.70950    0.17020    1.000
    O36      O        0.79540    0.67950    0.15200    1.000
    Zn4      Zn       0.79467    0.71700    0.07292    1.000
    C157     C        0.12700    0.18970    0.43440    1.000
    H97      H        0.17180    0.20720    0.45230    1.000
    C158     C        0.06850    0.21880    0.40400    1.000
    H98      H        0.07300    0.25600    0.40140    1.000
    C159     C        0.00540    0.19440    0.37820    1.000
    H99      H        0.96520    0.21430    0.35680    1.000
    C160     C        0.99910    0.14080    0.38270    1.000
    H100     H        0.95410    0.12330    0.36520    1.000
    C161     C        0.05870    0.11280    0.41270    1.000
    C162     C        0.05950    0.05440    0.41780    1.000
    C163     C        0.13430    0.98204    0.45390    1.000
    C164     C        0.12780    0.95360    0.50870    1.000
    H101     H        0.11000    0.97040    0.54430    1.000
    C165     C        0.14760    0.90060    0.51080    1.000
    H102     H        0.14210    0.88110    0.54780    1.000
    C166     C        0.17500    0.87621    0.46050    1.000
    C167     C        0.18060    0.90430    0.40580    1.000
    H103     H        0.19820    0.88720    0.37030    1.000
    C168     C        0.16090    0.95700    0.40250    1.000
    H104     H        0.16550    0.97610    0.36500    1.000
    C169     C        0.19590    0.81900    0.46440    1.000
    C170     C        0.93000    0.91380    0.42780    1.000
    H105     H        0.95030    0.94340    0.45040    1.000
    C171     C        0.97010    0.89410    0.37960    1.000
    H106     H        0.01780    0.90950    0.37020    1.000
    C172     C        0.94010    0.85230    0.34590    1.000
    H107     H        0.96680    0.83780    0.31300    1.000
    C173     C        0.86960    0.83150    0.36070    1.000
    H108     H        0.84690    0.80320    0.33700    1.000
    C174     C        0.83310    0.85190    0.40940    1.000
    C175     C        0.75870    0.83170    0.42860    1.000
    C176     C        0.66080    0.84240    0.49740    1.000
    C177     C        0.59820    0.87110    0.47530    1.000
    H109     H        0.60380    0.90030    0.44860    1.000
    C178     C        0.52320    0.85580    0.49360    1.000
    H110     H        0.47880    0.87480    0.47760    1.000
    C179     C        0.51430    0.81510    0.53320    1.000
    C180     C        0.57700    0.78770    0.55430    1.000
    H111     H        0.57160    0.75920    0.58210    1.000
    C181     C        0.64950    0.80070    0.53590    1.000
    H112     H        0.69290    0.78000    0.55060    1.000
    C182     C        0.43390    0.80010    0.55580    1.000
    C183     C        0.25880    0.97740    0.08640    1.000
    H113     H        0.22820    0.95870    0.11370    1.000
    C184     C        0.30220    0.02010    0.10840    1.000
    H114     H        0.30100    0.03060    0.15060    1.000
    C185     C        0.34630    0.04680    0.07010    1.000
    H115     H        0.37480    0.07690    0.08460    1.000
    C186     C        0.34910    0.02940    0.00930    1.000
    H116     H        0.38070    0.04710    0.98160    1.000
    C187     C        0.30590    0.98660    0.98960    1.000
    C188     C        0.30570    0.96540    0.92630    1.000
    C189     C        0.25210    0.90010    0.85690    1.000
    C190     C        0.31580    0.87240    0.84000    1.000
    H117     H        0.36200    0.87140    0.86690    1.000
    C191     C        0.31200    0.84620    0.78360    1.000
    H118     H        0.35570    0.82710    0.77180    1.000
    C192     C        0.24300    0.84740    0.74320    1.000
    C193     C        0.18480    0.87730    0.76090    1.000
    H119     H        0.13850    0.87950    0.73430    1.000
    C194     C        0.18930    0.90500    0.81570    1.000
    H120     H        0.14820    0.92780    0.82490    1.000
    C195     C        0.23870    0.81810    0.68320    1.000
    Co5      Co       0.19396    0.09018    0.48474    1.000
    N25      N        0.12220    0.13715    0.43930    1.000
    N26      N        0.11900    0.03721    0.45270    1.000
    N27      N        0.86360    0.89246    0.44350    1.000
    N28      N        0.73710    0.85477    0.47950    1.000
    N29      N        0.25950    0.96205    0.02640    1.000
    N30      N        0.25590    0.92545    0.91630    1.000
    O37      O        0.00760    0.02743    0.39110    1.000
    O38      O        0.20070    0.79798    0.51730    1.000
    O39      O        0.20590    0.79465    0.41500    1.000
    O40      O        0.72230    0.79700    0.39790    1.000
    O41      O        0.43230    0.77040    0.59920    1.000
    O42      O        0.37830    0.81720    0.52610    1.000
    O43      O        0.34700    0.98530    0.88750    1.000
    O44      O        0.18210    0.79050    0.67020    1.000
    O45      O        0.29540    0.82050    0.65200    1.000
    Zn5      Zn       0.29467    0.78300    0.57292    1.000
    C196     C        0.62700    0.68970    0.43440    1.000
    H121     H        0.67180    0.70720    0.45230    1.000
    C197     C        0.56850    0.71880    0.40400    1.000
    H122     H        0.57300    0.75600    0.40140    1.000
    C198     C        0.50540    0.69440    0.37820    1.000
    H123     H        0.46520    0.71430    0.35680    1.000
    C199     C        0.49910    0.64080    0.38270    1.000
    H124     H        0.45410    0.62330    0.36520    1.000
    C200     C        0.55870    0.61280    0.41270    1.000
    C201     C        0.55950    0.55440    0.41780    1.000
    C202     C        0.63430    0.48204    0.45390    1.000
    C203     C        0.62780    0.45360    0.50870    1.000
    H125     H        0.61000    0.47040    0.54430    1.000
    C204     C        0.64760    0.40060    0.51080    1.000
    H126     H        0.64210    0.38110    0.54780    1.000
    C205     C        0.67500    0.37621    0.46050    1.000
    C206     C        0.68060    0.40430    0.40580    1.000
    H127     H        0.69820    0.38720    0.37030    1.000
    C207     C        0.66090    0.45700    0.40250    1.000
    H128     H        0.66550    0.47610    0.36500    1.000
    C208     C        0.69590    0.31900    0.46440    1.000
    C209     C        0.43000    0.41380    0.42780    1.000
    H129     H        0.45030    0.44340    0.45040    1.000
    C210     C        0.47010    0.39410    0.37960    1.000
    H130     H        0.51780    0.40950    0.37020    1.000
    C211     C        0.44010    0.35230    0.34590    1.000
    H131     H        0.46680    0.33780    0.31300    1.000
    C212     C        0.36960    0.33150    0.36070    1.000
    H132     H        0.34690    0.30320    0.33700    1.000
    C213     C        0.33310    0.35190    0.40940    1.000
    C214     C        0.25870    0.33170    0.42860    1.000
    C215     C        0.16080    0.34240    0.49740    1.000
    C216     C        0.09820    0.37110    0.47530    1.000
    H133     H        0.10380    0.40030    0.44860    1.000
    C217     C        0.02320    0.35580    0.49360    1.000
    H134     H        0.97880    0.37480    0.47760    1.000
    C218     C        0.01430    0.31510    0.53320    1.000
    C219     C        0.07700    0.28770    0.55430    1.000
    H135     H        0.07160    0.25920    0.58210    1.000
    C220     C        0.14950    0.30070    0.53590    1.000
    H136     H        0.19290    0.28000    0.55060    1.000
    C221     C        0.93390    0.30010    0.55580    1.000
    C222     C        0.75880    0.47740    0.08640    1.000
    H137     H        0.72820    0.45870    0.11370    1.000
    C223     C        0.80220    0.52010    0.10840    1.000
    H138     H        0.80100    0.53060    0.15060    1.000
    C224     C        0.84630    0.54680    0.07010    1.000
    H139     H        0.87480    0.57690    0.08460    1.000
    C225     C        0.84910    0.52940    0.00930    1.000
    H140     H        0.88070    0.54710    0.98160    1.000
    C226     C        0.80590    0.48660    0.98960    1.000
    C227     C        0.80570    0.46540    0.92630    1.000
    C228     C        0.75210    0.40010    0.85690    1.000
    C229     C        0.81580    0.37240    0.84000    1.000
    H141     H        0.86200    0.37140    0.86690    1.000
    C230     C        0.81200    0.34620    0.78360    1.000
    H142     H        0.85570    0.32710    0.77180    1.000
    C231     C        0.74300    0.34740    0.74320    1.000
    C232     C        0.68480    0.37730    0.76090    1.000
    H143     H        0.63850    0.37950    0.73430    1.000
    C233     C        0.68930    0.40500    0.81570    1.000
    H144     H        0.64820    0.42780    0.82490    1.000
    C234     C        0.73870    0.31810    0.68320    1.000
    Co6      Co       0.69396    0.59018    0.48474    1.000
    N31      N        0.62220    0.63715    0.43930    1.000
    N32      N        0.61900    0.53721    0.45270    1.000
    N33      N        0.36360    0.39246    0.44350    1.000
    N34      N        0.23710    0.35477    0.47950    1.000
    N35      N        0.75950    0.46205    0.02640    1.000
    N36      N        0.75590    0.42545    0.91630    1.000
    O46      O        0.50760    0.52743    0.39110    1.000
    O47      O        0.70070    0.29798    0.51730    1.000
    O48      O        0.70590    0.29465    0.41500    1.000
    O49      O        0.22230    0.29700    0.39790    1.000
    O50      O        0.93230    0.27040    0.59920    1.000
    O51      O        0.87830    0.31720    0.52610    1.000
    O52      O        0.84700    0.48530    0.88750    1.000
    O53      O        0.68210    0.29050    0.67020    1.000
    O54      O        0.79540    0.32050    0.65200    1.000
    Zn6      Zn       0.79467    0.28300    0.57292    1.000
    C235     C        0.87300    0.18970    0.06560    1.000
    H145     H        0.82820    0.20720    0.04770    1.000
    C236     C        0.93150    0.21880    0.09600    1.000
    H146     H        0.92700    0.25600    0.09860    1.000
    C237     C        0.99460    0.19440    0.12180    1.000
    H147     H        0.03480    0.21430    0.14320    1.000
    C238     C        0.00090    0.14080    0.11730    1.000
    H148     H        0.04590    0.12330    0.13480    1.000
    C239     C        0.94130    0.11280    0.08730    1.000
    C240     C        0.94050    0.05440    0.08220    1.000
    C241     C        0.86570    0.98204    0.04610    1.000
    C242     C        0.87220    0.95360    0.99130    1.000
    H149     H        0.89000    0.97040    0.95570    1.000
    C243     C        0.85240    0.90060    0.98920    1.000
    H150     H        0.85790    0.88110    0.95220    1.000
    C244     C        0.82500    0.87621    0.03950    1.000
    C245     C        0.81940    0.90430    0.09420    1.000
    H151     H        0.80180    0.88720    0.12970    1.000
    C246     C        0.83910    0.95700    0.09750    1.000
    H152     H        0.83450    0.97610    0.13500    1.000
    C247     C        0.80410    0.81900    0.03560    1.000
    C248     C        0.07000    0.91380    0.07220    1.000
    H153     H        0.04970    0.94340    0.04960    1.000
    C249     C        0.02990    0.89410    0.12040    1.000
    H154     H        0.98220    0.90950    0.12980    1.000
    C250     C        0.05990    0.85230    0.15410    1.000
    H155     H        0.03320    0.83780    0.18700    1.000
    C251     C        0.13040    0.83150    0.13930    1.000
    H156     H        0.15310    0.80320    0.16300    1.000
    C252     C        0.16690    0.85190    0.09060    1.000
    C253     C        0.24130    0.83170    0.07140    1.000
    C254     C        0.33920    0.84240    0.00260    1.000
    C255     C        0.40180    0.87110    0.02470    1.000
    H157     H        0.39620    0.90030    0.05140    1.000
    C256     C        0.47680    0.85580    0.00640    1.000
    H158     H        0.52120    0.87480    0.02240    1.000
    C257     C        0.48570    0.81510    0.96680    1.000
    C258     C        0.42300    0.78770    0.94570    1.000
    H159     H        0.42840    0.75920    0.91790    1.000
    C259     C        0.35050    0.80070    0.96410    1.000
    H160     H        0.30710    0.78000    0.94940    1.000
    C260     C        0.56610    0.80010    0.94420    1.000
    C261     C        0.74120    0.97740    0.41360    1.000
    H161     H        0.77180    0.95870    0.38630    1.000
    C262     C        0.69780    0.02010    0.39160    1.000
    H162     H        0.69900    0.03060    0.34940    1.000
    C263     C        0.65370    0.04680    0.42990    1.000
    H163     H        0.62520    0.07690    0.41540    1.000
    C264     C        0.65090    0.02940    0.49070    1.000
    H164     H        0.61930    0.04710    0.51840    1.000
    C265     C        0.69410    0.98660    0.51040    1.000
    C266     C        0.69430    0.96540    0.57370    1.000
    C267     C        0.74790    0.90010    0.64310    1.000
    C268     C        0.68420    0.87240    0.66000    1.000
    H165     H        0.63800    0.87140    0.63310    1.000
    C269     C        0.68800    0.84620    0.71640    1.000
    H166     H        0.64430    0.82710    0.72820    1.000
    C270     C        0.75700    0.84740    0.75680    1.000
    C271     C        0.81520    0.87730    0.73910    1.000
    H167     H        0.86150    0.87950    0.76570    1.000
    C272     C        0.81070    0.90500    0.68430    1.000
    H168     H        0.85180    0.92780    0.67510    1.000
    C273     C        0.76130    0.81810    0.81680    1.000
    Co7      Co       0.80604    0.09018    0.01526    1.000
    N37      N        0.87780    0.13715    0.06070    1.000
    N38      N        0.88100    0.03721    0.04730    1.000
    N39      N        0.13640    0.89246    0.05650    1.000
    N40      N        0.26290    0.85477    0.02050    1.000
    N41      N        0.74050    0.96205    0.47360    1.000
    N42      N        0.74410    0.92545    0.58370    1.000
    O55      O        0.99240    0.02743    0.10890    1.000
    O56      O        0.79930    0.79798    0.98270    1.000
    O57      O        0.79410    0.79465    0.08500    1.000
    O58      O        0.27770    0.79700    0.10210    1.000
    O59      O        0.56770    0.77040    0.90080    1.000
    O60      O        0.62170    0.81720    0.97390    1.000
    O61      O        0.65300    0.98530    0.61250    1.000
    O62      O        0.81790    0.79050    0.82980    1.000
    O63      O        0.70460    0.82050    0.84800    1.000
    Zn7      Zn       0.70533    0.78300    0.92708    1.000
    C274     C        0.37300    0.68970    0.06560    1.000
    H169     H        0.32820    0.70720    0.04770    1.000
    C275     C        0.43150    0.71880    0.09600    1.000
    H170     H        0.42700    0.75600    0.09860    1.000
    C276     C        0.49460    0.69440    0.12180    1.000
    H171     H        0.53480    0.71430    0.14320    1.000
    C277     C        0.50090    0.64080    0.11730    1.000
    H172     H        0.54590    0.62330    0.13480    1.000
    C278     C        0.44130    0.61280    0.08730    1.000
    C279     C        0.44050    0.55440    0.08220    1.000
    C280     C        0.36570    0.48204    0.04610    1.000
    C281     C        0.37220    0.45360    0.99130    1.000
    H173     H        0.39000    0.47040    0.95570    1.000
    C282     C        0.35240    0.40060    0.98920    1.000
    H174     H        0.35790    0.38110    0.95220    1.000
    C283     C        0.32500    0.37621    0.03950    1.000
    C284     C        0.31940    0.40430    0.09420    1.000
    H175     H        0.30180    0.38720    0.12970    1.000
    C285     C        0.33910    0.45700    0.09750    1.000
    H176     H        0.33450    0.47610    0.13500    1.000
    C286     C        0.30410    0.31900    0.03560    1.000
    C287     C        0.57000    0.41380    0.07220    1.000
    H177     H        0.54970    0.44340    0.04960    1.000
    C288     C        0.52990    0.39410    0.12040    1.000
    H178     H        0.48220    0.40950    0.12980    1.000
    C289     C        0.55990    0.35230    0.15410    1.000
    H179     H        0.53320    0.33780    0.18700    1.000
    C290     C        0.63040    0.33150    0.13930    1.000
    H180     H        0.65310    0.30320    0.16300    1.000
    C291     C        0.66690    0.35190    0.09060    1.000
    C292     C        0.74130    0.33170    0.07140    1.000
    C293     C        0.83920    0.34240    0.00260    1.000
    C294     C        0.90180    0.37110    0.02470    1.000
    H181     H        0.89620    0.40030    0.05140    1.000
    C295     C        0.97680    0.35580    0.00640    1.000
    H182     H        0.02120    0.37480    0.02240    1.000
    C296     C        0.98570    0.31510    0.96680    1.000
    C297     C        0.92300    0.28770    0.94570    1.000
    H183     H        0.92840    0.25920    0.91790    1.000
    C298     C        0.85050    0.30070    0.96410    1.000
    H184     H        0.80710    0.28000    0.94940    1.000
    C299     C        0.06610    0.30010    0.94420    1.000
    C300     C        0.24120    0.47740    0.41360    1.000
    H185     H        0.27180    0.45870    0.38630    1.000
    C301     C        0.19780    0.52010    0.39160    1.000
    H186     H        0.19900    0.53060    0.34940    1.000
    C302     C        0.15370    0.54680    0.42990    1.000
    H187     H        0.12520    0.57690    0.41540    1.000
    C303     C        0.15090    0.52940    0.49070    1.000
    H188     H        0.11930    0.54710    0.51840    1.000
    C304     C        0.19410    0.48660    0.51040    1.000
    C305     C        0.19430    0.46540    0.57370    1.000
    C306     C        0.24790    0.40010    0.64310    1.000
    C307     C        0.18420    0.37240    0.66000    1.000
    H189     H        0.13800    0.37140    0.63310    1.000
    C308     C        0.18800    0.34620    0.71640    1.000
    H190     H        0.14430    0.32710    0.72820    1.000
    C309     C        0.25700    0.34740    0.75680    1.000
    C310     C        0.31520    0.37730    0.73910    1.000
    H191     H        0.36150    0.37950    0.76570    1.000
    C311     C        0.31070    0.40500    0.68430    1.000
    H192     H        0.35180    0.42780    0.67510    1.000
    C312     C        0.26130    0.31810    0.81680    1.000
    Co8      Co       0.30604    0.59018    0.01526    1.000
    N43      N        0.37780    0.63715    0.06070    1.000
    N44      N        0.38100    0.53721    0.04730    1.000
    N45      N        0.63640    0.39246    0.05650    1.000
    N46      N        0.76290    0.35477    0.02050    1.000
    N47      N        0.24050    0.46205    0.47360    1.000
    N48      N        0.24410    0.42545    0.58370    1.000
    O64      O        0.49240    0.52743    0.10890    1.000
    O65      O        0.29930    0.29798    0.98270    1.000
    O66      O        0.29410    0.29465    0.08500    1.000
    O67      O        0.77770    0.29700    0.10210    1.000
    O68      O        0.06770    0.27040    0.90080    1.000
    O69      O        0.12170    0.31720    0.97390    1.000
    O70      O        0.15300    0.48530    0.61250    1.000
    O71      O        0.31790    0.29050    0.82980    1.000
    O72      O        0.20460    0.32050    0.84800    1.000
    Zn8      Zn       0.20533    0.28300    0.92708    1.000
