data_functionalizedCrystal
_audit_creation_method	'EQeq! by Chris Wilmer'
_symmetry_space_group_name_H-M	'P1'
_symmetry_Int_Tables_number	1
_symmetry_cell_setting	triclinic
loop_
_symmetry_equiv_pos_as_xyz
  x,y,z
_cell_length_a	10.8304
_cell_length_b	16.7133
_cell_length_c	28.085
_cell_angle_alpha	90
_cell_angle_beta	94.967
_cell_angle_gamma	90
loop_
_atom_site_label
_atom_site_type_symbol
_atom_site_fract_x
_atom_site_fract_y
_atom_site_fract_z
_atom_site_charge
Mof_La	La	0.54031	0.87735	0.53169	1.705
Mof_O 	O 	0.58716	0.79637	0.46776	-0.38
Mof_O 	O 	0.0082	0.60828	0.11331	-0.362
Mof_N 	N 	0.653	0.76445	0.43471	-0.063
Mof_N 	N 	0.9569	0.61871	0.15385	-0.092
Mof_C 	C 	0.7634	0.79492	0.4265	0.069
Mof_H 	H 	0.7963	0.837	0.4452	-0.017
Mof_C 	C 	0.8284	0.76497	0.39102	-0.153
Mof_H 	H 	0.9058	0.7858	0.3859	0.066
Mof_C 	C 	0.7783	0.7033	0.36261	0.074
Mof_C 	C 	0.6691	0.6727	0.37294	-0.151
Mof_H 	H 	0.6364	0.6292	0.3555	0.069
Mof_C 	C 	0.6044	0.70401	0.40861	0.065
Mof_H 	H 	0.5275	0.6831	0.4144	0.002
Mof_C 	C 	0.8498	0.6732	0.32166	-0.034
Mof_H 	H 	0.9072	0.7148	0.314	0.031
Mof_H 	H 	0.8987	0.6274	0.3331	0.028
Mof_C 	C 	0.7867	0.6531	0.28325	-0.265
Mof_H 	H 	0.7254	0.6947	0.2761	0.098
Mof_H 	H 	0.7415	0.605	0.2902	0.095
Mof_C 	C 	0.8487	0.637	0.2369	0.204
Mof_C 	C 	0.9709	0.6204	0.23688	-0.233
Mof_H 	H 	0.0186	0.6131	0.2657	0.101
Mof_C 	C 	0.0251	0.614	0.19429	0.114
Mof_H 	H 	0.1102	0.6064	0.1945	-0.003
Mof_C 	C 	0.8377	0.6289	0.1537	0.141
Mof_H 	H 	0.789	0.6299	0.1248	-0.049
Mof_C 	C 	0.7842	0.6379	0.19474	-0.27
Mof_H 	H 	0.6988	0.645	0.1935	0.108
Mof_O 	O 	0.72311	0.80771	0.57051	-0.335
Mof_O 	O 	0.00609	0.52713	0.9558	-0.448
Mof_N 	N 	0.748	0.77095	0.61233	-0.104
Mof_N 	N 	0.99226	0.56032	0.912	-0.095
Mof_C 	C 	0.837	0.7948	0.6414	0.125
Mof_H 	H 	0.8814	0.84	0.6338	-0.02
Mof_C 	C 	0.8693	0.7561	0.68338	-0.228
Mof_H 	H 	0.935	0.776	0.7035	0.096
Mof_C 	C 	0.8093	0.68956	0.69698	0.176
Mof_C 	C 	0.7171	0.6686	0.66607	-0.237
Mof_H 	H 	0.6697	0.6245	0.6733	0.098
Mof_C 	C 	0.6864	0.7078	0.62371	0.124
Mof_H 	H 	0.6211	0.6891	0.603	-0.038
Mof_C 	C 	0.8406	0.6435	0.74367	-0.197
Mof_H 	H 	0.7696	0.6468	0.7624	0.078
Mof_H 	H 	0.8512	0.5876	0.7357	0.08
Mof_C 	C 	0.9487	0.66864	0.77354	-0.137
Mof_H 	H 	0.9439	0.726	0.7783	0.06
Mof_H 	H 	0.0216	0.6582	0.7567	0.061
Mof_C 	C 	0.9654	0.62813	0.82225	0.126
Mof_C 	C 	0.0752	0.59523	0.83969	-0.18
Mof_H 	H 	0.1417	0.595	0.8208	0.086
Mof_C 	C 	0.0895	0.56211	0.88511	0.105
Mof_H 	H 	0.1656	0.5413	0.8969	-0.023
Mof_C 	C 	0.8821	0.58886	0.89501	0.088
Mof_H 	H 	0.8145	0.5844	0.9131	-0.047
Mof_C 	C 	0.8684	0.62471	0.85093	-0.187
Mof_H 	H 	0.7924	0.6471	0.8402	0.08
Mof_La	La	0.95969	0.37735	0.96831	1.7
Mof_O 	O 	0.91284	0.29637	0.03224	-0.38
Mof_O 	O 	0.4918	0.10828	0.38669	-0.361
Mof_N 	N 	0.847	0.26445	0.06529	-0.06
Mof_N 	N 	0.5431	0.11871	0.34615	-0.1
Mof_C 	C 	0.7366	0.29492	0.0735	0.061
Mof_H 	H 	0.7037	0.337	0.0548	-0.014
Mof_C 	C 	0.6716	0.26497	0.10898	-0.139
Mof_H 	H 	0.5942	0.2858	0.1141	0.061
Mof_C 	C 	0.7217	0.2033	0.13739	0.053
Mof_C 	C 	0.8309	0.1727	0.12706	-0.136
Mof_H 	H 	0.8636	0.1292	0.1445	0.063
Mof_C 	C 	0.8956	0.20401	0.09139	0.057
Mof_H 	H 	0.9725	0.1831	0.0856	0.005
Mof_C 	C 	0.6502	0.1732	0.17834	0.013
Mof_H 	H 	0.5928	0.2148	0.186	0.017
Mof_H 	H 	0.6013	0.1274	0.1669	0.014
Mof_C 	C 	0.7133	0.1531	0.21675	-0.314
Mof_H 	H 	0.7746	0.1947	0.2239	0.112
Mof_H 	H 	0.7585	0.105	0.2098	0.109
Mof_C 	C 	0.6513	0.137	0.2631	0.234
Mof_C 	C 	0.5291	0.1204	0.26312	-0.261
Mof_H 	H 	0.4814	0.1131	0.2343	0.113
Mof_C 	C 	0.4749	0.114	0.30571	0.133
Mof_H 	H 	0.3898	0.1064	0.3055	-0.01
Mof_C 	C 	0.6623	0.1289	0.3463	0.155
Mof_H 	H 	0.711	0.1299	0.3752	-0.055
Mof_C 	C 	0.7158	0.1379	0.30526	-0.294
Mof_H 	H 	0.8012	0.145	0.3065	0.116
Mof_O 	O 	0.77689	0.30771	0.92949	-0.334
Mof_O 	O 	0.49391	0.02713	0.5442	-0.451
Mof_N 	N 	0.752	0.27095	0.88767	-0.104
Mof_N 	N 	0.50774	0.06032	0.588	-0.094
Mof_C 	C 	0.663	0.2948	0.8586	0.125
Mof_H 	H 	0.6186	0.34	0.8662	-0.02
Mof_C 	C 	0.6307	0.2561	0.81662	-0.228
Mof_H 	H 	0.565	0.276	0.7965	0.096
Mof_C 	C 	0.6907	0.18956	0.80302	0.177
Mof_C 	C 	0.7829	0.1686	0.83393	-0.238
Mof_H 	H 	0.8303	0.1245	0.8267	0.098
Mof_C 	C 	0.8136	0.2078	0.87629	0.124
Mof_H 	H 	0.8789	0.1891	0.897	-0.038
Mof_C 	C 	0.6594	0.1435	0.75633	-0.198
Mof_H 	H 	0.7304	0.1468	0.7376	0.078
Mof_H 	H 	0.6488	0.0876	0.7643	0.08
Mof_C 	C 	0.5513	0.16864	0.72646	-0.135
Mof_H 	H 	0.5561	0.226	0.7217	0.06
Mof_H 	H 	0.4784	0.1582	0.7433	0.06
Mof_C 	C 	0.5346	0.12813	0.67775	0.127
Mof_C 	C 	0.4248	0.09523	0.66031	-0.182
Mof_H 	H 	0.3583	0.095	0.6792	0.087
Mof_C 	C 	0.4105	0.06211	0.61489	0.103
Mof_H 	H 	0.3344	0.0413	0.6031	-0.023
Mof_C 	C 	0.6179	0.08886	0.60499	0.088
Mof_H 	H 	0.6855	0.0844	0.5869	-0.047
Mof_C 	C 	0.6316	0.12471	0.64907	-0.187
Mof_H 	H 	0.7076	0.1471	0.6598	0.08
Mof_La	La	0.45969	0.12265	0.46831	1.704
Mof_O 	O 	0.41284	0.20363	0.53224	-0.381
Mof_O 	O 	0.9918	0.39172	0.88669	-0.362
Mof_N 	N 	0.347	0.23555	0.56529	-0.063
Mof_N 	N 	0.0431	0.38129	0.84615	-0.092
Mof_C 	C 	0.2366	0.20508	0.5735	0.069
Mof_H 	H 	0.2037	0.163	0.5548	-0.017
Mof_C 	C 	0.1716	0.23503	0.60898	-0.153
Mof_H 	H 	0.0942	0.2142	0.6141	0.066
Mof_C 	C 	0.2217	0.2967	0.63739	0.074
Mof_C 	C 	0.3309	0.3273	0.62706	-0.151
Mof_H 	H 	0.3636	0.3708	0.6445	0.069
Mof_C 	C 	0.3956	0.29599	0.59139	0.065
Mof_H 	H 	0.4725	0.3169	0.5856	0.002
Mof_C 	C 	0.1502	0.3268	0.67834	-0.034
Mof_H 	H 	0.0928	0.2852	0.686	0.031
Mof_H 	H 	0.1013	0.3726	0.6669	0.028
Mof_C 	C 	0.2133	0.3469	0.71675	-0.265
Mof_H 	H 	0.2746	0.3053	0.7239	0.098
Mof_H 	H 	0.2585	0.395	0.7098	0.095
Mof_C 	C 	0.1513	0.363	0.7631	0.204
Mof_C 	C 	0.0291	0.3796	0.76312	-0.233
Mof_H 	H 	0.9814	0.3869	0.7343	0.101
Mof_C 	C 	0.9749	0.386	0.80571	0.114
Mof_H 	H 	0.8898	0.3936	0.8055	-0.003
Mof_C 	C 	0.1623	0.3711	0.8463	0.141
Mof_H 	H 	0.211	0.3701	0.8752	-0.049
Mof_C 	C 	0.2158	0.3621	0.80526	-0.27
Mof_H 	H 	0.3012	0.355	0.8065	0.108
Mof_O 	O 	0.27689	0.19229	0.42949	-0.335
Mof_O 	O 	0.99391	0.47287	0.0442	-0.448
Mof_N 	N 	0.252	0.22905	0.38767	-0.104
Mof_N 	N 	0.00774	0.43968	0.088	-0.095
Mof_C 	C 	0.163	0.2052	0.3586	0.125
Mof_H 	H 	0.1186	0.16	0.3662	-0.02
Mof_C 	C 	0.1307	0.2439	0.31662	-0.228
Mof_H 	H 	0.065	0.224	0.2965	0.096
Mof_C 	C 	0.1907	0.31044	0.30302	0.176
Mof_C 	C 	0.2829	0.3314	0.33393	-0.237
Mof_H 	H 	0.3303	0.3755	0.3267	0.098
Mof_C 	C 	0.3136	0.2922	0.37629	0.124
Mof_H 	H 	0.3789	0.3109	0.397	-0.038
Mof_C 	C 	0.1594	0.3565	0.25633	-0.197
Mof_H 	H 	0.2304	0.3532	0.2376	0.078
Mof_H 	H 	0.1488	0.4124	0.2643	0.08
Mof_C 	C 	0.0513	0.33136	0.22646	-0.137
Mof_H 	H 	0.0561	0.274	0.2217	0.06
Mof_H 	H 	0.9784	0.3418	0.2433	0.061
Mof_C 	C 	0.0346	0.37187	0.17775	0.126
Mof_C 	C 	0.9248	0.40477	0.16031	-0.18
Mof_H 	H 	0.8583	0.405	0.1792	0.086
Mof_C 	C 	0.9105	0.43789	0.11489	0.105
Mof_H 	H 	0.8344	0.4587	0.1031	-0.023
Mof_C 	C 	0.1179	0.41114	0.10499	0.088
Mof_H 	H 	0.1855	0.4156	0.0869	-0.047
Mof_C 	C 	0.1316	0.37529	0.14907	-0.187
Mof_H 	H 	0.2076	0.3529	0.1598	0.08
Mof_La	La	0.04031	0.62265	0.03169	1.7
Mof_O 	O 	0.08716	0.70363	0.96776	-0.38
Mof_O 	O 	0.5082	0.89172	0.61331	-0.361
Mof_N 	N 	0.153	0.73555	0.93471	-0.06
Mof_N 	N 	0.4569	0.88129	0.65385	-0.1
Mof_C 	C 	0.2634	0.70508	0.9265	0.061
Mof_H 	H 	0.2963	0.663	0.9452	-0.014
Mof_C 	C 	0.3284	0.73503	0.89102	-0.139
Mof_H 	H 	0.4058	0.7142	0.8859	0.061
Mof_C 	C 	0.2783	0.7967	0.86261	0.053
Mof_C 	C 	0.1691	0.8273	0.87294	-0.136
Mof_H 	H 	0.1364	0.8708	0.8555	0.063
Mof_C 	C 	0.1044	0.79599	0.90861	0.057
Mof_H 	H 	0.0275	0.8169	0.9144	0.005
Mof_C 	C 	0.3498	0.8268	0.82166	0.013
Mof_H 	H 	0.4072	0.7852	0.814	0.017
Mof_H 	H 	0.3987	0.8726	0.8331	0.014
Mof_C 	C 	0.2867	0.8469	0.78325	-0.314
Mof_H 	H 	0.2254	0.8053	0.7761	0.112
Mof_H 	H 	0.2415	0.895	0.7902	0.109
Mof_C 	C 	0.3487	0.863	0.7369	0.234
Mof_C 	C 	0.4709	0.8796	0.73688	-0.261
Mof_H 	H 	0.5186	0.8869	0.7657	0.113
Mof_C 	C 	0.5251	0.886	0.69429	0.133
Mof_H 	H 	0.6102	0.8936	0.6945	-0.01
Mof_C 	C 	0.3377	0.8711	0.6537	0.155
Mof_H 	H 	0.289	0.8701	0.6248	-0.055
Mof_C 	C 	0.2842	0.8621	0.69474	-0.294
Mof_H 	H 	0.1988	0.855	0.6935	0.116
Mof_O 	O 	0.22311	0.69229	0.07051	-0.334
Mof_O 	O 	0.50609	0.97287	0.4558	-0.451
Mof_N 	N 	0.248	0.72905	0.11233	-0.104
Mof_N 	N 	0.49226	0.93968	0.412	-0.094
Mof_C 	C 	0.337	0.7052	0.1414	0.125
Mof_H 	H 	0.3814	0.66	0.1338	-0.02
Mof_C 	C 	0.3693	0.7439	0.18338	-0.228
Mof_H 	H 	0.435	0.724	0.2035	0.096
Mof_C 	C 	0.3093	0.81044	0.19698	0.177
Mof_C 	C 	0.2171	0.8314	0.16607	-0.238
Mof_H 	H 	0.1697	0.8755	0.1733	0.098
Mof_C 	C 	0.1864	0.7922	0.12371	0.124
Mof_H 	H 	0.1211	0.8109	0.103	-0.038
Mof_C 	C 	0.3406	0.8565	0.24367	-0.198
Mof_H 	H 	0.2696	0.8532	0.2624	0.078
Mof_H 	H 	0.3512	0.9124	0.2357	0.08
Mof_C 	C 	0.4487	0.83136	0.27354	-0.135
Mof_H 	H 	0.4439	0.774	0.2783	0.06
Mof_H 	H 	0.5216	0.8418	0.2567	0.06
Mof_C 	C 	0.4654	0.87187	0.32225	0.127
Mof_C 	C 	0.5752	0.90477	0.33969	-0.182
Mof_H 	H 	0.6417	0.905	0.3208	0.087
Mof_C 	C 	0.5895	0.93789	0.38511	0.103
Mof_H 	H 	0.6656	0.9587	0.3969	-0.023
Mof_C 	C 	0.3821	0.91114	0.39501	0.088
Mof_H 	H 	0.3145	0.9156	0.4131	-0.047
Mof_C 	C 	0.3684	0.87529	0.35093	-0.187
Mof_H 	H 	0.2924	0.8529	0.3402	0.08
_end
