data_functionalizedCrystal
_audit_creation_method	'EQeq! by Chris Wilmer'
_symmetry_space_group_name_H-M	'P1'
_symmetry_Int_Tables_number	1
_symmetry_cell_setting	triclinic
loop_
_symmetry_equiv_pos_as_xyz
  x,y,z
_cell_length_a	5.1242
_cell_length_b	25.0641
_cell_length_c	27.1877
_cell_angle_alpha	90
_cell_angle_beta	90.94
_cell_angle_gamma	90
loop_
_atom_site_label
_atom_site_type_symbol
_atom_site_fract_x
_atom_site_fract_y
_atom_site_fract_z
_atom_site_charge
Mof_Zn	Zn	0.40363	0.28725	0.36119	1.224
Mof_Zn	Zn	0.8971	0.10867	0.37489	1.222
Mof_Zn	Zn	0.26554	0.06007	0.28323	1.223
Mof_Zn	Zn	0.82779	0.96038	0.21156	1.232
Mof_Zn	Zn	0.73319	0.00086	0.43441	1.225
Mof_P 	P 	0.3916	0.16511	0.34126	0.519
Mof_P 	P 	0.3032	0.01981	0.17576	0.586
Mof_P 	P 	0.5818	0.85701	0.16108	0.556
Mof_P 	P 	0.7892	0.00071	0.32035	0.53
Mof_P 	P 	0.7868	0.93658	0.53235	0.52
Mof_O 	O 	0.5011	0.22043	0.33139	-0.45
Mof_O 	O 	0.4116	0.13206	0.29357	-0.477
Mof_O 	O 	0.5508	0.13641	0.38256	-0.472
Mof_O 	O 	0.109	0.16812	0.35783	-0.476
Mof_O 	O 	0.1931	0.0572	0.21401	-0.5
Mof_O 	O 	0.2639	0.0467	0.12375	-0.499
Mof_H 	H 	0.2021	0.0707	0.1096	0.322
Mof_O 	O 	0.1554	0.96652	0.17479	-0.44
Mof_O 	O 	0.5957	0.01209	0.18117	-0.459
Mof_O 	O 	0.4328	0.8968	0.1255	-0.402
Mof_H 	H 	0.4808	0.9169	0.0983	0.214
Mof_O 	O 	0.7958	0.83325	0.13	-0.46
Mof_O 	O 	0.388	0.81499	0.17841	-0.452
Mof_O 	O 	0.6869	0.88768	0.20539	-0.441
Mof_O 	O 	0.9157	0.96677	0.28088	-0.479
Mof_O 	O 	0.8352	0.97331	0.37056	-0.456
Mof_O 	O 	0.9348	0.05642	0.32112	-0.642
Mof_O 	O 	0.5005	0.0089	0.31201	-0.511
Mof_O 	O 	0.8552	0.94658	0.47932	-0.46
Mof_O 	O 	0.6477	0.8805	0.53427	-0.254
Mof_O 	O 	0.0473	0.93166	0.56298	-0.588
Mof_O 	O 	0.622	0.97958	0.55552	-0.516
Mof_N 	N 	0.2927	0.2756	0.4321	-0.27
Mof_N 	N 	0.8933	0.2798	0.5979	-0.133
Mof_N 	N 	0.009	0.22424	0.65836	-0.21
Mof_H 	H 	0.0083	0.2051	0.6823	0.149
Mof_N 	N 	0.2711	0.3318	0.7327	-0.207
Mof_H 	H 	0.1539	0.3456	0.7541	0.147
Mof_N 	N 	0.746	0.0938	0.6257	-0.251
Mof_H 	H 	0.8618	0.0713	0.622	0.169
Mof_C 	C 	0.0852	0.2468	0.4439	0.125
Mof_H 	H 	0.9789	0.2339	0.4185	-0.037
Mof_C 	C 	0.0195	0.2351	0.4911	-0.154
Mof_H 	H 	0.8761	0.2135	0.4972	0.087
Mof_C 	C 	0.1652	0.2553	0.5295	0.101
Mof_C 	C 	0.3771	0.2857	0.5187	-0.16
Mof_H 	H 	0.4819	0.2998	0.5437	0.095
Mof_C 	C 	0.4353	0.2954	0.4693	0.091
Mof_H 	H 	0.579	0.3166	0.4622	-0.008
Mof_C 	C 	0.0847	0.2467	0.581	0.023
Mof_C 	C 	0.8524	0.2651	0.6443	0.1
Mof_C 	C 	0.1636	0.2118	0.619	0.031
Mof_C 	C 	0.6538	0.2889	0.6756	0.041
Mof_C 	C 	0.4969	0.3311	0.6576	-0.11
Mof_H 	H 	0.5209	0.3446	0.6261	0.072
Mof_C 	C 	0.3095	0.3519	0.6872	0.087
Mof_H 	H 	0.2072	0.3802	0.6759	0.022
Mof_C 	C 	0.4191	0.2922	0.7506	0.088
Mof_H 	H 	0.3897	0.2796	0.7823	0.019
Mof_C 	C 	0.614	0.2694	0.7234	-0.119
Mof_H 	H 	0.7165	0.242	0.7362	0.074
Mof_C 	C 	0.362	0.1706	0.6209	0.1
Mof_C 	C 	0.4367	0.1471	0.6655	-0.175
Mof_H 	H 	0.3544	0.1571	0.6943	0.102
Mof_C 	C 	0.6314	0.1091	0.6672	0.146
Mof_H 	H 	0.6829	0.0942	0.6972	-0.012
Mof_C 	C 	0.6751	0.1139	0.5821	0.105
Mof_H 	H 	0.7563	0.102	0.5538	0
Mof_C 	C 	0.4829	0.1523	0.5785	-0.167
Mof_H 	H 	0.434	0.1659	0.5478	0.108
Mof_Zn	Zn	0.09637	0.78725	0.13881	1.218
Mof_Zn	Zn	0.6029	0.60867	0.12511	1.224
Mof_Zn	Zn	0.23446	0.56007	0.21677	1.221
Mof_Zn	Zn	0.67221	0.46038	0.28844	1.231
Mof_Zn	Zn	0.76681	0.50086	0.06559	1.227
Mof_P 	P 	0.1084	0.66511	0.15874	0.492
Mof_P 	P 	0.1968	0.51981	0.32424	0.578
Mof_P 	P 	0.9182	0.35701	0.33892	0.552
Mof_P 	P 	0.7108	0.50071	0.17965	0.53
Mof_P 	P 	0.7132	0.43658	0.96765	0.518
Mof_O 	O 	0.9989	0.72043	0.16861	-0.428
Mof_O 	O 	0.0884	0.63206	0.20643	-0.485
Mof_O 	O 	0.9492	0.63641	0.11744	-0.454
Mof_O 	O 	0.391	0.66812	0.14217	-0.478
Mof_O 	O 	0.3069	0.5572	0.28599	-0.501
Mof_O 	O 	0.2361	0.5467	0.37625	-0.5
Mof_H 	H 	0.2979	0.5707	0.3904	0.321
Mof_O 	O 	0.3446	0.46652	0.32521	-0.435
Mof_O 	O 	0.9043	0.51209	0.31883	-0.452
Mof_O 	O 	0.0672	0.3968	0.3745	-0.399
Mof_H 	H 	0.0192	0.4169	0.4017	0.213
Mof_O 	O 	0.7042	0.33325	0.37	-0.468
Mof_O 	O 	0.112	0.31499	0.32159	-0.445
Mof_O 	O 	0.8131	0.38768	0.29461	-0.443
Mof_O 	O 	0.5843	0.46677	0.21912	-0.484
Mof_O 	O 	0.6648	0.47331	0.12944	-0.459
Mof_O 	O 	0.5652	0.55642	0.17888	-0.642
Mof_O 	O 	0.9995	0.5089	0.18799	-0.503
Mof_O 	O 	0.6448	0.44658	0.02068	-0.461
Mof_O 	O 	0.8523	0.3805	0.96573	-0.26
Mof_O 	O 	0.4527	0.43166	0.93702	-0.585
Mof_O 	O 	0.878	0.47958	0.94448	-0.519
Mof_N 	N 	0.2073	0.7756	0.0679	-0.267
Mof_N 	N 	0.6067	0.7798	0.9021	-0.123
Mof_N 	N 	0.491	0.72424	0.84164	-0.221
Mof_H 	H 	0.4917	0.7051	0.8177	0.146
Mof_N 	N 	0.2289	0.8318	0.7673	-0.207
Mof_H 	H 	0.3461	0.8456	0.7459	0.139
Mof_N 	N 	0.754	0.5938	0.8743	-0.253
Mof_H 	H 	0.6382	0.5713	0.878	0.172
Mof_C 	C 	0.4148	0.7468	0.0561	0.117
Mof_H 	H 	0.5211	0.7339	0.0815	-0.026
Mof_C 	C 	0.4805	0.7351	0.0089	-0.174
Mof_H 	H 	0.6239	0.7135	0.0028	0.104
Mof_C 	C 	0.3348	0.7553	0.9705	0.105
Mof_C 	C 	0.1229	0.7857	0.9813	-0.149
Mof_H 	H 	0.0181	0.7998	0.9563	0.088
Mof_C 	C 	0.0647	0.7954	0.0307	0.059
Mof_H 	H 	0.921	0.8166	0.0378	0.014
Mof_C 	C 	0.4153	0.7467	0.919	0.008
Mof_C 	C 	0.6476	0.7651	0.8557	0.116
Mof_C 	C 	0.3364	0.7118	0.881	0.032
Mof_C 	C 	0.8462	0.7889	0.8244	0.047
Mof_C 	C 	0.0031	0.8311	0.8424	-0.126
Mof_H 	H 	0.9791	0.8446	0.8739	0.081
Mof_C 	C 	0.1905	0.8519	0.8128	0.091
Mof_H 	H 	0.2928	0.8802	0.8241	0.017
Mof_C 	C 	0.0809	0.7922	0.7494	0.08
Mof_H 	H 	0.1103	0.7796	0.7177	0.019
Mof_C 	C 	0.886	0.7694	0.7766	-0.112
Mof_H 	H 	0.7835	0.742	0.7638	0.078
Mof_C 	C 	0.138	0.6706	0.8791	0.099
Mof_C 	C 	0.0633	0.6471	0.8345	-0.174
Mof_H 	H 	0.1456	0.6571	0.8057	0.1
Mof_C 	C 	0.8686	0.6091	0.8328	0.147
Mof_H 	H 	0.8171	0.5942	0.8028	-0.011
Mof_C 	C 	0.8249	0.6139	0.9179	0.113
Mof_H 	H 	0.7437	0.602	0.9462	0
Mof_C 	C 	0.0171	0.6523	0.9215	-0.172
Mof_H 	H 	0.066	0.6659	0.9522	0.108
Mof_Zn	Zn	0.59637	0.71275	0.63881	1.225
Mof_Zn	Zn	0.1029	0.89133	0.62511	1.223
Mof_Zn	Zn	0.73446	0.93993	0.71677	1.224
Mof_Zn	Zn	0.17221	0.03962	0.78844	1.233
Mof_Zn	Zn	0.26681	0.99914	0.56559	1.226
Mof_P 	P 	0.6084	0.83489	0.65874	0.52
Mof_P 	P 	0.6968	0.98019	0.82424	0.586
Mof_P 	P 	0.4182	0.14299	0.83892	0.556
Mof_P 	P 	0.2108	0.99929	0.67965	0.53
Mof_P 	P 	0.2132	0.06342	0.46765	0.52
Mof_O 	O 	0.4989	0.77957	0.66861	-0.45
Mof_O 	O 	0.5884	0.86794	0.70643	-0.477
Mof_O 	O 	0.4492	0.86359	0.61744	-0.472
Mof_O 	O 	0.891	0.83188	0.64217	-0.476
Mof_O 	O 	0.8069	0.9428	0.78599	-0.5
Mof_O 	O 	0.7361	0.9533	0.87625	-0.499
Mof_H 	H 	0.7979	0.9293	0.8904	0.322
Mof_O 	O 	0.8446	0.03348	0.82521	-0.44
Mof_O 	O 	0.4043	0.98791	0.81883	-0.459
Mof_O 	O 	0.5672	0.1032	0.8745	-0.402
Mof_H 	H 	0.5192	0.0831	0.9017	0.214
Mof_O 	O 	0.2042	0.16675	0.87	-0.46
Mof_O 	O 	0.612	0.18501	0.82159	-0.452
Mof_O 	O 	0.3131	0.11232	0.79461	-0.441
Mof_O 	O 	0.0843	0.03323	0.71912	-0.479
Mof_O 	O 	0.1648	0.02669	0.62944	-0.456
Mof_O 	O 	0.0652	0.94358	0.67888	-0.642
Mof_O 	O 	0.4995	0.9911	0.68799	-0.511
Mof_O 	O 	0.1448	0.05342	0.52068	-0.46
Mof_O 	O 	0.3523	0.1195	0.46573	-0.254
Mof_O 	O 	0.9527	0.06834	0.43702	-0.588
Mof_O 	O 	0.378	0.02042	0.44448	-0.516
Mof_N 	N 	0.7073	0.7244	0.5679	-0.27
Mof_N 	N 	0.1067	0.7202	0.4021	-0.133
Mof_N 	N 	0.991	0.77576	0.34164	-0.21
Mof_H 	H 	0.9917	0.7949	0.3177	0.149
Mof_N 	N 	0.7289	0.6682	0.2673	-0.207
Mof_H 	H 	0.8461	0.6544	0.2459	0.147
Mof_N 	N 	0.254	0.9062	0.3743	-0.251
Mof_H 	H 	0.1382	0.9287	0.378	0.169
Mof_C 	C 	0.9148	0.7532	0.5561	0.125
Mof_H 	H 	0.0211	0.7661	0.5815	-0.037
Mof_C 	C 	0.9805	0.7649	0.5089	-0.154
Mof_H 	H 	0.1239	0.7865	0.5028	0.087
Mof_C 	C 	0.8348	0.7447	0.4705	0.101
Mof_C 	C 	0.6229	0.7143	0.4813	-0.16
Mof_H 	H 	0.5181	0.7002	0.4563	0.095
Mof_C 	C 	0.5647	0.7046	0.5307	0.091
Mof_H 	H 	0.421	0.6834	0.5378	-0.008
Mof_C 	C 	0.9153	0.7533	0.419	0.023
Mof_C 	C 	0.1476	0.7349	0.3557	0.1
Mof_C 	C 	0.8364	0.7882	0.381	0.031
Mof_C 	C 	0.3462	0.7111	0.3244	0.041
Mof_C 	C 	0.5031	0.6689	0.3424	-0.11
Mof_H 	H 	0.4791	0.6554	0.3739	0.072
Mof_C 	C 	0.6905	0.6481	0.3128	0.087
Mof_H 	H 	0.7928	0.6198	0.3241	0.022
Mof_C 	C 	0.5809	0.7078	0.2494	0.088
Mof_H 	H 	0.6103	0.7204	0.2177	0.019
Mof_C 	C 	0.386	0.7306	0.2766	-0.119
Mof_H 	H 	0.2835	0.758	0.2638	0.074
Mof_C 	C 	0.638	0.8294	0.3791	0.1
Mof_C 	C 	0.5633	0.8529	0.3345	-0.175
Mof_H 	H 	0.6456	0.8429	0.3057	0.102
Mof_C 	C 	0.3686	0.8909	0.3328	0.146
Mof_H 	H 	0.3171	0.9058	0.3028	-0.012
Mof_C 	C 	0.3249	0.8861	0.4179	0.105
Mof_H 	H 	0.2437	0.898	0.4462	0
Mof_C 	C 	0.5171	0.8477	0.4215	-0.167
Mof_H 	H 	0.566	0.8341	0.4522	0.108
Mof_Zn	Zn	0.90363	0.21275	0.86119	1.218
Mof_Zn	Zn	0.3971	0.39133	0.87489	1.224
Mof_Zn	Zn	0.76554	0.43993	0.78323	1.221
Mof_Zn	Zn	0.32779	0.53962	0.71156	1.231
Mof_Zn	Zn	0.23319	0.49914	0.93441	1.227
Mof_P 	P 	0.8916	0.33489	0.84126	0.492
Mof_P 	P 	0.8032	0.48019	0.67576	0.578
Mof_P 	P 	0.0818	0.64299	0.66108	0.552
Mof_P 	P 	0.2892	0.49929	0.82035	0.53
Mof_P 	P 	0.2868	0.56342	0.03235	0.518
Mof_O 	O 	0.0011	0.27957	0.83139	-0.428
Mof_O 	O 	0.9116	0.36794	0.79357	-0.485
Mof_O 	O 	0.0508	0.36359	0.88256	-0.454
Mof_O 	O 	0.609	0.33188	0.85783	-0.478
Mof_O 	O 	0.6931	0.4428	0.71401	-0.501
Mof_O 	O 	0.7639	0.4533	0.62375	-0.5
Mof_H 	H 	0.7021	0.4293	0.6096	0.321
Mof_O 	O 	0.6554	0.53348	0.67479	-0.435
Mof_O 	O 	0.0957	0.48791	0.68117	-0.452
Mof_O 	O 	0.9328	0.6032	0.6255	-0.399
Mof_H 	H 	0.9808	0.5831	0.5983	0.213
Mof_O 	O 	0.2958	0.66675	0.63	-0.468
Mof_O 	O 	0.888	0.68501	0.67841	-0.445
Mof_O 	O 	0.1869	0.61232	0.70539	-0.443
Mof_O 	O 	0.4157	0.53323	0.78088	-0.484
Mof_O 	O 	0.3352	0.52669	0.87056	-0.459
Mof_O 	O 	0.4348	0.44358	0.82112	-0.642
Mof_O 	O 	0.0005	0.4911	0.81201	-0.503
Mof_O 	O 	0.3552	0.55342	0.97932	-0.461
Mof_O 	O 	0.1477	0.6195	0.03427	-0.26
Mof_O 	O 	0.5473	0.56834	0.06298	-0.585
Mof_O 	O 	0.122	0.52042	0.05552	-0.519
Mof_N 	N 	0.7927	0.2244	0.9321	-0.267
Mof_N 	N 	0.3933	0.2202	0.0979	-0.123
Mof_N 	N 	0.509	0.27576	0.15836	-0.221
Mof_H 	H 	0.5083	0.2949	0.1823	0.146
Mof_N 	N 	0.7711	0.1682	0.2327	-0.207
Mof_H 	H 	0.6539	0.1544	0.2541	0.139
Mof_N 	N 	0.246	0.4062	0.1257	-0.253
Mof_H 	H 	0.3618	0.4287	0.122	0.172
Mof_C 	C 	0.5852	0.2532	0.9439	0.117
Mof_H 	H 	0.4789	0.2661	0.9185	-0.026
Mof_C 	C 	0.5195	0.2649	0.9911	-0.174
Mof_H 	H 	0.3761	0.2865	0.9972	0.104
Mof_C 	C 	0.6652	0.2447	0.0295	0.105
Mof_C 	C 	0.8771	0.2143	0.0187	-0.149
Mof_H 	H 	0.9819	0.2002	0.0437	0.088
Mof_C 	C 	0.9353	0.2046	0.9693	0.059
Mof_H 	H 	0.079	0.1834	0.9622	0.014
Mof_C 	C 	0.5847	0.2533	0.081	0.008
Mof_C 	C 	0.3524	0.2349	0.1443	0.116
Mof_C 	C 	0.6636	0.2882	0.119	0.032
Mof_C 	C 	0.1538	0.2111	0.1756	0.047
Mof_C 	C 	0.9969	0.1689	0.1576	-0.126
Mof_H 	H 	0.0209	0.1554	0.1261	0.081
Mof_C 	C 	0.8095	0.1481	0.1872	0.091
Mof_H 	H 	0.7072	0.1198	0.1759	0.017
Mof_C 	C 	0.9191	0.2078	0.2506	0.08
Mof_H 	H 	0.8897	0.2204	0.2823	0.019
Mof_C 	C 	0.114	0.2306	0.2234	-0.112
Mof_H 	H 	0.2165	0.258	0.2362	0.078
Mof_C 	C 	0.862	0.3294	0.1209	0.099
Mof_C 	C 	0.9367	0.3529	0.1655	-0.174
Mof_H 	H 	0.8544	0.3429	0.1943	0.1
Mof_C 	C 	0.1314	0.3909	0.1672	0.147
Mof_H 	H 	0.1829	0.4058	0.1972	-0.011
Mof_C 	C 	0.1751	0.3861	0.0821	0.113
Mof_H 	H 	0.2563	0.398	0.0538	0
Mof_C 	C 	0.9829	0.3477	0.0785	-0.172
Mof_H 	H 	0.934	0.3341	0.0478	0.108
_end
