data_functionalizedCrystal
_audit_creation_method	'EQeq! by Chris Wilmer'
_symmetry_space_group_name_H-M	'P1'
_symmetry_Int_Tables_number	1
_symmetry_cell_setting	triclinic
loop_
_symmetry_equiv_pos_as_xyz
  x,y,z
_cell_length_a	9.515
_cell_length_b	12.297
_cell_length_c	9.461
_cell_angle_alpha	91.03
_cell_angle_beta	98.658
_cell_angle_gamma	93.714
loop_
_atom_site_label
_atom_site_type_symbol
_atom_site_fract_x
_atom_site_fract_y
_atom_site_fract_z
_atom_site_charge
Mof_Zn	Zn	0.3143	0.44883	0.0936	1.207
Mof_Zn	Zn	0.9045	0.03307	0.6785	1.204
Mof_Zn	Zn	0.5974	0.14753	0.1044	1.233
Mof_Zn	Zn	0.099	0.64878	0.5858	1.234
Mof_P 	P 	0.6619	0.4023	0.1619	0.571
Mof_P 	P 	0.8388	0.088	0.3537	0.534
Mof_P 	P 	0.6989	0.9698	0.8895	0.544
Mof_P 	P 	0.1142	0.526	0.2942	0.543
Mof_O 	O 	0.5087	0.4285	0.1546	-0.508
Mof_O 	O 	0.2673	0.5253	0.2628	-0.432
Mof_O 	O 	0.7452	0.4922	0.0909	-0.496
Mof_O 	O 	0.7297	0.9748	0.7364	-0.445
Mof_O 	O 	0.9276	0.0425	0.2439	-0.484
Mof_O 	O 	0.8401	0.006	0.4757	-0.469
Mof_O 	O 	0.6316	0.0698	0.9329	-0.485
Mof_O 	O 	0.684	0.0918	0.2828	-0.455
Mof_O 	O 	0.6092	0.8642	0.9075	-0.462
Mof_O 	O 	0.6765	0.2947	0.0835	-0.49
Mof_O 	O 	0.098	0.6296	0.3789	-0.451
Mof_O 	O 	0.0752	0.4244	0.3688	-0.494
Mof_O 	O 	0.7252	0.4002	0.3198	-0.462
Mof_O 	O 	0.9095	0.1957	0.4167	-0.51
Mof_O 	O 	0.023	0.5329	0.1431	-0.396
Mof_O 	O 	0.8477	0.9569	0.9843	-0.388
Mof_H 	H 	0.92	0.507	0.14	0.182
Mof_H 	H 	0.86	0.994	0.082	0.175
Mof_Zn	Zn	0.6857	0.55117	0.9064	1.207
Mof_Zn	Zn	0.0955	0.96693	0.3215	1.204
Mof_Zn	Zn	0.4026	0.85247	0.8956	1.233
Mof_Zn	Zn	0.901	0.35122	0.4142	1.234
Mof_P 	P 	0.3381	0.5977	0.8381	0.571
Mof_P 	P 	0.1612	0.912	0.6463	0.534
Mof_P 	P 	0.3011	0.0302	0.1105	0.544
Mof_P 	P 	0.8858	0.474	0.7058	0.543
Mof_O 	O 	0.4913	0.5715	0.8454	-0.508
Mof_O 	O 	0.7327	0.4747	0.7372	-0.432
Mof_O 	O 	0.2548	0.5078	0.9091	-0.496
Mof_O 	O 	0.2703	0.0252	0.2636	-0.445
Mof_O 	O 	0.0724	0.9575	0.7561	-0.484
Mof_O 	O 	0.1599	0.994	0.5243	-0.469
Mof_O 	O 	0.3684	0.9302	0.0671	-0.485
Mof_O 	O 	0.316	0.9082	0.7172	-0.455
Mof_O 	O 	0.3908	0.1358	0.0925	-0.462
Mof_O 	O 	0.3235	0.7053	0.9165	-0.49
Mof_O 	O 	0.902	0.3704	0.6211	-0.451
Mof_O 	O 	0.9248	0.5756	0.6312	-0.494
Mof_O 	O 	0.2748	0.5998	0.6802	-0.462
Mof_O 	O 	0.0905	0.8043	0.5833	-0.51
Mof_O 	O 	0.977	0.4671	0.8569	-0.396
Mof_O 	O 	0.1523	0.0431	0.0157	-0.388
Mof_H 	H 	0.08	0.493	0.86	0.182
Mof_H 	H 	0.14	0.006	0.918	0.175
_end
