# CIF file generated by openbabel 3.1.0, see https://openbabel.org
data_I
_chemical_name_common 'image0'
_cell_length_a 35.1763
_cell_length_b 14.9671
_cell_length_c 30.2349
_cell_angle_alpha 90
_cell_angle_beta 100.759
_cell_angle_gamma 90
_space_group_name_H-M_alt 'P 1'
_space_group_name_Hall 'P 1'
loop_
    _symmetry_equiv_pos_as_xyz
    x,y,z
loop_
    _atom_site_label
    _atom_site_type_symbol
    _atom_site_fract_x
    _atom_site_fract_y
    _atom_site_fract_z
    _atom_site_occupancy
    I1       I        0.61563    0.23668    0.55840    1.000
    I2       I        0.52080    0.15676    0.63481    1.000
    I3       I        0.34910    0.42139    0.51575    1.000
    I4       I        0.38946    0.27447    0.39862    1.000
    Zn1      Zn       0.57858    0.12670    0.59799    1.000
    Zn2      Zn       0.37082    0.41258    0.43919    1.000
    N1       N        0.68633    0.48680    0.78146    1.000
    N2       N        0.56553    0.01760    0.55453    1.000
    N3       N        0.73172    0.80420    0.81111    1.000
    N4       N        0.67848    0.81470    0.75012    1.000
    N5       N        0.53650    0.65080    0.41401    1.000
    N6       N        0.71792    0.94140    0.77183    1.000
    N7       N        0.57440    0.77520    0.44434    1.000
    N8       N        0.61714    0.05420    0.64483    1.000
    N9       N        0.52063    0.72990    0.47620    1.000
    C1       C        0.69617    0.67120    0.78313    1.000
    C2       C        0.55574    0.86480    0.50255    1.000
    C3       C        0.65343    0.71850    0.36109    1.000
    H1       H        0.67790    0.74450    0.36660    1.000
    C4       C        0.66375    0.95280    0.71011    1.000
    C5       C        0.70244    0.76910    0.78190    1.000
    C6       C        0.68814    0.89970    0.74616    1.000
    C7       C        0.56655    0.70630    0.41601    1.000
    C8       C        0.55017    0.78440    0.47305    1.000
    C9       C        0.62877    0.73390    0.39066    1.000
    H2       H        0.63620    0.77160    0.41520    1.000
    C10      C        0.65327    0.08010    0.66160    1.000
    H3       H        0.66260    0.13240    0.65080    1.000
    C11      C        0.51478    0.66550    0.44525    1.000
    C12      C        0.59284    0.69290    0.38367    1.000
    C13      C        0.77791    0.02470    0.82939    1.000
    H4       H        0.76400    0.05610    0.80510    1.000
    C14      C        0.58882    0.91610    0.50537    1.000
    H5       H        0.60810    0.89960    0.48980    1.000
    C15      C        0.43570    0.53350    0.48156    1.000
    H6       H        0.42740    0.51920    0.50810    1.000
    C16      C        0.66785    0.63100    0.75112    1.000
    H7       H        0.65160    0.66540    0.73000    1.000
    C17      C        0.52784    0.89030    0.52702    1.000
    H8       H        0.50560    0.85640    0.52640    1.000
    N10      N        0.41623    0.50050    0.44281    1.000
    N11      N        0.82795    0.02380    0.89435    1.000
    C18      C        0.48053    0.60800    0.44436    1.000
    C19      C        0.46029    0.57500    0.40396    1.000
    H9       H        0.46820    0.58810    0.37700    1.000
    C20      C        0.53412    0.96760    0.55243    1.000
    H10      H        0.51550    0.98520    0.56880    1.000
    C21      C        0.58232    0.63870    0.34584    1.000
    H11      H        0.55840    0.61020    0.34010    1.000
    C22      C        0.80769    0.06560    0.85871    1.000
    H12      H        0.81380    0.12460    0.85330    1.000
    C23      C        0.62675    0.92460    0.69217    1.000
    H13      H        0.61720    0.87090    0.70120    1.000
    C24      C        0.42820    0.52230    0.40453    1.000
    H14      H        0.41430    0.50100    0.37740    1.000
    C25      C        0.60813    0.62830    0.31732    1.000
    H15      H        0.60110    0.59300    0.29180    1.000
    C26      C        0.71880    0.61660    0.81519    1.000
    H16      H        0.73750    0.64140    0.83770    1.000
    C27      C        0.73793    0.89090    0.80476    1.000
    C28      C        0.71310    0.52640    0.81300    1.000
    H17      H        0.72850    0.49060    0.83430    1.000
    C29      C        0.78995    0.89320    0.87387    1.000
    H18      H        0.78450    0.83410    0.87980    1.000
    C30      C        0.81897    0.93910    0.90213    1.000
    H19      H        0.83270    0.91000    0.92730    1.000
    C31      C        0.60421    0.97850    0.66037    1.000
    H20      H        0.57880    0.96120    0.64930    1.000
    C32      C        0.59276    0.99180    0.53148    1.000
    H21      H        0.61500    0.02620    0.53330    1.000
    C33      C        0.67736    0.03170    0.69464    1.000
    H22      H        0.70220    0.05170    0.70620    1.000
    C34      C        0.46760    0.58760    0.48374    1.000
    H23      H        0.48030    0.61020    0.51120    1.000
    C35      C        0.66431    0.53970    0.75116    1.000
    H24      H        0.64580    0.51320    0.72910    1.000
    Zn3      Zn       0.67877    0.34943    0.77818    1.000
    I5       I        0.74355    0.27619    0.81089    1.000
    I6       I        0.63870    0.31640    0.70079    1.000
    N12      N        0.64309    0.66710    0.32470    1.000
    C36      C        0.76910    0.93660    0.83661    1.000
    I7       I        0.35060    0.41190    0.51150    1.000
    I8       I        0.73280    0.26350    0.79550    1.000
    I9       I        0.11563    0.73668    0.55840    1.000
    I10      I        0.02080    0.65676    0.63481    1.000
    I11      I        0.84910    0.92139    0.51575    1.000
    I12      I        0.88946    0.77447    0.39862    1.000
    Zn4      Zn       0.07858    0.62670    0.59799    1.000
    Zn5      Zn       0.87082    0.91258    0.43919    1.000
    N13      N        0.18633    0.98680    0.78146    1.000
    N14      N        0.06553    0.51760    0.55453    1.000
    N15      N        0.23172    0.30420    0.81111    1.000
    N16      N        0.17848    0.31470    0.75012    1.000
    N17      N        0.03650    0.15080    0.41401    1.000
    N18      N        0.21792    0.44140    0.77183    1.000
    N19      N        0.07440    0.27520    0.44434    1.000
    N20      N        0.11714    0.55420    0.64483    1.000
    N21      N        0.02063    0.22990    0.47620    1.000
    C37      C        0.19617    0.17120    0.78313    1.000
    C38      C        0.05574    0.36480    0.50255    1.000
    C39      C        0.15343    0.21850    0.36109    1.000
    H25      H        0.17790    0.24450    0.36660    1.000
    C40      C        0.16375    0.45280    0.71011    1.000
    C41      C        0.20244    0.26910    0.78190    1.000
    C42      C        0.18814    0.39970    0.74616    1.000
    C43      C        0.06655    0.20630    0.41601    1.000
    C44      C        0.05017    0.28440    0.47305    1.000
    C45      C        0.12877    0.23390    0.39066    1.000
    H26      H        0.13620    0.27160    0.41520    1.000
    C46      C        0.15327    0.58010    0.66160    1.000
    H27      H        0.16260    0.63240    0.65080    1.000
    C47      C        0.01478    0.16550    0.44525    1.000
    C48      C        0.09284    0.19290    0.38367    1.000
    C49      C        0.27791    0.52470    0.82939    1.000
    H28      H        0.26400    0.55610    0.80510    1.000
    C50      C        0.08882    0.41610    0.50537    1.000
    H29      H        0.10810    0.39960    0.48980    1.000
    C51      C        0.93570    0.03350    0.48156    1.000
    H30      H        0.92740    0.01920    0.50810    1.000
    C52      C        0.16785    0.13100    0.75112    1.000
    H31      H        0.15160    0.16540    0.73000    1.000
    C53      C        0.02784    0.39030    0.52702    1.000
    H32      H        0.00560    0.35640    0.52640    1.000
    N22      N        0.91623    0.00050    0.44281    1.000
    N23      N        0.32795    0.52380    0.89435    1.000
    C54      C        0.98053    0.10800    0.44436    1.000
    C55      C        0.96029    0.07500    0.40396    1.000
    H33      H        0.96820    0.08810    0.37700    1.000
    C56      C        0.03412    0.46760    0.55243    1.000
    H34      H        0.01550    0.48520    0.56880    1.000
    C57      C        0.08232    0.13870    0.34584    1.000
    H35      H        0.05840    0.11020    0.34010    1.000
    C58      C        0.30769    0.56560    0.85871    1.000
    H36      H        0.31380    0.62460    0.85330    1.000
    C59      C        0.12675    0.42460    0.69217    1.000
    H37      H        0.11720    0.37090    0.70120    1.000
    C60      C        0.92820    0.02230    0.40453    1.000
    H38      H        0.91430    0.00100    0.37740    1.000
    C61      C        0.10813    0.12830    0.31732    1.000
    H39      H        0.10110    0.09300    0.29180    1.000
    C62      C        0.21880    0.11660    0.81519    1.000
    H40      H        0.23750    0.14140    0.83770    1.000
    C63      C        0.23793    0.39090    0.80476    1.000
    C64      C        0.21310    0.02640    0.81300    1.000
    H41      H        0.22850    0.99060    0.83430    1.000
    C65      C        0.28995    0.39320    0.87387    1.000
    H42      H        0.28450    0.33410    0.87980    1.000
    C66      C        0.31897    0.43910    0.90213    1.000
    H43      H        0.33270    0.41000    0.92730    1.000
    C67      C        0.10421    0.47850    0.66037    1.000
    H44      H        0.07880    0.46120    0.64930    1.000
    C68      C        0.09276    0.49180    0.53148    1.000
    H45      H        0.11500    0.52620    0.53330    1.000
    C69      C        0.17736    0.53170    0.69464    1.000
    H46      H        0.20220    0.55170    0.70620    1.000
    C70      C        0.96760    0.08760    0.48374    1.000
    H47      H        0.98030    0.11020    0.51120    1.000
    C71      C        0.16431    0.03970    0.75116    1.000
    H48      H        0.14580    0.01320    0.72910    1.000
    Zn6      Zn       0.17877    0.84943    0.77818    1.000
    I13      I        0.24355    0.77619    0.81089    1.000
    I14      I        0.13870    0.81640    0.70079    1.000
    N24      N        0.14309    0.16710    0.32470    1.000
    C72      C        0.26910    0.43660    0.83661    1.000
    I15      I        0.85060    0.91190    0.51150    1.000
    I16      I        0.23280    0.76350    0.79550    1.000
    I17      I        0.61563    0.76332    0.05840    1.000
    I18      I        0.52080    0.84324    0.13481    1.000
    I19      I        0.34910    0.57861    0.01575    1.000
    I20      I        0.38946    0.72553    0.89862    1.000
    Zn7      Zn       0.57858    0.87330    0.09799    1.000
    Zn8      Zn       0.37082    0.58742    0.93919    1.000
    N25      N        0.68633    0.51320    0.28146    1.000
    N26      N        0.56553    0.98240    0.05453    1.000
    N27      N        0.73172    0.19580    0.31111    1.000
    N28      N        0.67848    0.18530    0.25012    1.000
    N29      N        0.53650    0.34920    0.91401    1.000
    N30      N        0.71792    0.05860    0.27183    1.000
    N31      N        0.57440    0.22480    0.94434    1.000
    N32      N        0.61714    0.94580    0.14483    1.000
    N33      N        0.52063    0.27010    0.97620    1.000
    C73      C        0.69617    0.32880    0.28313    1.000
    C74      C        0.55574    0.13520    0.00255    1.000
    C75      C        0.65343    0.28150    0.86109    1.000
    H49      H        0.67790    0.25550    0.86660    1.000
    C76      C        0.66375    0.04720    0.21011    1.000
    C77      C        0.70244    0.23090    0.28190    1.000
    C78      C        0.68814    0.10030    0.24616    1.000
    C79      C        0.56655    0.29370    0.91601    1.000
    C80      C        0.55017    0.21560    0.97305    1.000
    C81      C        0.62877    0.26610    0.89066    1.000
    H50      H        0.63620    0.22840    0.91520    1.000
    C82      C        0.65327    0.91990    0.16160    1.000
    H51      H        0.66260    0.86760    0.15080    1.000
    C83      C        0.51478    0.33450    0.94525    1.000
    C84      C        0.59284    0.30710    0.88367    1.000
    C85      C        0.77791    0.97530    0.32939    1.000
    H52      H        0.76400    0.94390    0.30510    1.000
    C86      C        0.58882    0.08390    0.00537    1.000
    H53      H        0.60810    0.10040    0.98980    1.000
    C87      C        0.43570    0.46650    0.98156    1.000
    H54      H        0.42740    0.48080    0.00810    1.000
    C88      C        0.66785    0.36900    0.25112    1.000
    H55      H        0.65160    0.33460    0.23000    1.000
    C89      C        0.52784    0.10970    0.02702    1.000
    H56      H        0.50560    0.14360    0.02640    1.000
    N34      N        0.41623    0.49950    0.94281    1.000
    N35      N        0.82795    0.97620    0.39435    1.000
    C90      C        0.48053    0.39200    0.94436    1.000
    C91      C        0.46029    0.42500    0.90396    1.000
    H57      H        0.46820    0.41190    0.87700    1.000
    C92      C        0.53412    0.03240    0.05243    1.000
    H58      H        0.51550    0.01480    0.06880    1.000
    C93      C        0.58232    0.36130    0.84584    1.000
    H59      H        0.55840    0.38980    0.84010    1.000
    C94      C        0.80769    0.93440    0.35871    1.000
    H60      H        0.81380    0.87540    0.35330    1.000
    C95      C        0.62675    0.07540    0.19217    1.000
    H61      H        0.61720    0.12910    0.20120    1.000
    C96      C        0.42820    0.47770    0.90453    1.000
    H62      H        0.41430    0.49900    0.87740    1.000
    C97      C        0.60813    0.37170    0.81732    1.000
    H63      H        0.60110    0.40700    0.79180    1.000
    C98      C        0.71880    0.38340    0.31519    1.000
    H64      H        0.73750    0.35860    0.33770    1.000
    C99      C        0.73793    0.10910    0.30476    1.000
    C100     C        0.71310    0.47360    0.31300    1.000
    H65      H        0.72850    0.50940    0.33430    1.000
    C101     C        0.78995    0.10680    0.37387    1.000
    H66      H        0.78450    0.16590    0.37980    1.000
    C102     C        0.81897    0.06090    0.40213    1.000
    H67      H        0.83270    0.09000    0.42730    1.000
    C103     C        0.60421    0.02150    0.16037    1.000
    H68      H        0.57880    0.03880    0.14930    1.000
    C104     C        0.59276    0.00820    0.03148    1.000
    H69      H        0.61500    0.97380    0.03330    1.000
    C105     C        0.67736    0.96830    0.19464    1.000
    H70      H        0.70220    0.94830    0.20620    1.000
    C106     C        0.46760    0.41240    0.98374    1.000
    H71      H        0.48030    0.38980    0.01120    1.000
    C107     C        0.66431    0.46030    0.25116    1.000
    H72      H        0.64580    0.48680    0.22910    1.000
    Zn9      Zn       0.67877    0.65057    0.27818    1.000
    I21      I        0.74355    0.72381    0.31089    1.000
    I22      I        0.63870    0.68360    0.20079    1.000
    N36      N        0.64309    0.33290    0.82470    1.000
    C108     C        0.76910    0.06340    0.33661    1.000
    I23      I        0.35060    0.58810    0.01150    1.000
    I24      I        0.73280    0.73650    0.29550    1.000
    I25      I        0.11563    0.26332    0.05840    1.000
    I26      I        0.02080    0.34324    0.13481    1.000
    I27      I        0.84910    0.07861    0.01575    1.000
    I28      I        0.88946    0.22553    0.89862    1.000
    Zn10     Zn       0.07858    0.37330    0.09799    1.000
    Zn11     Zn       0.87082    0.08742    0.93919    1.000
    N37      N        0.18633    0.01320    0.28146    1.000
    N38      N        0.06553    0.48240    0.05453    1.000
    N39      N        0.23172    0.69580    0.31111    1.000
    N40      N        0.17848    0.68530    0.25012    1.000
    N41      N        0.03650    0.84920    0.91401    1.000
    N42      N        0.21792    0.55860    0.27183    1.000
    N43      N        0.07440    0.72480    0.94434    1.000
    N44      N        0.11714    0.44580    0.14483    1.000
    N45      N        0.02063    0.77010    0.97620    1.000
    C109     C        0.19617    0.82880    0.28313    1.000
    C110     C        0.05574    0.63520    0.00255    1.000
    C111     C        0.15343    0.78150    0.86109    1.000
    H73      H        0.17790    0.75550    0.86660    1.000
    C112     C        0.16375    0.54720    0.21011    1.000
    C113     C        0.20244    0.73090    0.28190    1.000
    C114     C        0.18814    0.60030    0.24616    1.000
    C115     C        0.06655    0.79370    0.91601    1.000
    C116     C        0.05017    0.71560    0.97305    1.000
    C117     C        0.12877    0.76610    0.89066    1.000
    H74      H        0.13620    0.72840    0.91520    1.000
    C118     C        0.15327    0.41990    0.16160    1.000
    H75      H        0.16260    0.36760    0.15080    1.000
    C119     C        0.01478    0.83450    0.94525    1.000
    C120     C        0.09284    0.80710    0.88367    1.000
    C121     C        0.27791    0.47530    0.32939    1.000
    H76      H        0.26400    0.44390    0.30510    1.000
    C122     C        0.08882    0.58390    0.00537    1.000
    H77      H        0.10810    0.60040    0.98980    1.000
    C123     C        0.93570    0.96650    0.98156    1.000
    H78      H        0.92740    0.98080    0.00810    1.000
    C124     C        0.16785    0.86900    0.25112    1.000
    H79      H        0.15160    0.83460    0.23000    1.000
    C125     C        0.02784    0.60970    0.02702    1.000
    H80      H        0.00560    0.64360    0.02640    1.000
    N46      N        0.91623    0.99950    0.94281    1.000
    N47      N        0.32795    0.47620    0.39435    1.000
    C126     C        0.98053    0.89200    0.94436    1.000
    C127     C        0.96029    0.92500    0.90396    1.000
    H81      H        0.96820    0.91190    0.87700    1.000
    C128     C        0.03412    0.53240    0.05243    1.000
    H82      H        0.01550    0.51480    0.06880    1.000
    C129     C        0.08232    0.86130    0.84584    1.000
    H83      H        0.05840    0.88980    0.84010    1.000
    C130     C        0.30769    0.43440    0.35871    1.000
    H84      H        0.31380    0.37540    0.35330    1.000
    C131     C        0.12675    0.57540    0.19217    1.000
    H85      H        0.11720    0.62910    0.20120    1.000
    C132     C        0.92820    0.97770    0.90453    1.000
    H86      H        0.91430    0.99900    0.87740    1.000
    C133     C        0.10813    0.87170    0.81732    1.000
    H87      H        0.10110    0.90700    0.79180    1.000
    C134     C        0.21880    0.88340    0.31519    1.000
    H88      H        0.23750    0.85860    0.33770    1.000
    C135     C        0.23793    0.60910    0.30476    1.000
    C136     C        0.21310    0.97360    0.31300    1.000
    H89      H        0.22850    0.00940    0.33430    1.000
    C137     C        0.28995    0.60680    0.37387    1.000
    H90      H        0.28450    0.66590    0.37980    1.000
    C138     C        0.31897    0.56090    0.40213    1.000
    H91      H        0.33270    0.59000    0.42730    1.000
    C139     C        0.10421    0.52150    0.16037    1.000
    H92      H        0.07880    0.53880    0.14930    1.000
    C140     C        0.09276    0.50820    0.03148    1.000
    H93      H        0.11500    0.47380    0.03330    1.000
    C141     C        0.17736    0.46830    0.19464    1.000
    H94      H        0.20220    0.44830    0.20620    1.000
    C142     C        0.96760    0.91240    0.98374    1.000
    H95      H        0.98030    0.88980    0.01120    1.000
    C143     C        0.16431    0.96030    0.25116    1.000
    H96      H        0.14580    0.98680    0.22910    1.000
    Zn12     Zn       0.17877    0.15057    0.27818    1.000
    I29      I        0.24355    0.22381    0.31089    1.000
    I30      I        0.13870    0.18360    0.20079    1.000
    N48      N        0.14309    0.83290    0.82470    1.000
    C144     C        0.26910    0.56340    0.33661    1.000
    I31      I        0.85060    0.08810    0.01150    1.000
    I32      I        0.23280    0.23650    0.29550    1.000
    I33      I        0.38437    0.23668    0.94160    1.000
    I34      I        0.47920    0.15676    0.86519    1.000
    I35      I        0.65090    0.42139    0.98425    1.000
    I36      I        0.61054    0.27447    0.10138    1.000
    Zn13     Zn       0.42142    0.12670    0.90201    1.000
    Zn14     Zn       0.62918    0.41258    0.06081    1.000
    N49      N        0.31367    0.48680    0.71854    1.000
    N50      N        0.43447    0.01760    0.94547    1.000
    N51      N        0.26828    0.80420    0.68889    1.000
    N52      N        0.32152    0.81470    0.74988    1.000
    N53      N        0.46350    0.65080    0.08599    1.000
    N54      N        0.28208    0.94140    0.72817    1.000
    N55      N        0.42560    0.77520    0.05566    1.000
    N56      N        0.38286    0.05420    0.85517    1.000
    N57      N        0.47937    0.72990    0.02380    1.000
    C145     C        0.30383    0.67120    0.71687    1.000
    C146     C        0.44426    0.86480    0.99745    1.000
    C147     C        0.34657    0.71850    0.13891    1.000
    H97      H        0.32210    0.74450    0.13340    1.000
    C148     C        0.33625    0.95280    0.78989    1.000
    C149     C        0.29756    0.76910    0.71810    1.000
    C150     C        0.31186    0.89970    0.75384    1.000
    C151     C        0.43345    0.70630    0.08399    1.000
    C152     C        0.44983    0.78440    0.02695    1.000
    C153     C        0.37123    0.73390    0.10934    1.000
    H98      H        0.36380    0.77160    0.08480    1.000
    C154     C        0.34673    0.08010    0.83840    1.000
    H99      H        0.33740    0.13240    0.84920    1.000
    C155     C        0.48522    0.66550    0.05475    1.000
    C156     C        0.40716    0.69290    0.11633    1.000
    C157     C        0.22209    0.02470    0.67061    1.000
    H100     H        0.23600    0.05610    0.69490    1.000
    C158     C        0.41118    0.91610    0.99463    1.000
    H101     H        0.39190    0.89960    0.01020    1.000
    C159     C        0.56430    0.53350    0.01844    1.000
    H102     H        0.57260    0.51920    0.99190    1.000
    C160     C        0.33215    0.63100    0.74888    1.000
    H103     H        0.34840    0.66540    0.77000    1.000
    C161     C        0.47216    0.89030    0.97298    1.000
    H104     H        0.49440    0.85640    0.97360    1.000
    N58      N        0.58377    0.50050    0.05719    1.000
    N59      N        0.17205    0.02380    0.60565    1.000
    C162     C        0.51947    0.60800    0.05564    1.000
    C163     C        0.53971    0.57500    0.09604    1.000
    H105     H        0.53180    0.58810    0.12300    1.000
    C164     C        0.46588    0.96760    0.94757    1.000
    H106     H        0.48450    0.98520    0.93120    1.000
    C165     C        0.41768    0.63870    0.15416    1.000
    H107     H        0.44160    0.61020    0.15990    1.000
    C166     C        0.19231    0.06560    0.64129    1.000
    H108     H        0.18620    0.12460    0.64670    1.000
    C167     C        0.37325    0.92460    0.80783    1.000
    H109     H        0.38280    0.87090    0.79880    1.000
    C168     C        0.57180    0.52230    0.09547    1.000
    H110     H        0.58570    0.50100    0.12260    1.000
    C169     C        0.39187    0.62830    0.18268    1.000
    H111     H        0.39890    0.59300    0.20820    1.000
    C170     C        0.28120    0.61660    0.68481    1.000
    H112     H        0.26250    0.64140    0.66230    1.000
    C171     C        0.26207    0.89090    0.69524    1.000
    C172     C        0.28690    0.52640    0.68700    1.000
    H113     H        0.27150    0.49060    0.66570    1.000
    C173     C        0.21005    0.89320    0.62613    1.000
    H114     H        0.21550    0.83410    0.62020    1.000
    C174     C        0.18103    0.93910    0.59787    1.000
    H115     H        0.16730    0.91000    0.57270    1.000
    C175     C        0.39579    0.97850    0.83963    1.000
    H116     H        0.42120    0.96120    0.85070    1.000
    C176     C        0.40724    0.99180    0.96852    1.000
    H117     H        0.38500    0.02620    0.96670    1.000
    C177     C        0.32264    0.03170    0.80536    1.000
    H118     H        0.29780    0.05170    0.79380    1.000
    C178     C        0.53240    0.58760    0.01626    1.000
    H119     H        0.51970    0.61020    0.98880    1.000
    C179     C        0.33569    0.53970    0.74884    1.000
    H120     H        0.35420    0.51320    0.77090    1.000
    Zn15     Zn       0.32123    0.34943    0.72182    1.000
    I37      I        0.25645    0.27619    0.68911    1.000
    I38      I        0.36130    0.31640    0.79921    1.000
    N60      N        0.35691    0.66710    0.17530    1.000
    C180     C        0.23090    0.93660    0.66339    1.000
    I39      I        0.64940    0.41190    0.98850    1.000
    I40      I        0.26720    0.26350    0.70450    1.000
    I41      I        0.88437    0.73668    0.94160    1.000
    I42      I        0.97920    0.65676    0.86519    1.000
    I43      I        0.15090    0.92139    0.98425    1.000
    I44      I        0.11054    0.77447    0.10138    1.000
    Zn16     Zn       0.92142    0.62670    0.90201    1.000
    Zn17     Zn       0.12918    0.91258    0.06081    1.000
    N61      N        0.81367    0.98680    0.71854    1.000
    N62      N        0.93447    0.51760    0.94547    1.000
    N63      N        0.76828    0.30420    0.68889    1.000
    N64      N        0.82152    0.31470    0.74988    1.000
    N65      N        0.96350    0.15080    0.08599    1.000
    N66      N        0.78208    0.44140    0.72817    1.000
    N67      N        0.92560    0.27520    0.05566    1.000
    N68      N        0.88286    0.55420    0.85517    1.000
    N69      N        0.97937    0.22990    0.02380    1.000
    C181     C        0.80383    0.17120    0.71687    1.000
    C182     C        0.94426    0.36480    0.99745    1.000
    C183     C        0.84657    0.21850    0.13891    1.000
    H121     H        0.82210    0.24450    0.13340    1.000
    C184     C        0.83625    0.45280    0.78989    1.000
    C185     C        0.79756    0.26910    0.71810    1.000
    C186     C        0.81186    0.39970    0.75384    1.000
    C187     C        0.93345    0.20630    0.08399    1.000
    C188     C        0.94983    0.28440    0.02695    1.000
    C189     C        0.87123    0.23390    0.10934    1.000
    H122     H        0.86380    0.27160    0.08480    1.000
    C190     C        0.84673    0.58010    0.83840    1.000
    H123     H        0.83740    0.63240    0.84920    1.000
    C191     C        0.98522    0.16550    0.05475    1.000
    C192     C        0.90716    0.19290    0.11633    1.000
    C193     C        0.72209    0.52470    0.67061    1.000
    H124     H        0.73600    0.55610    0.69490    1.000
    C194     C        0.91118    0.41610    0.99463    1.000
    H125     H        0.89190    0.39960    0.01020    1.000
    C195     C        0.06430    0.03350    0.01844    1.000
    H126     H        0.07260    0.01920    0.99190    1.000
    C196     C        0.83215    0.13100    0.74888    1.000
    H127     H        0.84840    0.16540    0.77000    1.000
    C197     C        0.97216    0.39030    0.97298    1.000
    H128     H        0.99440    0.35640    0.97360    1.000
    N70      N        0.08377    0.00050    0.05719    1.000
    N71      N        0.67205    0.52380    0.60565    1.000
    C198     C        0.01947    0.10800    0.05564    1.000
    C199     C        0.03971    0.07500    0.09604    1.000
    H129     H        0.03180    0.08810    0.12300    1.000
    C200     C        0.96588    0.46760    0.94757    1.000
    H130     H        0.98450    0.48520    0.93120    1.000
    C201     C        0.91768    0.13870    0.15416    1.000
    H131     H        0.94160    0.11020    0.15990    1.000
    C202     C        0.69231    0.56560    0.64129    1.000
    H132     H        0.68620    0.62460    0.64670    1.000
    C203     C        0.87325    0.42460    0.80783    1.000
    H133     H        0.88280    0.37090    0.79880    1.000
    C204     C        0.07180    0.02230    0.09547    1.000
    H134     H        0.08570    0.00100    0.12260    1.000
    C205     C        0.89187    0.12830    0.18268    1.000
    H135     H        0.89890    0.09300    0.20820    1.000
    C206     C        0.78120    0.11660    0.68481    1.000
    H136     H        0.76250    0.14140    0.66230    1.000
    C207     C        0.76207    0.39090    0.69524    1.000
    C208     C        0.78690    0.02640    0.68700    1.000
    H137     H        0.77150    0.99060    0.66570    1.000
    C209     C        0.71005    0.39320    0.62613    1.000
    H138     H        0.71550    0.33410    0.62020    1.000
    C210     C        0.68103    0.43910    0.59787    1.000
    H139     H        0.66730    0.41000    0.57270    1.000
    C211     C        0.89579    0.47850    0.83963    1.000
    H140     H        0.92120    0.46120    0.85070    1.000
    C212     C        0.90724    0.49180    0.96852    1.000
    H141     H        0.88500    0.52620    0.96670    1.000
    C213     C        0.82264    0.53170    0.80536    1.000
    H142     H        0.79780    0.55170    0.79380    1.000
    C214     C        0.03240    0.08760    0.01626    1.000
    H143     H        0.01970    0.11020    0.98880    1.000
    C215     C        0.83569    0.03970    0.74884    1.000
    H144     H        0.85420    0.01320    0.77090    1.000
    Zn18     Zn       0.82123    0.84943    0.72182    1.000
    I45      I        0.75645    0.77619    0.68911    1.000
    I46      I        0.86130    0.81640    0.79921    1.000
    N72      N        0.85691    0.16710    0.17530    1.000
    C216     C        0.73090    0.43660    0.66339    1.000
    I47      I        0.14940    0.91190    0.98850    1.000
    I48      I        0.76720    0.76350    0.70450    1.000
    I49      I        0.38437    0.76332    0.44160    1.000
    I50      I        0.47920    0.84324    0.36519    1.000
    I51      I        0.65090    0.57861    0.48425    1.000
    I52      I        0.61054    0.72553    0.60138    1.000
    Zn19     Zn       0.42142    0.87330    0.40201    1.000
    Zn20     Zn       0.62918    0.58742    0.56081    1.000
    N73      N        0.31367    0.51320    0.21854    1.000
    N74      N        0.43447    0.98240    0.44547    1.000
    N75      N        0.26828    0.19580    0.18889    1.000
    N76      N        0.32152    0.18530    0.24988    1.000
    N77      N        0.46350    0.34920    0.58599    1.000
    N78      N        0.28208    0.05860    0.22817    1.000
    N79      N        0.42560    0.22480    0.55566    1.000
    N80      N        0.38286    0.94580    0.35517    1.000
    N81      N        0.47937    0.27010    0.52380    1.000
    C217     C        0.30383    0.32880    0.21687    1.000
    C218     C        0.44426    0.13520    0.49745    1.000
    C219     C        0.34657    0.28150    0.63891    1.000
    H145     H        0.32210    0.25550    0.63340    1.000
    C220     C        0.33625    0.04720    0.28989    1.000
    C221     C        0.29756    0.23090    0.21810    1.000
    C222     C        0.31186    0.10030    0.25384    1.000
    C223     C        0.43345    0.29370    0.58399    1.000
    C224     C        0.44983    0.21560    0.52695    1.000
    C225     C        0.37123    0.26610    0.60934    1.000
    H146     H        0.36380    0.22840    0.58480    1.000
    C226     C        0.34673    0.91990    0.33840    1.000
    H147     H        0.33740    0.86760    0.34920    1.000
    C227     C        0.48522    0.33450    0.55475    1.000
    C228     C        0.40716    0.30710    0.61633    1.000
    C229     C        0.22209    0.97530    0.17061    1.000
    H148     H        0.23600    0.94390    0.19490    1.000
    C230     C        0.41118    0.08390    0.49463    1.000
    H149     H        0.39190    0.10040    0.51020    1.000
    C231     C        0.56430    0.46650    0.51844    1.000
    H150     H        0.57260    0.48080    0.49190    1.000
    C232     C        0.33215    0.36900    0.24888    1.000
    H151     H        0.34840    0.33460    0.27000    1.000
    C233     C        0.47216    0.10970    0.47298    1.000
    H152     H        0.49440    0.14360    0.47360    1.000
    N82      N        0.58377    0.49950    0.55719    1.000
    N83      N        0.17205    0.97620    0.10565    1.000
    C234     C        0.51947    0.39200    0.55564    1.000
    C235     C        0.53971    0.42500    0.59604    1.000
    H153     H        0.53180    0.41190    0.62300    1.000
    C236     C        0.46588    0.03240    0.44757    1.000
    H154     H        0.48450    0.01480    0.43120    1.000
    C237     C        0.41768    0.36130    0.65416    1.000
    H155     H        0.44160    0.38980    0.65990    1.000
    C238     C        0.19231    0.93440    0.14129    1.000
    H156     H        0.18620    0.87540    0.14670    1.000
    C239     C        0.37325    0.07540    0.30783    1.000
    H157     H        0.38280    0.12910    0.29880    1.000
    C240     C        0.57180    0.47770    0.59547    1.000
    H158     H        0.58570    0.49900    0.62260    1.000
    C241     C        0.39187    0.37170    0.68268    1.000
    H159     H        0.39890    0.40700    0.70820    1.000
    C242     C        0.28120    0.38340    0.18481    1.000
    H160     H        0.26250    0.35860    0.16230    1.000
    C243     C        0.26207    0.10910    0.19524    1.000
    C244     C        0.28690    0.47360    0.18700    1.000
    H161     H        0.27150    0.50940    0.16570    1.000
    C245     C        0.21005    0.10680    0.12613    1.000
    H162     H        0.21550    0.16590    0.12020    1.000
    C246     C        0.18103    0.06090    0.09787    1.000
    H163     H        0.16730    0.09000    0.07270    1.000
    C247     C        0.39579    0.02150    0.33963    1.000
    H164     H        0.42120    0.03880    0.35070    1.000
    C248     C        0.40724    0.00820    0.46852    1.000
    H165     H        0.38500    0.97380    0.46670    1.000
    C249     C        0.32264    0.96830    0.30536    1.000
    H166     H        0.29780    0.94830    0.29380    1.000
    C250     C        0.53240    0.41240    0.51626    1.000
    H167     H        0.51970    0.38980    0.48880    1.000
    C251     C        0.33569    0.46030    0.24884    1.000
    H168     H        0.35420    0.48680    0.27090    1.000
    Zn21     Zn       0.32123    0.65057    0.22182    1.000
    I53      I        0.25645    0.72381    0.18911    1.000
    I54      I        0.36130    0.68360    0.29921    1.000
    N84      N        0.35691    0.33290    0.67530    1.000
    C252     C        0.23090    0.06340    0.16339    1.000
    I55      I        0.64940    0.58810    0.48850    1.000
    I56      I        0.26720    0.73650    0.20450    1.000
    I57      I        0.88437    0.26332    0.44160    1.000
    I58      I        0.97920    0.34324    0.36519    1.000
    I59      I        0.15090    0.07861    0.48425    1.000
    I60      I        0.11054    0.22553    0.60138    1.000
    Zn22     Zn       0.92142    0.37330    0.40201    1.000
    Zn23     Zn       0.12918    0.08742    0.56081    1.000
    N85      N        0.81367    0.01320    0.21854    1.000
    N86      N        0.93447    0.48240    0.44547    1.000
    N87      N        0.76828    0.69580    0.18889    1.000
    N88      N        0.82152    0.68530    0.24988    1.000
    N89      N        0.96350    0.84920    0.58599    1.000
    N90      N        0.78208    0.55860    0.22817    1.000
    N91      N        0.92560    0.72480    0.55566    1.000
    N92      N        0.88286    0.44580    0.35517    1.000
    N93      N        0.97937    0.77010    0.52380    1.000
    C253     C        0.80383    0.82880    0.21687    1.000
    C254     C        0.94426    0.63520    0.49745    1.000
    C255     C        0.84657    0.78150    0.63891    1.000
    H169     H        0.82210    0.75550    0.63340    1.000
    C256     C        0.83625    0.54720    0.28989    1.000
    C257     C        0.79756    0.73090    0.21810    1.000
    C258     C        0.81186    0.60030    0.25384    1.000
    C259     C        0.93345    0.79370    0.58399    1.000
    C260     C        0.94983    0.71560    0.52695    1.000
    C261     C        0.87123    0.76610    0.60934    1.000
    H170     H        0.86380    0.72840    0.58480    1.000
    C262     C        0.84673    0.41990    0.33840    1.000
    H171     H        0.83740    0.36760    0.34920    1.000
    C263     C        0.98522    0.83450    0.55475    1.000
    C264     C        0.90716    0.80710    0.61633    1.000
    C265     C        0.72209    0.47530    0.17061    1.000
    H172     H        0.73600    0.44390    0.19490    1.000
    C266     C        0.91118    0.58390    0.49463    1.000
    H173     H        0.89190    0.60040    0.51020    1.000
    C267     C        0.06430    0.96650    0.51844    1.000
    H174     H        0.07260    0.98080    0.49190    1.000
    C268     C        0.83215    0.86900    0.24888    1.000
    H175     H        0.84840    0.83460    0.27000    1.000
    C269     C        0.97216    0.60970    0.47298    1.000
    H176     H        0.99440    0.64360    0.47360    1.000
    N94      N        0.08377    0.99950    0.55719    1.000
    N95      N        0.67205    0.47620    0.10565    1.000
    C270     C        0.01947    0.89200    0.55564    1.000
    C271     C        0.03971    0.92500    0.59604    1.000
    H177     H        0.03180    0.91190    0.62300    1.000
    C272     C        0.96588    0.53240    0.44757    1.000
    H178     H        0.98450    0.51480    0.43120    1.000
    C273     C        0.91768    0.86130    0.65416    1.000
    H179     H        0.94160    0.88980    0.65990    1.000
    C274     C        0.69231    0.43440    0.14129    1.000
    H180     H        0.68620    0.37540    0.14670    1.000
    C275     C        0.87325    0.57540    0.30783    1.000
    H181     H        0.88280    0.62910    0.29880    1.000
    C276     C        0.07180    0.97770    0.59547    1.000
    H182     H        0.08570    0.99900    0.62260    1.000
    C277     C        0.89187    0.87170    0.68268    1.000
    H183     H        0.89890    0.90700    0.70820    1.000
    C278     C        0.78120    0.88340    0.18481    1.000
    H184     H        0.76250    0.85860    0.16230    1.000
    C279     C        0.76207    0.60910    0.19524    1.000
    C280     C        0.78690    0.97360    0.18700    1.000
    H185     H        0.77150    0.00940    0.16570    1.000
    C281     C        0.71005    0.60680    0.12613    1.000
    H186     H        0.71550    0.66590    0.12020    1.000
    C282     C        0.68103    0.56090    0.09787    1.000
    H187     H        0.66730    0.59000    0.07270    1.000
    C283     C        0.89579    0.52150    0.33963    1.000
    H188     H        0.92120    0.53880    0.35070    1.000
    C284     C        0.90724    0.50820    0.46852    1.000
    H189     H        0.88500    0.47380    0.46670    1.000
    C285     C        0.82264    0.46830    0.30536    1.000
    H190     H        0.79780    0.44830    0.29380    1.000
    C286     C        0.03240    0.91240    0.51626    1.000
    H191     H        0.01970    0.88980    0.48880    1.000
    C287     C        0.83569    0.96030    0.24884    1.000
    H192     H        0.85420    0.98680    0.27090    1.000
    Zn24     Zn       0.82123    0.15057    0.22182    1.000
    I61      I        0.75645    0.22381    0.18911    1.000
    I62      I        0.86130    0.18360    0.29921    1.000
    N96      N        0.85691    0.83290    0.67530    1.000
    C288     C        0.73090    0.56340    0.16339    1.000
    I63      I        0.14940    0.08810    0.48850    1.000
    I64      I        0.76720    0.23650    0.20450    1.000
