# CIF file generated by openbabel 3.1.0, see https://openbabel.org
data_I
_chemical_name_common 'YUWHOO_clean'
_cell_length_a 12.1945
_cell_length_b 12.1945
_cell_length_c 12.169
_cell_angle_alpha 119.482
_cell_angle_beta 119.482
_cell_angle_gamma 52.6782
_space_group_name_H-M_alt 'P 1'
_space_group_name_Hall 'P 1'
loop_
    _symmetry_equiv_pos_as_xyz
    x,y,z
loop_
    _atom_site_label
    _atom_site_type_symbol
    _atom_site_fract_x
    _atom_site_fract_y
    _atom_site_fract_z
    _atom_site_occupancy
    H1       H        0.49600    0.28600    0.08100    1.000
    H2       H        0.52500    0.01300    0.75000    1.000
    H3       H        0.55300    0.19100    0.76000    1.000
    H4       H        0.60400    0.72800    0.75600    1.000
    H5       H        0.20900    0.99700    0.77200    1.000
    H6       H        0.20500    0.79100    0.56700    1.000
    H7       H        0.24800    0.30600    0.94600    1.000
    H8       H        0.22100    0.07500    0.05100    1.000
    H9       H        0.98600    0.30600    0.03900    1.000
    H10      H        0.23500    0.74900    0.13600    1.000
    C11      C        0.50466    0.24526    0.99980    1.000
    C12      C        0.52858    0.19538    0.81500    1.000
    C13      C        0.52441    0.08561    0.81460    1.000
    C14      C        0.50115    0.76875    0.72950    1.000
    C15      C        0.28351    0.80591    0.63160    1.000
    C16      C        0.28410    0.91710    0.74260    1.000
    C17      C        0.21312    0.28112    0.97640    1.000
    C18      C        0.06818    0.27678    0.02440    1.000
    C19      C        0.19504    0.15304    0.03310    1.000
    C20      C        0.30621    0.68621    0.19080    1.000
    N21      N        0.50998    0.11678    0.93220    1.000
    N22      N        0.51427    0.29927    0.93430    1.000
    N23      N        0.42396    0.89276    0.80660    1.000
    N24      N        0.42265    0.70965    0.62290    1.000
    N25      N        0.28852    0.15532    0.00290    1.000
    N26      N        0.08030    0.35790    0.98820    1.000
    N27      N        0.42529    0.56429    0.15280    1.000
    H28      H        0.46472    0.00699    0.46903    1.000
    H29      H        0.71400    0.50400    0.41900    1.000
    H30      H        0.98700    0.47500    0.75000    1.000
    H31      H        0.80900    0.44700    0.74000    1.000
    H32      H        0.27200    0.39600    0.74400    1.000
    H33      H        0.00300    0.79100    0.72800    1.000
    H34      H        0.20900    0.79500    0.93300    1.000
    H35      H        0.69400    0.75200    0.55400    1.000
    H36      H        0.92500    0.77900    0.44900    1.000
    H37      H        0.69400    0.01400    0.46100    1.000
    H38      H        0.25100    0.76500    0.36400    1.000
    C39      C        0.75474    0.49534    0.50020    1.000
    C40      C        0.80462    0.47142    0.68500    1.000
    C41      C        0.91439    0.47559    0.68540    1.000
    C42      C        0.23125    0.49885    0.77050    1.000
    C43      C        0.19409    0.71649    0.86840    1.000
    C44      C        0.08290    0.71590    0.75740    1.000
    C45      C        0.71888    0.78688    0.52360    1.000
    C46      C        0.72322    0.93182    0.47560    1.000
    C47      C        0.84696    0.80496    0.46690    1.000
    C48      C        0.31379    0.69379    0.30920    1.000
    N49      N        0.88322    0.49002    0.56780    1.000
    N50      N        0.70073    0.48573    0.56570    1.000
    N51      N        0.10724    0.57604    0.69340    1.000
    N52      N        0.29035    0.57735    0.87710    1.000
    N53      N        0.84468    0.71148    0.49710    1.000
    N54      N        0.64210    0.91970    0.51180    1.000
    N55      N        0.43571    0.57471    0.34720    1.000
    H56      H        0.99301    0.53528    0.03097    1.000
    H57      H        0.50400    0.71400    0.91900    1.000
    H58      H        0.47500    0.98700    0.25000    1.000
    H59      H        0.44700    0.80900    0.24000    1.000
    H60      H        0.39600    0.27200    0.24400    1.000
    H61      H        0.79100    0.00300    0.22800    1.000
    H62      H        0.79500    0.20900    0.43300    1.000
    H63      H        0.75200    0.69400    0.05400    1.000
    H64      H        0.77900    0.92500    0.94900    1.000
    H65      H        0.01400    0.69400    0.96100    1.000
    H66      H        0.76500    0.25100    0.86400    1.000
    C67      C        0.49534    0.75474    0.00020    1.000
    C68      C        0.47142    0.80462    0.18500    1.000
    C69      C        0.47559    0.91439    0.18540    1.000
    C70      C        0.49885    0.23125    0.27050    1.000
    C71      C        0.71649    0.19409    0.36840    1.000
    C72      C        0.71590    0.08290    0.25740    1.000
    C73      C        0.78688    0.71888    0.02360    1.000
    C74      C        0.93182    0.72322    0.97560    1.000
    C75      C        0.80496    0.84696    0.96690    1.000
    C76      C        0.69379    0.31379    0.80920    1.000
    N77      N        0.49002    0.88322    0.06780    1.000
    N78      N        0.48573    0.70073    0.06570    1.000
    N79      N        0.57604    0.10724    0.19340    1.000
    N80      N        0.57735    0.29035    0.37710    1.000
    N81      N        0.71148    0.84468    0.99710    1.000
    N82      N        0.91970    0.64210    0.01180    1.000
    N83      N        0.57471    0.43571    0.84720    1.000
    H84      H        0.28600    0.49600    0.58100    1.000
    H85      H        0.01300    0.52500    0.25000    1.000
    H86      H        0.19100    0.55300    0.26000    1.000
    H87      H        0.72800    0.60400    0.25600    1.000
    H88      H        0.99700    0.20900    0.27200    1.000
    H89      H        0.79100    0.20500    0.06700    1.000
    H90      H        0.30600    0.24800    0.44600    1.000
    H91      H        0.07500    0.22100    0.55100    1.000
    H92      H        0.30600    0.98600    0.53900    1.000
    H93      H        0.74900    0.23500    0.63600    1.000
    C94      C        0.24526    0.50466    0.49980    1.000
    C95      C        0.19538    0.52858    0.31500    1.000
    C96      C        0.08561    0.52441    0.31460    1.000
    C97      C        0.76875    0.50115    0.22950    1.000
    C98      C        0.80591    0.28351    0.13160    1.000
    C99      C        0.91710    0.28410    0.24260    1.000
    C100     C        0.28112    0.21312    0.47640    1.000
    C101     C        0.27678    0.06818    0.52440    1.000
    C102     C        0.15304    0.19504    0.53310    1.000
    C103     C        0.68621    0.30621    0.69080    1.000
    N104     N        0.11678    0.50998    0.43220    1.000
    N105     N        0.29927    0.51427    0.43430    1.000
    N106     N        0.89276    0.42396    0.30660    1.000
    N107     N        0.70965    0.42265    0.12290    1.000
    N108     N        0.15532    0.28852    0.50290    1.000
    N109     N        0.35790    0.08030    0.48820    1.000
    N110     N        0.56429    0.42529    0.65280    1.000
    Ga111    Ga       0.50000    0.00000    0.00000    1.000
    Ga112    Ga       0.00000    0.50000    0.50000    1.000
    Ga113    Ga       0.50000    0.50000    0.00000    1.000
    Ga114    Ga       0.50000    0.50000    0.50000    1.000
    H115     H        0.58100    0.41900    0.25000    1.000
    C116     C        0.49770    0.50230    0.25000    1.000
    H117     H        0.41900    0.58100    0.75000    1.000
    C118     C        0.50230    0.49770    0.75000    1.000
