# CIF file generated by openbabel 3.1.0, see https://openbabel.org
data_I
_chemical_name_common 'CUKYAJ_clean'
_cell_length_a 10.5621
_cell_length_b 10.5621
_cell_length_c 14.802
_cell_angle_alpha 90.5968
_cell_angle_beta 90.5968
_cell_angle_gamma 105.761
_space_group_name_H-M_alt 'P 1'
_space_group_name_Hall 'P 1'
loop_
    _symmetry_equiv_pos_as_xyz
    x,y,z
loop_
    _atom_site_label
    _atom_site_type_symbol
    _atom_site_fract_x
    _atom_site_fract_y
    _atom_site_fract_z
    _atom_site_occupancy
    Dy1      Dy       0.82357    0.42673    0.44291    1.000
    Dy2      Dy       0.57327    0.17643    0.05709    1.000
    Dy3      Dy       0.17643    0.57327    0.55709    1.000
    Dy4      Dy       0.42673    0.82357    0.94291    1.000
    H1       H        0.94700    0.35340    0.74560    1.000
    H2       H        0.93900    0.20920    0.71360    1.000
    H3       H        0.86110    0.79330    0.69990    1.000
    H4       H        0.88770    0.67530    0.75280    1.000
    H5       H        0.65640    0.80200    0.67010    1.000
    H6       H        0.53990    0.67410    0.65990    1.000
    H7       H        0.64660    0.05300    0.75440    1.000
    H8       H        0.79080    0.06100    0.78640    1.000
    H9       H        0.20670    0.13890    0.80010    1.000
    H10      H        0.32470    0.11230    0.74720    1.000
    H11      H        0.19800    0.34360    0.82990    1.000
    H12      H        0.32590    0.46010    0.84010    1.000
    H13      H        0.05300    0.64660    0.25440    1.000
    H14      H        0.06100    0.79080    0.28640    1.000
    H15      H        0.13890    0.20670    0.30010    1.000
    H16      H        0.11230    0.32470    0.24720    1.000
    H17      H        0.34360    0.19800    0.32990    1.000
    H18      H        0.46010    0.32590    0.34010    1.000
    H19      H        0.35340    0.94700    0.24560    1.000
    H20      H        0.20920    0.93900    0.21360    1.000
    H21      H        0.79330    0.86110    0.19990    1.000
    H22      H        0.67530    0.88770    0.25280    1.000
    H23      H        0.80200    0.65640    0.17010    1.000
    H24      H        0.67410    0.53990    0.15990    1.000
    C1       C        0.65500    0.51360    0.73150    1.000
    C2       C        0.89480    0.27840    0.71110    1.000
    C3       C        0.88270    0.31850    0.61140    1.000
    C4       C        0.84280    0.69820    0.70060    1.000
    C5       C        0.89800    0.65320    0.61650    1.000
    C6       C        0.61130    0.72090    0.69960    1.000
    C7       C        0.55410    0.75470    0.78600    1.000
    C8       C        0.48640    0.34500    0.76850    1.000
    C9       C        0.72160    0.10520    0.78890    1.000
    C10      C        0.68150    0.11730    0.88860    1.000
    C11      C        0.30180    0.15720    0.79940    1.000
    C12      C        0.34680    0.10200    0.88350    1.000
    C13      C        0.27910    0.38870    0.80040    1.000
    C14      C        0.24530    0.44590    0.71400    1.000
    C15      C        0.34500    0.48640    0.26850    1.000
    C16      C        0.10520    0.72160    0.28890    1.000
    C17      C        0.11730    0.68150    0.38860    1.000
    C18      C        0.15720    0.30180    0.29940    1.000
    C19      C        0.10200    0.34680    0.38350    1.000
    C20      C        0.38870    0.27910    0.30040    1.000
    C21      C        0.44590    0.24530    0.21400    1.000
    C22      C        0.51360    0.65500    0.23150    1.000
    C23      C        0.27840    0.89480    0.21110    1.000
    C24      C        0.31850    0.88270    0.11140    1.000
    C25      C        0.69820    0.84280    0.20060    1.000
    C26      C        0.65320    0.89800    0.11650    1.000
    C27      C        0.72090    0.61130    0.19960    1.000
    C28      C        0.75470    0.55410    0.28600    1.000
    C29      C        0.68730    0.31270    0.75000    1.000
    C30      C        0.31270    0.68730    0.25000    1.000
    N1       N        0.74200    0.44040    0.73080    1.000
    N2       N        0.70210    0.64190    0.71050    1.000
    N3       N        0.55960    0.25800    0.76920    1.000
    N4       N        0.35810    0.29790    0.78950    1.000
    N5       N        0.25800    0.55960    0.26920    1.000
    N6       N        0.29790    0.35810    0.28950    1.000
    N7       N        0.44040    0.74200    0.23080    1.000
    N8       N        0.64190    0.70210    0.21050    1.000
    N9       N        0.52750    0.47250    0.75000    1.000
    N10      N        0.76690    0.23310    0.75000    1.000
    N11      N        0.47250    0.52750    0.25000    1.000
    N12      N        0.23310    0.76690    0.25000    1.000
    O1       O        0.97530    0.40910    0.58010    1.000
    O2       O        0.78790    0.26050    0.56510    1.000
    O3       O        0.02350    0.68210    0.61510    1.000
    O4       O        0.82360    0.59420    0.55430    1.000
    O5       O        0.45150    0.79530    0.77920    1.000
    O6       O        0.60400    0.74940    0.86070    1.000
    O7       O        0.59090    0.02470    0.91990    1.000
    O8       O        0.73950    0.21210    0.93490    1.000
    O9       O        0.31790    0.97650    0.88490    1.000
    O10      O        0.40580    0.17640    0.94570    1.000
    O11      O        0.20470    0.54850    0.72080    1.000
    O12      O        0.25060    0.39600    0.63930    1.000
    O13      O        0.02470    0.59090    0.41990    1.000
    O14      O        0.21210    0.73950    0.43490    1.000
    O15      O        0.97650    0.31790    0.38490    1.000
    O16      O        0.17640    0.40580    0.44570    1.000
    O17      O        0.54850    0.20470    0.22080    1.000
    O18      O        0.39600    0.25060    0.13930    1.000
    O19      O        0.40910    0.97530    0.08010    1.000
    O20      O        0.26050    0.78790    0.06510    1.000
    O21      O        0.68210    0.02350    0.11510    1.000
    O22      O        0.59420    0.82360    0.05430    1.000
    O23      O        0.79530    0.45150    0.27920    1.000
    O24      O        0.74940    0.60400    0.36070    1.000
