# CIF file generated by openbabel 3.1.0, see https://openbabel.org
data_I
_chemical_name_common 'image0'
_cell_length_a 10.9464
_cell_length_b 15.9076
_cell_length_c 16.1604
_cell_angle_alpha 89.592
_cell_angle_beta 89.682
_cell_angle_gamma 86.288
_space_group_name_H-M_alt 'P 1'
_space_group_name_Hall 'P 1'
loop_
    _symmetry_equiv_pos_as_xyz
    x,y,z
loop_
    _atom_site_label
    _atom_site_type_symbol
    _atom_site_fract_x
    _atom_site_fract_y
    _atom_site_fract_z
    _atom_site_occupancy
    Fe1      Fe       0.97332    0.27936    0.24760    1.000
    N1       N        0.01030    0.20069    0.14052    1.000
    N2       N        0.98830    0.02749    0.02612    1.000
    N3       N        0.93940    0.35747    0.35440    1.000
    N4       N        0.96710    0.48743    0.52769    1.000
    N5       N        0.95330    0.16981    0.32284    1.000
    N6       N        0.99950    0.03318    0.48014    1.000
    N7       N        0.99930    0.38767    0.17369    1.000
    N8       N        0.04230    0.52230    0.00743    1.000
    N9       N        0.16700    0.27182    0.27730    1.000
    N10      N        0.48830    0.26432    0.28773    1.000
    N11      N        0.77960    0.28212    0.22095    1.000
    N12      N        0.45990    0.26284    0.21458    1.000
    C1       C        0.03620    0.15610    0.08690    1.000
    C2       C        0.06710    0.10030    0.01420    1.000
    C3       C        0.20380    0.07360    0.01380    1.000
    H1       H        0.22630    0.04710    0.06760    1.000
    H2       H        0.22110    0.03120    0.97000    1.000
    C4       C        0.28110    0.14750    0.99870    1.000
    H3       H        0.36840    0.12720    0.99590    1.000
    H4       H        0.27080    0.18700    0.04560    1.000
    C5       C        0.24600    0.19390    0.91870    1.000
    H5       H        0.29470    0.24390    0.91270    1.000
    H6       H        0.26500    0.15640    0.87110    1.000
    C6       C        0.11100    0.22140    0.91860    1.000
    H7       H        0.08950    0.24750    0.86440    1.000
    H8       H        0.09470    0.26460    0.96170    1.000
    C7       C        0.03040    0.14870    0.93460    1.000
    H9       H        0.03700    0.10970    0.88710    1.000
    H10      H        0.94400    0.17080    0.93920    1.000
    C8       C        0.92270    0.38692    0.41810    1.000
    C9       C        0.89840    0.41333    0.50472    1.000
    C10      C        0.94110    0.33930    0.56207    1.000
    H11      H        0.02700    0.32100    0.54860    1.000
    H12      H        0.93820    0.35860    0.62020    1.000
    C11      C        0.86130    0.26490    0.55310    1.000
    H13      H        0.87210    0.24120    0.49690    1.000
    H14      H        0.88770    0.22040    0.59350    1.000
    C12      C        0.72740    0.29100    0.56740    1.000
    H15      H        0.71510    0.30860    0.62560    1.000
    H16      H        0.67780    0.24220    0.55770    1.000
    C13      C        0.68410    0.36290    0.51050    1.000
    H17      H        0.59820    0.38080    0.52430    1.000
    H18      H        0.68630    0.34280    0.45260    1.000
    C14      C        0.76230    0.43830    0.51720    1.000
    H19      H        0.74980    0.46410    0.57240    1.000
    H20      H        0.73560    0.48100    0.47510    1.000
    C15      C        0.94280    0.10890    0.35874    1.000
    C16      C        0.91810    0.03100    0.40578    1.000
    C17      C        0.94580    0.95300    0.35290    1.000
    H21      H        0.93680    0.90190    0.38720    1.000
    H22      H        0.03160    0.95200    0.33310    1.000
    C18      C        0.86010    0.95170    0.27880    1.000
    H23      H        0.87620    0.99900    0.24100    1.000
    H24      H        0.87670    0.89850    0.24810    1.000
    C19      C        0.72720    0.95910    0.30570    1.000
    H25      H        0.70860    0.90810    0.33760    1.000
    H26      H        0.67440    0.96220    0.25610    1.000
    C20      C        0.69850    0.03690    0.35870    1.000
    H27      H        0.70660    0.08810    0.32450    1.000
    H28      H        0.61270    0.03720    0.37850    1.000
    C21      C        0.78340    0.03910    0.43270    1.000
    H29      H        0.76690    0.99240    0.47110    1.000
    H30      H        0.76680    0.09270    0.46260    1.000
    C22      C        0.03640    0.44210    0.13684    1.000
    C23      C        0.09460    0.51032    0.09147    1.000
    C24      C        0.23170    0.48620    0.08380    1.000
    H31      H        0.24350    0.42890    0.06050    1.000
    H32      H        0.26910    0.52570    0.04500    1.000
    C25      C        0.29600    0.48840    0.16680    1.000
    H33      H        0.26740    0.44300    0.20280    1.000
    H34      H        0.38520    0.47750    0.15810    1.000
    C26      C        0.27230    0.57230    0.20980    1.000
    H35      H        0.30970    0.61690    0.17720    1.000
    H36      H        0.31120    0.56960    0.26500    1.000
    C27      C        0.13600    0.59440    0.21970    1.000
    H37      H        0.12330    0.65090    0.24480    1.000
    H38      H        0.10050    0.55310    0.25750    1.000
    C28      C        0.07050    0.59405    0.13666    1.000
    H39      H        0.09850    0.64030    0.10150    1.000
    H40      H        0.98130    0.60450    0.14590    1.000
    C29      C        0.26370    0.26483    0.30367    1.000
    C30      C        0.38380    0.25949    0.34614    1.000
    C31      C        0.40420    0.17510    0.39200    1.000
    H41      H        0.39430    0.12870    0.35270    1.000
    H42      H        0.48920    0.16960    0.41300    1.000
    C32      C        0.31630    0.16660    0.46380    1.000
    H43      H        0.33780    0.11330    0.49390    1.000
    H44      H        0.23220    0.16390    0.44220    1.000
    C33      C        0.31950    0.23990    0.52340    1.000
    H45      H        0.25670    0.23430    0.56700    1.000
    H46      H        0.40060    0.23850    0.55040    1.000
    C34      C        0.29580    0.32320    0.47880    1.000
    H47      H        0.30340    0.36970    0.51850    1.000
    H48      H        0.21100    0.32720    0.45750    1.000
    C35      C        0.38500    0.33360    0.40682    1.000
    H49      H        0.46880    0.33710    0.42880    1.000
    H50      H        0.36240    0.38690    0.37700    1.000
    C36      C        0.68300    0.27394    0.19701    1.000
    C37      C        0.56530    0.25946    0.15616    1.000
    C38      C        0.57430    0.17020    0.11990    1.000
    H51      H        0.60210    0.12950    0.16360    1.000
    H52      H        0.49210    0.15570    0.10180    1.000
    C39      C        0.66270    0.16220    0.04670    1.000
    H53      H        0.74720    0.16770    0.06660    1.000
    H54      H        0.65910    0.10560    0.02210    1.000
    C40      C        0.63260    0.22890    0.98070    1.000
    H55      H        0.69500    0.22390    0.93620    1.000
    H56      H        0.55210    0.21930    0.95610    1.000
    C41      C        0.62920    0.31660    0.01670    1.000
    H57      H        0.60550    0.35830    0.97300    1.000
    H58      H        0.71200    0.32820    0.03610    1.000
    C42      C        0.53920    0.32660    0.08850    1.000
    H59      H        0.45500    0.32220    0.06760    1.000
    H60      H        0.54390    0.38330    0.11270    1.000
    Fe2      Fe       0.02668    0.72064    0.75240    1.000
    N13      N        0.98970    0.79931    0.85948    1.000
    N14      N        0.01170    0.97251    0.97388    1.000
    N15      N        0.06060    0.64253    0.64560    1.000
    N16      N        0.03290    0.51257    0.47231    1.000
    N17      N        0.04670    0.83019    0.67716    1.000
    N18      N        0.00050    0.96682    0.51986    1.000
    N19      N        0.00070    0.61233    0.82631    1.000
    N20      N        0.95770    0.47770    0.99257    1.000
    N21      N        0.83300    0.72818    0.72270    1.000
    N22      N        0.51170    0.73568    0.71227    1.000
    N23      N        0.22040    0.71788    0.77905    1.000
    N24      N        0.54010    0.73716    0.78542    1.000
    C43      C        0.96380    0.84390    0.91310    1.000
    C44      C        0.93290    0.89970    0.98580    1.000
    C45      C        0.79620    0.92640    0.98620    1.000
    H61      H        0.77370    0.95290    0.93240    1.000
    H62      H        0.77890    0.96880    0.03000    1.000
    C46      C        0.71890    0.85250    0.00130    1.000
    H63      H        0.63160    0.87280    0.00410    1.000
    H64      H        0.72920    0.81300    0.95440    1.000
    C47      C        0.75400    0.80610    0.08130    1.000
    H65      H        0.70530    0.75610    0.08730    1.000
    H66      H        0.73500    0.84360    0.12890    1.000
    C48      C        0.88900    0.77860    0.08140    1.000
    H67      H        0.91050    0.75250    0.13560    1.000
    H68      H        0.90530    0.73540    0.03830    1.000
    C49      C        0.96960    0.85130    0.06540    1.000
    H69      H        0.96300    0.89030    0.11290    1.000
    H70      H        0.05600    0.82920    0.06080    1.000
    C50      C        0.07730    0.61308    0.58190    1.000
    C51      C        0.10160    0.58667    0.49528    1.000
    C52      C        0.05890    0.66070    0.43793    1.000
    H71      H        0.97300    0.67900    0.45140    1.000
    H72      H        0.06180    0.64140    0.37980    1.000
    C53      C        0.13870    0.73510    0.44690    1.000
    H73      H        0.12790    0.75880    0.50310    1.000
    H74      H        0.11230    0.77960    0.40650    1.000
    C54      C        0.27260    0.70900    0.43260    1.000
    H75      H        0.28490    0.69140    0.37440    1.000
    H76      H        0.32220    0.75780    0.44230    1.000
    C55      C        0.31590    0.63710    0.48950    1.000
    H77      H        0.40180    0.61920    0.47570    1.000
    H78      H        0.31370    0.65720    0.54740    1.000
    C56      C        0.23770    0.56170    0.48280    1.000
    H79      H        0.25020    0.53590    0.42760    1.000
    H80      H        0.26440    0.51900    0.52490    1.000
    C57      C        0.05720    0.89110    0.64126    1.000
    C58      C        0.08190    0.96900    0.59422    1.000
    C59      C        0.05420    0.04700    0.64710    1.000
    H81      H        0.06320    0.09810    0.61280    1.000
    H82      H        0.96840    0.04800    0.66690    1.000
    C60      C        0.13990    0.04830    0.72120    1.000
    H83      H        0.12380    0.00100    0.75900    1.000
    H84      H        0.12330    0.10150    0.75190    1.000
    C61      C        0.27280    0.04090    0.69430    1.000
    H85      H        0.29140    0.09190    0.66240    1.000
    H86      H        0.32560    0.03780    0.74390    1.000
    C62      C        0.30150    0.96310    0.64130    1.000
    H87      H        0.29340    0.91190    0.67550    1.000
    H88      H        0.38730    0.96280    0.62150    1.000
    C63      C        0.21660    0.96090    0.56730    1.000
    H89      H        0.23310    0.00760    0.52890    1.000
    H90      H        0.23320    0.90730    0.53740    1.000
    C64      C        0.96360    0.55790    0.86316    1.000
    C65      C        0.90540    0.48968    0.90853    1.000
    C66      C        0.76830    0.51380    0.91620    1.000
    H91      H        0.75650    0.57110    0.93950    1.000
    H92      H        0.73090    0.47430    0.95500    1.000
    C67      C        0.70400    0.51160    0.83320    1.000
    H93      H        0.73260    0.55700    0.79720    1.000
    H94      H        0.61480    0.52250    0.84190    1.000
    C68      C        0.72770    0.42770    0.79020    1.000
    H95      H        0.69030    0.38310    0.82280    1.000
    H96      H        0.68880    0.43040    0.73500    1.000
    C69      C        0.86400    0.40560    0.78030    1.000
    H97      H        0.87670    0.34910    0.75520    1.000
    H98      H        0.89950    0.44690    0.74250    1.000
    C70      C        0.92950    0.40595    0.86334    1.000
    H99      H        0.90150    0.35970    0.89850    1.000
    H100     H        0.01870    0.39550    0.85410    1.000
    C71      C        0.73630    0.73517    0.69633    1.000
    C72      C        0.61620    0.74051    0.65386    1.000
    C73      C        0.59580    0.82490    0.60800    1.000
    H101     H        0.60570    0.87130    0.64730    1.000
    H102     H        0.51080    0.83040    0.58700    1.000
    C74      C        0.68370    0.83340    0.53620    1.000
    H103     H        0.66220    0.88670    0.50610    1.000
    H104     H        0.76780    0.83610    0.55780    1.000
    C75      C        0.68050    0.76010    0.47660    1.000
    H105     H        0.74330    0.76570    0.43300    1.000
    H106     H        0.59940    0.76150    0.44960    1.000
    C76      C        0.70420    0.67680    0.52120    1.000
    H107     H        0.69660    0.63030    0.48150    1.000
    H108     H        0.78900    0.67280    0.54250    1.000
    C77      C        0.61500    0.66640    0.59318    1.000
    H109     H        0.53120    0.66290    0.57120    1.000
    H110     H        0.63760    0.61310    0.62300    1.000
    C78      C        0.31700    0.72606    0.80299    1.000
    C79      C        0.43470    0.74054    0.84384    1.000
    C80      C        0.42570    0.82980    0.88010    1.000
    H111     H        0.39790    0.87050    0.83640    1.000
    H112     H        0.50790    0.84430    0.89820    1.000
    C81      C        0.33730    0.83780    0.95330    1.000
    H113     H        0.25280    0.83230    0.93340    1.000
    H114     H        0.34090    0.89440    0.97790    1.000
    C82      C        0.36740    0.77110    0.01930    1.000
    H115     H        0.30500    0.77610    0.06380    1.000
    H116     H        0.44790    0.78070    0.04390    1.000
    C83      C        0.37080    0.68340    0.98330    1.000
    H117     H        0.39450    0.64170    0.02700    1.000
    H118     H        0.28800    0.67180    0.96390    1.000
    C84      C        0.46080    0.67340    0.91150    1.000
    H119     H        0.54500    0.67780    0.93240    1.000
    H120     H        0.45610    0.61670    0.88730    1.000
