data_functionalizedCrystal
_audit_creation_method	'EQeq! by Chris Wilmer'
_symmetry_space_group_name_H-M	'P1'
_symmetry_Int_Tables_number	1
_symmetry_cell_setting	triclinic
loop_
_symmetry_equiv_pos_as_xyz
  x,y,z
_cell_length_a	23.432
_cell_length_b	9.5422
_cell_length_c	18.9958
_cell_angle_alpha	90
_cell_angle_beta	125.964
_cell_angle_gamma	90
loop_
_atom_site_label
_atom_site_type_symbol
_atom_site_fract_x
_atom_site_fract_y
_atom_site_fract_z
_atom_site_charge
Mof_O 	O 	0.07198	0.1441	0.83648	-0.422
Mof_O 	O 	0.1306	0.9463	0.89567	-0.307
Mof_O 	O 	0.03949	0.0546	0.18887	-0.461
Mof_O 	O 	0.03398	0.2856	0.19674	-0.293
Mof_C 	C 	0.12665	0.0747	0.89212	0.314
Mof_C 	C 	0.19129	0.162	0.95296	-0.08
Mof_C 	C 	0.23597	0.1812	0.92862	-0.009
Mof_H 	H 	0.2261	0.1339	0.8798	0.046
Mof_C 	C 	0.20485	0.232	0.02628	0.038
Mof_C 	C 	0.16072	0.2176	0.05839	0.074
Mof_C 	C 	0.14871	0.3335	0.09254	-0.127
Mof_H 	H 	0.1658	0.4208	0.0913	0.083
Mof_C 	C 	0.11184	0.3207	0.12817	0.055
Mof_H 	H 	0.104	0.3997	0.1501	0.028
Mof_C 	C 	0.08644	0.1921	0.13177	-0.125
Mof_C 	C 	0.04966	0.1787	0.17551	0.365
Mof_C 	C 	0.09681	0.0774	0.09605	0.064
Mof_H 	H 	0.0789	0.9906	0.0964	0.017
Mof_C 	C 	0.13336	0.0892	0.0598	-0.134
Mof_H 	H 	0.1397	0.0106	0.0362	0.096
Mof_O 	O 	0.57198	0.6441	0.83648	-0.392
Mof_O 	O 	0.6306	0.4463	0.89567	-0.294
Mof_O 	O 	0.53949	0.5546	0.18887	-0.434
Mof_O 	O 	0.53398	0.7856	0.19674	-0.258
Mof_C 	C 	0.62665	0.5747	0.89212	0.312
Mof_C 	C 	0.69129	0.662	0.95296	-0.069
Mof_C 	C 	0.73597	0.6812	0.92862	-0.011
Mof_H 	H 	0.7261	0.6339	0.8798	0.051
Mof_C 	C 	0.70485	0.732	0.02628	0.039
Mof_C 	C 	0.66072	0.7176	0.05839	0.072
Mof_C 	C 	0.64871	0.8335	0.09254	-0.113
Mof_H 	H 	0.6658	0.9208	0.0913	0.085
Mof_C 	C 	0.61184	0.8207	0.12817	0.048
Mof_H 	H 	0.604	0.8997	0.1501	0.042
Mof_C 	C 	0.58644	0.6921	0.13177	-0.102
Mof_C 	C 	0.54966	0.6787	0.17551	0.36
Mof_C 	C 	0.59681	0.5774	0.09605	0.052
Mof_H 	H 	0.5789	0.4906	0.0964	0.04
Mof_C 	C 	0.63336	0.5892	0.0598	-0.116
Mof_H 	H 	0.6397	0.5106	0.0362	0.098
Mof_O 	O 	0.92802	0.1441	0.66352	-0.35
Mof_O 	O 	0.8694	0.9463	0.60433	-0.269
Mof_O 	O 	0.96051	0.0546	0.31113	-0.395
Mof_O 	O 	0.96602	0.2856	0.30326	-0.22
Mof_C 	C 	0.87335	0.0747	0.60788	0.298
Mof_C 	C 	0.80871	0.162	0.54704	-0.04
Mof_C 	C 	0.76403	0.1812	0.57138	-0.032
Mof_H 	H 	0.7739	0.1339	0.6202	0.059
Mof_C 	C 	0.79515	0.232	0.47372	0.016
Mof_C 	C 	0.83928	0.2176	0.44161	0.081
Mof_C 	C 	0.85129	0.3335	0.40746	-0.109
Mof_H 	H 	0.8342	0.4208	0.4087	0.09
Mof_C 	C 	0.88816	0.3207	0.37183	0.048
Mof_H 	H 	0.896	0.3997	0.3499	0.052
Mof_C 	C 	0.91356	0.1921	0.36823	-0.087
Mof_C 	C 	0.95034	0.1787	0.32449	0.355
Mof_C 	C 	0.90319	0.0774	0.40395	0.055
Mof_H 	H 	0.9211	0.9906	0.4036	0.052
Mof_C 	C 	0.86664	0.0892	0.4402	-0.113
Mof_H 	H 	0.8603	0.0106	0.4638	0.101
Mof_O 	O 	0.42802	0.6441	0.66352	-0.389
Mof_O 	O 	0.3694	0.4463	0.60433	-0.291
Mof_O 	O 	0.46051	0.5546	0.31113	-0.436
Mof_O 	O 	0.46602	0.7856	0.30326	-0.259
Mof_C 	C 	0.37335	0.5747	0.60788	0.306
Mof_C 	C 	0.30871	0.662	0.54704	-0.048
Mof_C 	C 	0.26403	0.6812	0.57138	-0.03
Mof_H 	H 	0.2739	0.6339	0.6202	0.055
Mof_C 	C 	0.29515	0.732	0.47372	0.011
Mof_C 	C 	0.33928	0.7176	0.44161	0.08
Mof_C 	C 	0.35129	0.8335	0.40746	-0.122
Mof_H 	H 	0.3342	0.9208	0.4087	0.087
Mof_C 	C 	0.38816	0.8207	0.37183	0.052
Mof_H 	H 	0.396	0.8997	0.3499	0.039
Mof_C 	C 	0.41356	0.6921	0.36823	-0.107
Mof_C 	C 	0.45034	0.6787	0.32449	0.36
Mof_C 	C 	0.40319	0.5774	0.40395	0.055
Mof_H 	H 	0.4211	0.4906	0.4036	0.036
Mof_C 	C 	0.36664	0.5892	0.4402	-0.126
Mof_H 	H 	0.3603	0.5106	0.4638	0.096
Mof_O 	O 	0.92802	0.8559	0.16352	-0.345
Mof_O 	O 	0.8694	0.0537	0.10433	-0.261
Mof_O 	O 	0.96051	0.9454	0.81113	-0.398
Mof_O 	O 	0.96602	0.7144	0.80326	-0.223
Mof_C 	C 	0.87335	0.9253	0.10788	0.287
Mof_C 	C 	0.80871	0.838	0.04704	-0.016
Mof_C 	C 	0.76403	0.8188	0.07138	-0.05
Mof_H 	H 	0.7739	0.8661	0.1202	0.066
Mof_C 	C 	0.79515	0.768	0.97372	-0.009
Mof_C 	C 	0.83928	0.7824	0.94161	0.09
Mof_C 	C 	0.85129	0.6665	0.90746	-0.119
Mof_H 	H 	0.8342	0.5792	0.9087	0.092
Mof_C 	C 	0.88816	0.6793	0.87183	0.054
Mof_H 	H 	0.896	0.6003	0.8499	0.048
Mof_C 	C 	0.91356	0.8079	0.86823	-0.094
Mof_C 	C 	0.95034	0.8213	0.82449	0.356
Mof_C 	C 	0.90319	0.9226	0.90395	0.063
Mof_H 	H 	0.9211	0.0094	0.9036	0.045
Mof_C 	C 	0.86664	0.9108	0.9402	-0.124
Mof_H 	H 	0.8603	0.9894	0.9638	0.102
Mof_O 	O 	0.42802	0.3559	0.16352	-0.385
Mof_O 	O 	0.3694	0.5537	0.10433	-0.286
Mof_O 	O 	0.46051	0.4454	0.81113	-0.438
Mof_O 	O 	0.46602	0.2144	0.80326	-0.262
Mof_C 	C 	0.37335	0.4253	0.10788	0.298
Mof_C 	C 	0.30871	0.338	0.04704	-0.019
Mof_C 	C 	0.26403	0.3188	0.07138	-0.051
Mof_H 	H 	0.2739	0.3661	0.1202	0.063
Mof_C 	C 	0.29515	0.268	0.97372	-0.017
Mof_C 	C 	0.33928	0.2824	0.94161	0.09
Mof_C 	C 	0.35129	0.1665	0.90746	-0.132
Mof_H 	H 	0.3342	0.0792	0.9087	0.088
Mof_C 	C 	0.38816	0.1793	0.87183	0.058
Mof_H 	H 	0.396	0.1003	0.8499	0.035
Mof_C 	C 	0.41356	0.3079	0.86823	-0.114
Mof_C 	C 	0.45034	0.3213	0.82449	0.362
Mof_C 	C 	0.40319	0.4226	0.90395	0.061
Mof_H 	H 	0.4211	0.5094	0.9036	0.032
Mof_C 	C 	0.36664	0.4108	0.9402	-0.136
Mof_H 	H 	0.3603	0.4894	0.9638	0.096
Mof_O 	O 	0.07198	0.8559	0.33648	-0.419
Mof_O 	O 	0.1306	0.0537	0.39567	-0.305
Mof_O 	O 	0.03949	0.9454	0.68887	-0.463
Mof_O 	O 	0.03398	0.7144	0.69674	-0.295
Mof_C 	C 	0.12665	0.9253	0.39212	0.31
Mof_C 	C 	0.19129	0.838	0.45296	-0.052
Mof_C 	C 	0.23597	0.8188	0.42862	-0.029
Mof_H 	H 	0.2261	0.8661	0.3798	0.054
Mof_C 	C 	0.20485	0.768	0.52628	0.009
Mof_C 	C 	0.16072	0.7824	0.55839	0.083
Mof_C 	C 	0.14871	0.6665	0.59254	-0.136
Mof_H 	H 	0.1658	0.5792	0.5913	0.085
Mof_C 	C 	0.11184	0.6793	0.62817	0.059
Mof_H 	H 	0.104	0.6003	0.6501	0.025
Mof_C 	C 	0.08644	0.8079	0.63177	-0.129
Mof_C 	C 	0.04966	0.8213	0.67551	0.365
Mof_C 	C 	0.09681	0.9226	0.59605	0.064
Mof_H 	H 	0.0789	0.0094	0.5964	0.016
Mof_C 	C 	0.13336	0.9108	0.5598	-0.142
Mof_H 	H 	0.1397	0.9894	0.5362	0.094
Mof_O 	O 	0.57198	0.3559	0.33648	-0.389
Mof_O 	O 	0.6306	0.5537	0.39567	-0.288
Mof_O 	O 	0.53949	0.4454	0.68887	-0.436
Mof_O 	O 	0.53398	0.2144	0.69674	-0.26
Mof_C 	C 	0.62665	0.4253	0.39212	0.305
Mof_C 	C 	0.69129	0.338	0.45296	-0.045
Mof_C 	C 	0.73597	0.3188	0.42862	-0.029
Mof_H 	H 	0.7261	0.3661	0.3798	0.058
Mof_C 	C 	0.70485	0.268	0.52628	0.015
Mof_C 	C 	0.66072	0.2824	0.55839	0.081
Mof_C 	C 	0.64871	0.1665	0.59254	-0.121
Mof_H 	H 	0.6658	0.0792	0.5913	0.087
Mof_C 	C 	0.61184	0.1793	0.62817	0.053
Mof_H 	H 	0.604	0.1003	0.6501	0.039
Mof_C 	C 	0.58644	0.3079	0.63177	-0.107
Mof_C 	C 	0.54966	0.3213	0.67551	0.361
Mof_C 	C 	0.59681	0.4226	0.59605	0.056
Mof_H 	H 	0.5789	0.5094	0.5964	0.036
Mof_C 	C 	0.63336	0.4108	0.5598	-0.125
Mof_H 	H 	0.6397	0.4894	0.5362	0.097
Mof_Zn	Zn	3.61846e-33	0.0062	0.75	1.215
Mof_Zn	Zn	0.5	0.5062	0.75	1.243
Mof_Zn	Zn	1.65352e-17	0.9938	0.25	1.216
Mof_Zn	Zn	0.5	0.4938	0.25	1.244
_end
