# CIF file generated by openbabel 3.1.0, see https://openbabel.org
data_I
_chemical_name_common 'MABJUV_clean'
_cell_length_a 8.5699
_cell_length_b 12.5347
_cell_length_c 12.5347
_cell_angle_alpha 116.789
_cell_angle_beta 99.3584
_cell_angle_gamma 80.6416
_space_group_name_H-M_alt 'P 1'
_space_group_name_Hall 'P 1'
loop_
    _symmetry_equiv_pos_as_xyz
    x,y,z
loop_
    _atom_site_label
    _atom_site_type_symbol
    _atom_site_fract_x
    _atom_site_fract_y
    _atom_site_fract_z
    _atom_site_occupancy
    Cu1      Cu       0.92432    0.59674    0.99238    1.000
    Cu2      Cu       0.57568    0.99238    0.59674    1.000
    Cu3      Cu       0.07568    0.40326    0.00762    1.000
    Cu4      Cu       0.42432    0.00762    0.40326    1.000
    H1       H        0.74780    0.26660    0.65500    1.000
    H2       H        0.80490    0.35560    0.61320    1.000
    H3       H        0.04760    0.23650    0.56730    1.000
    H4       H        0.00300    0.15110    0.61950    1.000
    H5       H        0.95880    0.05670    0.40790    1.000
    H6       H        0.84390    0.17090    0.40790    1.000
    H7       H        0.82360    0.85770    0.16310    1.000
    H8       H        0.64790    0.02150    0.17270    1.000
    H9       H        0.50440    0.83390    0.82390    1.000
    H10      H        0.68250    0.67500    0.82500    1.000
    H11      H        0.75220    0.65500    0.26660    1.000
    H12      H        0.69510    0.61320    0.35560    1.000
    H13      H        0.45240    0.56730    0.23650    1.000
    H14      H        0.49700    0.61950    0.15110    1.000
    H15      H        0.54120    0.40790    0.05670    1.000
    H16      H        0.65610    0.40790    0.17090    1.000
    H17      H        0.67640    0.16310    0.85770    1.000
    H18      H        0.85210    0.17270    0.02150    1.000
    H19      H        0.99560    0.82390    0.83390    1.000
    H20      H        0.81750    0.82500    0.67500    1.000
    H21      H        0.25220    0.73340    0.34500    1.000
    H22      H        0.19510    0.64440    0.38680    1.000
    H23      H        0.95240    0.76350    0.43270    1.000
    H24      H        0.99700    0.84890    0.38050    1.000
    H25      H        0.04120    0.94330    0.59210    1.000
    H26      H        0.15610    0.82910    0.59210    1.000
    H27      H        0.17640    0.14230    0.83690    1.000
    H28      H        0.35210    0.97850    0.82730    1.000
    H29      H        0.49560    0.16610    0.17610    1.000
    H30      H        0.31750    0.32500    0.17500    1.000
    H31      H        0.24780    0.34500    0.73340    1.000
    H32      H        0.30490    0.38680    0.64440    1.000
    H33      H        0.54760    0.43270    0.76350    1.000
    H34      H        0.50300    0.38050    0.84890    1.000
    H35      H        0.45880    0.59210    0.94330    1.000
    H36      H        0.34390    0.59210    0.82910    1.000
    H37      H        0.32360    0.83690    0.14230    1.000
    H38      H        0.14790    0.82730    0.97850    1.000
    H39      H        0.00440    0.17610    0.16610    1.000
    H40      H        0.18250    0.17500    0.32500    1.000
    C1       C        0.90590    0.37754    0.78046    1.000
    C2       C        0.84170    0.30218    0.65302    1.000
    C3       C        0.95860    0.20142    0.57718    1.000
    C4       C        0.87960    0.12217    0.45303    1.000
    C5       C        0.73860    0.06839    0.46121    1.000
    C6       C        0.75810    0.85267    0.09253    1.000
    C7       C        0.65310    0.95100    0.09880    1.000
    C8       C        0.55600    0.94742    0.99858    1.000
    C9       C        0.56900    0.84192    0.89568    1.000
    C10      C        0.67670    0.74732    0.89708    1.000
    C11      C        0.59410    0.78046    0.37754    1.000
    C12      C        0.65830    0.65302    0.30218    1.000
    C13      C        0.54140    0.57718    0.20142    1.000
    C14      C        0.62040    0.45303    0.12217    1.000
    C15      C        0.76140    0.46121    0.06839    1.000
    C16      C        0.74190    0.09253    0.85267    1.000
    C17      C        0.84690    0.09880    0.95100    1.000
    C18      C        0.94400    0.99858    0.94742    1.000
    C19      C        0.93100    0.89568    0.84192    1.000
    C20      C        0.82330    0.89708    0.74732    1.000
    C21      C        0.09410    0.62246    0.21954    1.000
    C22      C        0.15830    0.69782    0.34698    1.000
    C23      C        0.04140    0.79858    0.42282    1.000
    C24      C        0.12040    0.87783    0.54697    1.000
    C25      C        0.26140    0.93161    0.53879    1.000
    C26      C        0.24190    0.14733    0.90747    1.000
    C27      C        0.34690    0.04900    0.90120    1.000
    C28      C        0.44400    0.05258    0.00142    1.000
    C29      C        0.43100    0.15808    0.10432    1.000
    C30      C        0.32330    0.25268    0.10292    1.000
    C31      C        0.40590    0.21954    0.62246    1.000
    C32      C        0.34170    0.34698    0.69782    1.000
    C33      C        0.45860    0.42282    0.79858    1.000
    C34      C        0.37960    0.54697    0.87783    1.000
    C35      C        0.23860    0.53879    0.93161    1.000
    C36      C        0.25810    0.90747    0.14733    1.000
    C37      C        0.15310    0.90120    0.04900    1.000
    C38      C        0.05600    0.00142    0.05258    1.000
    C39      C        0.06900    0.10432    0.15808    1.000
    C40      C        0.17670    0.10292    0.25268    1.000
    N1       N        0.77170    0.75188    0.99272    1.000
    N2       N        0.72830    0.99272    0.75188    1.000
    N3       N        0.22830    0.24812    0.00728    1.000
    N4       N        0.27170    0.00728    0.24812    1.000
    O1       O        0.86540    0.48839    0.82307    1.000
    O2       O        0.99090    0.32427    0.83695    1.000
    O3       O        0.74880    0.03838    0.54504    1.000
    O4       O        0.61990    0.05870    0.38474    1.000
    O5       O        0.63460    0.82307    0.48839    1.000
    O6       O        0.50910    0.83695    0.32427    1.000
    O7       O        0.75120    0.54504    0.03838    1.000
    O8       O        0.88010    0.38474    0.05870    1.000
    O9       O        0.13460    0.51161    0.17693    1.000
    O10      O        0.00910    0.67573    0.16305    1.000
    O11      O        0.25120    0.96162    0.45496    1.000
    O12      O        0.38010    0.94130    0.61526    1.000
    O13      O        0.36540    0.17693    0.51161    1.000
    O14      O        0.49090    0.16305    0.67573    1.000
    O15      O        0.24880    0.45496    0.96162    1.000
    O16      O        0.11990    0.61526    0.94130    1.000
