data_functionalizedCrystal
_audit_creation_method	'EQeq! by Chris Wilmer'
_symmetry_space_group_name_H-M	'P1'
_symmetry_Int_Tables_number	1
_symmetry_cell_setting	triclinic
loop_
_symmetry_equiv_pos_as_xyz
  x,y,z
_cell_length_a	9.1664
_cell_length_b	9.1664
_cell_length_c	14.969
_cell_angle_alpha	79.9664
_cell_angle_beta	79.9667
_cell_angle_gamma	115.529
loop_
_atom_site_label
_atom_site_type_symbol
_atom_site_fract_x
_atom_site_fract_y
_atom_site_fract_z
_atom_site_charge
Mof_La	La	0.25916	0.50916	0.48168	2.035
Mof_La	La	0.49084	0.74084	0.01832	2.032
Mof_La	La	0.74084	0.49084	0.51832	2.035
Mof_La	La	0.50916	0.25916	0.98168	2.032
Mof_H 	H 	0.308	0.868	0.57	0.049
Mof_H 	H 	0.122	0.062	0.57	0.049
Mof_H 	H 	0.132	0.692	0.93	0.05
Mof_H 	H 	0.938	0.878	0.93	0.05
Mof_H 	H 	0.692	0.132	0.43	0.049
Mof_H 	H 	0.878	0.938	0.43	0.049
Mof_H 	H 	0.868	0.308	0.07	0.05
Mof_H 	H 	0.062	0.122	0.07	0.05
Mof_C 	C 	0.05917	0.75137	0.55826	0.39
Mof_C 	C 	0.21284	0.89444	0.56432	-0.132
Mof_C 	C 	0.38257	0.19037	0.55826	0.392
Mof_C 	C 	0.22284	0.04124	0.56432	-0.132
Mof_C 	C 	0.24863	0.94083	0.94174	0.396
Mof_C 	C 	0.10556	0.78716	0.93568	-0.135
Mof_C 	C 	0.80963	0.61743	0.94174	0.391
Mof_C 	C 	0.95876	0.77716	0.93568	-0.128
Mof_C 	C 	0.94083	0.24863	0.44174	0.39
Mof_C 	C 	0.78716	0.10556	0.43568	-0.132
Mof_C 	C 	0.61743	0.80963	0.44174	0.392
Mof_C 	C 	0.77716	0.95876	0.43568	-0.132
Mof_C 	C 	0.75137	0.05917	0.05826	0.396
Mof_C 	C 	0.89444	0.21284	0.06432	-0.135
Mof_C 	C 	0.19037	0.38257	0.05826	0.391
Mof_C 	C 	0.04124	0.22284	0.06432	-0.128
Mof_C 	C 	0.3246	0.6754	0.25	0.274
Mof_C 	C 	0.4254	0.5746	0.25	0.274
Mof_C 	C 	0.6754	0.3246	0.75	0.274
Mof_C 	C 	0.5746	0.4254	0.75	0.274
Mof_O 	O 	0.23841	0.66119	0.3284	-0.429
Mof_O 	O 	0.07629	0.63451	0.5326	-0.59
Mof_O 	O 	0.9178	0.74802	0.57558	-0.444
Mof_O 	O 	0.43319	0.51041	0.3284	-0.429
Mof_O 	O 	0.39111	0.33289	0.5326	-0.59
Mof_O 	O 	0.50662	0.1764	0.57558	-0.445
Mof_O 	O 	0.33881	0.76159	0.1716	-0.43
Mof_O 	O 	0.36549	0.92371	0.9674	-0.588
Mof_O 	O 	0.25198	0.0822	0.92442	-0.449
Mof_O 	O 	0.48959	0.56681	0.1716	-0.429
Mof_O 	O 	0.66711	0.60889	0.9674	-0.588
Mof_O 	O 	0.8236	0.49338	0.92442	-0.444
Mof_O 	O 	0.76159	0.33881	0.6716	-0.429
Mof_O 	O 	0.92371	0.36549	0.4674	-0.59
Mof_O 	O 	0.0822	0.25198	0.42442	-0.444
Mof_O 	O 	0.56681	0.48959	0.6716	-0.429
Mof_O 	O 	0.60889	0.66711	0.4674	-0.59
Mof_O 	O 	0.49338	0.8236	0.42442	-0.445
Mof_O 	O 	0.66119	0.23841	0.8284	-0.43
Mof_O 	O 	0.63451	0.07629	0.0326	-0.588
Mof_O 	O 	0.74802	0.9178	0.07558	-0.449
Mof_O 	O 	0.51041	0.43319	0.8284	-0.429
Mof_O 	O 	0.33289	0.39111	0.0326	-0.588
Mof_O 	O 	0.1764	0.50662	0.07558	-0.444
_end
