data_functionalizedCrystal
_audit_creation_method	'EQeq! by Chris Wilmer'
_symmetry_space_group_name_H-M	'P1'
_symmetry_Int_Tables_number	1
_symmetry_cell_setting	triclinic
loop_
_symmetry_equiv_pos_as_xyz
  x,y,z
_cell_length_a	20.1469
_cell_length_b	20.5147
_cell_length_c	10.0242
_cell_angle_alpha	90
_cell_angle_beta	90
_cell_angle_gamma	90
loop_
_atom_site_label
_atom_site_type_symbol
_atom_site_fract_x
_atom_site_fract_y
_atom_site_fract_z
_atom_site_charge
Mof_Al	Al	0.1983	0.3289	0.3801	3.634
Mof_Al	Al	0.9306	0.4344	0.4059	3.91
Mof_P 	P 	0.1762	0.3212	0.0678	1.12
Mof_P 	P 	0.0867	0.4422	0.4086	1.218
Mof_O 	O 	0.2143	0.3345	0.1927	-1.21
Mof_O 	O 	0.1638	0.2493	0.0552	-1.194
Mof_O 	O 	0.019	0.4166	0.4423	-1.321
Mof_O 	O 	0.1089	0.3556	0.066	-1.249
Mof_O 	O 	0.1385	0.3917	0.4365	-1.178
Mof_O 	O 	0.1039	0.5008	0.4905	-1.253
Mof_O 	O 	0.0906	0.4631	0.2628	-1.302
Mof_O 	O 	0.2186	0.3433	0.9492	-1.168
Mof_Al	Al	0.6983	0.8289	0.3801	3.633
Mof_Al	Al	0.4306	0.9344	0.4059	3.908
Mof_P 	P 	0.6762	0.8212	0.0678	1.119
Mof_P 	P 	0.5867	0.9422	0.4086	1.217
Mof_O 	O 	0.7143	0.8345	0.1927	-1.211
Mof_O 	O 	0.6638	0.7493	0.0552	-1.195
Mof_O 	O 	0.519	0.9166	0.4423	-1.321
Mof_O 	O 	0.6089	0.8556	0.066	-1.249
Mof_O 	O 	0.6385	0.8917	0.4365	-1.178
Mof_O 	O 	0.6039	0.0008	0.4905	-1.253
Mof_O 	O 	0.5906	0.9631	0.2628	-1.302
Mof_O 	O 	0.7186	0.8433	0.9492	-1.168
Mof_Al	Al	0.3017	0.6711	0.3801	3.633
Mof_Al	Al	0.5694	0.5656	0.4059	3.909
Mof_P 	P 	0.3238	0.6788	0.0678	1.119
Mof_P 	P 	0.4133	0.5578	0.4086	1.217
Mof_O 	O 	0.2857	0.6655	0.1927	-1.211
Mof_O 	O 	0.3362	0.7507	0.0552	-1.195
Mof_O 	O 	0.481	0.5834	0.4423	-1.321
Mof_O 	O 	0.3911	0.6444	0.066	-1.249
Mof_O 	O 	0.3615	0.6083	0.4365	-1.178
Mof_O 	O 	0.3961	0.4992	0.4905	-1.253
Mof_O 	O 	0.4094	0.5369	0.2628	-1.302
Mof_O 	O 	0.2814	0.6567	0.9492	-1.168
Mof_Al	Al	0.8017	0.1711	0.3801	3.633
Mof_Al	Al	0.0694	0.0656	0.4059	3.909
Mof_P 	P 	0.8238	0.1788	0.0678	1.119
Mof_P 	P 	0.9133	0.0578	0.4086	1.217
Mof_O 	O 	0.7857	0.1655	0.1927	-1.211
Mof_O 	O 	0.8362	0.2507	0.0552	-1.195
Mof_O 	O 	0.981	0.0834	0.4423	-1.321
Mof_O 	O 	0.8911	0.1444	0.066	-1.249
Mof_O 	O 	0.8615	0.1083	0.4365	-1.178
Mof_O 	O 	0.8961	0.9992	0.4905	-1.254
Mof_O 	O 	0.9094	0.0369	0.2628	-1.303
Mof_O 	O 	0.7814	0.1567	0.9492	-1.168
Mof_Al	Al	0.8017	0.3289	0.1199	3.633
Mof_Al	Al	0.0694	0.4344	0.0941	3.908
Mof_P 	P 	0.8238	0.3212	0.4322	1.119
Mof_P 	P 	0.9133	0.4422	0.0914	1.217
Mof_O 	O 	0.7857	0.3345	0.3073	-1.211
Mof_O 	O 	0.8362	0.2493	0.4448	-1.195
Mof_O 	O 	0.981	0.4166	0.0577	-1.321
Mof_O 	O 	0.8911	0.3556	0.434	-1.249
Mof_O 	O 	0.8615	0.3917	0.0635	-1.178
Mof_O 	O 	0.8961	0.5008	0.0095	-1.253
Mof_O 	O 	0.9094	0.4631	0.2372	-1.302
Mof_O 	O 	0.7814	0.3433	0.5508	-1.167
Mof_Al	Al	0.3017	0.8289	0.1199	3.632
Mof_Al	Al	0.5694	0.9344	0.0941	3.908
Mof_P 	P 	0.3238	0.8212	0.4322	1.119
Mof_P 	P 	0.4133	0.9422	0.0914	1.217
Mof_O 	O 	0.2857	0.8345	0.3073	-1.211
Mof_O 	O 	0.3362	0.7493	0.4448	-1.195
Mof_O 	O 	0.481	0.9166	0.0577	-1.321
Mof_O 	O 	0.3911	0.8556	0.434	-1.249
Mof_O 	O 	0.3615	0.8917	0.0635	-1.178
Mof_O 	O 	0.3961	0.0008	0.0095	-1.254
Mof_O 	O 	0.4094	0.9631	0.2372	-1.303
Mof_O 	O 	0.2814	0.8433	0.5508	-1.168
Mof_Al	Al	0.6983	0.6711	0.1199	3.633
Mof_Al	Al	0.4306	0.5656	0.0941	3.908
Mof_P 	P 	0.6762	0.6788	0.4322	1.119
Mof_P 	P 	0.5867	0.5578	0.0914	1.217
Mof_O 	O 	0.7143	0.6655	0.3073	-1.211
Mof_O 	O 	0.6638	0.7507	0.4448	-1.195
Mof_O 	O 	0.519	0.5834	0.0577	-1.321
Mof_O 	O 	0.6089	0.6444	0.434	-1.249
Mof_O 	O 	0.6385	0.6083	0.0635	-1.178
Mof_O 	O 	0.6039	0.4992	0.0095	-1.253
Mof_O 	O 	0.5906	0.5369	0.2372	-1.302
Mof_O 	O 	0.7186	0.6567	0.5508	-1.167
Mof_Al	Al	0.1983	0.1711	0.1199	3.632
Mof_Al	Al	0.9306	0.0656	0.0941	3.909
Mof_P 	P 	0.1762	0.1788	0.4322	1.119
Mof_P 	P 	0.0867	0.0578	0.0914	1.217
Mof_O 	O 	0.2143	0.1655	0.3073	-1.211
Mof_O 	O 	0.1638	0.2507	0.4448	-1.195
Mof_O 	O 	0.019	0.0834	0.0577	-1.321
Mof_O 	O 	0.1089	0.1444	0.434	-1.249
Mof_O 	O 	0.1385	0.1083	0.0635	-1.179
Mof_O 	O 	0.1039	0.9992	0.0095	-1.254
Mof_O 	O 	0.0906	0.0369	0.2372	-1.303
Mof_O 	O 	0.2186	0.1567	0.5508	-1.168
Mof_Al	Al	0.8017	0.6711	0.6199	3.633
Mof_Al	Al	0.0694	0.5656	0.5941	3.909
Mof_P 	P 	0.8238	0.6788	0.9322	1.119
Mof_P 	P 	0.9133	0.5578	0.5914	1.217
Mof_O 	O 	0.7857	0.6655	0.8073	-1.211
Mof_O 	O 	0.8362	0.7507	0.9448	-1.195
Mof_O 	O 	0.981	0.5834	0.5577	-1.321
Mof_O 	O 	0.8911	0.6444	0.934	-1.249
Mof_O 	O 	0.8615	0.6083	0.5635	-1.178
Mof_O 	O 	0.8961	0.4992	0.5095	-1.253
Mof_O 	O 	0.9094	0.5369	0.7372	-1.302
Mof_O 	O 	0.7814	0.6567	0.0508	-1.168
Mof_Al	Al	0.3017	0.1711	0.6199	3.633
Mof_Al	Al	0.5694	0.0656	0.5941	3.908
Mof_P 	P 	0.3238	0.1788	0.9322	1.119
Mof_P 	P 	0.4133	0.0578	0.5914	1.217
Mof_O 	O 	0.2857	0.1655	0.8073	-1.211
Mof_O 	O 	0.3362	0.2507	0.9448	-1.195
Mof_O 	O 	0.481	0.0834	0.5577	-1.321
Mof_O 	O 	0.3911	0.1444	0.934	-1.249
Mof_O 	O 	0.3615	0.1083	0.5635	-1.178
Mof_O 	O 	0.3961	0.9992	0.5095	-1.253
Mof_O 	O 	0.4094	0.0369	0.7372	-1.302
Mof_O 	O 	0.2814	0.1567	0.0508	-1.168
Mof_Al	Al	0.6983	0.3289	0.6199	3.633
Mof_Al	Al	0.4306	0.4344	0.5941	3.909
Mof_P 	P 	0.6762	0.3212	0.9322	1.119
Mof_P 	P 	0.5867	0.4422	0.5914	1.217
Mof_O 	O 	0.7143	0.3345	0.8073	-1.211
Mof_O 	O 	0.6638	0.2493	0.9448	-1.195
Mof_O 	O 	0.519	0.4166	0.5577	-1.321
Mof_O 	O 	0.6089	0.3556	0.934	-1.249
Mof_O 	O 	0.6385	0.3917	0.5635	-1.178
Mof_O 	O 	0.6039	0.5008	0.5095	-1.253
Mof_O 	O 	0.5906	0.4631	0.7372	-1.302
Mof_O 	O 	0.7186	0.3433	0.0508	-1.168
Mof_Al	Al	0.1983	0.8289	0.6199	3.633
Mof_Al	Al	0.9306	0.9344	0.5941	3.909
Mof_P 	P 	0.1762	0.8212	0.9322	1.119
Mof_P 	P 	0.0867	0.9422	0.5914	1.217
Mof_O 	O 	0.2143	0.8345	0.8073	-1.211
Mof_O 	O 	0.1638	0.7493	0.9448	-1.195
Mof_O 	O 	0.019	0.9166	0.5577	-1.321
Mof_O 	O 	0.1089	0.8556	0.934	-1.249
Mof_O 	O 	0.1385	0.8917	0.5635	-1.178
Mof_O 	O 	0.1039	0.0008	0.5095	-1.254
Mof_O 	O 	0.0906	0.9631	0.7372	-1.303
Mof_O 	O 	0.2186	0.8433	0.0508	-1.168
Mof_Al	Al	0.1983	0.6711	0.8801	3.633
Mof_Al	Al	0.9306	0.5656	0.9059	3.908
Mof_P 	P 	0.1762	0.6788	0.5678	1.119
Mof_P 	P 	0.0867	0.5578	0.9086	1.217
Mof_O 	O 	0.2143	0.6655	0.6927	-1.211
Mof_O 	O 	0.1638	0.7507	0.5552	-1.195
Mof_O 	O 	0.019	0.5834	0.9423	-1.321
Mof_O 	O 	0.1089	0.6444	0.566	-1.249
Mof_O 	O 	0.1385	0.6083	0.9365	-1.178
Mof_O 	O 	0.1039	0.4992	0.9905	-1.253
Mof_O 	O 	0.0906	0.5369	0.7628	-1.302
Mof_O 	O 	0.2186	0.6567	0.4492	-1.167
Mof_Al	Al	0.6983	0.1711	0.8801	3.632
Mof_Al	Al	0.4306	0.0656	0.9059	3.908
Mof_P 	P 	0.6762	0.1788	0.5678	1.119
Mof_P 	P 	0.5867	0.0578	0.9086	1.217
Mof_O 	O 	0.7143	0.1655	0.6927	-1.211
Mof_O 	O 	0.6638	0.2507	0.5552	-1.195
Mof_O 	O 	0.519	0.0834	0.9423	-1.321
Mof_O 	O 	0.6089	0.1444	0.566	-1.249
Mof_O 	O 	0.6385	0.1083	0.9365	-1.178
Mof_O 	O 	0.6039	0.9992	0.9905	-1.254
Mof_O 	O 	0.5906	0.0369	0.7628	-1.303
Mof_O 	O 	0.7186	0.1567	0.4492	-1.168
Mof_Al	Al	0.3017	0.3289	0.8801	3.633
Mof_Al	Al	0.5694	0.4344	0.9059	3.908
Mof_P 	P 	0.3238	0.3212	0.5678	1.119
Mof_P 	P 	0.4133	0.4422	0.9086	1.217
Mof_O 	O 	0.2857	0.3345	0.6927	-1.211
Mof_O 	O 	0.3362	0.2493	0.5552	-1.195
Mof_O 	O 	0.481	0.4166	0.9423	-1.321
Mof_O 	O 	0.3911	0.3556	0.566	-1.249
Mof_O 	O 	0.3615	0.3917	0.9365	-1.178
Mof_O 	O 	0.3961	0.5008	0.9905	-1.253
Mof_O 	O 	0.4094	0.4631	0.7628	-1.302
Mof_O 	O 	0.2814	0.3433	0.4492	-1.167
Mof_Al	Al	0.8017	0.8289	0.8801	3.632
Mof_Al	Al	0.0694	0.9344	0.9059	3.909
Mof_P 	P 	0.8238	0.8212	0.5678	1.119
Mof_P 	P 	0.9133	0.9422	0.9086	1.217
Mof_O 	O 	0.7857	0.8345	0.6927	-1.211
Mof_O 	O 	0.8362	0.7493	0.5552	-1.195
Mof_O 	O 	0.981	0.9166	0.9423	-1.321
Mof_O 	O 	0.8911	0.8556	0.566	-1.249
Mof_O 	O 	0.8615	0.8917	0.9365	-1.179
Mof_O 	O 	0.8961	0.0008	0.9905	-1.254
Mof_O 	O 	0.9094	0.9631	0.7628	-1.303
Mof_O 	O 	0.7814	0.8433	0.4492	-1.168
_end
