data_functionalizedCrystal
_audit_creation_method	'EQeq! by Chris Wilmer'
_symmetry_space_group_name_H-M	'P1'
_symmetry_Int_Tables_number	1
_symmetry_cell_setting	triclinic
loop_
_symmetry_equiv_pos_as_xyz
  x,y,z
_cell_length_a	24.4878
_cell_length_b	24.4878
_cell_length_c	24.4878
_cell_angle_alpha	62.3598
_cell_angle_beta	85.8617
_cell_angle_gamma	117.64
loop_
_atom_site_label
_atom_site_type_symbol
_atom_site_fract_x
_atom_site_fract_y
_atom_site_fract_z
_atom_site_charge
Mof_Zn	Zn	0.76888	0.4665	0.22576	1.241
Mof_Zn	Zn	0.69762	0.00536	0.76888	1.24
Mof_Zn	Zn	0.6985	0.57945	0.18933	1.162
Mof_Zn	Zn	0.88095	0.11217	0.6985	1.161
Mof_Zn	Zn	0.11488	0.90525	0.51409	1.196
Mof_Zn	Zn	0.79037	0.37103	0.11488	1.196
Mof_Zn	Zn	0.22576	0.99464	0.30774	1.24
Mof_Zn	Zn	0.51409	0.62897	0.58066	1.196
Mof_Zn	Zn	0.18933	0.88783	0.23122	1.162
Mof_Zn	Zn	0.58066	0.09475	0.79037	1.196
Mof_Zn	Zn	0.55811	0.03098	0.94979	1.233
Mof_Zn	Zn	0.01923	0.96902	0.47287	1.234
Mof_Zn	Zn	0.30774	0.5335	0.69762	1.24
Mof_Zn	Zn	0.23122	0.42055	0.88095	1.161
Mof_Zn	Zn	0.47287	0.4921	0.55811	1.234
Mof_Zn	Zn	0.94979	0.5079	0.01923	1.234
Mof_H 	H 	0.1468	0.6336	0.0272	0.054
Mof_H 	H 	0.7033	0.704	0.9269	0.083
Mof_H 	H 	0.8427	0.7434	0.3019	0.094
Mof_H 	H 	0.3404	0.9081	0.3959	0.011
Mof_H 	H 	0.787	0.2844	0.3498	0.04
Mof_H 	H 	0.9009	0.7933	0.4592	0.049
Mof_H 	H 	0.5376	0.4238	0.2936	-0.028
Mof_H 	H 	0.3181	0.6624	0.9119	0.089
Mof_H 	H 	0.8793	0.5666	0.3215	0.009
Mof_H 	H 	0.2197	0.1481	0.4988	0.06
Mof_H 	H 	0.2606	0.7123	0.9977	0.06
Mof_H 	H 	0.696	0.0919	0.5677	0.01
Mof_H 	H 	0.3959	0.7363	0.696	0.011
Mof_H 	H 	0.0326	0.8285	0.7063	0.012
Mof_H 	H 	0.9007	0.8554	0.8427	0.094
Mof_H 	H 	0.936	0.3985	0.8145	0.08
Mof_H 	H 	0.1651	0.7146	0.8385	0.044
Mof_H 	H 	0.4204	0.2401	0.7833	0.085
Mof_H 	H 	0.9766	0.7599	0.8197	0.083
Mof_H 	H 	0.9977	0.2583	0.29	0.058
Mof_H 	H 	0.7959	0.2611	0.0326	0.019
Mof_H 	H 	0.8385	0.0036	0.4469	0.045
Mof_H 	H 	0.3498	0.1368	0.3658	0.041
Mof_H 	H 	0.0007	0.3698	0.7033	0.086
Mof_H 	H 	0.0272	0.174	0.3392	0.059
Mof_H 	H 	0.9119	0.23	0.4257	0.089
Mof_H 	H 	0.9079	0.2301	0.7564	0.008
Mof_H 	H 	0.5677	0.2637	0.3404	0.011
Mof_H 	H 	0.4517	0.7417	0.2606	0.066
Mof_H 	H 	0.4469	0.2854	0.5495	0.041
Mof_H 	H 	0.3531	0.8519	0.9284	0.059
Mof_H 	H 	0.5125	0.9135	0.2826	0.064
Mof_H 	H 	0.2936	0.8312	0.2826	-0.028
Mof_H 	H 	0.9269	0.6302	0.3691	0.083
Mof_H 	H 	0.5495	0.9964	0.1651	0.041
Mof_H 	H 	0.4592	0.3601	0.7475	0.053
Mof_H 	H 	0.7833	0.2037	0.9766	0.078
Mof_H 	H 	0.9448	0.4563	0.8681	0.024
Mof_H 	H 	0.4988	0.7185	0.3531	0.059
Mof_H 	H 	0.3658	0.7156	0.4974	0.041
Mof_H 	H 	0.7063	0.7389	0.4652	0.007
Mof_H 	H 	0.5115	0.1871	0.9448	0.02
Mof_H 	H 	0.3443	0.77	0.3181	0.089
Mof_H 	H 	0.2826	0.7951	0.8039	0.062
Mof_H 	H 	0.8009	0.6844	0.2509	-0.028
Mof_H 	H 	0.9284	0.2815	0.2197	0.06
Mof_H 	H 	0.4537	0.1716	0.3991	0.081
Mof_H 	H 	0.4974	0.8632	0.787	0.04
Mof_H 	H 	0.2826	0.5762	0.8862	-0.029
Mof_H 	H 	0.1119	0.4334	0.6873	0.008
Mof_H 	H 	0.4868	0.826	0.1468	0.043
Mof_H 	H 	0.3991	0.8528	0.4293	0.081
Mof_H 	H 	0.4293	0.8284	0.7179	0.081
Mof_H 	H 	0.7475	0.2067	0.8924	0.053
Mof_H 	H 	0.9547	0.2566	0.9007	0.098
Mof_H 	H 	0.3691	0.296	0.0007	0.086
Mof_H 	H 	0.8197	0.7963	0.4204	0.086
Mof_H 	H 	0.8145	0.7505	0.787	0.083
Mof_H 	H 	0.8039	0.0865	0.401	0.06
Mof_H 	H 	0.4625	0.2495	0.936	0.082
Mof_H 	H 	0.8835	0.9482	0.8009	-0.028
Mof_H 	H 	0.401	0.2049	0.5125	0.064
Mof_H 	H 	0.3222	0.3357	0.9079	0.009
Mof_H 	H 	0.8681	0.8129	0.6756	0.022
Mof_H 	H 	0.0647	0.3156	0.8835	-0.033
Mof_H 	H 	0.6873	0.7992	0.8793	0.008
Mof_H 	H 	0.29	0.2877	0.4517	0.066
Mof_H 	H 	0.6756	0.5437	0.5115	0.021
Mof_H 	H 	0.0135	0.7699	0.3222	0.022
Mof_H 	H 	0.4257	0.3376	0.3443	0.089
Mof_H 	H 	0.3392	0.3664	0.4868	0.042
Mof_H 	H 	0.3215	0.2008	0.1119	0.008
Mof_H 	H 	0.8924	0.6399	0.9009	0.048
Mof_H 	H 	0.787	0.6015	0.4625	0.084
Mof_H 	H 	0.3019	0.1446	0.9547	0.1
Mof_H 	H 	0.7564	0.6643	0.0135	0.022
Mof_H 	H 	0.8862	0.1688	0.5376	-0.03
Mof_H 	H 	0.4652	0.1715	0.7959	0.007
Mof_H 	H 	0.2509	0.0518	0.0647	-0.031
Mof_H 	H 	0.7179	0.1472	0.4537	0.081
Mof_C 	C 	0.3232	0.1392	0.3924	-0.009
Mof_C 	C 	0.4773	0.8186	0.2835	0.044
Mof_C 	C 	0.28	0.1162	0.1	-0.194
Mof_C 	C 	0.80802	0.3769	0.23168	0.354
Mof_C 	C 	0.4684	0.8608	0.816	-0.009
Mof_C 	C 	0.9859	0.2907	0.8578	-0.205
Mof_C 	C 	0.73	0.8103	0.8733	0.098
Mof_C 	C 	0.36858	0.3952	0.80922	-0.086
Mof_C 	C 	0.4702	0.7919	0.2427	-0.102
Mof_C 	C 	0.83634	0.2372	0.35386	-0.042
Mof_C 	C 	0.99087	0.775	0.34973	-0.025
Mof_C 	C 	0.816	0.2844	0.3232	-0.009
Mof_C 	C 	0.89007	0.6952	0.33873	0.1
Mof_C 	C 	0.8515	0.7093	0.3048	-0.187
Mof_C 	C 	0.8125	0.7062	0.9235	-0.03
Mof_C 	C 	0.3454	0.2466	0.014	-0.171
Mof_C 	C 	0.357	0.8086	0.8772	0.001
Mof_C 	C 	0.3416	0.4422	0.791	0.399
Mof_C 	C 	0.3331	0.6496	0.7883	-0.169
Mof_C 	C 	0.37795	0.8045	0.37755	0.095
Mof_C 	C 	0.5073	0.8956	0.2559	-0.094
Mof_C 	C 	0.379	0.723	0.7386	0.083
Mof_C 	C 	0.42655	0.2445	0.37795	0.095
Mof_C 	C 	0.2835	0.7608	0.8979	0.037
Mof_C 	C 	0.2451	0.0525	0.172	0.435
Mof_C 	C 	0.4006	0.7782	0.7518	-0.157
Mof_C 	C 	0.9124	0.4057	0.8897	0.056
Mof_C 	C 	0.172	0.4171	0.7755	0.429
Mof_C 	C 	0.4302	0.3541	0.7799	-0.036
Mof_C 	C 	0.7046	0.5943	0.4933	0.069
Mof_C 	C 	0.3413	0.2392	0.4773	0.044
Mof_C 	C 	0.47	0.2218	0.3776	-0.157
Mof_C 	C 	0.79558	0.6048	0.02662	-0.063
Mof_C 	C 	0.81795	0.1955	0.42655	0.096
Mof_C 	C 	0.99411	0.8309	0.40899	-0.059
Mof_C 	C 	0.4933	0.1979	0.9124	0.066
Mof_C 	C 	0.866	0.6459	0.9239	-0.025
Mof_C 	C 	0.3825	0.854	0.9001	-0.05
Mof_C 	C 	0.5417	0.9714	0.0717	0.298
Mof_C 	C 	0.9235	0.736	0.3703	-0.031
Mof_C 	C 	0.8721	0.4031	0.9896	0.4
Mof_C 	C 	0.76011	0.1691	0.83679	-0.043
Mof_C 	C 	0.45068	0.9031	0.88242	-0.057
Mof_C 	C 	0.846	0.2552	0.8566	-0.008
Mof_C 	C 	0.4958	0.1757	0.8685	-0.147
Mof_C 	C 	0.9896	0.8617	0.6073	0.406
Mof_C 	C 	0.3703	0.2938	0.8937	-0.044
Mof_C 	C 	0.9569	0.0286	0.4297	0.281
Mof_C 	C 	0.8696	0.0544	0.4162	-0.006
Mof_C 	C 	0.41353	0.6681	0.49497	-0.086
Mof_C 	C 	0.30678	0.5905	0.77192	0.411
Mof_C 	C 	0.7386	0.1176	0.5384	0.083
Mof_C 	C 	0.78413	0.6594	0.99087	-0.028
Mof_C 	C 	0.8979	0.1814	0.3413	0.034
Mof_C 	C 	0.4663	0.189	0.8227	0.074
Mof_C 	C 	0.85854	0.2953	0.88916	0.07
Mof_C 	C 	0.9827	0.1571	0.351	-0.02
Mof_C 	C 	0.5294	0.9456	0.1848	0.006
Mof_C 	C 	0.2752	0.1012	0.0516	0.131
Mof_C 	C 	0.9558	0.8243	0.6799	-0.142
Mof_C 	C 	0.80513	0.7712	0.89007	0.1
Mof_C 	C 	0.83693	0.3319	0.25457	-0.087
Mof_C 	C 	0.9351	0.0823	0.397	-0.055
Mof_C 	C 	0.47	0.9473	0.9107	0.292
Mof_C 	C 	0.68833	0.1245	0.85217	0.388
Mof_C 	C 	0.8362	0.62	0.28	-0.186
Mof_C 	C 	0.4715	0.7174	0.3825	-0.048
Mof_C 	C 	0.4382	0.2289	0.8161	-0.145
Mof_C 	C 	0.4641	0.2353	0.907	-0.141
Mof_C 	C 	0.63758	0.4095	0.28372	0.411
Mof_C 	C 	0.9001	0.2826	0.2459	-0.05
Mof_C 	C 	0.955	0.7711	0.7907	-0.142
Mof_C 	C 	0.7518	0.1524	0.47	-0.158
Mof_C 	C 	0.5621	0.3504	0.3165	-0.169
Mof_C 	C 	0.8897	0.8021	0.7046	0.064
Mof_C 	C 	0.1006	0.8674	0.3416	0.392
Mof_C 	C 	0.43617	0.4595	0.68833	0.388
Mof_C 	C 	0.3776	0.8476	0.4006	-0.157
Mof_C 	C 	0.25457	0.0915	0.41353	-0.087
Mof_C 	C 	0.88916	0.7477	0.81554	0.079
Mof_C 	C 	0.3329	0.6781	0.868	-0.167
Mof_C 	C 	0.33873	0.2288	0.96607	0.105
Mof_C 	C 	0.9883	0.811	0.7227	0.065
Mof_C 	C 	0.45242	0.6669	0.45068	-0.058
Mof_C 	C 	0.7755	0.9475	0.8074	0.432
Mof_C 	C 	0.96607	0.3048	0.80513	0.104
Mof_C 	C 	0.7799	0.2101	0.866	-0.038
Mof_C 	C 	0.02333	0.8755	0.43617	0.396
Mof_C 	C 	0.8577	0.7647	0.7712	-0.141
Mof_C 	C 	0.7907	0.7457	0.4382	-0.148
Mof_C 	C 	0.3142	0.1914	0.4516	-0.001
Mof_C 	C 	0.8472	0.8988	0.826	0.112
Mof_C 	C 	0.23168	0.0397	0.39142	0.357
Mof_C 	C 	0.02662	0.8222	0.36858	-0.066
Mof_C 	C 	0.85217	0.5405	0.02333	0.398
Mof_C 	C 	0.80922	0.1778	0.79558	-0.087
Mof_C 	C 	0.40086	0.8098	0.83634	-0.042
Mof_C 	C 	0.4162	0.2858	0.5294	0.007
Mof_C 	C 	0.0717	0.6134	0.9569	0.289
Mof_C 	C 	0.8685	0.3643	0.9558	-0.135
Mof_C 	C 	0.8733	0.6033	0.3164	0.097
Mof_C 	C 	0.4919	0.8429	0.1744	0.011
Mof_C 	C 	0.0803	0.3967	0.73	0.101
Mof_C 	C 	0.39142	0.6231	0.56888	0.353
Mof_C 	C 	0.3116	0.6267	0.8529	0.101
Mof_C 	C 	0.791	0.1326	0.7668	0.399
Mof_C 	C 	0.9239	0.7899	0.4302	-0.026
Mof_C 	C 	0.9107	0.3807	0.142	0.292
Mof_C 	C 	0.8578	0.8437	0.8515	-0.188
Mof_C 	C 	0.81554	0.7047	0.43676	0.083
Mof_C 	C 	0.7227	0.711	0.4663	0.076
Mof_C 	C 	0.344	0.8824	0.379	0.083
Mof_C 	C 	0.88242	0.3331	0.21448	-0.057
Mof_C 	C 	0.3048	0.1563	0.9859	-0.208
Mof_C 	C 	0.49497	0.9085	0.83693	-0.087
Mof_C 	C 	0.37755	0.7555	0.81795	0.095
Mof_C 	C 	0.8772	0.2342	0.3142	0.003
Mof_C 	C 	0.8074	0.5829	0.2451	0.427
Mof_C 	C 	0.8937	0.264	0.8125	-0.045
Mof_C 	C 	0.40894	0.7628	0.40086	-0.04
Mof_C 	C 	0.0516	0.3268	0.8472	0.128
Mof_C 	C 	0.8161	0.2543	0.955	-0.132
Mof_C 	C 	0.826	0.6732	0.2752	0.11
Mof_C 	C 	0.5384	0.277	0.344	0.083
Mof_C 	C 	0.4539	0.3219	0.3452	-0.166
Mof_C 	C 	0.3164	0.1897	0.0803	0.103
Mof_C 	C 	0.8227	0.289	0.9883	0.051
Mof_C 	C 	0.9012	0.6406	0.3454	-0.173
Mof_C 	C 	0.1472	0.6679	0.9351	-0.061
Mof_C 	C 	0.6073	0.5969	0.531	0.412
Mof_C 	C 	0.868	0.2009	0.4539	-0.167
Mof_C 	C 	0.4773	0.6193	0.47	0.292
Mof_C 	C 	0.5207	0.9177	0.1472	-0.071
Mof_C 	C 	0.907	0.3711	0.8577	-0.133
Mof_C 	C 	0.531	0.1383	0.8721	0.412
Mof_C 	C 	0.014	0.3594	0.7394	-0.17
Mof_C 	C 	0.7394	0.7534	0.9012	-0.173
Mof_C 	C 	0.2427	0.7129	0.9654	-0.09
Mof_C 	C 	0.4297	0.3866	0.5417	0.301
Mof_C 	C 	0.5204	0.3733	0.3151	0.101
Mof_C 	C 	0.34973	0.3406	0.87527	-0.001
Mof_C 	C 	0.4092	0.2974	0.846	-0.011
Mof_C 	C 	0.21448	0.0969	0.45242	-0.057
Mof_C 	C 	0.87527	0.225	0.78413	-0
Mof_C 	C 	0.397	0.3321	0.5207	-0.073
Mof_C 	C 	0.43676	0.2523	0.85854	0.078
Mof_C 	C 	0.77192	0.0787	0.63758	0.411
Mof_C 	C 	0.83679	0.5969	0.99411	-0.063
Mof_C 	C 	0.35386	0.1902	0.40894	-0.04
Mof_C 	C 	0.3924	0.7156	0.4684	-0.01
Mof_C 	C 	0.8485	0.1044	0.3883	-0.085
Mof_C 	C 	0.4516	0.7658	0.357	-0.001
Mof_C 	C 	0.3165	0.8786	0.3331	-0.169
Mof_C 	C 	0.9654	0.2081	0.3217	-0.085
Mof_C 	C 	0.1	0.38	0.7838	-0.192
Mof_C 	C 	0.351	0.3337	0.4919	0.012
Mof_C 	C 	0.7668	0.5578	0.1006	0.391
Mof_C 	C 	0.7712	0.6289	0.4641	-0.144
Mof_C 	C 	0.3883	0.2368	0.5073	-0.095
Mof_C 	C 	0.8529	0.1645	0.5204	0.102
Mof_C 	C 	0.3217	0.2871	0.4702	-0.103
Mof_C 	C 	0.8566	0.7026	0.8882	-0.02
Mof_C 	C 	0.2459	0.146	0.4715	-0.048
Mof_C 	C 	0.28372	0.9213	0.30678	0.411
Mof_C 	C 	0.8882	0.7448	0.4092	-0.02
Mof_C 	C 	0.7883	0.1214	0.5621	-0.17
Mof_C 	C 	0.40899	0.4031	0.76011	-0.043
Mof_C 	C 	0.1744	0.6663	0.9827	-0.009
Mof_C 	C 	0.3452	0.7991	0.3329	-0.166
Mof_C 	C 	0.3151	0.8355	0.3116	0.101
Mof_C 	C 	0.56888	0.9603	0.80802	0.356
Mof_C 	C 	0.6799	0.6357	0.4958	-0.148
Mof_C 	C 	0.2559	0.7632	0.8485	-0.088
Mof_C 	C 	0.142	0.0527	0.4773	0.291
Mof_C 	C 	0.1848	0.7142	0.8696	-0.002
Mof_C 	C 	0.7838	0.8838	0.8362	-0.188
Mof_O 	O 	0.33836	0.6089	0.71714	-0.481
Mof_O 	O 	0.53882	0.1067	0.92568	-0.48
Mof_O 	O 	0.96762	0.8933	0.56788	-0.478
Mof_O 	O 	0.66857	0.14083	0.80446	-0.466
Mof_O 	O 	0.65398	0.0781	0.91272	-0.461
Mof_O 	O 	0.71534	0.5479	0.12848	-0.504
Mof_O 	O 	0.80446	0.47303	0.05471	-0.467
Mof_O 	O 	0.46149	0.57502	0.53381	-0.547
Mof_O 	O 	0.71714	0.0555	0.67396	-0.481
Mof_O 	O 	0.67396	0.3911	0.27054	-0.481
Mof_O 	O 	0.13047	0.92822	0.33655	-0.473
Mof_O 	O 	0.5246	0.9427	0.0405	-0.423
Mof_O 	O 	0.89117	0.42498	0.11353	-0.547
Mof_O 	O 	0.80721	0.52548	0.26247	-0.469
Mof_O 	O 	0.73523	0.07178	0.79775	-0.475
Mof_O 	O 	0.59902	0.0304	0.77098	-0.494
Mof_O 	O 	0.4181	0.4349	0.5246	-0.426
Mof_O 	O 	0.047	0.6236	0.9122	-0.308
Mof_O 	O 	0.05471	0.85917	0.47226	-0.467
Mof_O 	O 	0.56788	0.5355	0.53882	-0.479
Mof_O 	O 	0.9122	0.9592	0.4642	-0.306
Mof_O 	O 	0.33655	0.46702	0.73523	-0.474
Mof_O 	O 	0.26247	0.06968	0.21205	-0.468
Mof_O 	O 	0.12848	0.84382	0.32362	-0.504
Mof_O 	O 	0.03882	0.8593	0.59448	-0.506
Mof_O 	O 	0.53381	0.9953	0.89117	-0.546
Mof_O 	O 	0.27054	0.9445	0.33836	-0.481
Mof_O 	O 	0.21205	0.47452	0.71827	-0.469
Mof_O 	O 	0.00918	0.9219	0.42412	-0.459
Mof_O 	O 	0.18782	0.3883	0.82208	-0.515
Mof_O 	O 	0.42769	0.9351	0.95341	-0.302
Mof_O 	O 	0.8189	0.4188	0.2515	-0.422
Mof_O 	O 	0.78962	0.6117	0.20048	-0.514
Mof_O 	O 	0.5766	0.0408	0.047	-0.307
Mof_O 	O 	0.81481	0.07032	0.65707	-0.511
Mof_O 	O 	0.20048	0.9901	0.18782	-0.518
Mof_O 	O 	0.11353	0.0047	0.46149	-0.544
Mof_O 	O 	0.91272	0.5667	0.00918	-0.46
Mof_O 	O 	0.5999	0.9296	0.8189	-0.421
Mof_O 	O 	0.43138	0.63	0.59902	-0.492
Mof_O 	O 	0.11149	0.0649	0.50741	-0.299
Mof_O 	O 	0.42412	0.4333	0.65398	-0.458
Mof_O 	O 	0.25551	0.52812	0.81481	-0.51
Mof_O 	O 	0.82208	0.0099	0.78962	-0.519
Mof_O 	O 	0.47226	0.52697	0.66857	-0.465
Mof_O 	O 	0.92568	0.4645	0.96762	-0.479
Mof_O 	O 	0.3297	0.5812	0.5999	-0.421
Mof_O 	O 	0.19862	0.9696	0.43138	-0.494
Mof_O 	O 	0.95341	0.3811	0.11149	-0.301
Mof_O 	O 	0.77098	0.37	0.19862	-0.492
Mof_O 	O 	0.65707	0.47188	0.27261	-0.51
Mof_O 	O 	0.71827	0.93032	0.80721	-0.469
Mof_O 	O 	0.50741	0.6189	0.42769	-0.301
Mof_O 	O 	0.0405	0.5651	0.0168	-0.415
Mof_O 	O 	0.0168	0.0573	0.4181	-0.413
Mof_O 	O 	0.59448	0.6333	0.54622	-0.509
Mof_O 	O 	0.82048	0.3667	0.03882	-0.502
Mof_O 	O 	0.32362	0.4521	0.83256	-0.507
Mof_O 	O 	0.27261	0.92968	0.25551	-0.51
Mof_O 	O 	0.54622	0.1407	0.82048	-0.509
Mof_O 	O 	0.83256	0.15618	0.71534	-0.508
Mof_O 	O 	0.79775	0.53298	0.13047	-0.472
Mof_O 	O 	0.2515	0.0704	0.3297	-0.42
Mof_O 	O 	0.4642	0.3764	0.5766	-0.312
_end
