data_functionalizedCrystal
_audit_creation_method	'EQeq! by Chris Wilmer'
_symmetry_space_group_name_H-M	'P1'
_symmetry_Int_Tables_number	1
_symmetry_cell_setting	triclinic
loop_
_symmetry_equiv_pos_as_xyz
  x,y,z
_cell_length_a	22.4567
_cell_length_b	22.4567
_cell_length_c	22.4567
_cell_angle_alpha	90
_cell_angle_beta	90
_cell_angle_gamma	90
loop_
_atom_site_label
_atom_site_type_symbol
_atom_site_fract_x
_atom_site_fract_y
_atom_site_fract_z
_atom_site_charge
Mof_In	In	0.3219	0.73957	0.80651	2.872
Mof_In	In	0.6781	0.26043	0.80651	2.872
Mof_In	In	0.6781	0.73957	0.19349	2.872
Mof_In	In	0.3219	0.26043	0.19349	2.872
Mof_In	In	0.80651	0.3219	0.73957	2.872
Mof_In	In	0.80651	0.6781	0.26043	2.872
Mof_In	In	0.19349	0.6781	0.73957	2.872
Mof_In	In	0.19349	0.3219	0.26043	2.872
Mof_In	In	0.73957	0.80651	0.3219	2.872
Mof_In	In	0.26043	0.80651	0.6781	2.872
Mof_In	In	0.73957	0.19349	0.6781	2.872
Mof_In	In	0.26043	0.19349	0.3219	2.872
Mof_In	In	0.23957	0.8219	0.30651	2.872
Mof_In	In	0.76043	0.1781	0.30651	2.872
Mof_In	In	0.23957	0.1781	0.69349	2.872
Mof_In	In	0.76043	0.8219	0.69349	2.872
Mof_In	In	0.8219	0.30651	0.23957	2.872
Mof_In	In	0.1781	0.30651	0.76043	2.872
Mof_In	In	0.1781	0.69349	0.23957	2.872
Mof_In	In	0.8219	0.69349	0.76043	2.872
Mof_In	In	0.30651	0.23957	0.8219	2.872
Mof_In	In	0.30651	0.76043	0.1781	2.872
Mof_In	In	0.69349	0.23957	0.1781	2.872
Mof_In	In	0.69349	0.76043	0.8219	2.872
Mof_H 	H 	0.4252	0.795	0.5833	0.052
Mof_H 	H 	0.6066	0.8043	0.5923	0.051
Mof_H 	H 	0.5082	0.7788	0.7416	0.018
Mof_H 	H 	0.5748	0.205	0.5833	0.052
Mof_H 	H 	0.3934	0.1957	0.5923	0.051
Mof_H 	H 	0.4918	0.2212	0.7416	0.018
Mof_H 	H 	0.5748	0.795	0.4167	0.052
Mof_H 	H 	0.3934	0.8043	0.4077	0.051
Mof_H 	H 	0.4918	0.7788	0.2584	0.018
Mof_H 	H 	0.4252	0.205	0.4167	0.052
Mof_H 	H 	0.6066	0.1957	0.4077	0.051
Mof_H 	H 	0.5082	0.2212	0.2584	0.018
Mof_H 	H 	0.5833	0.4252	0.795	0.052
Mof_H 	H 	0.5923	0.6066	0.8043	0.051
Mof_H 	H 	0.7416	0.5082	0.7788	0.018
Mof_H 	H 	0.5833	0.5748	0.205	0.052
Mof_H 	H 	0.5923	0.3934	0.1957	0.052
Mof_H 	H 	0.7416	0.4918	0.2212	0.019
Mof_H 	H 	0.4167	0.5748	0.795	0.053
Mof_H 	H 	0.4077	0.3934	0.8043	0.052
Mof_H 	H 	0.2584	0.4918	0.7788	0.019
Mof_H 	H 	0.4167	0.4252	0.205	0.053
Mof_H 	H 	0.4077	0.6066	0.1957	0.052
Mof_H 	H 	0.2584	0.5082	0.2212	0.019
Mof_H 	H 	0.795	0.5833	0.4252	0.053
Mof_H 	H 	0.8043	0.5923	0.6066	0.052
Mof_H 	H 	0.7788	0.7416	0.5082	0.019
Mof_H 	H 	0.205	0.5833	0.5748	0.053
Mof_H 	H 	0.1957	0.5923	0.3934	0.052
Mof_H 	H 	0.2212	0.7416	0.4918	0.019
Mof_H 	H 	0.795	0.4167	0.5748	0.053
Mof_H 	H 	0.8043	0.4077	0.3934	0.052
Mof_H 	H 	0.7788	0.2584	0.4918	0.019
Mof_H 	H 	0.205	0.4167	0.4252	0.053
Mof_H 	H 	0.1957	0.4077	0.6066	0.052
Mof_H 	H 	0.2212	0.2584	0.5082	0.019
Mof_H 	H 	0.295	0.9252	0.0833	0.053
Mof_H 	H 	0.3043	0.1066	0.0923	0.052
Mof_H 	H 	0.2788	0.0082	0.2416	0.019
Mof_H 	H 	0.705	0.0748	0.0833	0.053
Mof_H 	H 	0.6957	0.8934	0.0923	0.052
Mof_H 	H 	0.7212	0.9918	0.2416	0.019
Mof_H 	H 	0.295	0.0748	0.9167	0.053
Mof_H 	H 	0.3043	0.8934	0.9077	0.052
Mof_H 	H 	0.2788	0.9918	0.7584	0.019
Mof_H 	H 	0.705	0.9252	0.9167	0.053
Mof_H 	H 	0.6957	0.1066	0.9077	0.052
Mof_H 	H 	0.7212	0.0082	0.7584	0.019
Mof_H 	H 	0.9252	0.0833	0.295	0.053
Mof_H 	H 	0.1066	0.0923	0.3043	0.052
Mof_H 	H 	0.0082	0.2416	0.2788	0.019
Mof_H 	H 	0.0748	0.0833	0.705	0.053
Mof_H 	H 	0.8934	0.0923	0.6957	0.052
Mof_H 	H 	0.9918	0.2416	0.7212	0.019
Mof_H 	H 	0.0748	0.9167	0.295	0.053
Mof_H 	H 	0.8934	0.9077	0.3043	0.052
Mof_H 	H 	0.9918	0.7584	0.2788	0.019
Mof_H 	H 	0.9252	0.9167	0.705	0.053
Mof_H 	H 	0.1066	0.9077	0.6957	0.052
Mof_H 	H 	0.0082	0.7584	0.7212	0.019
Mof_H 	H 	0.0833	0.295	0.9252	0.053
Mof_H 	H 	0.0923	0.3043	0.1066	0.052
Mof_H 	H 	0.2416	0.2788	0.0082	0.019
Mof_H 	H 	0.0833	0.705	0.0748	0.053
Mof_H 	H 	0.0923	0.6957	0.8934	0.052
Mof_H 	H 	0.2416	0.7212	0.9918	0.019
Mof_H 	H 	0.9167	0.295	0.0748	0.053
Mof_H 	H 	0.9077	0.3043	0.8934	0.052
Mof_H 	H 	0.7584	0.2788	0.9918	0.019
Mof_H 	H 	0.9167	0.705	0.9252	0.053
Mof_H 	H 	0.9077	0.6957	0.1066	0.052
Mof_H 	H 	0.7584	0.7212	0.0082	0.019
Mof_C 	C 	0.6229	0.7947	0.7063	0.641
Mof_C 	C 	0.4607	0.795	0.6064	0.046
Mof_C 	C 	0.569	0.8009	0.6114	0.046
Mof_C 	C 	0.5655	0.7954	0.6718	-0.19
Mof_C 	C 	0.3987	0.7798	0.6972	0.591
Mof_C 	C 	0.4566	0.7889	0.6652	-0.183
Mof_C 	C 	0.5101	0.7864	0.7	0.123
Mof_C 	C 	0.5157	0.8015	0.5772	0.04
Mof_C 	C 	0.3771	0.2053	0.7063	0.641
Mof_C 	C 	0.5393	0.205	0.6064	0.046
Mof_C 	C 	0.431	0.1991	0.6114	0.046
Mof_C 	C 	0.4345	0.2046	0.6718	-0.19
Mof_C 	C 	0.6013	0.2202	0.6972	0.591
Mof_C 	C 	0.5434	0.2111	0.6652	-0.183
Mof_C 	C 	0.4899	0.2136	0.7	0.123
Mof_C 	C 	0.4843	0.1985	0.5772	0.04
Mof_C 	C 	0.3771	0.7947	0.2937	0.641
Mof_C 	C 	0.5393	0.795	0.3936	0.046
Mof_C 	C 	0.431	0.8009	0.3886	0.046
Mof_C 	C 	0.4345	0.7954	0.3282	-0.19
Mof_C 	C 	0.6013	0.7798	0.3028	0.591
Mof_C 	C 	0.5434	0.7889	0.3348	-0.183
Mof_C 	C 	0.4899	0.7864	0.3	0.123
Mof_C 	C 	0.4843	0.8015	0.4228	0.04
Mof_C 	C 	0.6229	0.2053	0.2937	0.641
Mof_C 	C 	0.4607	0.205	0.3936	0.046
Mof_C 	C 	0.569	0.1991	0.3886	0.046
Mof_C 	C 	0.5655	0.2046	0.3282	-0.19
Mof_C 	C 	0.3987	0.2202	0.3028	0.591
Mof_C 	C 	0.4566	0.2111	0.3348	-0.183
Mof_C 	C 	0.5101	0.2136	0.3	0.123
Mof_C 	C 	0.5157	0.1985	0.4228	0.04
Mof_C 	C 	0.7063	0.6229	0.7947	0.641
Mof_C 	C 	0.6064	0.4607	0.795	0.046
Mof_C 	C 	0.6114	0.569	0.8009	0.046
Mof_C 	C 	0.6718	0.5655	0.7954	-0.19
Mof_C 	C 	0.6972	0.3987	0.7798	0.591
Mof_C 	C 	0.6652	0.4566	0.7889	-0.183
Mof_C 	C 	0.7	0.5101	0.7864	0.123
Mof_C 	C 	0.5772	0.5157	0.8015	0.04
Mof_C 	C 	0.7063	0.3771	0.2053	0.641
Mof_C 	C 	0.6064	0.5393	0.205	0.046
Mof_C 	C 	0.6114	0.431	0.1991	0.046
Mof_C 	C 	0.6718	0.4345	0.2046	-0.19
Mof_C 	C 	0.6972	0.6013	0.2202	0.591
Mof_C 	C 	0.6652	0.5434	0.2111	-0.183
Mof_C 	C 	0.7	0.4899	0.2136	0.123
Mof_C 	C 	0.5772	0.4843	0.1985	0.04
Mof_C 	C 	0.2937	0.3771	0.7947	0.641
Mof_C 	C 	0.3936	0.5393	0.795	0.046
Mof_C 	C 	0.3886	0.431	0.8009	0.046
Mof_C 	C 	0.3282	0.4345	0.7954	-0.19
Mof_C 	C 	0.3028	0.6013	0.7798	0.591
Mof_C 	C 	0.3348	0.5434	0.7889	-0.183
Mof_C 	C 	0.3	0.4899	0.7864	0.123
Mof_C 	C 	0.4228	0.4843	0.8015	0.04
Mof_C 	C 	0.2937	0.6229	0.2053	0.641
Mof_C 	C 	0.3936	0.4607	0.205	0.046
Mof_C 	C 	0.3886	0.569	0.1991	0.046
Mof_C 	C 	0.3282	0.5655	0.2046	-0.19
Mof_C 	C 	0.3028	0.3987	0.2202	0.591
Mof_C 	C 	0.3348	0.4566	0.2111	-0.183
Mof_C 	C 	0.3	0.5101	0.2136	0.123
Mof_C 	C 	0.4228	0.5157	0.1985	0.04
Mof_C 	C 	0.7947	0.7063	0.6229	0.641
Mof_C 	C 	0.795	0.6064	0.4607	0.046
Mof_C 	C 	0.8009	0.6114	0.569	0.046
Mof_C 	C 	0.7954	0.6718	0.5655	-0.19
Mof_C 	C 	0.7798	0.6972	0.3987	0.591
Mof_C 	C 	0.7889	0.6652	0.4566	-0.183
Mof_C 	C 	0.7864	0.7	0.5101	0.123
Mof_C 	C 	0.8015	0.5772	0.5157	0.04
Mof_C 	C 	0.2053	0.7063	0.3771	0.641
Mof_C 	C 	0.205	0.6064	0.5393	0.046
Mof_C 	C 	0.1991	0.6114	0.431	0.046
Mof_C 	C 	0.2046	0.6718	0.4345	-0.19
Mof_C 	C 	0.2202	0.6972	0.6013	0.591
Mof_C 	C 	0.2111	0.6652	0.5434	-0.183
Mof_C 	C 	0.2136	0.7	0.4899	0.123
Mof_C 	C 	0.1985	0.5772	0.4843	0.04
Mof_C 	C 	0.7947	0.2937	0.3771	0.641
Mof_C 	C 	0.795	0.3936	0.5393	0.046
Mof_C 	C 	0.8009	0.3886	0.431	0.046
Mof_C 	C 	0.7954	0.3282	0.4345	-0.19
Mof_C 	C 	0.7798	0.3028	0.6013	0.591
Mof_C 	C 	0.7889	0.3348	0.5434	-0.183
Mof_C 	C 	0.7864	0.3	0.4899	0.123
Mof_C 	C 	0.8015	0.4228	0.4843	0.04
Mof_C 	C 	0.2053	0.2937	0.6229	0.641
Mof_C 	C 	0.205	0.3936	0.4607	0.046
Mof_C 	C 	0.1991	0.3886	0.569	0.046
Mof_C 	C 	0.2046	0.3282	0.5655	-0.19
Mof_C 	C 	0.2202	0.3028	0.3987	0.591
Mof_C 	C 	0.2111	0.3348	0.4566	-0.183
Mof_C 	C 	0.2136	0.3	0.5101	0.123
Mof_C 	C 	0.1985	0.4228	0.5157	0.04
Mof_C 	C 	0.2947	0.1229	0.2063	0.641
Mof_C 	C 	0.295	0.9607	0.1064	0.046
Mof_C 	C 	0.3009	0.069	0.1114	0.046
Mof_C 	C 	0.2954	0.0655	0.1718	-0.19
Mof_C 	C 	0.2798	0.8987	0.1972	0.591
Mof_C 	C 	0.2889	0.9566	0.1652	-0.183
Mof_C 	C 	0.2864	0.0101	0.2	0.122
Mof_C 	C 	0.3015	0.0157	0.0772	0.04
Mof_C 	C 	0.7053	0.8771	0.2063	0.641
Mof_C 	C 	0.705	0.0393	0.1064	0.046
Mof_C 	C 	0.6991	0.931	0.1114	0.046
Mof_C 	C 	0.7046	0.9345	0.1718	-0.19
Mof_C 	C 	0.7202	0.1013	0.1972	0.591
Mof_C 	C 	0.7111	0.0434	0.1652	-0.183
Mof_C 	C 	0.7136	0.9899	0.2	0.122
Mof_C 	C 	0.6985	0.9843	0.0772	0.04
Mof_C 	C 	0.2947	0.8771	0.7937	0.641
Mof_C 	C 	0.295	0.0393	0.8936	0.046
Mof_C 	C 	0.3009	0.931	0.8886	0.046
Mof_C 	C 	0.2954	0.9345	0.8282	-0.19
Mof_C 	C 	0.2798	0.1013	0.8028	0.591
Mof_C 	C 	0.2889	0.0434	0.8348	-0.183
Mof_C 	C 	0.2864	0.9899	0.8	0.122
Mof_C 	C 	0.3015	0.9843	0.9228	0.04
Mof_C 	C 	0.7053	0.1229	0.7937	0.641
Mof_C 	C 	0.705	0.9607	0.8936	0.046
Mof_C 	C 	0.6991	0.069	0.8886	0.046
Mof_C 	C 	0.7046	0.0655	0.8282	-0.19
Mof_C 	C 	0.7202	0.8987	0.8028	0.591
Mof_C 	C 	0.7111	0.9566	0.8348	-0.183
Mof_C 	C 	0.7136	0.0101	0.8	0.122
Mof_C 	C 	0.6985	0.0157	0.9228	0.04
Mof_C 	C 	0.1229	0.2063	0.2947	0.641
Mof_C 	C 	0.9607	0.1064	0.295	0.046
Mof_C 	C 	0.069	0.1114	0.3009	0.046
Mof_C 	C 	0.0655	0.1718	0.2954	-0.19
Mof_C 	C 	0.8987	0.1972	0.2798	0.591
Mof_C 	C 	0.9566	0.1652	0.2889	-0.183
Mof_C 	C 	0.0101	0.2	0.2864	0.122
Mof_C 	C 	0.0157	0.0772	0.3015	0.04
Mof_C 	C 	0.8771	0.2063	0.7053	0.641
Mof_C 	C 	0.0393	0.1064	0.705	0.046
Mof_C 	C 	0.931	0.1114	0.6991	0.046
Mof_C 	C 	0.9345	0.1718	0.7046	-0.19
Mof_C 	C 	0.1013	0.1972	0.7202	0.591
Mof_C 	C 	0.0434	0.1652	0.7111	-0.183
Mof_C 	C 	0.9899	0.2	0.7136	0.122
Mof_C 	C 	0.9843	0.0772	0.6985	0.04
Mof_C 	C 	0.8771	0.7937	0.2947	0.641
Mof_C 	C 	0.0393	0.8936	0.295	0.046
Mof_C 	C 	0.931	0.8886	0.3009	0.046
Mof_C 	C 	0.9345	0.8282	0.2954	-0.19
Mof_C 	C 	0.1013	0.8028	0.2798	0.591
Mof_C 	C 	0.0434	0.8348	0.2889	-0.183
Mof_C 	C 	0.9899	0.8	0.2864	0.122
Mof_C 	C 	0.9843	0.9228	0.3015	0.04
Mof_C 	C 	0.1229	0.7937	0.7053	0.641
Mof_C 	C 	0.9607	0.8936	0.705	0.046
Mof_C 	C 	0.069	0.8886	0.6991	0.046
Mof_C 	C 	0.0655	0.8282	0.7046	-0.19
Mof_C 	C 	0.8987	0.8028	0.7202	0.591
Mof_C 	C 	0.9566	0.8348	0.7111	-0.183
Mof_C 	C 	0.0101	0.8	0.7136	0.122
Mof_C 	C 	0.0157	0.9228	0.6985	0.04
Mof_C 	C 	0.2063	0.2947	0.1229	0.641
Mof_C 	C 	0.1064	0.295	0.9607	0.046
Mof_C 	C 	0.1114	0.3009	0.069	0.046
Mof_C 	C 	0.1718	0.2954	0.0655	-0.19
Mof_C 	C 	0.1972	0.2798	0.8987	0.591
Mof_C 	C 	0.1652	0.2889	0.9566	-0.183
Mof_C 	C 	0.2	0.2864	0.0101	0.122
Mof_C 	C 	0.0772	0.3015	0.0157	0.04
Mof_C 	C 	0.2063	0.7053	0.8771	0.641
Mof_C 	C 	0.1064	0.705	0.0393	0.046
Mof_C 	C 	0.1114	0.6991	0.931	0.046
Mof_C 	C 	0.1718	0.7046	0.9345	-0.19
Mof_C 	C 	0.1972	0.7202	0.1013	0.591
Mof_C 	C 	0.1652	0.7111	0.0434	-0.183
Mof_C 	C 	0.2	0.7136	0.9899	0.122
Mof_C 	C 	0.0772	0.6985	0.9843	0.04
Mof_C 	C 	0.7937	0.2947	0.8771	0.641
Mof_C 	C 	0.8936	0.295	0.0393	0.046
Mof_C 	C 	0.8886	0.3009	0.931	0.046
Mof_C 	C 	0.8282	0.2954	0.9345	-0.19
Mof_C 	C 	0.8028	0.2798	0.1013	0.591
Mof_C 	C 	0.8348	0.2889	0.0434	-0.183
Mof_C 	C 	0.8	0.2864	0.9899	0.122
Mof_C 	C 	0.9228	0.3015	0.9843	0.04
Mof_C 	C 	0.7937	0.7053	0.1229	0.641
Mof_C 	C 	0.8936	0.705	0.9607	0.046
Mof_C 	C 	0.8886	0.6991	0.069	0.046
Mof_C 	C 	0.8282	0.7046	0.0655	-0.19
Mof_C 	C 	0.8028	0.7202	0.8987	0.591
Mof_C 	C 	0.8348	0.7111	0.9566	-0.183
Mof_C 	C 	0.8	0.7136	0.0101	0.122
Mof_C 	C 	0.9228	0.6985	0.0157	0.04
Mof_N 	N 	0.5225	0.8077	0.5158	-0.068
Mof_N 	N 	0.4775	0.1923	0.5158	-0.068
Mof_N 	N 	0.4775	0.8077	0.4842	-0.068
Mof_N 	N 	0.5225	0.1923	0.4842	-0.068
Mof_N 	N 	0.5158	0.5225	0.8077	-0.068
Mof_N 	N 	0.5158	0.4775	0.1923	-0.068
Mof_N 	N 	0.4842	0.4775	0.8077	-0.068
Mof_N 	N 	0.4842	0.5225	0.1923	-0.068
Mof_N 	N 	0.8077	0.5158	0.5225	-0.068
Mof_N 	N 	0.1923	0.5158	0.4775	-0.068
Mof_N 	N 	0.8077	0.4842	0.4775	-0.068
Mof_N 	N 	0.1923	0.4842	0.5225	-0.068
Mof_N 	N 	0.3077	0.0225	0.0158	-0.068
Mof_N 	N 	0.6923	0.9775	0.0158	-0.068
Mof_N 	N 	0.3077	0.9775	0.9842	-0.068
Mof_N 	N 	0.6923	0.0225	0.9842	-0.068
Mof_N 	N 	0.0225	0.0158	0.3077	-0.068
Mof_N 	N 	0.9775	0.0158	0.6923	-0.068
Mof_N 	N 	0.9775	0.9842	0.3077	-0.068
Mof_N 	N 	0.0225	0.9842	0.6923	-0.068
Mof_N 	N 	0.0158	0.3077	0.0225	-0.068
Mof_N 	N 	0.0158	0.6923	0.9775	-0.068
Mof_N 	N 	0.9842	0.3077	0.9775	-0.068
Mof_N 	N 	0.9842	0.6923	0.0225	-0.068
Mof_O 	O 	0.397	0.7613	0.7484	-0.719
Mof_O 	O 	0.6222	0.7791	0.7588	-0.736
Mof_O 	O 	0.3536	0.7939	0.6634	-0.725
Mof_O 	O 	0.6673	0.8104	0.6763	-0.751
Mof_O 	O 	0.3892	0.7375	0.8761	-0.461
Mof_O 	O 	0.603	0.2387	0.7484	-0.719
Mof_O 	O 	0.3778	0.2209	0.7588	-0.736
Mof_O 	O 	0.6464	0.2061	0.6634	-0.725
Mof_O 	O 	0.3327	0.1896	0.6763	-0.751
Mof_O 	O 	0.6108	0.2625	0.8761	-0.461
Mof_O 	O 	0.603	0.7613	0.2516	-0.719
Mof_O 	O 	0.3778	0.7791	0.2412	-0.736
Mof_O 	O 	0.6464	0.7939	0.3366	-0.725
Mof_O 	O 	0.3327	0.8104	0.3237	-0.751
Mof_O 	O 	0.6108	0.7375	0.1239	-0.461
Mof_O 	O 	0.397	0.2387	0.2516	-0.719
Mof_O 	O 	0.6222	0.2209	0.2412	-0.736
Mof_O 	O 	0.3536	0.2061	0.3366	-0.725
Mof_O 	O 	0.6673	0.1896	0.3237	-0.751
Mof_O 	O 	0.3892	0.2625	0.1239	-0.461
Mof_O 	O 	0.7484	0.397	0.7613	-0.719
Mof_O 	O 	0.7588	0.6222	0.7791	-0.736
Mof_O 	O 	0.6634	0.3536	0.7939	-0.725
Mof_O 	O 	0.6763	0.6673	0.8104	-0.751
Mof_O 	O 	0.8761	0.3892	0.7375	-0.461
Mof_O 	O 	0.7484	0.603	0.2387	-0.719
Mof_O 	O 	0.7588	0.3778	0.2209	-0.736
Mof_O 	O 	0.6634	0.6464	0.2061	-0.725
Mof_O 	O 	0.6763	0.3327	0.1896	-0.751
Mof_O 	O 	0.8761	0.6108	0.2625	-0.461
Mof_O 	O 	0.2516	0.603	0.7613	-0.719
Mof_O 	O 	0.2412	0.3778	0.7791	-0.736
Mof_O 	O 	0.3366	0.6464	0.7939	-0.725
Mof_O 	O 	0.3237	0.3327	0.8104	-0.751
Mof_O 	O 	0.1239	0.6108	0.7375	-0.461
Mof_O 	O 	0.2516	0.397	0.2387	-0.719
Mof_O 	O 	0.2412	0.6222	0.2209	-0.736
Mof_O 	O 	0.3366	0.3536	0.2061	-0.725
Mof_O 	O 	0.3237	0.6673	0.1896	-0.751
Mof_O 	O 	0.1239	0.3892	0.2625	-0.461
Mof_O 	O 	0.7613	0.7484	0.397	-0.719
Mof_O 	O 	0.7791	0.7588	0.6222	-0.736
Mof_O 	O 	0.7939	0.6634	0.3536	-0.725
Mof_O 	O 	0.8104	0.6763	0.6673	-0.751
Mof_O 	O 	0.7375	0.8761	0.3892	-0.461
Mof_O 	O 	0.2387	0.7484	0.603	-0.719
Mof_O 	O 	0.2209	0.7588	0.3778	-0.736
Mof_O 	O 	0.2061	0.6634	0.6464	-0.725
Mof_O 	O 	0.1896	0.6763	0.3327	-0.751
Mof_O 	O 	0.2625	0.8761	0.6108	-0.461
Mof_O 	O 	0.7613	0.2516	0.603	-0.719
Mof_O 	O 	0.7791	0.2412	0.3778	-0.736
Mof_O 	O 	0.7939	0.3366	0.6464	-0.725
Mof_O 	O 	0.8104	0.3237	0.3327	-0.751
Mof_O 	O 	0.7375	0.1239	0.6108	-0.461
Mof_O 	O 	0.2387	0.2516	0.397	-0.719
Mof_O 	O 	0.2209	0.2412	0.6222	-0.736
Mof_O 	O 	0.2061	0.3366	0.3536	-0.725
Mof_O 	O 	0.1896	0.3237	0.6673	-0.751
Mof_O 	O 	0.2625	0.1239	0.3892	-0.461
Mof_O 	O 	0.2613	0.897	0.2484	-0.719
Mof_O 	O 	0.2791	0.1222	0.2588	-0.736
Mof_O 	O 	0.2939	0.8536	0.1634	-0.725
Mof_O 	O 	0.3104	0.1673	0.1763	-0.751
Mof_O 	O 	0.2375	0.8892	0.3761	-0.461
Mof_O 	O 	0.7387	0.103	0.2484	-0.719
Mof_O 	O 	0.7209	0.8778	0.2588	-0.736
Mof_O 	O 	0.7061	0.1464	0.1634	-0.725
Mof_O 	O 	0.6896	0.8327	0.1763	-0.751
Mof_O 	O 	0.7625	0.1108	0.3761	-0.461
Mof_O 	O 	0.2613	0.103	0.7516	-0.719
Mof_O 	O 	0.2791	0.8778	0.7412	-0.736
Mof_O 	O 	0.2939	0.1464	0.8366	-0.725
Mof_O 	O 	0.3104	0.8327	0.8237	-0.751
Mof_O 	O 	0.2375	0.1108	0.6239	-0.461
Mof_O 	O 	0.7387	0.897	0.7516	-0.719
Mof_O 	O 	0.7209	0.1222	0.7412	-0.736
Mof_O 	O 	0.7061	0.8536	0.8366	-0.725
Mof_O 	O 	0.6896	0.1673	0.8237	-0.751
Mof_O 	O 	0.7625	0.8892	0.6239	-0.461
Mof_O 	O 	0.897	0.2484	0.2613	-0.719
Mof_O 	O 	0.1222	0.2588	0.2791	-0.736
Mof_O 	O 	0.8536	0.1634	0.2939	-0.725
Mof_O 	O 	0.1673	0.1763	0.3104	-0.751
Mof_O 	O 	0.8892	0.3761	0.2375	-0.461
Mof_O 	O 	0.103	0.2484	0.7387	-0.719
Mof_O 	O 	0.8778	0.2588	0.7209	-0.736
Mof_O 	O 	0.1464	0.1634	0.7061	-0.725
Mof_O 	O 	0.8327	0.1763	0.6896	-0.751
Mof_O 	O 	0.1108	0.3761	0.7625	-0.461
Mof_O 	O 	0.103	0.7516	0.2613	-0.719
Mof_O 	O 	0.8778	0.7412	0.2791	-0.736
Mof_O 	O 	0.1464	0.8366	0.2939	-0.725
Mof_O 	O 	0.8327	0.8237	0.3104	-0.751
Mof_O 	O 	0.1108	0.6239	0.2375	-0.461
Mof_O 	O 	0.897	0.7516	0.7387	-0.719
Mof_O 	O 	0.1222	0.7412	0.7209	-0.736
Mof_O 	O 	0.8536	0.8366	0.7061	-0.725
Mof_O 	O 	0.1673	0.8237	0.6896	-0.751
Mof_O 	O 	0.8892	0.6239	0.7625	-0.461
Mof_O 	O 	0.2484	0.2613	0.897	-0.719
Mof_O 	O 	0.2588	0.2791	0.1222	-0.736
Mof_O 	O 	0.1634	0.2939	0.8536	-0.725
Mof_O 	O 	0.1763	0.3104	0.1673	-0.751
Mof_O 	O 	0.3761	0.2375	0.8892	-0.461
Mof_O 	O 	0.2484	0.7387	0.103	-0.719
Mof_O 	O 	0.2588	0.7209	0.8778	-0.736
Mof_O 	O 	0.1634	0.7061	0.1464	-0.725
Mof_O 	O 	0.1763	0.6896	0.8327	-0.751
Mof_O 	O 	0.3761	0.7625	0.1108	-0.461
Mof_O 	O 	0.7516	0.2613	0.103	-0.719
Mof_O 	O 	0.7412	0.2791	0.8778	-0.736
Mof_O 	O 	0.8366	0.2939	0.1464	-0.725
Mof_O 	O 	0.8237	0.3104	0.8327	-0.751
Mof_O 	O 	0.6239	0.2375	0.1108	-0.461
Mof_O 	O 	0.7516	0.7387	0.897	-0.719
Mof_O 	O 	0.7412	0.7209	0.1222	-0.736
Mof_O 	O 	0.8366	0.7061	0.8536	-0.725
Mof_O 	O 	0.8237	0.6896	0.1673	-0.751
Mof_O 	O 	0.6239	0.7625	0.8892	-0.461
Mof_O 	O 	0.2593	0.7407	0.7407	-1.469
Mof_O 	O 	0.7407	0.2593	0.7407	-1.469
Mof_O 	O 	0.7407	0.7407	0.2593	-1.469
Mof_O 	O 	0.2593	0.2593	0.2593	-1.469
Mof_O 	O 	0.2407	0.7593	0.2407	-1.469
Mof_O 	O 	0.7593	0.2407	0.2407	-1.469
Mof_O 	O 	0.2407	0.2407	0.7593	-1.469
Mof_O 	O 	0.7593	0.7593	0.7593	-1.469
Mof_N 	N 	0.1401	0.8599	0.8599	0.041
Mof_O 	O 	0.171	0.904	0.847	-0.103
Mof_O 	O 	0.153	0.829	0.904	-0.103
Mof_O 	O 	0.096	0.847	0.829	-0.103
Mof_N 	N 	0.3951	0.6049	0.6049	0.038
Mof_O 	O 	0.4413	0.623	0.632	-0.082
Mof_O 	O 	0.368	0.5587	0.623	-0.082
Mof_O 	O 	0.377	0.632	0.5587	-0.082
Mof_N 	N 	0.8599	0.1401	0.8599	0.041
Mof_O 	O 	0.829	0.096	0.847	-0.103
Mof_O 	O 	0.847	0.171	0.904	-0.103
Mof_O 	O 	0.904	0.153	0.829	-0.103
Mof_N 	N 	0.6049	0.3951	0.6049	0.038
Mof_O 	O 	0.5587	0.377	0.632	-0.082
Mof_O 	O 	0.632	0.4413	0.623	-0.082
Mof_O 	O 	0.623	0.368	0.5587	-0.082
Mof_N 	N 	0.8599	0.8599	0.1401	0.041
Mof_O 	O 	0.829	0.904	0.153	-0.103
Mof_O 	O 	0.847	0.829	0.096	-0.103
Mof_O 	O 	0.904	0.847	0.171	-0.103
Mof_N 	N 	0.6049	0.6049	0.3951	0.038
Mof_O 	O 	0.5587	0.623	0.368	-0.082
Mof_O 	O 	0.632	0.5587	0.377	-0.082
Mof_O 	O 	0.623	0.632	0.4413	-0.082
Mof_N 	N 	0.1401	0.1401	0.1401	0.041
Mof_O 	O 	0.171	0.096	0.153	-0.103
Mof_O 	O 	0.153	0.171	0.096	-0.103
Mof_O 	O 	0.096	0.153	0.171	-0.103
Mof_N 	N 	0.3951	0.3951	0.3951	0.038
Mof_O 	O 	0.4413	0.377	0.368	-0.082
Mof_O 	O 	0.368	0.4413	0.377	-0.082
Mof_O 	O 	0.377	0.368	0.4413	-0.082
Mof_N 	N 	0.3599	0.6401	0.3599	0.041
Mof_O 	O 	0.404	0.671	0.347	-0.103
Mof_O 	O 	0.329	0.653	0.404	-0.103
Mof_O 	O 	0.347	0.596	0.329	-0.103
Mof_N 	N 	0.1049	0.8951	0.1049	0.038
Mof_O 	O 	0.123	0.9413	0.132	-0.083
Mof_O 	O 	0.0587	0.868	0.123	-0.083
Mof_O 	O 	0.132	0.877	0.0587	-0.083
Mof_N 	N 	0.6401	0.3599	0.3599	0.041
Mof_O 	O 	0.596	0.329	0.347	-0.103
Mof_O 	O 	0.671	0.347	0.404	-0.103
Mof_O 	O 	0.653	0.404	0.329	-0.103
Mof_N 	N 	0.8951	0.1049	0.1049	0.038
Mof_O 	O 	0.877	0.0587	0.132	-0.083
Mof_O 	O 	0.9413	0.132	0.123	-0.083
Mof_O 	O 	0.868	0.123	0.0587	-0.083
Mof_N 	N 	0.3599	0.3599	0.6401	0.041
Mof_O 	O 	0.404	0.329	0.653	-0.103
Mof_O 	O 	0.329	0.347	0.596	-0.103
Mof_O 	O 	0.347	0.404	0.671	-0.103
Mof_N 	N 	0.1049	0.1049	0.8951	0.038
Mof_O 	O 	0.123	0.0587	0.868	-0.083
Mof_O 	O 	0.0587	0.132	0.877	-0.083
Mof_O 	O 	0.132	0.123	0.9413	-0.083
Mof_N 	N 	0.6401	0.6401	0.6401	0.041
Mof_O 	O 	0.596	0.671	0.653	-0.103
Mof_O 	O 	0.671	0.653	0.596	-0.103
Mof_O 	O 	0.653	0.596	0.671	-0.103
Mof_N 	N 	0.8951	0.8951	0.8951	0.038
Mof_O 	O 	0.877	0.9413	0.868	-0.083
Mof_O 	O 	0.9413	0.868	0.877	-0.083
Mof_O 	O 	0.868	0.877	0.9413	-0.083
_end
