data_functionalizedCrystal
_audit_creation_method	'EQeq! by Chris Wilmer'
_symmetry_space_group_name_H-M	'P1'
_symmetry_Int_Tables_number	1
_symmetry_cell_setting	triclinic
loop_
_symmetry_equiv_pos_as_xyz
  x,y,z
_cell_length_a	14.1046
_cell_length_b	19.926
_cell_length_c	25.9898
_cell_angle_alpha	90
_cell_angle_beta	90.005
_cell_angle_gamma	90
loop_
_atom_site_label
_atom_site_type_symbol
_atom_site_fract_x
_atom_site_fract_y
_atom_site_fract_z
_atom_site_charge
Mof_C 	C 	0.8683	0.1448	0.51092	-0.13
Mof_C 	C 	0.8377	0.2037	0.489	0.052
Mof_H 	H 	0.8488	0.2448	0.5057	0.028
Mof_C 	C 	0.7913	0.2028	0.4428	-0.104
Mof_H 	H 	0.7715	0.2437	0.4283	0.067
Mof_C 	C 	0.8021	0.0844	0.4396	-0.106
Mof_H 	H 	0.7884	0.0433	0.4236	0.068
Mof_C 	C 	0.7722	0.1437	0.4167	0.038
Mof_C 	C 	0.8715	0.146	0.77097	-0.158
Mof_C 	C 	0.8177	0.0874	0.846	-0.137
Mof_H 	H 	0.8133	0.047	0.8647	0.083
Mof_C 	C 	0.8642	0.0873	0.7996	0.078
Mof_H 	H 	0.8913	0.0474	0.7871	0.019
Mof_C 	C 	0.8266	0.2005	0.789	0.081
Mof_H 	H 	0.8274	0.2403	0.7696	0.019
Mof_C 	C 	0.7791	0.1995	0.8357	-0.139
Mof_H 	H 	0.7471	0.2383	0.8467	0.081
Mof_C 	C 	0.9241	0.1479	0.72093	0.427
Mof_C 	C 	0.6275	0.1453	0.27093	-0.16
Mof_C 	C 	0.5763	0.1474	0.22091	0.418
Mof_C 	C 	0.9762	0.9399	0.6029	0.11
Mof_H 	H 	0.9564	0.9633	0.5734	-0.012
Mof_C 	C 	0.968	0.8705	0.6039	-0.217
Mof_H 	H 	0.9398	0.8475	0.5762	0.11
Mof_C 	C 	0.0016	0.836	0.6459	0.216
Mof_C 	C 	0.0385	0.871	0.6843	-0.237
Mof_H 	H 	0.0622	0.8483	0.7133	0.123
Mof_C 	C 	0.0428	0.9405	0.6825	0.146
Mof_H 	H 	0.0687	0.9638	0.7106	-0.027
Mof_C 	C 	0.8513	0.0843	0.4852	0.048
Mof_H 	H 	0.8735	0.0436	0.499	0.025
Mof_C 	C 	0.9222	0.1462	0.56102	0.411
Mof_C 	C 	0.2729	0.1727	0.6486	-0.158
Mof_C 	C 	0.1796	0.1397	0.6445	0.398
Mof_C 	C 	0.3555	0.1354	0.6563	0.071
Mof_H 	H 	0.3514	0.0884	0.6591	0.017
Mof_C 	C 	0.4413	0.1653	0.6599	-0.127
Mof_H 	H 	0.495	0.1389	0.667	0.072
Mof_C 	C 	0.452	0.2338	0.6534	0.053
Mof_C 	C 	0.3703	0.2706	0.645	-0.127
Mof_H 	H 	0.3743	0.3173	0.6405	0.073
Mof_C 	C 	0.2836	0.2397	0.6432	0.076
Mof_H 	H 	0.2293	0.2662	0.6381	0.02
Mof_C 	C 	0.7197	0.2002	0.3361	-0.138
Mof_H 	H 	0.7498	0.2395	0.3476	0.081
Mof_C 	C 	0.6831	0.0874	0.3453	-0.143
Mof_H 	H 	0.69	0.0465	0.3629	0.085
Mof_C 	C 	0.6741	0.2003	0.2892	0.08
Mof_H 	H 	0.6751	0.2396	0.2692	0.02
Mof_C 	C 	0.6344	0.088	0.3	0.084
Mof_H 	H 	0.605	0.0484	0.2884	0.016
Mof_C 	C 	0.5581	0.3355	0.6598	-0.131
Mof_H 	H 	0.5045	0.3625	0.6658	0.073
Mof_C 	C 	0.6293	0.2298	0.6457	-0.13
Mof_H 	H 	0.6253	0.183	0.6416	0.074
Mof_C 	C 	0.6449	0.3641	0.6571	0.079
Mof_H 	H 	0.6499	0.4109	0.6609	0.015
Mof_C 	C 	0.717	0.2604	0.6435	0.083
Mof_H 	H 	0.7713	0.2339	0.638	0.017
Mof_C 	C 	0.7269	0.3269	0.6489	-0.169
Mof_C 	C 	0.8201	0.36	0.6445	0.412
Mof_C 	C 	0.5475	0.266	0.6537	0.055
Mof_C 	C 	0.7221	0.1436	0.3662	0.072
Mof_C 	C 	0.7777	0.1438	0.8659	0.072
Mof_C 	C 	0.7275	0.144	0.9168	0.038
Mof_C 	C 	0.71	0.2035	0.9427	-0.105
Mof_H 	H 	0.7321	0.2443	0.9289	0.066
Mof_C 	C 	0.6977	0.0842	0.9394	-0.108
Mof_H 	H 	0.7103	0.0432	0.9228	0.068
Mof_C 	C 	0.6603	0.2037	0.9886	0.05
Mof_H 	H 	0.6459	0.2447	0.0046	0.027
Mof_C 	C 	0.6317	0.1442	0.01112	-0.134
Mof_C 	C 	0.6499	0.0842	0.9859	0.05
Mof_H 	H 	0.6298	0.0434	0.0005	0.024
Mof_C 	C 	0.5782	0.1464	0.06083	0.41
Mof_C 	C 	0.9985	0.6637	0.6463	0.211
Mof_C 	C 	0.0293	0.6302	0.6048	-0.224
Mof_H 	H 	0.0545	0.6537	0.5765	0.117
Mof_C 	C 	0.9623	0.6285	0.6847	-0.244
Mof_H 	H 	0.9379	0.6509	0.7137	0.121
Mof_C 	C 	0.96	0.5596	0.6827	0.149
Mof_H 	H 	0.9363	0.536	0.7112	-0.028
Mof_C 	C 	0.0239	0.5609	0.6039	0.129
Mof_H 	H 	0.0456	0.5381	0.5745	-0.017
Mof_N 	N 	0.9896	0.5253	0.64269	-0.273
Mof_N 	N 	0.0122	0.9747	0.6431	-0.267
Mof_N 	N 	0.0101	0.7316	0.6339	-0.099
Mof_N 	N 	0.9988	0.7697	0.6641	-0.118
Mof_O 	O 	0.9608	0.09319	0.70629	-0.489
Mof_O 	O 	0.926	0.20166	0.69748	-0.463
Mof_O 	O 	0.572	0.20044	0.08354	-0.458
Mof_O 	O 	0.5433	0.09064	0.07615	-0.486
Mof_O 	O 	0.9567	0.09076	0.57612	-0.487
Mof_O 	O 	0.5744	0.2018	0.1973	-0.457
Mof_O 	O 	0.5392	0.09276	0.2059	-0.488
Mof_O 	O 	0.1719	0.07681	0.6463	-0.439
Mof_O 	O 	0.106	0.17362	0.63937	-0.53
Mof_O 	O 	0.8291	0.42258	0.6466	-0.443
Mof_O 	O 	0.8938	0.32693	0.63894	-0.533
Mof_O 	O 	0.9281	0.20061	0.58342	-0.457
Mof_Zn	Zn	0.02442	0.07819	0.64081	1.222
Mof_Zn	Zn	9e-05	0.25002	0.64062	1.252
Mof_Zn	Zn	0.9756	0.42185	0.64068	1.225
Mof_N 	N 	0.9937	0.7596	0.6261	-0.01
Mof_N 	N 	0.9982	0.74	0.6688	0.017
Mof_C 	C 	0.3683	0.3552	0.01092	-0.13
Mof_C 	C 	0.3377	0.2963	0.989	0.05
Mof_H 	H 	0.3488	0.2552	0.0057	0.027
Mof_C 	C 	0.2913	0.2972	0.9428	-0.105
Mof_H 	H 	0.2715	0.2563	0.9283	0.066
Mof_C 	C 	0.3021	0.4156	0.9396	-0.107
Mof_H 	H 	0.2884	0.4567	0.9236	0.068
Mof_C 	C 	0.2722	0.3563	0.9167	0.037
Mof_C 	C 	0.3715	0.354	0.27097	-0.159
Mof_C 	C 	0.3177	0.4126	0.346	-0.138
Mof_H 	H 	0.3133	0.453	0.3647	0.083
Mof_C 	C 	0.3642	0.4127	0.2996	0.078
Mof_H 	H 	0.3913	0.4526	0.2871	0.018
Mof_C 	C 	0.3266	0.2995	0.289	0.082
Mof_H 	H 	0.3274	0.2597	0.2696	0.018
Mof_C 	C 	0.2791	0.3005	0.3357	-0.14
Mof_H 	H 	0.2471	0.2617	0.3467	0.081
Mof_C 	C 	0.4241	0.3521	0.22093	0.427
Mof_C 	C 	0.1275	0.3547	0.77093	-0.16
Mof_C 	C 	0.0763	0.3526	0.72091	0.418
Mof_C 	C 	0.4762	0.5601	0.1029	0.112
Mof_H 	H 	0.4564	0.5367	0.0734	-0.011
Mof_C 	C 	0.468	0.6295	0.1039	-0.212
Mof_H 	H 	0.4398	0.6525	0.0762	0.109
Mof_C 	C 	0.5016	0.664	0.1459	0.209
Mof_C 	C 	0.5385	0.629	0.1843	-0.233
Mof_H 	H 	0.5622	0.6517	0.2133	0.121
Mof_C 	C 	0.5428	0.5595	0.1825	0.144
Mof_H 	H 	0.5687	0.5362	0.2106	-0.027
Mof_C 	C 	0.3513	0.4157	0.9852	0.047
Mof_H 	H 	0.3735	0.4564	0.999	0.025
Mof_C 	C 	0.4222	0.3538	0.06102	0.411
Mof_C 	C 	0.7729	0.3273	0.1486	-0.159
Mof_C 	C 	0.6796	0.3603	0.1445	0.398
Mof_C 	C 	0.8555	0.3646	0.1563	0.073
Mof_H 	H 	0.8514	0.4116	0.1591	0.017
Mof_C 	C 	0.9413	0.3347	0.1599	-0.13
Mof_H 	H 	0.995	0.3611	0.167	0.073
Mof_C 	C 	0.952	0.2662	0.1534	0.056
Mof_C 	C 	0.8703	0.2294	0.145	-0.129
Mof_H 	H 	0.8743	0.1827	0.1405	0.075
Mof_C 	C 	0.7836	0.2603	0.1432	0.078
Mof_H 	H 	0.7293	0.2338	0.1381	0.02
Mof_C 	C 	0.2197	0.2998	0.8361	-0.138
Mof_H 	H 	0.2498	0.2605	0.8476	0.081
Mof_C 	C 	0.1831	0.4126	0.8453	-0.143
Mof_H 	H 	0.19	0.4535	0.8629	0.085
Mof_C 	C 	0.1741	0.2997	0.7892	0.08
Mof_H 	H 	0.1751	0.2604	0.7692	0.019
Mof_C 	C 	0.1344	0.412	0.8	0.084
Mof_H 	H 	0.105	0.4516	0.7884	0.016
Mof_C 	C 	0.0581	0.1645	0.1598	-0.129
Mof_H 	H 	0.0045	0.1375	0.1658	0.072
Mof_C 	C 	0.1293	0.2702	0.1457	-0.129
Mof_H 	H 	0.1253	0.317	0.1416	0.073
Mof_C 	C 	0.1449	0.1359	0.1571	0.077
Mof_H 	H 	0.1499	0.0891	0.1609	0.014
Mof_C 	C 	0.217	0.2396	0.1435	0.082
Mof_H 	H 	0.2713	0.2661	0.138	0.017
Mof_C 	C 	0.2269	0.1731	0.1489	-0.168
Mof_C 	C 	0.3201	0.14	0.1445	0.412
Mof_C 	C 	0.0475	0.234	0.1537	0.051
Mof_C 	C 	0.2221	0.3564	0.8662	0.072
Mof_C 	C 	0.2777	0.3562	0.3659	0.072
Mof_C 	C 	0.2275	0.356	0.4168	0.037
Mof_C 	C 	0.21	0.2965	0.4427	-0.104
Mof_H 	H 	0.2321	0.2557	0.4289	0.065
Mof_C 	C 	0.1977	0.4158	0.4394	-0.107
Mof_H 	H 	0.2103	0.4568	0.4228	0.067
Mof_C 	C 	0.1603	0.2963	0.4886	0.048
Mof_H 	H 	0.1459	0.2553	0.5046	0.027
Mof_C 	C 	0.1317	0.3558	0.51112	-0.134
Mof_C 	C 	0.1499	0.4158	0.4859	0.048
Mof_H 	H 	0.1298	0.4566	0.5005	0.025
Mof_C 	C 	0.0782	0.3536	0.56083	0.41
Mof_C 	C 	0.4985	0.8363	0.1463	0.217
Mof_C 	C 	0.5293	0.8698	0.1048	-0.229
Mof_H 	H 	0.5545	0.8463	0.0765	0.118
Mof_C 	C 	0.4623	0.8715	0.1847	-0.248
Mof_H 	H 	0.4379	0.8491	0.2137	0.122
Mof_C 	C 	0.46	0.9404	0.1827	0.151
Mof_H 	H 	0.4363	0.964	0.2112	-0.029
Mof_C 	C 	0.5239	0.9391	0.1039	0.131
Mof_H 	H 	0.5456	0.9619	0.0745	-0.018
Mof_N 	N 	0.4896	0.9747	0.14269	-0.274
Mof_N 	N 	0.5122	0.5253	0.1431	-0.268
Mof_N 	N 	0.5101	0.7684	0.1339	-0.11
Mof_N 	N 	0.4988	0.7303	0.1641	-0.119
Mof_O 	O 	0.4608	0.40681	0.20629	-0.491
Mof_O 	O 	0.426	0.29834	0.19748	-0.464
Mof_O 	O 	0.072	0.29956	0.58354	-0.459
Mof_O 	O 	0.0433	0.40936	0.57615	-0.486
Mof_O 	O 	0.4567	0.40924	0.07612	-0.489
Mof_O 	O 	0.0744	0.2982	0.6973	-0.458
Mof_O 	O 	0.0392	0.40724	0.7059	-0.488
Mof_O 	O 	0.6719	0.42319	0.1463	-0.437
Mof_O 	O 	0.606	0.32638	0.13937	-0.53
Mof_O 	O 	0.3291	0.07742	0.1466	-0.444
Mof_O 	O 	0.3938	0.17307	0.13894	-0.534
Mof_O 	O 	0.4281	0.29939	0.08342	-0.458
Mof_Zn	Zn	0.52442	0.42181	0.14081	1.223
Mof_Zn	Zn	0.50009	0.24998	0.14062	1.252
Mof_Zn	Zn	0.4756	0.07815	0.14068	1.225
Mof_N 	N 	0.4937	0.7404	0.1261	-0.001
Mof_N 	N 	0.4982	0.76	0.1688	0.02
Mof_C 	C 	0.6317	0.6448	0.98908	-0.13
Mof_C 	C 	0.6623	0.7037	0.011	0.05
Mof_H 	H 	0.6512	0.7448	0.9943	0.027
Mof_C 	C 	0.7087	0.7028	0.0572	-0.105
Mof_H 	H 	0.7285	0.7437	0.0717	0.066
Mof_C 	C 	0.6979	0.5844	0.0604	-0.107
Mof_H 	H 	0.7116	0.5433	0.0764	0.068
Mof_C 	C 	0.7278	0.6437	0.0833	0.037
Mof_C 	C 	0.6285	0.646	0.72903	-0.159
Mof_C 	C 	0.6823	0.5874	0.654	-0.138
Mof_H 	H 	0.6867	0.547	0.6353	0.083
Mof_C 	C 	0.6358	0.5873	0.7004	0.078
Mof_H 	H 	0.6087	0.5474	0.7129	0.018
Mof_C 	C 	0.6734	0.7005	0.711	0.082
Mof_H 	H 	0.6726	0.7403	0.7304	0.018
Mof_C 	C 	0.7209	0.6995	0.6643	-0.14
Mof_H 	H 	0.7529	0.7383	0.6533	0.081
Mof_C 	C 	0.5759	0.6479	0.77907	0.427
Mof_C 	C 	0.8725	0.6453	0.22907	-0.16
Mof_C 	C 	0.9237	0.6474	0.27909	0.418
Mof_C 	C 	0.5238	0.4399	0.8971	0.112
Mof_H 	H 	0.5436	0.4633	0.9266	-0.011
Mof_C 	C 	0.532	0.3705	0.8961	-0.212
Mof_H 	H 	0.5602	0.3475	0.9238	0.109
Mof_C 	C 	0.4984	0.336	0.8541	0.209
Mof_C 	C 	0.4615	0.371	0.8157	-0.233
Mof_H 	H 	0.4378	0.3483	0.7867	0.121
Mof_C 	C 	0.4572	0.4405	0.8175	0.144
Mof_H 	H 	0.4313	0.4638	0.7894	-0.027
Mof_C 	C 	0.6487	0.5843	0.0148	0.047
Mof_H 	H 	0.6265	0.5436	0.001	0.025
Mof_C 	C 	0.5778	0.6462	0.93898	0.411
Mof_C 	C 	0.2271	0.6727	0.8514	-0.159
Mof_C 	C 	0.3204	0.6397	0.8555	0.398
Mof_C 	C 	0.1445	0.6354	0.8437	0.073
Mof_H 	H 	0.1486	0.5884	0.8409	0.017
Mof_C 	C 	0.0587	0.6653	0.8401	-0.13
Mof_H 	H 	0.005	0.6389	0.833	0.073
Mof_C 	C 	0.048	0.7338	0.8466	0.056
Mof_C 	C 	0.1297	0.7706	0.855	-0.129
Mof_H 	H 	0.1257	0.8173	0.8595	0.075
Mof_C 	C 	0.2164	0.7397	0.8568	0.078
Mof_H 	H 	0.2707	0.7662	0.8619	0.02
Mof_C 	C 	0.7803	0.7002	0.1639	-0.138
Mof_H 	H 	0.7502	0.7395	0.1524	0.081
Mof_C 	C 	0.8169	0.5874	0.1547	-0.143
Mof_H 	H 	0.81	0.5465	0.1371	0.085
Mof_C 	C 	0.8259	0.7003	0.2108	0.08
Mof_H 	H 	0.8249	0.7396	0.2308	0.019
Mof_C 	C 	0.8656	0.588	0.2	0.084
Mof_H 	H 	0.895	0.5484	0.2116	0.016
Mof_C 	C 	0.9419	0.8355	0.8402	-0.129
Mof_H 	H 	0.9955	0.8625	0.8342	0.072
Mof_C 	C 	0.8707	0.7298	0.8543	-0.129
Mof_H 	H 	0.8747	0.683	0.8584	0.073
Mof_C 	C 	0.8551	0.8641	0.8429	0.077
Mof_H 	H 	0.8501	0.9109	0.8391	0.014
Mof_C 	C 	0.783	0.7604	0.8565	0.082
Mof_H 	H 	0.7287	0.7339	0.862	0.017
Mof_C 	C 	0.7731	0.8269	0.8511	-0.168
Mof_C 	C 	0.6799	0.86	0.8555	0.412
Mof_C 	C 	0.9525	0.766	0.8463	0.051
Mof_C 	C 	0.7779	0.6436	0.1338	0.072
Mof_C 	C 	0.7223	0.6438	0.6341	0.072
Mof_C 	C 	0.7725	0.644	0.5832	0.037
Mof_C 	C 	0.79	0.7035	0.5573	-0.104
Mof_H 	H 	0.7679	0.7443	0.5711	0.065
Mof_C 	C 	0.8023	0.5842	0.5606	-0.107
Mof_H 	H 	0.7897	0.5432	0.5772	0.067
Mof_C 	C 	0.8397	0.7037	0.5114	0.048
Mof_H 	H 	0.8541	0.7447	0.4954	0.027
Mof_C 	C 	0.8683	0.6442	0.48888	-0.134
Mof_C 	C 	0.8501	0.5842	0.5141	0.048
Mof_H 	H 	0.8702	0.5434	0.4995	0.025
Mof_C 	C 	0.9218	0.6464	0.43917	0.41
Mof_C 	C 	0.5015	0.1637	0.8537	0.217
Mof_C 	C 	0.4707	0.1302	0.8952	-0.229
Mof_H 	H 	0.4455	0.1537	0.9235	0.118
Mof_C 	C 	0.5377	0.1285	0.8153	-0.248
Mof_H 	H 	0.5621	0.1509	0.7863	0.122
Mof_C 	C 	0.54	0.0596	0.8173	0.151
Mof_H 	H 	0.5637	0.036	0.7888	-0.029
Mof_C 	C 	0.4761	0.0609	0.8961	0.131
Mof_H 	H 	0.4544	0.0381	0.9255	-0.018
Mof_N 	N 	0.5104	0.0253	0.85731	-0.274
Mof_N 	N 	0.4878	0.4747	0.8569	-0.268
Mof_N 	N 	0.4899	0.2316	0.8661	-0.11
Mof_N 	N 	0.5012	0.2697	0.8359	-0.119
Mof_O 	O 	0.5392	0.59319	0.79371	-0.491
Mof_O 	O 	0.574	0.70166	0.80252	-0.464
Mof_O 	O 	0.928	0.70044	0.41646	-0.459
Mof_O 	O 	0.9567	0.59064	0.42385	-0.486
Mof_O 	O 	0.5433	0.59076	0.92388	-0.489
Mof_O 	O 	0.9256	0.7018	0.3027	-0.458
Mof_O 	O 	0.9608	0.59276	0.2941	-0.488
Mof_O 	O 	0.3281	0.57681	0.8537	-0.437
Mof_O 	O 	0.394	0.67362	0.86063	-0.53
Mof_O 	O 	0.6709	0.92258	0.8534	-0.444
Mof_O 	O 	0.6062	0.82693	0.86106	-0.534
Mof_O 	O 	0.5719	0.70061	0.91658	-0.458
Mof_Zn	Zn	0.47558	0.57819	0.85919	1.223
Mof_Zn	Zn	0.49991	0.75002	0.85938	1.252
Mof_Zn	Zn	0.5244	0.92185	0.85932	1.225
Mof_N 	N 	0.5063	0.2596	0.8739	-0.001
Mof_N 	N 	0.5018	0.24	0.8312	0.02
Mof_C 	C 	0.1317	0.8552	0.48908	-0.131
Mof_C 	C 	0.1623	0.7963	0.511	0.051
Mof_H 	H 	0.1512	0.7552	0.4943	0.027
Mof_C 	C 	0.2087	0.7972	0.5572	-0.105
Mof_H 	H 	0.2285	0.7563	0.5717	0.066
Mof_C 	C 	0.1979	0.9156	0.5604	-0.107
Mof_H 	H 	0.2116	0.9567	0.5764	0.068
Mof_C 	C 	0.2278	0.8563	0.5833	0.038
Mof_C 	C 	0.1285	0.854	0.22903	-0.158
Mof_C 	C 	0.1823	0.9126	0.154	-0.137
Mof_H 	H 	0.1867	0.953	0.1353	0.083
Mof_C 	C 	0.1358	0.9127	0.2004	0.078
Mof_H 	H 	0.1087	0.9526	0.2129	0.019
Mof_C 	C 	0.1734	0.7995	0.211	0.081
Mof_H 	H 	0.1726	0.7597	0.2304	0.019
Mof_C 	C 	0.2209	0.8005	0.1643	-0.139
Mof_H 	H 	0.2529	0.7617	0.1533	0.081
Mof_C 	C 	0.0759	0.8521	0.27907	0.427
Mof_C 	C 	0.3725	0.8547	0.72907	-0.16
Mof_C 	C 	0.4237	0.8526	0.77909	0.418
Mof_C 	C 	0.0238	0.0601	0.3971	0.11
Mof_H 	H 	0.0436	0.0367	0.4266	-0.012
Mof_C 	C 	0.032	0.1295	0.3961	-0.217
Mof_H 	H 	0.0602	0.1525	0.4238	0.11
Mof_C 	C 	0.9984	0.164	0.3541	0.216
Mof_C 	C 	0.9615	0.129	0.3157	-0.237
Mof_H 	H 	0.9378	0.1517	0.2867	0.123
Mof_C 	C 	0.9572	0.0595	0.3175	0.146
Mof_H 	H 	0.9313	0.0362	0.2894	-0.027
Mof_C 	C 	0.1487	0.9157	0.5148	0.048
Mof_H 	H 	0.1265	0.9564	0.501	0.025
Mof_C 	C 	0.0778	0.8538	0.43898	0.411
Mof_C 	C 	0.7271	0.8273	0.3514	-0.158
Mof_C 	C 	0.8204	0.8603	0.3555	0.398
Mof_C 	C 	0.6445	0.8646	0.3437	0.071
Mof_H 	H 	0.6486	0.9116	0.3409	0.017
Mof_C 	C 	0.5587	0.8347	0.3401	-0.127
Mof_H 	H 	0.505	0.8611	0.333	0.072
Mof_C 	C 	0.548	0.7662	0.3466	0.053
Mof_C 	C 	0.6297	0.7294	0.355	-0.127
Mof_H 	H 	0.6257	0.6827	0.3595	0.073
Mof_C 	C 	0.7164	0.7603	0.3568	0.076
Mof_H 	H 	0.7707	0.7338	0.3619	0.02
Mof_C 	C 	0.2803	0.7998	0.6639	-0.138
Mof_H 	H 	0.2502	0.7605	0.6524	0.081
Mof_C 	C 	0.3169	0.9126	0.6547	-0.143
Mof_H 	H 	0.31	0.9535	0.6371	0.085
Mof_C 	C 	0.3259	0.7997	0.7108	0.08
Mof_H 	H 	0.3249	0.7604	0.7308	0.02
Mof_C 	C 	0.3656	0.912	0.7	0.084
Mof_H 	H 	0.395	0.9516	0.7116	0.016
Mof_C 	C 	0.4419	0.6645	0.3402	-0.131
Mof_H 	H 	0.4955	0.6375	0.3342	0.073
Mof_C 	C 	0.3707	0.7702	0.3543	-0.13
Mof_H 	H 	0.3747	0.817	0.3584	0.074
Mof_C 	C 	0.3551	0.6359	0.3429	0.079
Mof_H 	H 	0.3501	0.5891	0.3391	0.015
Mof_C 	C 	0.283	0.7396	0.3565	0.083
Mof_H 	H 	0.2287	0.7661	0.362	0.017
Mof_C 	C 	0.2731	0.6731	0.3511	-0.169
Mof_C 	C 	0.1799	0.64	0.3555	0.412
Mof_C 	C 	0.4525	0.734	0.3463	0.055
Mof_C 	C 	0.2779	0.8564	0.6338	0.072
Mof_C 	C 	0.2223	0.8562	0.1341	0.072
Mof_C 	C 	0.2725	0.856	0.0832	0.038
Mof_C 	C 	0.29	0.7965	0.0573	-0.105
Mof_H 	H 	0.2679	0.7557	0.0711	0.066
Mof_C 	C 	0.3023	0.9158	0.0606	-0.108
Mof_H 	H 	0.2897	0.9568	0.0772	0.068
Mof_C 	C 	0.3397	0.7963	0.0114	0.05
Mof_H 	H 	0.3541	0.7553	0.9954	0.027
Mof_C 	C 	0.3683	0.8558	0.98888	-0.134
Mof_C 	C 	0.3501	0.9158	0.0141	0.05
Mof_H 	H 	0.3702	0.9566	0.9995	0.024
Mof_C 	C 	0.4218	0.8536	0.93917	0.41
Mof_C 	C 	0.0015	0.3363	0.3537	0.211
Mof_C 	C 	0.9707	0.3698	0.3952	-0.224
Mof_H 	H 	0.9455	0.3463	0.4235	0.117
Mof_C 	C 	0.0377	0.3715	0.3153	-0.244
Mof_H 	H 	0.0621	0.3491	0.2863	0.121
Mof_C 	C 	0.04	0.4404	0.3173	0.149
Mof_H 	H 	0.0637	0.464	0.2888	-0.028
Mof_C 	C 	0.9761	0.4391	0.3961	0.129
Mof_H 	H 	0.9544	0.4619	0.4255	-0.017
Mof_N 	N 	0.0104	0.4747	0.35731	-0.273
Mof_N 	N 	0.9878	0.0253	0.3569	-0.267
Mof_N 	N 	0.9899	0.2684	0.3661	-0.099
Mof_N 	N 	0.0012	0.2303	0.3359	-0.118
Mof_O 	O 	0.0392	0.90681	0.29371	-0.489
Mof_O 	O 	0.074	0.79834	0.30252	-0.463
Mof_O 	O 	0.428	0.79956	0.91646	-0.458
Mof_O 	O 	0.4567	0.90936	0.92385	-0.486
Mof_O 	O 	0.0433	0.90924	0.42388	-0.487
Mof_O 	O 	0.4256	0.7982	0.8027	-0.457
Mof_O 	O 	0.4608	0.90724	0.7941	-0.488
Mof_O 	O 	0.8281	0.92319	0.3537	-0.439
Mof_O 	O 	0.894	0.82638	0.36063	-0.53
Mof_O 	O 	0.1709	0.57742	0.3534	-0.443
Mof_O 	O 	0.1062	0.67307	0.36106	-0.533
Mof_O 	O 	0.0719	0.79939	0.41658	-0.457
Mof_Zn	Zn	0.97558	0.92181	0.35919	1.222
Mof_Zn	Zn	0.99991	0.74998	0.35938	1.252
Mof_Zn	Zn	0.0244	0.57815	0.35932	1.225
Mof_N 	N 	0.0063	0.2404	0.3739	-0.01
Mof_N 	N 	0.0018	0.26	0.3312	0.017
_end
