# CIF file generated by openbabel 3.1.0, see https://openbabel.org
data_I
_chemical_name_common 'image0'
_cell_length_a 9.764
_cell_length_b 12.198
_cell_length_c 12.564
_cell_angle_alpha 62.38
_cell_angle_beta 67.67
_cell_angle_gamma 73.032
_space_group_name_H-M_alt 'P 1'
_space_group_name_Hall 'P 1'
loop_
    _symmetry_equiv_pos_as_xyz
    x,y,z
loop_
    _atom_site_label
    _atom_site_type_symbol
    _atom_site_fract_x
    _atom_site_fract_y
    _atom_site_fract_z
    _atom_site_occupancy
    C1       C        0.21360    0.32110    0.97900    1.000
    C2       C        0.34700    0.26200    0.02120    1.000
    C3       C        0.24020    0.45060    0.87440    1.000
    H1       H        0.33090    0.48000    0.84570    1.000
    C4       C        0.12250    0.52210    0.82440    1.000
    H2       H        0.13260    0.60210    0.76190    1.000
    C5       C        0.98970    0.47400    0.86780    1.000
    H3       H        0.91100    0.52190    0.83430    1.000
    C6       C        0.97470    0.35450    0.96110    1.000
    C7       C        0.09240    0.28300    0.01110    1.000
    H4       H        0.08030    0.20240    0.07180    1.000
    C8       C        0.82670    0.30930    0.01090    1.000
    C9       C        0.57200    0.88690    0.25610    1.000
    C10      C        0.59390    0.77200    0.36810    1.000
    C11      C        0.64100    0.65730    0.35790    1.000
    H5       H        0.66020    0.65330    0.28120    1.000
    C12      C        0.65800    0.54850    0.46220    1.000
    H6       H        0.68900    0.47180    0.45530    1.000
    C13      C        0.62800    0.55440    0.57680    1.000
    H7       H        0.64000    0.48160    0.64660    1.000
    C14      C        0.58180    0.66910    0.58710    1.000
    C15      C        0.56450    0.77790    0.48280    1.000
    H8       H        0.53330    0.85460    0.48970    1.000
    C16      C        0.54500    0.67150    0.71410    1.000
    C17      C        0.15700    0.30400    0.02600    1.000
    C18      C        0.61000    0.76000    0.98000    1.000
    Mn1      Mn       0.59120    0.17120    0.12500    1.000
    O1       O        0.36050    0.14250    0.07930    1.000
    O2       O        0.44350    0.31710    0.01830    1.000
    O3       O        0.71450    0.38530    0.98740    1.000
    O4       O        0.81710    0.19300    0.08120    1.000
    O5       O        0.54240    0.87590    0.17180    1.000
    O6       O        0.59150    0.98720    0.25190    1.000
    O7       O        0.49760    0.77510    0.72190    1.000
    O8       O        0.55930    0.56810    0.80480    1.000
    O9       O        0.86200    0.22600    0.94800    1.000
    O10      O        0.63900    0.93700    0.12200    1.000
    C19      C        0.78640    0.67890    0.02100    1.000
    C20      C        0.65300    0.73800    0.97880    1.000
    C21      C        0.75980    0.54940    0.12560    1.000
    H9       H        0.66910    0.52000    0.15430    1.000
    C22      C        0.87750    0.47790    0.17560    1.000
    H10      H        0.86740    0.39790    0.23810    1.000
    C23      C        0.01030    0.52600    0.13220    1.000
    H11      H        0.08900    0.47810    0.16570    1.000
    C24      C        0.02530    0.64550    0.03890    1.000
    C25      C        0.90760    0.71700    0.98890    1.000
    H12      H        0.91970    0.79760    0.92820    1.000
    C26      C        0.17330    0.69070    0.98910    1.000
    C27      C        0.42800    0.11310    0.74390    1.000
    C28      C        0.40610    0.22800    0.63190    1.000
    C29      C        0.35900    0.34270    0.64210    1.000
    H13      H        0.33980    0.34670    0.71880    1.000
    C30      C        0.34200    0.45150    0.53780    1.000
    H14      H        0.31100    0.52820    0.54470    1.000
    C31      C        0.37200    0.44560    0.42320    1.000
    H15      H        0.36000    0.51840    0.35340    1.000
    C32      C        0.41820    0.33090    0.41290    1.000
    C33      C        0.43550    0.22210    0.51720    1.000
    H16      H        0.46670    0.14540    0.51030    1.000
    C34      C        0.45500    0.32850    0.28590    1.000
    C35      C        0.84300    0.69600    0.97400    1.000
    C36      C        0.39000    0.24000    0.02000    1.000
    Mn2      Mn       0.40880    0.82880    0.87500    1.000
    O11      O        0.63950    0.85750    0.92070    1.000
    O12      O        0.55650    0.68290    0.98170    1.000
    O13      O        0.28550    0.61470    0.01260    1.000
    O14      O        0.18290    0.80700    0.91880    1.000
    O15      O        0.45760    0.12410    0.82820    1.000
    O16      O        0.40850    0.01280    0.74810    1.000
    O17      O        0.50240    0.22490    0.27810    1.000
    O18      O        0.44070    0.43190    0.19520    1.000
    O19      O        0.13800    0.77400    0.05200    1.000
    O20      O        0.36100    0.06300    0.87800    1.000
    Mn3      Mn       0.50000    0.00000    0.00000    1.000
    Mn4      Mn       0.50000    0.50000    0.00000    1.000
