# CIF file generated by openbabel 3.1.0, see https://openbabel.org
data_I
_chemical_name_common 'NAJGAH_clean'
_cell_length_a 8.663
_cell_length_b 9.069
_cell_length_c 11.875
_cell_angle_alpha 110.05
_cell_angle_beta 90
_cell_angle_gamma 90
_space_group_name_H-M_alt 'P 1'
_space_group_name_Hall 'P 1'
loop_
    _symmetry_equiv_pos_as_xyz
    x,y,z
loop_
    _atom_site_label
    _atom_site_type_symbol
    _atom_site_fract_x
    _atom_site_fract_y
    _atom_site_fract_z
    _atom_site_occupancy
    Nd1      Nd       0.47062    0.02571    0.98776    1.000
    Nd2      Nd       0.97062    0.97429    0.01224    1.000
    H1       H        0.09050    0.83240    0.66160    1.000
    H2       H        0.12220    0.68730    0.70130    1.000
    H3       H        0.31390    0.77120    0.53810    1.000
    H4       H        0.34590    0.62630    0.57790    1.000
    H5       H        0.09640    0.65740    0.44010    1.000
    H6       H        0.11300    0.51750    0.48810    1.000
    H7       H        0.31200    0.57270    0.31820    1.000
    H8       H        0.34210    0.43980    0.37170    1.000
    H9       H        0.10150    0.45030    0.22010    1.000
    H10      H        0.10370    0.32910    0.28730    1.000
    H11      H        0.50990    0.18480    0.75900    1.000
    H12      H        0.37360    0.90980    0.36270    1.000
    H13      H        0.19730    0.86670    0.35460    1.000
    H14      H        0.30870    0.18320    0.41320    1.000
    H15      H        0.13240    0.14050    0.40420    1.000
    H16      H        0.33130    0.08840    0.57590    1.000
    H17      H        0.15310    0.05660    0.56910    1.000
    H18      H        0.28660    0.35980    0.63170    1.000
    H19      H        0.10850    0.33100    0.61970    1.000
    H20      H        0.10830    0.25490    0.78470    1.000
    H21      H        0.17550    0.42470    0.81670    1.000
    H22      H        0.59050    0.16760    0.33840    1.000
    H23      H        0.62220    0.31270    0.29870    1.000
    H24      H        0.81390    0.22880    0.46190    1.000
    H25      H        0.84590    0.37370    0.42210    1.000
    H26      H        0.59640    0.34260    0.55990    1.000
    H27      H        0.61300    0.48250    0.51190    1.000
    H28      H        0.81200    0.42730    0.68180    1.000
    H29      H        0.84210    0.56020    0.62830    1.000
    H30      H        0.60150    0.54970    0.77990    1.000
    H31      H        0.60370    0.67090    0.71270    1.000
    H32      H        0.00990    0.81520    0.24100    1.000
    H33      H        0.87360    0.09020    0.63730    1.000
    H34      H        0.69730    0.13330    0.64540    1.000
    H35      H        0.80870    0.81680    0.58680    1.000
    H36      H        0.63240    0.85950    0.59580    1.000
    H37      H        0.83130    0.91160    0.42410    1.000
    H38      H        0.65310    0.94340    0.43090    1.000
    H39      H        0.78660    0.64020    0.36830    1.000
    H40      H        0.60850    0.66900    0.38030    1.000
    H41      H        0.60830    0.74510    0.21530    1.000
    H42      H        0.67550    0.57530    0.18330    1.000
    C1       C        0.26680    0.86810    0.77900    1.000
    C2       C        0.17140    0.76850    0.67780    1.000
    C3       C        0.26490    0.69010    0.56160    1.000
    C4       C        0.17050    0.59110    0.46140    1.000
    C5       C        0.26180    0.49880    0.34910    1.000
    C6       C        0.16880    0.38950    0.25280    1.000
    C7       C        0.26210    0.27440    0.14890    1.000
    C8       C        0.27100    0.92780    0.21500    1.000
    C9       C        0.27200    0.93900    0.34220    1.000
    C10      C        0.23300    0.11100    0.42550    1.000
    C11      C        0.23300    0.12500    0.55670    1.000
    C12      C        0.20400    0.29400    0.64280    1.000
    C13      C        0.19500    0.31500    0.77200    1.000
    C14      C        0.34130    0.26410    0.82170    1.000
    C15      C        0.76680    0.13190    0.22100    1.000
    C16      C        0.67140    0.23150    0.32220    1.000
    C17      C        0.76490    0.30990    0.43840    1.000
    C18      C        0.67050    0.40890    0.53860    1.000
    C19      C        0.76180    0.50120    0.65090    1.000
    C20      C        0.66880    0.61050    0.74720    1.000
    C21      C        0.76210    0.72560    0.85110    1.000
    C22      C        0.77100    0.07220    0.78500    1.000
    C23      C        0.77200    0.06100    0.65780    1.000
    C24      C        0.73300    0.88900    0.57450    1.000
    C25      C        0.73300    0.87500    0.44330    1.000
    C26      C        0.70400    0.70600    0.35720    1.000
    C27      C        0.69500    0.68500    0.22800    1.000
    C28      C        0.84130    0.73590    0.17830    1.000
    O1       O        0.19040    0.92600    0.88680    1.000
    O2       O        0.39770    0.89890    0.77340    1.000
    O3       O        0.19170    0.14750    0.08520    1.000
    O4       O        0.39910    0.29730    0.13230    1.000
    O5       O        0.39030    0.97880    0.17610    1.000
    O6       O        0.15810    0.87100    0.15120    1.000
    O7       O        0.46200    0.26660    0.76930    1.000
    O8       O        0.33700    0.23370    0.91940    1.000
    O9       O        0.48900    0.63400    0.59780    1.000
    O10      O        0.69040    0.07400    0.11320    1.000
    O11      O        0.89770    0.10110    0.22660    1.000
    O12      O        0.69170    0.85250    0.91480    1.000
    O13      O        0.89910    0.70270    0.86770    1.000
    O14      O        0.89030    0.02120    0.82390    1.000
    O15      O        0.65810    0.12900    0.84880    1.000
    O16      O        0.96200    0.73340    0.23070    1.000
    O17      O        0.83700    0.76630    0.08060    1.000
    O18      O        0.98900    0.36600    0.40220    1.000
