data_functionalizedCrystal
_audit_creation_method	'EQeq! by Chris Wilmer'
_symmetry_space_group_name_H-M	'P1'
_symmetry_Int_Tables_number	1
_symmetry_cell_setting	triclinic
loop_
_symmetry_equiv_pos_as_xyz
  x,y,z
_cell_length_a	17.454
_cell_length_b	13.62
_cell_length_c	19.539
_cell_angle_alpha	90
_cell_angle_beta	94.064
_cell_angle_gamma	90
loop_
_atom_site_label
_atom_site_type_symbol
_atom_site_fract_x
_atom_site_fract_y
_atom_site_fract_z
_atom_site_charge
Mof_Tb	Tb	0.38744	0.9842	0.95177	1.982
Mof_Tb	Tb	0.88916	0.53258	0.03414	2.017
Mof_N 	N 	0.3877	0.3075	0.8573	-0.186
Mof_N 	N 	0.9136	0.1651	0.1725	-0.191
Mof_N 	N 	0.0899	0.7114	0.2246	0.008
Mof_O 	O 	0.4524	0.8338	0.939	-0.52
Mof_O 	O 	0.5634	0.8816	0.9886	-0.585
Mof_O 	O 	0.7876	0.6517	0.9946	-0.432
Mof_O 	O 	0.7669	0.4989	0.9676	-0.453
Mof_O 	O 	0.2839	0.8684	0.9729	-0.443
Mof_O 	O 	0.2662	0.0212	0.0016	-0.442
Mof_O 	O 	0.9712	0.6659	0.0403	-0.561
Mof_O 	O 	0.0834	0.6224	0.9998	-0.567
Mof_O 	O 	0.4126	0.9259	0.063	-0.518
Mof_O 	O 	0.5208	0.97	0.1213	-0.594
Mof_O 	O 	0.5284	0.9828	0.3721	-0.59
Mof_O 	O 	0.4227	0.9488	0.4242	-0.595
Mof_C 	C 	0.5224	0.8194	0.9585	0.526
Mof_C 	C 	0.7432	0.5794	0.9739	0.337
Mof_C 	C 	0.5546	0.7216	0.944	-0.202
Mof_C 	C 	0.6312	0.7026	0.9623	0.089
Mof_H 	H 	0.6624	0.7498	0.9845	0.005
Mof_C 	C 	0.6621	0.605	0.9454	-0.125
Mof_C 	C 	0.6132	0.5347	0.9241	0.047
Mof_H 	H 	0.6326	0.4723	0.9171	0.023
Mof_C 	C 	0.5351	0.5493	0.912	-0.11
Mof_C 	C 	0.5072	0.6449	0.9216	0.082
Mof_H 	H 	0.4551	0.6569	0.9125	0.006
Mof_C 	C 	0.4829	0.4708	0.8895	0.163
Mof_C 	C 	0.5107	0.3794	0.8665	-0.203
Mof_H 	H 	0.5632	0.3701	0.8638	0.103
Mof_C 	C 	0.4605	0.3046	0.8484	0.129
Mof_H 	H 	0.4799	0.2486	0.8286	-0.012
Mof_C 	C 	0.3614	0.39	0.8684	0.16
Mof_H 	H 	0.3084	0.3986	0.8632	-0.061
Mof_C 	C 	0.4069	0.4712	0.8886	-0.236
Mof_H 	H 	0.3827	0.5282	0.902	0.1
Mof_C 	C 	0.2437	0.9316	0.9978	0.341
Mof_C 	C 	0.0396	0.6849	0.0275	0.535
Mof_C 	C 	0.1677	0.9069	0.0233	-0.148
Mof_C 	C 	0.1394	0.8104	0.0179	0.131
Mof_H 	H 	0.1705	0.7627	0.9999	-0.003
Mof_C 	C 	0.0679	0.7823	0.0376	-0.243
Mof_C 	C 	0.0259	0.8528	0.0713	0.105
Mof_H 	H 	0.9787	0.8354	0.087	-0.011
Mof_C 	C 	0.0533	0.9503	0.0824	-0.14
Mof_C 	C 	0.1273	0.9732	0.0603	0.066
Mof_H 	H 	0.1488	0.0342	0.071	0.016
Mof_C 	C 	0.011	0.0238	0.1207	0.232
Mof_C 	C 	0.9455	0.0036	0.1484	-0.282
Mof_H 	H 	0.9296	0.9386	0.1499	0.12
Mof_C 	C 	0.8989	0.0766	0.1758	0.179
Mof_H 	H 	0.8554	0.0572	0.1971	-0.051
Mof_C 	C 	0.9741	0.1878	0.141	0.184
Mof_H 	H 	0.9861	0.2536	0.1349	-0.036
Mof_C 	C 	0.0194	0.1193	0.1171	-0.281
Mof_H 	H 	0.0619	0.1416	0.0955	0.13
Mof_C 	C 	0.4544	0.9403	0.1191	0.553
Mof_C 	C 	0.4628	0.9507	0.3769	0.572
Mof_C 	C 	0.4191	0.9153	0.1815	-0.26
Mof_C 	C 	0.4536	0.9437	0.2435	0.172
Mof_H 	H 	0.5004	0.9766	0.2452	-0.025
Mof_C 	C 	0.4189	0.9236	0.3042	-0.221
Mof_C 	C 	0.3494	0.8803	0.3018	0.133
Mof_H 	H 	0.3262	0.871	0.3427	-0.004
Mof_C 	C 	0.3134	0.8507	0.2448	-0.158
Mof_C 	C 	0.3473	0.871	0.1811	0.12
Mof_H 	H 	0.3211	0.8543	0.1397	0.001
Mof_C 	C 	0.2328	0.8035	0.239	0.206
Mof_C 	C 	0.1718	0.8392	0.273	-0.265
Mof_H 	H 	0.1785	0.8943	0.301	0.129
Mof_C 	C 	0.1009	0.7935	0.2658	0.236
Mof_H 	H 	0.0602	0.8183	0.2888	-0.051
Mof_C 	C 	0.1507	0.6755	0.19	0.168
Mof_H 	H 	0.144	0.6205	0.1621	-0.024
Mof_C 	C 	0.2213	0.7217	0.197	-0.241
Mof_H 	H 	0.2616	0.6977	0.1733	0.119
Mof_C 	C 	0.2333	0.7389	0.294	-0.102
Mof_C 	C 	0.1694	0.682	0.3055	0.045
Mof_C 	C 	0.1037	0.755	0.2065	-0.225
Mof_C 	C 	0.1676	0.812	0.1951	0.049
Mof_H 	H 	0.2773	0.7334	0.3236	0.071
Mof_H 	H 	0.1703	0.6394	0.3425	0.024
Mof_H 	H 	0.0598	0.7609	0.1768	0.102
Mof_H 	H 	0.1667	0.8547	0.1581	0.018
Mof_N 	N 	0.1043	0.691	0.2614	-0.134
Mof_Tb	Tb	0.11256	0.4842	0.54823	1.99
Mof_Tb	Tb	0.61084	0.03258	0.46586	2.014
Mof_N 	N 	0.1123	0.8075	0.6427	-0.185
Mof_N 	N 	0.5864	0.6651	0.3275	-0.188
Mof_N 	N 	0.4101	0.2114	0.2754	0.007
Mof_O 	O 	0.0476	0.3338	0.561	-0.52
Mof_O 	O 	0.9366	0.3816	0.5114	-0.585
Mof_O 	O 	0.7124	0.1517	0.5054	-0.431
Mof_O 	O 	0.7331	0.9989	0.5324	-0.451
Mof_O 	O 	0.2161	0.3684	0.5271	-0.444
Mof_O 	O 	0.2338	0.5212	0.4984	-0.445
Mof_O 	O 	0.5288	0.1659	0.4597	-0.559
Mof_O 	O 	0.4166	0.1224	0.5002	-0.563
Mof_O 	O 	0.0874	0.4259	0.437	-0.522
Mof_O 	O 	0.9792	0.47	0.3787	-0.599
Mof_O 	O 	0.9716	0.4828	0.1279	-0.593
Mof_O 	O 	0.0773	0.4488	0.0758	-0.595
Mof_C 	C 	0.9776	0.3194	0.5415	0.523
Mof_C 	C 	0.7568	0.0794	0.5261	0.332
Mof_C 	C 	0.9454	0.2216	0.556	-0.196
Mof_C 	C 	0.8688	0.2026	0.5377	0.084
Mof_H 	H 	0.8376	0.2498	0.5155	0.006
Mof_C 	C 	0.8379	0.105	0.5546	-0.119
Mof_C 	C 	0.8868	0.0347	0.5759	0.035
Mof_H 	H 	0.8674	0.9723	0.5829	0.028
Mof_C 	C 	0.9649	0.0493	0.588	-0.099
Mof_C 	C 	0.9928	0.1449	0.5784	0.07
Mof_H 	H 	0.0449	0.1569	0.5875	0.012
Mof_C 	C 	0.0171	0.9708	0.6105	0.15
Mof_C 	C 	0.9893	0.8794	0.6335	-0.186
Mof_H 	H 	0.9368	0.8701	0.6362	0.098
Mof_C 	C 	0.0395	0.8046	0.6516	0.118
Mof_H 	H 	0.0201	0.7486	0.6714	-0.009
Mof_C 	C 	0.1386	0.89	0.6316	0.158
Mof_H 	H 	0.1916	0.8986	0.6368	-0.061
Mof_C 	C 	0.0931	0.9712	0.6114	-0.235
Mof_H 	H 	0.1173	0.0282	0.598	0.103
Mof_C 	C 	0.2563	0.4316	0.5022	0.348
Mof_C 	C 	0.4604	0.1849	0.4725	0.529
Mof_C 	C 	0.3323	0.4069	0.4767	-0.148
Mof_C 	C 	0.3606	0.3104	0.4821	0.122
Mof_H 	H 	0.3295	0.2627	0.5001	0.003
Mof_C 	C 	0.4321	0.2823	0.4624	-0.237
Mof_C 	C 	0.4741	0.3528	0.4287	0.1
Mof_H 	H 	0.5213	0.3354	0.413	-0.009
Mof_C 	C 	0.4467	0.4503	0.4176	-0.131
Mof_C 	C 	0.3727	0.4732	0.4397	0.061
Mof_H 	H 	0.3512	0.5342	0.429	0.019
Mof_C 	C 	0.489	0.5238	0.3793	0.214
Mof_C 	C 	0.5545	0.5036	0.3516	-0.253
Mof_H 	H 	0.5704	0.4386	0.3501	0.106
Mof_C 	C 	0.6011	0.5766	0.3242	0.166
Mof_H 	H 	0.6446	0.5572	0.3029	-0.045
Mof_C 	C 	0.5259	0.6878	0.359	0.184
Mof_H 	H 	0.5139	0.7536	0.3651	-0.035
Mof_C 	C 	0.4806	0.6193	0.3829	-0.277
Mof_H 	H 	0.4381	0.6416	0.4045	0.128
Mof_C 	C 	0.0456	0.4403	0.3809	0.557
Mof_C 	C 	0.0372	0.4507	0.1231	0.575
Mof_C 	C 	0.0809	0.4153	0.3185	-0.264
Mof_C 	C 	0.0464	0.4437	0.2565	0.178
Mof_H 	H 	0.9996	0.4766	0.2548	-0.028
Mof_C 	C 	0.0811	0.4236	0.1958	-0.224
Mof_C 	C 	0.1506	0.3803	0.1982	0.137
Mof_H 	H 	0.1738	0.371	0.1573	-0.005
Mof_C 	C 	0.1866	0.3507	0.2552	-0.161
Mof_C 	C 	0.1527	0.371	0.3189	0.123
Mof_H 	H 	0.1789	0.3543	0.3603	-0.001
Mof_C 	C 	0.2672	0.3035	0.261	0.207
Mof_C 	C 	0.3282	0.3392	0.227	-0.266
Mof_H 	H 	0.3215	0.3943	0.199	0.13
Mof_C 	C 	0.3991	0.2935	0.2342	0.237
Mof_H 	H 	0.4398	0.3183	0.2112	-0.051
Mof_C 	C 	0.3493	0.1755	0.31	0.168
Mof_H 	H 	0.356	0.1205	0.3379	-0.024
Mof_C 	C 	0.2787	0.2217	0.303	-0.241
Mof_H 	H 	0.2384	0.1977	0.3267	0.12
Mof_C 	C 	0.2667	0.2389	0.206	-0.103
Mof_C 	C 	0.3306	0.182	0.1945	0.045
Mof_C 	C 	0.3963	0.255	0.2935	-0.225
Mof_C 	C 	0.3324	0.312	0.3049	0.049
Mof_H 	H 	0.2227	0.2334	0.1764	0.071
Mof_H 	H 	0.3297	0.1394	0.1575	0.023
Mof_H 	H 	0.4402	0.2609	0.3232	0.102
Mof_H 	H 	0.3333	0.3547	0.3419	0.018
Mof_N 	N 	0.3957	0.191	0.2386	-0.135
Mof_Tb	Tb	0.61256	0.0158	0.04823	1.981
Mof_Tb	Tb	0.11084	0.46742	0.96586	2.016
Mof_N 	N 	0.6123	0.6925	0.1427	-0.187
Mof_N 	N 	0.0864	0.8349	0.8275	-0.192
Mof_N 	N 	0.9101	0.2886	0.7754	0.007
Mof_O 	O 	0.5476	0.1662	0.061	-0.521
Mof_O 	O 	0.4366	0.1184	0.0114	-0.585
Mof_O 	O 	0.2124	0.3483	0.0054	-0.432
Mof_O 	O 	0.2331	0.5011	0.0324	-0.453
Mof_O 	O 	0.7161	0.1316	0.0271	-0.443
Mof_O 	O 	0.7338	0.9788	0.9984	-0.442
Mof_O 	O 	0.0288	0.3341	0.9597	-0.561
Mof_O 	O 	0.9166	0.3776	0.0002	-0.567
Mof_O 	O 	0.5874	0.0741	0.937	-0.518
Mof_O 	O 	0.4792	0.03	0.8787	-0.594
Mof_O 	O 	0.4716	0.0172	0.6279	-0.59
Mof_O 	O 	0.5773	0.0512	0.5758	-0.595
Mof_C 	C 	0.4776	0.1806	0.0415	0.526
Mof_C 	C 	0.2568	0.4206	0.0261	0.337
Mof_C 	C 	0.4454	0.2784	0.056	-0.202
Mof_C 	C 	0.3688	0.2974	0.0377	0.089
Mof_H 	H 	0.3376	0.2502	0.0155	0.005
Mof_C 	C 	0.3379	0.395	0.0546	-0.125
Mof_C 	C 	0.3868	0.4653	0.0759	0.047
Mof_H 	H 	0.3674	0.5277	0.0829	0.023
Mof_C 	C 	0.4649	0.4507	0.088	-0.11
Mof_C 	C 	0.4928	0.3551	0.0784	0.082
Mof_H 	H 	0.5449	0.3431	0.0875	0.006
Mof_C 	C 	0.5171	0.5292	0.1105	0.163
Mof_C 	C 	0.4893	0.6206	0.1335	-0.203
Mof_H 	H 	0.4368	0.6299	0.1362	0.103
Mof_C 	C 	0.5395	0.6954	0.1516	0.129
Mof_H 	H 	0.5201	0.7514	0.1714	-0.012
Mof_C 	C 	0.6386	0.61	0.1316	0.16
Mof_H 	H 	0.6916	0.6014	0.1368	-0.061
Mof_C 	C 	0.5931	0.5288	0.1114	-0.236
Mof_H 	H 	0.6173	0.4718	0.098	0.1
Mof_C 	C 	0.7563	0.0684	0.0022	0.341
Mof_C 	C 	0.9604	0.3151	0.9725	0.535
Mof_C 	C 	0.8323	0.0931	0.9767	-0.148
Mof_C 	C 	0.8606	0.1896	0.9821	0.131
Mof_H 	H 	0.8295	0.2373	0.0001	-0.003
Mof_C 	C 	0.9321	0.2177	0.9624	-0.243
Mof_C 	C 	0.9741	0.1472	0.9287	0.105
Mof_H 	H 	0.0213	0.1646	0.913	-0.011
Mof_C 	C 	0.9467	0.0497	0.9176	-0.14
Mof_C 	C 	0.8727	0.0268	0.9397	0.066
Mof_H 	H 	0.8512	0.9658	0.929	0.016
Mof_C 	C 	0.989	0.9762	0.8793	0.232
Mof_C 	C 	0.0545	0.9964	0.8516	-0.282
Mof_H 	H 	0.0704	0.0614	0.8501	0.12
Mof_C 	C 	0.1011	0.9234	0.8242	0.179
Mof_H 	H 	0.1446	0.9428	0.8029	-0.051
Mof_C 	C 	0.0259	0.8122	0.859	0.184
Mof_H 	H 	0.0139	0.7464	0.8651	-0.036
Mof_C 	C 	0.9806	0.8807	0.8829	-0.281
Mof_H 	H 	0.9381	0.8584	0.9045	0.13
Mof_C 	C 	0.5456	0.0597	0.8809	0.553
Mof_C 	C 	0.5372	0.0493	0.6231	0.572
Mof_C 	C 	0.5809	0.0847	0.8185	-0.26
Mof_C 	C 	0.5464	0.0563	0.7565	0.172
Mof_H 	H 	0.4996	0.0234	0.7548	-0.025
Mof_C 	C 	0.5811	0.0764	0.6958	-0.221
Mof_C 	C 	0.6506	0.1197	0.6982	0.133
Mof_H 	H 	0.6738	0.129	0.6573	-0.004
Mof_C 	C 	0.6866	0.1493	0.7552	-0.158
Mof_C 	C 	0.6527	0.129	0.8189	0.12
Mof_H 	H 	0.6789	0.1457	0.8603	0.001
Mof_C 	C 	0.7672	0.1965	0.761	0.206
Mof_C 	C 	0.8282	0.1608	0.727	-0.265
Mof_H 	H 	0.8215	0.1057	0.699	0.129
Mof_C 	C 	0.8991	0.2065	0.7342	0.236
Mof_H 	H 	0.9398	0.1817	0.7112	-0.051
Mof_C 	C 	0.8493	0.3245	0.81	0.168
Mof_H 	H 	0.856	0.3795	0.8379	-0.024
Mof_C 	C 	0.7787	0.2783	0.803	-0.241
Mof_H 	H 	0.7384	0.3023	0.8267	0.119
Mof_C 	C 	0.7667	0.2611	0.706	-0.102
Mof_C 	C 	0.8306	0.318	0.6945	0.045
Mof_C 	C 	0.8963	0.245	0.7935	-0.225
Mof_C 	C 	0.8324	0.188	0.8049	0.049
Mof_H 	H 	0.7227	0.2666	0.6764	0.071
Mof_H 	H 	0.8297	0.3606	0.6575	0.024
Mof_H 	H 	0.9402	0.2391	0.8232	0.102
Mof_H 	H 	0.8333	0.1453	0.8419	0.018
Mof_N 	N 	0.8957	0.309	0.7386	-0.134
Mof_Tb	Tb	0.88744	0.5158	0.45177	1.99
Mof_Tb	Tb	0.38916	0.96742	0.53414	2.014
Mof_N 	N 	0.8877	0.1925	0.3573	-0.185
Mof_N 	N 	0.4136	0.3349	0.6725	-0.188
Mof_N 	N 	0.5899	0.7886	0.7246	0.007
Mof_O 	O 	0.9524	0.6662	0.439	-0.52
Mof_O 	O 	0.0634	0.6184	0.4886	-0.585
Mof_O 	O 	0.2876	0.8483	0.4946	-0.431
Mof_O 	O 	0.2669	0.0011	0.4676	-0.451
Mof_O 	O 	0.7839	0.6316	0.4729	-0.444
Mof_O 	O 	0.7662	0.4788	0.5016	-0.445
Mof_O 	O 	0.4712	0.8341	0.5403	-0.559
Mof_O 	O 	0.5834	0.8776	0.4998	-0.563
Mof_O 	O 	0.9126	0.5741	0.563	-0.522
Mof_O 	O 	0.0208	0.53	0.6213	-0.599
Mof_O 	O 	0.0284	0.5172	0.8721	-0.593
Mof_O 	O 	0.9227	0.5512	0.9242	-0.595
Mof_C 	C 	0.0224	0.6806	0.4585	0.523
Mof_C 	C 	0.2432	0.9206	0.4739	0.332
Mof_C 	C 	0.0546	0.7784	0.444	-0.196
Mof_C 	C 	0.1312	0.7974	0.4623	0.084
Mof_H 	H 	0.1624	0.7502	0.4845	0.006
Mof_C 	C 	0.1621	0.895	0.4454	-0.119
Mof_C 	C 	0.1132	0.9653	0.4241	0.035
Mof_H 	H 	0.1326	0.0277	0.4171	0.028
Mof_C 	C 	0.0351	0.9507	0.412	-0.099
Mof_C 	C 	0.0072	0.8551	0.4216	0.07
Mof_H 	H 	0.9551	0.8431	0.4125	0.012
Mof_C 	C 	0.9829	0.0292	0.3895	0.15
Mof_C 	C 	0.0107	0.1206	0.3665	-0.186
Mof_H 	H 	0.0632	0.1299	0.3638	0.098
Mof_C 	C 	0.9605	0.1954	0.3484	0.118
Mof_H 	H 	0.9799	0.2514	0.3286	-0.009
Mof_C 	C 	0.8614	0.11	0.3684	0.158
Mof_H 	H 	0.8084	0.1014	0.3632	-0.061
Mof_C 	C 	0.9069	0.0288	0.3886	-0.235
Mof_H 	H 	0.8827	0.9718	0.402	0.103
Mof_C 	C 	0.7437	0.5684	0.4978	0.348
Mof_C 	C 	0.5396	0.8151	0.5275	0.529
Mof_C 	C 	0.6677	0.5931	0.5233	-0.148
Mof_C 	C 	0.6394	0.6896	0.5179	0.122
Mof_H 	H 	0.6705	0.7373	0.4999	0.003
Mof_C 	C 	0.5679	0.7177	0.5376	-0.237
Mof_C 	C 	0.5259	0.6472	0.5713	0.1
Mof_H 	H 	0.4787	0.6646	0.587	-0.009
Mof_C 	C 	0.5533	0.5497	0.5824	-0.131
Mof_C 	C 	0.6273	0.5268	0.5603	0.061
Mof_H 	H 	0.6488	0.4658	0.571	0.019
Mof_C 	C 	0.511	0.4762	0.6207	0.214
Mof_C 	C 	0.4455	0.4964	0.6484	-0.253
Mof_H 	H 	0.4296	0.5614	0.6499	0.106
Mof_C 	C 	0.3989	0.4234	0.6758	0.166
Mof_H 	H 	0.3554	0.4428	0.6971	-0.045
Mof_C 	C 	0.4741	0.3122	0.641	0.184
Mof_H 	H 	0.4861	0.2464	0.6349	-0.035
Mof_C 	C 	0.5194	0.3807	0.6171	-0.277
Mof_H 	H 	0.5619	0.3584	0.5955	0.128
Mof_C 	C 	0.9544	0.5597	0.6191	0.557
Mof_C 	C 	0.9628	0.5493	0.8769	0.575
Mof_C 	C 	0.9191	0.5847	0.6815	-0.264
Mof_C 	C 	0.9536	0.5563	0.7435	0.178
Mof_H 	H 	0.0004	0.5234	0.7452	-0.028
Mof_C 	C 	0.9189	0.5764	0.8042	-0.224
Mof_C 	C 	0.8494	0.6197	0.8018	0.137
Mof_H 	H 	0.8262	0.629	0.8427	-0.005
Mof_C 	C 	0.8134	0.6493	0.7448	-0.161
Mof_C 	C 	0.8473	0.629	0.6811	0.123
Mof_H 	H 	0.8211	0.6457	0.6397	-0.001
Mof_C 	C 	0.7328	0.6965	0.739	0.207
Mof_C 	C 	0.6718	0.6608	0.773	-0.266
Mof_H 	H 	0.6785	0.6057	0.801	0.13
Mof_C 	C 	0.6009	0.7065	0.7658	0.237
Mof_H 	H 	0.5602	0.6817	0.7888	-0.051
Mof_C 	C 	0.6507	0.8245	0.69	0.168
Mof_H 	H 	0.644	0.8795	0.6621	-0.024
Mof_C 	C 	0.7213	0.7783	0.697	-0.241
Mof_H 	H 	0.7616	0.8023	0.6733	0.12
Mof_C 	C 	0.7333	0.7611	0.794	-0.103
Mof_C 	C 	0.6694	0.818	0.8055	0.045
Mof_C 	C 	0.6037	0.745	0.7065	-0.225
Mof_C 	C 	0.6676	0.688	0.6951	0.049
Mof_H 	H 	0.7773	0.7666	0.8236	0.071
Mof_H 	H 	0.6703	0.8606	0.8425	0.023
Mof_H 	H 	0.5598	0.7391	0.6768	0.102
Mof_H 	H 	0.6667	0.6453	0.6581	0.018
Mof_N 	N 	0.6043	0.809	0.7614	-0.135
_end
