data_functionalizedCrystal
_audit_creation_method	'EQeq! by Chris Wilmer'
_symmetry_space_group_name_H-M	'P1'
_symmetry_Int_Tables_number	1
_symmetry_cell_setting	triclinic
loop_
_symmetry_equiv_pos_as_xyz
  x,y,z
_cell_length_a	18.9307
_cell_length_b	18.9307
_cell_length_c	20.989
_cell_angle_alpha	90
_cell_angle_beta	90
_cell_angle_gamma	90
loop_
_atom_site_label
_atom_site_type_symbol
_atom_site_fract_x
_atom_site_fract_y
_atom_site_fract_z
_atom_site_charge
Mof_Nd	Nd	0.5	0	0.75	2.161
Mof_Nd	Nd	1.03927e-33	0.5	0.25	2.16
Mof_Nd	Nd	0.5	0	0.25	2.16
Mof_Nd	Nd	3.1178e-33	0.5	0.75	2.16
Mof_H 	H 	0.3224	0.2141	0.7998	0.058
Mof_H 	H 	0.4344	0.1117	0.9349	0.032
Mof_H 	H 	0.6063	0.9212	0.6347	0.053
Mof_H 	H 	0.6483	0.8195	0.5876	0.082
Mof_H 	H 	0.6111	0.7108	0.6277	0.046
Mof_H 	H 	0.5355	0.6429	0.7086	0.049
Mof_H 	H 	0.6776	0.7859	0.7998	0.074
Mof_H 	H 	0.5656	0.8883	0.9349	0.065
Mof_H 	H 	0.3937	0.0788	0.6347	-0.018
Mof_H 	H 	0.3517	0.1805	0.5876	0.06
Mof_H 	H 	0.3889	0.2892	0.6277	0.041
Mof_H 	H 	0.4645	0.3571	0.7086	0.049
Mof_H 	H 	0.7859	0.3224	0.2998	0.068
Mof_H 	H 	0.8883	0.4344	0.4349	0.063
Mof_H 	H 	0.0788	0.6063	0.1347	-0.016
Mof_H 	H 	0.1805	0.6483	0.0876	0.067
Mof_H 	H 	0.2892	0.6111	0.1277	0.042
Mof_H 	H 	0.3571	0.5355	0.2086	0.049
Mof_H 	H 	0.2141	0.6776	0.2998	0.063
Mof_H 	H 	0.1117	0.5656	0.4349	0.033
Mof_H 	H 	0.9212	0.3937	0.1347	0.051
Mof_H 	H 	0.8195	0.3517	0.0876	0.074
Mof_H 	H 	0.7108	0.3889	0.1277	0.045
Mof_H 	H 	0.6429	0.4645	0.2086	0.05
Mof_H 	H 	0.6776	0.2141	0.7002	0.063
Mof_H 	H 	0.5656	0.1117	0.5651	0.033
Mof_H 	H 	0.3937	0.9212	0.8653	0.051
Mof_H 	H 	0.3517	0.8195	0.9124	0.075
Mof_H 	H 	0.3889	0.7108	0.8723	0.045
Mof_H 	H 	0.4645	0.6429	0.7914	0.05
Mof_H 	H 	0.3224	0.7859	0.7002	0.068
Mof_H 	H 	0.4344	0.8883	0.5651	0.063
Mof_H 	H 	0.6063	0.0788	0.8653	-0.016
Mof_H 	H 	0.6483	0.1805	0.9124	0.068
Mof_H 	H 	0.6111	0.2892	0.8723	0.042
Mof_H 	H 	0.5355	0.3571	0.7914	0.049
Mof_H 	H 	0.2141	0.3224	0.2002	0.058
Mof_H 	H 	0.1117	0.4344	0.0651	0.031
Mof_H 	H 	0.9212	0.6063	0.3653	0.053
Mof_H 	H 	0.8195	0.6483	0.4124	0.082
Mof_H 	H 	0.7108	0.6111	0.3723	0.046
Mof_H 	H 	0.6429	0.5355	0.2914	0.049
Mof_H 	H 	0.7859	0.6776	0.2002	0.074
Mof_H 	H 	0.8883	0.5656	0.0651	0.064
Mof_H 	H 	0.0788	0.3937	0.3653	-0.018
Mof_H 	H 	0.1805	0.3517	0.4124	0.06
Mof_H 	H 	0.2892	0.3889	0.3723	0.041
Mof_H 	H 	0.3571	0.4645	0.2914	0.049
Mof_H 	H 	0.6776	0.7859	0.2002	0.074
Mof_H 	H 	0.5656	0.8883	0.0651	0.064
Mof_H 	H 	0.3937	0.0788	0.3653	-0.018
Mof_H 	H 	0.3517	0.1805	0.4124	0.06
Mof_H 	H 	0.3889	0.2892	0.3723	0.041
Mof_H 	H 	0.4645	0.3571	0.2914	0.049
Mof_H 	H 	0.3224	0.2141	0.2002	0.058
Mof_H 	H 	0.4344	0.1117	0.0651	0.031
Mof_H 	H 	0.6063	0.9212	0.3653	0.053
Mof_H 	H 	0.6483	0.8195	0.4124	0.082
Mof_H 	H 	0.6111	0.7108	0.3723	0.046
Mof_H 	H 	0.5355	0.6429	0.2914	0.049
Mof_H 	H 	0.2141	0.6776	0.7002	0.063
Mof_H 	H 	0.1117	0.5656	0.5651	0.033
Mof_H 	H 	0.9212	0.3937	0.8653	0.051
Mof_H 	H 	0.8195	0.3517	0.9124	0.075
Mof_H 	H 	0.7108	0.3889	0.8723	0.045
Mof_H 	H 	0.6429	0.4645	0.7914	0.05
Mof_H 	H 	0.7859	0.3224	0.7002	0.068
Mof_H 	H 	0.8883	0.4344	0.5651	0.063
Mof_H 	H 	0.0788	0.6063	0.8653	-0.016
Mof_H 	H 	0.1805	0.6483	0.9124	0.068
Mof_H 	H 	0.2892	0.6111	0.8723	0.042
Mof_H 	H 	0.3571	0.5355	0.7914	0.049
Mof_H 	H 	0.3224	0.7859	0.2998	0.068
Mof_H 	H 	0.4344	0.8883	0.4349	0.063
Mof_H 	H 	0.6063	0.0788	0.1347	-0.016
Mof_H 	H 	0.6483	0.1805	0.0876	0.067
Mof_H 	H 	0.6111	0.2892	0.1277	0.042
Mof_H 	H 	0.5355	0.3571	0.2086	0.049
Mof_H 	H 	0.6776	0.2141	0.2998	0.063
Mof_H 	H 	0.5656	0.1117	0.4349	0.033
Mof_H 	H 	0.3937	0.9212	0.1347	0.051
Mof_H 	H 	0.3517	0.8195	0.0876	0.074
Mof_H 	H 	0.3889	0.7108	0.1277	0.045
Mof_H 	H 	0.4645	0.6429	0.2086	0.05
Mof_H 	H 	0.7859	0.6776	0.7998	0.074
Mof_H 	H 	0.8883	0.5656	0.9349	0.065
Mof_H 	H 	0.0788	0.3937	0.6347	-0.018
Mof_H 	H 	0.1805	0.3517	0.5876	0.06
Mof_H 	H 	0.2892	0.3889	0.6277	0.041
Mof_H 	H 	0.3571	0.4645	0.7086	0.049
Mof_H 	H 	0.2141	0.3224	0.7998	0.058
Mof_H 	H 	0.1117	0.4344	0.9349	0.032
Mof_H 	H 	0.9212	0.6063	0.6347	0.053
Mof_H 	H 	0.8195	0.6483	0.5876	0.082
Mof_H 	H 	0.7108	0.6111	0.6277	0.046
Mof_H 	H 	0.6429	0.5355	0.7086	0.049
Mof_H 	H 	0.341	0.341	0.7839	0.08
Mof_H 	H 	0.3855	0.3855	0.8348	0.102
Mof_H 	H 	0.659	0.659	0.7839	0.087
Mof_H 	H 	0.6145	0.6145	0.8348	0.106
Mof_H 	H 	0.659	0.341	0.2839	0.083
Mof_H 	H 	0.6145	0.3855	0.3348	0.104
Mof_H 	H 	0.341	0.659	0.2839	0.083
Mof_H 	H 	0.3855	0.6145	0.3348	0.104
Mof_H 	H 	0.659	0.341	0.7161	0.083
Mof_H 	H 	0.6145	0.3855	0.6652	0.104
Mof_H 	H 	0.341	0.659	0.7161	0.083
Mof_H 	H 	0.3855	0.6145	0.6652	0.104
Mof_H 	H 	0.341	0.341	0.2161	0.08
Mof_H 	H 	0.3855	0.3855	0.1652	0.102
Mof_H 	H 	0.659	0.659	0.2161	0.086
Mof_H 	H 	0.6145	0.6145	0.1652	0.106
Mof_H 	H 	0.5173	0.1737	-0	0.067
Mof_H 	H 	0.5195	0.2584	-0	0.098
Mof_H 	H 	0.4827	0.8263	-0	0.087
Mof_H 	H 	0.4805	0.7416	-0	0.106
Mof_H 	H 	0.8263	0.5173	0.5	0.088
Mof_H 	H 	0.7416	0.5195	0.5	0.107
Mof_H 	H 	0.1737	0.4827	0.5	0.066
Mof_H 	H 	0.2584	0.4805	0.5	0.098
Mof_H 	H 	0.4827	0.1737	0.5	0.066
Mof_H 	H 	0.4805	0.2584	0.5	0.098
Mof_H 	H 	0.5173	0.8263	0.5	0.088
Mof_H 	H 	0.5195	0.7416	0.5	0.107
Mof_H 	H 	0.1737	0.5173	-0	0.067
Mof_H 	H 	0.2584	0.5195	-0	0.098
Mof_H 	H 	0.8263	0.4827	-0	0.087
Mof_H 	H 	0.7416	0.4805	-0	0.106
Mof_C 	C 	0.3747	0.2812	0.8595	0.032
Mof_C 	C 	0.3523	0.2157	0.8361	-0.032
Mof_C 	C 	0.3727	0.1534	0.8647	-0.096
Mof_C 	C 	0.4188	0.1547	0.9163	-0.019
Mof_C 	C 	0.4417	0.2181	0.9404	0.022
Mof_C 	C 	0.42	0.2817	0.9131	0.078
Mof_C 	C 	0.5905	0.8773	0.6514	0.077
Mof_C 	C 	0.6164	0.8168	0.6225	-0.081
Mof_C 	C 	0.5946	0.7536	0.646	-0.025
Mof_C 	C 	0.5473	0.7523	0.6975	0.002
Mof_C 	C 	0.521	0.6869	0.7261	-0.051
Mof_C 	C 	0.5241	0.8177	0.7229	0.04
Mof_C 	C 	0.6253	0.7188	0.8595	0.05
Mof_C 	C 	0.6477	0.7843	0.8361	-0.05
Mof_C 	C 	0.6273	0.8466	0.8647	-0.063
Mof_C 	C 	0.5812	0.8453	0.9163	-0.043
Mof_C 	C 	0.5583	0.7819	0.9404	0.046
Mof_C 	C 	0.58	0.7183	0.9131	0.066
Mof_C 	C 	0.4095	0.1227	0.6514	0.082
Mof_C 	C 	0.3836	0.1832	0.6225	-0.099
Mof_C 	C 	0.4054	0.2464	0.646	-0.022
Mof_C 	C 	0.4527	0.2477	0.6975	-0.001
Mof_C 	C 	0.479	0.3131	0.7261	-0.051
Mof_C 	C 	0.4759	0.1823	0.7229	0.038
Mof_C 	C 	0.7188	0.3747	0.3595	0.044
Mof_C 	C 	0.7843	0.3523	0.3361	-0.047
Mof_C 	C 	0.8466	0.3727	0.3647	-0.07
Mof_C 	C 	0.8453	0.4188	0.4163	-0.04
Mof_C 	C 	0.7819	0.4417	0.4404	0.042
Mof_C 	C 	0.7183	0.42	0.4131	0.068
Mof_C 	C 	0.1227	0.5905	0.1514	0.085
Mof_C 	C 	0.1832	0.6164	0.1225	-0.1
Mof_C 	C 	0.2464	0.5946	0.146	-0.019
Mof_C 	C 	0.2477	0.5473	0.1975	-0.002
Mof_C 	C 	0.3131	0.521	0.2261	-0.05
Mof_C 	C 	0.1823	0.5241	0.2229	0.039
Mof_C 	C 	0.2812	0.6253	0.3595	0.037
Mof_C 	C 	0.2157	0.6477	0.3361	-0.035
Mof_C 	C 	0.1534	0.6273	0.3647	-0.09
Mof_C 	C 	0.1547	0.5812	0.4163	-0.02
Mof_C 	C 	0.2181	0.5583	0.4404	0.023
Mof_C 	C 	0.2817	0.58	0.4131	0.077
Mof_C 	C 	0.8773	0.4095	0.1514	0.074
Mof_C 	C 	0.8168	0.3836	0.1225	-0.08
Mof_C 	C 	0.7536	0.4054	0.146	-0.028
Mof_C 	C 	0.7523	0.4527	0.1975	0.003
Mof_C 	C 	0.6869	0.479	0.2261	-0.052
Mof_C 	C 	0.8177	0.4759	0.2229	0.039
Mof_C 	C 	0.6253	0.2812	0.6405	0.037
Mof_C 	C 	0.6477	0.2157	0.6639	-0.035
Mof_C 	C 	0.6273	0.1534	0.6353	-0.09
Mof_C 	C 	0.5812	0.1547	0.5837	-0.02
Mof_C 	C 	0.5583	0.2181	0.5596	0.023
Mof_C 	C 	0.58	0.2817	0.5869	0.077
Mof_C 	C 	0.4095	0.8773	0.8486	0.074
Mof_C 	C 	0.3836	0.8168	0.8775	-0.08
Mof_C 	C 	0.4054	0.7536	0.854	-0.028
Mof_C 	C 	0.4527	0.7523	0.8025	0.003
Mof_C 	C 	0.479	0.6869	0.7739	-0.052
Mof_C 	C 	0.4759	0.8177	0.7771	0.039
Mof_C 	C 	0.3747	0.7188	0.6405	0.044
Mof_C 	C 	0.3523	0.7843	0.6639	-0.047
Mof_C 	C 	0.3727	0.8466	0.6353	-0.07
Mof_C 	C 	0.4188	0.8453	0.5837	-0.04
Mof_C 	C 	0.4417	0.7819	0.5596	0.042
Mof_C 	C 	0.42	0.7183	0.5869	0.068
Mof_C 	C 	0.5905	0.1227	0.8486	0.085
Mof_C 	C 	0.6164	0.1832	0.8775	-0.1
Mof_C 	C 	0.5946	0.2464	0.854	-0.019
Mof_C 	C 	0.5473	0.2477	0.8025	-0.002
Mof_C 	C 	0.521	0.3131	0.7739	-0.05
Mof_C 	C 	0.5241	0.1823	0.7771	0.039
Mof_C 	C 	0.2812	0.3747	0.1405	0.032
Mof_C 	C 	0.2157	0.3523	0.1639	-0.032
Mof_C 	C 	0.1534	0.3727	0.1353	-0.097
Mof_C 	C 	0.1547	0.4188	0.0837	-0.019
Mof_C 	C 	0.2181	0.4417	0.0596	0.021
Mof_C 	C 	0.2817	0.42	0.0869	0.078
Mof_C 	C 	0.8773	0.5905	0.3486	0.077
Mof_C 	C 	0.8168	0.6164	0.3775	-0.081
Mof_C 	C 	0.7536	0.5946	0.354	-0.025
Mof_C 	C 	0.7523	0.5473	0.3025	0.002
Mof_C 	C 	0.6869	0.521	0.2739	-0.051
Mof_C 	C 	0.8177	0.5241	0.2771	0.04
Mof_C 	C 	0.7188	0.6253	0.1405	0.05
Mof_C 	C 	0.7843	0.6477	0.1639	-0.05
Mof_C 	C 	0.8466	0.6273	0.1353	-0.063
Mof_C 	C 	0.8453	0.5812	0.0837	-0.043
Mof_C 	C 	0.7819	0.5583	0.0596	0.045
Mof_C 	C 	0.7183	0.58	0.0869	0.067
Mof_C 	C 	0.1227	0.4095	0.3486	0.082
Mof_C 	C 	0.1832	0.3836	0.3775	-0.099
Mof_C 	C 	0.2464	0.4054	0.354	-0.022
Mof_C 	C 	0.2477	0.4527	0.3025	-0.001
Mof_C 	C 	0.3131	0.479	0.2739	-0.051
Mof_C 	C 	0.1823	0.4759	0.2771	0.038
Mof_C 	C 	0.6253	0.7188	0.1405	0.05
Mof_C 	C 	0.6477	0.7843	0.1639	-0.05
Mof_C 	C 	0.6273	0.8466	0.1353	-0.063
Mof_C 	C 	0.5812	0.8453	0.0837	-0.043
Mof_C 	C 	0.5583	0.7819	0.0596	0.045
Mof_C 	C 	0.58	0.7183	0.0869	0.067
Mof_C 	C 	0.4095	0.1227	0.3486	0.082
Mof_C 	C 	0.3836	0.1832	0.3775	-0.099
Mof_C 	C 	0.4054	0.2464	0.354	-0.022
Mof_C 	C 	0.4527	0.2477	0.3025	-0.001
Mof_C 	C 	0.479	0.3131	0.2739	-0.051
Mof_C 	C 	0.4759	0.1823	0.2771	0.038
Mof_C 	C 	0.3747	0.2812	0.1405	0.032
Mof_C 	C 	0.3523	0.2157	0.1639	-0.032
Mof_C 	C 	0.3727	0.1534	0.1353	-0.097
Mof_C 	C 	0.4188	0.1547	0.0837	-0.019
Mof_C 	C 	0.4417	0.2181	0.0596	0.021
Mof_C 	C 	0.42	0.2817	0.0869	0.078
Mof_C 	C 	0.5905	0.8773	0.3486	0.077
Mof_C 	C 	0.6164	0.8168	0.3775	-0.081
Mof_C 	C 	0.5946	0.7536	0.354	-0.025
Mof_C 	C 	0.5473	0.7523	0.3025	0.002
Mof_C 	C 	0.521	0.6869	0.2739	-0.051
Mof_C 	C 	0.5241	0.8177	0.2771	0.04
Mof_C 	C 	0.2812	0.6253	0.6405	0.037
Mof_C 	C 	0.2157	0.6477	0.6639	-0.035
Mof_C 	C 	0.1534	0.6273	0.6353	-0.09
Mof_C 	C 	0.1547	0.5812	0.5837	-0.02
Mof_C 	C 	0.2181	0.5583	0.5596	0.023
Mof_C 	C 	0.2817	0.58	0.5869	0.077
Mof_C 	C 	0.8773	0.4095	0.8486	0.074
Mof_C 	C 	0.8168	0.3836	0.8775	-0.08
Mof_C 	C 	0.7536	0.4054	0.854	-0.028
Mof_C 	C 	0.7523	0.4527	0.8025	0.003
Mof_C 	C 	0.6869	0.479	0.7739	-0.052
Mof_C 	C 	0.8177	0.4759	0.7771	0.039
Mof_C 	C 	0.7188	0.3747	0.6405	0.044
Mof_C 	C 	0.7843	0.3523	0.6639	-0.047
Mof_C 	C 	0.8466	0.3727	0.6353	-0.07
Mof_C 	C 	0.8453	0.4188	0.5837	-0.04
Mof_C 	C 	0.7819	0.4417	0.5596	0.042
Mof_C 	C 	0.7183	0.42	0.5869	0.068
Mof_C 	C 	0.1227	0.5905	0.8486	0.085
Mof_C 	C 	0.1832	0.6164	0.8775	-0.1
Mof_C 	C 	0.2464	0.5946	0.854	-0.019
Mof_C 	C 	0.2477	0.5473	0.8025	-0.002
Mof_C 	C 	0.3131	0.521	0.7739	-0.05
Mof_C 	C 	0.1823	0.5241	0.7771	0.039
Mof_C 	C 	0.3747	0.7188	0.3595	0.044
Mof_C 	C 	0.3523	0.7843	0.3361	-0.047
Mof_C 	C 	0.3727	0.8466	0.3647	-0.07
Mof_C 	C 	0.4188	0.8453	0.4163	-0.04
Mof_C 	C 	0.4417	0.7819	0.4404	0.042
Mof_C 	C 	0.42	0.7183	0.4131	0.068
Mof_C 	C 	0.5905	0.1227	0.1514	0.085
Mof_C 	C 	0.6164	0.1832	0.1225	-0.1
Mof_C 	C 	0.5946	0.2464	0.146	-0.019
Mof_C 	C 	0.5473	0.2477	0.1975	-0.002
Mof_C 	C 	0.521	0.3131	0.2261	-0.05
Mof_C 	C 	0.5241	0.1823	0.2229	0.039
Mof_C 	C 	0.6253	0.2812	0.3595	0.037
Mof_C 	C 	0.6477	0.2157	0.3361	-0.035
Mof_C 	C 	0.6273	0.1534	0.3647	-0.09
Mof_C 	C 	0.5812	0.1547	0.4163	-0.02
Mof_C 	C 	0.5583	0.2181	0.4404	0.023
Mof_C 	C 	0.58	0.2817	0.4131	0.077
Mof_C 	C 	0.4095	0.8773	0.1514	0.074
Mof_C 	C 	0.3836	0.8168	0.1225	-0.08
Mof_C 	C 	0.4054	0.7536	0.146	-0.028
Mof_C 	C 	0.4527	0.7523	0.1975	0.003
Mof_C 	C 	0.479	0.6869	0.2261	-0.052
Mof_C 	C 	0.4759	0.8177	0.2229	0.039
Mof_C 	C 	0.7188	0.6253	0.8595	0.05
Mof_C 	C 	0.7843	0.6477	0.8361	-0.05
Mof_C 	C 	0.8466	0.6273	0.8647	-0.063
Mof_C 	C 	0.8453	0.5812	0.9163	-0.043
Mof_C 	C 	0.7819	0.5583	0.9404	0.046
Mof_C 	C 	0.7183	0.58	0.9131	0.066
Mof_C 	C 	0.1227	0.4095	0.6514	0.082
Mof_C 	C 	0.1832	0.3836	0.6225	-0.099
Mof_C 	C 	0.2464	0.4054	0.646	-0.022
Mof_C 	C 	0.2477	0.4527	0.6975	-0.001
Mof_C 	C 	0.3131	0.479	0.7261	-0.051
Mof_C 	C 	0.1823	0.4759	0.7229	0.038
Mof_C 	C 	0.2812	0.3747	0.8595	0.032
Mof_C 	C 	0.2157	0.3523	0.8361	-0.032
Mof_C 	C 	0.1534	0.3727	0.8647	-0.096
Mof_C 	C 	0.1547	0.4188	0.9163	-0.019
Mof_C 	C 	0.2181	0.4417	0.9404	0.022
Mof_C 	C 	0.2817	0.42	0.9131	0.078
Mof_C 	C 	0.8773	0.5905	0.6514	0.077
Mof_C 	C 	0.8168	0.6164	0.6225	-0.081
Mof_C 	C 	0.7536	0.5946	0.646	-0.025
Mof_C 	C 	0.7523	0.5473	0.6975	0.002
Mof_C 	C 	0.6869	0.521	0.7261	-0.051
Mof_C 	C 	0.8177	0.5241	0.7229	0.04
Mof_C 	C 	0.3487	0.3487	0.83	-0.168
Mof_C 	C 	0.6513	0.6513	0.83	-0.183
Mof_C 	C 	0.6513	0.3487	0.33	-0.175
Mof_C 	C 	0.3487	0.6513	0.33	-0.175
Mof_C 	C 	0.6513	0.3487	0.67	-0.175
Mof_C 	C 	0.3487	0.6513	0.67	-0.175
Mof_C 	C 	0.3487	0.3487	0.17	-0.168
Mof_C 	C 	0.6513	0.6513	0.17	-0.183
Mof_C 	C 	0.4877	0.2169	-0	-0.155
Mof_C 	C 	0.5123	0.7831	-0	-0.18
Mof_C 	C 	0.7831	0.4877	0.5	-0.177
Mof_C 	C 	0.2169	0.5123	0.5	-0.154
Mof_C 	C 	0.5123	0.2169	0.5	-0.154
Mof_C 	C 	0.4877	0.7831	0.5	-0.177
Mof_C 	C 	0.2169	0.4877	-0	-0.155
Mof_C 	C 	0.7831	0.5123	-0	-0.18
Mof_S 	S 	0.34335	0.07257	0.83539	0.606
Mof_S 	S 	0.65665	0.92743	0.83539	0.579
Mof_S 	S 	0.92743	0.34335	0.33539	0.584
Mof_S 	S 	0.07257	0.65665	0.33539	0.602
Mof_S 	S 	0.65665	0.07257	0.66461	0.602
Mof_S 	S 	0.34335	0.92743	0.66461	0.584
Mof_S 	S 	0.07257	0.34335	0.16461	0.606
Mof_S 	S 	0.92743	0.65665	0.16461	0.579
Mof_S 	S 	0.65665	0.92743	0.16461	0.579
Mof_S 	S 	0.34335	0.07257	0.16461	0.606
Mof_S 	S 	0.07257	0.65665	0.66461	0.602
Mof_S 	S 	0.92743	0.34335	0.66461	0.584
Mof_S 	S 	0.34335	0.92743	0.33539	0.584
Mof_S 	S 	0.65665	0.07257	0.33539	0.602
Mof_S 	S 	0.92743	0.65665	0.83539	0.579
Mof_S 	S 	0.07257	0.34335	0.83539	0.606
Mof_N 	N 	0.5461	0.8802	0.6998	-0.214
Mof_N 	N 	0.4539	0.1198	0.6998	-0.239
Mof_N 	N 	0.1198	0.5461	0.1998	-0.239
Mof_N 	N 	0.8802	0.4539	0.1998	-0.214
Mof_N 	N 	0.4539	0.8802	0.8002	-0.214
Mof_N 	N 	0.5461	0.1198	0.8002	-0.239
Mof_N 	N 	0.8802	0.5461	0.3002	-0.214
Mof_N 	N 	0.1198	0.4539	0.3002	-0.239
Mof_N 	N 	0.4539	0.1198	0.3002	-0.239
Mof_N 	N 	0.5461	0.8802	0.3002	-0.214
Mof_N 	N 	0.8802	0.4539	0.8002	-0.214
Mof_N 	N 	0.1198	0.5461	0.8002	-0.239
Mof_N 	N 	0.5461	0.1198	0.1998	-0.239
Mof_N 	N 	0.4539	0.8802	0.1998	-0.214
Mof_N 	N 	0.1198	0.4539	0.6998	-0.239
Mof_N 	N 	0.8802	0.5461	0.6998	-0.214
Mof_O 	O 	0.4436	0.3445	0.9367	-0.139
Mof_O 	O 	0.3071	0.038	0.8871	-0.298
Mof_O 	O 	0.4085	0.0344	0.81893	-0.57
Mof_O 	O 	0.3007	0.0869	0.7803	-0.298
Mof_O 	O 	0.5564	0.6555	0.9367	-0.136
Mof_O 	O 	0.6929	0.962	0.8871	-0.196
Mof_O 	O 	0.5915	0.9656	0.81893	-0.467
Mof_O 	O 	0.6993	0.9131	0.7803	-0.22
Mof_O 	O 	0.6555	0.4436	0.4367	-0.137
Mof_O 	O 	0.962	0.3071	0.3871	-0.214
Mof_O 	O 	0.9656	0.4085	0.31893	-0.468
Mof_O 	O 	0.9131	0.3007	0.2803	-0.237
Mof_O 	O 	0.3445	0.5564	0.4367	-0.139
Mof_O 	O 	0.038	0.6929	0.3871	-0.281
Mof_O 	O 	0.0344	0.5915	0.31893	-0.568
Mof_O 	O 	0.0869	0.6993	0.2803	-0.282
Mof_O 	O 	0.5564	0.3445	0.5633	-0.139
Mof_O 	O 	0.6929	0.038	0.6129	-0.281
Mof_O 	O 	0.5915	0.0344	0.68107	-0.568
Mof_O 	O 	0.6993	0.0869	0.7197	-0.282
Mof_O 	O 	0.4436	0.6555	0.5633	-0.137
Mof_O 	O 	0.3071	0.962	0.6129	-0.214
Mof_O 	O 	0.4085	0.9656	0.68107	-0.468
Mof_O 	O 	0.3007	0.9131	0.7197	-0.237
Mof_O 	O 	0.3445	0.4436	0.0633	-0.14
Mof_O 	O 	0.038	0.3071	0.1129	-0.298
Mof_O 	O 	0.0344	0.4085	0.18107	-0.57
Mof_O 	O 	0.0869	0.3007	0.2197	-0.298
Mof_O 	O 	0.6555	0.5564	0.0633	-0.137
Mof_O 	O 	0.962	0.6929	0.1129	-0.197
Mof_O 	O 	0.9656	0.5915	0.18107	-0.467
Mof_O 	O 	0.9131	0.6993	0.2197	-0.22
Mof_O 	O 	0.5564	0.6555	0.0633	-0.137
Mof_O 	O 	0.6929	0.962	0.1129	-0.197
Mof_O 	O 	0.5915	0.9656	0.18107	-0.467
Mof_O 	O 	0.6993	0.9131	0.2197	-0.22
Mof_O 	O 	0.4436	0.3445	0.0633	-0.14
Mof_O 	O 	0.3071	0.038	0.1129	-0.298
Mof_O 	O 	0.4085	0.0344	0.18107	-0.57
Mof_O 	O 	0.3007	0.0869	0.2197	-0.298
Mof_O 	O 	0.3445	0.5564	0.5633	-0.139
Mof_O 	O 	0.038	0.6929	0.6129	-0.281
Mof_O 	O 	0.0344	0.5915	0.68107	-0.568
Mof_O 	O 	0.0869	0.6993	0.7197	-0.282
Mof_O 	O 	0.6555	0.4436	0.5633	-0.137
Mof_O 	O 	0.962	0.3071	0.6129	-0.214
Mof_O 	O 	0.9656	0.4085	0.68107	-0.468
Mof_O 	O 	0.9131	0.3007	0.7197	-0.237
Mof_O 	O 	0.4436	0.6555	0.4367	-0.137
Mof_O 	O 	0.3071	0.962	0.3871	-0.214
Mof_O 	O 	0.4085	0.9656	0.31893	-0.468
Mof_O 	O 	0.3007	0.9131	0.2803	-0.237
Mof_O 	O 	0.5564	0.3445	0.4367	-0.139
Mof_O 	O 	0.6929	0.038	0.3871	-0.281
Mof_O 	O 	0.5915	0.0344	0.31893	-0.568
Mof_O 	O 	0.6993	0.0869	0.2803	-0.282
Mof_O 	O 	0.6555	0.5564	0.9367	-0.136
Mof_O 	O 	0.962	0.6929	0.8871	-0.196
Mof_O 	O 	0.9656	0.5915	0.81893	-0.467
Mof_O 	O 	0.9131	0.6993	0.7803	-0.22
Mof_O 	O 	0.3445	0.4436	0.9367	-0.139
Mof_O 	O 	0.038	0.3071	0.8871	-0.298
Mof_O 	O 	0.0344	0.4085	0.81893	-0.57
Mof_O 	O 	0.0869	0.3007	0.7803	-0.298
_end
