data_functionalizedCrystal
_audit_creation_method	'EQeq! by Chris Wilmer'
_symmetry_space_group_name_H-M	'P1'
_symmetry_Int_Tables_number	1
_symmetry_cell_setting	triclinic
loop_
_symmetry_equiv_pos_as_xyz
  x,y,z
_cell_length_a	34.95
_cell_length_b	17.274
_cell_length_c	16.676
_cell_angle_alpha	90
_cell_angle_beta	90
_cell_angle_gamma	90
loop_
_atom_site_label
_atom_site_type_symbol
_atom_site_fract_x
_atom_site_fract_y
_atom_site_fract_z
_atom_site_charge
Mof_O 	O 	0.52	0.386	0.6404	-0.497
Mof_C 	C 	0.4883	0.4241	0.6279	0.274
Mof_N 	N 	0.3333	0.9952	0.3706	-0.276
Mof_Er	Er	0.44615	0.55481	0.48225	1.563
Mof_Zn	Zn	0.34026	0.43164	0.76865	1.192
Mof_Zn	Zn	0.49068	0.78812	0.76159	1.179
Mof_Zn	Zn	0.33401	0.82752	0.56453	1.154
Mof_O 	O 	0.2916	0.0476	0.6196	-0.442
Mof_O 	O 	0.4115	0.5458	0.5973	-0.456
Mof_O 	O 	0.4844	0.4682	0.564	-0.493
Mof_O 	O 	0.4827	0.6418	0.5597	-0.408
Mof_N 	N 	0.3268	0.9058	0.4721	-0.295
Mof_O 	O 	0.5053	0.7007	0.6706	-0.42
Mof_O 	O 	0.3586	0.7372	0.4861	-0.453
Mof_O 	O 	0.3371	0.3268	0.6845	-0.374
Mof_N 	N 	0.4409	0.7907	0.6924	-0.288
Mof_N 	N 	0.4612	0.356	0.7492	-0.296
Mof_O 	O 	0.3609	0.5153	0.6769	-0.433
Mof_O 	O 	0.3233	0.1524	0.3671	-0.406
Mof_N 	N 	0.4013	0.4097	0.7654	-0.255
Mof_C 	C 	0.3039	0.9851	0.5892	0.32
Mof_C 	C 	0.4788	0.6914	0.616	0.303
Mof_C 	C 	0.4087	0.7489	0.5837	-0.065
Mof_C 	C 	0.3929	0.7157	0.508	0.316
Mof_N 	N 	0.385	0.8038	0.6227	-0.289
Mof_C 	C 	0.4193	0.4472	0.6986	-0.07
Mof_N 	N 	0.2826	0.4341	0.7273	-0.3
Mof_O 	O 	0.3112	0.9234	0.6331	-0.454
Mof_C 	C 	0.4566	0.4128	0.6892	-0.046
Mof_O 	O 	0.2912	0.1561	0.485	-0.436
Mof_C 	C 	0.2706	0.3644	0.6937	-0.05
Mof_C 	C 	0.4425	0.7394	0.628	-0.046
Mof_C 	C 	0.3376	0.9173	0.3948	0.239
Mof_C 	C 	0.3188	0.0328	0.4382	-0.061
Mof_C 	C 	0.3101	0.1204	0.4283	0.325
Mof_O 	O 	0.2919	0.2463	0.6274	-0.447
Mof_C 	C 	0.4617	0.5927	0.9732	0.034
Mof_C 	C 	0.3956	0.5065	0.654	0.335
Mof_C 	C 	0.4283	0.3552	0.7921	0.292
Mof_C 	C 	0.315	0.981	0.5016	-0.094
Mof_C 	C 	0.4482	0.5322	0.0324	0.033
Mof_C 	C 	0.4896	0.6484	0.9853	-0.104
Mof_H 	H 	0.502	0.6491	0.0346	0.048
Mof_O 	O 	0.4126	0.6681	0.4649	-0.45
Mof_C 	C 	0.3022	0.308	0.6705	0.311
Mof_C 	C 	0.4162	0.4827	0.02	-0.125
Mof_H 	H 	0.4032	0.483	0.9714	0.061
Mof_N 	N 	0.482	0.7034	0.8503	-0.252
Mof_C 	C 	0.4063	0.8275	0.6911	0.282
Mof_N 	N 	0.4239	0.4253	0.1567	-0.203
Mof_C 	C 	0.4686	0.526	0.11	-0.116
Mof_H 	H 	0.4899	0.5565	0.1204	0.05
Mof_C 	C 	0.4572	0.6462	0.8341	0.05
Mof_H 	H 	0.447	0.6426	0.7828	-0.016
Mof_C 	C 	0.3909	0.8836	0.7484	-0.816
Mof_H 	H 	0.3819	0.8569	0.7953	0.241
Mof_H 	H 	0.37	0.9111	0.7242	0.253
Mof_H 	H 	0.4105	0.9196	0.7634	0.235
Mof_C 	C 	0.3485	0.8527	0.3389	-0.773
Mof_H 	H 	0.3257	0.8289	0.3182	0.203
Mof_H 	H 	0.3633	0.8149	0.3675	0.249
Mof_H 	H 	0.3633	0.8731	0.2953	0.238
Mof_C 	C 	0.4191	0.3035	0.8623	-0.851
Mof_H 	H 	0.4209	0.2503	0.846	0.271
Mof_H 	H 	0.3936	0.314	0.8806	0.279
Mof_H 	H 	0.4369	0.3133	0.9049	0.272
Mof_C 	C 	0.455	0.4726	0.1682	0.054
Mof_H 	H 	0.4678	0.4696	0.2169	-0.01
Mof_C 	C 	0.4042	0.432	0.084	0.051
Mof_H 	H 	0.3822	0.4024	0.0766	0.009
Mof_C 	C 	0.4462	0.5908	0.8925	-0.114
Mof_H 	H 	0.4286	0.5526	0.8788	0.057
Mof_C 	C 	0.4997	0.7005	0.9319	0.041
Mof_H 	H 	0.5184	0.7366	0.9452	-0.007
Mof_H 	H 	0.2628	0.5912	0.7452	0.268
Mof_H 	H 	0.2241	0.5734	0.7891	0.271
Mof_H 	H 	0.2631	0.5561	0.8319	0.278
Mof_H 	H 	0.4169	0.3927	0.1928	0.104
Mof_O 	O 	0.48	0.886	0.8596	-0.495
Mof_C 	C 	0.5117	0.9241	0.8721	0.274
Mof_N 	N 	0.6667	0.4952	0.1294	-0.277
Mof_Er	Er	0.55385	0.05481	0.01775	1.557
Mof_Zn	Zn	0.65974	0.93164	0.73135	1.192
Mof_Zn	Zn	0.50932	0.28812	0.73841	1.179
Mof_Zn	Zn	0.66599	0.32752	0.93547	1.154
Mof_O 	O 	0.7084	0.5476	0.8804	-0.443
Mof_O 	O 	0.5885	0.0458	0.9027	-0.454
Mof_O 	O 	0.5156	0.9682	0.936	-0.493
Mof_O 	O 	0.5173	0.1418	0.9403	-0.405
Mof_N 	N 	0.6732	0.4058	0.0279	-0.294
Mof_O 	O 	0.4947	0.2007	0.8294	-0.419
Mof_O 	O 	0.6414	0.2372	0.0139	-0.455
Mof_O 	O 	0.6629	0.8268	0.8155	-0.374
Mof_N 	N 	0.5591	0.2907	0.8076	-0.288
Mof_N 	N 	0.5388	0.856	0.7508	-0.296
Mof_O 	O 	0.6391	0.0153	0.8231	-0.432
Mof_O 	O 	0.6767	0.6524	0.1329	-0.406
Mof_N 	N 	0.5987	0.9097	0.7346	-0.255
Mof_C 	C 	0.6961	0.4851	0.9108	0.322
Mof_C 	C 	0.5212	0.1914	0.884	0.302
Mof_C 	C 	0.5913	0.2489	0.9163	-0.066
Mof_C 	C 	0.6071	0.2157	0.992	0.32
Mof_N 	N 	0.615	0.3038	0.8773	-0.289
Mof_C 	C 	0.5807	0.9472	0.8014	-0.073
Mof_N 	N 	0.7174	0.9341	0.7727	-0.3
Mof_O 	O 	0.6888	0.4234	0.8669	-0.454
Mof_C 	C 	0.5434	0.9128	0.8108	-0.046
Mof_O 	O 	0.7088	0.6561	0.015	-0.434
Mof_C 	C 	0.7294	0.8644	0.8063	-0.051
Mof_C 	C 	0.5575	0.2394	0.872	-0.045
Mof_C 	C 	0.6624	0.4173	0.1052	0.239
Mof_C 	C 	0.6812	0.5328	0.0618	-0.059
Mof_C 	C 	0.6899	0.6204	0.0717	0.324
Mof_O 	O 	0.7081	0.7463	0.8726	-0.447
Mof_C 	C 	0.5383	0.0927	0.5268	0.033
Mof_C 	C 	0.6044	0.0065	0.846	0.337
Mof_C 	C 	0.5717	0.8552	0.7079	0.291
Mof_C 	C 	0.685	0.481	0.9984	-0.096
Mof_C 	C 	0.5518	0.0322	0.4676	0.033
Mof_C 	C 	0.5104	0.1484	0.5147	-0.1
Mof_H 	H 	0.498	0.1491	0.4654	0.045
Mof_O 	O 	0.5874	0.1681	0.0351	-0.452
Mof_C 	C 	0.6978	0.808	0.8295	0.311
Mof_C 	C 	0.5838	0.9827	0.48	-0.123
Mof_H 	H 	0.5968	0.983	0.5286	0.06
Mof_N 	N 	0.518	0.2034	0.6497	-0.251
Mof_C 	C 	0.5937	0.3275	0.8089	0.283
Mof_N 	N 	0.5761	0.9253	0.3433	-0.203
Mof_C 	C 	0.5314	0.026	0.39	-0.118
Mof_H 	H 	0.5101	0.0565	0.3796	0.05
Mof_C 	C 	0.5428	0.1462	0.6659	0.049
Mof_H 	H 	0.553	0.1426	0.7172	-0.016
Mof_C 	C 	0.6091	0.3836	0.7516	-0.817
Mof_H 	H 	0.6181	0.3569	0.7047	0.241
Mof_H 	H 	0.63	0.4111	0.7758	0.254
Mof_H 	H 	0.5895	0.4196	0.7366	0.236
Mof_C 	C 	0.6515	0.3527	0.1611	-0.772
Mof_H 	H 	0.6743	0.3289	0.1818	0.202
Mof_H 	H 	0.6367	0.3149	0.1325	0.249
Mof_H 	H 	0.6367	0.3731	0.2047	0.238
Mof_C 	C 	0.5809	0.8035	0.6377	-0.849
Mof_H 	H 	0.5791	0.7503	0.654	0.27
Mof_H 	H 	0.6064	0.814	0.6194	0.278
Mof_H 	H 	0.5631	0.8133	0.5951	0.271
Mof_C 	C 	0.545	0.9726	0.3318	0.056
Mof_H 	H 	0.5322	0.9696	0.2831	-0.01
Mof_C 	C 	0.5958	0.932	0.416	0.051
Mof_H 	H 	0.6178	0.9024	0.4234	0.01
Mof_C 	C 	0.5538	0.0908	0.6075	-0.113
Mof_H 	H 	0.5714	0.0526	0.6212	0.057
Mof_C 	C 	0.5003	0.2005	0.5681	0.039
Mof_H 	H 	0.4816	0.2366	0.5548	-0.006
Mof_H 	H 	0.7372	0.0912	0.7548	0.267
Mof_H 	H 	0.7759	0.0734	0.7109	0.27
Mof_H 	H 	0.7369	0.0561	0.6681	0.276
Mof_H 	H 	0.5831	0.8927	0.3072	0.104
Mof_O 	O 	0.02	0.614	0.3596	-0.496
Mof_C 	C 	0.9883	0.5759	0.3721	0.275
Mof_N 	N 	0.8333	0.0048	0.6294	-0.276
Mof_Er	Er	0.94615	0.44519	0.51775	1.563
Mof_Zn	Zn	0.84026	0.56836	0.23135	1.192
Mof_Zn	Zn	0.99068	0.21188	0.23841	1.179
Mof_Zn	Zn	0.83401	0.17248	0.43547	1.154
Mof_O 	O 	0.7916	0.9524	0.3804	-0.442
Mof_O 	O 	0.9115	0.4542	0.4027	-0.456
Mof_O 	O 	0.9844	0.5318	0.436	-0.493
Mof_O 	O 	0.9827	0.3582	0.4403	-0.408
Mof_N 	N 	0.8268	0.0942	0.5279	-0.295
Mof_O 	O 	0.0053	0.2993	0.3294	-0.419
Mof_O 	O 	0.8586	0.2628	0.5139	-0.453
Mof_O 	O 	0.8371	0.6732	0.3155	-0.374
Mof_N 	N 	0.9409	0.2093	0.3076	-0.288
Mof_N 	N 	0.9612	0.644	0.2508	-0.296
Mof_O 	O 	0.8609	0.4847	0.3231	-0.433
Mof_O 	O 	0.8233	0.8476	0.6329	-0.406
Mof_N 	N 	0.9013	0.5903	0.2346	-0.255
Mof_C 	C 	0.8039	0.0149	0.4108	0.32
Mof_C 	C 	0.9788	0.3086	0.384	0.302
Mof_C 	C 	0.9087	0.2511	0.4163	-0.065
Mof_C 	C 	0.8929	0.2843	0.492	0.316
Mof_N 	N 	0.885	0.1962	0.3773	-0.289
Mof_C 	C 	0.9193	0.5528	0.3014	-0.07
Mof_N 	N 	0.7826	0.5659	0.2727	-0.3
Mof_O 	O 	0.8112	0.0766	0.3669	-0.454
Mof_C 	C 	0.9566	0.5872	0.3108	-0.046
Mof_O 	O 	0.7912	0.8439	0.515	-0.436
Mof_C 	C 	0.7706	0.6356	0.3063	-0.05
Mof_C 	C 	0.9425	0.2606	0.372	-0.046
Mof_C 	C 	0.8376	0.0827	0.6052	0.239
Mof_C 	C 	0.8188	0.9672	0.5618	-0.061
Mof_C 	C 	0.8101	0.8796	0.5717	0.324
Mof_O 	O 	0.7919	0.7537	0.3726	-0.447
Mof_C 	C 	0.9617	0.4073	0.0268	0.035
Mof_C 	C 	0.8956	0.4935	0.346	0.335
Mof_C 	C 	0.9283	0.6448	0.2079	0.292
Mof_C 	C 	0.815	0.019	0.4984	-0.095
Mof_C 	C 	0.9482	0.4678	0.9676	0.032
Mof_C 	C 	0.9896	0.3516	0.0147	-0.104
Mof_H 	H 	0.002	0.3509	0.9654	0.048
Mof_O 	O 	0.9126	0.3319	0.5351	-0.45
Mof_C 	C 	0.8022	0.692	0.3295	0.311
Mof_C 	C 	0.9162	0.5173	0.98	-0.125
Mof_H 	H 	0.9032	0.517	0.0286	0.061
Mof_N 	N 	0.982	0.2966	0.1497	-0.252
Mof_C 	C 	0.9063	0.1725	0.3089	0.282
Mof_N 	N 	0.9239	0.5747	0.8433	-0.203
Mof_C 	C 	0.9686	0.474	0.89	-0.115
Mof_H 	H 	0.9899	0.4435	0.8796	0.05
Mof_C 	C 	0.9572	0.3538	0.1659	0.05
Mof_H 	H 	0.947	0.3574	0.2172	-0.016
Mof_C 	C 	0.8909	0.1164	0.2516	-0.816
Mof_H 	H 	0.8819	0.1431	0.2047	0.241
Mof_H 	H 	0.87	0.0889	0.2758	0.253
Mof_H 	H 	0.9105	0.0804	0.2366	0.235
Mof_C 	C 	0.8485	0.1473	0.6611	-0.773
Mof_H 	H 	0.8257	0.1711	0.6818	0.203
Mof_H 	H 	0.8633	0.1851	0.6325	0.249
Mof_H 	H 	0.8633	0.1269	0.7047	0.238
Mof_C 	C 	0.9191	0.6965	0.1377	-0.851
Mof_H 	H 	0.9209	0.7497	0.154	0.271
Mof_H 	H 	0.8936	0.686	0.1194	0.279
Mof_H 	H 	0.9369	0.6867	0.0951	0.272
Mof_C 	C 	0.955	0.5274	0.8318	0.054
Mof_H 	H 	0.9678	0.5304	0.7831	-0.01
Mof_C 	C 	0.9042	0.568	0.916	0.051
Mof_H 	H 	0.8822	0.5976	0.9234	0.009
Mof_C 	C 	0.9462	0.4092	0.1075	-0.114
Mof_H 	H 	0.9286	0.4474	0.1212	0.057
Mof_C 	C 	0.9997	0.2995	0.0681	0.04
Mof_H 	H 	0.0184	0.2634	0.0548	-0.007
Mof_H 	H 	0.7628	0.4088	0.2548	0.268
Mof_H 	H 	0.7241	0.4266	0.2109	0.271
Mof_H 	H 	0.7631	0.4439	0.1681	0.278
Mof_H 	H 	0.9169	0.6073	0.8072	0.104
Mof_O 	O 	0.98	0.114	0.1404	-0.496
Mof_C 	C 	0.0117	0.0759	0.1279	0.275
Mof_N 	N 	0.1667	0.5048	0.8706	-0.277
Mof_Er	Er	0.05385	0.94519	0.98225	1.557
Mof_Zn	Zn	0.15974	0.06836	0.26865	1.192
Mof_Zn	Zn	0.00932	0.71188	0.26159	1.179
Mof_Zn	Zn	0.16599	0.67248	0.06453	1.154
Mof_O 	O 	0.2084	0.4524	0.1196	-0.443
Mof_O 	O 	0.0885	0.9542	0.0973	-0.454
Mof_O 	O 	0.0156	0.0318	0.064	-0.493
Mof_O 	O 	0.0173	0.8582	0.0597	-0.405
Mof_N 	N 	0.1732	0.5942	0.9721	-0.294
Mof_O 	O 	0.9947	0.7993	0.1706	-0.418
Mof_O 	O 	0.1414	0.7628	0.9861	-0.455
Mof_O 	O 	0.1629	0.1732	0.1845	-0.374
Mof_N 	N 	0.0591	0.7093	0.1924	-0.288
Mof_N 	N 	0.0388	0.144	0.2492	-0.295
Mof_O 	O 	0.1391	0.9847	0.1769	-0.432
Mof_O 	O 	0.1767	0.3476	0.8671	-0.406
Mof_N 	N 	0.0987	0.0903	0.2654	-0.255
Mof_C 	C 	0.1961	0.5149	0.0892	0.322
Mof_C 	C 	0.0212	0.8086	0.116	0.302
Mof_C 	C 	0.0913	0.7511	0.0837	-0.066
Mof_C 	C 	0.1071	0.7843	0.008	0.32
Mof_N 	N 	0.115	0.6962	0.1227	-0.289
Mof_C 	C 	0.0807	0.0528	0.1986	-0.072
Mof_N 	N 	0.2174	0.0659	0.2273	-0.3
Mof_O 	O 	0.1888	0.5766	0.1331	-0.454
Mof_C 	C 	0.0434	0.0872	0.1892	-0.046
Mof_O 	O 	0.2088	0.3439	0.985	-0.434
Mof_C 	C 	0.2294	0.1356	0.1937	-0.051
Mof_C 	C 	0.0575	0.7606	0.128	-0.045
Mof_C 	C 	0.1624	0.5827	0.8948	0.239
Mof_C 	C 	0.1812	0.4672	0.9382	-0.059
Mof_C 	C 	0.1899	0.3796	0.9283	0.324
Mof_O 	O 	0.2081	0.2537	0.1274	-0.447
Mof_C 	C 	0.0383	0.9073	0.4732	0.034
Mof_C 	C 	0.1044	0.9935	0.154	0.336
Mof_C 	C 	0.0717	0.1448	0.2921	0.291
Mof_C 	C 	0.185	0.519	0.0016	-0.096
Mof_C 	C 	0.0518	0.9678	0.5324	0.032
Mof_C 	C 	0.0104	0.8516	0.4853	-0.101
Mof_H 	H 	0.998	0.8509	0.5346	0.046
Mof_O 	O 	0.0874	0.8319	0.9649	-0.452
Mof_C 	C 	0.1978	0.192	0.1705	0.311
Mof_C 	C 	0.0838	0.0173	0.52	-0.122
Mof_H 	H 	0.0968	0.017	0.4714	0.059
Mof_N 	N 	0.018	0.7966	0.3503	-0.251
Mof_C 	C 	0.0937	0.6725	0.1911	0.283
Mof_N 	N 	0.0761	0.0747	0.6567	-0.203
Mof_C 	C 	0.0314	0.974	0.61	-0.118
Mof_H 	H 	0.0101	0.9435	0.6204	0.05
Mof_C 	C 	0.0428	0.8538	0.3341	0.049
Mof_H 	H 	0.053	0.8574	0.2828	-0.016
Mof_C 	C 	0.1091	0.6164	0.2484	-0.817
Mof_H 	H 	0.1181	0.6431	0.2953	0.241
Mof_H 	H 	0.13	0.5889	0.2242	0.254
Mof_H 	H 	0.0895	0.5804	0.2634	0.236
Mof_C 	C 	0.1515	0.6473	0.8389	-0.772
Mof_H 	H 	0.1743	0.6711	0.8182	0.202
Mof_H 	H 	0.1367	0.6851	0.8675	0.249
Mof_H 	H 	0.1367	0.6269	0.7953	0.238
Mof_C 	C 	0.0809	0.1965	0.3623	-0.849
Mof_H 	H 	0.0791	0.2497	0.346	0.27
Mof_H 	H 	0.1064	0.186	0.3806	0.278
Mof_H 	H 	0.0631	0.1867	0.4049	0.271
Mof_C 	C 	0.045	0.0274	0.6682	0.057
Mof_H 	H 	0.0322	0.0304	0.7169	-0.01
Mof_C 	C 	0.0958	0.068	0.584	0.051
Mof_H 	H 	0.1178	0.0976	0.5766	0.01
Mof_C 	C 	0.0538	0.9092	0.3925	-0.114
Mof_H 	H 	0.0714	0.9474	0.3788	0.057
Mof_C 	C 	0.0003	0.7995	0.4319	0.039
Mof_H 	H 	0.9816	0.7634	0.4452	-0.005
Mof_H 	H 	0.2372	0.9088	0.2452	0.267
Mof_H 	H 	0.2759	0.9266	0.2891	0.27
Mof_H 	H 	0.2369	0.9439	0.3319	0.276
Mof_H 	H 	0.0831	0.1073	0.6928	0.104
Mof_O 	O 	0.48	0.614	0.3596	-0.496
Mof_C 	C 	0.5117	0.5759	0.3721	0.275
Mof_N 	N 	0.6667	0.0048	0.6294	-0.276
Mof_Er	Er	0.55385	0.44519	0.51775	1.563
Mof_Zn	Zn	0.65974	0.56836	0.23135	1.192
Mof_Zn	Zn	0.50932	0.21188	0.23841	1.179
Mof_Zn	Zn	0.66599	0.17248	0.43547	1.154
Mof_O 	O 	0.7084	0.9524	0.3804	-0.442
Mof_O 	O 	0.5885	0.4542	0.4027	-0.456
Mof_O 	O 	0.5156	0.5318	0.436	-0.493
Mof_O 	O 	0.5173	0.3582	0.4403	-0.408
Mof_N 	N 	0.6732	0.0942	0.5279	-0.295
Mof_O 	O 	0.4947	0.2993	0.3294	-0.42
Mof_O 	O 	0.6414	0.2628	0.5139	-0.453
Mof_O 	O 	0.6629	0.6732	0.3155	-0.374
Mof_N 	N 	0.5591	0.2093	0.3076	-0.288
Mof_N 	N 	0.5388	0.644	0.2508	-0.296
Mof_O 	O 	0.6391	0.4847	0.3231	-0.433
Mof_O 	O 	0.6767	0.8476	0.6329	-0.406
Mof_N 	N 	0.5987	0.5903	0.2346	-0.255
Mof_C 	C 	0.6961	0.0149	0.4108	0.32
Mof_C 	C 	0.5212	0.3086	0.384	0.303
Mof_C 	C 	0.5913	0.2511	0.4163	-0.065
Mof_C 	C 	0.6071	0.2843	0.492	0.316
Mof_N 	N 	0.615	0.1962	0.3773	-0.289
Mof_C 	C 	0.5807	0.5528	0.3014	-0.07
Mof_N 	N 	0.7174	0.5659	0.2727	-0.3
Mof_O 	O 	0.6888	0.0766	0.3669	-0.454
Mof_C 	C 	0.5434	0.5872	0.3108	-0.046
Mof_O 	O 	0.7088	0.8439	0.515	-0.436
Mof_C 	C 	0.7294	0.6356	0.3063	-0.05
Mof_C 	C 	0.5575	0.2606	0.372	-0.046
Mof_C 	C 	0.6624	0.0827	0.6052	0.239
Mof_C 	C 	0.6812	0.9672	0.5618	-0.061
Mof_C 	C 	0.6899	0.8796	0.5717	0.325
Mof_O 	O 	0.7081	0.7537	0.3726	-0.447
Mof_C 	C 	0.5383	0.4073	0.0268	0.034
Mof_C 	C 	0.6044	0.4935	0.346	0.335
Mof_C 	C 	0.5717	0.6448	0.2079	0.292
Mof_C 	C 	0.685	0.019	0.4984	-0.094
Mof_C 	C 	0.5518	0.4678	0.9676	0.033
Mof_C 	C 	0.5104	0.3516	0.0147	-0.104
Mof_H 	H 	0.498	0.3509	0.9654	0.048
Mof_O 	O 	0.5874	0.3319	0.5351	-0.45
Mof_C 	C 	0.6978	0.692	0.3295	0.311
Mof_C 	C 	0.5838	0.5173	0.98	-0.125
Mof_H 	H 	0.5968	0.517	0.0286	0.061
Mof_N 	N 	0.518	0.2966	0.1497	-0.252
Mof_C 	C 	0.5937	0.1725	0.3089	0.282
Mof_N 	N 	0.5761	0.5747	0.8433	-0.203
Mof_C 	C 	0.5314	0.474	0.89	-0.116
Mof_H 	H 	0.5101	0.4435	0.8796	0.05
Mof_C 	C 	0.5428	0.3538	0.1659	0.05
Mof_H 	H 	0.553	0.3574	0.2172	-0.016
Mof_C 	C 	0.6091	0.1164	0.2516	-0.816
Mof_H 	H 	0.6181	0.1431	0.2047	0.241
Mof_H 	H 	0.63	0.0889	0.2758	0.253
Mof_H 	H 	0.5895	0.0804	0.2366	0.235
Mof_C 	C 	0.6515	0.1473	0.6611	-0.773
Mof_H 	H 	0.6743	0.1711	0.6818	0.203
Mof_H 	H 	0.6367	0.1851	0.6325	0.249
Mof_H 	H 	0.6367	0.1269	0.7047	0.238
Mof_C 	C 	0.5809	0.6965	0.1377	-0.851
Mof_H 	H 	0.5791	0.7497	0.154	0.271
Mof_H 	H 	0.6064	0.686	0.1194	0.279
Mof_H 	H 	0.5631	0.6867	0.0951	0.272
Mof_C 	C 	0.545	0.5274	0.8318	0.054
Mof_H 	H 	0.5322	0.5304	0.7831	-0.01
Mof_C 	C 	0.5958	0.568	0.916	0.051
Mof_H 	H 	0.6178	0.5976	0.9234	0.009
Mof_C 	C 	0.5538	0.4092	0.1075	-0.114
Mof_H 	H 	0.5714	0.4474	0.1212	0.057
Mof_C 	C 	0.5003	0.2995	0.0681	0.041
Mof_H 	H 	0.4816	0.2634	0.0548	-0.007
Mof_H 	H 	0.7372	0.4088	0.2548	0.268
Mof_H 	H 	0.7759	0.4266	0.2109	0.271
Mof_H 	H 	0.7369	0.4439	0.1681	0.278
Mof_H 	H 	0.5831	0.6073	0.8072	0.104
Mof_O 	O 	0.52	0.114	0.1404	-0.495
Mof_C 	C 	0.4883	0.0759	0.1279	0.274
Mof_N 	N 	0.3333	0.5048	0.8706	-0.277
Mof_Er	Er	0.44615	0.94519	0.98225	1.557
Mof_Zn	Zn	0.34026	0.06836	0.26865	1.192
Mof_Zn	Zn	0.49068	0.71188	0.26159	1.179
Mof_Zn	Zn	0.33401	0.67248	0.06453	1.154
Mof_O 	O 	0.2916	0.4524	0.1196	-0.443
Mof_O 	O 	0.4115	0.9542	0.0973	-0.454
Mof_O 	O 	0.4844	0.0318	0.064	-0.493
Mof_O 	O 	0.4827	0.8582	0.0597	-0.405
Mof_N 	N 	0.3268	0.5942	0.9721	-0.294
Mof_O 	O 	0.5053	0.7993	0.1706	-0.419
Mof_O 	O 	0.3586	0.7628	0.9861	-0.455
Mof_O 	O 	0.3371	0.1732	0.1845	-0.374
Mof_N 	N 	0.4409	0.7093	0.1924	-0.288
Mof_N 	N 	0.4612	0.144	0.2492	-0.296
Mof_O 	O 	0.3609	0.9847	0.1769	-0.432
Mof_O 	O 	0.3233	0.3476	0.8671	-0.406
Mof_N 	N 	0.4013	0.0903	0.2654	-0.255
Mof_C 	C 	0.3039	0.5149	0.0892	0.322
Mof_C 	C 	0.4788	0.8086	0.116	0.302
Mof_C 	C 	0.4087	0.7511	0.0837	-0.066
Mof_C 	C 	0.3929	0.7843	0.008	0.32
Mof_N 	N 	0.385	0.6962	0.1227	-0.289
Mof_C 	C 	0.4193	0.0528	0.1986	-0.073
Mof_N 	N 	0.2826	0.0659	0.2273	-0.3
Mof_O 	O 	0.3112	0.5766	0.1331	-0.454
Mof_C 	C 	0.4566	0.0872	0.1892	-0.046
Mof_O 	O 	0.2912	0.3439	0.985	-0.434
Mof_C 	C 	0.2706	0.1356	0.1937	-0.051
Mof_C 	C 	0.4425	0.7606	0.128	-0.045
Mof_C 	C 	0.3376	0.5827	0.8948	0.239
Mof_C 	C 	0.3188	0.4672	0.9382	-0.059
Mof_C 	C 	0.3101	0.3796	0.9283	0.324
Mof_O 	O 	0.2919	0.2537	0.1274	-0.447
Mof_C 	C 	0.4617	0.9073	0.4732	0.033
Mof_C 	C 	0.3956	0.9935	0.154	0.337
Mof_C 	C 	0.4283	0.1448	0.2921	0.291
Mof_C 	C 	0.315	0.519	0.0016	-0.096
Mof_C 	C 	0.4482	0.9678	0.5324	0.033
Mof_C 	C 	0.4896	0.8516	0.4853	-0.1
Mof_H 	H 	0.502	0.8509	0.5346	0.045
Mof_O 	O 	0.4126	0.8319	0.9649	-0.452
Mof_C 	C 	0.3022	0.192	0.1705	0.311
Mof_C 	C 	0.4162	0.0173	0.52	-0.123
Mof_H 	H 	0.4032	0.017	0.4714	0.06
Mof_N 	N 	0.482	0.7966	0.3503	-0.251
Mof_C 	C 	0.4063	0.6725	0.1911	0.283
Mof_N 	N 	0.4239	0.0747	0.6567	-0.203
Mof_C 	C 	0.4686	0.974	0.61	-0.118
Mof_H 	H 	0.4899	0.9435	0.6204	0.05
Mof_C 	C 	0.4572	0.8538	0.3341	0.049
Mof_H 	H 	0.447	0.8574	0.2828	-0.016
Mof_C 	C 	0.3909	0.6164	0.2484	-0.817
Mof_H 	H 	0.3819	0.6431	0.2953	0.241
Mof_H 	H 	0.37	0.5889	0.2242	0.254
Mof_H 	H 	0.4105	0.5804	0.2634	0.236
Mof_C 	C 	0.3485	0.6473	0.8389	-0.772
Mof_H 	H 	0.3257	0.6711	0.8182	0.202
Mof_H 	H 	0.3633	0.6851	0.8675	0.249
Mof_H 	H 	0.3633	0.6269	0.7953	0.238
Mof_C 	C 	0.4191	0.1965	0.3623	-0.849
Mof_H 	H 	0.4209	0.2497	0.346	0.27
Mof_H 	H 	0.3936	0.186	0.3806	0.278
Mof_H 	H 	0.4369	0.1867	0.4049	0.271
Mof_C 	C 	0.455	0.0274	0.6682	0.056
Mof_H 	H 	0.4678	0.0304	0.7169	-0.01
Mof_C 	C 	0.4042	0.068	0.584	0.051
Mof_H 	H 	0.3822	0.0976	0.5766	0.01
Mof_C 	C 	0.4462	0.9092	0.3925	-0.113
Mof_H 	H 	0.4286	0.9474	0.3788	0.057
Mof_C 	C 	0.4997	0.7995	0.4319	0.039
Mof_H 	H 	0.5184	0.7634	0.4452	-0.006
Mof_H 	H 	0.2628	0.9088	0.2452	0.267
Mof_H 	H 	0.2241	0.9266	0.2891	0.27
Mof_H 	H 	0.2631	0.9439	0.3319	0.276
Mof_H 	H 	0.4169	0.1073	0.6928	0.104
Mof_O 	O 	0.98	0.386	0.6404	-0.496
Mof_C 	C 	0.0117	0.4241	0.6279	0.275
Mof_N 	N 	0.1667	0.9952	0.3706	-0.276
Mof_Er	Er	0.05385	0.55481	0.48225	1.563
Mof_Zn	Zn	0.15974	0.43164	0.76865	1.192
Mof_Zn	Zn	0.00932	0.78812	0.76159	1.179
Mof_Zn	Zn	0.16599	0.82752	0.56453	1.154
Mof_O 	O 	0.2084	0.0476	0.6196	-0.442
Mof_O 	O 	0.0885	0.5458	0.5973	-0.456
Mof_O 	O 	0.0156	0.4682	0.564	-0.493
Mof_O 	O 	0.0173	0.6418	0.5597	-0.408
Mof_N 	N 	0.1732	0.9058	0.4721	-0.295
Mof_O 	O 	0.9947	0.7007	0.6706	-0.419
Mof_O 	O 	0.1414	0.7372	0.4861	-0.453
Mof_O 	O 	0.1629	0.3268	0.6845	-0.374
Mof_N 	N 	0.0591	0.7907	0.6924	-0.288
Mof_N 	N 	0.0388	0.356	0.7492	-0.296
Mof_O 	O 	0.1391	0.5153	0.6769	-0.433
Mof_O 	O 	0.1767	0.1524	0.3671	-0.406
Mof_N 	N 	0.0987	0.4097	0.7654	-0.255
Mof_C 	C 	0.1961	0.9851	0.5892	0.32
Mof_C 	C 	0.0212	0.6914	0.616	0.302
Mof_C 	C 	0.0913	0.7489	0.5837	-0.065
Mof_C 	C 	0.1071	0.7157	0.508	0.316
Mof_N 	N 	0.115	0.8038	0.6227	-0.289
Mof_C 	C 	0.0807	0.4472	0.6986	-0.07
Mof_N 	N 	0.2174	0.4341	0.7273	-0.3
Mof_O 	O 	0.1888	0.9234	0.6331	-0.454
Mof_C 	C 	0.0434	0.4128	0.6892	-0.046
Mof_O 	O 	0.2088	0.1561	0.485	-0.436
Mof_C 	C 	0.2294	0.3644	0.6937	-0.05
Mof_C 	C 	0.0575	0.7394	0.628	-0.046
Mof_C 	C 	0.1624	0.9173	0.3948	0.239
Mof_C 	C 	0.1812	0.0328	0.4382	-0.061
Mof_C 	C 	0.1899	0.1204	0.4283	0.324
Mof_O 	O 	0.2081	0.2463	0.6274	-0.447
Mof_C 	C 	0.0383	0.5927	0.9732	0.035
Mof_C 	C 	0.1044	0.5065	0.654	0.335
Mof_C 	C 	0.0717	0.3552	0.7921	0.292
Mof_C 	C 	0.185	0.981	0.5016	-0.095
Mof_C 	C 	0.0518	0.5322	0.0324	0.032
Mof_C 	C 	0.0104	0.6484	0.9853	-0.104
Mof_H 	H 	0.998	0.6491	0.0346	0.048
Mof_O 	O 	0.0874	0.6681	0.4649	-0.45
Mof_C 	C 	0.1978	0.308	0.6705	0.311
Mof_C 	C 	0.0838	0.4827	0.02	-0.125
Mof_H 	H 	0.0968	0.483	0.9714	0.061
Mof_N 	N 	0.018	0.7034	0.8503	-0.252
Mof_C 	C 	0.0937	0.8275	0.6911	0.282
Mof_N 	N 	0.0761	0.4253	0.1567	-0.203
Mof_C 	C 	0.0314	0.526	0.11	-0.115
Mof_H 	H 	0.0101	0.5565	0.1204	0.05
Mof_C 	C 	0.0428	0.6462	0.8341	0.05
Mof_H 	H 	0.053	0.6426	0.7828	-0.016
Mof_C 	C 	0.1091	0.8836	0.7484	-0.816
Mof_H 	H 	0.1181	0.8569	0.7953	0.241
Mof_H 	H 	0.13	0.9111	0.7242	0.253
Mof_H 	H 	0.0895	0.9196	0.7634	0.235
Mof_C 	C 	0.1515	0.8527	0.3389	-0.773
Mof_H 	H 	0.1743	0.8289	0.3182	0.203
Mof_H 	H 	0.1367	0.8149	0.3675	0.249
Mof_H 	H 	0.1367	0.8731	0.2953	0.238
Mof_C 	C 	0.0809	0.3035	0.8623	-0.851
Mof_H 	H 	0.0791	0.2503	0.846	0.271
Mof_H 	H 	0.1064	0.314	0.8806	0.279
Mof_H 	H 	0.0631	0.3133	0.9049	0.272
Mof_C 	C 	0.045	0.4726	0.1682	0.054
Mof_H 	H 	0.0322	0.4696	0.2169	-0.01
Mof_C 	C 	0.0958	0.432	0.084	0.051
Mof_H 	H 	0.1178	0.4024	0.0766	0.009
Mof_C 	C 	0.0538	0.5908	0.8925	-0.114
Mof_H 	H 	0.0714	0.5526	0.8788	0.057
Mof_C 	C 	0.0003	0.7005	0.9319	0.04
Mof_H 	H 	0.9816	0.7366	0.9452	-0.007
Mof_H 	H 	0.2372	0.5912	0.7452	0.268
Mof_H 	H 	0.2759	0.5734	0.7891	0.271
Mof_H 	H 	0.2369	0.5561	0.8319	0.278
Mof_H 	H 	0.0831	0.3927	0.1928	0.104
Mof_O 	O 	0.02	0.886	0.8596	-0.496
Mof_C 	C 	0.9883	0.9241	0.8721	0.275
Mof_N 	N 	0.8333	0.4952	0.1294	-0.277
Mof_Er	Er	0.94615	0.05481	0.01775	1.557
Mof_Zn	Zn	0.84026	0.93164	0.73135	1.192
Mof_Zn	Zn	0.99068	0.28812	0.73841	1.179
Mof_Zn	Zn	0.83401	0.32752	0.93547	1.154
Mof_O 	O 	0.7916	0.5476	0.8804	-0.443
Mof_O 	O 	0.9115	0.0458	0.9027	-0.454
Mof_O 	O 	0.9844	0.9682	0.936	-0.493
Mof_O 	O 	0.9827	0.1418	0.9403	-0.405
Mof_N 	N 	0.8268	0.4058	0.0279	-0.294
Mof_O 	O 	0.0053	0.2007	0.8294	-0.418
Mof_O 	O 	0.8586	0.2372	0.0139	-0.455
Mof_O 	O 	0.8371	0.8268	0.8155	-0.374
Mof_N 	N 	0.9409	0.2907	0.8076	-0.288
Mof_N 	N 	0.9612	0.856	0.7508	-0.295
Mof_O 	O 	0.8609	0.0153	0.8231	-0.432
Mof_O 	O 	0.8233	0.6524	0.1329	-0.406
Mof_N 	N 	0.9013	0.9097	0.7346	-0.255
Mof_C 	C 	0.8039	0.4851	0.9108	0.322
Mof_C 	C 	0.9788	0.1914	0.884	0.302
Mof_C 	C 	0.9087	0.2489	0.9163	-0.066
Mof_C 	C 	0.8929	0.2157	0.992	0.32
Mof_N 	N 	0.885	0.3038	0.8773	-0.289
Mof_C 	C 	0.9193	0.9472	0.8014	-0.072
Mof_N 	N 	0.7826	0.9341	0.7727	-0.3
Mof_O 	O 	0.8112	0.4234	0.8669	-0.454
Mof_C 	C 	0.9566	0.9128	0.8108	-0.046
Mof_O 	O 	0.7912	0.6561	0.015	-0.434
Mof_C 	C 	0.7706	0.8644	0.8063	-0.051
Mof_C 	C 	0.9425	0.2394	0.872	-0.045
Mof_C 	C 	0.8376	0.4173	0.1052	0.239
Mof_C 	C 	0.8188	0.5328	0.0618	-0.059
Mof_C 	C 	0.8101	0.6204	0.0717	0.324
Mof_O 	O 	0.7919	0.7463	0.8726	-0.447
Mof_C 	C 	0.9617	0.0927	0.5268	0.034
Mof_C 	C 	0.8956	0.0065	0.846	0.336
Mof_C 	C 	0.9283	0.8552	0.7079	0.291
Mof_C 	C 	0.815	0.481	0.9984	-0.096
Mof_C 	C 	0.9482	0.0322	0.4676	0.032
Mof_C 	C 	0.9896	0.1484	0.5147	-0.101
Mof_H 	H 	0.002	0.1491	0.4654	0.046
Mof_O 	O 	0.9126	0.1681	0.0351	-0.452
Mof_C 	C 	0.8022	0.808	0.8295	0.311
Mof_C 	C 	0.9162	0.9827	0.48	-0.122
Mof_H 	H 	0.9032	0.983	0.5286	0.059
Mof_N 	N 	0.982	0.2034	0.6497	-0.251
Mof_C 	C 	0.9063	0.3275	0.8089	0.283
Mof_N 	N 	0.9239	0.9253	0.3433	-0.203
Mof_C 	C 	0.9686	0.026	0.39	-0.118
Mof_H 	H 	0.9899	0.0565	0.3796	0.05
Mof_C 	C 	0.9572	0.1462	0.6659	0.049
Mof_H 	H 	0.947	0.1426	0.7172	-0.016
Mof_C 	C 	0.8909	0.3836	0.7516	-0.817
Mof_H 	H 	0.8819	0.3569	0.7047	0.241
Mof_H 	H 	0.87	0.4111	0.7758	0.254
Mof_H 	H 	0.9105	0.4196	0.7366	0.236
Mof_C 	C 	0.8485	0.3527	0.1611	-0.772
Mof_H 	H 	0.8257	0.3289	0.1818	0.202
Mof_H 	H 	0.8633	0.3149	0.1325	0.249
Mof_H 	H 	0.8633	0.3731	0.2047	0.238
Mof_C 	C 	0.9191	0.8035	0.6377	-0.849
Mof_H 	H 	0.9209	0.7503	0.654	0.27
Mof_H 	H 	0.8936	0.814	0.6194	0.278
Mof_H 	H 	0.9369	0.8133	0.5951	0.271
Mof_C 	C 	0.955	0.9726	0.3318	0.057
Mof_H 	H 	0.9678	0.9696	0.2831	-0.01
Mof_C 	C 	0.9042	0.932	0.416	0.051
Mof_H 	H 	0.8822	0.9024	0.4234	0.01
Mof_C 	C 	0.9462	0.0908	0.6075	-0.114
Mof_H 	H 	0.9286	0.0526	0.6212	0.057
Mof_C 	C 	0.9997	0.2005	0.5681	0.039
Mof_H 	H 	0.0184	0.2366	0.5548	-0.005
Mof_H 	H 	0.7628	0.0912	0.7548	0.267
Mof_H 	H 	0.7241	0.0734	0.7109	0.27
Mof_H 	H 	0.7631	0.0561	0.6681	0.276
Mof_H 	H 	0.9169	0.8927	0.3072	0.104
Mof_Er	Er	0.25	0.15071	0.59507	1.951
Mof_C 	C 	0.25	0.5565	0.7813	-1.655
Mof_C 	C 	0.25	0.474	0.7455	0.442
Mof_O 	O 	0.25	0.1384	0.7436	-0.457
Mof_H 	H 	0.25	0.184	0.764	0.22
Mof_Er	Er	0.75	0.65071	0.90493	1.948
Mof_C 	C 	0.75	0.0565	0.7187	-1.645
Mof_C 	C 	0.75	0.974	0.7545	0.438
Mof_O 	O 	0.75	0.6384	0.7564	-0.458
Mof_H 	H 	0.75	0.684	0.736	0.22
Mof_Er	Er	0.75	0.84929	0.40493	1.951
Mof_C 	C 	0.75	0.4435	0.2187	-1.655
Mof_C 	C 	0.75	0.526	0.2545	0.442
Mof_O 	O 	0.75	0.8616	0.2564	-0.457
Mof_H 	H 	0.75	0.816	0.236	0.22
Mof_Er	Er	0.25	0.34929	0.09507	1.948
Mof_C 	C 	0.25	0.9435	0.2813	-1.645
Mof_C 	C 	0.25	0.026	0.2455	0.438
Mof_O 	O 	0.25	0.3616	0.2436	-0.458
Mof_H 	H 	0.25	0.316	0.264	0.22
_end
