data_functionalizedCrystal
_audit_creation_method	'EQeq! by Chris Wilmer'
_symmetry_space_group_name_H-M	'P1'
_symmetry_Int_Tables_number	1
_symmetry_cell_setting	triclinic
loop_
_symmetry_equiv_pos_as_xyz
  x,y,z
_cell_length_a	10.4869
_cell_length_b	10.4798
_cell_length_c	6.3279
_cell_angle_alpha	90
_cell_angle_beta	115.431
_cell_angle_gamma	90
loop_
_atom_site_label
_atom_site_type_symbol
_atom_site_fract_x
_atom_site_fract_y
_atom_site_fract_z
_atom_site_charge
Mof_C 	C 	0.3154	0.2095	0.5464	-0.064
Mof_H 	H 	0.397	0.2639	0.5837	0.014
Mof_H 	H 	0.325	0.1688	0.6902	-0.004
Mof_N 	N 	0.3143	0.1112	0.3821	-0.271
Mof_H 	H 	0.3012	0.1489	0.2465	0.06
Mof_H 	H 	0.2404	0.059	0.3523	0.053
Mof_C 	C 	0.8154	0.7095	0.5464	-0.066
Mof_H 	H 	0.897	0.7639	0.5837	0.043
Mof_H 	H 	0.825	0.6688	0.6902	0.021
Mof_N 	N 	0.8143	0.6112	0.3821	-0.265
Mof_H 	H 	0.8012	0.6489	0.2465	0.084
Mof_H 	H 	0.7404	0.559	0.3523	0.082
Mof_C 	C 	0.6846	0.2095	0.9536	0.034
Mof_H 	H 	0.603	0.2639	0.9163	-0.009
Mof_H 	H 	0.675	0.1688	0.8098	-0.029
Mof_N 	N 	0.6857	0.1112	0.1179	-0.296
Mof_H 	H 	0.6988	0.1489	0.2535	0.076
Mof_H 	H 	0.7596	0.059	0.1477	0.072
Mof_C 	C 	0.1846	0.7095	0.9536	0.038
Mof_H 	H 	0.103	0.7639	0.9163	-0.02
Mof_H 	H 	0.175	0.6688	0.8098	-0.031
Mof_N 	N 	0.1857	0.6112	0.1179	-0.298
Mof_H 	H 	0.1988	0.6489	0.2535	0.077
Mof_H 	H 	0.2596	0.559	0.1477	0.081
Mof_C 	C 	0.6846	0.7905	0.4536	-0.023
Mof_H 	H 	0.603	0.7361	0.4163	0.006
Mof_H 	H 	0.675	0.8312	0.3098	0.005
Mof_N 	N 	0.6857	0.8888	0.6179	-0.281
Mof_H 	H 	0.6988	0.8511	0.7535	0.1
Mof_H 	H 	0.7596	0.941	0.6477	0.116
Mof_C 	C 	0.1846	0.2905	0.4536	-0.019
Mof_H 	H 	0.103	0.2361	0.4163	-0.022
Mof_H 	H 	0.175	0.3312	0.3098	-0.021
Mof_N 	N 	0.1857	0.3888	0.6179	-0.288
Mof_H 	H 	0.1988	0.3511	0.7535	0.077
Mof_H 	H 	0.2596	0.441	0.6477	0.086
Mof_C 	C 	0.3154	0.7905	0.0464	-0.119
Mof_H 	H 	0.397	0.7361	0.0837	0.031
Mof_H 	H 	0.325	0.8312	0.1902	0.027
Mof_N 	N 	0.3143	0.8888	0.8821	-0.247
Mof_H 	H 	0.3012	0.8511	0.7465	0.083
Mof_H 	H 	0.2404	0.941	0.8523	0.097
Mof_C 	C 	0.8154	0.2905	0.0464	-0.122
Mof_H 	H 	0.897	0.2361	0.0837	0.042
Mof_H 	H 	0.825	0.3312	0.1902	0.028
Mof_N 	N 	0.8143	0.3888	0.8821	-0.245
Mof_H 	H 	0.8012	0.3511	0.7465	0.082
Mof_H 	H 	0.7404	0.441	0.8523	0.086
Mof_Ag	Ag	0.5	0	0.5	0.307
Mof_Ag	Ag	1.61698e-33	0.5	0.5	0.309
Mof_Ag	Ag	0.5	0	-0	0.26
Mof_Ag	Ag	-0	0.5	-0	0.263
_end
