# CIF file generated by openbabel 3.1.0, see https://openbabel.org
data_I
_chemical_name_common 'image0'
_cell_length_a 10.464
_cell_length_b 12.0162
_cell_length_c 13.1846
_cell_angle_alpha 83.78
_cell_angle_beta 86.014
_cell_angle_gamma 75.659
_space_group_name_H-M_alt 'P 1'
_space_group_name_Hall 'P 1'
loop_
    _symmetry_equiv_pos_as_xyz
    x,y,z
loop_
    _atom_site_label
    _atom_site_type_symbol
    _atom_site_fract_x
    _atom_site_fract_y
    _atom_site_fract_z
    _atom_site_occupancy
    Eu1      Eu       0.39268    0.38214    0.95242    1.000
    O1       O        0.15410    0.39870    0.02246    1.000
    O2       O        0.28990    0.22730    0.00797    1.000
    O3       O        0.38950    0.39090    0.13165    1.000
    O4       O        0.45470    0.54960    0.15731    1.000
    O5       O        0.66670    0.42010    0.04289    1.000
    O6       O        0.60070    0.26560    0.00839    1.000
    O7       O        0.35220    0.11190    0.43020    1.000
    H1       H        0.33020    0.05460    0.46210    1.000
    O8       O        0.34830    0.16690    0.58700    1.000
    C1       C        0.47960    0.46140    0.46710    1.000
    C2       C        0.47090    0.48940    0.36150    1.000
    H2       H        0.49220    0.55850    0.33150    1.000
    C3       C        0.17480    0.29180    0.01880    1.000
    C4       C        0.42510    0.45500    0.18700    1.000
    C5       C        0.06060    0.23600    0.02070    1.000
    C6       C        0.39880    0.31750    0.34090    1.000
    H3       H        0.37170    0.26930    0.29840    1.000
    C7       C        0.44600    0.35890    0.50760    1.000
    H4       H        0.45070    0.33720    0.57900    1.000
    C8       C        0.93180    0.30190    0.02510    1.000
    H5       H        0.91370    0.38270    0.03010    1.000
    C9       C        0.08710    0.11820    0.01190    1.000
    H6       H        0.17610    0.07440    0.00970    1.000
    C10      C        0.68840    0.31620    0.02530    1.000
    C11      C        0.85580    0.12990    0.01270    1.000
    H7       H        0.78440    0.09450    0.01060    1.000
    C12      C        0.43200    0.41880    0.29970    1.000
    C13      C        0.98560    0.06260    0.00620    1.000
    C14      C        0.82970    0.24760    0.02210    1.000
    C15      C        0.40630    0.28850    0.44580    1.000
    C16      C        0.36660    0.18300    0.49570    1.000
    Eu2      Eu       0.60732    0.61786    0.04758    1.000
    O9       O        0.84590    0.60130    0.97754    1.000
    O10      O        0.71010    0.77270    0.99203    1.000
    O11      O        0.61050    0.60910    0.86835    1.000
    O12      O        0.54530    0.45040    0.84269    1.000
    O13      O        0.33330    0.57990    0.95711    1.000
    O14      O        0.39930    0.73440    0.99161    1.000
    O15      O        0.64780    0.88810    0.56980    1.000
    H8       H        0.66980    0.94540    0.53790    1.000
    O16      O        0.65170    0.83310    0.41300    1.000
    C17      C        0.52040    0.53860    0.53290    1.000
    C18      C        0.52910    0.51060    0.63850    1.000
    H9       H        0.50780    0.44150    0.66850    1.000
    C19      C        0.82520    0.70820    0.98120    1.000
    C20      C        0.57490    0.54500    0.81300    1.000
    C21      C        0.93940    0.76400    0.97930    1.000
    C22      C        0.60120    0.68250    0.65910    1.000
    H10      H        0.62830    0.73070    0.70160    1.000
    C23      C        0.55400    0.64110    0.49240    1.000
    H11      H        0.54930    0.66280    0.42100    1.000
    C24      C        0.06820    0.69810    0.97490    1.000
    H12      H        0.08630    0.61730    0.96990    1.000
    C25      C        0.91290    0.88180    0.98810    1.000
    H13      H        0.82390    0.92560    0.99030    1.000
    C26      C        0.31160    0.68380    0.97470    1.000
    C27      C        0.14420    0.87010    0.98730    1.000
    H14      H        0.21560    0.90550    0.98940    1.000
    C28      C        0.56800    0.58120    0.70030    1.000
    C29      C        0.01440    0.93740    0.99380    1.000
    C30      C        0.17030    0.75240    0.97790    1.000
    C31      C        0.59370    0.71150    0.55420    1.000
    C32      C        0.63340    0.81700    0.50430    1.000
