data_functionalizedCrystal
_audit_creation_method	'EQeq! by Chris Wilmer'
_symmetry_space_group_name_H-M	'P1'
_symmetry_Int_Tables_number	1
_symmetry_cell_setting	triclinic
loop_
_symmetry_equiv_pos_as_xyz
  x,y,z
_cell_length_a	10.2875
_cell_length_b	10.6125
_cell_length_c	6.24
_cell_angle_alpha	90
_cell_angle_beta	114.688
_cell_angle_gamma	90
loop_
_atom_site_label
_atom_site_type_symbol
_atom_site_fract_x
_atom_site_fract_y
_atom_site_fract_z
_atom_site_charge
Mof_C 	C 	0.3174	0.2109	0.5452	-0.061
Mof_H 	H 	0.4001	0.2661	0.5703	0.014
Mof_H 	H 	0.3324	0.1737	0.6992	-0.003
Mof_N 	N 	0.3111	0.1093	0.3806	-0.262
Mof_H 	H 	0.2954	0.1441	0.2368	0.054
Mof_H 	H 	0.2349	0.0575	0.3592	0.047
Mof_C 	C 	0.8174	0.7109	0.5452	-0.062
Mof_H 	H 	0.9001	0.7661	0.5703	0.042
Mof_H 	H 	0.8324	0.6737	0.6992	0.022
Mof_N 	N 	0.8111	0.6093	0.3806	-0.254
Mof_H 	H 	0.7954	0.6441	0.2368	0.077
Mof_H 	H 	0.7349	0.5575	0.3592	0.076
Mof_C 	C 	0.6826	0.2109	0.9548	0.025
Mof_H 	H 	0.5999	0.2661	0.9297	-0.004
Mof_H 	H 	0.6676	0.1737	0.8008	-0.025
Mof_N 	N 	0.6889	0.1093	0.1194	-0.283
Mof_H 	H 	0.7046	0.1441	0.2632	0.069
Mof_H 	H 	0.7651	0.0575	0.1408	0.065
Mof_C 	C 	0.1826	0.7109	0.9548	0.028
Mof_H 	H 	0.0999	0.7661	0.9297	-0.016
Mof_H 	H 	0.1676	0.6737	0.8008	-0.028
Mof_N 	N 	0.1889	0.6093	0.1194	-0.286
Mof_H 	H 	0.2046	0.6441	0.2632	0.071
Mof_H 	H 	0.2651	0.5575	0.1408	0.074
Mof_C 	C 	0.6826	0.7891	0.4548	-0.026
Mof_H 	H 	0.5999	0.7339	0.4297	0.008
Mof_H 	H 	0.6676	0.8263	0.3008	0.005
Mof_N 	N 	0.6889	0.8907	0.6194	-0.268
Mof_H 	H 	0.7046	0.8559	0.7632	0.095
Mof_H 	H 	0.7651	0.9425	0.6408	0.11
Mof_C 	C 	0.1826	0.2891	0.4548	-0.023
Mof_H 	H 	0.0999	0.2339	0.4297	-0.02
Mof_H 	H 	0.1676	0.3263	0.3008	-0.021
Mof_N 	N 	0.1889	0.3907	0.6194	-0.276
Mof_H 	H 	0.2046	0.3559	0.7632	0.072
Mof_H 	H 	0.2651	0.4425	0.6408	0.08
Mof_C 	C 	0.3174	0.7891	0.0452	-0.11
Mof_H 	H 	0.4001	0.7339	0.0703	0.027
Mof_H 	H 	0.3324	0.8263	0.1992	0.023
Mof_N 	N 	0.3111	0.8907	0.8806	-0.237
Mof_H 	H 	0.2954	0.8559	0.7368	0.078
Mof_H 	H 	0.2349	0.9425	0.8592	0.091
Mof_C 	C 	0.8174	0.2891	0.0452	-0.113
Mof_H 	H 	0.9001	0.2339	0.0703	0.039
Mof_H 	H 	0.8324	0.3263	0.1992	0.026
Mof_N 	N 	0.8111	0.3907	0.8806	-0.236
Mof_H 	H 	0.7954	0.3559	0.7368	0.076
Mof_H 	H 	0.7349	0.4425	0.8592	0.081
Mof_Ag	Ag	0.5	0	0.5	0.309
Mof_Ag	Ag	-2.29582e-17	0.5	0.5	0.311
Mof_Ag	Ag	0.5	0	-0	0.258
Mof_Ag	Ag	-0	0.5	-0	0.261
_end
