data_functionalizedCrystal
_audit_creation_method	'EQeq! by Chris Wilmer'
_symmetry_space_group_name_H-M	'P1'
_symmetry_Int_Tables_number	1
_symmetry_cell_setting	triclinic
loop_
_symmetry_equiv_pos_as_xyz
  x,y,z
_cell_length_a	10.702
_cell_length_b	26.6173
_cell_length_c	8.5189
_cell_angle_alpha	90
_cell_angle_beta	90
_cell_angle_gamma	90
loop_
_atom_site_label
_atom_site_type_symbol
_atom_site_fract_x
_atom_site_fract_y
_atom_site_fract_z
_atom_site_charge
Mof_Zn	Zn	0.39932	0.54797	0.59564	1.181
Mof_C 	C 	0.3617	0.45318	0.2324	0.094
Mof_H 	H 	0.3847	0.4242	0.1788	-0.025
Mof_C 	C 	0.2566	0.51579	0.314	0.166
Mof_C 	C 	0.3444	0.64998	0.5809	0.338
Mof_C 	C 	0.3732	0.70373	0.6111	-0.089
Mof_C 	C 	0.4734	0.72346	0.689	-0.012
Mof_H 	H 	0.5349	0.7041	0.7368	0.052
Mof_N 	N 	0.2482	0.47478	0.2195	-0.308
Mof_N 	N 	0.4361	0.47735	0.3284	-0.273
Mof_N 	N 	0.368	0.51856	0.3838	-0.28
Mof_N 	N 	0.1652	0.5505	0.3294	-0.338
Mof_H 	H 	0.1771	0.5765	0.3874	0.15
Mof_H 	H 	0.0953	0.5466	0.2813	0.112
Mof_O 	O 	0.4307	0.61935	0.6215	-0.477
Mof_O 	O 	0.2437	0.63836	0.5205	-0.326
Mof_Zn	Zn	0.10068	0.45203	0.09564	1.181
Mof_C 	C 	0.1383	0.54682	0.7324	0.096
Mof_H 	H 	0.1153	0.5758	0.6788	-0.024
Mof_C 	C 	0.2434	0.48421	0.814	0.167
Mof_C 	C 	0.1556	0.35002	0.0809	0.338
Mof_C 	C 	0.1268	0.29627	0.1111	-0.088
Mof_C 	C 	0.0266	0.27654	0.189	-0.016
Mof_H 	H 	0.9651	0.2959	0.2368	0.055
Mof_N 	N 	0.2518	0.52522	0.7195	-0.308
Mof_N 	N 	0.0639	0.52265	0.8284	-0.271
Mof_N 	N 	0.132	0.48144	0.8838	-0.279
Mof_N 	N 	0.3348	0.4495	0.8294	-0.338
Mof_H 	H 	0.3229	0.4235	0.8874	0.151
Mof_H 	H 	0.4047	0.4534	0.7813	0.113
Mof_O 	O 	0.0693	0.38065	0.1215	-0.479
Mof_O 	O 	0.2563	0.36164	0.0205	-0.326
Mof_Zn	Zn	0.60068	0.04797	0.40436	1.182
Mof_C 	C 	0.6383	0.95318	0.7676	0.095
Mof_H 	H 	0.6153	0.9242	0.8212	-0.025
Mof_C 	C 	0.7434	0.01579	0.686	0.167
Mof_C 	C 	0.6556	0.14998	0.4191	0.338
Mof_C 	C 	0.6268	0.20373	0.3889	-0.089
Mof_C 	C 	0.5266	0.22346	0.311	-0.012
Mof_H 	H 	0.4651	0.2041	0.2632	0.052
Mof_N 	N 	0.7518	0.97478	0.7805	-0.309
Mof_N 	N 	0.5639	0.97735	0.6716	-0.273
Mof_N 	N 	0.632	0.01856	0.6162	-0.28
Mof_N 	N 	0.8348	0.0505	0.6706	-0.338
Mof_H 	H 	0.8229	0.0765	0.6126	0.15
Mof_H 	H 	0.9047	0.0466	0.7187	0.112
Mof_O 	O 	0.5693	0.11935	0.3785	-0.477
Mof_O 	O 	0.7563	0.13836	0.4795	-0.326
Mof_Zn	Zn	0.89932	0.95203	0.90436	1.181
Mof_C 	C 	0.8617	0.04682	0.2676	0.096
Mof_H 	H 	0.8847	0.0758	0.3212	-0.024
Mof_C 	C 	0.7566	0.98421	0.186	0.167
Mof_C 	C 	0.8444	0.85002	0.9191	0.338
Mof_C 	C 	0.8732	0.79627	0.8889	-0.088
Mof_C 	C 	0.9734	0.77654	0.811	-0.017
Mof_H 	H 	0.0349	0.7959	0.7632	0.055
Mof_N 	N 	0.7482	0.02522	0.2805	-0.308
Mof_N 	N 	0.9361	0.02265	0.1716	-0.271
Mof_N 	N 	0.868	0.98144	0.1162	-0.28
Mof_N 	N 	0.6652	0.9495	0.1706	-0.338
Mof_H 	H 	0.6771	0.9235	0.1126	0.151
Mof_H 	H 	0.5953	0.9534	0.2187	0.113
Mof_O 	O 	0.9307	0.88065	0.8785	-0.479
Mof_O 	O 	0.7437	0.86164	0.9795	-0.326
Mof_Zn	Zn	0.60068	0.45203	0.40436	1.182
Mof_C 	C 	0.6383	0.54682	0.7676	0.095
Mof_H 	H 	0.6153	0.5758	0.8212	-0.025
Mof_C 	C 	0.7434	0.48421	0.686	0.166
Mof_C 	C 	0.6556	0.35002	0.4191	0.338
Mof_C 	C 	0.6268	0.29627	0.3889	-0.089
Mof_C 	C 	0.5266	0.27654	0.311	-0.012
Mof_H 	H 	0.4651	0.2959	0.2632	0.052
Mof_N 	N 	0.7518	0.52522	0.7805	-0.308
Mof_N 	N 	0.5639	0.52265	0.6716	-0.273
Mof_N 	N 	0.632	0.48144	0.6162	-0.28
Mof_N 	N 	0.8348	0.4495	0.6706	-0.338
Mof_H 	H 	0.8229	0.4235	0.6126	0.15
Mof_H 	H 	0.9047	0.4534	0.7187	0.112
Mof_O 	O 	0.5693	0.38065	0.3785	-0.477
Mof_O 	O 	0.7563	0.36164	0.4795	-0.326
Mof_Zn	Zn	0.89932	0.54797	0.90436	1.181
Mof_C 	C 	0.8617	0.45318	0.2676	0.096
Mof_H 	H 	0.8847	0.4242	0.3212	-0.024
Mof_C 	C 	0.7566	0.51579	0.186	0.167
Mof_C 	C 	0.8444	0.64998	0.9191	0.338
Mof_C 	C 	0.8732	0.70373	0.8889	-0.088
Mof_C 	C 	0.9734	0.72346	0.811	-0.016
Mof_H 	H 	0.0349	0.7041	0.7632	0.055
Mof_N 	N 	0.7482	0.47478	0.2805	-0.308
Mof_N 	N 	0.9361	0.47735	0.1716	-0.271
Mof_N 	N 	0.868	0.51856	0.1162	-0.279
Mof_N 	N 	0.6652	0.5505	0.1706	-0.338
Mof_H 	H 	0.6771	0.5765	0.1126	0.151
Mof_H 	H 	0.5953	0.5466	0.2187	0.113
Mof_O 	O 	0.9307	0.61935	0.8785	-0.479
Mof_O 	O 	0.7437	0.63836	0.9795	-0.326
Mof_Zn	Zn	0.39932	0.95203	0.59564	1.182
Mof_C 	C 	0.3617	0.04682	0.2324	0.095
Mof_H 	H 	0.3847	0.0758	0.1788	-0.025
Mof_C 	C 	0.2566	0.98421	0.314	0.167
Mof_C 	C 	0.3444	0.85002	0.5809	0.338
Mof_C 	C 	0.3732	0.79627	0.6111	-0.089
Mof_C 	C 	0.4734	0.77654	0.689	-0.012
Mof_H 	H 	0.5349	0.7959	0.7368	0.052
Mof_N 	N 	0.2482	0.02522	0.2195	-0.309
Mof_N 	N 	0.4361	0.02265	0.3284	-0.273
Mof_N 	N 	0.368	0.98144	0.3838	-0.28
Mof_N 	N 	0.1652	0.9495	0.3294	-0.338
Mof_H 	H 	0.1771	0.9235	0.3874	0.15
Mof_H 	H 	0.0953	0.9534	0.2813	0.112
Mof_O 	O 	0.4307	0.88065	0.6215	-0.477
Mof_O 	O 	0.2437	0.86164	0.5205	-0.326
Mof_Zn	Zn	0.10068	0.04797	0.09564	1.181
Mof_C 	C 	0.1383	0.95318	0.7324	0.096
Mof_H 	H 	0.1153	0.9242	0.6788	-0.024
Mof_C 	C 	0.2434	0.01579	0.814	0.167
Mof_C 	C 	0.1556	0.14998	0.0809	0.338
Mof_C 	C 	0.1268	0.20373	0.1111	-0.088
Mof_C 	C 	0.0266	0.22346	0.189	-0.017
Mof_H 	H 	0.9651	0.2041	0.2368	0.055
Mof_N 	N 	0.2518	0.97478	0.7195	-0.308
Mof_N 	N 	0.0639	0.97735	0.8284	-0.271
Mof_N 	N 	0.132	0.01856	0.8838	-0.28
Mof_N 	N 	0.3348	0.0505	0.8294	-0.338
Mof_H 	H 	0.3229	0.0765	0.8874	0.151
Mof_H 	H 	0.4047	0.0466	0.7813	0.113
Mof_O 	O 	0.0693	0.11935	0.1215	-0.479
Mof_O 	O 	0.2563	0.13836	0.0205	-0.326
Mof_S 	S 	0.27708	0.75	0.53877	0.063
Mof_S 	S 	0.22292	0.25	0.03877	0.062
Mof_S 	S 	0.72292	0.25	0.46123	0.063
Mof_S 	S 	0.77708	0.75	0.96123	0.062
_end
