# CIF file generated by openbabel 3.1.0, see https://openbabel.org
data_I
_chemical_name_common 'image0'
_cell_length_a 5.3667
_cell_length_b 22.228
_cell_length_c 8.8952
_cell_angle_alpha 90
_cell_angle_beta 98.7072
_cell_angle_gamma 90
_space_group_name_H-M_alt 'P 1'
_space_group_name_Hall 'P 1'
loop_
    _symmetry_equiv_pos_as_xyz
    x,y,z
loop_
    _atom_site_label
    _atom_site_type_symbol
    _atom_site_fract_x
    _atom_site_fract_y
    _atom_site_fract_z
    _atom_site_occupancy
    N1       N        0.27520    0.81195    0.37110    1.000
    N2       N        0.17510    0.91104    0.12370    1.000
    C1       C        0.45820    0.79437    0.43820    1.000
    C2       C        0.69220    0.77374    0.52330    1.000
    H1       H        0.76360    0.79430    0.61330    1.000
    C3       C        0.27250    0.95450    0.08840    1.000
    C4       C        0.41280    0.00440    0.04240    1.000
    H2       H        0.37830    0.04400    0.07380    1.000
    C5       C        0.31730    0.93490    0.05650    1.000
    C6       C        0.48610    0.97070    0.98440    1.000
    H3       H        0.57930    0.95270    0.91360    1.000
    N3       N        0.77520    0.31195    0.37110    1.000
    N4       N        0.67510    0.41104    0.12370    1.000
    C7       C        0.95820    0.29437    0.43820    1.000
    C8       C        0.19220    0.27374    0.52330    1.000
    H4       H        0.26360    0.29430    0.61330    1.000
    C9       C        0.77250    0.45450    0.08840    1.000
    C10      C        0.91280    0.50440    0.04240    1.000
    H5       H        0.87830    0.54400    0.07380    1.000
    C11      C        0.81730    0.43490    0.05650    1.000
    C12      C        0.98610    0.47070    0.98440    1.000
    H6       H        0.07930    0.45270    0.91360    1.000
    N5       N        0.72480    0.81195    0.12890    1.000
    N6       N        0.82490    0.91104    0.37630    1.000
    C13      C        0.54180    0.79437    0.06180    1.000
    C14      C        0.30780    0.77374    0.97670    1.000
    H7       H        0.23640    0.79430    0.88670    1.000
    C15      C        0.72750    0.95450    0.41160    1.000
    C16      C        0.58720    0.00440    0.45760    1.000
    H8       H        0.62170    0.04400    0.42620    1.000
    C17      C        0.68270    0.93490    0.44350    1.000
    C18      C        0.51390    0.97070    0.51560    1.000
    H9       H        0.42070    0.95270    0.58640    1.000
    N7       N        0.22480    0.31195    0.12890    1.000
    N8       N        0.32490    0.41104    0.37630    1.000
    C19      C        0.04180    0.29437    0.06180    1.000
    C20      C        0.80780    0.27374    0.97670    1.000
    H10      H        0.73640    0.29430    0.88670    1.000
    C21      C        0.22750    0.45450    0.41160    1.000
    C22      C        0.08720    0.50440    0.45760    1.000
    H11      H        0.12170    0.54400    0.42620    1.000
    C23      C        0.18270    0.43490    0.44350    1.000
    C24      C        0.01390    0.47070    0.51560    1.000
    H12      H        0.92070    0.45270    0.58640    1.000
    N9       N        0.72480    0.18805    0.62890    1.000
    N10      N        0.82490    0.08896    0.87630    1.000
    C25      C        0.54180    0.20563    0.56180    1.000
    C26      C        0.30780    0.22626    0.47670    1.000
    H13      H        0.23640    0.20570    0.38670    1.000
    C27      C        0.72750    0.04550    0.91160    1.000
    C28      C        0.58720    0.99560    0.95760    1.000
    H14      H        0.62170    0.95600    0.92620    1.000
    C29      C        0.68270    0.06510    0.94350    1.000
    C30      C        0.51390    0.02930    0.01560    1.000
    H15      H        0.42070    0.04730    0.08640    1.000
    N11      N        0.22480    0.68805    0.62890    1.000
    N12      N        0.32490    0.58896    0.87630    1.000
    C31      C        0.04180    0.70563    0.56180    1.000
    C32      C        0.80780    0.72626    0.47670    1.000
    H16      H        0.73640    0.70570    0.38670    1.000
    C33      C        0.22750    0.54550    0.91160    1.000
    C34      C        0.08720    0.49560    0.95760    1.000
    H17      H        0.12170    0.45600    0.92620    1.000
    C35      C        0.18270    0.56510    0.94350    1.000
    C36      C        0.01390    0.52930    0.01560    1.000
    H18      H        0.92070    0.54730    0.08640    1.000
    N13      N        0.27520    0.18805    0.87110    1.000
    N14      N        0.17510    0.08896    0.62370    1.000
    C37      C        0.45820    0.20563    0.93820    1.000
    C38      C        0.69220    0.22626    0.02330    1.000
    H19      H        0.76360    0.20570    0.11330    1.000
    C39      C        0.27250    0.04550    0.58840    1.000
    C40      C        0.41280    0.99560    0.54240    1.000
    H20      H        0.37830    0.95600    0.57380    1.000
    C41      C        0.31730    0.06510    0.55650    1.000
    C42      C        0.48610    0.02930    0.48440    1.000
    H21      H        0.57930    0.04730    0.41360    1.000
    N15      N        0.77520    0.68805    0.87110    1.000
    N16      N        0.67510    0.58896    0.62370    1.000
    C43      C        0.95820    0.70563    0.93820    1.000
    C44      C        0.19220    0.72626    0.02330    1.000
    H22      H        0.26360    0.70570    0.11330    1.000
    C45      C        0.77250    0.54550    0.58840    1.000
    C46      C        0.91280    0.49560    0.54240    1.000
    H23      H        0.87830    0.45600    0.57380    1.000
    C47      C        0.81730    0.56510    0.55650    1.000
    C48      C        0.98610    0.52930    0.48440    1.000
    H24      H        0.07930    0.54730    0.41360    1.000
    Cu1      Cu       0.00000    0.85688    0.25000    1.000
    Cu2      Cu       0.50000    0.35688    0.25000    1.000
    Cu3      Cu       0.00000    0.14312    0.75000    1.000
    Cu4      Cu       0.50000    0.64312    0.75000    1.000
