data_functionalizedCrystal
_audit_creation_method	'EQeq! by Chris Wilmer'
_symmetry_space_group_name_H-M	'P1'
_symmetry_Int_Tables_number	1
_symmetry_cell_setting	triclinic
loop_
_symmetry_equiv_pos_as_xyz
  x,y,z
_cell_length_a	13.294
_cell_length_b	25.171
_cell_length_c	13.626
_cell_angle_alpha	90
_cell_angle_beta	104.6
_cell_angle_gamma	90
loop_
_atom_site_label
_atom_site_type_symbol
_atom_site_fract_x
_atom_site_fract_y
_atom_site_fract_z
_atom_site_charge
Mof_Cu	Cu	0.54175	0.24566	0.71701	0.84
Mof_Cu	Cu	0.56941	0.20819	0.97696	0.837
Mof_S 	S 	0.4609	0.38839	0.7108	-0.067
Mof_S 	S 	0.4617	0.56345	0.5315	-0.066
Mof_S 	S 	0.8076	0.2402	0.8698	-0.064
Mof_S 	S 	0.1347	0.236	0.9425	-0.043
Mof_N 	N 	0.5233	0.2993	0.8231	-0.211
Mof_N 	N 	0.5554	0.2859	0.9227	-0.165
Mof_N 	N 	0.5495	0.3275	0.9796	-0.074
Mof_N 	N 	0.5106	0.3672	0.9133	-0.053
Mof_N 	N 	0.4552	0.6555	0.6365	-0.218
Mof_N 	N 	0.472	0.6706	0.7349	-0.173
Mof_N 	N 	0.4954	0.6299	0.7936	-0.071
Mof_N 	N 	0.495	0.5877	0.7327	-0.053
Mof_N 	N 	0.6749	0.2653	0.6851	-0.221
Mof_N 	N 	0.6856	0.2908	0.6006	-0.176
Mof_N 	N 	0.7787	0.3069	0.6085	-0.072
Mof_N 	N 	0.8325	0.291	0.7016	-0.056
Mof_N 	N 	0.3357	0.211	0.9493	-0.112
Mof_N 	N 	0.4288	0.2168	0.0145	-0.161
Mof_N 	N 	0.4189	0.2437	0.0942	-0.168
Mof_N 	N 	0.3164	0.2522	0.0804	-0.057
Mof_C 	C 	0.4978	0.3495	0.819	0.097
Mof_C 	C 	0.3213	0.386	0.687	-0.142
Mof_H 	H 	0.3024	0.3734	0.7472	0.067
Mof_H 	H 	0.2936	0.3612	0.6324	0.073
Mof_C 	C 	0.2753	0.4393	0.6593	-0.034
Mof_H 	H 	0.2002	0.4357	0.64	0.028
Mof_H 	H 	0.2931	0.4618	0.7191	0.03
Mof_C 	C 	0.3093	0.4681	0.5721	-0.15
Mof_H 	H 	0.3846	0.4685	0.5876	0.082
Mof_H 	H 	0.2842	0.448	0.51	0.071
Mof_C 	C 	0.2688	0.5262	0.5539	-0.049
Mof_H 	H 	0.2818	0.5447	0.6183	0.042
Mof_H 	H 	0.1944	0.5258	0.5246	0.033
Mof_C 	C 	0.3208	0.5554	0.4845	-0.129
Mof_H 	H 	0.3068	0.5366	0.4204	0.063
Mof_H 	H 	0.2895	0.5903	0.4715	0.052
Mof_C 	C 	0.4678	0.6036	0.6359	0.09
Mof_C 	C 	0.4956	0.4188	0.953	-0.345
Mof_H 	H 	0.4379	0.4362	0.9077	0.125
Mof_H 	H 	0.4817	0.4149	0.0184	0.137
Mof_H 	H 	0.5573	0.4398	0.9593	0.126
Mof_C 	C 	0.5173	0.5357	0.7757	-0.351
Mof_H 	H 	0.5371	0.5128	0.7275	0.135
Mof_H 	H 	0.5731	0.5379	0.836	0.129
Mof_H 	H 	0.4565	0.5217	0.7924	0.13
Mof_C 	C 	0.7693	0.2658	0.747	0.091
Mof_C 	C 	0.7913	0.1685	0.841	-0.219
Mof_H 	H 	0.7498	0.1529	0.8825	0.077
Mof_H 	H 	0.7531	0.1643	0.7704	0.082
Mof_C 	C 	0.8786	0.1423	0.855	0.084
Mof_H 	H 	0.911	0.1527	0.8021	0.004
Mof_H 	H 	0.8608	0.105	0.8448	-0.006
Mof_C 	C 	0.9612	0.1462	0.9545	-0.22
Mof_H 	H 	0.945	0.1218	0.0034	0.088
Mof_H 	H 	0.962	0.1819	0.9814	0.102
Mof_C 	C 	0.0764	0.1319	0.937	-0.005
Mof_H 	H 	0.1258	0.1285	0.0026	0.025
Mof_H 	H 	0.0726	0.0978	0.9028	0.02
Mof_C 	C 	0.113	0.171	0.8787	-0.155
Mof_H 	H 	0.0627	0.175	0.8138	0.072
Mof_H 	H 	0.1777	0.1588	0.8658	0.073
Mof_C 	C 	0.2681	0.232	0.9908	0.098
Mof_C 	C 	0.9468	0.3018	0.7354	-0.36
Mof_H 	H 	0.9704	0.2964	0.8072	0.14
Mof_H 	H 	0.9602	0.3378	0.7194	0.135
Mof_H 	H 	0.9831	0.2781	0.701	0.136
Mof_C 	C 	0.2771	0.2815	0.1543	-0.358
Mof_H 	H 	0.2112	0.2671	0.1576	0.133
Mof_H 	H 	0.3254	0.2787	0.2196	0.118
Mof_H 	H 	0.2687	0.3182	0.1346	0.136
Mof_Cu	Cu	0.45825	0.74566	0.78299	0.84
Mof_Cu	Cu	0.43059	0.70819	0.52304	0.837
Mof_S 	S 	0.5391	0.88839	0.7892	-0.067
Mof_S 	S 	0.5383	0.06345	0.9685	-0.067
Mof_S 	S 	0.1924	0.7402	0.6302	-0.064
Mof_S 	S 	0.8653	0.736	0.5575	-0.043
Mof_N 	N 	0.4767	0.7993	0.6769	-0.211
Mof_N 	N 	0.4446	0.7859	0.5773	-0.165
Mof_N 	N 	0.4505	0.8275	0.5204	-0.074
Mof_N 	N 	0.4894	0.8672	0.5867	-0.053
Mof_N 	N 	0.5448	0.1555	0.8635	-0.219
Mof_N 	N 	0.528	0.1706	0.7651	-0.173
Mof_N 	N 	0.5046	0.1299	0.7064	-0.071
Mof_N 	N 	0.505	0.0877	0.7673	-0.053
Mof_N 	N 	0.3251	0.7653	0.8149	-0.221
Mof_N 	N 	0.3144	0.7908	0.8994	-0.176
Mof_N 	N 	0.2213	0.8069	0.8915	-0.072
Mof_N 	N 	0.1675	0.791	0.7984	-0.056
Mof_N 	N 	0.6643	0.711	0.5507	-0.112
Mof_N 	N 	0.5712	0.7168	0.4855	-0.161
Mof_N 	N 	0.5811	0.7437	0.4058	-0.168
Mof_N 	N 	0.6836	0.7522	0.4196	-0.057
Mof_C 	C 	0.5022	0.8495	0.681	0.097
Mof_C 	C 	0.6787	0.886	0.813	-0.142
Mof_H 	H 	0.6976	0.8734	0.7528	0.067
Mof_H 	H 	0.7064	0.8612	0.8676	0.073
Mof_C 	C 	0.7247	0.9393	0.8407	-0.035
Mof_H 	H 	0.7998	0.9357	0.86	0.029
Mof_H 	H 	0.7069	0.9618	0.7809	0.031
Mof_C 	C 	0.6907	0.9681	0.9279	-0.148
Mof_H 	H 	0.6154	0.9685	0.9124	0.081
Mof_H 	H 	0.7158	0.948	0.99	0.071
Mof_C 	C 	0.7312	0.0262	0.9461	-0.051
Mof_H 	H 	0.7182	0.0447	0.8817	0.043
Mof_H 	H 	0.8056	0.0258	0.9754	0.034
Mof_C 	C 	0.6792	0.0554	0.0155	-0.126
Mof_H 	H 	0.6932	0.0366	0.0796	0.062
Mof_H 	H 	0.7105	0.0903	0.0285	0.052
Mof_C 	C 	0.5322	0.1036	0.8641	0.09
Mof_C 	C 	0.5044	0.9188	0.547	-0.344
Mof_H 	H 	0.5621	0.9362	0.5923	0.125
Mof_H 	H 	0.5183	0.9149	0.4816	0.137
Mof_H 	H 	0.4427	0.9398	0.5407	0.126
Mof_C 	C 	0.4827	0.0357	0.7243	-0.35
Mof_H 	H 	0.4629	0.0128	0.7725	0.135
Mof_H 	H 	0.4269	0.0379	0.664	0.129
Mof_H 	H 	0.5435	0.0217	0.7076	0.13
Mof_C 	C 	0.2307	0.7658	0.753	0.091
Mof_C 	C 	0.2087	0.6685	0.659	-0.218
Mof_H 	H 	0.2502	0.6529	0.6175	0.077
Mof_H 	H 	0.2469	0.6643	0.7296	0.082
Mof_C 	C 	0.1214	0.6423	0.645	0.083
Mof_H 	H 	0.089	0.6527	0.6979	0.005
Mof_H 	H 	0.1392	0.605	0.6552	-0.006
Mof_C 	C 	0.0388	0.6462	0.5455	-0.219
Mof_H 	H 	0.055	0.6218	0.4966	0.087
Mof_H 	H 	0.038	0.6819	0.5186	0.102
Mof_C 	C 	0.9236	0.6319	0.563	-0.004
Mof_H 	H 	0.8742	0.6285	0.4974	0.024
Mof_H 	H 	0.9274	0.5978	0.5972	0.02
Mof_C 	C 	0.887	0.671	0.6213	-0.156
Mof_H 	H 	0.9373	0.675	0.6862	0.072
Mof_H 	H 	0.8223	0.6588	0.6342	0.073
Mof_C 	C 	0.7319	0.732	0.5092	0.099
Mof_C 	C 	0.0532	0.8018	0.7646	-0.36
Mof_H 	H 	0.0296	0.7964	0.6928	0.14
Mof_H 	H 	0.0398	0.8378	0.7806	0.136
Mof_H 	H 	0.0169	0.7781	0.799	0.136
Mof_C 	C 	0.7229	0.7815	0.3457	-0.358
Mof_H 	H 	0.7888	0.7671	0.3424	0.133
Mof_H 	H 	0.6746	0.7787	0.2804	0.118
Mof_H 	H 	0.7313	0.8182	0.3654	0.136
Mof_Cu	Cu	0.45825	0.75434	0.28299	0.84
Mof_Cu	Cu	0.43059	0.79181	0.02304	0.837
Mof_S 	S 	0.5391	0.61161	0.2892	-0.067
Mof_S 	S 	0.5383	0.43655	0.4685	-0.066
Mof_S 	S 	0.1924	0.7598	0.1302	-0.064
Mof_S 	S 	0.8653	0.764	0.0575	-0.043
Mof_N 	N 	0.4767	0.7007	0.1769	-0.211
Mof_N 	N 	0.4446	0.7141	0.0773	-0.165
Mof_N 	N 	0.4505	0.6725	0.0204	-0.074
Mof_N 	N 	0.4894	0.6328	0.0867	-0.053
Mof_N 	N 	0.5448	0.3445	0.3635	-0.218
Mof_N 	N 	0.528	0.3294	0.2651	-0.173
Mof_N 	N 	0.5046	0.3701	0.2064	-0.071
Mof_N 	N 	0.505	0.4123	0.2673	-0.053
Mof_N 	N 	0.3251	0.7347	0.3149	-0.221
Mof_N 	N 	0.3144	0.7092	0.3994	-0.176
Mof_N 	N 	0.2213	0.6931	0.3915	-0.072
Mof_N 	N 	0.1675	0.709	0.2984	-0.056
Mof_N 	N 	0.6643	0.789	0.0507	-0.112
Mof_N 	N 	0.5712	0.7832	0.9855	-0.161
Mof_N 	N 	0.5811	0.7563	0.9058	-0.168
Mof_N 	N 	0.6836	0.7478	0.9196	-0.057
Mof_C 	C 	0.5022	0.6505	0.181	0.097
Mof_C 	C 	0.6787	0.614	0.313	-0.142
Mof_H 	H 	0.6976	0.6266	0.2528	0.067
Mof_H 	H 	0.7064	0.6388	0.3676	0.073
Mof_C 	C 	0.7247	0.5607	0.3407	-0.034
Mof_H 	H 	0.7998	0.5643	0.36	0.028
Mof_H 	H 	0.7069	0.5382	0.2809	0.03
Mof_C 	C 	0.6907	0.5319	0.4279	-0.15
Mof_H 	H 	0.6154	0.5315	0.4124	0.082
Mof_H 	H 	0.7158	0.552	0.49	0.071
Mof_C 	C 	0.7312	0.4738	0.4461	-0.049
Mof_H 	H 	0.7182	0.4553	0.3817	0.042
Mof_H 	H 	0.8056	0.4742	0.4754	0.033
Mof_C 	C 	0.6792	0.4446	0.5155	-0.129
Mof_H 	H 	0.6932	0.4634	0.5796	0.063
Mof_H 	H 	0.7105	0.4097	0.5285	0.052
Mof_C 	C 	0.5322	0.3964	0.3641	0.09
Mof_C 	C 	0.5044	0.5812	0.047	-0.345
Mof_H 	H 	0.5621	0.5638	0.0923	0.125
Mof_H 	H 	0.5183	0.5851	0.9816	0.137
Mof_H 	H 	0.4427	0.5602	0.0407	0.126
Mof_C 	C 	0.4827	0.4643	0.2243	-0.351
Mof_H 	H 	0.4629	0.4872	0.2725	0.135
Mof_H 	H 	0.4269	0.4621	0.164	0.129
Mof_H 	H 	0.5435	0.4783	0.2076	0.13
Mof_C 	C 	0.2307	0.7342	0.253	0.091
Mof_C 	C 	0.2087	0.8315	0.159	-0.219
Mof_H 	H 	0.2502	0.8471	0.1175	0.077
Mof_H 	H 	0.2469	0.8357	0.2296	0.082
Mof_C 	C 	0.1214	0.8577	0.145	0.084
Mof_H 	H 	0.089	0.8473	0.1979	0.004
Mof_H 	H 	0.1392	0.895	0.1552	-0.006
Mof_C 	C 	0.0388	0.8538	0.0455	-0.22
Mof_H 	H 	0.055	0.8782	0.9966	0.088
Mof_H 	H 	0.038	0.8181	0.0186	0.102
Mof_C 	C 	0.9236	0.8681	0.063	-0.005
Mof_H 	H 	0.8742	0.8715	0.9974	0.025
Mof_H 	H 	0.9274	0.9022	0.0972	0.02
Mof_C 	C 	0.887	0.829	0.1213	-0.155
Mof_H 	H 	0.9373	0.825	0.1862	0.072
Mof_H 	H 	0.8223	0.8412	0.1342	0.073
Mof_C 	C 	0.7319	0.768	0.0092	0.098
Mof_C 	C 	0.0532	0.6982	0.2646	-0.36
Mof_H 	H 	0.0296	0.7036	0.1928	0.14
Mof_H 	H 	0.0398	0.6622	0.2806	0.135
Mof_H 	H 	0.0169	0.7219	0.299	0.136
Mof_C 	C 	0.7229	0.7185	0.8457	-0.358
Mof_H 	H 	0.7888	0.7329	0.8424	0.133
Mof_H 	H 	0.6746	0.7213	0.7804	0.118
Mof_H 	H 	0.7313	0.6818	0.8654	0.136
Mof_Cu	Cu	0.54175	0.25434	0.21701	0.84
Mof_Cu	Cu	0.56941	0.29181	0.47696	0.837
Mof_S 	S 	0.4609	0.11161	0.2108	-0.067
Mof_S 	S 	0.4617	0.93655	0.0315	-0.067
Mof_S 	S 	0.8076	0.2598	0.3698	-0.064
Mof_S 	S 	0.1347	0.264	0.4425	-0.043
Mof_N 	N 	0.5233	0.2007	0.3231	-0.211
Mof_N 	N 	0.5554	0.2141	0.4227	-0.165
Mof_N 	N 	0.5495	0.1725	0.4796	-0.074
Mof_N 	N 	0.5106	0.1328	0.4133	-0.053
Mof_N 	N 	0.4552	0.8445	0.1365	-0.219
Mof_N 	N 	0.472	0.8294	0.2349	-0.173
Mof_N 	N 	0.4954	0.8701	0.2936	-0.071
Mof_N 	N 	0.495	0.9123	0.2327	-0.053
Mof_N 	N 	0.6749	0.2347	0.1851	-0.221
Mof_N 	N 	0.6856	0.2092	0.1006	-0.176
Mof_N 	N 	0.7787	0.1931	0.1085	-0.072
Mof_N 	N 	0.8325	0.209	0.2016	-0.056
Mof_N 	N 	0.3357	0.289	0.4493	-0.112
Mof_N 	N 	0.4288	0.2832	0.5145	-0.161
Mof_N 	N 	0.4189	0.2563	0.5942	-0.168
Mof_N 	N 	0.3164	0.2478	0.5804	-0.057
Mof_C 	C 	0.4978	0.1505	0.319	0.097
Mof_C 	C 	0.3213	0.114	0.187	-0.142
Mof_H 	H 	0.3024	0.1266	0.2472	0.067
Mof_H 	H 	0.2936	0.1388	0.1324	0.073
Mof_C 	C 	0.2753	0.0607	0.1593	-0.035
Mof_H 	H 	0.2002	0.0643	0.14	0.029
Mof_H 	H 	0.2931	0.0382	0.2191	0.031
Mof_C 	C 	0.3093	0.0319	0.0721	-0.148
Mof_H 	H 	0.3846	0.0315	0.0876	0.081
Mof_H 	H 	0.2842	0.052	0.01	0.071
Mof_C 	C 	0.2688	0.9738	0.0539	-0.051
Mof_H 	H 	0.2818	0.9553	0.1183	0.043
Mof_H 	H 	0.1944	0.9742	0.0246	0.034
Mof_C 	C 	0.3208	0.9446	0.9845	-0.126
Mof_H 	H 	0.3068	0.9634	0.9204	0.062
Mof_H 	H 	0.2895	0.9097	0.9715	0.052
Mof_C 	C 	0.4678	0.8964	0.1359	0.09
Mof_C 	C 	0.4956	0.0812	0.453	-0.344
Mof_H 	H 	0.4379	0.0638	0.4077	0.125
Mof_H 	H 	0.4817	0.0851	0.5184	0.137
Mof_H 	H 	0.5573	0.0602	0.4593	0.126
Mof_C 	C 	0.5173	0.9643	0.2757	-0.35
Mof_H 	H 	0.5371	0.9872	0.2275	0.135
Mof_H 	H 	0.5731	0.9621	0.336	0.129
Mof_H 	H 	0.4565	0.9783	0.2924	0.13
Mof_C 	C 	0.7693	0.2342	0.247	0.091
Mof_C 	C 	0.7913	0.3315	0.341	-0.218
Mof_H 	H 	0.7498	0.3471	0.3825	0.077
Mof_H 	H 	0.7531	0.3357	0.2704	0.082
Mof_C 	C 	0.8786	0.3577	0.355	0.083
Mof_H 	H 	0.911	0.3473	0.3021	0.005
Mof_H 	H 	0.8608	0.395	0.3448	-0.006
Mof_C 	C 	0.9612	0.3538	0.4545	-0.219
Mof_H 	H 	0.945	0.3782	0.5034	0.087
Mof_H 	H 	0.962	0.3181	0.4814	0.102
Mof_C 	C 	0.0764	0.3681	0.437	-0.004
Mof_H 	H 	0.1258	0.3715	0.5026	0.024
Mof_H 	H 	0.0726	0.4022	0.4028	0.02
Mof_C 	C 	0.113	0.329	0.3787	-0.156
Mof_H 	H 	0.0627	0.325	0.3138	0.072
Mof_H 	H 	0.1777	0.3412	0.3658	0.073
Mof_C 	C 	0.2681	0.268	0.4908	0.099
Mof_C 	C 	0.9468	0.1982	0.2354	-0.36
Mof_H 	H 	0.9704	0.2036	0.3072	0.14
Mof_H 	H 	0.9602	0.1622	0.2194	0.136
Mof_H 	H 	0.9831	0.2219	0.201	0.136
Mof_C 	C 	0.2771	0.2185	0.6543	-0.358
Mof_H 	H 	0.2112	0.2329	0.6576	0.133
Mof_H 	H 	0.3254	0.2213	0.7196	0.118
Mof_H 	H 	0.2687	0.1818	0.6346	0.136
_end
