data_functionalizedCrystal
_audit_creation_method	'EQeq! by Chris Wilmer'
_symmetry_space_group_name_H-M	'P1'
_symmetry_Int_Tables_number	1
_symmetry_cell_setting	triclinic
loop_
_symmetry_equiv_pos_as_xyz
  x,y,z
_cell_length_a	10.8528
_cell_length_b	12.2516
_cell_length_c	16.9031
_cell_angle_alpha	104.462
_cell_angle_beta	93.659
_cell_angle_gamma	101.404
loop_
_atom_site_label
_atom_site_type_symbol
_atom_site_fract_x
_atom_site_fract_y
_atom_site_fract_z
_atom_site_charge
Mof_Tb	Tb	0.25423	0.4223	0.22666	2.12
Mof_Tb	Tb	0.29827	0.09871	0.23771	2.12
Mof_Tb	Tb	0.36752	0.7794	0.35847	2.228
Mof_O 	O 	0.3678	0.2608	0.17037	-0.593
Mof_O 	O 	0.3909	0.0876	0.1107	-0.5
Mof_O 	O 	0.6571	0.4616	0.85889	-0.551
Mof_O 	O 	0.6192	0.2812	0.78092	-0.593
Mof_O 	O 	0.2902	0.29952	0.32193	-0.563
Mof_O 	O 	0.4509	0.2237	0.34733	-0.467
Mof_O 	O 	0.4458	0.9989	0.26339	-0.598
Mof_O 	O 	0.5422	0.9166	0.34426	-0.555
Mof_O 	O 	0.0588	0.2995	0.22959	-0.541
Mof_O 	O 	0.1038	0.1247	0.196	-0.599
Mof_O 	O 	0.2013	0.0492	0.34344	-0.581
Mof_O 	O 	0.2866	0.9411	0.40957	-0.585
Mof_O 	O 	0.1523	0.7173	0.29759	-0.531
Mof_O 	O 	0.1068	0.539	0.21106	-0.517
Mof_O 	O 	0.515	0.6681	0.35369	-0.586
Mof_O 	O 	0.47	0.4879	0.27347	-0.544
Mof_O 	O 	0.2656	0.7005	0.45537	-0.534
Mof_O 	O 	0.2348	0.5396	0.35435	-0.584
Mof_C 	C 	0.4654	0.2339	0.0453	-0.086
Mof_C 	C 	0.5109	0.3517	0.0554	-0.049
Mof_H 	H 	0.5053	0.4048	0.1043	0.043
Mof_C 	C 	0.5645	0.389	0.992	0.027
Mof_H 	H 	0.5973	0.4674	0.9994	0.022
Mof_C 	C 	0.5701	0.3116	0.9177	-0.168
Mof_C 	C 	0.5273	0.1933	0.9088	0.034
Mof_H 	H 	0.5322	0.1401	0.8597	0.015
Mof_C 	C 	0.4778	0.1557	0.9728	-0.056
Mof_H 	H 	0.4524	0.0769	0.9674	0.061
Mof_C 	C 	0.4057	0.1917	0.1127	0.378
Mof_C 	C 	0.6196	0.3545	0.8467	0.521
Mof_C 	C 	0.3698	0.4559	0.4877	-0.012
Mof_H 	H 	0.283	0.4252	0.4794	0.037
Mof_C 	C 	0.4485	0.4043	0.4349	-0.096
Mof_C 	C 	0.5795	0.4478	0.448	-0.014
Mof_H 	H 	0.632	0.4122	0.4137	0.045
Mof_C 	C 	0.3933	0.3049	0.3645	0.372
Mof_C 	C 	0.9053	0.1397	0.2419	-0.123
Mof_C 	C 	0.8045	0.1928	0.2393	-0.025
Mof_H 	H 	0.8159	0.2631	0.2261	0.041
Mof_C 	C 	0.6871	0.1426	0.256	0.026
Mof_H 	H 	0.6189	0.177	0.2512	0.012
Mof_C 	C 	0.6706	0.0403	0.2801	-0.149
Mof_C 	C 	0.7733	0.9906	0.2863	0.004
Mof_H 	H 	0.7645	0.9246	0.305	0.034
Mof_C 	C 	0.8883	0.0375	0.2654	-0.009
Mof_H 	H 	0.9551	0.0006	0.2669	0.024
Mof_C 	C 	0.032	0.1919	0.2213	0.47
Mof_C 	C 	0.5437	0.9828	0.298	0.514
Mof_C 	C 	0.2038	0.9962	0.3983	0.516
Mof_C 	C 	0.0995	0.9997	0.4525	-0.145
Mof_C 	C 	0.0262	0.0803	0.4554	-0.003
Mof_H 	H 	0.0446	0.1351	0.426	0.036
Mof_C 	C 	0.0748	0.9198	0.4982	0.002
Mof_H 	H 	0.1255	0.8667	0.4977	0.032
Mof_C 	C 	0.2072	0.5974	0.4213	0.447
Mof_C 	C 	0.1002	0.5461	0.4622	-0.117
Mof_C 	C 	0.0785	0.6059	0.5388	-0.013
Mof_H 	H 	0.1312	0.6773	0.5651	0.048
Mof_C 	C 	0.0207	0.4393	0.4229	-0.004
Mof_H 	H 	0.0344	0.3985	0.3711	0.034
Mof_C 	C 	0.9385	0.6126	0.2725	-0.112
Mof_C 	C 	0.8972	0.7036	0.322	-0.022
Mof_H 	H 	0.9548	0.7729	0.3466	0.04
Mof_C 	C 	0.7715	0.6923	0.3351	0.009
Mof_H 	H 	0.7455	0.7539	0.3689	0.032
Mof_C 	C 	0.6836	0.5901	0.2985	-0.14
Mof_C 	C 	0.7253	0.4984	0.25	0.006
Mof_H 	H 	0.668	0.4285	0.2264	0.032
Mof_C 	C 	0.8509	0.5094	0.2362	-0.02
Mof_H 	H 	0.8769	0.4477	0.2025	0.039
Mof_C 	C 	0.0761	0.6238	0.2593	0.451
Mof_C 	C 	0.5454	0.5814	0.3101	0.512
Mof_Tb	Tb	0.74577	0.5777	0.77334	2.121
Mof_Tb	Tb	0.70173	0.90129	0.76229	2.121
Mof_Tb	Tb	0.63248	0.2206	0.64153	2.228
Mof_O 	O 	0.6322	0.7392	0.82963	-0.593
Mof_O 	O 	0.6091	0.9124	0.8893	-0.5
Mof_O 	O 	0.3429	0.5384	0.14111	-0.551
Mof_O 	O 	0.3808	0.7188	0.21908	-0.593
Mof_O 	O 	0.7098	0.70048	0.67807	-0.563
Mof_O 	O 	0.5491	0.7763	0.65267	-0.467
Mof_O 	O 	0.5542	0.0011	0.73661	-0.598
Mof_O 	O 	0.4578	0.0834	0.65574	-0.555
Mof_O 	O 	0.9412	0.7005	0.77041	-0.541
Mof_O 	O 	0.8962	0.8753	0.804	-0.599
Mof_O 	O 	0.7987	0.9508	0.65656	-0.581
Mof_O 	O 	0.7134	0.0589	0.59043	-0.585
Mof_O 	O 	0.8477	0.2827	0.70241	-0.531
Mof_O 	O 	0.8932	0.461	0.78894	-0.517
Mof_O 	O 	0.485	0.3319	0.64631	-0.586
Mof_O 	O 	0.53	0.5121	0.72653	-0.544
Mof_O 	O 	0.7344	0.2995	0.54463	-0.534
Mof_O 	O 	0.7652	0.4604	0.64565	-0.584
Mof_C 	C 	0.5346	0.7661	0.9547	-0.086
Mof_C 	C 	0.4891	0.6483	0.9446	-0.049
Mof_H 	H 	0.4947	0.5952	0.8957	0.043
Mof_C 	C 	0.4355	0.611	0.008	0.027
Mof_H 	H 	0.4027	0.5326	0.0006	0.022
Mof_C 	C 	0.4299	0.6884	0.0823	-0.168
Mof_C 	C 	0.4727	0.8067	0.0912	0.034
Mof_H 	H 	0.4678	0.8599	0.1403	0.015
Mof_C 	C 	0.5222	0.8443	0.0272	-0.056
Mof_H 	H 	0.5476	0.9231	0.0326	0.061
Mof_C 	C 	0.5943	0.8083	0.8873	0.378
Mof_C 	C 	0.3804	0.6455	0.1533	0.521
Mof_C 	C 	0.6302	0.5441	0.5123	-0.012
Mof_H 	H 	0.717	0.5748	0.5206	0.037
Mof_C 	C 	0.5515	0.5957	0.5651	-0.096
Mof_C 	C 	0.4205	0.5522	0.552	-0.014
Mof_H 	H 	0.368	0.5878	0.5863	0.045
Mof_C 	C 	0.6067	0.6951	0.6355	0.372
Mof_C 	C 	0.0947	0.8603	0.7581	-0.123
Mof_C 	C 	0.1955	0.8072	0.7607	-0.025
Mof_H 	H 	0.1841	0.7369	0.7739	0.041
Mof_C 	C 	0.3129	0.8574	0.744	0.026
Mof_H 	H 	0.3811	0.823	0.7488	0.012
Mof_C 	C 	0.3294	0.9597	0.7199	-0.149
Mof_C 	C 	0.2267	0.0094	0.7137	0.004
Mof_H 	H 	0.2355	0.0754	0.695	0.034
Mof_C 	C 	0.1117	0.9625	0.7346	-0.009
Mof_H 	H 	0.0449	0.9994	0.7331	0.024
Mof_C 	C 	0.968	0.8081	0.7787	0.47
Mof_C 	C 	0.4563	0.0172	0.702	0.514
Mof_C 	C 	0.7962	0.0038	0.6017	0.516
Mof_C 	C 	0.9005	0.0003	0.5475	-0.145
Mof_C 	C 	0.9738	0.9197	0.5446	-0.003
Mof_H 	H 	0.9554	0.8649	0.574	0.036
Mof_C 	C 	0.9252	0.0802	0.5018	0.002
Mof_H 	H 	0.8745	0.1333	0.5023	0.032
Mof_C 	C 	0.7928	0.4026	0.5787	0.447
Mof_C 	C 	0.8998	0.4539	0.5378	-0.117
Mof_C 	C 	0.9215	0.3941	0.4612	-0.013
Mof_H 	H 	0.8688	0.3227	0.4349	0.048
Mof_C 	C 	0.9793	0.5607	0.5771	-0.004
Mof_H 	H 	0.9656	0.6015	0.6289	0.034
Mof_C 	C 	0.0615	0.3874	0.7275	-0.112
Mof_C 	C 	0.1028	0.2964	0.678	-0.022
Mof_H 	H 	0.0452	0.2271	0.6534	0.04
Mof_C 	C 	0.2285	0.3077	0.6649	0.009
Mof_H 	H 	0.2545	0.2461	0.6311	0.032
Mof_C 	C 	0.3164	0.4099	0.7015	-0.14
Mof_C 	C 	0.2747	0.5016	0.75	0.006
Mof_H 	H 	0.332	0.5715	0.7736	0.032
Mof_C 	C 	0.1491	0.4906	0.7638	-0.02
Mof_H 	H 	0.1231	0.5523	0.7975	0.039
Mof_C 	C 	0.9239	0.3762	0.7407	0.451
Mof_C 	C 	0.4546	0.4186	0.6899	0.512
_end
