# CIF file generated by openbabel 3.1.0, see https://openbabel.org
data_I
_chemical_name_common 'image0'
_cell_length_a 23.7773
_cell_length_b 23.7773
_cell_length_c 23.7773
_cell_angle_alpha 90
_cell_angle_beta 90
_cell_angle_gamma 90
_space_group_name_H-M_alt 'P 1'
_space_group_name_Hall 'P 1'
loop_
    _symmetry_equiv_pos_as_xyz
    x,y,z
loop_
    _atom_site_label
    _atom_site_type_symbol
    _atom_site_fract_x
    _atom_site_fract_y
    _atom_site_fract_z
    _atom_site_occupancy
    Co1      Co       0.00660    0.55986    0.86587    1.000
    F1       F        0.99821    0.58925    0.94788    1.000
    O1       O        0.06759    0.61959    0.85001    1.000
    O2       O        0.93396    0.48137    0.96457    1.000
    O3       O        0.93827    0.50866    0.87430    1.000
    N1       N        0.02861    0.52006    0.78827    1.000
    N2       N        0.12904    0.44663    0.61791    1.000
    N3       N        0.94940    0.62347    0.84020    1.000
    N4       N        0.79712    0.77029    0.85017    1.000
    C1       C        0.91442    0.48498    0.91549    1.000
    C2       C        0.85791    0.45891    0.90327    1.000
    C3       C        0.82630    0.43330    0.94521    1.000
    H1       H        0.83960    0.43290    0.98200    1.000
    C4       C        0.77470    0.40810    0.93290    1.000
    H2       H        0.75420    0.39120    0.96160    1.000
    C5       C        0.75360    0.40800    0.87860    1.000
    C6       C        0.78590    0.43450    0.83620    1.000
    H3       H        0.77250    0.43530    0.79950    1.000
    C7       C        0.83750    0.45940    0.84890    1.000
    H4       H        0.85840    0.47640    0.82050    1.000
    C8       C        0.70078    0.37790    0.86340    1.000
    C9       C        0.66960    0.39390    0.81640    1.000
    H5       H        0.68060    0.42550    0.79600    1.000
    C10      C        0.99710    0.48040    0.76580    1.000
    H6       H        0.96280    0.47220    0.78270    1.000
    C11      C        0.01240    0.45020    0.71840    1.000
    H7       H        0.98810    0.42370    0.70290    1.000
    C12      C        0.06365    0.45992    0.69468    1.000
    C13      C        0.09700    0.50020    0.71770    1.000
    H8       H        0.13230    0.50800    0.70260    1.000
    C14      C        0.07730    0.52930    0.76440    1.000
    H9       H        0.10020    0.55720    0.77960    1.000
    C15      C        0.08337    0.42720    0.64384    1.000
    C16      C        0.95779    0.65970    0.79774    1.000
    H10      H        0.98800    0.65330    0.77370    1.000
    C17      C        0.92409    0.70590    0.78770    1.000
    H11      H        0.93200    0.73030    0.75810    1.000
    C18      C        0.87823    0.71513    0.82252    1.000
    C19      C        0.86890    0.67810    0.86680    1.000
    H12      H        0.83890    0.68370    0.89130    1.000
    C20      C        0.90440    0.63310    0.87400    1.000
    H13      H        0.89730    0.60810    0.90320    1.000
    C21      C        0.83979    0.76400    0.81312    1.000
    Co2      Co       0.49340    0.44014    0.36587    1.000
    F2       F        0.50179    0.41075    0.44788    1.000
    O4       O        0.43241    0.38041    0.35001    1.000
    O5       O        0.56604    0.51863    0.46457    1.000
    O6       O        0.56173    0.49134    0.37430    1.000
    N5       N        0.47139    0.47994    0.28827    1.000
    N6       N        0.37096    0.55337    0.11791    1.000
    N7       N        0.55060    0.37653    0.34020    1.000
    N8       N        0.70288    0.22971    0.35017    1.000
    C22      C        0.58558    0.51502    0.41549    1.000
    C23      C        0.64209    0.54109    0.40327    1.000
    C24      C        0.67370    0.56670    0.44521    1.000
    H14      H        0.66040    0.56710    0.48200    1.000
    C25      C        0.72530    0.59190    0.43290    1.000
    H15      H        0.74580    0.60880    0.46160    1.000
    C26      C        0.74640    0.59200    0.37860    1.000
    C27      C        0.71410    0.56550    0.33620    1.000
    H16      H        0.72750    0.56470    0.29950    1.000
    C28      C        0.66250    0.54060    0.34890    1.000
    H17      H        0.64160    0.52360    0.32050    1.000
    C29      C        0.79922    0.62210    0.36340    1.000
    C30      C        0.83040    0.60610    0.31640    1.000
    H18      H        0.81940    0.57450    0.29600    1.000
    C31      C        0.50290    0.51960    0.26580    1.000
    H19      H        0.53720    0.52780    0.28270    1.000
    C32      C        0.48760    0.54980    0.21840    1.000
    H20      H        0.51190    0.57630    0.20290    1.000
    C33      C        0.43635    0.54008    0.19468    1.000
    C34      C        0.40300    0.49980    0.21770    1.000
    H21      H        0.36770    0.49200    0.20260    1.000
    C35      C        0.42270    0.47070    0.26440    1.000
    H22      H        0.39980    0.44280    0.27960    1.000
    C36      C        0.41663    0.57280    0.14384    1.000
    C37      C        0.54221    0.34030    0.29774    1.000
    H23      H        0.51200    0.34670    0.27370    1.000
    C38      C        0.57591    0.29410    0.28770    1.000
    H24      H        0.56800    0.26970    0.25810    1.000
    C39      C        0.62177    0.28487    0.32252    1.000
    C40      C        0.63110    0.32190    0.36680    1.000
    H25      H        0.66110    0.31630    0.39130    1.000
    C41      C        0.59560    0.36690    0.37400    1.000
    H26      H        0.60270    0.39190    0.40320    1.000
    C42      C        0.66021    0.23600    0.31312    1.000
    Co3      Co       0.99340    0.05986    0.63413    1.000
    F3       F        0.00179    0.08925    0.55212    1.000
    O7       O        0.93241    0.11959    0.64999    1.000
    O8       O        0.06604    0.98137    0.53543    1.000
    O9       O        0.06173    0.00866    0.62570    1.000
    N9       N        0.97139    0.02006    0.71173    1.000
    N10      N        0.87096    0.94663    0.88209    1.000
    N11      N        0.05060    0.12347    0.65980    1.000
    N12      N        0.20288    0.27029    0.64983    1.000
    C43      C        0.08558    0.98498    0.58451    1.000
    C44      C        0.14209    0.95891    0.59673    1.000
    C45      C        0.17370    0.93330    0.55479    1.000
    H27      H        0.16040    0.93290    0.51800    1.000
    C46      C        0.22530    0.90810    0.56710    1.000
    H28      H        0.24580    0.89120    0.53840    1.000
    C47      C        0.24640    0.90800    0.62140    1.000
    C48      C        0.21410    0.93450    0.66380    1.000
    H29      H        0.22750    0.93530    0.70050    1.000
    C49      C        0.16250    0.95940    0.65110    1.000
    H30      H        0.14160    0.97640    0.67950    1.000
    C50      C        0.29922    0.87790    0.63660    1.000
    C51      C        0.33040    0.89390    0.68360    1.000
    H31      H        0.31940    0.92550    0.70400    1.000
    C52      C        0.00290    0.98040    0.73420    1.000
    H32      H        0.03720    0.97220    0.71730    1.000
    C53      C        0.98760    0.95020    0.78160    1.000
    H33      H        0.01190    0.92370    0.79710    1.000
    C54      C        0.93635    0.95992    0.80532    1.000
    C55      C        0.90300    0.00020    0.78230    1.000
    H34      H        0.86770    0.00800    0.79740    1.000
    C56      C        0.92270    0.02930    0.73560    1.000
    H35      H        0.89980    0.05720    0.72040    1.000
    C57      C        0.91663    0.92720    0.85616    1.000
    C58      C        0.04221    0.15970    0.70226    1.000
    H36      H        0.01200    0.15330    0.72630    1.000
    C59      C        0.07591    0.20590    0.71230    1.000
    H37      H        0.06800    0.23030    0.74190    1.000
    C60      C        0.12177    0.21513    0.67748    1.000
    C61      C        0.13110    0.17810    0.63320    1.000
    H38      H        0.16110    0.18370    0.60870    1.000
    C62      C        0.09560    0.13310    0.62600    1.000
    H39      H        0.10270    0.10810    0.59680    1.000
    C63      C        0.16021    0.26400    0.68688    1.000
    Co4      Co       0.50660    0.94014    0.13413    1.000
    F4       F        0.49821    0.91075    0.05212    1.000
    O10      O        0.56759    0.88041    0.14999    1.000
    O11      O        0.43396    0.01863    0.03543    1.000
    O12      O        0.43827    0.99134    0.12570    1.000
    N13      N        0.52861    0.97994    0.21173    1.000
    N14      N        0.62904    0.05337    0.38209    1.000
    N15      N        0.44940    0.87653    0.15980    1.000
    N16      N        0.29712    0.72971    0.14983    1.000
    C64      C        0.41442    0.01502    0.08451    1.000
    C65      C        0.35791    0.04109    0.09673    1.000
    C66      C        0.32630    0.06670    0.05479    1.000
    H40      H        0.33960    0.06710    0.01800    1.000
    C67      C        0.27470    0.09190    0.06710    1.000
    H41      H        0.25420    0.10880    0.03840    1.000
    C68      C        0.25360    0.09200    0.12140    1.000
    C69      C        0.28590    0.06550    0.16380    1.000
    H42      H        0.27250    0.06470    0.20050    1.000
    C70      C        0.33750    0.04060    0.15110    1.000
    H43      H        0.35840    0.02360    0.17950    1.000
    C71      C        0.20078    0.12210    0.13660    1.000
    C72      C        0.16960    0.10610    0.18360    1.000
    H44      H        0.18060    0.07450    0.20400    1.000
    C73      C        0.49710    0.01960    0.23420    1.000
    H45      H        0.46280    0.02780    0.21730    1.000
    C74      C        0.51240    0.04980    0.28160    1.000
    H46      H        0.48810    0.07630    0.29710    1.000
    C75      C        0.56365    0.04008    0.30532    1.000
    C76      C        0.59700    0.99980    0.28230    1.000
    H47      H        0.63230    0.99200    0.29740    1.000
    C77      C        0.57730    0.97070    0.23560    1.000
    H48      H        0.60020    0.94280    0.22040    1.000
    C78      C        0.58337    0.07280    0.35616    1.000
    C79      C        0.45779    0.84030    0.20226    1.000
    H49      H        0.48800    0.84670    0.22630    1.000
    C80      C        0.42409    0.79410    0.21230    1.000
    H50      H        0.43200    0.76970    0.24190    1.000
    C81      C        0.37823    0.78487    0.17748    1.000
    C82      C        0.36890    0.82190    0.13320    1.000
    H51      H        0.33890    0.81630    0.10870    1.000
    C83      C        0.40440    0.86690    0.12600    1.000
    H52      H        0.39730    0.89190    0.09680    1.000
    C84      C        0.33979    0.73600    0.18688    1.000
    Co5      Co       0.86587    0.00660    0.55986    1.000
    F5       F        0.94788    0.99821    0.58925    1.000
    O13      O        0.85001    0.06759    0.61959    1.000
    O14      O        0.96457    0.93396    0.48137    1.000
    O15      O        0.87430    0.93827    0.50866    1.000
    N17      N        0.78827    0.02861    0.52006    1.000
    N18      N        0.61791    0.12904    0.44663    1.000
    N19      N        0.84020    0.94940    0.62347    1.000
    N20      N        0.85017    0.79712    0.77029    1.000
    C85      C        0.91549    0.91442    0.48498    1.000
    C86      C        0.90327    0.85791    0.45891    1.000
    C87      C        0.94521    0.82630    0.43330    1.000
    H53      H        0.98200    0.83960    0.43290    1.000
    C88      C        0.93290    0.77470    0.40810    1.000
    H54      H        0.96160    0.75420    0.39120    1.000
    C89      C        0.87860    0.75360    0.40800    1.000
    C90      C        0.83620    0.78590    0.43450    1.000
    H55      H        0.79950    0.77250    0.43530    1.000
    C91      C        0.84890    0.83750    0.45940    1.000
    H56      H        0.82050    0.85840    0.47640    1.000
    C92      C        0.86340    0.70078    0.37790    1.000
    C93      C        0.81640    0.66960    0.39390    1.000
    H57      H        0.79600    0.68060    0.42550    1.000
    C94      C        0.76580    0.99710    0.48040    1.000
    H58      H        0.78270    0.96280    0.47220    1.000
    C95      C        0.71840    0.01240    0.45020    1.000
    H59      H        0.70290    0.98810    0.42370    1.000
    C96      C        0.69468    0.06365    0.45992    1.000
    C97      C        0.71770    0.09700    0.50020    1.000
    H60      H        0.70260    0.13230    0.50800    1.000
    C98      C        0.76440    0.07730    0.52930    1.000
    H61      H        0.77960    0.10020    0.55720    1.000
    C99      C        0.64384    0.08337    0.42720    1.000
    C100     C        0.79774    0.95779    0.65970    1.000
    H62      H        0.77370    0.98800    0.65330    1.000
    C101     C        0.78770    0.92409    0.70590    1.000
    H63      H        0.75810    0.93200    0.73030    1.000
    C102     C        0.82252    0.87823    0.71513    1.000
    C103     C        0.86680    0.86890    0.67810    1.000
    H64      H        0.89130    0.83890    0.68370    1.000
    C104     C        0.87400    0.90440    0.63310    1.000
    H65      H        0.90320    0.89730    0.60810    1.000
    C105     C        0.81312    0.83979    0.76400    1.000
    Co6      Co       0.36587    0.49340    0.44014    1.000
    F6       F        0.44788    0.50179    0.41075    1.000
    O16      O        0.35001    0.43241    0.38041    1.000
    O17      O        0.46457    0.56604    0.51863    1.000
    O18      O        0.37430    0.56173    0.49134    1.000
    N21      N        0.28827    0.47139    0.47994    1.000
    N22      N        0.11791    0.37096    0.55337    1.000
    N23      N        0.34020    0.55060    0.37653    1.000
    N24      N        0.35017    0.70288    0.22971    1.000
    C106     C        0.41549    0.58558    0.51502    1.000
    C107     C        0.40327    0.64209    0.54109    1.000
    C108     C        0.44521    0.67370    0.56670    1.000
    H66      H        0.48200    0.66040    0.56710    1.000
    C109     C        0.43290    0.72530    0.59190    1.000
    H67      H        0.46160    0.74580    0.60880    1.000
    C110     C        0.37860    0.74640    0.59200    1.000
    C111     C        0.33620    0.71410    0.56550    1.000
    H68      H        0.29950    0.72750    0.56470    1.000
    C112     C        0.34890    0.66250    0.54060    1.000
    H69      H        0.32050    0.64160    0.52360    1.000
    C113     C        0.36340    0.79922    0.62210    1.000
    C114     C        0.31640    0.83040    0.60610    1.000
    H70      H        0.29600    0.81940    0.57450    1.000
    C115     C        0.26580    0.50290    0.51960    1.000
    H71      H        0.28270    0.53720    0.52780    1.000
    C116     C        0.21840    0.48760    0.54980    1.000
    H72      H        0.20290    0.51190    0.57630    1.000
    C117     C        0.19468    0.43635    0.54008    1.000
    C118     C        0.21770    0.40300    0.49980    1.000
    H73      H        0.20260    0.36770    0.49200    1.000
    C119     C        0.26440    0.42270    0.47070    1.000
    H74      H        0.27960    0.39980    0.44280    1.000
    C120     C        0.14384    0.41663    0.57280    1.000
    C121     C        0.29774    0.54221    0.34030    1.000
    H75      H        0.27370    0.51200    0.34670    1.000
    C122     C        0.28770    0.57591    0.29410    1.000
    H76      H        0.25810    0.56800    0.26970    1.000
    C123     C        0.32252    0.62177    0.28487    1.000
    C124     C        0.36680    0.63110    0.32190    1.000
    H77      H        0.39130    0.66110    0.31630    1.000
    C125     C        0.37400    0.59560    0.36690    1.000
    H78      H        0.40320    0.60270    0.39190    1.000
    C126     C        0.31312    0.66021    0.23600    1.000
    Co7      Co       0.63413    0.99340    0.05986    1.000
    F7       F        0.55212    0.00179    0.08925    1.000
    O19      O        0.64999    0.93241    0.11959    1.000
    O20      O        0.53543    0.06604    0.98137    1.000
    O21      O        0.62570    0.06173    0.00866    1.000
    N25      N        0.71173    0.97139    0.02006    1.000
    N26      N        0.88209    0.87096    0.94663    1.000
    N27      N        0.65980    0.05060    0.12347    1.000
    N28      N        0.64983    0.20288    0.27029    1.000
    C127     C        0.58451    0.08558    0.98498    1.000
    C128     C        0.59673    0.14209    0.95891    1.000
    C129     C        0.55479    0.17370    0.93330    1.000
    H79      H        0.51800    0.16040    0.93290    1.000
    C130     C        0.56710    0.22530    0.90810    1.000
    H80      H        0.53840    0.24580    0.89120    1.000
    C131     C        0.62140    0.24640    0.90800    1.000
    C132     C        0.66380    0.21410    0.93450    1.000
    H81      H        0.70050    0.22750    0.93530    1.000
    C133     C        0.65110    0.16250    0.95940    1.000
    H82      H        0.67950    0.14160    0.97640    1.000
    C134     C        0.63660    0.29922    0.87790    1.000
    C135     C        0.68360    0.33040    0.89390    1.000
    H83      H        0.70400    0.31940    0.92550    1.000
    C136     C        0.73420    0.00290    0.98040    1.000
    H84      H        0.71730    0.03720    0.97220    1.000
    C137     C        0.78160    0.98760    0.95020    1.000
    H85      H        0.79710    0.01190    0.92370    1.000
    C138     C        0.80532    0.93635    0.95992    1.000
    C139     C        0.78230    0.90300    0.00020    1.000
    H86      H        0.79740    0.86770    0.00800    1.000
    C140     C        0.73560    0.92270    0.02930    1.000
    H87      H        0.72040    0.89980    0.05720    1.000
    C141     C        0.85616    0.91663    0.92720    1.000
    C142     C        0.70226    0.04221    0.15970    1.000
    H88      H        0.72630    0.01200    0.15330    1.000
    C143     C        0.71230    0.07591    0.20590    1.000
    H89      H        0.74190    0.06800    0.23030    1.000
    C144     C        0.67748    0.12177    0.21513    1.000
    C145     C        0.63320    0.13110    0.17810    1.000
    H90      H        0.60870    0.16110    0.18370    1.000
    C146     C        0.62600    0.09560    0.13310    1.000
    H91      H        0.59680    0.10270    0.10810    1.000
    C147     C        0.68688    0.16021    0.26400    1.000
    Co8      Co       0.13413    0.50660    0.94014    1.000
    F8       F        0.05212    0.49821    0.91075    1.000
    O22      O        0.14999    0.56759    0.88041    1.000
    O23      O        0.03543    0.43396    0.01863    1.000
    O24      O        0.12570    0.43827    0.99134    1.000
    N29      N        0.21173    0.52861    0.97994    1.000
    N30      N        0.38209    0.62904    0.05337    1.000
    N31      N        0.15980    0.44940    0.87653    1.000
    N32      N        0.14983    0.29712    0.72971    1.000
    C148     C        0.08451    0.41442    0.01502    1.000
    C149     C        0.09673    0.35791    0.04109    1.000
    C150     C        0.05479    0.32630    0.06670    1.000
    H92      H        0.01800    0.33960    0.06710    1.000
    C151     C        0.06710    0.27470    0.09190    1.000
    H93      H        0.03840    0.25420    0.10880    1.000
    C152     C        0.12140    0.25360    0.09200    1.000
    C153     C        0.16380    0.28590    0.06550    1.000
    H94      H        0.20050    0.27250    0.06470    1.000
    C154     C        0.15110    0.33750    0.04060    1.000
    H95      H        0.17950    0.35840    0.02360    1.000
    C155     C        0.13660    0.20078    0.12210    1.000
    C156     C        0.18360    0.16960    0.10610    1.000
    H96      H        0.20400    0.18060    0.07450    1.000
    C157     C        0.23420    0.49710    0.01960    1.000
    H97      H        0.21730    0.46280    0.02780    1.000
    C158     C        0.28160    0.51240    0.04980    1.000
    H98      H        0.29710    0.48810    0.07630    1.000
    C159     C        0.30532    0.56365    0.04008    1.000
    C160     C        0.28230    0.59700    0.99980    1.000
    H99      H        0.29740    0.63230    0.99200    1.000
    C161     C        0.23560    0.57730    0.97070    1.000
    H100     H        0.22040    0.60020    0.94280    1.000
    C162     C        0.35616    0.58337    0.07280    1.000
    C163     C        0.20226    0.45779    0.84030    1.000
    H101     H        0.22630    0.48800    0.84670    1.000
    C164     C        0.21230    0.42409    0.79410    1.000
    H102     H        0.24190    0.43200    0.76970    1.000
    C165     C        0.17748    0.37823    0.78487    1.000
    C166     C        0.13320    0.36890    0.82190    1.000
    H103     H        0.10870    0.33890    0.81630    1.000
    C167     C        0.12600    0.40440    0.86690    1.000
    H104     H        0.09680    0.39730    0.89190    1.000
    C168     C        0.18688    0.33979    0.73600    1.000
    Co9      Co       0.55986    0.86587    0.00660    1.000
    F9       F        0.58925    0.94788    0.99821    1.000
    O25      O        0.61959    0.85001    0.06759    1.000
    O26      O        0.48137    0.96457    0.93396    1.000
    O27      O        0.50866    0.87430    0.93827    1.000
    N33      N        0.52006    0.78827    0.02861    1.000
    N34      N        0.44663    0.61791    0.12904    1.000
    N35      N        0.62347    0.84020    0.94940    1.000
    N36      N        0.77029    0.85017    0.79712    1.000
    C169     C        0.48498    0.91549    0.91442    1.000
    C170     C        0.45891    0.90327    0.85791    1.000
    C171     C        0.43330    0.94521    0.82630    1.000
    H105     H        0.43290    0.98200    0.83960    1.000
    C172     C        0.40810    0.93290    0.77470    1.000
    H106     H        0.39120    0.96160    0.75420    1.000
    C173     C        0.40800    0.87860    0.75360    1.000
    C174     C        0.43450    0.83620    0.78590    1.000
    H107     H        0.43530    0.79950    0.77250    1.000
    C175     C        0.45940    0.84890    0.83750    1.000
    H108     H        0.47640    0.82050    0.85840    1.000
    C176     C        0.37790    0.86340    0.70078    1.000
    C177     C        0.39390    0.81640    0.66960    1.000
    H109     H        0.42550    0.79600    0.68060    1.000
    C178     C        0.48040    0.76580    0.99710    1.000
    H110     H        0.47220    0.78270    0.96280    1.000
    C179     C        0.45020    0.71840    0.01240    1.000
    H111     H        0.42370    0.70290    0.98810    1.000
    C180     C        0.45992    0.69468    0.06365    1.000
    C181     C        0.50020    0.71770    0.09700    1.000
    H112     H        0.50800    0.70260    0.13230    1.000
    C182     C        0.52930    0.76440    0.07730    1.000
    H113     H        0.55720    0.77960    0.10020    1.000
    C183     C        0.42720    0.64384    0.08337    1.000
    C184     C        0.65970    0.79774    0.95779    1.000
    H114     H        0.65330    0.77370    0.98800    1.000
    C185     C        0.70590    0.78770    0.92409    1.000
    H115     H        0.73030    0.75810    0.93200    1.000
    C186     C        0.71513    0.82252    0.87823    1.000
    C187     C        0.67810    0.86680    0.86890    1.000
    H116     H        0.68370    0.89130    0.83890    1.000
    C188     C        0.63310    0.87400    0.90440    1.000
    H117     H        0.60810    0.90320    0.89730    1.000
    C189     C        0.76400    0.81312    0.83979    1.000
    Co10     Co       0.44014    0.36587    0.49340    1.000
    F10      F        0.41075    0.44788    0.50179    1.000
    O28      O        0.38041    0.35001    0.43241    1.000
    O29      O        0.51863    0.46457    0.56604    1.000
    O30      O        0.49134    0.37430    0.56173    1.000
    N37      N        0.47994    0.28827    0.47139    1.000
    N38      N        0.55337    0.11791    0.37096    1.000
    N39      N        0.37653    0.34020    0.55060    1.000
    N40      N        0.22971    0.35017    0.70288    1.000
    C190     C        0.51502    0.41549    0.58558    1.000
    C191     C        0.54109    0.40327    0.64209    1.000
    C192     C        0.56670    0.44521    0.67370    1.000
    H118     H        0.56710    0.48200    0.66040    1.000
    C193     C        0.59190    0.43290    0.72530    1.000
    H119     H        0.60880    0.46160    0.74580    1.000
    C194     C        0.59200    0.37860    0.74640    1.000
    C195     C        0.56550    0.33620    0.71410    1.000
    H120     H        0.56470    0.29950    0.72750    1.000
    C196     C        0.54060    0.34890    0.66250    1.000
    H121     H        0.52360    0.32050    0.64160    1.000
    C197     C        0.62210    0.36340    0.79922    1.000
    C198     C        0.60610    0.31640    0.83040    1.000
    H122     H        0.57450    0.29600    0.81940    1.000
    C199     C        0.51960    0.26580    0.50290    1.000
    H123     H        0.52780    0.28270    0.53720    1.000
    C200     C        0.54980    0.21840    0.48760    1.000
    H124     H        0.57630    0.20290    0.51190    1.000
    C201     C        0.54008    0.19468    0.43635    1.000
    C202     C        0.49980    0.21770    0.40300    1.000
    H125     H        0.49200    0.20260    0.36770    1.000
    C203     C        0.47070    0.26440    0.42270    1.000
    H126     H        0.44280    0.27960    0.39980    1.000
    C204     C        0.57280    0.14384    0.41663    1.000
    C205     C        0.34030    0.29774    0.54221    1.000
    H127     H        0.34670    0.27370    0.51200    1.000
    C206     C        0.29410    0.28770    0.57591    1.000
    H128     H        0.26970    0.25810    0.56800    1.000
    C207     C        0.28487    0.32252    0.62177    1.000
    C208     C        0.32190    0.36680    0.63110    1.000
    H129     H        0.31630    0.39130    0.66110    1.000
    C209     C        0.36690    0.37400    0.59560    1.000
    H130     H        0.39190    0.40320    0.60270    1.000
    C210     C        0.23600    0.31312    0.66021    1.000
    Co11     Co       0.05986    0.63413    0.99340    1.000
    F11      F        0.08925    0.55212    0.00179    1.000
    O31      O        0.11959    0.64999    0.93241    1.000
    O32      O        0.98137    0.53543    0.06604    1.000
    O33      O        0.00866    0.62570    0.06173    1.000
    N41      N        0.02006    0.71173    0.97139    1.000
    N42      N        0.94663    0.88209    0.87096    1.000
    N43      N        0.12347    0.65980    0.05060    1.000
    N44      N        0.27029    0.64983    0.20288    1.000
    C211     C        0.98498    0.58451    0.08558    1.000
    C212     C        0.95891    0.59673    0.14209    1.000
    C213     C        0.93330    0.55479    0.17370    1.000
    H131     H        0.93290    0.51800    0.16040    1.000
    C214     C        0.90810    0.56710    0.22530    1.000
    H132     H        0.89120    0.53840    0.24580    1.000
    C215     C        0.90800    0.62140    0.24640    1.000
    C216     C        0.93450    0.66380    0.21410    1.000
    H133     H        0.93530    0.70050    0.22750    1.000
    C217     C        0.95940    0.65110    0.16250    1.000
    H134     H        0.97640    0.67950    0.14160    1.000
    C218     C        0.87790    0.63660    0.29922    1.000
    C219     C        0.89390    0.68360    0.33040    1.000
    H135     H        0.92550    0.70400    0.31940    1.000
    C220     C        0.98040    0.73420    0.00290    1.000
    H136     H        0.97220    0.71730    0.03720    1.000
    C221     C        0.95020    0.78160    0.98760    1.000
    H137     H        0.92370    0.79710    0.01190    1.000
    C222     C        0.95992    0.80532    0.93635    1.000
    C223     C        0.00020    0.78230    0.90300    1.000
    H138     H        0.00800    0.79740    0.86770    1.000
    C224     C        0.02930    0.73560    0.92270    1.000
    H139     H        0.05720    0.72040    0.89980    1.000
    C225     C        0.92720    0.85616    0.91663    1.000
    C226     C        0.15970    0.70226    0.04221    1.000
    H140     H        0.15330    0.72630    0.01200    1.000
    C227     C        0.20590    0.71230    0.07591    1.000
    H141     H        0.23030    0.74190    0.06800    1.000
    C228     C        0.21513    0.67748    0.12177    1.000
    C229     C        0.17810    0.63320    0.13110    1.000
    H142     H        0.18370    0.60870    0.16110    1.000
    C230     C        0.13310    0.62600    0.09560    1.000
    H143     H        0.10810    0.59680    0.10270    1.000
    C231     C        0.26400    0.68688    0.16021    1.000
    Co12     Co       0.94014    0.13413    0.50660    1.000
    F12      F        0.91075    0.05212    0.49821    1.000
    O34      O        0.88041    0.14999    0.56759    1.000
    O35      O        0.01863    0.03543    0.43396    1.000
    O36      O        0.99134    0.12570    0.43827    1.000
    N45      N        0.97994    0.21173    0.52861    1.000
    N46      N        0.05337    0.38209    0.62904    1.000
    N47      N        0.87653    0.15980    0.44940    1.000
    N48      N        0.72971    0.14983    0.29712    1.000
    C232     C        0.01502    0.08451    0.41442    1.000
    C233     C        0.04109    0.09673    0.35791    1.000
    C234     C        0.06670    0.05479    0.32630    1.000
    H144     H        0.06710    0.01800    0.33960    1.000
    C235     C        0.09190    0.06710    0.27470    1.000
    H145     H        0.10880    0.03840    0.25420    1.000
    C236     C        0.09200    0.12140    0.25360    1.000
    C237     C        0.06550    0.16380    0.28590    1.000
    H146     H        0.06470    0.20050    0.27250    1.000
    C238     C        0.04060    0.15110    0.33750    1.000
    H147     H        0.02360    0.17950    0.35840    1.000
    C239     C        0.12210    0.13660    0.20078    1.000
    C240     C        0.10610    0.18360    0.16960    1.000
    H148     H        0.07450    0.20400    0.18060    1.000
    C241     C        0.01960    0.23420    0.49710    1.000
    H149     H        0.02780    0.21730    0.46280    1.000
    C242     C        0.04980    0.28160    0.51240    1.000
    H150     H        0.07630    0.29710    0.48810    1.000
    C243     C        0.04008    0.30532    0.56365    1.000
    C244     C        0.99980    0.28230    0.59700    1.000
    H151     H        0.99200    0.29740    0.63230    1.000
    C245     C        0.97070    0.23560    0.57730    1.000
    H152     H        0.94280    0.22040    0.60020    1.000
    C246     C        0.07280    0.35616    0.58337    1.000
    C247     C        0.84030    0.20226    0.45779    1.000
    H153     H        0.84670    0.22630    0.48800    1.000
    C248     C        0.79410    0.21230    0.42409    1.000
    H154     H        0.76970    0.24190    0.43200    1.000
    C249     C        0.78487    0.17748    0.37823    1.000
    C250     C        0.82190    0.13320    0.36890    1.000
    H155     H        0.81630    0.10870    0.33890    1.000
    C251     C        0.86690    0.12600    0.40440    1.000
    H156     H        0.89190    0.09680    0.39730    1.000
    C252     C        0.73600    0.18688    0.33979    1.000
    Co13     Co       0.01127    0.51127    0.98873    1.000
    S1       S        0.12508    0.62508    0.87492    1.000
    O37      O        0.16031    0.66031    0.83969    1.000
    Co14     Co       0.48873    0.48873    0.48873    1.000
    S2       S        0.37492    0.37492    0.37492    1.000
    O38      O        0.33969    0.33969    0.33969    1.000
    Co15     Co       0.98873    0.01127    0.51127    1.000
    S3       S        0.87492    0.12508    0.62508    1.000
    O39      O        0.83969    0.16031    0.66031    1.000
    Co16     Co       0.51127    0.98873    0.01127    1.000
    S4       S        0.62508    0.87492    0.12508    1.000
    O40      O        0.66031    0.83969    0.16031    1.000
