# CIF file generated by openbabel 3.1.0, see https://openbabel.org
data_I
_chemical_name_common 'image0'
_cell_length_a 12.024
_cell_length_b 13.773
_cell_length_c 15.85
_cell_angle_alpha 90
_cell_angle_beta 99.093
_cell_angle_gamma 90
_space_group_name_H-M_alt 'P 1'
_space_group_name_Hall 'P 1'
loop_
    _symmetry_equiv_pos_as_xyz
    x,y,z
loop_
    _atom_site_label
    _atom_site_type_symbol
    _atom_site_fract_x
    _atom_site_fract_y
    _atom_site_fract_z
    _atom_site_occupancy
    Zn1      Zn       0.37139    0.21356    0.43228    1.000
    Zn2      Zn       0.25255    0.10472    0.24010    1.000
    O1       O        0.76037    0.64198    0.04370    1.000
    O2       O        0.83898    0.56893    0.16606    1.000
    O3       O        0.60148    0.55820    0.18146    1.000
    O4       O        0.49961    0.62851    0.06943    1.000
    C1       C        0.01950    0.51600    0.08625    1.000
    H1       H        0.03250    0.52700    0.14620    1.000
    C2       C        0.41440    0.50830    0.14346    1.000
    C3       C        0.21840    0.46340    0.10284    1.000
    C4       C        0.10660    0.47850    0.04780    1.000
    C5       C        0.91430    0.53800    0.04048    1.000
    C6       C        0.31150    0.51700    0.08819    1.000
    H2       H        0.30550    0.55960    0.04050    1.000
    C7       C        0.33010    0.38940    0.22512    1.000
    C8       C        0.83010    0.58530    0.08792    1.000
    C9       C        0.22820    0.40010    0.17170    1.000
    H3       H        0.16460    0.36390    0.18220    1.000
    O5       O        0.27110    0.25210    0.29752    1.000
    C10      C        0.42280    0.44480    0.21283    1.000
    H4       H        0.49150    0.43950    0.25140    1.000
    C11      C        0.51260    0.56930    0.13116    1.000
    O6       O        0.40170    0.20897    0.03841    1.000
    O7       O        0.35540    0.13990    0.15299    1.000
    O8       O        0.41960    0.32960    0.35939    1.000
    C12      C        0.33980    0.31970    0.29730    1.000
    C13      C        0.33330    0.19530    0.08974    1.000
    Zn3      Zn       0.62861    0.71356    0.06772    1.000
    Zn4      Zn       0.74745    0.60472    0.25990    1.000
    O9       O        0.23963    0.14198    0.45630    1.000
    O10      O        0.16102    0.06893    0.33394    1.000
    O11      O        0.39852    0.05820    0.31854    1.000
    O12      O        0.50039    0.12851    0.43057    1.000
    C14      C        0.98050    0.01600    0.41375    1.000
    H5       H        0.96750    0.02700    0.35380    1.000
    C15      C        0.58560    0.00830    0.35654    1.000
    C16      C        0.78160    0.96340    0.39716    1.000
    C17      C        0.89340    0.97850    0.45220    1.000
    C18      C        0.08570    0.03800    0.45952    1.000
    C19      C        0.68850    0.01700    0.41181    1.000
    H6       H        0.69450    0.05960    0.45950    1.000
    C20      C        0.66990    0.88940    0.27488    1.000
    C21      C        0.16990    0.08530    0.41208    1.000
    C22      C        0.77180    0.90010    0.32830    1.000
    H7       H        0.83540    0.86390    0.31780    1.000
    O13      O        0.72890    0.75210    0.20248    1.000
    C23      C        0.57720    0.94480    0.28717    1.000
    H8       H        0.50850    0.93950    0.24860    1.000
    C24      C        0.48740    0.06930    0.36884    1.000
    O14      O        0.59830    0.70897    0.46159    1.000
    O15      O        0.64460    0.63990    0.34701    1.000
    O16      O        0.58040    0.82960    0.14061    1.000
    C25      C        0.66020    0.81970    0.20270    1.000
    C26      C        0.66670    0.69530    0.41026    1.000
    Zn5      Zn       0.62861    0.78644    0.56772    1.000
    Zn6      Zn       0.74745    0.89528    0.75990    1.000
    O17      O        0.23963    0.35802    0.95630    1.000
    O18      O        0.16102    0.43107    0.83394    1.000
    O19      O        0.39852    0.44180    0.81854    1.000
    O20      O        0.50039    0.37149    0.93057    1.000
    C27      C        0.98050    0.48400    0.91375    1.000
    H9       H        0.96750    0.47300    0.85380    1.000
    C28      C        0.58560    0.49170    0.85654    1.000
    C29      C        0.78160    0.53660    0.89716    1.000
    C30      C        0.89340    0.52150    0.95220    1.000
    C31      C        0.08570    0.46200    0.95952    1.000
    C32      C        0.68850    0.48300    0.91181    1.000
    H10      H        0.69450    0.44040    0.95950    1.000
    C33      C        0.66990    0.61060    0.77488    1.000
    C34      C        0.16990    0.41470    0.91208    1.000
    C35      C        0.77180    0.59990    0.82830    1.000
    H11      H        0.83540    0.63610    0.81780    1.000
    O21      O        0.72890    0.74790    0.70248    1.000
    C36      C        0.57720    0.55520    0.78717    1.000
    H12      H        0.50850    0.56050    0.74860    1.000
    C37      C        0.48740    0.43070    0.86884    1.000
    O22      O        0.59830    0.79103    0.96159    1.000
    O23      O        0.64460    0.86010    0.84701    1.000
    O24      O        0.58040    0.67040    0.64061    1.000
    C38      C        0.66020    0.68030    0.70270    1.000
    C39      C        0.66670    0.80470    0.91026    1.000
    Zn7      Zn       0.37139    0.28644    0.93228    1.000
    Zn8      Zn       0.25255    0.39528    0.74010    1.000
    O25      O        0.76037    0.85802    0.54370    1.000
    O26      O        0.83898    0.93107    0.66606    1.000
    O27      O        0.60148    0.94180    0.68146    1.000
    O28      O        0.49961    0.87149    0.56943    1.000
    C40      C        0.01950    0.98400    0.58625    1.000
    H13      H        0.03250    0.97300    0.64620    1.000
    C41      C        0.41440    0.99170    0.64346    1.000
    C42      C        0.21840    0.03660    0.60284    1.000
    C43      C        0.10660    0.02150    0.54780    1.000
    C44      C        0.91430    0.96200    0.54048    1.000
    C45      C        0.31150    0.98300    0.58819    1.000
    H14      H        0.30550    0.94040    0.54050    1.000
    C46      C        0.33010    0.11060    0.72512    1.000
    C47      C        0.83010    0.91470    0.58792    1.000
    C48      C        0.22820    0.09990    0.67170    1.000
    H15      H        0.16460    0.13610    0.68220    1.000
    O29      O        0.27110    0.24790    0.79752    1.000
    C49      C        0.42280    0.05520    0.71283    1.000
    H16      H        0.49150    0.06050    0.75140    1.000
    C50      C        0.51260    0.93070    0.63116    1.000
    O30      O        0.40170    0.29103    0.53841    1.000
    O31      O        0.35540    0.36010    0.65299    1.000
    O32      O        0.41960    0.17040    0.85939    1.000
    C51      C        0.33980    0.18030    0.79730    1.000
    C52      C        0.33330    0.30470    0.58974    1.000
