# CIF file generated by openbabel 3.1.0, see https://openbabel.org
data_I
_chemical_name_common 'image0'
_cell_length_a 29.368
_cell_length_b 29.368
_cell_length_c 20.868
_cell_angle_alpha 90
_cell_angle_beta 90
_cell_angle_gamma 120
_space_group_name_H-M_alt 'P 1'
_space_group_name_Hall 'P 1'
loop_
    _symmetry_equiv_pos_as_xyz
    x,y,z
loop_
    _atom_site_label
    _atom_site_type_symbol
    _atom_site_fract_x
    _atom_site_fract_y
    _atom_site_fract_z
    _atom_site_occupancy
    O1       O        0.43190    0.71292    0.99409    1.000
    O2       O        0.39703    0.62654    0.97645    1.000
    C1       C        0.43305    0.67053    0.99460    1.000
    C2       C        0.48292    0.67281    0.01760    1.000
    C3       C        0.57501    0.67181    0.05160    1.000
    C4       C        0.62308    0.66940    0.06880    1.000
    C5       C        0.62152    0.62121    0.06900    1.000
    H1       H        0.58970    0.58980    0.05930    1.000
    C6       C        0.71240    0.56650    0.07350    1.000
    H2       H        0.74470    0.59800    0.06580    1.000
    C7       C        0.71100    0.51870    0.07480    1.000
    H3       H        0.74300    0.51840    0.06930    1.000
    C8       C        0.52880    0.71770    0.02900    1.000
    H4       H        0.53040    0.75050    0.02310    1.000
    C9       C        0.57350    0.71730    0.04910    1.000
    H5       H        0.60370    0.74930    0.06130    1.000
    C10      C        0.52380    0.62370    0.05230    1.000
    H6       H        0.52080    0.59150    0.06580    1.000
    C11      C        0.47980    0.62550    0.03320    1.000
    H7       H        0.44690    0.59380    0.03060    1.000
    C12      C        0.52120    0.71150    0.05240    1.000
    H8       H        0.51590    0.73900    0.06770    1.000
    C13      C        0.56800    0.71320    0.06710    1.000
    H9       H        0.59530    0.74320    0.08800    1.000
    C14      C        0.54060    0.63410    0.00410    1.000
    H10      H        0.54950    0.61040    0.98440    1.000
    C15      C        0.49430    0.63350    0.98850    1.000
    H11      H        0.47010    0.60810    0.95930    1.000
    C16      C        0.63600    0.53010    0.04400    1.000
    H12      H        0.61240    0.53410    0.01670    1.000
    C17      C        0.63780    0.48290    0.04170    1.000
    H13      H        0.61800    0.45750    0.00990    1.000
    O3       O        0.09857    0.04625    0.32742    1.000
    O4       O        0.06370    0.95987    0.30978    1.000
    C18      C        0.09972    0.00386    0.32793    1.000
    C19      C        0.14959    0.00614    0.35093    1.000
    C20      C        0.24168    0.00514    0.38493    1.000
    C21      C        0.28975    0.00273    0.40213    1.000
    C22      C        0.28819    0.95454    0.40233    1.000
    H14      H        0.25637    0.92313    0.39263    1.000
    C23      C        0.37907    0.89983    0.40683    1.000
    H15      H        0.41137    0.93133    0.39913    1.000
    C24      C        0.37767    0.85203    0.40813    1.000
    H16      H        0.40967    0.85173    0.40263    1.000
    C25      C        0.19547    0.05103    0.36233    1.000
    H17      H        0.19707    0.08383    0.35643    1.000
    C26      C        0.24017    0.05063    0.38243    1.000
    H18      H        0.27037    0.08263    0.39463    1.000
    C27      C        0.19047    0.95703    0.38563    1.000
    H19      H        0.18747    0.92483    0.39913    1.000
    C28      C        0.14647    0.95883    0.36653    1.000
    H20      H        0.11357    0.92713    0.36393    1.000
    C29      C        0.18787    0.04483    0.38573    1.000
    H21      H        0.18257    0.07233    0.40103    1.000
    C30      C        0.23467    0.04653    0.40043    1.000
    H22      H        0.26197    0.07653    0.42133    1.000
    C31      C        0.20727    0.96743    0.33743    1.000
    H23      H        0.21617    0.94373    0.31773    1.000
    C32      C        0.16097    0.96683    0.32183    1.000
    H24      H        0.13677    0.94143    0.29263    1.000
    C33      C        0.30267    0.86343    0.37733    1.000
    H25      H        0.27907    0.86743    0.35003    1.000
    C34      C        0.30447    0.81623    0.37503    1.000
    H26      H        0.28467    0.79083    0.34323    1.000
    O5       O        0.76523    0.37959    0.66076    1.000
    O6       O        0.73036    0.29321    0.64312    1.000
    C35      C        0.76638    0.33720    0.66127    1.000
    C36      C        0.81625    0.33948    0.68427    1.000
    C37      C        0.90834    0.33848    0.71827    1.000
    C38      C        0.95641    0.33607    0.73547    1.000
    C39      C        0.95485    0.28788    0.73567    1.000
    H27      H        0.92303    0.25647    0.72597    1.000
    C40      C        0.04573    0.23317    0.74017    1.000
    H28      H        0.07803    0.26467    0.73247    1.000
    C41      C        0.04433    0.18537    0.74147    1.000
    H29      H        0.07633    0.18507    0.73597    1.000
    C42      C        0.86213    0.38437    0.69567    1.000
    H30      H        0.86373    0.41717    0.68977    1.000
    C43      C        0.90683    0.38397    0.71577    1.000
    H31      H        0.93703    0.41597    0.72797    1.000
    C44      C        0.85713    0.29037    0.71897    1.000
    H32      H        0.85413    0.25817    0.73247    1.000
    C45      C        0.81313    0.29217    0.69987    1.000
    H33      H        0.78023    0.26047    0.69727    1.000
    C46      C        0.85453    0.37817    0.71907    1.000
    H34      H        0.84923    0.40567    0.73437    1.000
    C47      C        0.90133    0.37987    0.73377    1.000
    H35      H        0.92863    0.40987    0.75467    1.000
    C48      C        0.87393    0.30077    0.67077    1.000
    H36      H        0.88283    0.27707    0.65107    1.000
    C49      C        0.82763    0.30017    0.65517    1.000
    H37      H        0.80343    0.27477    0.62597    1.000
    C50      C        0.96933    0.19677    0.71067    1.000
    H38      H        0.94573    0.20077    0.68337    1.000
    C51      C        0.97113    0.14957    0.70837    1.000
    H39      H        0.95133    0.12417    0.67657    1.000
    O7       O        0.28708    0.71898    0.99409    1.000
    O8       O        0.37346    0.77049    0.97645    1.000
    C52      C        0.32947    0.76252    0.99460    1.000
    C53      C        0.32719    0.81011    0.01760    1.000
    C54      C        0.32819    0.90320    0.05160    1.000
    C55      C        0.33060    0.95368    0.06880    1.000
    C56      C        0.37879    0.00031    0.06900    1.000
    H40      H        0.41020    0.99990    0.05930    1.000
    C57      C        0.43350    0.14590    0.07350    1.000
    H41      H        0.40200    0.14670    0.06580    1.000
    C58      C        0.48130    0.19230    0.07480    1.000
    H42      H        0.48160    0.22460    0.06930    1.000
    C59      C        0.28230    0.81110    0.02900    1.000
    H43      H        0.24950    0.77990    0.02310    1.000
    C60      C        0.28270    0.85620    0.04910    1.000
    H44      H        0.25070    0.85440    0.06130    1.000
    C61      C        0.37630    0.90010    0.05230    1.000
    H45      H        0.40850    0.92930    0.06580    1.000
    C62      C        0.37450    0.85430    0.03320    1.000
    H46      H        0.40620    0.85310    0.03060    1.000
    C63      C        0.28850    0.80970    0.05240    1.000
    H47      H        0.26100    0.77690    0.06770    1.000
    C64      C        0.28680    0.85480    0.06710    1.000
    H48      H        0.25680    0.85210    0.08800    1.000
    C65      C        0.36590    0.90650    0.00410    1.000
    H49      H        0.38960    0.93910    0.98440    1.000
    C66      C        0.36650    0.86080    0.98850    1.000
    H50      H        0.39190    0.86200    0.95930    1.000
    C67      C        0.46990    0.10590    0.04400    1.000
    H51      H        0.46590    0.07830    0.01670    1.000
    C68      C        0.51710    0.15490    0.04170    1.000
    H52      H        0.54250    0.16050    0.00990    1.000
    O9       O        0.95375    0.05231    0.32742    1.000
    O10      O        0.04013    0.10382    0.30978    1.000
    C69      C        0.99614    0.09585    0.32793    1.000
    C70      C        0.99386    0.14344    0.35093    1.000
    C71      C        0.99486    0.23653    0.38493    1.000
    C72      C        0.99727    0.28701    0.40213    1.000
    C73      C        0.04546    0.33364    0.40233    1.000
    H53      H        0.07687    0.33323    0.39263    1.000
    C74      C        0.10017    0.47923    0.40683    1.000
    H54      H        0.06867    0.48003    0.39913    1.000
    C75      C        0.14797    0.52563    0.40813    1.000
    H55      H        0.14827    0.55793    0.40263    1.000
    C76      C        0.94897    0.14443    0.36233    1.000
    H56      H        0.91617    0.11323    0.35643    1.000
    C77      C        0.94937    0.18953    0.38243    1.000
    H57      H        0.91737    0.18773    0.39463    1.000
    C78      C        0.04297    0.23343    0.38563    1.000
    H58      H        0.07517    0.26263    0.39913    1.000
    C79      C        0.04117    0.18763    0.36653    1.000
    H59      H        0.07287    0.18643    0.36393    1.000
    C80      C        0.95517    0.14303    0.38573    1.000
    H60      H        0.92767    0.11023    0.40103    1.000
    C81      C        0.95347    0.18813    0.40043    1.000
    H61      H        0.92347    0.18543    0.42133    1.000
    C82      C        0.03257    0.23983    0.33743    1.000
    H62      H        0.05627    0.27243    0.31773    1.000
    C83      C        0.03317    0.19413    0.32183    1.000
    H63      H        0.05857    0.19533    0.29263    1.000
    C84      C        0.13657    0.43923    0.37733    1.000
    H64      H        0.13257    0.41163    0.35003    1.000
    C85      C        0.18377    0.48823    0.37503    1.000
    H65      H        0.20917    0.49383    0.34323    1.000
    O11      O        0.62041    0.38565    0.66076    1.000
    O12      O        0.70679    0.43716    0.64312    1.000
    C86      C        0.66280    0.42919    0.66127    1.000
    C87      C        0.66052    0.47678    0.68427    1.000
    C88      C        0.66152    0.56987    0.71827    1.000
    C89      C        0.66393    0.62035    0.73547    1.000
    C90      C        0.71212    0.66698    0.73567    1.000
    H66      H        0.74353    0.66657    0.72597    1.000
    C91      C        0.76683    0.81257    0.74017    1.000
    H67      H        0.73533    0.81337    0.73247    1.000
    C92      C        0.81463    0.85897    0.74147    1.000
    H68      H        0.81493    0.89127    0.73597    1.000
    C93      C        0.61563    0.47777    0.69567    1.000
    H69      H        0.58283    0.44657    0.68977    1.000
    C94      C        0.61603    0.52287    0.71577    1.000
    H70      H        0.58403    0.52107    0.72797    1.000
    C95      C        0.70963    0.56677    0.71897    1.000
    H71      H        0.74183    0.59597    0.73247    1.000
    C96      C        0.70783    0.52097    0.69987    1.000
    H72      H        0.73953    0.51977    0.69727    1.000
    C97      C        0.62183    0.47637    0.71907    1.000
    H73      H        0.59433    0.44357    0.73437    1.000
    C98      C        0.62013    0.52147    0.73377    1.000
    H74      H        0.59013    0.51877    0.75467    1.000
    C99      C        0.69923    0.57317    0.67077    1.000
    H75      H        0.72293    0.60577    0.65107    1.000
    C100     C        0.69983    0.52747    0.65517    1.000
    H76      H        0.72523    0.52867    0.62597    1.000
    C101     C        0.80323    0.77257    0.71067    1.000
    H77      H        0.79923    0.74497    0.68337    1.000
    C102     C        0.85043    0.82157    0.70837    1.000
    H78      H        0.87583    0.82717    0.67657    1.000
    O13      O        0.28102    0.56810    0.99409    1.000
    O14      O        0.22951    0.60297    0.97645    1.000
    C103     C        0.23748    0.56695    0.99460    1.000
    C104     C        0.18989    0.51708    0.01760    1.000
    C105     C        0.09680    0.42499    0.05160    1.000
    C106     C        0.04632    0.37692    0.06880    1.000
    C107     C        0.99969    0.37848    0.06900    1.000
    H79      H        0.00010    0.41030    0.05930    1.000
    C108     C        0.85410    0.28760    0.07350    1.000
    H80      H        0.85330    0.25530    0.06580    1.000
    C109     C        0.80770    0.28900    0.07480    1.000
    H81      H        0.77540    0.25700    0.06930    1.000
    C110     C        0.18890    0.47120    0.02900    1.000
    H82      H        0.22010    0.46960    0.02310    1.000
    C111     C        0.14380    0.42650    0.04910    1.000
    H83      H        0.14560    0.39630    0.06130    1.000
    C112     C        0.09990    0.47620    0.05230    1.000
    H84      H        0.07070    0.47920    0.06580    1.000
    C113     C        0.14570    0.52020    0.03320    1.000
    H85      H        0.14690    0.55310    0.03060    1.000
    C114     C        0.19030    0.47880    0.05240    1.000
    H86      H        0.22310    0.48410    0.06770    1.000
    C115     C        0.14520    0.43200    0.06710    1.000
    H87      H        0.14790    0.40470    0.08800    1.000
    C116     C        0.09350    0.45940    0.00410    1.000
    H88      H        0.06090    0.45050    0.98440    1.000
    C117     C        0.13920    0.50570    0.98850    1.000
    H89      H        0.13800    0.52990    0.95930    1.000
    C118     C        0.89410    0.36400    0.04400    1.000
    H90      H        0.92170    0.38760    0.01670    1.000
    C119     C        0.84510    0.36220    0.04170    1.000
    H91      H        0.83950    0.38200    0.00990    1.000
    O15      O        0.94769    0.90143    0.32742    1.000
    O16      O        0.89618    0.93630    0.30978    1.000
    C120     C        0.90415    0.90028    0.32793    1.000
    C121     C        0.85656    0.85041    0.35093    1.000
    C122     C        0.76347    0.75832    0.38493    1.000
    C123     C        0.71299    0.71025    0.40213    1.000
    C124     C        0.66636    0.71181    0.40233    1.000
    H92      H        0.66677    0.74363    0.39263    1.000
    C125     C        0.52077    0.62093    0.40683    1.000
    H93      H        0.51997    0.58863    0.39913    1.000
    C126     C        0.47437    0.62233    0.40813    1.000
    H94      H        0.44207    0.59033    0.40263    1.000
    C127     C        0.85557    0.80453    0.36233    1.000
    H95      H        0.88677    0.80293    0.35643    1.000
    C128     C        0.81047    0.75983    0.38243    1.000
    H96      H        0.81227    0.72963    0.39463    1.000
    C129     C        0.76657    0.80953    0.38563    1.000
    H97      H        0.73737    0.81253    0.39913    1.000
    C130     C        0.81237    0.85353    0.36653    1.000
    H98      H        0.81357    0.88643    0.36393    1.000
    C131     C        0.85697    0.81213    0.38573    1.000
    H99      H        0.88977    0.81743    0.40103    1.000
    C132     C        0.81187    0.76533    0.40043    1.000
    H100     H        0.81457    0.73803    0.42133    1.000
    C133     C        0.76017    0.79273    0.33743    1.000
    H101     H        0.72757    0.78383    0.31773    1.000
    C134     C        0.80587    0.83903    0.32183    1.000
    H102     H        0.80467    0.86323    0.29263    1.000
    C135     C        0.56077    0.69733    0.37733    1.000
    H103     H        0.58837    0.72093    0.35003    1.000
    C136     C        0.51177    0.69553    0.37503    1.000
    H104     H        0.50617    0.71533    0.34323    1.000
    O17      O        0.61435    0.23477    0.66076    1.000
    O18      O        0.56284    0.26964    0.64312    1.000
    C137     C        0.57081    0.23362    0.66127    1.000
    C138     C        0.52322    0.18375    0.68427    1.000
    C139     C        0.43013    0.09166    0.71827    1.000
    C140     C        0.37965    0.04359    0.73547    1.000
    C141     C        0.33302    0.04515    0.73567    1.000
    H105     H        0.33343    0.07697    0.72597    1.000
    C142     C        0.18743    0.95427    0.74017    1.000
    H106     H        0.18663    0.92197    0.73247    1.000
    C143     C        0.14103    0.95567    0.74147    1.000
    H107     H        0.10873    0.92367    0.73597    1.000
    C144     C        0.52223    0.13787    0.69567    1.000
    H108     H        0.55343    0.13627    0.68977    1.000
    C145     C        0.47713    0.09317    0.71577    1.000
    H109     H        0.47893    0.06297    0.72797    1.000
    C146     C        0.43323    0.14287    0.71897    1.000
    H110     H        0.40403    0.14587    0.73247    1.000
    C147     C        0.47903    0.18687    0.69987    1.000
    H111     H        0.48023    0.21977    0.69727    1.000
    C148     C        0.52363    0.14547    0.71907    1.000
    H112     H        0.55643    0.15077    0.73437    1.000
    C149     C        0.47853    0.09867    0.73377    1.000
    H113     H        0.48123    0.07137    0.75467    1.000
    C150     C        0.42683    0.12607    0.67077    1.000
    H114     H        0.39423    0.11717    0.65107    1.000
    C151     C        0.47253    0.17237    0.65517    1.000
    H115     H        0.47133    0.19657    0.62597    1.000
    C152     C        0.22743    0.03067    0.71067    1.000
    H116     H        0.25503    0.05427    0.68337    1.000
    C153     C        0.17843    0.02887    0.70837    1.000
    H117     H        0.17283    0.04867    0.67657    1.000
    O19      O        0.71292    0.43190    0.50591    1.000
    O20      O        0.62654    0.39703    0.52355    1.000
    C154     C        0.67053    0.43305    0.50540    1.000
    C155     C        0.67281    0.48292    0.48240    1.000
    C156     C        0.67181    0.57501    0.44840    1.000
    C157     C        0.66940    0.62308    0.43120    1.000
    C158     C        0.62121    0.62152    0.43100    1.000
    H118     H        0.58980    0.58970    0.44070    1.000
    C159     C        0.56650    0.71240    0.42650    1.000
    H119     H        0.59800    0.74470    0.43420    1.000
    C160     C        0.51870    0.71100    0.42520    1.000
    H120     H        0.51840    0.74300    0.43070    1.000
    C161     C        0.71770    0.52880    0.47100    1.000
    H121     H        0.75050    0.53040    0.47690    1.000
    C162     C        0.71730    0.57350    0.45090    1.000
    H122     H        0.74930    0.60370    0.43870    1.000
    C163     C        0.62370    0.52380    0.44770    1.000
    H123     H        0.59150    0.52080    0.43420    1.000
    C164     C        0.62550    0.47980    0.46680    1.000
    H124     H        0.59380    0.44690    0.46940    1.000
    C165     C        0.71150    0.52120    0.44760    1.000
    H125     H        0.73900    0.51590    0.43230    1.000
    C166     C        0.71320    0.56800    0.43290    1.000
    H126     H        0.74320    0.59530    0.41200    1.000
    C167     C        0.63410    0.54060    0.49590    1.000
    H127     H        0.61040    0.54950    0.51560    1.000
    C168     C        0.63350    0.49430    0.51150    1.000
    H128     H        0.60810    0.47010    0.54070    1.000
    C169     C        0.53010    0.63600    0.45600    1.000
    H129     H        0.53410    0.61240    0.48330    1.000
    C170     C        0.48290    0.63780    0.45830    1.000
    H130     H        0.45750    0.61800    0.49010    1.000
    O21      O        0.37959    0.76523    0.83924    1.000
    O22      O        0.29321    0.73036    0.85688    1.000
    C171     C        0.33720    0.76638    0.83873    1.000
    C172     C        0.33948    0.81625    0.81573    1.000
    C173     C        0.33848    0.90834    0.78173    1.000
    C174     C        0.33607    0.95641    0.76453    1.000
    C175     C        0.28788    0.95485    0.76433    1.000
    H131     H        0.25647    0.92303    0.77403    1.000
    C176     C        0.23317    0.04573    0.75983    1.000
    H132     H        0.26467    0.07803    0.76753    1.000
    C177     C        0.18537    0.04433    0.75853    1.000
    H133     H        0.18507    0.07633    0.76403    1.000
    C178     C        0.38437    0.86213    0.80433    1.000
    H134     H        0.41717    0.86373    0.81023    1.000
    C179     C        0.38397    0.90683    0.78423    1.000
    H135     H        0.41597    0.93703    0.77203    1.000
    C180     C        0.29037    0.85713    0.78103    1.000
    H136     H        0.25817    0.85413    0.76753    1.000
    C181     C        0.29217    0.81313    0.80013    1.000
    H137     H        0.26047    0.78023    0.80273    1.000
    C182     C        0.37817    0.85453    0.78093    1.000
    H138     H        0.40567    0.84923    0.76563    1.000
    C183     C        0.37987    0.90133    0.76623    1.000
    H139     H        0.40987    0.92863    0.74533    1.000
    C184     C        0.30077    0.87393    0.82923    1.000
    H140     H        0.27707    0.88283    0.84893    1.000
    C185     C        0.30017    0.82763    0.84483    1.000
    H141     H        0.27477    0.80343    0.87403    1.000
    C186     C        0.19677    0.96933    0.78933    1.000
    H142     H        0.20077    0.94573    0.81663    1.000
    C187     C        0.14957    0.97113    0.79163    1.000
    H143     H        0.12417    0.95133    0.82343    1.000
    O23      O        0.04625    0.09857    0.17258    1.000
    O24      O        0.95987    0.06370    0.19022    1.000
    C188     C        0.00386    0.09972    0.17207    1.000
    C189     C        0.00614    0.14959    0.14907    1.000
    C190     C        0.00514    0.24168    0.11507    1.000
    C191     C        0.00273    0.28975    0.09787    1.000
    C192     C        0.95454    0.28819    0.09767    1.000
    H144     H        0.92313    0.25637    0.10737    1.000
    C193     C        0.89983    0.37907    0.09317    1.000
    H145     H        0.93133    0.41137    0.10087    1.000
    C194     C        0.85203    0.37767    0.09187    1.000
    H146     H        0.85173    0.40967    0.09737    1.000
    C195     C        0.05103    0.19547    0.13767    1.000
    H147     H        0.08383    0.19707    0.14357    1.000
    C196     C        0.05063    0.24017    0.11757    1.000
    H148     H        0.08263    0.27037    0.10537    1.000
    C197     C        0.95703    0.19047    0.11437    1.000
    H149     H        0.92483    0.18747    0.10087    1.000
    C198     C        0.95883    0.14647    0.13347    1.000
    H150     H        0.92713    0.11357    0.13607    1.000
    C199     C        0.04483    0.18787    0.11427    1.000
    H151     H        0.07233    0.18257    0.09897    1.000
    C200     C        0.04653    0.23467    0.09957    1.000
    H152     H        0.07653    0.26197    0.07867    1.000
    C201     C        0.96743    0.20727    0.16257    1.000
    H153     H        0.94373    0.21617    0.18227    1.000
    C202     C        0.96683    0.16097    0.17817    1.000
    H154     H        0.94143    0.13677    0.20737    1.000
    C203     C        0.86343    0.30267    0.12267    1.000
    H155     H        0.86743    0.27907    0.14997    1.000
    C204     C        0.81623    0.30447    0.12497    1.000
    H156     H        0.79083    0.28467    0.15677    1.000
    O25      O        0.71898    0.28708    0.50591    1.000
    O26      O        0.77049    0.37346    0.52355    1.000
    C205     C        0.76252    0.32947    0.50540    1.000
    C206     C        0.81011    0.32719    0.48240    1.000
    C207     C        0.90320    0.32819    0.44840    1.000
    C208     C        0.95368    0.33060    0.43120    1.000
    C209     C        0.00031    0.37879    0.43100    1.000
    H157     H        0.99990    0.41020    0.44070    1.000
    C210     C        0.14590    0.43350    0.42650    1.000
    H158     H        0.14670    0.40200    0.43420    1.000
    C211     C        0.19230    0.48130    0.42520    1.000
    H159     H        0.22460    0.48160    0.43070    1.000
    C212     C        0.81110    0.28230    0.47100    1.000
    H160     H        0.77990    0.24950    0.47690    1.000
    C213     C        0.85620    0.28270    0.45090    1.000
    H161     H        0.85440    0.25070    0.43870    1.000
    C214     C        0.90010    0.37630    0.44770    1.000
    H162     H        0.92930    0.40850    0.43420    1.000
    C215     C        0.85430    0.37450    0.46680    1.000
    H163     H        0.85310    0.40620    0.46940    1.000
    C216     C        0.80970    0.28850    0.44760    1.000
    H164     H        0.77690    0.26100    0.43230    1.000
    C217     C        0.85480    0.28680    0.43290    1.000
    H165     H        0.85210    0.25680    0.41200    1.000
    C218     C        0.90650    0.36590    0.49590    1.000
    H166     H        0.93910    0.38960    0.51560    1.000
    C219     C        0.86080    0.36650    0.51150    1.000
    H167     H        0.86200    0.39190    0.54070    1.000
    C220     C        0.10590    0.46990    0.45600    1.000
    H168     H        0.07830    0.46590    0.48330    1.000
    C221     C        0.15490    0.51710    0.45830    1.000
    H169     H        0.16050    0.54250    0.49010    1.000
    O27      O        0.38565    0.62041    0.83924    1.000
    O28      O        0.43716    0.70679    0.85688    1.000
    C222     C        0.42919    0.66280    0.83873    1.000
    C223     C        0.47678    0.66052    0.81573    1.000
    C224     C        0.56987    0.66152    0.78173    1.000
    C225     C        0.62035    0.66393    0.76453    1.000
    C226     C        0.66698    0.71212    0.76433    1.000
    H170     H        0.66657    0.74353    0.77403    1.000
    C227     C        0.81257    0.76683    0.75983    1.000
    H171     H        0.81337    0.73533    0.76753    1.000
    C228     C        0.85897    0.81463    0.75853    1.000
    H172     H        0.89127    0.81493    0.76403    1.000
    C229     C        0.47777    0.61563    0.80433    1.000
    H173     H        0.44657    0.58283    0.81023    1.000
    C230     C        0.52287    0.61603    0.78423    1.000
    H174     H        0.52107    0.58403    0.77203    1.000
    C231     C        0.56677    0.70963    0.78103    1.000
    H175     H        0.59597    0.74183    0.76753    1.000
    C232     C        0.52097    0.70783    0.80013    1.000
    H176     H        0.51977    0.73953    0.80273    1.000
    C233     C        0.47637    0.62183    0.78093    1.000
    H177     H        0.44357    0.59433    0.76563    1.000
    C234     C        0.52147    0.62013    0.76623    1.000
    H178     H        0.51877    0.59013    0.74533    1.000
    C235     C        0.57317    0.69923    0.82923    1.000
    H179     H        0.60577    0.72293    0.84893    1.000
    C236     C        0.52747    0.69983    0.84483    1.000
    H180     H        0.52867    0.72523    0.87403    1.000
    C237     C        0.77257    0.80323    0.78933    1.000
    H181     H        0.74497    0.79923    0.81663    1.000
    C238     C        0.82157    0.85043    0.79163    1.000
    H182     H        0.82717    0.87583    0.82343    1.000
    O29      O        0.05231    0.95375    0.17258    1.000
    O30      O        0.10382    0.04013    0.19022    1.000
    C239     C        0.09585    0.99614    0.17207    1.000
    C240     C        0.14344    0.99386    0.14907    1.000
    C241     C        0.23653    0.99486    0.11507    1.000
    C242     C        0.28701    0.99727    0.09787    1.000
    C243     C        0.33364    0.04546    0.09767    1.000
    H183     H        0.33323    0.07687    0.10737    1.000
    C244     C        0.47923    0.10017    0.09317    1.000
    H184     H        0.48003    0.06867    0.10087    1.000
    C245     C        0.52563    0.14797    0.09187    1.000
    H185     H        0.55793    0.14827    0.09737    1.000
    C246     C        0.14443    0.94897    0.13767    1.000
    H186     H        0.11323    0.91617    0.14357    1.000
    C247     C        0.18953    0.94937    0.11757    1.000
    H187     H        0.18773    0.91737    0.10537    1.000
    C248     C        0.23343    0.04297    0.11437    1.000
    H188     H        0.26263    0.07517    0.10087    1.000
    C249     C        0.18763    0.04117    0.13347    1.000
    H189     H        0.18643    0.07287    0.13607    1.000
    C250     C        0.14303    0.95517    0.11427    1.000
    H190     H        0.11023    0.92767    0.09897    1.000
    C251     C        0.18813    0.95347    0.09957    1.000
    H191     H        0.18543    0.92347    0.07867    1.000
    C252     C        0.23983    0.03257    0.16257    1.000
    H192     H        0.27243    0.05627    0.18227    1.000
    C253     C        0.19413    0.03317    0.17817    1.000
    H193     H        0.19533    0.05857    0.20737    1.000
    C254     C        0.43923    0.13657    0.12267    1.000
    H194     H        0.41163    0.13257    0.14997    1.000
    C255     C        0.48823    0.18377    0.12497    1.000
    H195     H        0.49383    0.20917    0.15677    1.000
    O31      O        0.56810    0.28102    0.50591    1.000
    O32      O        0.60297    0.22951    0.52355    1.000
    C256     C        0.56695    0.23748    0.50540    1.000
    C257     C        0.51708    0.18989    0.48240    1.000
    C258     C        0.42499    0.09680    0.44840    1.000
    C259     C        0.37692    0.04632    0.43120    1.000
    C260     C        0.37848    0.99969    0.43100    1.000
    H196     H        0.41030    0.00010    0.44070    1.000
    C261     C        0.28760    0.85410    0.42650    1.000
    H197     H        0.25530    0.85330    0.43420    1.000
    C262     C        0.28900    0.80770    0.42520    1.000
    H198     H        0.25700    0.77540    0.43070    1.000
    C263     C        0.47120    0.18890    0.47100    1.000
    H199     H        0.46960    0.22010    0.47690    1.000
    C264     C        0.42650    0.14380    0.45090    1.000
    H200     H        0.39630    0.14560    0.43870    1.000
    C265     C        0.47620    0.09990    0.44770    1.000
    H201     H        0.47920    0.07070    0.43420    1.000
    C266     C        0.52020    0.14570    0.46680    1.000
    H202     H        0.55310    0.14690    0.46940    1.000
    C267     C        0.47880    0.19030    0.44760    1.000
    H203     H        0.48410    0.22310    0.43230    1.000
    C268     C        0.43200    0.14520    0.43290    1.000
    H204     H        0.40470    0.14790    0.41200    1.000
    C269     C        0.45940    0.09350    0.49590    1.000
    H205     H        0.45050    0.06090    0.51560    1.000
    C270     C        0.50570    0.13920    0.51150    1.000
    H206     H        0.52990    0.13800    0.54070    1.000
    C271     C        0.36400    0.89410    0.45600    1.000
    H207     H        0.38760    0.92170    0.48330    1.000
    C272     C        0.36220    0.84510    0.45830    1.000
    H208     H        0.38200    0.83950    0.49010    1.000
    O33      O        0.23477    0.61435    0.83924    1.000
    O34      O        0.26964    0.56284    0.85688    1.000
    C273     C        0.23362    0.57081    0.83873    1.000
    C274     C        0.18375    0.52322    0.81573    1.000
    C275     C        0.09166    0.43013    0.78173    1.000
    C276     C        0.04359    0.37965    0.76453    1.000
    C277     C        0.04515    0.33302    0.76433    1.000
    H209     H        0.07697    0.33343    0.77403    1.000
    C278     C        0.95427    0.18743    0.75983    1.000
    H210     H        0.92197    0.18663    0.76753    1.000
    C279     C        0.95567    0.14103    0.75853    1.000
    H211     H        0.92367    0.10873    0.76403    1.000
    C280     C        0.13787    0.52223    0.80433    1.000
    H212     H        0.13627    0.55343    0.81023    1.000
    C281     C        0.09317    0.47713    0.78423    1.000
    H213     H        0.06297    0.47893    0.77203    1.000
    C282     C        0.14287    0.43323    0.78103    1.000
    H214     H        0.14587    0.40403    0.76753    1.000
    C283     C        0.18687    0.47903    0.80013    1.000
    H215     H        0.21977    0.48023    0.80273    1.000
    C284     C        0.14547    0.52363    0.78093    1.000
    H216     H        0.15077    0.55643    0.76563    1.000
    C285     C        0.09867    0.47853    0.76623    1.000
    H217     H        0.07137    0.48123    0.74533    1.000
    C286     C        0.12607    0.42683    0.82923    1.000
    H218     H        0.11717    0.39423    0.84893    1.000
    C287     C        0.17237    0.47253    0.84483    1.000
    H219     H        0.19657    0.47133    0.87403    1.000
    C288     C        0.03067    0.22743    0.78933    1.000
    H220     H        0.05427    0.25503    0.81663    1.000
    C289     C        0.02887    0.17843    0.79163    1.000
    H221     H        0.04867    0.17283    0.82343    1.000
    O35      O        0.90143    0.94769    0.17258    1.000
    O36      O        0.93630    0.89618    0.19022    1.000
    C290     C        0.90028    0.90415    0.17207    1.000
    C291     C        0.85041    0.85656    0.14907    1.000
    C292     C        0.75832    0.76347    0.11507    1.000
    C293     C        0.71025    0.71299    0.09787    1.000
    C294     C        0.71181    0.66636    0.09767    1.000
    H222     H        0.74363    0.66677    0.10737    1.000
    C295     C        0.62093    0.52077    0.09317    1.000
    H223     H        0.58863    0.51997    0.10087    1.000
    C296     C        0.62233    0.47437    0.09187    1.000
    H224     H        0.59033    0.44207    0.09737    1.000
    C297     C        0.80453    0.85557    0.13767    1.000
    H225     H        0.80293    0.88677    0.14357    1.000
    C298     C        0.75983    0.81047    0.11757    1.000
    H226     H        0.72963    0.81227    0.10537    1.000
    C299     C        0.80953    0.76657    0.11437    1.000
    H227     H        0.81253    0.73737    0.10087    1.000
    C300     C        0.85353    0.81237    0.13347    1.000
    H228     H        0.88643    0.81357    0.13607    1.000
    C301     C        0.81213    0.85697    0.11427    1.000
    H229     H        0.81743    0.88977    0.09897    1.000
    C302     C        0.76533    0.81187    0.09957    1.000
    H230     H        0.73803    0.81457    0.07867    1.000
    C303     C        0.79273    0.76017    0.16257    1.000
    H231     H        0.78383    0.72757    0.18227    1.000
    C304     C        0.83903    0.80587    0.17817    1.000
    H232     H        0.86323    0.80467    0.20737    1.000
    C305     C        0.69733    0.56077    0.12267    1.000
    H233     H        0.72093    0.58837    0.14997    1.000
    C306     C        0.69553    0.51177    0.12497    1.000
    H234     H        0.71533    0.50617    0.15677    1.000
    O37      O        0.56810    0.28708    0.00591    1.000
    O38      O        0.60297    0.37346    0.02355    1.000
    C307     C        0.56695    0.32947    0.00540    1.000
    C308     C        0.51708    0.32719    0.98240    1.000
    C309     C        0.42499    0.32819    0.94840    1.000
    C310     C        0.37692    0.33060    0.93120    1.000
    C311     C        0.37848    0.37879    0.93100    1.000
    H235     H        0.41030    0.41020    0.94070    1.000
    C312     C        0.28760    0.43350    0.92650    1.000
    H236     H        0.25530    0.40200    0.93420    1.000
    C313     C        0.28900    0.48130    0.92520    1.000
    H237     H        0.25700    0.48160    0.93070    1.000
    C314     C        0.47120    0.28230    0.97100    1.000
    H238     H        0.46960    0.24950    0.97690    1.000
    C315     C        0.42650    0.28270    0.95090    1.000
    H239     H        0.39630    0.25070    0.93870    1.000
    C316     C        0.47620    0.37630    0.94770    1.000
    H240     H        0.47920    0.40850    0.93420    1.000
    C317     C        0.52020    0.37450    0.96680    1.000
    H241     H        0.55310    0.40620    0.96940    1.000
    C318     C        0.47880    0.28850    0.94760    1.000
    H242     H        0.48410    0.26100    0.93230    1.000
    C319     C        0.43200    0.28680    0.93290    1.000
    H243     H        0.40470    0.25680    0.91200    1.000
    C320     C        0.45940    0.36590    0.99590    1.000
    H244     H        0.45050    0.38960    0.01560    1.000
    C321     C        0.50570    0.36650    0.01150    1.000
    H245     H        0.52990    0.39190    0.04070    1.000
    C322     C        0.36400    0.46990    0.95600    1.000
    H246     H        0.38760    0.46590    0.98330    1.000
    C323     C        0.36220    0.51710    0.95830    1.000
    H247     H        0.38200    0.54250    0.99010    1.000
    O39      O        0.23477    0.62041    0.33924    1.000
    O40      O        0.26964    0.70679    0.35688    1.000
    C324     C        0.23362    0.66280    0.33873    1.000
    C325     C        0.18375    0.66052    0.31573    1.000
    C326     C        0.09166    0.66152    0.28173    1.000
    C327     C        0.04359    0.66393    0.26453    1.000
    C328     C        0.04515    0.71212    0.26433    1.000
    H248     H        0.07697    0.74353    0.27403    1.000
    C329     C        0.95427    0.76683    0.25983    1.000
    H249     H        0.92197    0.73533    0.26753    1.000
    C330     C        0.95567    0.81463    0.25853    1.000
    H250     H        0.92367    0.81493    0.26403    1.000
    C331     C        0.13787    0.61563    0.30433    1.000
    H251     H        0.13627    0.58283    0.31023    1.000
    C332     C        0.09317    0.61603    0.28423    1.000
    H252     H        0.06297    0.58403    0.27203    1.000
    C333     C        0.14287    0.70963    0.28103    1.000
    H253     H        0.14587    0.74183    0.26753    1.000
    C334     C        0.18687    0.70783    0.30013    1.000
    H254     H        0.21977    0.73953    0.30273    1.000
    C335     C        0.14547    0.62183    0.28093    1.000
    H255     H        0.15077    0.59433    0.26563    1.000
    C336     C        0.09867    0.62013    0.26623    1.000
    H256     H        0.07137    0.59013    0.24533    1.000
    C337     C        0.12607    0.69923    0.32923    1.000
    H257     H        0.11717    0.72293    0.34893    1.000
    C338     C        0.17237    0.69983    0.34483    1.000
    H258     H        0.19657    0.72523    0.37403    1.000
    C339     C        0.03067    0.80323    0.28933    1.000
    H259     H        0.05427    0.79923    0.31663    1.000
    C340     C        0.02887    0.85043    0.29163    1.000
    H260     H        0.04867    0.87583    0.32343    1.000
    O41      O        0.90143    0.95375    0.67258    1.000
    O42      O        0.93630    0.04013    0.69022    1.000
    C341     C        0.90028    0.99614    0.67207    1.000
    C342     C        0.85041    0.99386    0.64907    1.000
    C343     C        0.75832    0.99486    0.61507    1.000
    C344     C        0.71025    0.99727    0.59787    1.000
    C345     C        0.71181    0.04546    0.59767    1.000
    H261     H        0.74363    0.07687    0.60737    1.000
    C346     C        0.62093    0.10017    0.59317    1.000
    H262     H        0.58863    0.06867    0.60087    1.000
    C347     C        0.62233    0.14797    0.59187    1.000
    H263     H        0.59033    0.14827    0.59737    1.000
    C348     C        0.80453    0.94897    0.63767    1.000
    H264     H        0.80293    0.91617    0.64357    1.000
    C349     C        0.75983    0.94937    0.61757    1.000
    H265     H        0.72963    0.91737    0.60537    1.000
    C350     C        0.80953    0.04297    0.61437    1.000
    H266     H        0.81253    0.07517    0.60087    1.000
    C351     C        0.85353    0.04117    0.63347    1.000
    H267     H        0.88643    0.07287    0.63607    1.000
    C352     C        0.81213    0.95517    0.61427    1.000
    H268     H        0.81743    0.92767    0.59897    1.000
    C353     C        0.76533    0.95347    0.59957    1.000
    H269     H        0.73803    0.92347    0.57867    1.000
    C354     C        0.79273    0.03257    0.66257    1.000
    H270     H        0.78383    0.05627    0.68227    1.000
    C355     C        0.83903    0.03317    0.67817    1.000
    H271     H        0.86323    0.05857    0.70737    1.000
    C356     C        0.69733    0.13657    0.62267    1.000
    H272     H        0.72093    0.13257    0.64997    1.000
    C357     C        0.69553    0.18377    0.62497    1.000
    H273     H        0.71533    0.20917    0.65677    1.000
    O43      O        0.71292    0.28102    0.00591    1.000
    O44      O        0.62654    0.22951    0.02355    1.000
    C358     C        0.67053    0.23748    0.00540    1.000
    C359     C        0.67281    0.18989    0.98240    1.000
    C360     C        0.67181    0.09680    0.94840    1.000
    C361     C        0.66940    0.04632    0.93120    1.000
    C362     C        0.62121    0.99969    0.93100    1.000
    H274     H        0.58980    0.00010    0.94070    1.000
    C363     C        0.56650    0.85410    0.92650    1.000
    H275     H        0.59800    0.85330    0.93420    1.000
    C364     C        0.51870    0.80770    0.92520    1.000
    H276     H        0.51840    0.77540    0.93070    1.000
    C365     C        0.71770    0.18890    0.97100    1.000
    H277     H        0.75050    0.22010    0.97690    1.000
    C366     C        0.71730    0.14380    0.95090    1.000
    H278     H        0.74930    0.14560    0.93870    1.000
    C367     C        0.62370    0.09990    0.94770    1.000
    H279     H        0.59150    0.07070    0.93420    1.000
    C368     C        0.62550    0.14570    0.96680    1.000
    H280     H        0.59380    0.14690    0.96940    1.000
    C369     C        0.71150    0.19030    0.94760    1.000
    H281     H        0.73900    0.22310    0.93230    1.000
    C370     C        0.71320    0.14520    0.93290    1.000
    H282     H        0.74320    0.14790    0.91200    1.000
    C371     C        0.63410    0.09350    0.99590    1.000
    H283     H        0.61040    0.06090    0.01560    1.000
    C372     C        0.63350    0.13920    0.01150    1.000
    H284     H        0.60810    0.13800    0.04070    1.000
    C373     C        0.53010    0.89410    0.95600    1.000
    H285     H        0.53410    0.92170    0.98330    1.000
    C374     C        0.48290    0.84510    0.95830    1.000
    H286     H        0.45750    0.83950    0.99010    1.000
    O45      O        0.37959    0.61435    0.33924    1.000
    O46      O        0.29321    0.56284    0.35688    1.000
    C375     C        0.33720    0.57081    0.33873    1.000
    C376     C        0.33948    0.52322    0.31573    1.000
    C377     C        0.33848    0.43013    0.28173    1.000
    C378     C        0.33607    0.37965    0.26453    1.000
    C379     C        0.28788    0.33302    0.26433    1.000
    H287     H        0.25647    0.33343    0.27403    1.000
    C380     C        0.23317    0.18743    0.25983    1.000
    H288     H        0.26467    0.18663    0.26753    1.000
    C381     C        0.18537    0.14103    0.25853    1.000
    H289     H        0.18507    0.10873    0.26403    1.000
    C382     C        0.38437    0.52223    0.30433    1.000
    H290     H        0.41717    0.55343    0.31023    1.000
    C383     C        0.38397    0.47713    0.28423    1.000
    H291     H        0.41597    0.47893    0.27203    1.000
    C384     C        0.29037    0.43323    0.28103    1.000
    H292     H        0.25817    0.40403    0.26753    1.000
    C385     C        0.29217    0.47903    0.30013    1.000
    H293     H        0.26047    0.48023    0.30273    1.000
    C386     C        0.37817    0.52363    0.28093    1.000
    H294     H        0.40567    0.55643    0.26563    1.000
    C387     C        0.37987    0.47853    0.26623    1.000
    H295     H        0.40987    0.48123    0.24533    1.000
    C388     C        0.30077    0.42683    0.32923    1.000
    H296     H        0.27707    0.39423    0.34893    1.000
    C389     C        0.30017    0.47253    0.34483    1.000
    H297     H        0.27477    0.47133    0.37403    1.000
    C390     C        0.19677    0.22743    0.28933    1.000
    H298     H        0.20077    0.25503    0.31663    1.000
    C391     C        0.14957    0.17843    0.29163    1.000
    H299     H        0.12417    0.17283    0.32343    1.000
    O47      O        0.04625    0.94769    0.67258    1.000
    O48      O        0.95987    0.89618    0.69022    1.000
    C392     C        0.00386    0.90415    0.67207    1.000
    C393     C        0.00614    0.85656    0.64907    1.000
    C394     C        0.00514    0.76347    0.61507    1.000
    C395     C        0.00273    0.71299    0.59787    1.000
    C396     C        0.95454    0.66636    0.59767    1.000
    H300     H        0.92313    0.66677    0.60737    1.000
    C397     C        0.89983    0.52077    0.59317    1.000
    H301     H        0.93133    0.51997    0.60087    1.000
    C398     C        0.85203    0.47437    0.59187    1.000
    H302     H        0.85173    0.44207    0.59737    1.000
    C399     C        0.05103    0.85557    0.63767    1.000
    H303     H        0.08383    0.88677    0.64357    1.000
    C400     C        0.05063    0.81047    0.61757    1.000
    H304     H        0.08263    0.81227    0.60537    1.000
    C401     C        0.95703    0.76657    0.61437    1.000
    H305     H        0.92483    0.73737    0.60087    1.000
    C402     C        0.95883    0.81237    0.63347    1.000
    H306     H        0.92713    0.81357    0.63607    1.000
    C403     C        0.04483    0.85697    0.61427    1.000
    H307     H        0.07233    0.88977    0.59897    1.000
    C404     C        0.04653    0.81187    0.59957    1.000
    H308     H        0.07653    0.81457    0.57867    1.000
    C405     C        0.96743    0.76017    0.66257    1.000
    H309     H        0.94373    0.72757    0.68227    1.000
    C406     C        0.96683    0.80587    0.67817    1.000
    H310     H        0.94143    0.80467    0.70737    1.000
    C407     C        0.86343    0.56077    0.62267    1.000
    H311     H        0.86743    0.58837    0.64997    1.000
    C408     C        0.81623    0.51177    0.62497    1.000
    H312     H        0.79083    0.50617    0.65677    1.000
    O49      O        0.71898    0.43190    0.00591    1.000
    O50      O        0.77049    0.39703    0.02355    1.000
    C409     C        0.76252    0.43305    0.00540    1.000
    C410     C        0.81011    0.48292    0.98240    1.000
    C411     C        0.90320    0.57501    0.94840    1.000
    C412     C        0.95368    0.62308    0.93120    1.000
    C413     C        0.00031    0.62152    0.93100    1.000
    H313     H        0.99990    0.58970    0.94070    1.000
    C414     C        0.14590    0.71240    0.92650    1.000
    H314     H        0.14670    0.74470    0.93420    1.000
    C415     C        0.19230    0.71100    0.92520    1.000
    H315     H        0.22460    0.74300    0.93070    1.000
    C416     C        0.81110    0.52880    0.97100    1.000
    H316     H        0.77990    0.53040    0.97690    1.000
    C417     C        0.85620    0.57350    0.95090    1.000
    H317     H        0.85440    0.60370    0.93870    1.000
    C418     C        0.90010    0.52380    0.94770    1.000
    H318     H        0.92930    0.52080    0.93420    1.000
    C419     C        0.85430    0.47980    0.96680    1.000
    H319     H        0.85310    0.44690    0.96940    1.000
    C420     C        0.80970    0.52120    0.94760    1.000
    H320     H        0.77690    0.51590    0.93230    1.000
    C421     C        0.85480    0.56800    0.93290    1.000
    H321     H        0.85210    0.59530    0.91200    1.000
    C422     C        0.90650    0.54060    0.99590    1.000
    H322     H        0.93910    0.54950    0.01560    1.000
    C423     C        0.86080    0.49430    0.01150    1.000
    H323     H        0.86200    0.47010    0.04070    1.000
    C424     C        0.10590    0.63600    0.95600    1.000
    H324     H        0.07830    0.61240    0.98330    1.000
    C425     C        0.15490    0.63780    0.95830    1.000
    H325     H        0.16050    0.61800    0.99010    1.000
    O51      O        0.38565    0.76523    0.33924    1.000
    O52      O        0.43716    0.73036    0.35688    1.000
    C426     C        0.42919    0.76638    0.33873    1.000
    C427     C        0.47678    0.81625    0.31573    1.000
    C428     C        0.56987    0.90834    0.28173    1.000
    C429     C        0.62035    0.95641    0.26453    1.000
    C430     C        0.66698    0.95485    0.26433    1.000
    H326     H        0.66657    0.92303    0.27403    1.000
    C431     C        0.81257    0.04573    0.25983    1.000
    H327     H        0.81337    0.07803    0.26753    1.000
    C432     C        0.85897    0.04433    0.25853    1.000
    H328     H        0.89127    0.07633    0.26403    1.000
    C433     C        0.47777    0.86213    0.30433    1.000
    H329     H        0.44657    0.86373    0.31023    1.000
    C434     C        0.52287    0.90683    0.28423    1.000
    H330     H        0.52107    0.93703    0.27203    1.000
    C435     C        0.56677    0.85713    0.28103    1.000
    H331     H        0.59597    0.85413    0.26753    1.000
    C436     C        0.52097    0.81313    0.30013    1.000
    H332     H        0.51977    0.78023    0.30273    1.000
    C437     C        0.47637    0.85453    0.28093    1.000
    H333     H        0.44357    0.84923    0.26563    1.000
    C438     C        0.52147    0.90133    0.26623    1.000
    H334     H        0.51877    0.92863    0.24533    1.000
    C439     C        0.57317    0.87393    0.32923    1.000
    H335     H        0.60577    0.88283    0.34893    1.000
    C440     C        0.52747    0.82763    0.34483    1.000
    H336     H        0.52867    0.80343    0.37403    1.000
    C441     C        0.77257    0.96933    0.28933    1.000
    H337     H        0.74497    0.94573    0.31663    1.000
    C442     C        0.82157    0.97113    0.29163    1.000
    H338     H        0.82717    0.95133    0.32343    1.000
    O53      O        0.05231    0.09857    0.67258    1.000
    O54      O        0.10382    0.06370    0.69022    1.000
    C443     C        0.09585    0.09972    0.67207    1.000
    C444     C        0.14344    0.14959    0.64907    1.000
    C445     C        0.23653    0.24168    0.61507    1.000
    C446     C        0.28701    0.28975    0.59787    1.000
    C447     C        0.33364    0.28819    0.59767    1.000
    H339     H        0.33323    0.25637    0.60737    1.000
    C448     C        0.47923    0.37907    0.59317    1.000
    H340     H        0.48003    0.41137    0.60087    1.000
    C449     C        0.52563    0.37767    0.59187    1.000
    H341     H        0.55793    0.40967    0.59737    1.000
    C450     C        0.14443    0.19547    0.63767    1.000
    H342     H        0.11323    0.19707    0.64357    1.000
    C451     C        0.18953    0.24017    0.61757    1.000
    H343     H        0.18773    0.27037    0.60537    1.000
    C452     C        0.23343    0.19047    0.61437    1.000
    H344     H        0.26263    0.18747    0.60087    1.000
    C453     C        0.18763    0.14647    0.63347    1.000
    H345     H        0.18643    0.11357    0.63607    1.000
    C454     C        0.14303    0.18787    0.61427    1.000
    H346     H        0.11023    0.18257    0.59897    1.000
    C455     C        0.18813    0.23467    0.59957    1.000
    H347     H        0.18543    0.26197    0.57867    1.000
    C456     C        0.23983    0.20727    0.66257    1.000
    H348     H        0.27243    0.21617    0.68227    1.000
    C457     C        0.19413    0.16097    0.67817    1.000
    H349     H        0.19533    0.13677    0.70737    1.000
    C458     C        0.43923    0.30267    0.62267    1.000
    H350     H        0.41163    0.27907    0.64997    1.000
    C459     C        0.48823    0.30447    0.62497    1.000
    H351     H        0.49383    0.28467    0.65677    1.000
    O55      O        0.28708    0.56810    0.49409    1.000
    O56      O        0.37346    0.60297    0.47645    1.000
    C460     C        0.32947    0.56695    0.49460    1.000
    C461     C        0.32719    0.51708    0.51760    1.000
    C462     C        0.32819    0.42499    0.55160    1.000
    C463     C        0.33060    0.37692    0.56880    1.000
    C464     C        0.37879    0.37848    0.56900    1.000
    H352     H        0.41020    0.41030    0.55930    1.000
    C465     C        0.43350    0.28760    0.57350    1.000
    H353     H        0.40200    0.25530    0.56580    1.000
    C466     C        0.48130    0.28900    0.57480    1.000
    H354     H        0.48160    0.25700    0.56930    1.000
    C467     C        0.28230    0.47120    0.52900    1.000
    H355     H        0.24950    0.46960    0.52310    1.000
    C468     C        0.28270    0.42650    0.54910    1.000
    H356     H        0.25070    0.39630    0.56130    1.000
    C469     C        0.37630    0.47620    0.55230    1.000
    H357     H        0.40850    0.47920    0.56580    1.000
    C470     C        0.37450    0.52020    0.53320    1.000
    H358     H        0.40620    0.55310    0.53060    1.000
    C471     C        0.28850    0.47880    0.55240    1.000
    H359     H        0.26100    0.48410    0.56770    1.000
    C472     C        0.28680    0.43200    0.56710    1.000
    H360     H        0.25680    0.40470    0.58800    1.000
    C473     C        0.36590    0.45940    0.50410    1.000
    H361     H        0.38960    0.45050    0.48440    1.000
    C474     C        0.36650    0.50570    0.48850    1.000
    H362     H        0.39190    0.52990    0.45930    1.000
    C475     C        0.46990    0.36400    0.54400    1.000
    H363     H        0.46590    0.38760    0.51670    1.000
    C476     C        0.51710    0.36220    0.54170    1.000
    H364     H        0.54250    0.38200    0.50990    1.000
    O57      O        0.95375    0.90143    0.82742    1.000
    O58      O        0.04013    0.93630    0.80978    1.000
    C477     C        0.99614    0.90028    0.82793    1.000
    C478     C        0.99386    0.85041    0.85093    1.000
    C479     C        0.99486    0.75832    0.88493    1.000
    C480     C        0.99727    0.71025    0.90213    1.000
    C481     C        0.04546    0.71181    0.90233    1.000
    H365     H        0.07687    0.74363    0.89263    1.000
    C482     C        0.10017    0.62093    0.90683    1.000
    H366     H        0.06867    0.58863    0.89913    1.000
    C483     C        0.14797    0.62233    0.90813    1.000
    H367     H        0.14827    0.59033    0.90263    1.000
    C484     C        0.94897    0.80453    0.86233    1.000
    H368     H        0.91617    0.80293    0.85643    1.000
    C485     C        0.94937    0.75983    0.88243    1.000
    H369     H        0.91737    0.72963    0.89463    1.000
    C486     C        0.04297    0.80953    0.88563    1.000
    H370     H        0.07517    0.81253    0.89913    1.000
    C487     C        0.04117    0.85353    0.86653    1.000
    H371     H        0.07287    0.88643    0.86393    1.000
    C488     C        0.95517    0.81213    0.88573    1.000
    H372     H        0.92767    0.81743    0.90103    1.000
    C489     C        0.95347    0.76533    0.90043    1.000
    H373     H        0.92347    0.73803    0.92133    1.000
    C490     C        0.03257    0.79273    0.83743    1.000
    H374     H        0.05627    0.78383    0.81773    1.000
    C491     C        0.03317    0.83903    0.82183    1.000
    H375     H        0.05857    0.86323    0.79263    1.000
    C492     C        0.13657    0.69733    0.87733    1.000
    H376     H        0.13257    0.72093    0.85003    1.000
    C493     C        0.18377    0.69553    0.87503    1.000
    H377     H        0.20917    0.71533    0.84323    1.000
    O59      O        0.62041    0.23477    0.16076    1.000
    O60      O        0.70679    0.26964    0.14312    1.000
    C494     C        0.66280    0.23362    0.16127    1.000
    C495     C        0.66052    0.18375    0.18427    1.000
    C496     C        0.66152    0.09166    0.21827    1.000
    C497     C        0.66393    0.04359    0.23547    1.000
    C498     C        0.71212    0.04515    0.23567    1.000
    H378     H        0.74353    0.07697    0.22597    1.000
    C499     C        0.76683    0.95427    0.24017    1.000
    H379     H        0.73533    0.92197    0.23247    1.000
    C500     C        0.81463    0.95567    0.24147    1.000
    H380     H        0.81493    0.92367    0.23597    1.000
    C501     C        0.61563    0.13787    0.19567    1.000
    H381     H        0.58283    0.13627    0.18977    1.000
    C502     C        0.61603    0.09317    0.21577    1.000
    H382     H        0.58403    0.06297    0.22797    1.000
    C503     C        0.70963    0.14287    0.21897    1.000
    H383     H        0.74183    0.14587    0.23247    1.000
    C504     C        0.70783    0.18687    0.19987    1.000
    H384     H        0.73953    0.21977    0.19727    1.000
    C505     C        0.62183    0.14547    0.21907    1.000
    H385     H        0.59433    0.15077    0.23437    1.000
    C506     C        0.62013    0.09867    0.23377    1.000
    H386     H        0.59013    0.07137    0.25467    1.000
    C507     C        0.69923    0.12607    0.17077    1.000
    H387     H        0.72293    0.11717    0.15107    1.000
    C508     C        0.69983    0.17237    0.15517    1.000
    H388     H        0.72523    0.19657    0.12597    1.000
    C509     C        0.80323    0.03067    0.21067    1.000
    H389     H        0.79923    0.05427    0.18337    1.000
    C510     C        0.85043    0.02887    0.20837    1.000
    H390     H        0.87583    0.04867    0.17657    1.000
    O61      O        0.28102    0.71292    0.49409    1.000
    O62      O        0.22951    0.62654    0.47645    1.000
    C511     C        0.23748    0.67053    0.49460    1.000
    C512     C        0.18989    0.67281    0.51760    1.000
    C513     C        0.09680    0.67181    0.55160    1.000
    C514     C        0.04632    0.66940    0.56880    1.000
    C515     C        0.99969    0.62121    0.56900    1.000
    H391     H        0.00010    0.58980    0.55930    1.000
    C516     C        0.85410    0.56650    0.57350    1.000
    H392     H        0.85330    0.59800    0.56580    1.000
    C517     C        0.80770    0.51870    0.57480    1.000
    H393     H        0.77540    0.51840    0.56930    1.000
    C518     C        0.18890    0.71770    0.52900    1.000
    H394     H        0.22010    0.75050    0.52310    1.000
    C519     C        0.14380    0.71730    0.54910    1.000
    H395     H        0.14560    0.74930    0.56130    1.000
    C520     C        0.09990    0.62370    0.55230    1.000
    H396     H        0.07070    0.59150    0.56580    1.000
    C521     C        0.14570    0.62550    0.53320    1.000
    H397     H        0.14690    0.59380    0.53060    1.000
    C522     C        0.19030    0.71150    0.55240    1.000
    H398     H        0.22310    0.73900    0.56770    1.000
    C523     C        0.14520    0.71320    0.56710    1.000
    H399     H        0.14790    0.74320    0.58800    1.000
    C524     C        0.09350    0.63410    0.50410    1.000
    H400     H        0.06090    0.61040    0.48440    1.000
    C525     C        0.13920    0.63350    0.48850    1.000
    H401     H        0.13800    0.60810    0.45930    1.000
    C526     C        0.89410    0.53010    0.54400    1.000
    H402     H        0.92170    0.53410    0.51670    1.000
    C527     C        0.84510    0.48290    0.54170    1.000
    H403     H        0.83950    0.45750    0.50990    1.000
    O63      O        0.94769    0.04625    0.82742    1.000
    O64      O        0.89618    0.95987    0.80978    1.000
    C528     C        0.90415    0.00386    0.82793    1.000
    C529     C        0.85656    0.00614    0.85093    1.000
    C530     C        0.76347    0.00514    0.88493    1.000
    C531     C        0.71299    0.00273    0.90213    1.000
    C532     C        0.66636    0.95454    0.90233    1.000
    H404     H        0.66677    0.92313    0.89263    1.000
    C533     C        0.52077    0.89983    0.90683    1.000
    H405     H        0.51997    0.93133    0.89913    1.000
    C534     C        0.47437    0.85203    0.90813    1.000
    H406     H        0.44207    0.85173    0.90263    1.000
    C535     C        0.85557    0.05103    0.86233    1.000
    H407     H        0.88677    0.08383    0.85643    1.000
    C536     C        0.81047    0.05063    0.88243    1.000
    H408     H        0.81227    0.08263    0.89463    1.000
    C537     C        0.76657    0.95703    0.88563    1.000
    H409     H        0.73737    0.92483    0.89913    1.000
    C538     C        0.81237    0.95883    0.86653    1.000
    H410     H        0.81357    0.92713    0.86393    1.000
    C539     C        0.85697    0.04483    0.88573    1.000
    H411     H        0.88977    0.07233    0.90103    1.000
    C540     C        0.81187    0.04653    0.90043    1.000
    H412     H        0.81457    0.07653    0.92133    1.000
    C541     C        0.76017    0.96743    0.83743    1.000
    H413     H        0.72757    0.94373    0.81773    1.000
    C542     C        0.80587    0.96683    0.82183    1.000
    H414     H        0.80467    0.94143    0.79263    1.000
    C543     C        0.56077    0.86343    0.87733    1.000
    H415     H        0.58837    0.86743    0.85003    1.000
    C544     C        0.51177    0.81623    0.87503    1.000
    H416     H        0.50617    0.79083    0.84323    1.000
    O65      O        0.61435    0.37959    0.16076    1.000
    O66      O        0.56284    0.29321    0.14312    1.000
    C545     C        0.57081    0.33720    0.16127    1.000
    C546     C        0.52322    0.33948    0.18427    1.000
    C547     C        0.43013    0.33848    0.21827    1.000
    C548     C        0.37965    0.33607    0.23547    1.000
    C549     C        0.33302    0.28788    0.23567    1.000
    H417     H        0.33343    0.25647    0.22597    1.000
    C550     C        0.18743    0.23317    0.24017    1.000
    H418     H        0.18663    0.26467    0.23247    1.000
    C551     C        0.14103    0.18537    0.24147    1.000
    H419     H        0.10873    0.18507    0.23597    1.000
    C552     C        0.52223    0.38437    0.19567    1.000
    H420     H        0.55343    0.41717    0.18977    1.000
    C553     C        0.47713    0.38397    0.21577    1.000
    H421     H        0.47893    0.41597    0.22797    1.000
    C554     C        0.43323    0.29037    0.21897    1.000
    H422     H        0.40403    0.25817    0.23247    1.000
    C555     C        0.47903    0.29217    0.19987    1.000
    H423     H        0.48023    0.26047    0.19727    1.000
    C556     C        0.52363    0.37817    0.21907    1.000
    H424     H        0.55643    0.40567    0.23437    1.000
    C557     C        0.47853    0.37987    0.23377    1.000
    H425     H        0.48123    0.40987    0.25467    1.000
    C558     C        0.42683    0.30077    0.17077    1.000
    H426     H        0.39423    0.27707    0.15107    1.000
    C559     C        0.47253    0.30017    0.15517    1.000
    H427     H        0.47133    0.27477    0.12597    1.000
    C560     C        0.22743    0.19677    0.21067    1.000
    H428     H        0.25503    0.20077    0.18337    1.000
    C561     C        0.17843    0.14957    0.20837    1.000
    H429     H        0.17283    0.12417    0.17657    1.000
    O67      O        0.43190    0.71898    0.49409    1.000
    O68      O        0.39703    0.77049    0.47645    1.000
    C562     C        0.43305    0.76252    0.49460    1.000
    C563     C        0.48292    0.81011    0.51760    1.000
    C564     C        0.57501    0.90320    0.55160    1.000
    C565     C        0.62308    0.95368    0.56880    1.000
    C566     C        0.62152    0.00031    0.56900    1.000
    H430     H        0.58970    0.99990    0.55930    1.000
    C567     C        0.71240    0.14590    0.57350    1.000
    H431     H        0.74470    0.14670    0.56580    1.000
    C568     C        0.71100    0.19230    0.57480    1.000
    H432     H        0.74300    0.22460    0.56930    1.000
    C569     C        0.52880    0.81110    0.52900    1.000
    H433     H        0.53040    0.77990    0.52310    1.000
    C570     C        0.57350    0.85620    0.54910    1.000
    H434     H        0.60370    0.85440    0.56130    1.000
    C571     C        0.52380    0.90010    0.55230    1.000
    H435     H        0.52080    0.92930    0.56580    1.000
    C572     C        0.47980    0.85430    0.53320    1.000
    H436     H        0.44690    0.85310    0.53060    1.000
    C573     C        0.52120    0.80970    0.55240    1.000
    H437     H        0.51590    0.77690    0.56770    1.000
    C574     C        0.56800    0.85480    0.56710    1.000
    H438     H        0.59530    0.85210    0.58800    1.000
    C575     C        0.54060    0.90650    0.50410    1.000
    H439     H        0.54950    0.93910    0.48440    1.000
    C576     C        0.49430    0.86080    0.48850    1.000
    H440     H        0.47010    0.86200    0.45930    1.000
    C577     C        0.63600    0.10590    0.54400    1.000
    H441     H        0.61240    0.07830    0.51670    1.000
    C578     C        0.63780    0.15490    0.54170    1.000
    H442     H        0.61800    0.16050    0.50990    1.000
    O69      O        0.09857    0.05231    0.82742    1.000
    O70      O        0.06370    0.10382    0.80978    1.000
    C579     C        0.09972    0.09585    0.82793    1.000
    C580     C        0.14959    0.14344    0.85093    1.000
    C581     C        0.24168    0.23653    0.88493    1.000
    C582     C        0.28975    0.28701    0.90213    1.000
    C583     C        0.28819    0.33364    0.90233    1.000
    H443     H        0.25637    0.33323    0.89263    1.000
    C584     C        0.37907    0.47923    0.90683    1.000
    H444     H        0.41137    0.48003    0.89913    1.000
    C585     C        0.37767    0.52563    0.90813    1.000
    H445     H        0.40967    0.55793    0.90263    1.000
    C586     C        0.19547    0.14443    0.86233    1.000
    H446     H        0.19707    0.11323    0.85643    1.000
    C587     C        0.24017    0.18953    0.88243    1.000
    H447     H        0.27037    0.18773    0.89463    1.000
    C588     C        0.19047    0.23343    0.88563    1.000
    H448     H        0.18747    0.26263    0.89913    1.000
    C589     C        0.14647    0.18763    0.86653    1.000
    H449     H        0.11357    0.18643    0.86393    1.000
    C590     C        0.18787    0.14303    0.88573    1.000
    H450     H        0.18257    0.11023    0.90103    1.000
    C591     C        0.23467    0.18813    0.90043    1.000
    H451     H        0.26197    0.18543    0.92133    1.000
    C592     C        0.20727    0.23983    0.83743    1.000
    H452     H        0.21617    0.27243    0.81773    1.000
    C593     C        0.16097    0.19413    0.82183    1.000
    H453     H        0.13677    0.19533    0.79263    1.000
    C594     C        0.30267    0.43923    0.87733    1.000
    H454     H        0.27907    0.41163    0.85003    1.000
    C595     C        0.30447    0.48823    0.87503    1.000
    H455     H        0.28467    0.49383    0.84323    1.000
    O71      O        0.76523    0.38565    0.16076    1.000
    O72      O        0.73036    0.43716    0.14312    1.000
    C596     C        0.76638    0.42919    0.16127    1.000
    C597     C        0.81625    0.47678    0.18427    1.000
    C598     C        0.90834    0.56987    0.21827    1.000
    C599     C        0.95641    0.62035    0.23547    1.000
    C600     C        0.95485    0.66698    0.23567    1.000
    H456     H        0.92303    0.66657    0.22597    1.000
    C601     C        0.04573    0.81257    0.24017    1.000
    H457     H        0.07803    0.81337    0.23247    1.000
    C602     C        0.04433    0.85897    0.24147    1.000
    H458     H        0.07633    0.89127    0.23597    1.000
    C603     C        0.86213    0.47777    0.19567    1.000
    H459     H        0.86373    0.44657    0.18977    1.000
    C604     C        0.90683    0.52287    0.21577    1.000
    H460     H        0.93703    0.52107    0.22797    1.000
    C605     C        0.85713    0.56677    0.21897    1.000
    H461     H        0.85413    0.59597    0.23247    1.000
    C606     C        0.81313    0.52097    0.19987    1.000
    H462     H        0.78023    0.51977    0.19727    1.000
    C607     C        0.85453    0.47637    0.21907    1.000
    H463     H        0.84923    0.44357    0.23437    1.000
    C608     C        0.90133    0.52147    0.23377    1.000
    H464     H        0.92863    0.51877    0.25467    1.000
    C609     C        0.87393    0.57317    0.17077    1.000
    H465     H        0.88283    0.60577    0.15107    1.000
    C610     C        0.82763    0.52747    0.15517    1.000
    H466     H        0.80343    0.52867    0.12597    1.000
    C611     C        0.96933    0.77257    0.21067    1.000
    H467     H        0.94573    0.74497    0.18337    1.000
    C612     C        0.97113    0.82157    0.20837    1.000
    H468     H        0.95133    0.82717    0.17657    1.000
    Ni1      Ni       0.66667    0.40174    0.08333    1.000
    N1       N        0.66667    0.47306    0.08333    1.000
    N2       N        0.66667    0.71479    0.08333    1.000
    C613     C        0.66667    0.61928    0.08333    1.000
    C614     C        0.66667    0.56868    0.08333    1.000
    Ni2      Ni       0.59826    0.26492    0.08333    1.000
    N3       N        0.52694    0.19360    0.08333    1.000
    N4       N        0.28521    0.95187    0.08333    1.000
    C615     C        0.38072    0.04738    0.08333    1.000
    C616     C        0.43132    0.09798    0.08333    1.000
    Ni3      Ni       0.73508    0.33333    0.08333    1.000
    N5       N        0.80640    0.33333    0.08333    1.000
    N6       N        0.04813    0.33333    0.08333    1.000
    C617     C        0.95262    0.33333    0.08333    1.000
    C618     C        0.90202    0.33333    0.08333    1.000
    Ni4      Ni       0.40174    0.66667    0.41667    1.000
    N7       N        0.47306    0.66667    0.41667    1.000
    N8       N        0.71479    0.66667    0.41667    1.000
    C619     C        0.61928    0.66667    0.41667    1.000
    C620     C        0.56868    0.66667    0.41667    1.000
    Ni5      Ni       0.06841    0.00000    0.75000    1.000
    N9       N        0.13973    0.00000    0.75000    1.000
    N10      N        0.38146    0.00000    0.75000    1.000
    C621     C        0.28595    0.00000    0.75000    1.000
    C622     C        0.23535    0.00000    0.75000    1.000
    Ni6      Ni       0.26492    0.59826    0.41667    1.000
    N11      N        0.19360    0.52694    0.41667    1.000
    N12      N        0.95187    0.28521    0.41667    1.000
    C623     C        0.04738    0.38072    0.41667    1.000
    C624     C        0.09798    0.43132    0.41667    1.000
    Ni7      Ni       0.93159    0.93159    0.75000    1.000
    N13      N        0.86027    0.86027    0.75000    1.000
    N14      N        0.61854    0.61854    0.75000    1.000
    C625     C        0.71405    0.71405    0.75000    1.000
    C626     C        0.76465    0.76465    0.75000    1.000
    Ni8      Ni       0.33333    0.73508    0.41667    1.000
    N15      N        0.33333    0.80640    0.41667    1.000
    N16      N        0.33333    0.04813    0.41667    1.000
    C627     C        0.33333    0.95262    0.41667    1.000
    C628     C        0.33333    0.90202    0.41667    1.000
    Ni9      Ni       0.00000    0.06841    0.75000    1.000
    N17      N        0.00000    0.13973    0.75000    1.000
    N18      N        0.00000    0.38146    0.75000    1.000
    C629     C        0.00000    0.28595    0.75000    1.000
    C630     C        0.00000    0.23535    0.75000    1.000
    Ni10     Ni       0.33333    0.59826    0.91667    1.000
    N19      N        0.33333    0.52694    0.91667    1.000
    N20      N        0.33333    0.28521    0.91667    1.000
    C631     C        0.33333    0.38072    0.91667    1.000
    C632     C        0.33333    0.43132    0.91667    1.000
    Ni11     Ni       0.00000    0.93159    0.25000    1.000
    N21      N        0.00000    0.86027    0.25000    1.000
    N22      N        0.00000    0.61854    0.25000    1.000
    C633     C        0.00000    0.71405    0.25000    1.000
    C634     C        0.00000    0.76465    0.25000    1.000
    Ni12     Ni       0.40174    0.73508    0.91667    1.000
    N23      N        0.47306    0.80640    0.91667    1.000
    N24      N        0.71479    0.04813    0.91667    1.000
    C635     C        0.61928    0.95262    0.91667    1.000
    C636     C        0.56868    0.90202    0.91667    1.000
    Ni13     Ni       0.06841    0.06841    0.25000    1.000
    N25      N        0.13973    0.13973    0.25000    1.000
    N26      N        0.38146    0.38146    0.25000    1.000
    C637     C        0.28595    0.28595    0.25000    1.000
    C638     C        0.23535    0.23535    0.25000    1.000
    Ni14     Ni       0.26492    0.66667    0.91667    1.000
    N27      N        0.19360    0.66667    0.91667    1.000
    N28      N        0.95187    0.66667    0.91667    1.000
    C639     C        0.04738    0.66667    0.91667    1.000
    C640     C        0.09798    0.66667    0.91667    1.000
    Ni15     Ni       0.93159    0.00000    0.25000    1.000
    N29      N        0.86027    0.00000    0.25000    1.000
    N30      N        0.61854    0.00000    0.25000    1.000
    C641     C        0.71405    0.00000    0.25000    1.000
    C642     C        0.76465    0.00000    0.25000    1.000
    Ni16     Ni       0.59826    0.33333    0.58333    1.000
    N31      N        0.52694    0.33333    0.58333    1.000
    N32      N        0.28521    0.33333    0.58333    1.000
    C643     C        0.38072    0.33333    0.58333    1.000
    C644     C        0.43132    0.33333    0.58333    1.000
    Ni17     Ni       0.73508    0.40174    0.58333    1.000
    N33      N        0.80640    0.47306    0.58333    1.000
    N34      N        0.04813    0.71479    0.58333    1.000
    C645     C        0.95262    0.61928    0.58333    1.000
    C646     C        0.90202    0.56868    0.58333    1.000
    Ni18     Ni       0.66667    0.26492    0.58333    1.000
    N35      N        0.66667    0.19360    0.58333    1.000
    N36      N        0.66667    0.95187    0.58333    1.000
    C647     C        0.66667    0.04738    0.58333    1.000
    C648     C        0.66667    0.09798    0.58333    1.000
    O73      O        0.66667    0.33333    0.08333    1.000
    O74      O        0.00000    0.00000    0.75000    1.000
    O75      O        0.33333    0.66667    0.41667    1.000
    O76      O        0.33333    0.66667    0.91667    1.000
    O77      O        0.00000    0.00000    0.25000    1.000
    O78      O        0.66667    0.33333    0.58333    1.000
    H469     H        0.66667    0.33333    0.13130    1.000
    H470     H        0.33333    0.66667    0.46463    1.000
    H471     H        0.00000    0.00000    0.79797    1.000
    H472     H        0.33333    0.66667    0.36870    1.000
    H473     H        0.00000    0.00000    0.70203    1.000
    H474     H        0.66667    0.33333    0.03537    1.000
    H475     H        0.33333    0.66667    0.86870    1.000
    H476     H        0.00000    0.00000    0.20203    1.000
    H477     H        0.66667    0.33333    0.53537    1.000
    H478     H        0.66667    0.33333    0.63130    1.000
    H479     H        0.33333    0.66667    0.96463    1.000
    H480     H        0.00000    0.00000    0.29797    1.000
