# CIF file generated by openbabel 3.1.0, see https://openbabel.org
data_I
_chemical_name_common 'image0'
_cell_length_a 25.935
_cell_length_b 12.3434
_cell_length_c 22.869
_cell_angle_alpha 90
_cell_angle_beta 133.605
_cell_angle_gamma 90
_space_group_name_H-M_alt 'P 1'
_space_group_name_Hall 'P 1'
loop_
    _symmetry_equiv_pos_as_xyz
    x,y,z
loop_
    _atom_site_label
    _atom_site_type_symbol
    _atom_site_fract_x
    _atom_site_fract_y
    _atom_site_fract_z
    _atom_site_occupancy
    Tb1      Tb       0.87758    0.27606    0.12472    1.000
    S1       S        0.91950    0.65240    0.16860    1.000
    S2       S        0.91960    0.90540    0.17290    1.000
    S3       S        0.89930    0.39540    0.36290    1.000
    S4       S        0.86513    0.49940    0.45820    1.000
    O1       O        0.80880    0.39670    0.13700    1.000
    O2       O        0.90100    0.31330    0.24760    1.000
    O3       O        0.70850    0.67480    0.39760    1.000
    O4       O        0.81170    0.61420    0.51340    1.000
    O5       O        0.94980    0.42700    0.18520    1.000
    O6       O        0.94040    0.12790    0.20180    1.000
    C1       C        0.84770    0.37530    0.21070    1.000
    C2       C        0.83080    0.42220    0.25520    1.000
    C3       C        0.84890    0.46350    0.37320    1.000
    C4       C        0.78770    0.50630    0.30300    1.000
    C5       C        0.78060    0.56890    0.39350    1.000
    C6       C        0.76520    0.62300    0.43770    1.000
    C7       C        0.95690    0.77800    0.21010    1.000
    C8       C        0.02800    0.77650    0.27860    1.000
    C9       C        0.71710    0.52010    0.15110    1.000
    H1       H        0.72650    0.50730    0.11780    1.000
    H2       H        0.71060    0.59630    0.15240    1.000
    H3       H        0.67480    0.48190    0.12930    1.000
    C10      C        0.67340    0.61030    0.24740    1.000
    H4       H        0.65020    0.62090    0.26630    1.000
    H5       H        0.64570    0.56140    0.20240    1.000
    H6       H        0.67760    0.67860    0.23100    1.000
    C11      C        0.12830    0.63880    0.37910    1.000
    H7       H        0.13190    0.62980    0.42350    1.000
    H8       H        0.15990    0.69550    0.39140    1.000
    H9       H        0.14120    0.57230    0.37010    1.000
    C12      C        0.13130    0.91120    0.37810    1.000
    H10      H        0.14270    0.98310    0.37390    1.000
    H11      H        0.16160    0.85990    0.38250    1.000
    H12      H        0.13830    0.90660    0.42510    1.000
    C13      C        0.77980    0.47990    0.23640    1.000
    C14      C        0.74820    0.56210    0.31610    1.000
    C15      C        0.05290    0.66810    0.30390    1.000
    C16      C        0.05390    0.88590    0.30290    1.000
    S5       S        0.74680    0.49630    0.19060    1.000
    S6       S        0.71240    0.59740    0.28590    1.000
    C17      C        0.82090    0.48260    0.34260    1.000
    C18      C        0.76020    0.52570    0.27340    1.000
    C19      C        0.92710    0.36130    0.39360    1.000
    H13      H        0.95380    0.35730    0.37870    1.000
    H14      H        0.91650    0.28940    0.39880    1.000
    H15      H        0.95460    0.39860    0.44420    1.000
    C20      C        0.89490    0.47050    0.49720    1.000
    H16      H        0.90210    0.51900    0.53510    1.000
    H17      H        0.93630    0.47110    0.50490    1.000
    H18      H        0.88710    0.39850    0.50560    1.000
    C21      C        0.85920    0.42140    0.32990    1.000
    C22      C        0.83150    0.50620    0.41320    1.000
    Tb2      Tb       0.37758    0.77606    0.12472    1.000
    S7       S        0.41950    0.15240    0.16860    1.000
    S8       S        0.41960    0.40540    0.17290    1.000
    S9       S        0.39930    0.89540    0.36290    1.000
    S10      S        0.36513    0.99940    0.45820    1.000
    O7       O        0.30880    0.89670    0.13700    1.000
    O8       O        0.40100    0.81330    0.24760    1.000
    O9       O        0.20850    0.17480    0.39760    1.000
    O10      O        0.31170    0.11420    0.51340    1.000
    O11      O        0.44980    0.92700    0.18520    1.000
    O12      O        0.44040    0.62790    0.20180    1.000
    C23      C        0.34770    0.87530    0.21070    1.000
    C24      C        0.33080    0.92220    0.25520    1.000
    C25      C        0.34890    0.96350    0.37320    1.000
    C26      C        0.28770    0.00630    0.30300    1.000
    C27      C        0.28060    0.06890    0.39350    1.000
    C28      C        0.26520    0.12300    0.43770    1.000
    C29      C        0.45690    0.27800    0.21010    1.000
    C30      C        0.52800    0.27650    0.27860    1.000
    C31      C        0.21710    0.02010    0.15110    1.000
    H19      H        0.22650    0.00730    0.11780    1.000
    H20      H        0.21060    0.09630    0.15240    1.000
    H21      H        0.17480    0.98190    0.12930    1.000
    C32      C        0.17340    0.11030    0.24740    1.000
    H22      H        0.15020    0.12090    0.26630    1.000
    H23      H        0.14570    0.06140    0.20240    1.000
    H24      H        0.17760    0.17860    0.23100    1.000
    C33      C        0.62830    0.13880    0.37910    1.000
    H25      H        0.63190    0.12980    0.42350    1.000
    H26      H        0.65990    0.19550    0.39140    1.000
    H27      H        0.64120    0.07230    0.37010    1.000
    C34      C        0.63130    0.41120    0.37810    1.000
    H28      H        0.64270    0.48310    0.37390    1.000
    H29      H        0.66160    0.35990    0.38250    1.000
    H30      H        0.63830    0.40660    0.42510    1.000
    C35      C        0.27980    0.97990    0.23640    1.000
    C36      C        0.24820    0.06210    0.31610    1.000
    C37      C        0.55290    0.16810    0.30390    1.000
    C38      C        0.55390    0.38590    0.30290    1.000
    S11      S        0.24680    0.99630    0.19060    1.000
    S12      S        0.21240    0.09740    0.28590    1.000
    C39      C        0.32090    0.98260    0.34260    1.000
    C40      C        0.26020    0.02570    0.27340    1.000
    C41      C        0.42710    0.86130    0.39360    1.000
    H31      H        0.45380    0.85730    0.37870    1.000
    H32      H        0.41650    0.78940    0.39880    1.000
    H33      H        0.45460    0.89860    0.44420    1.000
    C42      C        0.39490    0.97050    0.49720    1.000
    H34      H        0.40210    0.01900    0.53510    1.000
    H35      H        0.43630    0.97110    0.50490    1.000
    H36      H        0.38710    0.89850    0.50560    1.000
    C43      C        0.35920    0.92140    0.32990    1.000
    C44      C        0.33150    0.00620    0.41320    1.000
    Tb3      Tb       0.12242    0.27606    0.37528    1.000
    S13      S        0.08050    0.65240    0.33140    1.000
    S14      S        0.08040    0.90540    0.32710    1.000
    S15      S        0.10070    0.39540    0.13710    1.000
    S16      S        0.13487    0.49940    0.04180    1.000
    O13      O        0.19120    0.39670    0.36300    1.000
    O14      O        0.09900    0.31330    0.25240    1.000
    O15      O        0.29150    0.67480    0.10240    1.000
    O16      O        0.18830    0.61420    0.98660    1.000
    O17      O        0.05020    0.42700    0.31480    1.000
    O18      O        0.05960    0.12790    0.29820    1.000
    C45      C        0.15230    0.37530    0.28930    1.000
    C46      C        0.16920    0.42220    0.24480    1.000
    C47      C        0.15110    0.46350    0.12680    1.000
    C48      C        0.21230    0.50630    0.19700    1.000
    C49      C        0.21940    0.56890    0.10650    1.000
    C50      C        0.23480    0.62300    0.06230    1.000
    C51      C        0.04310    0.77800    0.28990    1.000
    C52      C        0.97200    0.77650    0.22140    1.000
    C53      C        0.28290    0.52010    0.34890    1.000
    H37      H        0.27350    0.50730    0.38220    1.000
    H38      H        0.28940    0.59630    0.34760    1.000
    H39      H        0.32520    0.48190    0.37070    1.000
    C54      C        0.32660    0.61030    0.25260    1.000
    H40      H        0.34980    0.62090    0.23370    1.000
    H41      H        0.35430    0.56140    0.29760    1.000
    H42      H        0.32240    0.67860    0.26900    1.000
    C55      C        0.87170    0.63880    0.12090    1.000
    H43      H        0.86810    0.62980    0.07650    1.000
    H44      H        0.84010    0.69550    0.10860    1.000
    H45      H        0.85880    0.57230    0.12990    1.000
    C56      C        0.86870    0.91120    0.12190    1.000
    H46      H        0.85730    0.98310    0.12610    1.000
    H47      H        0.83840    0.85990    0.11750    1.000
    H48      H        0.86170    0.90660    0.07490    1.000
    C57      C        0.22020    0.47990    0.26360    1.000
    C58      C        0.25180    0.56210    0.18390    1.000
    C59      C        0.94710    0.66810    0.19610    1.000
    C60      C        0.94610    0.88590    0.19710    1.000
    S17      S        0.25320    0.49630    0.30940    1.000
    S18      S        0.28760    0.59740    0.21410    1.000
    C61      C        0.17910    0.48260    0.15740    1.000
    C62      C        0.23980    0.52570    0.22660    1.000
    C63      C        0.07290    0.36130    0.10640    1.000
    H49      H        0.04620    0.35730    0.12130    1.000
    H50      H        0.08350    0.28940    0.10120    1.000
    H51      H        0.04540    0.39860    0.05580    1.000
    C64      C        0.10510    0.47050    0.00280    1.000
    H52      H        0.09790    0.51900    0.96490    1.000
    H53      H        0.06370    0.47110    0.99510    1.000
    H54      H        0.11290    0.39850    0.99440    1.000
    C65      C        0.14080    0.42140    0.17010    1.000
    C66      C        0.16850    0.50620    0.08680    1.000
    Tb4      Tb       0.62242    0.77606    0.37528    1.000
    S19      S        0.58050    0.15240    0.33140    1.000
    S20      S        0.58040    0.40540    0.32710    1.000
    S21      S        0.60070    0.89540    0.13710    1.000
    S22      S        0.63487    0.99940    0.04180    1.000
    O19      O        0.69120    0.89670    0.36300    1.000
    O20      O        0.59900    0.81330    0.25240    1.000
    O21      O        0.79150    0.17480    0.10240    1.000
    O22      O        0.68830    0.11420    0.98660    1.000
    O23      O        0.55020    0.92700    0.31480    1.000
    O24      O        0.55960    0.62790    0.29820    1.000
    C67      C        0.65230    0.87530    0.28930    1.000
    C68      C        0.66920    0.92220    0.24480    1.000
    C69      C        0.65110    0.96350    0.12680    1.000
    C70      C        0.71230    0.00630    0.19700    1.000
    C71      C        0.71940    0.06890    0.10650    1.000
    C72      C        0.73480    0.12300    0.06230    1.000
    C73      C        0.54310    0.27800    0.28990    1.000
    C74      C        0.47200    0.27650    0.22140    1.000
    C75      C        0.78290    0.02010    0.34890    1.000
    H55      H        0.77350    0.00730    0.38220    1.000
    H56      H        0.78940    0.09630    0.34760    1.000
    H57      H        0.82520    0.98190    0.37070    1.000
    C76      C        0.82660    0.11030    0.25260    1.000
    H58      H        0.84980    0.12090    0.23370    1.000
    H59      H        0.85430    0.06140    0.29760    1.000
    H60      H        0.82240    0.17860    0.26900    1.000
    C77      C        0.37170    0.13880    0.12090    1.000
    H61      H        0.36810    0.12980    0.07650    1.000
    H62      H        0.34010    0.19550    0.10860    1.000
    H63      H        0.35880    0.07230    0.12990    1.000
    C78      C        0.36870    0.41120    0.12190    1.000
    H64      H        0.35730    0.48310    0.12610    1.000
    H65      H        0.33840    0.35990    0.11750    1.000
    H66      H        0.36170    0.40660    0.07490    1.000
    C79      C        0.72020    0.97990    0.26360    1.000
    C80      C        0.75180    0.06210    0.18390    1.000
    C81      C        0.44710    0.16810    0.19610    1.000
    C82      C        0.44610    0.38590    0.19710    1.000
    S23      S        0.75320    0.99630    0.30940    1.000
    S24      S        0.78760    0.09740    0.21410    1.000
    C83      C        0.67910    0.98260    0.15740    1.000
    C84      C        0.73980    0.02570    0.22660    1.000
    C85      C        0.57290    0.86130    0.10640    1.000
    H67      H        0.54620    0.85730    0.12130    1.000
    H68      H        0.58350    0.78940    0.10120    1.000
    H69      H        0.54540    0.89860    0.05580    1.000
    C86      C        0.60510    0.97050    0.00280    1.000
    H70      H        0.59790    0.01900    0.96490    1.000
    H71      H        0.56370    0.97110    0.99510    1.000
    H72      H        0.61290    0.89850    0.99440    1.000
    C87      C        0.64080    0.92140    0.17010    1.000
    C88      C        0.66850    0.00620    0.08680    1.000
    Tb5      Tb       0.12242    0.72394    0.87528    1.000
    S25      S        0.08050    0.34760    0.83140    1.000
    S26      S        0.08040    0.09460    0.82710    1.000
    S27      S        0.10070    0.60460    0.63710    1.000
    S28      S        0.13487    0.50060    0.54180    1.000
    O25      O        0.19120    0.60330    0.86300    1.000
    O26      O        0.09900    0.68670    0.75240    1.000
    O27      O        0.29150    0.32520    0.60240    1.000
    O28      O        0.18830    0.38580    0.48660    1.000
    O29      O        0.05020    0.57300    0.81480    1.000
    O30      O        0.05960    0.87210    0.79820    1.000
    C89      C        0.15230    0.62470    0.78930    1.000
    C90      C        0.16920    0.57780    0.74480    1.000
    C91      C        0.15110    0.53650    0.62680    1.000
    C92      C        0.21230    0.49370    0.69700    1.000
    C93      C        0.21940    0.43110    0.60650    1.000
    C94      C        0.23480    0.37700    0.56230    1.000
    C95      C        0.04310    0.22200    0.78990    1.000
    C96      C        0.97200    0.22350    0.72140    1.000
    C97      C        0.28290    0.47990    0.84890    1.000
    H73      H        0.27350    0.49270    0.88220    1.000
    H74      H        0.28940    0.40370    0.84760    1.000
    H75      H        0.32520    0.51810    0.87070    1.000
    C98      C        0.32660    0.38970    0.75260    1.000
    H76      H        0.34980    0.37910    0.73370    1.000
    H77      H        0.35430    0.43860    0.79760    1.000
    H78      H        0.32240    0.32140    0.76900    1.000
    C99      C        0.87170    0.36120    0.62090    1.000
    H79      H        0.86810    0.37020    0.57650    1.000
    H80      H        0.84010    0.30450    0.60860    1.000
    H81      H        0.85880    0.42770    0.62990    1.000
    C100     C        0.86870    0.08880    0.62190    1.000
    H82      H        0.85730    0.01690    0.62610    1.000
    H83      H        0.83840    0.14010    0.61750    1.000
    H84      H        0.86170    0.09340    0.57490    1.000
    C101     C        0.22020    0.52010    0.76360    1.000
    C102     C        0.25180    0.43790    0.68390    1.000
    C103     C        0.94710    0.33190    0.69610    1.000
    C104     C        0.94610    0.11410    0.69710    1.000
    S29      S        0.25320    0.50370    0.80940    1.000
    S30      S        0.28760    0.40260    0.71410    1.000
    C105     C        0.17910    0.51740    0.65740    1.000
    C106     C        0.23980    0.47430    0.72660    1.000
    C107     C        0.07290    0.63870    0.60640    1.000
    H85      H        0.04620    0.64270    0.62130    1.000
    H86      H        0.08350    0.71060    0.60120    1.000
    H87      H        0.04540    0.60140    0.55580    1.000
    C108     C        0.10510    0.52950    0.50280    1.000
    H88      H        0.09790    0.48100    0.46490    1.000
    H89      H        0.06370    0.52890    0.49510    1.000
    H90      H        0.11290    0.60150    0.49440    1.000
    C109     C        0.14080    0.57860    0.67010    1.000
    C110     C        0.16850    0.49380    0.58680    1.000
    Tb6      Tb       0.62242    0.22394    0.87528    1.000
    S31      S        0.58050    0.84760    0.83140    1.000
    S32      S        0.58040    0.59460    0.82710    1.000
    S33      S        0.60070    0.10460    0.63710    1.000
    S34      S        0.63487    0.00060    0.54180    1.000
    O31      O        0.69120    0.10330    0.86300    1.000
    O32      O        0.59900    0.18670    0.75240    1.000
    O33      O        0.79150    0.82520    0.60240    1.000
    O34      O        0.68830    0.88580    0.48660    1.000
    O35      O        0.55020    0.07300    0.81480    1.000
    O36      O        0.55960    0.37210    0.79820    1.000
    C111     C        0.65230    0.12470    0.78930    1.000
    C112     C        0.66920    0.07780    0.74480    1.000
    C113     C        0.65110    0.03650    0.62680    1.000
    C114     C        0.71230    0.99370    0.69700    1.000
    C115     C        0.71940    0.93110    0.60650    1.000
    C116     C        0.73480    0.87700    0.56230    1.000
    C117     C        0.54310    0.72200    0.78990    1.000
    C118     C        0.47200    0.72350    0.72140    1.000
    C119     C        0.78290    0.97990    0.84890    1.000
    H91      H        0.77350    0.99270    0.88220    1.000
    H92      H        0.78940    0.90370    0.84760    1.000
    H93      H        0.82520    0.01810    0.87070    1.000
    C120     C        0.82660    0.88970    0.75260    1.000
    H94      H        0.84980    0.87910    0.73370    1.000
    H95      H        0.85430    0.93860    0.79760    1.000
    H96      H        0.82240    0.82140    0.76900    1.000
    C121     C        0.37170    0.86120    0.62090    1.000
    H97      H        0.36810    0.87020    0.57650    1.000
    H98      H        0.34010    0.80450    0.60860    1.000
    H99      H        0.35880    0.92770    0.62990    1.000
    C122     C        0.36870    0.58880    0.62190    1.000
    H100     H        0.35730    0.51690    0.62610    1.000
    H101     H        0.33840    0.64010    0.61750    1.000
    H102     H        0.36170    0.59340    0.57490    1.000
    C123     C        0.72020    0.02010    0.76360    1.000
    C124     C        0.75180    0.93790    0.68390    1.000
    C125     C        0.44710    0.83190    0.69610    1.000
    C126     C        0.44610    0.61410    0.69710    1.000
    S35      S        0.75320    0.00370    0.80940    1.000
    S36      S        0.78760    0.90260    0.71410    1.000
    C127     C        0.67910    0.01740    0.65740    1.000
    C128     C        0.73980    0.97430    0.72660    1.000
    C129     C        0.57290    0.13870    0.60640    1.000
    H103     H        0.54620    0.14270    0.62130    1.000
    H104     H        0.58350    0.21060    0.60120    1.000
    H105     H        0.54540    0.10140    0.55580    1.000
    C130     C        0.60510    0.02950    0.50280    1.000
    H106     H        0.59790    0.98100    0.46490    1.000
    H107     H        0.56370    0.02890    0.49510    1.000
    H108     H        0.61290    0.10150    0.49440    1.000
    C131     C        0.64080    0.07860    0.67010    1.000
    C132     C        0.66850    0.99380    0.58680    1.000
    Tb7      Tb       0.87758    0.72394    0.62472    1.000
    S37      S        0.91950    0.34760    0.66860    1.000
    S38      S        0.91960    0.09460    0.67290    1.000
    S39      S        0.89930    0.60460    0.86290    1.000
    S40      S        0.86513    0.50060    0.95820    1.000
    O37      O        0.80880    0.60330    0.63700    1.000
    O38      O        0.90100    0.68670    0.74760    1.000
    O39      O        0.70850    0.32520    0.89760    1.000
    O40      O        0.81170    0.38580    0.01340    1.000
    O41      O        0.94980    0.57300    0.68520    1.000
    O42      O        0.94040    0.87210    0.70180    1.000
    C133     C        0.84770    0.62470    0.71070    1.000
    C134     C        0.83080    0.57780    0.75520    1.000
    C135     C        0.84890    0.53650    0.87320    1.000
    C136     C        0.78770    0.49370    0.80300    1.000
    C137     C        0.78060    0.43110    0.89350    1.000
    C138     C        0.76520    0.37700    0.93770    1.000
    C139     C        0.95690    0.22200    0.71010    1.000
    C140     C        0.02800    0.22350    0.77860    1.000
    C141     C        0.71710    0.47990    0.65110    1.000
    H109     H        0.72650    0.49270    0.61780    1.000
    H110     H        0.71060    0.40370    0.65240    1.000
    H111     H        0.67480    0.51810    0.62930    1.000
    C142     C        0.67340    0.38970    0.74740    1.000
    H112     H        0.65020    0.37910    0.76630    1.000
    H113     H        0.64570    0.43860    0.70240    1.000
    H114     H        0.67760    0.32140    0.73100    1.000
    C143     C        0.12830    0.36120    0.87910    1.000
    H115     H        0.13190    0.37020    0.92350    1.000
    H116     H        0.15990    0.30450    0.89140    1.000
    H117     H        0.14120    0.42770    0.87010    1.000
    C144     C        0.13130    0.08880    0.87810    1.000
    H118     H        0.14270    0.01690    0.87390    1.000
    H119     H        0.16160    0.14010    0.88250    1.000
    H120     H        0.13830    0.09340    0.92510    1.000
    C145     C        0.77980    0.52010    0.73640    1.000
    C146     C        0.74820    0.43790    0.81610    1.000
    C147     C        0.05290    0.33190    0.80390    1.000
    C148     C        0.05390    0.11410    0.80290    1.000
    S41      S        0.74680    0.50370    0.69060    1.000
    S42      S        0.71240    0.40260    0.78590    1.000
    C149     C        0.82090    0.51740    0.84260    1.000
    C150     C        0.76020    0.47430    0.77340    1.000
    C151     C        0.92710    0.63870    0.89360    1.000
    H121     H        0.95380    0.64270    0.87870    1.000
    H122     H        0.91650    0.71060    0.89880    1.000
    H123     H        0.95460    0.60140    0.94420    1.000
    C152     C        0.89490    0.52950    0.99720    1.000
    H124     H        0.90210    0.48100    0.03510    1.000
    H125     H        0.93630    0.52890    0.00490    1.000
    H126     H        0.88710    0.60150    0.00560    1.000
    C153     C        0.85920    0.57860    0.82990    1.000
    C154     C        0.83150    0.49380    0.91320    1.000
    Tb8      Tb       0.37758    0.22394    0.62472    1.000
    S43      S        0.41950    0.84760    0.66860    1.000
    S44      S        0.41960    0.59460    0.67290    1.000
    S45      S        0.39930    0.10460    0.86290    1.000
    S46      S        0.36513    0.00060    0.95820    1.000
    O43      O        0.30880    0.10330    0.63700    1.000
    O44      O        0.40100    0.18670    0.74760    1.000
    O45      O        0.20850    0.82520    0.89760    1.000
    O46      O        0.31170    0.88580    0.01340    1.000
    O47      O        0.44980    0.07300    0.68520    1.000
    O48      O        0.44040    0.37210    0.70180    1.000
    C155     C        0.34770    0.12470    0.71070    1.000
    C156     C        0.33080    0.07780    0.75520    1.000
    C157     C        0.34890    0.03650    0.87320    1.000
    C158     C        0.28770    0.99370    0.80300    1.000
    C159     C        0.28060    0.93110    0.89350    1.000
    C160     C        0.26520    0.87700    0.93770    1.000
    C161     C        0.45690    0.72200    0.71010    1.000
    C162     C        0.52800    0.72350    0.77860    1.000
    C163     C        0.21710    0.97990    0.65110    1.000
    H127     H        0.22650    0.99270    0.61780    1.000
    H128     H        0.21060    0.90370    0.65240    1.000
    H129     H        0.17480    0.01810    0.62930    1.000
    C164     C        0.17340    0.88970    0.74740    1.000
    H130     H        0.15020    0.87910    0.76630    1.000
    H131     H        0.14570    0.93860    0.70240    1.000
    H132     H        0.17760    0.82140    0.73100    1.000
    C165     C        0.62830    0.86120    0.87910    1.000
    H133     H        0.63190    0.87020    0.92350    1.000
    H134     H        0.65990    0.80450    0.89140    1.000
    H135     H        0.64120    0.92770    0.87010    1.000
    C166     C        0.63130    0.58880    0.87810    1.000
    H136     H        0.64270    0.51690    0.87390    1.000
    H137     H        0.66160    0.64010    0.88250    1.000
    H138     H        0.63830    0.59340    0.92510    1.000
    C167     C        0.27980    0.02010    0.73640    1.000
    C168     C        0.24820    0.93790    0.81610    1.000
    C169     C        0.55290    0.83190    0.80390    1.000
    C170     C        0.55390    0.61410    0.80290    1.000
    S47      S        0.24680    0.00370    0.69060    1.000
    S48      S        0.21240    0.90260    0.78590    1.000
    C171     C        0.32090    0.01740    0.84260    1.000
    C172     C        0.26020    0.97430    0.77340    1.000
    C173     C        0.42710    0.13870    0.89360    1.000
    H139     H        0.45380    0.14270    0.87870    1.000
    H140     H        0.41650    0.21060    0.89880    1.000
    H141     H        0.45460    0.10140    0.94420    1.000
    C174     C        0.39490    0.02950    0.99720    1.000
    H142     H        0.40210    0.98100    0.03510    1.000
    H143     H        0.43630    0.02890    0.00490    1.000
    H144     H        0.38710    0.10150    0.00560    1.000
    C175     C        0.35920    0.07860    0.82990    1.000
    C176     C        0.33150    0.99380    0.91320    1.000
    C177     C        0.00000    0.47280    0.25000    1.000
    C178     C        0.00000    0.59350    0.25000    1.000
    C179     C        0.00000    0.08140    0.25000    1.000
    C180     C        0.00000    0.96180    0.25000    1.000
    C181     C        0.50000    0.97280    0.25000    1.000
    C182     C        0.50000    0.09350    0.25000    1.000
    C183     C        0.50000    0.58140    0.25000    1.000
    C184     C        0.50000    0.46180    0.25000    1.000
    C185     C        0.00000    0.52720    0.75000    1.000
    C186     C        0.00000    0.40650    0.75000    1.000
    C187     C        0.00000    0.91860    0.75000    1.000
    C188     C        0.00000    0.03820    0.75000    1.000
    C189     C        0.50000    0.02720    0.75000    1.000
    C190     C        0.50000    0.90650    0.75000    1.000
    C191     C        0.50000    0.41860    0.75000    1.000
    C192     C        0.50000    0.53820    0.75000    1.000
