# CIF file generated by openbabel 3.1.0, see https://openbabel.org
data_I
_chemical_name_common 'image0'
_cell_length_a 26.238
_cell_length_b 14.1876
_cell_length_c 16.8586
_cell_angle_alpha 90
_cell_angle_beta 98.014
_cell_angle_gamma 90
_space_group_name_H-M_alt 'P 1'
_space_group_name_Hall 'P 1'
loop_
    _symmetry_equiv_pos_as_xyz
    x,y,z
loop_
    _atom_site_label
    _atom_site_type_symbol
    _atom_site_fract_x
    _atom_site_fract_y
    _atom_site_fract_z
    _atom_site_occupancy
    C1       C        0.66110    0.88390    0.30760    1.000
    C2       C        0.60680    0.91310    0.31860    1.000
    C3       C        0.58690    0.88100    0.38200    1.000
    C4       C        0.51080    0.97340    0.33440    1.000
    C5       C        0.52150    0.95900    0.26620    1.000
    C6       C        0.56750    0.92800    0.25900    1.000
    C7       C        0.46030    0.01690    0.34310    1.000
    C8       C        0.43440    0.97000    0.39590    1.000
    C9       C        0.39320    0.02910    0.41550    1.000
    C10      C        0.36950    0.09800    0.36670    1.000
    C11      C        0.39390    0.12740    0.30350    1.000
    C12      C        0.32110    0.14730    0.38460    1.000
    C13      C        0.17090    0.18650    0.34210    1.000
    C14      C        0.12390    0.12990    0.34010    1.000
    C15      C        0.11450    0.07890    0.40820    1.000
    C16      C        0.03470    0.02850    0.33620    1.000
    C17      C        0.05220    0.04500    0.26640    1.000
    C18      C        0.09320    0.10300    0.26960    1.000
    C19      C        0.98480    0.98240    0.33730    1.000
    C20      C        0.93010    0.88670    0.40260    1.000
    C21      C        0.89000    0.90440    0.34450    1.000
    C22      C        0.89450    0.98400    0.28400    1.000
    C23      C        0.94270    0.02000    0.28340    1.000
    C24      C        0.83610    0.87460    0.35190    1.000
    C25      C        0.17420    0.38760    0.45780    1.000
    C26      C        0.12310    0.42200    0.47420    1.000
    C27      C        0.09990    0.38550    0.53630    1.000
    C28      C        0.02620    0.48240    0.49640    1.000
    C29      C        0.04910    0.52100    0.43630    1.000
    C30      C        0.09610    0.48880    0.42670    1.000
    C31      C        0.33170    0.34150    0.50250    1.000
    C32      C        0.38540    0.37500    0.50690    1.000
    C33      C        0.40100    0.41600    0.43580    1.000
    C34      C        0.47800    0.46200    0.50320    1.000
    C35      C        0.46870    0.41800    0.57010    1.000
    C36      C        0.42020    0.37800    0.57600    1.000
    O1       O        0.69300    0.87890    0.36910    1.000
    O2       O        0.67260    0.87530    0.23960    1.000
    O3       O        0.24890    0.28220    0.67250    1.000
    O4       O        0.29640    0.19390    0.32840    1.000
    O5       O        0.30080    0.34280    0.44070    1.000
    O6       O        0.17880    0.22780    0.27880    1.000
    O7       O        0.18650    0.40030    0.38920    1.000
    O8       O        0.80120    0.89840    0.29750    1.000
    O9       O        0.30860    0.12200    0.45180    1.000
    O10      O        0.83090    0.82640    0.41270    1.000
    O11      O        0.20210    0.34610    0.51620    1.000
    O12      O        0.20150    0.19810    0.40680    1.000
    O13      O        0.32260    0.30150    0.56550    1.000
    N1       N        0.53640    0.90700    0.39000    1.000
    N2       N        0.43410    0.05500    0.28600    1.000
    N3       N        0.06970    0.02780    0.40520    1.000
    N4       N        0.97810    0.92580    0.39950    1.000
    N5       N        0.05130    0.41580    0.54940    1.000
    N6       N        0.44710    0.44000    0.43290    1.000
    Eu1      Eu       0.25030    0.33684    0.31352    1.000
    Eu2      Eu       0.24931    0.20146    0.53679    1.000
    C37      C        0.46650    0.50800    0.23220    1.000
    C38      C        0.41980    0.47700    0.23930    1.000
    C39      C        0.04000    0.09000    0.27280    1.000
    C40      C        0.08360    0.14800    0.27390    1.000
    C41      C        0.09580    0.05800    0.72540    1.000
    C42      C        0.04710    0.02400    0.72880    1.000
    C43      C        0.46650    0.50900    0.50380    1.000
    C44      C        0.45730    0.47100    0.57300    1.000
    C45      C        0.41200    0.42500    0.57000    1.000
    N7       N        0.45770    0.44800    0.09600    1.000
    N8       N        0.44230    0.10100    0.29330    1.000
    N9       N        0.43560    0.49300    0.43680    1.000
    C46      C        0.38800    0.45800    0.43930    1.000
    C47      C        0.44070    0.00700    0.41230    1.000
    C48      C        0.40580    0.41800    0.10000    1.000
    O14      O        0.31170    0.15800    0.45620    1.000
    C49      C        0.37790    0.42100    0.50300    1.000
    C50      C        0.33890    0.38390    0.19240    1.000
    C51      C        0.39320    0.41310    0.18140    1.000
    C52      C        0.41310    0.38100    0.11800    1.000
    C53      C        0.48920    0.47340    0.16560    1.000
    C54      C        0.47850    0.45900    0.23380    1.000
    C55      C        0.43250    0.42800    0.24100    1.000
    C56      C        0.53970    0.51690    0.15690    1.000
    C57      C        0.56560    0.47000    0.10410    1.000
    C58      C        0.60680    0.52910    0.08450    1.000
    C59      C        0.63050    0.59800    0.13330    1.000
    C60      C        0.60610    0.62740    0.19650    1.000
    C61      C        0.67890    0.64730    0.11540    1.000
    C62      C        0.82910    0.68650    0.15790    1.000
    C63      C        0.87610    0.62990    0.15990    1.000
    C64      C        0.88550    0.57890    0.09180    1.000
    C65      C        0.96530    0.52850    0.16380    1.000
    C66      C        0.94780    0.54500    0.23360    1.000
    C67      C        0.90680    0.60300    0.23040    1.000
    C68      C        0.01520    0.48240    0.16270    1.000
    C69      C        0.06990    0.38670    0.09740    1.000
    C70      C        0.11000    0.40440    0.15550    1.000
    C71      C        0.10550    0.48400    0.21600    1.000
    C72      C        0.05730    0.52000    0.21660    1.000
    C73      C        0.16390    0.37460    0.14810    1.000
    C74      C        0.82580    0.88760    0.04220    1.000
    C75      C        0.87690    0.92200    0.02580    1.000
    C76      C        0.90010    0.88550    0.96370    1.000
    C77      C        0.97380    0.98240    0.00360    1.000
    C78      C        0.95090    0.02100    0.06370    1.000
    C79      C        0.90390    0.98880    0.07330    1.000
    C80      C        0.66830    0.84150    0.99750    1.000
    C81      C        0.61460    0.87500    0.99310    1.000
    C82      C        0.59900    0.91600    0.06420    1.000
    C83      C        0.52200    0.96200    0.99680    1.000
    C84      C        0.53130    0.91800    0.92990    1.000
    C85      C        0.57980    0.87800    0.92400    1.000
    O15      O        0.30700    0.37890    0.13090    1.000
    O16      O        0.32740    0.37530    0.26040    1.000
    O17      O        0.75110    0.78220    0.82750    1.000
    O18      O        0.70360    0.69390    0.17160    1.000
    O19      O        0.69920    0.84280    0.05930    1.000
    O20      O        0.82120    0.72780    0.22120    1.000
    O21      O        0.81350    0.90030    0.11080    1.000
    O22      O        0.19880    0.39840    0.20250    1.000
    O23      O        0.69140    0.62200    0.04820    1.000
    O24      O        0.16910    0.32640    0.08730    1.000
    O25      O        0.79790    0.84610    0.98380    1.000
    O26      O        0.79850    0.69810    0.09320    1.000
    O27      O        0.67740    0.80150    0.93450    1.000
    N10      N        0.46360    0.40700    0.11000    1.000
    N11      N        0.56590    0.55500    0.21400    1.000
    N12      N        0.93030    0.52780    0.09480    1.000
    N13      N        0.02190    0.42580    0.10050    1.000
    N14      N        0.94870    0.91580    0.95060    1.000
    N15      N        0.55290    0.94000    0.06710    1.000
    Eu3      Eu       0.74970    0.83684    0.18648    1.000
    Eu4      Eu       0.75069    0.70146    0.96321    1.000
    C86      C        0.53350    0.00800    0.26780    1.000
    C87      C        0.58020    0.97700    0.26070    1.000
    C88      C        0.96000    0.59000    0.22720    1.000
    C89      C        0.91640    0.64800    0.22610    1.000
    C90      C        0.90420    0.55800    0.77460    1.000
    C91      C        0.95290    0.52400    0.77120    1.000
    C92      C        0.53350    0.00900    0.99620    1.000
    C93      C        0.54270    0.97100    0.92700    1.000
    C94      C        0.58800    0.92500    0.93000    1.000
    N16      N        0.54230    0.94800    0.40400    1.000
    N17      N        0.55770    0.60100    0.20670    1.000
    N18      N        0.56440    0.99300    0.06320    1.000
    C95      C        0.61200    0.95800    0.06070    1.000
    C96      C        0.55930    0.50700    0.08770    1.000
    C97      C        0.59420    0.91800    0.40000    1.000
    O28      O        0.68830    0.65800    0.04380    1.000
    C98      C        0.62210    0.92100    0.99700    1.000
    C99      C        0.33890    0.11610    0.69240    1.000
    C100     C        0.39320    0.08690    0.68140    1.000
    C101     C        0.41310    0.11900    0.61800    1.000
    C102     C        0.48920    0.02660    0.66560    1.000
    C103     C        0.47850    0.04100    0.73380    1.000
    C104     C        0.43250    0.07200    0.74100    1.000
    C105     C        0.53970    0.98310    0.65690    1.000
    C106     C        0.56560    0.03000    0.60410    1.000
    C107     C        0.60680    0.97090    0.58450    1.000
    C108     C        0.63050    0.90200    0.63330    1.000
    C109     C        0.60610    0.87260    0.69650    1.000
    C110     C        0.67890    0.85270    0.61540    1.000
    C111     C        0.82910    0.81350    0.65790    1.000
    C112     C        0.87610    0.87010    0.65990    1.000
    C113     C        0.88550    0.92110    0.59180    1.000
    C114     C        0.96530    0.97150    0.66380    1.000
    C115     C        0.94780    0.95500    0.73360    1.000
    C116     C        0.90680    0.89700    0.73040    1.000
    C117     C        0.01520    0.01760    0.66270    1.000
    C118     C        0.06990    0.11330    0.59740    1.000
    C119     C        0.11000    0.09560    0.65550    1.000
    C120     C        0.10550    0.01600    0.71600    1.000
    C121     C        0.05730    0.98000    0.71660    1.000
    C122     C        0.16390    0.12540    0.64810    1.000
    C123     C        0.82580    0.61240    0.54220    1.000
    C124     C        0.87690    0.57800    0.52580    1.000
    C125     C        0.90010    0.61450    0.46370    1.000
    C126     C        0.97380    0.51760    0.50360    1.000
    C127     C        0.95090    0.47900    0.56370    1.000
    C128     C        0.90390    0.51120    0.57330    1.000
    C129     C        0.66830    0.65850    0.49750    1.000
    C130     C        0.61460    0.62500    0.49310    1.000
    C131     C        0.59900    0.58400    0.56420    1.000
    C132     C        0.52200    0.53800    0.49680    1.000
    C133     C        0.53130    0.58200    0.42990    1.000
    C134     C        0.57980    0.62200    0.42400    1.000
    O29      O        0.30700    0.12110    0.63090    1.000
    O30      O        0.32740    0.12470    0.76040    1.000
    O31      O        0.75110    0.71780    0.32750    1.000
    O32      O        0.70360    0.80610    0.67160    1.000
    O33      O        0.69920    0.65720    0.55930    1.000
    O34      O        0.82120    0.77220    0.72120    1.000
    O35      O        0.81350    0.59970    0.61080    1.000
    O36      O        0.19880    0.10160    0.70250    1.000
    O37      O        0.69140    0.87800    0.54820    1.000
    O38      O        0.16910    0.17360    0.58730    1.000
    O39      O        0.79790    0.65390    0.48380    1.000
    O40      O        0.79850    0.80190    0.59320    1.000
    O41      O        0.67740    0.69850    0.43450    1.000
    N19      N        0.46360    0.09300    0.61000    1.000
    N20      N        0.56590    0.94500    0.71400    1.000
    N21      N        0.93030    0.97220    0.59480    1.000
    N22      N        0.02190    0.07420    0.60050    1.000
    N23      N        0.94870    0.58420    0.45060    1.000
    N24      N        0.55290    0.56000    0.56710    1.000
    Eu5      Eu       0.74970    0.66316    0.68648    1.000
    Eu6      Eu       0.75069    0.79854    0.46321    1.000
    C135     C        0.53350    0.49200    0.76780    1.000
    C136     C        0.58020    0.52300    0.76070    1.000
    C137     C        0.96000    0.91000    0.72720    1.000
    C138     C        0.91640    0.85200    0.72610    1.000
    C139     C        0.90420    0.94200    0.27460    1.000
    C140     C        0.95290    0.97600    0.27120    1.000
    C141     C        0.53350    0.49100    0.49620    1.000
    C142     C        0.54270    0.52900    0.42700    1.000
    C143     C        0.58800    0.57500    0.43000    1.000
    N25      N        0.54230    0.55200    0.90400    1.000
    N26      N        0.55770    0.89900    0.70670    1.000
    N27      N        0.56440    0.50700    0.56320    1.000
    C144     C        0.61200    0.54200    0.56070    1.000
    C145     C        0.55930    0.99300    0.58770    1.000
    C146     C        0.59420    0.58200    0.90000    1.000
    O42      O        0.68830    0.84200    0.54380    1.000
    C147     C        0.62210    0.57900    0.49700    1.000
    C148     C        0.66110    0.61610    0.80760    1.000
    C149     C        0.60680    0.58690    0.81860    1.000
    C150     C        0.58690    0.61900    0.88200    1.000
    C151     C        0.51080    0.52660    0.83440    1.000
    C152     C        0.52150    0.54100    0.76620    1.000
    C153     C        0.56750    0.57200    0.75900    1.000
    C154     C        0.46030    0.48310    0.84310    1.000
    C155     C        0.43440    0.53000    0.89590    1.000
    C156     C        0.39320    0.47090    0.91550    1.000
    C157     C        0.36950    0.40200    0.86670    1.000
    C158     C        0.39390    0.37260    0.80350    1.000
    C159     C        0.32110    0.35270    0.88460    1.000
    C160     C        0.17090    0.31350    0.84210    1.000
    C161     C        0.12390    0.37010    0.84010    1.000
    C162     C        0.11450    0.42110    0.90820    1.000
    C163     C        0.03470    0.47150    0.83620    1.000
    C164     C        0.05220    0.45500    0.76640    1.000
    C165     C        0.09320    0.39700    0.76960    1.000
    C166     C        0.98480    0.51760    0.83730    1.000
    C167     C        0.93010    0.61330    0.90260    1.000
    C168     C        0.89000    0.59560    0.84450    1.000
    C169     C        0.89450    0.51600    0.78400    1.000
    C170     C        0.94270    0.48000    0.78340    1.000
    C171     C        0.83610    0.62540    0.85190    1.000
    C172     C        0.17420    0.11240    0.95780    1.000
    C173     C        0.12310    0.07800    0.97420    1.000
    C174     C        0.09990    0.11450    0.03630    1.000
    C175     C        0.02620    0.01760    0.99640    1.000
    C176     C        0.04910    0.97900    0.93630    1.000
    C177     C        0.09610    0.01120    0.92670    1.000
    C178     C        0.33170    0.15850    0.00250    1.000
    C179     C        0.38540    0.12500    0.00690    1.000
    C180     C        0.40100    0.08400    0.93580    1.000
    C181     C        0.47800    0.03800    0.00320    1.000
    C182     C        0.46870    0.08200    0.07010    1.000
    C183     C        0.42020    0.12200    0.07600    1.000
    O43      O        0.69300    0.62110    0.86910    1.000
    O44      O        0.67260    0.62470    0.73960    1.000
    O45      O        0.24890    0.21780    0.17250    1.000
    O46      O        0.29640    0.30610    0.82840    1.000
    O47      O        0.30080    0.15720    0.94070    1.000
    O48      O        0.17880    0.27220    0.77880    1.000
    O49      O        0.18650    0.09970    0.88920    1.000
    O50      O        0.80120    0.60160    0.79750    1.000
    O51      O        0.30860    0.37800    0.95180    1.000
    O52      O        0.83090    0.67360    0.91270    1.000
    O53      O        0.20210    0.15390    0.01620    1.000
    O54      O        0.20150    0.30190    0.90680    1.000
    O55      O        0.32260    0.19850    0.06550    1.000
    N28      N        0.53640    0.59300    0.89000    1.000
    N29      N        0.43410    0.44500    0.78600    1.000
    N30      N        0.06970    0.47220    0.90520    1.000
    N31      N        0.97810    0.57420    0.89950    1.000
    N32      N        0.05130    0.08420    0.04940    1.000
    N33      N        0.44710    0.06000    0.93290    1.000
    Eu7      Eu       0.25030    0.16316    0.81352    1.000
    Eu8      Eu       0.24931    0.29854    0.03679    1.000
    C184     C        0.46650    0.99200    0.73220    1.000
    C185     C        0.41980    0.02300    0.73930    1.000
    C186     C        0.04000    0.41000    0.77280    1.000
    C187     C        0.08360    0.35200    0.77390    1.000
    C188     C        0.09580    0.44200    0.22540    1.000
    C189     C        0.04710    0.47600    0.22880    1.000
    C190     C        0.46650    0.99100    0.00380    1.000
    C191     C        0.45730    0.02900    0.07300    1.000
    C192     C        0.41200    0.07500    0.07000    1.000
    N34      N        0.45770    0.05200    0.59600    1.000
    N35      N        0.44230    0.39900    0.79330    1.000
    N36      N        0.43560    0.00700    0.93680    1.000
    C193     C        0.38800    0.04200    0.93930    1.000
    C194     C        0.44070    0.49300    0.91230    1.000
    C195     C        0.40580    0.08200    0.60000    1.000
    O56      O        0.31170    0.34200    0.95620    1.000
    C196     C        0.37790    0.07900    0.00300    1.000
