# CIF file generated by openbabel 3.1.0, see https://openbabel.org
data_I
_chemical_name_common 'image0'
_cell_length_a 15.414
_cell_length_b 11.877
_cell_length_c 24.154
_cell_angle_alpha 90
_cell_angle_beta 90
_cell_angle_gamma 90
_space_group_name_H-M_alt 'P 1'
_space_group_name_Hall 'P 1'
loop_
    _symmetry_equiv_pos_as_xyz
    x,y,z
loop_
    _atom_site_label
    _atom_site_type_symbol
    _atom_site_fract_x
    _atom_site_fract_y
    _atom_site_fract_z
    _atom_site_occupancy
    Co1      Co       0.55003    0.35951    0.62469    1.000
    O1       O        0.42830    0.54630    0.56845    1.000
    O2       O        0.46910    0.48100    0.65159    1.000
    O3       O        0.35600    0.90150    0.79954    1.000
    O4       O        0.44580    0.75960    0.80559    1.000
    O5       O        0.39440    0.54740    0.44396    1.000
    O6       O        0.33340    0.70130    0.41325    1.000
    O7       O        0.05580    0.84160    0.50050    1.000
    O8       O        0.02880    0.75840    0.58232    1.000
    C1       C        0.38190    0.64550    0.64770    1.000
    C2       C        0.40200    0.68080    0.70000    1.000
    H1       H        0.44330    0.64150    0.72030    1.000
    C3       C        0.36220    0.77400    0.72350    1.000
    C4       C        0.29950    0.83010    0.69350    1.000
    H2       H        0.27260    0.89310    0.70860    1.000
    C5       C        0.27610    0.79360    0.64120    1.000
    H3       H        0.23280    0.83100    0.62170    1.000
    C6       C        0.31690    0.70200    0.61790    1.000
    H4       H        0.30150    0.67770    0.58260    1.000
    C7       C        0.42980    0.55010    0.62020    1.000
    C8       C        0.38940    0.81540    0.77950    1.000
    C9       C        0.25450    0.59780    0.47960    1.000
    C10      C        0.19560    0.68310    0.48780    1.000
    H5       H        0.20450    0.75230    0.47070    1.000
    C11      C        0.12300    0.66800    0.52110    1.000
    C12      C        0.10760    0.56160    0.54240    1.000
    H6       H        0.05810    0.54860    0.56350    1.000
    C13      C        0.16490    0.47500    0.53260    1.000
    H7       H        0.15360    0.40370    0.54670    1.000
    C14      C        0.23960    0.49350    0.50180    1.000
    H8       H        0.27910    0.43550    0.49620    1.000
    C15      C        0.33120    0.61810    0.44450    1.000
    C16      C        0.06260    0.76320    0.53470    1.000
    Co2      Co       0.94997    0.64049    0.12469    1.000
    O9       O        0.07170    0.45370    0.06845    1.000
    O10      O        0.03090    0.51900    0.15159    1.000
    O11      O        0.14400    0.09850    0.29954    1.000
    O12      O        0.05420    0.24040    0.30559    1.000
    O13      O        0.10560    0.45260    0.94396    1.000
    O14      O        0.16660    0.29870    0.91325    1.000
    O15      O        0.44420    0.15840    0.00050    1.000
    O16      O        0.47120    0.24160    0.08232    1.000
    C17      C        0.11810    0.35450    0.14770    1.000
    C18      C        0.09800    0.31920    0.20000    1.000
    H9       H        0.05670    0.35850    0.22030    1.000
    C19      C        0.13780    0.22600    0.22350    1.000
    C20      C        0.20050    0.16990    0.19350    1.000
    H10      H        0.22740    0.10690    0.20860    1.000
    C21      C        0.22390    0.20640    0.14120    1.000
    H11      H        0.26720    0.16900    0.12170    1.000
    C22      C        0.18310    0.29800    0.11790    1.000
    H12      H        0.19850    0.32230    0.08260    1.000
    C23      C        0.07020    0.44990    0.12020    1.000
    C24      C        0.11060    0.18460    0.27950    1.000
    C25      C        0.24550    0.40220    0.97960    1.000
    C26      C        0.30440    0.31690    0.98780    1.000
    H13      H        0.29550    0.24770    0.97070    1.000
    C27      C        0.37700    0.33200    0.02110    1.000
    C28      C        0.39240    0.43840    0.04240    1.000
    H14      H        0.44190    0.45140    0.06350    1.000
    C29      C        0.33510    0.52500    0.03260    1.000
    H15      H        0.34640    0.59630    0.04670    1.000
    C30      C        0.26040    0.50650    0.00180    1.000
    H16      H        0.22090    0.56450    0.99620    1.000
    C31      C        0.16880    0.38190    0.94450    1.000
    C32      C        0.43740    0.23680    0.03470    1.000
    Co3      Co       0.44997    0.85951    0.87531    1.000
    O17      O        0.57170    0.04630    0.93155    1.000
    O18      O        0.53090    0.98100    0.84841    1.000
    O19      O        0.64400    0.40150    0.70046    1.000
    O20      O        0.55420    0.25960    0.69441    1.000
    O21      O        0.60560    0.04740    0.05604    1.000
    O22      O        0.66660    0.20130    0.08675    1.000
    O23      O        0.94420    0.34160    0.99950    1.000
    O24      O        0.97120    0.25840    0.91768    1.000
    C33      C        0.61810    0.14550    0.85230    1.000
    C34      C        0.59800    0.18080    0.80000    1.000
    H17      H        0.55670    0.14150    0.77970    1.000
    C35      C        0.63780    0.27400    0.77650    1.000
    C36      C        0.70050    0.33010    0.80650    1.000
    H18      H        0.72740    0.39310    0.79140    1.000
    C37      C        0.72390    0.29360    0.85880    1.000
    H19      H        0.76720    0.33100    0.87830    1.000
    C38      C        0.68310    0.20200    0.88210    1.000
    H20      H        0.69850    0.17770    0.91740    1.000
    C39      C        0.57020    0.05010    0.87980    1.000
    C40      C        0.61060    0.31540    0.72050    1.000
    C41      C        0.74550    0.09780    0.02040    1.000
    C42      C        0.80440    0.18310    0.01220    1.000
    H21      H        0.79550    0.25230    0.02930    1.000
    C43      C        0.87700    0.16800    0.97890    1.000
    C44      C        0.89240    0.06160    0.95760    1.000
    H22      H        0.94190    0.04860    0.93650    1.000
    C45      C        0.83510    0.97500    0.96740    1.000
    H23      H        0.84640    0.90370    0.95330    1.000
    C46      C        0.76040    0.99350    0.99820    1.000
    H24      H        0.72090    0.93550    0.00380    1.000
    C47      C        0.66880    0.11810    0.05550    1.000
    C48      C        0.93740    0.26320    0.96530    1.000
    Co4      Co       0.05003    0.14049    0.37531    1.000
    O25      O        0.92830    0.95370    0.43155    1.000
    O26      O        0.96910    0.01900    0.34841    1.000
    O27      O        0.85600    0.59850    0.20046    1.000
    O28      O        0.94580    0.74040    0.19441    1.000
    O29      O        0.89440    0.95260    0.55604    1.000
    O30      O        0.83340    0.79870    0.58675    1.000
    O31      O        0.55580    0.65840    0.49950    1.000
    O32      O        0.52880    0.74160    0.41768    1.000
    C49      C        0.88190    0.85450    0.35230    1.000
    C50      C        0.90200    0.81920    0.30000    1.000
    H25      H        0.94330    0.85850    0.27970    1.000
    C51      C        0.86220    0.72600    0.27650    1.000
    C52      C        0.79950    0.66990    0.30650    1.000
    H26      H        0.77260    0.60690    0.29140    1.000
    C53      C        0.77610    0.70640    0.35880    1.000
    H27      H        0.73280    0.66900    0.37830    1.000
    C54      C        0.81690    0.79800    0.38210    1.000
    H28      H        0.80150    0.82230    0.41740    1.000
    C55      C        0.92980    0.94990    0.37980    1.000
    C56      C        0.88940    0.68460    0.22050    1.000
    C57      C        0.75450    0.90220    0.52040    1.000
    C58      C        0.69560    0.81690    0.51220    1.000
    H29      H        0.70450    0.74770    0.52930    1.000
    C59      C        0.62300    0.83200    0.47890    1.000
    C60      C        0.60760    0.93840    0.45760    1.000
    H30      H        0.55810    0.95140    0.43650    1.000
    C61      C        0.66490    0.02500    0.46740    1.000
    H31      H        0.65360    0.09630    0.45330    1.000
    C62      C        0.73960    0.00650    0.49820    1.000
    H32      H        0.77910    0.06450    0.50380    1.000
    C63      C        0.83120    0.88190    0.55550    1.000
    C64      C        0.56260    0.73680    0.46530    1.000
    Co5      Co       0.44997    0.64049    0.37531    1.000
    O33      O        0.57170    0.45370    0.43155    1.000
    O34      O        0.53090    0.51900    0.34841    1.000
    O35      O        0.64400    0.09850    0.20046    1.000
    O36      O        0.55420    0.24040    0.19441    1.000
    O37      O        0.60560    0.45260    0.55604    1.000
    O38      O        0.66660    0.29870    0.58675    1.000
    O39      O        0.94420    0.15840    0.49950    1.000
    O40      O        0.97120    0.24160    0.41768    1.000
    C65      C        0.61810    0.35450    0.35230    1.000
    C66      C        0.59800    0.31920    0.30000    1.000
    H33      H        0.55670    0.35850    0.27970    1.000
    C67      C        0.63780    0.22600    0.27650    1.000
    C68      C        0.70050    0.16990    0.30650    1.000
    H34      H        0.72740    0.10690    0.29140    1.000
    C69      C        0.72390    0.20640    0.35880    1.000
    H35      H        0.76720    0.16900    0.37830    1.000
    C70      C        0.68310    0.29800    0.38210    1.000
    H36      H        0.69850    0.32230    0.41740    1.000
    C71      C        0.57020    0.44990    0.37980    1.000
    C72      C        0.61060    0.18460    0.22050    1.000
    C73      C        0.74550    0.40220    0.52040    1.000
    C74      C        0.80440    0.31690    0.51220    1.000
    H37      H        0.79550    0.24770    0.52930    1.000
    C75      C        0.87700    0.33200    0.47890    1.000
    C76      C        0.89240    0.43840    0.45760    1.000
    H38      H        0.94190    0.45140    0.43650    1.000
    C77      C        0.83510    0.52500    0.46740    1.000
    H39      H        0.84640    0.59630    0.45330    1.000
    C78      C        0.76040    0.50650    0.49820    1.000
    H40      H        0.72090    0.56450    0.50380    1.000
    C79      C        0.66880    0.38190    0.55550    1.000
    C80      C        0.93740    0.23680    0.46530    1.000
    Co6      Co       0.05003    0.35951    0.87531    1.000
    O41      O        0.92830    0.54630    0.93155    1.000
    O42      O        0.96910    0.48100    0.84841    1.000
    O43      O        0.85600    0.90150    0.70046    1.000
    O44      O        0.94580    0.75960    0.69441    1.000
    O45      O        0.89440    0.54740    0.05604    1.000
    O46      O        0.83340    0.70130    0.08675    1.000
    O47      O        0.55580    0.84160    0.99950    1.000
    O48      O        0.52880    0.75840    0.91768    1.000
    C81      C        0.88190    0.64550    0.85230    1.000
    C82      C        0.90200    0.68080    0.80000    1.000
    H41      H        0.94330    0.64150    0.77970    1.000
    C83      C        0.86220    0.77400    0.77650    1.000
    C84      C        0.79950    0.83010    0.80650    1.000
    H42      H        0.77260    0.89310    0.79140    1.000
    C85      C        0.77610    0.79360    0.85880    1.000
    H43      H        0.73280    0.83100    0.87830    1.000
    C86      C        0.81690    0.70200    0.88210    1.000
    H44      H        0.80150    0.67770    0.91740    1.000
    C87      C        0.92980    0.55010    0.87980    1.000
    C88      C        0.88940    0.81540    0.72050    1.000
    C89      C        0.75450    0.59780    0.02040    1.000
    C90      C        0.69560    0.68310    0.01220    1.000
    H45      H        0.70450    0.75230    0.02930    1.000
    C91      C        0.62300    0.66800    0.97890    1.000
    C92      C        0.60760    0.56160    0.95760    1.000
    H46      H        0.55810    0.54860    0.93650    1.000
    C93      C        0.66490    0.47500    0.96740    1.000
    H47      H        0.65360    0.40370    0.95330    1.000
    C94      C        0.73960    0.49350    0.99820    1.000
    H48      H        0.77910    0.43550    0.00380    1.000
    C95      C        0.83120    0.61810    0.05550    1.000
    C96      C        0.56260    0.76320    0.96530    1.000
    Co7      Co       0.55003    0.14049    0.12469    1.000
    O49      O        0.42830    0.95370    0.06845    1.000
    O50      O        0.46910    0.01900    0.15159    1.000
    O51      O        0.35600    0.59850    0.29954    1.000
    O52      O        0.44580    0.74040    0.30559    1.000
    O53      O        0.39440    0.95260    0.94396    1.000
    O54      O        0.33340    0.79870    0.91325    1.000
    O55      O        0.05580    0.65840    0.00050    1.000
    O56      O        0.02880    0.74160    0.08232    1.000
    C97      C        0.38190    0.85450    0.14770    1.000
    C98      C        0.40200    0.81920    0.20000    1.000
    H49      H        0.44330    0.85850    0.22030    1.000
    C99      C        0.36220    0.72600    0.22350    1.000
    C100     C        0.29950    0.66990    0.19350    1.000
    H50      H        0.27260    0.60690    0.20860    1.000
    C101     C        0.27610    0.70640    0.14120    1.000
    H51      H        0.23280    0.66900    0.12170    1.000
    C102     C        0.31690    0.79800    0.11790    1.000
    H52      H        0.30150    0.82230    0.08260    1.000
    C103     C        0.42980    0.94990    0.12020    1.000
    C104     C        0.38940    0.68460    0.27950    1.000
    C105     C        0.25450    0.90220    0.97960    1.000
    C106     C        0.19560    0.81690    0.98780    1.000
    H53      H        0.20450    0.74770    0.97070    1.000
    C107     C        0.12300    0.83200    0.02110    1.000
    C108     C        0.10760    0.93840    0.04240    1.000
    H54      H        0.05810    0.95140    0.06350    1.000
    C109     C        0.16490    0.02500    0.03260    1.000
    H55      H        0.15360    0.09630    0.04670    1.000
    C110     C        0.23960    0.00650    0.00180    1.000
    H56      H        0.27910    0.06450    0.99620    1.000
    C111     C        0.33120    0.88190    0.94450    1.000
    C112     C        0.06260    0.73680    0.03470    1.000
    Co8      Co       0.94997    0.85951    0.62469    1.000
    O57      O        0.07170    0.04630    0.56845    1.000
    O58      O        0.03090    0.98100    0.65159    1.000
    O59      O        0.14400    0.40150    0.79954    1.000
    O60      O        0.05420    0.25960    0.80559    1.000
    O61      O        0.10560    0.04740    0.44396    1.000
    O62      O        0.16660    0.20130    0.41325    1.000
    O63      O        0.44420    0.34160    0.50050    1.000
    O64      O        0.47120    0.25840    0.58232    1.000
    C113     C        0.11810    0.14550    0.64770    1.000
    C114     C        0.09800    0.18080    0.70000    1.000
    H57      H        0.05670    0.14150    0.72030    1.000
    C115     C        0.13780    0.27400    0.72350    1.000
    C116     C        0.20050    0.33010    0.69350    1.000
    H58      H        0.22740    0.39310    0.70860    1.000
    C117     C        0.22390    0.29360    0.64120    1.000
    H59      H        0.26720    0.33100    0.62170    1.000
    C118     C        0.18310    0.20200    0.61790    1.000
    H60      H        0.19850    0.17770    0.58260    1.000
    C119     C        0.07020    0.05010    0.62020    1.000
    C120     C        0.11060    0.31540    0.77950    1.000
    C121     C        0.24550    0.09780    0.47960    1.000
    C122     C        0.30440    0.18310    0.48780    1.000
    H61      H        0.29550    0.25230    0.47070    1.000
    C123     C        0.37700    0.16800    0.52110    1.000
    C124     C        0.39240    0.06160    0.54240    1.000
    H62      H        0.44190    0.04860    0.56350    1.000
    C125     C        0.33510    0.97500    0.53260    1.000
    H63      H        0.34640    0.90370    0.54670    1.000
    C126     C        0.26040    0.99350    0.50180    1.000
    H64      H        0.22090    0.93550    0.49620    1.000
    C127     C        0.16880    0.11810    0.44450    1.000
    C128     C        0.43740    0.26320    0.53470    1.000
    Co9      Co       0.50000    0.50000    0.50000    1.000
    Co10     Co       0.00000    0.50000    0.00000    1.000
    Co11     Co       0.50000    0.00000    0.00000    1.000
    Co12     Co       0.00000    0.00000    0.50000    1.000
