data_functionalizedCrystal
_audit_creation_method	'EQeq! by Chris Wilmer'
_symmetry_space_group_name_H-M	'P1'
_symmetry_Int_Tables_number	1
_symmetry_cell_setting	triclinic
loop_
_symmetry_equiv_pos_as_xyz
  x,y,z
_cell_length_a	13.256
_cell_length_b	18.193
_cell_length_c	18.193
_cell_angle_alpha	90
_cell_angle_beta	90
_cell_angle_gamma	90
loop_
_atom_site_label
_atom_site_type_symbol
_atom_site_fract_x
_atom_site_fract_y
_atom_site_fract_z
_atom_site_charge
Mof_Cd	Cd	0.75	0.75	0.25	0.542
Mof_Cl	Cl	0.85835	0.85545	0.21367	-0.302
Mof_Cl	Cl	0.85835	0.64455	0.28633	-0.309
Mof_Cl	Cl	0.64165	0.71367	0.14455	-0.325
Mof_Cl	Cl	0.64165	0.78633	0.35545	-0.321
Mof_Cd	Cd	0.25	0.25	0.75	0.539
Mof_Cl	Cl	0.35835	0.28633	0.85545	-0.315
Mof_Cl	Cl	0.35835	0.21367	0.64455	-0.32
Mof_Cl	Cl	0.14165	0.14455	0.78633	-0.337
Mof_Cl	Cl	0.14165	0.35545	0.71367	-0.331
Mof_Cd	Cd	0.75	0.25	0.75	0.541
Mof_Cl	Cl	0.64165	0.14455	0.71367	-0.325
Mof_Cl	Cl	0.64165	0.35545	0.78633	-0.321
Mof_Cl	Cl	0.85835	0.28633	0.64455	-0.31
Mof_Cl	Cl	0.85835	0.21367	0.85545	-0.303
Mof_Cd	Cd	0.25	0.75	0.25	0.539
Mof_Cl	Cl	0.14165	0.71367	0.35545	-0.331
Mof_Cl	Cl	0.14165	0.78633	0.14455	-0.337
Mof_Cl	Cl	0.35835	0.85545	0.28633	-0.315
Mof_Cl	Cl	0.35835	0.64455	0.21367	-0.32
Mof_Cu	Cu	0.76728	0.98833	0.51167	0.896
Mof_Cu	Cu	0.76728	0.51167	0.98833	0.896
Mof_Cu	Cu	0.26728	0.98833	0.98833	0.906
Mof_Cu	Cu	0.26728	0.51167	0.51167	0.878
Mof_Cu	Cu	0.73272	0.01167	0.01167	0.846
Mof_Cu	Cu	0.73272	0.48833	0.48833	0.879
Mof_Cu	Cu	0.23272	0.01167	0.48833	0.861
Mof_Cu	Cu	0.23272	0.48833	0.01167	0.861
Mof_Cu	Cu	0.5	0	0.5	0.883
Mof_Cu	Cu	0.5	0.5	-0	0.883
Mof_Cu	Cu	-0	0	-0	0.842
Mof_Cu	Cu	1.40798e-32	0.5	0.5	0.884
Mof_H 	H 	0.4879	0.9803	0.3251	0.049
Mof_H 	H 	0.7904	0.9657	0.3302	0.032
Mof_H 	H 	0.5598	0.8707	0.205	0.051
Mof_H 	H 	0.7212	0.0567	0.1881	0.046
Mof_H 	H 	0.4879	0.5197	0.1749	0.039
Mof_H 	H 	0.7904	0.5343	0.1698	0.024
Mof_H 	H 	0.5598	0.6293	0.295	0.051
Mof_H 	H 	0.7212	0.4433	0.3119	0.025
Mof_H 	H 	0.9879	0.1749	0.9803	0.094
Mof_H 	H 	0.2904	0.1698	0.9657	0.027
Mof_H 	H 	0.0598	0.295	0.8707	0.042
Mof_H 	H 	0.2212	0.3119	0.0567	0.042
Mof_H 	H 	0.9879	0.3251	0.5197	0.087
Mof_H 	H 	0.2904	0.3302	0.5343	0.023
Mof_H 	H 	0.0598	0.205	0.6293	0.041
Mof_H 	H 	0.2212	0.1881	0.4433	0.022
Mof_H 	H 	0.0121	0.0197	0.8251	-0.012
Mof_H 	H 	0.7096	0.0343	0.8302	0.022
Mof_H 	H 	0.9402	0.1293	0.705	0.061
Mof_H 	H 	0.7788	0.9433	0.6881	0.013
Mof_H 	H 	0.0121	0.4803	0.6749	-0.005
Mof_H 	H 	0.7096	0.4657	0.6698	0.024
Mof_H 	H 	0.9402	0.3707	0.795	0.061
Mof_H 	H 	0.7788	0.5567	0.8119	0.03
Mof_H 	H 	0.5121	0.8251	0.4803	0.041
Mof_H 	H 	0.2096	0.8302	0.4657	0.023
Mof_H 	H 	0.4402	0.705	0.3707	0.051
Mof_H 	H 	0.2788	0.6881	0.5567	0.027
Mof_H 	H 	0.5121	0.6749	0.0197	0.033
Mof_H 	H 	0.2096	0.6698	0.0343	0.015
Mof_H 	H 	0.4402	0.795	0.1293	0.052
Mof_H 	H 	0.2788	0.8119	0.9433	0.01
Mof_H 	H 	0.5121	0.0197	0.6749	0.033
Mof_H 	H 	0.2096	0.0343	0.6698	0.015
Mof_H 	H 	0.4402	0.1293	0.795	0.052
Mof_H 	H 	0.2788	0.9433	0.8119	0.01
Mof_H 	H 	0.5121	0.4803	0.8251	0.041
Mof_H 	H 	0.2096	0.4657	0.8302	0.023
Mof_H 	H 	0.4402	0.3707	0.705	0.051
Mof_H 	H 	0.2788	0.5567	0.6881	0.027
Mof_H 	H 	0.0121	0.8251	0.0197	-0.012
Mof_H 	H 	0.7096	0.8302	0.0343	0.022
Mof_H 	H 	0.9402	0.705	0.1293	0.061
Mof_H 	H 	0.7788	0.6881	0.9433	0.013
Mof_H 	H 	0.0121	0.6749	0.4803	-0.005
Mof_H 	H 	0.7096	0.6698	0.4657	0.024
Mof_H 	H 	0.9402	0.795	0.3707	0.061
Mof_H 	H 	0.7788	0.8119	0.5567	0.03
Mof_H 	H 	0.9879	0.9803	0.1749	0.094
Mof_H 	H 	0.2904	0.9657	0.1698	0.027
Mof_H 	H 	0.0598	0.8707	0.295	0.042
Mof_H 	H 	0.2212	0.0567	0.3119	0.042
Mof_H 	H 	0.9879	0.5197	0.3251	0.087
Mof_H 	H 	0.2904	0.5343	0.3302	0.023
Mof_H 	H 	0.0598	0.6293	0.205	0.041
Mof_H 	H 	0.2212	0.4433	0.1881	0.022
Mof_H 	H 	0.4879	0.1749	0.5197	0.039
Mof_H 	H 	0.7904	0.1698	0.5343	0.024
Mof_H 	H 	0.5598	0.295	0.6293	0.051
Mof_H 	H 	0.7212	0.3119	0.4433	0.025
Mof_H 	H 	0.4879	0.3251	0.9803	0.049
Mof_H 	H 	0.7904	0.3302	0.9657	0.032
Mof_H 	H 	0.5598	0.205	0.8707	0.051
Mof_H 	H 	0.7212	0.1881	0.0567	0.046
Mof_C 	C 	0.5563	0.9786	0.3423	0.124
Mof_C 	C 	0.7213	0.9705	0.3452	0.121
Mof_C 	C 	0.5963	0.9115	0.1846	0.11
Mof_C 	C 	0.6841	0.0131	0.1758	0.011
Mof_C 	C 	0.5563	0.5214	0.1577	0.115
Mof_C 	C 	0.7213	0.5295	0.1548	0.112
Mof_C 	C 	0.5963	0.5885	0.3154	0.108
Mof_C 	C 	0.6841	0.4869	0.3242	0.11
Mof_C 	C 	0.0563	0.1577	0.9786	0.057
Mof_C 	C 	0.2213	0.1548	0.9705	0.119
Mof_C 	C 	0.0963	0.3154	0.9115	0.107
Mof_C 	C 	0.1841	0.3242	0.0131	0.008
Mof_C 	C 	0.0563	0.3423	0.5214	0.046
Mof_C 	C 	0.2213	0.3452	0.5295	0.112
Mof_C 	C 	0.0963	0.1846	0.5885	0.103
Mof_C 	C 	0.1841	0.1758	0.4869	0.106
Mof_C 	C 	0.9437	0.0214	0.8423	0.181
Mof_C 	C 	0.7787	0.0295	0.8452	0.11
Mof_C 	C 	0.9037	0.0885	0.6846	0.111
Mof_C 	C 	0.8159	0.9869	0.6758	0.194
Mof_C 	C 	0.9437	0.4786	0.6577	0.184
Mof_C 	C 	0.7787	0.4705	0.6548	0.115
Mof_C 	C 	0.9037	0.4115	0.8154	0.113
Mof_C 	C 	0.8159	0.5131	0.8242	0.115
Mof_C 	C 	0.4437	0.8423	0.4786	0.118
Mof_C 	C 	0.2787	0.8452	0.4705	0.116
Mof_C 	C 	0.4037	0.6846	0.4115	0.109
Mof_C 	C 	0.3159	0.6758	0.5131	0.111
Mof_C 	C 	0.4437	0.6577	0.0214	0.111
Mof_C 	C 	0.2787	0.6548	0.0295	0.107
Mof_C 	C 	0.4037	0.8154	0.0885	0.107
Mof_C 	C 	0.3159	0.8242	0.9869	0.193
Mof_C 	C 	0.4437	0.0214	0.6577	0.111
Mof_C 	C 	0.2787	0.0295	0.6548	0.107
Mof_C 	C 	0.4037	0.0885	0.8154	0.107
Mof_C 	C 	0.3159	0.9869	0.8242	0.193
Mof_C 	C 	0.4437	0.4786	0.8423	0.118
Mof_C 	C 	0.2787	0.4705	0.8452	0.116
Mof_C 	C 	0.4037	0.4115	0.6846	0.109
Mof_C 	C 	0.3159	0.5131	0.6758	0.111
Mof_C 	C 	0.9437	0.8423	0.0214	0.181
Mof_C 	C 	0.7787	0.8452	0.0295	0.11
Mof_C 	C 	0.9037	0.6846	0.0885	0.111
Mof_C 	C 	0.8159	0.6758	0.9869	0.194
Mof_C 	C 	0.9437	0.6577	0.4786	0.184
Mof_C 	C 	0.7787	0.6548	0.4705	0.115
Mof_C 	C 	0.9037	0.8154	0.4115	0.113
Mof_C 	C 	0.8159	0.8242	0.5131	0.115
Mof_C 	C 	0.0563	0.9786	0.1577	0.057
Mof_C 	C 	0.2213	0.9705	0.1548	0.119
Mof_C 	C 	0.0963	0.9115	0.3154	0.107
Mof_C 	C 	0.1841	0.0131	0.3242	0.008
Mof_C 	C 	0.0563	0.5214	0.3423	0.046
Mof_C 	C 	0.2213	0.5295	0.3452	0.112
Mof_C 	C 	0.0963	0.5885	0.1846	0.103
Mof_C 	C 	0.1841	0.4869	0.1758	0.106
Mof_C 	C 	0.5563	0.1577	0.5214	0.115
Mof_C 	C 	0.7213	0.1548	0.5295	0.112
Mof_C 	C 	0.5963	0.3154	0.5885	0.108
Mof_C 	C 	0.6841	0.3242	0.4869	0.11
Mof_C 	C 	0.5563	0.3423	0.9786	0.124
Mof_C 	C 	0.7213	0.3452	0.9705	0.121
Mof_C 	C 	0.5963	0.1846	0.9115	0.11
Mof_C 	C 	0.6841	0.1758	0.0131	0.011
Mof_N 	N 	0.5853	0.98145	0.41045	-0.167
Mof_N 	N 	0.6895	0.97706	0.41232	-0.172
Mof_N 	N 	0.6393	0.9722	0.29967	-0.092
Mof_N 	N 	0.6109	0.9233	0.115	-0.097
Mof_N 	N 	0.6667	0.9883	0.1098	-0.141
Mof_N 	N 	0.6399	0.9662	0.22404	-0.063
Mof_N 	N 	0.5853	0.51855	0.08955	-0.184
Mof_N 	N 	0.6895	0.52294	0.08768	-0.189
Mof_N 	N 	0.6393	0.5278	0.20033	-0.094
Mof_N 	N 	0.6109	0.5767	0.385	-0.099
Mof_N 	N 	0.6667	0.5117	0.3902	-0.184
Mof_N 	N 	0.6399	0.5338	0.27596	-0.095
Mof_N 	N 	0.0853	0.08955	0.98145	-0.165
Mof_N 	N 	0.1895	0.08768	0.97706	-0.183
Mof_N 	N 	0.1393	0.20033	0.9722	-0.084
Mof_N 	N 	0.1109	0.385	0.9233	-0.101
Mof_N 	N 	0.1667	0.3902	0.9883	-0.141
Mof_N 	N 	0.1399	0.27596	0.9662	-0.066
Mof_N 	N 	0.0853	0.41045	0.51855	-0.172
Mof_N 	N 	0.1895	0.41232	0.52294	-0.179
Mof_N 	N 	0.1393	0.29967	0.5278	-0.085
Mof_N 	N 	0.1109	0.115	0.5767	-0.109
Mof_N 	N 	0.1667	0.1098	0.5117	-0.19
Mof_N 	N 	0.1399	0.22404	0.5338	-0.099
Mof_N 	N 	0.9147	0.01855	0.91045	-0.173
Mof_N 	N 	0.8105	0.02294	0.91232	-0.169
Mof_N 	N 	0.8607	0.0278	0.79967	-0.104
Mof_N 	N 	0.8891	0.0767	0.615	-0.096
Mof_N 	N 	0.8333	0.0117	0.6098	-0.219
Mof_N 	N 	0.8601	0.0338	0.72404	-0.117
Mof_N 	N 	0.9147	0.48145	0.58955	-0.179
Mof_N 	N 	0.8105	0.47706	0.58768	-0.178
Mof_N 	N 	0.8607	0.4722	0.70033	-0.103
Mof_N 	N 	0.8891	0.4233	0.885	-0.089
Mof_N 	N 	0.8333	0.4883	0.8902	-0.178
Mof_N 	N 	0.8601	0.4662	0.77596	-0.091
Mof_N 	N 	0.4147	0.91045	0.48145	-0.167
Mof_N 	N 	0.3105	0.91232	0.47706	-0.167
Mof_N 	N 	0.3607	0.79967	0.4722	-0.094
Mof_N 	N 	0.3891	0.615	0.4233	-0.099
Mof_N 	N 	0.3333	0.6098	0.4883	-0.184
Mof_N 	N 	0.3601	0.72404	0.4662	-0.094
Mof_N 	N 	0.4147	0.58955	0.01855	-0.184
Mof_N 	N 	0.3105	0.58768	0.02294	-0.184
Mof_N 	N 	0.3607	0.70033	0.0278	-0.096
Mof_N 	N 	0.3891	0.885	0.0767	-0.098
Mof_N 	N 	0.3333	0.8902	0.0117	-0.217
Mof_N 	N 	0.3601	0.77596	0.0338	-0.121
Mof_N 	N 	0.4147	0.01855	0.58955	-0.184
Mof_N 	N 	0.3105	0.02294	0.58768	-0.184
Mof_N 	N 	0.3607	0.0278	0.70033	-0.096
Mof_N 	N 	0.3891	0.0767	0.885	-0.098
Mof_N 	N 	0.3333	0.0117	0.8902	-0.217
Mof_N 	N 	0.3601	0.0338	0.77596	-0.121
Mof_N 	N 	0.4147	0.48145	0.91045	-0.167
Mof_N 	N 	0.3105	0.47706	0.91232	-0.167
Mof_N 	N 	0.3607	0.4722	0.79967	-0.094
Mof_N 	N 	0.3891	0.4233	0.615	-0.099
Mof_N 	N 	0.3333	0.4883	0.6098	-0.184
Mof_N 	N 	0.3601	0.4662	0.72404	-0.094
Mof_N 	N 	0.9147	0.91045	0.01855	-0.173
Mof_N 	N 	0.8105	0.91232	0.02294	-0.169
Mof_N 	N 	0.8607	0.79967	0.0278	-0.104
Mof_N 	N 	0.8891	0.615	0.0767	-0.096
Mof_N 	N 	0.8333	0.6098	0.0117	-0.219
Mof_N 	N 	0.8601	0.72404	0.0338	-0.117
Mof_N 	N 	0.9147	0.58955	0.48145	-0.179
Mof_N 	N 	0.8105	0.58768	0.47706	-0.178
Mof_N 	N 	0.8607	0.70033	0.4722	-0.103
Mof_N 	N 	0.8891	0.885	0.4233	-0.089
Mof_N 	N 	0.8333	0.8902	0.4883	-0.178
Mof_N 	N 	0.8601	0.77596	0.4662	-0.091
Mof_N 	N 	0.0853	0.98145	0.08955	-0.165
Mof_N 	N 	0.1895	0.97706	0.08768	-0.183
Mof_N 	N 	0.1393	0.9722	0.20033	-0.084
Mof_N 	N 	0.1109	0.9233	0.385	-0.101
Mof_N 	N 	0.1667	0.9883	0.3902	-0.141
Mof_N 	N 	0.1399	0.9662	0.27596	-0.066
Mof_N 	N 	0.0853	0.51855	0.41045	-0.172
Mof_N 	N 	0.1895	0.52294	0.41232	-0.179
Mof_N 	N 	0.1393	0.5278	0.29967	-0.085
Mof_N 	N 	0.1109	0.5767	0.115	-0.109
Mof_N 	N 	0.1667	0.5117	0.1098	-0.19
Mof_N 	N 	0.1399	0.5338	0.22404	-0.099
Mof_N 	N 	0.5853	0.08955	0.51855	-0.184
Mof_N 	N 	0.6895	0.08768	0.52294	-0.189
Mof_N 	N 	0.6393	0.20033	0.5278	-0.094
Mof_N 	N 	0.6109	0.385	0.5767	-0.099
Mof_N 	N 	0.6667	0.3902	0.5117	-0.184
Mof_N 	N 	0.6399	0.27596	0.5338	-0.095
Mof_N 	N 	0.5853	0.41045	0.98145	-0.167
Mof_N 	N 	0.6895	0.41232	0.97706	-0.172
Mof_N 	N 	0.6393	0.29967	0.9722	-0.092
Mof_N 	N 	0.6109	0.115	0.9233	-0.097
Mof_N 	N 	0.6667	0.1098	0.9883	-0.141
Mof_N 	N 	0.6399	0.22404	0.9662	-0.063
Mof_Cl	Cl	0.62306	0.92004	0.57996	-0.459
Mof_Cl	Cl	0.62306	0.57996	0.92004	-0.459
Mof_Cl	Cl	0.12306	0.92004	0.92004	-0.451
Mof_Cl	Cl	0.12306	0.57996	0.57996	-0.495
Mof_Cl	Cl	0.87694	0.07996	0.07996	-0.51
Mof_Cl	Cl	0.87694	0.42004	0.42004	-0.47
Mof_Cl	Cl	0.37694	0.07996	0.42004	-0.508
Mof_Cl	Cl	0.37694	0.42004	0.07996	-0.508
_end
