# CIF file generated by openbabel 3.1.0, see https://openbabel.org
data_I
_chemical_name_common 'RIFSOQ_clean'
_cell_length_a 45.3067
_cell_length_b 45.3067
_cell_length_c 45.3067
_cell_angle_alpha 60
_cell_angle_beta 60
_cell_angle_gamma 60
_space_group_name_H-M_alt 'P 1'
_space_group_name_Hall 'P 1'
loop_
    _symmetry_equiv_pos_as_xyz
    x,y,z
loop_
    _atom_site_label
    _atom_site_type_symbol
    _atom_site_fract_x
    _atom_site_fract_y
    _atom_site_fract_z
    _atom_site_occupancy
    C16      C        0.06058    0.29344    0.68630    1.000
    H17      H        0.03970    0.31430    0.68770    1.000
    C18      C        0.09260    0.29806    0.66044    1.000
    H19      H        0.09360    0.32160    0.64460    1.000
    C20      C        0.12404    0.26774    0.65752    1.000
    H21      H        0.14650    0.27010    0.63950    1.000
    C22      C        0.12086    0.23410    0.68226    1.000
    C23      C        0.08719    0.23221    0.70773    1.000
    H24      H        0.08540    0.20920    0.72460    1.000
    C25      C        0.22878    0.96166    0.83598    1.000
    C26      C        0.20598    0.07476    0.73466    1.000
    H27      H        0.22520    0.07520    0.71240    1.000
    C28      C        0.17795    0.10685    0.73785    1.000
    C29      C        0.14931    0.10615    0.77093    1.000
    H30      H        0.12940    0.12760    0.77380    1.000
    C31      C        0.15085    0.07371    0.79901    1.000
    H32      H        0.13230    0.07230    0.82190    1.000
    C33      C        0.18006    0.04286    0.79336    1.000
    H34      H        0.18070    0.02070    0.81290    1.000
    C35      C        0.17751    0.14029    0.70609    1.000
    C36      C        0.20265    0.16815    0.64671    1.000
    C37      C        0.15130    0.20000    0.68024    1.000
    C38      C        0.23056    0.16620    0.61142    1.000
    C39      C        0.25958    0.13442    0.60752    1.000
    H40      H        0.26230    0.11310    0.62790    1.000
    C41      C        0.28417    0.13469    0.57351    1.000
    H42      H        0.30420    0.11360    0.57000    1.000
    C43      C        0.27927    0.16669    0.54395    1.000
    H44      H        0.29640    0.16660    0.52060    1.000
    C45      C        0.22792    0.19660    0.58036    1.000
    H46      H        0.20820    0.21800    0.58300    1.000
    C47      C        0.20374    0.29754    0.55284    1.000
    C48      C        0.29618    0.23834    0.53848    1.000
    H49      H        0.27400    0.24020    0.55800    1.000
    C50      C        0.32631    0.23073    0.54423    1.000
    H51      H        0.32500    0.22740    0.56720    1.000
    C52      C        0.35948    0.22790    0.51574    1.000
    H53      H        0.38100    0.22240    0.51900    1.000
    C54      C        0.35970    0.23356    0.48240    1.000
    C55      C        0.32788    0.24094    0.47880    1.000
    H56      H        0.32850    0.24430    0.45610    1.000
    C57      C        0.39349    0.23249    0.45083    1.000
    N58      N        0.24443    0.96985    0.80469    1.000
    N59      N        0.05716    0.26114    0.70960    1.000
    N60      N        0.20700    0.04290    0.76206    1.000
    N61      N        0.15022    0.17072    0.71004    1.000
    N62      N        0.17730    0.20038    0.64774    1.000
    N63      N        0.20462    0.13724    0.67498    1.000
    N64      N        0.25152    0.19724    0.54732    1.000
    N65      N        0.21814    0.27938    0.53550    1.000
    N66      N        0.29595    0.24355    0.50623    1.000
    N67      N        0.42129    0.23233    0.45357    1.000
    S68      S        0.20506    0.95100    0.87861    1.000
    S69      S        0.18323    0.32331    0.57723    1.000
    C85      C        0.29344    0.06058    0.45968    1.000
    H86      H        0.31430    0.03970    0.45830    1.000
    C87      C        0.29806    0.09260    0.44890    1.000
    H88      H        0.32160    0.09360    0.44020    1.000
    C89      C        0.26774    0.12404    0.45070    1.000
    H90      H        0.27010    0.14650    0.44390    1.000
    C91      C        0.23410    0.12086    0.46278    1.000
    C92      C        0.23221    0.08719    0.47287    1.000
    H93      H        0.20920    0.08540    0.48080    1.000
    C94      C        0.96166    0.22878    0.47358    1.000
    C95      C        0.07476    0.20598    0.48460    1.000
    H96      H        0.07520    0.22520    0.48720    1.000
    C97      C        0.10685    0.17795    0.47735    1.000
    C98      C        0.10615    0.14931    0.47361    1.000
    H99      H        0.12760    0.12940    0.46920    1.000
    C100     C        0.07371    0.15085    0.47643    1.000
    H101     H        0.07230    0.13230    0.47350    1.000
    C102     C        0.04286    0.18006    0.48372    1.000
    H103     H        0.02070    0.18070    0.48570    1.000
    C104     C        0.14029    0.17751    0.47611    1.000
    C105     C        0.16815    0.20265    0.48249    1.000
    C106     C        0.20000    0.15130    0.46846    1.000
    C107     C        0.16620    0.23056    0.49182    1.000
    C108     C        0.13442    0.25958    0.49848    1.000
    H109     H        0.11310    0.26230    0.49670    1.000
    C110     C        0.13469    0.28417    0.50763    1.000
    H111     H        0.11360    0.30420    0.51220    1.000
    C112     C        0.16669    0.27927    0.51009    1.000
    H113     H        0.16660    0.29640    0.51640    1.000
    C114     C        0.19660    0.22792    0.49512    1.000
    H115     H        0.21800    0.20820    0.49080    1.000
    C116     C        0.29754    0.20374    0.44588    1.000
    C117     C        0.23834    0.29618    0.42700    1.000
    H118     H        0.24020    0.27400    0.42780    1.000
    C119     C        0.23073    0.32631    0.39873    1.000
    H120     H        0.22740    0.32500    0.38040    1.000
    C121     C        0.22790    0.35948    0.39688    1.000
    H122     H        0.22240    0.38100    0.37760    1.000
    C123     C        0.23356    0.35970    0.42434    1.000
    C124     C        0.24094    0.32788    0.45238    1.000
    H125     H        0.24430    0.32850    0.47110    1.000
    C126     C        0.23249    0.39349    0.42319    1.000
    N127     N        0.96985    0.24443    0.48103    1.000
    N128     N        0.26114    0.05716    0.47210    1.000
    N129     N        0.04290    0.20700    0.48804    1.000
    N130     N        0.17072    0.15022    0.46902    1.000
    N131     N        0.20038    0.17730    0.47458    1.000
    N132     N        0.13724    0.20462    0.48316    1.000
    N133     N        0.19724    0.25152    0.50392    1.000
    N134     N        0.27938    0.21814    0.46698    1.000
    N135     N        0.24355    0.29595    0.45427    1.000
    N136     N        0.23233    0.42129    0.39281    1.000
    S137     S        0.95100    0.20506    0.46534    1.000
    S138     S        0.32331    0.18323    0.41623    1.000
    C154     C        0.68630    0.45968    0.06058    1.000
    H155     H        0.68770    0.45830    0.03970    1.000
    C156     C        0.66044    0.44890    0.09260    1.000
    H157     H        0.64460    0.44020    0.09360    1.000
    C158     C        0.65752    0.45070    0.12404    1.000
    H159     H        0.63950    0.44390    0.14650    1.000
    C160     C        0.68226    0.46278    0.12086    1.000
    C161     C        0.70773    0.47287    0.08719    1.000
    H162     H        0.72460    0.48080    0.08540    1.000
    C163     C        0.83598    0.47358    0.22878    1.000
    C164     C        0.73466    0.48460    0.20598    1.000
    H165     H        0.71240    0.48720    0.22520    1.000
    C166     C        0.73785    0.47735    0.17795    1.000
    C167     C        0.77093    0.47361    0.14931    1.000
    H168     H        0.77380    0.46920    0.12940    1.000
    C169     C        0.79901    0.47643    0.15085    1.000
    H170     H        0.82190    0.47350    0.13230    1.000
    C171     C        0.79336    0.48372    0.18006    1.000
    H172     H        0.81290    0.48570    0.18070    1.000
    C173     C        0.70609    0.47611    0.17751    1.000
    C174     C        0.64671    0.48249    0.20265    1.000
    C175     C        0.68024    0.46846    0.15130    1.000
    C176     C        0.61142    0.49182    0.23056    1.000
    C177     C        0.60752    0.49848    0.25958    1.000
    H178     H        0.62790    0.49670    0.26230    1.000
    C179     C        0.57351    0.50763    0.28417    1.000
    H180     H        0.57000    0.51220    0.30420    1.000
    C181     C        0.54395    0.51009    0.27927    1.000
    H182     H        0.52060    0.51640    0.29640    1.000
    C183     C        0.58036    0.49512    0.22792    1.000
    H184     H        0.58300    0.49080    0.20820    1.000
    C185     C        0.55284    0.44588    0.20374    1.000
    C186     C        0.53848    0.42700    0.29618    1.000
    H187     H        0.55800    0.42780    0.27400    1.000
    C188     C        0.54423    0.39873    0.32631    1.000
    H189     H        0.56720    0.38040    0.32500    1.000
    C190     C        0.51574    0.39688    0.35948    1.000
    H191     H        0.51900    0.37760    0.38100    1.000
    C192     C        0.48240    0.42434    0.35970    1.000
    C193     C        0.47880    0.45238    0.32788    1.000
    H194     H        0.45610    0.47110    0.32850    1.000
    C195     C        0.45083    0.42319    0.39349    1.000
    N196     N        0.80469    0.48103    0.24443    1.000
    N197     N        0.70960    0.47210    0.05716    1.000
    N198     N        0.76206    0.48804    0.20700    1.000
    N199     N        0.71004    0.46902    0.15022    1.000
    N200     N        0.64774    0.47458    0.17730    1.000
    N201     N        0.67498    0.48316    0.20462    1.000
    N202     N        0.54732    0.50392    0.25152    1.000
    N203     N        0.53550    0.46698    0.21814    1.000
    N204     N        0.50623    0.45427    0.29595    1.000
    N205     N        0.45357    0.39281    0.42129    1.000
    S206     S        0.87861    0.46534    0.20506    1.000
    S207     S        0.57723    0.41623    0.18323    1.000
    C223     C        0.45968    0.68630    0.29344    1.000
    H224     H        0.45830    0.68770    0.31430    1.000
    C225     C        0.44890    0.66044    0.29806    1.000
    H226     H        0.44020    0.64460    0.32160    1.000
    C227     C        0.45070    0.65752    0.26774    1.000
    H228     H        0.44390    0.63950    0.27010    1.000
    C229     C        0.46278    0.68226    0.23410    1.000
    C230     C        0.47287    0.70773    0.23221    1.000
    H231     H        0.48080    0.72460    0.20920    1.000
    C232     C        0.47358    0.83598    0.96166    1.000
    C233     C        0.48460    0.73466    0.07476    1.000
    H234     H        0.48720    0.71240    0.07520    1.000
    C235     C        0.47735    0.73785    0.10685    1.000
    C236     C        0.47361    0.77093    0.10615    1.000
    H237     H        0.46920    0.77380    0.12760    1.000
    C238     C        0.47643    0.79901    0.07371    1.000
    H239     H        0.47350    0.82190    0.07230    1.000
    C240     C        0.48372    0.79336    0.04286    1.000
    H241     H        0.48570    0.81290    0.02070    1.000
    C242     C        0.47611    0.70609    0.14029    1.000
    C243     C        0.48249    0.64671    0.16815    1.000
    C244     C        0.46846    0.68024    0.20000    1.000
    C245     C        0.49182    0.61142    0.16620    1.000
    C246     C        0.49848    0.60752    0.13442    1.000
    H247     H        0.49670    0.62790    0.11310    1.000
    C248     C        0.50763    0.57351    0.13469    1.000
    H249     H        0.51220    0.57000    0.11360    1.000
    C250     C        0.51009    0.54395    0.16669    1.000
    H251     H        0.51640    0.52060    0.16660    1.000
    C252     C        0.49512    0.58036    0.19660    1.000
    H253     H        0.49080    0.58300    0.21800    1.000
    C254     C        0.44588    0.55284    0.29754    1.000
    C255     C        0.42700    0.53848    0.23834    1.000
    H256     H        0.42780    0.55800    0.24020    1.000
    C257     C        0.39873    0.54423    0.23073    1.000
    H258     H        0.38040    0.56720    0.22740    1.000
    C259     C        0.39688    0.51574    0.22790    1.000
    H260     H        0.37760    0.51900    0.22240    1.000
    C261     C        0.42434    0.48240    0.23356    1.000
    C262     C        0.45238    0.47880    0.24094    1.000
    H263     H        0.47110    0.45610    0.24430    1.000
    C264     C        0.42319    0.45083    0.23249    1.000
    N265     N        0.48103    0.80469    0.96985    1.000
    N266     N        0.47210    0.70960    0.26114    1.000
    N267     N        0.48804    0.76206    0.04290    1.000
    N268     N        0.46902    0.71004    0.17072    1.000
    N269     N        0.47458    0.64774    0.20038    1.000
    N270     N        0.48316    0.67498    0.13724    1.000
    N271     N        0.50392    0.54732    0.19724    1.000
    N272     N        0.46698    0.53550    0.27938    1.000
    N273     N        0.45427    0.50623    0.24355    1.000
    N274     N        0.39281    0.45357    0.23233    1.000
    S275     S        0.46534    0.87861    0.95100    1.000
    S276     S        0.41623    0.57723    0.32331    1.000
    C292     C        0.68630    0.06058    0.29344    1.000
    H293     H        0.68770    0.03970    0.31430    1.000
    C294     C        0.66044    0.09260    0.29806    1.000
    H295     H        0.64460    0.09360    0.32160    1.000
    C296     C        0.65752    0.12404    0.26774    1.000
    H297     H        0.63950    0.14650    0.27010    1.000
    C298     C        0.68226    0.12086    0.23410    1.000
    C299     C        0.70773    0.08719    0.23221    1.000
    H300     H        0.72460    0.08540    0.20920    1.000
    C301     C        0.83598    0.22878    0.96166    1.000
    C302     C        0.73466    0.20598    0.07476    1.000
    H303     H        0.71240    0.22520    0.07520    1.000
    C304     C        0.73785    0.17795    0.10685    1.000
    C305     C        0.77093    0.14931    0.10615    1.000
    H306     H        0.77380    0.12940    0.12760    1.000
    C307     C        0.79901    0.15085    0.07371    1.000
    H308     H        0.82190    0.13230    0.07230    1.000
    C309     C        0.79336    0.18006    0.04286    1.000
    H310     H        0.81290    0.18070    0.02070    1.000
    C311     C        0.70609    0.17751    0.14029    1.000
    C312     C        0.64671    0.20265    0.16815    1.000
    C313     C        0.68024    0.15130    0.20000    1.000
    C314     C        0.61142    0.23056    0.16620    1.000
    C315     C        0.60752    0.25958    0.13442    1.000
    H316     H        0.62790    0.26230    0.11310    1.000
    C317     C        0.57351    0.28417    0.13469    1.000
    H318     H        0.57000    0.30420    0.11360    1.000
    C319     C        0.54395    0.27927    0.16669    1.000
    H320     H        0.52060    0.29640    0.16660    1.000
    C321     C        0.58036    0.22792    0.19660    1.000
    H322     H        0.58300    0.20820    0.21800    1.000
    C323     C        0.55284    0.20374    0.29754    1.000
    C324     C        0.53848    0.29618    0.23834    1.000
    H325     H        0.55800    0.27400    0.24020    1.000
    C326     C        0.54423    0.32631    0.23073    1.000
    H327     H        0.56720    0.32500    0.22740    1.000
    C328     C        0.51574    0.35948    0.22790    1.000
    H329     H        0.51900    0.38100    0.22240    1.000
    C330     C        0.48240    0.35970    0.23356    1.000
    C331     C        0.47880    0.32788    0.24094    1.000
    H332     H        0.45610    0.32850    0.24430    1.000
    C333     C        0.45083    0.39349    0.23249    1.000
    N334     N        0.80469    0.24443    0.96985    1.000
    N335     N        0.70960    0.05716    0.26114    1.000
    N336     N        0.76206    0.20700    0.04290    1.000
    N337     N        0.71004    0.15022    0.17072    1.000
    N338     N        0.64774    0.17730    0.20038    1.000
    N339     N        0.67498    0.20462    0.13724    1.000
    N340     N        0.54732    0.25152    0.19724    1.000
    N341     N        0.53550    0.21814    0.27938    1.000
    N342     N        0.50623    0.29595    0.24355    1.000
    N343     N        0.45357    0.42129    0.23233    1.000
    S344     S        0.87861    0.20506    0.95100    1.000
    S345     S        0.57723    0.18323    0.32331    1.000
    C361     C        0.45968    0.29344    0.06058    1.000
    H362     H        0.45830    0.31430    0.03970    1.000
    C363     C        0.44890    0.29806    0.09260    1.000
    H364     H        0.44020    0.32160    0.09360    1.000
    C365     C        0.45070    0.26774    0.12404    1.000
    H366     H        0.44390    0.27010    0.14650    1.000
    C367     C        0.46278    0.23410    0.12086    1.000
    C368     C        0.47287    0.23221    0.08719    1.000
    H369     H        0.48080    0.20920    0.08540    1.000
    C370     C        0.47358    0.96166    0.22878    1.000
    C371     C        0.48460    0.07476    0.20598    1.000
    H372     H        0.48720    0.07520    0.22520    1.000
    C373     C        0.47735    0.10685    0.17795    1.000
    C374     C        0.47361    0.10615    0.14931    1.000
    H375     H        0.46920    0.12760    0.12940    1.000
    C376     C        0.47643    0.07371    0.15085    1.000
    H377     H        0.47350    0.07230    0.13230    1.000
    C378     C        0.48372    0.04286    0.18006    1.000
    H379     H        0.48570    0.02070    0.18070    1.000
    C380     C        0.47611    0.14029    0.17751    1.000
    C381     C        0.48249    0.16815    0.20265    1.000
    C382     C        0.46846    0.20000    0.15130    1.000
    C383     C        0.49182    0.16620    0.23056    1.000
    C384     C        0.49848    0.13442    0.25958    1.000
    H385     H        0.49670    0.11310    0.26230    1.000
    C386     C        0.50763    0.13469    0.28417    1.000
    H387     H        0.51220    0.11360    0.30420    1.000
    C388     C        0.51009    0.16669    0.27927    1.000
    H389     H        0.51640    0.16660    0.29640    1.000
    C390     C        0.49512    0.19660    0.22792    1.000
    H391     H        0.49080    0.21800    0.20820    1.000
    C392     C        0.44588    0.29754    0.20374    1.000
    C393     C        0.42700    0.23834    0.29618    1.000
    H394     H        0.42780    0.24020    0.27400    1.000
    C395     C        0.39873    0.23073    0.32631    1.000
    H396     H        0.38040    0.22740    0.32500    1.000
    C397     C        0.39688    0.22790    0.35948    1.000
    H398     H        0.37760    0.22240    0.38100    1.000
    C399     C        0.42434    0.23356    0.35970    1.000
    C400     C        0.45238    0.24094    0.32788    1.000
    H401     H        0.47110    0.24430    0.32850    1.000
    C402     C        0.42319    0.23249    0.39349    1.000
    N403     N        0.48103    0.96985    0.24443    1.000
    N404     N        0.47210    0.26114    0.05716    1.000
    N405     N        0.48804    0.04290    0.20700    1.000
    N406     N        0.46902    0.17072    0.15022    1.000
    N407     N        0.47458    0.20038    0.17730    1.000
    N408     N        0.48316    0.13724    0.20462    1.000
    N409     N        0.50392    0.19724    0.25152    1.000
    N410     N        0.46698    0.27938    0.21814    1.000
    N411     N        0.45427    0.24355    0.29595    1.000
    N412     N        0.39281    0.23233    0.42129    1.000
    S413     S        0.46534    0.95100    0.20506    1.000
    S414     S        0.41623    0.32331    0.18323    1.000
    C430     C        0.06058    0.68630    0.45968    1.000
    H431     H        0.03970    0.68770    0.45830    1.000
    C432     C        0.09260    0.66044    0.44890    1.000
    H433     H        0.09360    0.64460    0.44020    1.000
    C434     C        0.12404    0.65752    0.45070    1.000
    H435     H        0.14650    0.63950    0.44390    1.000
    C436     C        0.12086    0.68226    0.46278    1.000
    C437     C        0.08719    0.70773    0.47287    1.000
    H438     H        0.08540    0.72460    0.48080    1.000
    C439     C        0.22878    0.83598    0.47358    1.000
    C440     C        0.20598    0.73466    0.48460    1.000
    H441     H        0.22520    0.71240    0.48720    1.000
    C442     C        0.17795    0.73785    0.47735    1.000
    C443     C        0.14931    0.77093    0.47361    1.000
    H444     H        0.12940    0.77380    0.46920    1.000
    C445     C        0.15085    0.79901    0.47643    1.000
    H446     H        0.13230    0.82190    0.47350    1.000
    C447     C        0.18006    0.79336    0.48372    1.000
    H448     H        0.18070    0.81290    0.48570    1.000
    C449     C        0.17751    0.70609    0.47611    1.000
    C450     C        0.20265    0.64671    0.48249    1.000
    C451     C        0.15130    0.68024    0.46846    1.000
    C452     C        0.23056    0.61142    0.49182    1.000
    C453     C        0.25958    0.60752    0.49848    1.000
    H454     H        0.26230    0.62790    0.49670    1.000
    C455     C        0.28417    0.57351    0.50763    1.000
    H456     H        0.30420    0.57000    0.51220    1.000
    C457     C        0.27927    0.54395    0.51009    1.000
    H458     H        0.29640    0.52060    0.51640    1.000
    C459     C        0.22792    0.58036    0.49512    1.000
    H460     H        0.20820    0.58300    0.49080    1.000
    C461     C        0.20374    0.55284    0.44588    1.000
    C462     C        0.29618    0.53848    0.42700    1.000
    H463     H        0.27400    0.55800    0.42780    1.000
    C464     C        0.32631    0.54423    0.39873    1.000
    H465     H        0.32500    0.56720    0.38040    1.000
    C466     C        0.35948    0.51574    0.39688    1.000
    H467     H        0.38100    0.51900    0.37760    1.000
    C468     C        0.35970    0.48240    0.42434    1.000
    C469     C        0.32788    0.47880    0.45238    1.000
    H470     H        0.32850    0.45610    0.47110    1.000
    C471     C        0.39349    0.45083    0.42319    1.000
    N472     N        0.24443    0.80469    0.48103    1.000
    N473     N        0.05716    0.70960    0.47210    1.000
    N474     N        0.20700    0.76206    0.48804    1.000
    N475     N        0.15022    0.71004    0.46902    1.000
    N476     N        0.17730    0.64774    0.47458    1.000
    N477     N        0.20462    0.67498    0.48316    1.000
    N478     N        0.25152    0.54732    0.50392    1.000
    N479     N        0.21814    0.53550    0.46698    1.000
    N480     N        0.29595    0.50623    0.45427    1.000
    N481     N        0.42129    0.45357    0.39281    1.000
    S482     S        0.20506    0.87861    0.46534    1.000
    S483     S        0.18323    0.57723    0.41623    1.000
    C499     C        0.29344    0.45968    0.68630    1.000
    H500     H        0.31430    0.45830    0.68770    1.000
    C501     C        0.29806    0.44890    0.66044    1.000
    H502     H        0.32160    0.44020    0.64460    1.000
    C503     C        0.26774    0.45070    0.65752    1.000
    H504     H        0.27010    0.44390    0.63950    1.000
    C505     C        0.23410    0.46278    0.68226    1.000
    C506     C        0.23221    0.47287    0.70773    1.000
    H507     H        0.20920    0.48080    0.72460    1.000
    C508     C        0.96166    0.47358    0.83598    1.000
    C509     C        0.07476    0.48460    0.73466    1.000
    H510     H        0.07520    0.48720    0.71240    1.000
    C511     C        0.10685    0.47735    0.73785    1.000
    C512     C        0.10615    0.47361    0.77093    1.000
    H513     H        0.12760    0.46920    0.77380    1.000
    C514     C        0.07371    0.47643    0.79901    1.000
    H515     H        0.07230    0.47350    0.82190    1.000
    C516     C        0.04286    0.48372    0.79336    1.000
    H517     H        0.02070    0.48570    0.81290    1.000
    C518     C        0.14029    0.47611    0.70609    1.000
    C519     C        0.16815    0.48249    0.64671    1.000
    C520     C        0.20000    0.46846    0.68024    1.000
    C521     C        0.16620    0.49182    0.61142    1.000
    C522     C        0.13442    0.49848    0.60752    1.000
    H523     H        0.11310    0.49670    0.62790    1.000
    C524     C        0.13469    0.50763    0.57351    1.000
    H525     H        0.11360    0.51220    0.57000    1.000
    C526     C        0.16669    0.51009    0.54395    1.000
    H527     H        0.16660    0.51640    0.52060    1.000
    C528     C        0.19660    0.49512    0.58036    1.000
    H529     H        0.21800    0.49080    0.58300    1.000
    C530     C        0.29754    0.44588    0.55284    1.000
    C531     C        0.23834    0.42700    0.53848    1.000
    H532     H        0.24020    0.42780    0.55800    1.000
    C533     C        0.23073    0.39873    0.54423    1.000
    H534     H        0.22740    0.38040    0.56720    1.000
    C535     C        0.22790    0.39688    0.51574    1.000
    H536     H        0.22240    0.37760    0.51900    1.000
    C537     C        0.23356    0.42434    0.48240    1.000
    C538     C        0.24094    0.45238    0.47880    1.000
    H539     H        0.24430    0.47110    0.45610    1.000
    C540     C        0.23249    0.42319    0.45083    1.000
    N541     N        0.96985    0.48103    0.80469    1.000
    N542     N        0.26114    0.47210    0.70960    1.000
    N543     N        0.04290    0.48804    0.76206    1.000
    N544     N        0.17072    0.46902    0.71004    1.000
    N545     N        0.20038    0.47458    0.64774    1.000
    N546     N        0.13724    0.48316    0.67498    1.000
    N547     N        0.19724    0.50392    0.54732    1.000
    N548     N        0.27938    0.46698    0.53550    1.000
    N549     N        0.24355    0.45427    0.50623    1.000
    N550     N        0.23233    0.39281    0.45357    1.000
    S551     S        0.95100    0.46534    0.87861    1.000
    S552     S        0.32331    0.41623    0.57723    1.000
    C568     C        0.29344    0.68630    0.06058    1.000
    H569     H        0.31430    0.68770    0.03970    1.000
    C570     C        0.29806    0.66044    0.09260    1.000
    H571     H        0.32160    0.64460    0.09360    1.000
    C572     C        0.26774    0.65752    0.12404    1.000
    H573     H        0.27010    0.63950    0.14650    1.000
    C574     C        0.23410    0.68226    0.12086    1.000
    C575     C        0.23221    0.70773    0.08719    1.000
    H576     H        0.20920    0.72460    0.08540    1.000
    C577     C        0.96166    0.83598    0.22878    1.000
    C578     C        0.07476    0.73466    0.20598    1.000
    H579     H        0.07520    0.71240    0.22520    1.000
    C580     C        0.10685    0.73785    0.17795    1.000
    C581     C        0.10615    0.77093    0.14931    1.000
    H582     H        0.12760    0.77380    0.12940    1.000
    C583     C        0.07371    0.79901    0.15085    1.000
    H584     H        0.07230    0.82190    0.13230    1.000
    C585     C        0.04286    0.79336    0.18006    1.000
    H586     H        0.02070    0.81290    0.18070    1.000
    C587     C        0.14029    0.70609    0.17751    1.000
    C588     C        0.16815    0.64671    0.20265    1.000
    C589     C        0.20000    0.68024    0.15130    1.000
    C590     C        0.16620    0.61142    0.23056    1.000
    C591     C        0.13442    0.60752    0.25958    1.000
    H592     H        0.11310    0.62790    0.26230    1.000
    C593     C        0.13469    0.57351    0.28417    1.000
    H594     H        0.11360    0.57000    0.30420    1.000
    C595     C        0.16669    0.54395    0.27927    1.000
    H596     H        0.16660    0.52060    0.29640    1.000
    C597     C        0.19660    0.58036    0.22792    1.000
    H598     H        0.21800    0.58300    0.20820    1.000
    C599     C        0.29754    0.55284    0.20374    1.000
    C600     C        0.23834    0.53848    0.29618    1.000
    H601     H        0.24020    0.55800    0.27400    1.000
    C602     C        0.23073    0.54423    0.32631    1.000
    H603     H        0.22740    0.56720    0.32500    1.000
    C604     C        0.22790    0.51574    0.35948    1.000
    H605     H        0.22240    0.51900    0.38100    1.000
    C606     C        0.23356    0.48240    0.35970    1.000
    C607     C        0.24094    0.47880    0.32788    1.000
    H608     H        0.24430    0.45610    0.32850    1.000
    C609     C        0.23249    0.45083    0.39349    1.000
    N610     N        0.96985    0.80469    0.24443    1.000
    N611     N        0.26114    0.70960    0.05716    1.000
    N612     N        0.04290    0.76206    0.20700    1.000
    N613     N        0.17072    0.71004    0.15022    1.000
    N614     N        0.20038    0.64774    0.17730    1.000
    N615     N        0.13724    0.67498    0.20462    1.000
    N616     N        0.19724    0.54732    0.25152    1.000
    N617     N        0.27938    0.53550    0.21814    1.000
    N618     N        0.24355    0.50623    0.29595    1.000
    N619     N        0.23233    0.45357    0.42129    1.000
    S620     S        0.95100    0.87861    0.20506    1.000
    S621     S        0.32331    0.57723    0.18323    1.000
    C637     C        0.06058    0.45968    0.29344    1.000
    H638     H        0.03970    0.45830    0.31430    1.000
    C639     C        0.09260    0.44890    0.29806    1.000
    H640     H        0.09360    0.44020    0.32160    1.000
    C641     C        0.12404    0.45070    0.26774    1.000
    H642     H        0.14650    0.44390    0.27010    1.000
    C643     C        0.12086    0.46278    0.23410    1.000
    C644     C        0.08719    0.47287    0.23221    1.000
    H645     H        0.08540    0.48080    0.20920    1.000
    C646     C        0.22878    0.47358    0.96166    1.000
    C647     C        0.20598    0.48460    0.07476    1.000
    H648     H        0.22520    0.48720    0.07520    1.000
    C649     C        0.17795    0.47735    0.10685    1.000
    C650     C        0.14931    0.47361    0.10615    1.000
    H651     H        0.12940    0.46920    0.12760    1.000
    C652     C        0.15085    0.47643    0.07371    1.000
    H653     H        0.13230    0.47350    0.07230    1.000
    C654     C        0.18006    0.48372    0.04286    1.000
    H655     H        0.18070    0.48570    0.02070    1.000
    C656     C        0.17751    0.47611    0.14029    1.000
    C657     C        0.20265    0.48249    0.16815    1.000
    C658     C        0.15130    0.46846    0.20000    1.000
    C659     C        0.23056    0.49182    0.16620    1.000
    C660     C        0.25958    0.49848    0.13442    1.000
    H661     H        0.26230    0.49670    0.11310    1.000
    C662     C        0.28417    0.50763    0.13469    1.000
    H663     H        0.30420    0.51220    0.11360    1.000
    C664     C        0.27927    0.51009    0.16669    1.000
    H665     H        0.29640    0.51640    0.16660    1.000
    C666     C        0.22792    0.49512    0.19660    1.000
    H667     H        0.20820    0.49080    0.21800    1.000
    C668     C        0.20374    0.44588    0.29754    1.000
    C669     C        0.29618    0.42700    0.23834    1.000
    H670     H        0.27400    0.42780    0.24020    1.000
    C671     C        0.32631    0.39873    0.23073    1.000
    H672     H        0.32500    0.38040    0.22740    1.000
    C673     C        0.35948    0.39688    0.22790    1.000
    H674     H        0.38100    0.37760    0.22240    1.000
    C675     C        0.35970    0.42434    0.23356    1.000
    C676     C        0.32788    0.45238    0.24094    1.000
    H677     H        0.32850    0.47110    0.24430    1.000
    C678     C        0.39349    0.42319    0.23249    1.000
    N679     N        0.24443    0.48103    0.96985    1.000
    N680     N        0.05716    0.47210    0.26114    1.000
    N681     N        0.20700    0.48804    0.04290    1.000
    N682     N        0.15022    0.46902    0.17072    1.000
    N683     N        0.17730    0.47458    0.20038    1.000
    N684     N        0.20462    0.48316    0.13724    1.000
    N685     N        0.25152    0.50392    0.19724    1.000
    N686     N        0.21814    0.46698    0.27938    1.000
    N687     N        0.29595    0.45427    0.24355    1.000
    N688     N        0.42129    0.39281    0.23233    1.000
    S689     S        0.20506    0.46534    0.95100    1.000
    S690     S        0.18323    0.41623    0.32331    1.000
    C706     C        0.45968    0.06058    0.68630    1.000
    H707     H        0.45830    0.03970    0.68770    1.000
    C708     C        0.44890    0.09260    0.66044    1.000
    H709     H        0.44020    0.09360    0.64460    1.000
    C710     C        0.45070    0.12404    0.65752    1.000
    H711     H        0.44390    0.14650    0.63950    1.000
    C712     C        0.46278    0.12086    0.68226    1.000
    C713     C        0.47287    0.08719    0.70773    1.000
    H714     H        0.48080    0.08540    0.72460    1.000
    C715     C        0.47358    0.22878    0.83598    1.000
    C716     C        0.48460    0.20598    0.73466    1.000
    H717     H        0.48720    0.22520    0.71240    1.000
    C718     C        0.47735    0.17795    0.73785    1.000
    C719     C        0.47361    0.14931    0.77093    1.000
    H720     H        0.46920    0.12940    0.77380    1.000
    C721     C        0.47643    0.15085    0.79901    1.000
    H722     H        0.47350    0.13230    0.82190    1.000
    C723     C        0.48372    0.18006    0.79336    1.000
    H724     H        0.48570    0.18070    0.81290    1.000
    C725     C        0.47611    0.17751    0.70609    1.000
    C726     C        0.48249    0.20265    0.64671    1.000
    C727     C        0.46846    0.15130    0.68024    1.000
    C728     C        0.49182    0.23056    0.61142    1.000
    C729     C        0.49848    0.25958    0.60752    1.000
    H730     H        0.49670    0.26230    0.62790    1.000
    C731     C        0.50763    0.28417    0.57351    1.000
    H732     H        0.51220    0.30420    0.57000    1.000
    C733     C        0.51009    0.27927    0.54395    1.000
    H734     H        0.51640    0.29640    0.52060    1.000
    C735     C        0.49512    0.22792    0.58036    1.000
    H736     H        0.49080    0.20820    0.58300    1.000
    C737     C        0.44588    0.20374    0.55284    1.000
    C738     C        0.42700    0.29618    0.53848    1.000
    H739     H        0.42780    0.27400    0.55800    1.000
    C740     C        0.39873    0.32631    0.54423    1.000
    H741     H        0.38040    0.32500    0.56720    1.000
    C742     C        0.39688    0.35948    0.51574    1.000
    H743     H        0.37760    0.38100    0.51900    1.000
    C744     C        0.42434    0.35970    0.48240    1.000
    C745     C        0.45238    0.32788    0.47880    1.000
    H746     H        0.47110    0.32850    0.45610    1.000
    C747     C        0.42319    0.39349    0.45083    1.000
    N748     N        0.48103    0.24443    0.80469    1.000
    N749     N        0.47210    0.05716    0.70960    1.000
    N750     N        0.48804    0.20700    0.76206    1.000
    N751     N        0.46902    0.15022    0.71004    1.000
    N752     N        0.47458    0.17730    0.64774    1.000
    N753     N        0.48316    0.20462    0.67498    1.000
    N754     N        0.50392    0.25152    0.54732    1.000
    N755     N        0.46698    0.21814    0.53550    1.000
    N756     N        0.45427    0.29595    0.50623    1.000
    N757     N        0.39281    0.42129    0.45357    1.000
    S758     S        0.46534    0.20506    0.87861    1.000
    S759     S        0.41623    0.18323    0.57723    1.000
    C775     C        0.68630    0.29344    0.45968    1.000
    H776     H        0.68770    0.31430    0.45830    1.000
    C777     C        0.66044    0.29806    0.44890    1.000
    H778     H        0.64460    0.32160    0.44020    1.000
    C779     C        0.65752    0.26774    0.45070    1.000
    H780     H        0.63950    0.27010    0.44390    1.000
    C781     C        0.68226    0.23410    0.46278    1.000
    C782     C        0.70773    0.23221    0.47287    1.000
    H783     H        0.72460    0.20920    0.48080    1.000
    C784     C        0.83598    0.96166    0.47358    1.000
    C785     C        0.73466    0.07476    0.48460    1.000
    H786     H        0.71240    0.07520    0.48720    1.000
    C787     C        0.73785    0.10685    0.47735    1.000
    C788     C        0.77093    0.10615    0.47361    1.000
    H789     H        0.77380    0.12760    0.46920    1.000
    C790     C        0.79901    0.07371    0.47643    1.000
    H791     H        0.82190    0.07230    0.47350    1.000
    C792     C        0.79336    0.04286    0.48372    1.000
    H793     H        0.81290    0.02070    0.48570    1.000
    C794     C        0.70609    0.14029    0.47611    1.000
    C795     C        0.64671    0.16815    0.48249    1.000
    C796     C        0.68024    0.20000    0.46846    1.000
    C797     C        0.61142    0.16620    0.49182    1.000
    C798     C        0.60752    0.13442    0.49848    1.000
    H799     H        0.62790    0.11310    0.49670    1.000
    C800     C        0.57351    0.13469    0.50763    1.000
    H801     H        0.57000    0.11360    0.51220    1.000
    C802     C        0.54395    0.16669    0.51009    1.000
    H803     H        0.52060    0.16660    0.51640    1.000
    C804     C        0.58036    0.19660    0.49512    1.000
    H805     H        0.58300    0.21800    0.49080    1.000
    C806     C        0.55284    0.29754    0.44588    1.000
    C807     C        0.53848    0.23834    0.42700    1.000
    H808     H        0.55800    0.24020    0.42780    1.000
    C809     C        0.54423    0.23073    0.39873    1.000
    H810     H        0.56720    0.22740    0.38040    1.000
    C811     C        0.51574    0.22790    0.39688    1.000
    H812     H        0.51900    0.22240    0.37760    1.000
    C813     C        0.48240    0.23356    0.42434    1.000
    C814     C        0.47880    0.24094    0.45238    1.000
    H815     H        0.45610    0.24430    0.47110    1.000
    C816     C        0.45083    0.23249    0.42319    1.000
    N817     N        0.80469    0.96985    0.48103    1.000
    N818     N        0.70960    0.26114    0.47210    1.000
    N819     N        0.76206    0.04290    0.48804    1.000
    N820     N        0.71004    0.17072    0.46902    1.000
    N821     N        0.64774    0.20038    0.47458    1.000
    N822     N        0.67498    0.13724    0.48316    1.000
    N823     N        0.54732    0.19724    0.50392    1.000
    N824     N        0.53550    0.27938    0.46698    1.000
    N825     N        0.50623    0.24355    0.45427    1.000
    N826     N        0.45357    0.23233    0.39281    1.000
    S827     S        0.87861    0.95100    0.46534    1.000
    S828     S        0.57723    0.32331    0.41623    1.000
    C844     C        0.43942    0.20656    0.04032    1.000
    H845     H        0.46030    0.18570    0.04170    1.000
    C846     C        0.40740    0.20194    0.05110    1.000
    H847     H        0.40640    0.17840    0.05980    1.000
    C848     C        0.37596    0.23226    0.04930    1.000
    H849     H        0.35350    0.22990    0.05610    1.000
    C850     C        0.37914    0.26590    0.03722    1.000
    C851     C        0.41281    0.26779    0.02713    1.000
    H852     H        0.41460    0.29080    0.01920    1.000
    C853     C        0.27122    0.53834    0.02642    1.000
    C854     C        0.29402    0.42524    0.01540    1.000
    H855     H        0.27480    0.42480    0.01280    1.000
    C856     C        0.32205    0.39315    0.02265    1.000
    C857     C        0.35069    0.39385    0.02639    1.000
    H858     H        0.37060    0.37240    0.03080    1.000
    C859     C        0.34915    0.42629    0.02357    1.000
    H860     H        0.36770    0.42770    0.02650    1.000
    C861     C        0.31994    0.45714    0.01628    1.000
    H862     H        0.31930    0.47930    0.01430    1.000
    C863     C        0.32249    0.35971    0.02389    1.000
    C864     C        0.29735    0.33185    0.01751    1.000
    C865     C        0.34870    0.30000    0.03154    1.000
    C866     C        0.26944    0.33380    0.00818    1.000
    C867     C        0.24042    0.36558    0.00152    1.000
    H868     H        0.23770    0.38690    0.00330    1.000
    C869     C        0.21583    0.36531    0.99237    1.000
    H870     H        0.19580    0.38640    0.98780    1.000
    C871     C        0.22073    0.33331    0.98991    1.000
    H872     H        0.20360    0.33340    0.98360    1.000
    C873     C        0.27208    0.30340    0.00488    1.000
    H874     H        0.29180    0.28200    0.00920    1.000
    C875     C        0.29626    0.20246    0.05412    1.000
    C876     C        0.20382    0.26166    0.07300    1.000
    H877     H        0.22600    0.25980    0.07220    1.000
    C878     C        0.17369    0.26927    0.10127    1.000
    H879     H        0.17500    0.27260    0.11960    1.000
    C880     C        0.14052    0.27210    0.10312    1.000
    H881     H        0.11900    0.27760    0.12240    1.000
    C882     C        0.14030    0.26644    0.07566    1.000
    C883     C        0.17212    0.25906    0.04762    1.000
    H884     H        0.17150    0.25570    0.02890    1.000
    C885     C        0.10651    0.26751    0.07681    1.000
    N886     N        0.25557    0.53015    0.01897    1.000
    N887     N        0.44284    0.23886    0.02790    1.000
    N888     N        0.29300    0.45710    0.01196    1.000
    N889     N        0.34978    0.32928    0.03098    1.000
    N890     N        0.32270    0.29962    0.02542    1.000
    N891     N        0.29538    0.36276    0.01684    1.000
    N892     N        0.24848    0.30276    0.99608    1.000
    N893     N        0.28186    0.22062    0.03302    1.000
    N894     N        0.20405    0.25645    0.04573    1.000
    N895     N        0.07871    0.26767    0.10719    1.000
    S896     S        0.29494    0.54900    0.03466    1.000
    S897     S        0.31677    0.17669    0.08377    1.000
    C913     C        0.20656    0.43942    0.81370    1.000
    H914     H        0.18570    0.46030    0.81230    1.000
    C915     C        0.20194    0.40740    0.83956    1.000
    H916     H        0.17840    0.40640    0.85540    1.000
    C917     C        0.23226    0.37596    0.84248    1.000
    H918     H        0.22990    0.35350    0.86050    1.000
    C919     C        0.26590    0.37914    0.81774    1.000
    C920     C        0.26779    0.41281    0.79227    1.000
    H921     H        0.29080    0.41460    0.77540    1.000
    C922     C        0.53834    0.27122    0.66402    1.000
    C923     C        0.42524    0.29402    0.76534    1.000
    H924     H        0.42480    0.27480    0.78760    1.000
    C925     C        0.39315    0.32205    0.76215    1.000
    C926     C        0.39385    0.35069    0.72907    1.000
    H927     H        0.37240    0.37060    0.72620    1.000
    C928     C        0.42629    0.34915    0.70099    1.000
    H929     H        0.42770    0.36770    0.67810    1.000
    C930     C        0.45714    0.31994    0.70664    1.000
    H931     H        0.47930    0.31930    0.68710    1.000
    C932     C        0.35971    0.32249    0.79391    1.000
    C933     C        0.33185    0.29735    0.85329    1.000
    C934     C        0.30000    0.34870    0.81976    1.000
    C935     C        0.33380    0.26944    0.88858    1.000
    C936     C        0.36558    0.24042    0.89248    1.000
    H937     H        0.38690    0.23770    0.87210    1.000
    C938     C        0.36531    0.21583    0.92649    1.000
    H939     H        0.38640    0.19580    0.93000    1.000
    C940     C        0.33331    0.22073    0.95605    1.000
    H941     H        0.33340    0.20360    0.97940    1.000
    C942     C        0.30340    0.27208    0.91964    1.000
    H943     H        0.28200    0.29180    0.91700    1.000
    C944     C        0.20246    0.29626    0.94716    1.000
    C945     C        0.26166    0.20382    0.96152    1.000
    H946     H        0.25980    0.22600    0.94200    1.000
    C947     C        0.26927    0.17369    0.95577    1.000
    H948     H        0.27260    0.17500    0.93280    1.000
    C949     C        0.27210    0.14052    0.98426    1.000
    H950     H        0.27760    0.11900    0.98100    1.000
    C951     C        0.26644    0.14030    0.01760    1.000
    C952     C        0.25906    0.17212    0.02120    1.000
    H953     H        0.25570    0.17150    0.04390    1.000
    C954     C        0.26751    0.10651    0.04917    1.000
    N955     N        0.53015    0.25557    0.69531    1.000
    N956     N        0.23886    0.44284    0.79040    1.000
    N957     N        0.45710    0.29300    0.73794    1.000
    N958     N        0.32928    0.34978    0.78996    1.000
    N959     N        0.29962    0.32270    0.85226    1.000
    N960     N        0.36276    0.29538    0.82502    1.000
    N961     N        0.30276    0.24848    0.95268    1.000
    N962     N        0.22062    0.28186    0.96450    1.000
    N963     N        0.25645    0.20405    0.99377    1.000
    N964     N        0.26767    0.07871    0.04643    1.000
    S965     S        0.54900    0.29494    0.62139    1.000
    S966     S        0.17669    0.31677    0.92277    1.000
    C982     C        0.81370    0.04032    0.20656    1.000
    H983     H        0.81230    0.04170    0.18570    1.000
    C984     C        0.83956    0.05110    0.20194    1.000
    H985     H        0.85540    0.05980    0.17840    1.000
    C986     C        0.84248    0.04930    0.23226    1.000
    H987     H        0.86050    0.05610    0.22990    1.000
    C988     C        0.81774    0.03722    0.26590    1.000
    C989     C        0.79227    0.02713    0.26779    1.000
    H990     H        0.77540    0.01920    0.29080    1.000
    C991     C        0.66402    0.02642    0.53834    1.000
    C992     C        0.76534    0.01540    0.42524    1.000
    H993     H        0.78760    0.01280    0.42480    1.000
    C994     C        0.76215    0.02265    0.39315    1.000
    C995     C        0.72907    0.02639    0.39385    1.000
    H996     H        0.72620    0.03080    0.37240    1.000
    C997     C        0.70099    0.02357    0.42629    1.000
    H998     H        0.67810    0.02650    0.42770    1.000
    C999     C        0.70664    0.01628    0.45714    1.000
    H1000    H        0.68710    0.01430    0.47930    1.000
    C1001    C        0.79391    0.02389    0.35971    1.000
    C1002    C        0.85329    0.01751    0.33185    1.000
    C1003    C        0.81976    0.03154    0.30000    1.000
    C1004    C        0.88858    0.00818    0.33380    1.000
    C1005    C        0.89248    0.00152    0.36558    1.000
    H1006    H        0.87210    0.00330    0.38690    1.000
    C1007    C        0.92649    0.99237    0.36531    1.000
    H1008    H        0.93000    0.98780    0.38640    1.000
    C1009    C        0.95605    0.98991    0.33331    1.000
    H1010    H        0.97940    0.98360    0.33340    1.000
    C1011    C        0.91964    0.00488    0.30340    1.000
    H1012    H        0.91700    0.00920    0.28200    1.000
    C1013    C        0.94716    0.05412    0.20246    1.000
    C1014    C        0.96152    0.07300    0.26166    1.000
    H1015    H        0.94200    0.07220    0.25980    1.000
    C1016    C        0.95577    0.10127    0.26927    1.000
    H1017    H        0.93280    0.11960    0.27260    1.000
    C1018    C        0.98426    0.10312    0.27210    1.000
    H1019    H        0.98100    0.12240    0.27760    1.000
    C1020    C        0.01760    0.07566    0.26644    1.000
    C1021    C        0.02120    0.04762    0.25906    1.000
    H1022    H        0.04390    0.02890    0.25570    1.000
    C1023    C        0.04917    0.07681    0.26751    1.000
    N1024    N        0.69531    0.01897    0.53015    1.000
    N1025    N        0.79040    0.02790    0.23886    1.000
    N1026    N        0.73794    0.01196    0.45710    1.000
    N1027    N        0.78996    0.03098    0.32928    1.000
    N1028    N        0.85226    0.02542    0.29962    1.000
    N1029    N        0.82502    0.01684    0.36276    1.000
    N1030    N        0.95268    0.99608    0.30276    1.000
    N1031    N        0.96450    0.03302    0.22062    1.000
    N1032    N        0.99377    0.04573    0.25645    1.000
    N1033    N        0.04643    0.10719    0.26767    1.000
    S1034    S        0.62139    0.03466    0.54900    1.000
    S1035    S        0.92277    0.08377    0.17669    1.000
    C1051    C        0.04032    0.81370    0.43942    1.000
    H1052    H        0.04170    0.81230    0.46030    1.000
    C1053    C        0.05110    0.83956    0.40740    1.000
    H1054    H        0.05980    0.85540    0.40640    1.000
    C1055    C        0.04930    0.84248    0.37596    1.000
    H1056    H        0.05610    0.86050    0.35350    1.000
    C1057    C        0.03722    0.81774    0.37914    1.000
    C1058    C        0.02713    0.79227    0.41281    1.000
    H1059    H        0.01920    0.77540    0.41460    1.000
    C1060    C        0.02642    0.66402    0.27122    1.000
    C1061    C        0.01540    0.76534    0.29402    1.000
    H1062    H        0.01280    0.78760    0.27480    1.000
    C1063    C        0.02265    0.76215    0.32205    1.000
    C1064    C        0.02639    0.72907    0.35069    1.000
    H1065    H        0.03080    0.72620    0.37060    1.000
    C1066    C        0.02357    0.70099    0.34915    1.000
    H1067    H        0.02650    0.67810    0.36770    1.000
    C1068    C        0.01628    0.70664    0.31994    1.000
    H1069    H        0.01430    0.68710    0.31930    1.000
    C1070    C        0.02389    0.79391    0.32249    1.000
    C1071    C        0.01751    0.85329    0.29735    1.000
    C1072    C        0.03154    0.81976    0.34870    1.000
    C1073    C        0.00818    0.88858    0.26944    1.000
    C1074    C        0.00152    0.89248    0.24042    1.000
    H1075    H        0.00330    0.87210    0.23770    1.000
    C1076    C        0.99237    0.92649    0.21583    1.000
    H1077    H        0.98780    0.93000    0.19580    1.000
    C1078    C        0.98991    0.95605    0.22073    1.000
    H1079    H        0.98360    0.97940    0.20360    1.000
    C1080    C        0.00488    0.91964    0.27208    1.000
    H1081    H        0.00920    0.91700    0.29180    1.000
    C1082    C        0.05412    0.94716    0.29626    1.000
    C1083    C        0.07300    0.96152    0.20382    1.000
    H1084    H        0.07220    0.94200    0.22600    1.000
    C1085    C        0.10127    0.95577    0.17369    1.000
    H1086    H        0.11960    0.93280    0.17500    1.000
    C1087    C        0.10312    0.98426    0.14052    1.000
    H1088    H        0.12240    0.98100    0.11900    1.000
    C1089    C        0.07566    0.01760    0.14030    1.000
    C1090    C        0.04762    0.02120    0.17212    1.000
    H1091    H        0.02890    0.04390    0.17150    1.000
    C1092    C        0.07681    0.04917    0.10651    1.000
    N1093    N        0.01897    0.69531    0.25557    1.000
    N1094    N        0.02790    0.79040    0.44284    1.000
    N1095    N        0.01196    0.73794    0.29300    1.000
    N1096    N        0.03098    0.78996    0.34978    1.000
    N1097    N        0.02542    0.85226    0.32270    1.000
    N1098    N        0.01684    0.82502    0.29538    1.000
    N1099    N        0.99608    0.95268    0.24848    1.000
    N1100    N        0.03302    0.96450    0.28186    1.000
    N1101    N        0.04573    0.99377    0.20405    1.000
    N1102    N        0.10719    0.04643    0.07871    1.000
    S1103    S        0.03466    0.62139    0.29494    1.000
    S1104    S        0.08377    0.92277    0.31677    1.000
    C1120    C        0.81370    0.43942    0.04032    1.000
    H1121    H        0.81230    0.46030    0.04170    1.000
    C1122    C        0.83956    0.40740    0.05110    1.000
    H1123    H        0.85540    0.40640    0.05980    1.000
    C1124    C        0.84248    0.37596    0.04930    1.000
    H1125    H        0.86050    0.35350    0.05610    1.000
    C1126    C        0.81774    0.37914    0.03722    1.000
    C1127    C        0.79227    0.41281    0.02713    1.000
    H1128    H        0.77540    0.41460    0.01920    1.000
    C1129    C        0.66402    0.27122    0.02642    1.000
    C1130    C        0.76534    0.29402    0.01540    1.000
    H1131    H        0.78760    0.27480    0.01280    1.000
    C1132    C        0.76215    0.32205    0.02265    1.000
    C1133    C        0.72907    0.35069    0.02639    1.000
    H1134    H        0.72620    0.37060    0.03080    1.000
    C1135    C        0.70099    0.34915    0.02357    1.000
    H1136    H        0.67810    0.36770    0.02650    1.000
    C1137    C        0.70664    0.31994    0.01628    1.000
    H1138    H        0.68710    0.31930    0.01430    1.000
    C1139    C        0.79391    0.32249    0.02389    1.000
    C1140    C        0.85329    0.29735    0.01751    1.000
    C1141    C        0.81976    0.34870    0.03154    1.000
    C1142    C        0.88858    0.26944    0.00818    1.000
    C1143    C        0.89248    0.24042    0.00152    1.000
    H1144    H        0.87210    0.23770    0.00330    1.000
    C1145    C        0.92649    0.21583    0.99237    1.000
    H1146    H        0.93000    0.19580    0.98780    1.000
    C1147    C        0.95605    0.22073    0.98991    1.000
    H1148    H        0.97940    0.20360    0.98360    1.000
    C1149    C        0.91964    0.27208    0.00488    1.000
    H1150    H        0.91700    0.29180    0.00920    1.000
    C1151    C        0.94716    0.29626    0.05412    1.000
    C1152    C        0.96152    0.20382    0.07300    1.000
    H1153    H        0.94200    0.22600    0.07220    1.000
    C1154    C        0.95577    0.17369    0.10127    1.000
    H1155    H        0.93280    0.17500    0.11960    1.000
    C1156    C        0.98426    0.14052    0.10312    1.000
    H1157    H        0.98100    0.11900    0.12240    1.000
    C1158    C        0.01760    0.14030    0.07566    1.000
    C1159    C        0.02120    0.17212    0.04762    1.000
    H1160    H        0.04390    0.17150    0.02890    1.000
    C1161    C        0.04917    0.10651    0.07681    1.000
    N1162    N        0.69531    0.25557    0.01897    1.000
    N1163    N        0.79040    0.44284    0.02790    1.000
    N1164    N        0.73794    0.29300    0.01196    1.000
    N1165    N        0.78996    0.34978    0.03098    1.000
    N1166    N        0.85226    0.32270    0.02542    1.000
    N1167    N        0.82502    0.29538    0.01684    1.000
    N1168    N        0.95268    0.24848    0.99608    1.000
    N1169    N        0.96450    0.28186    0.03302    1.000
    N1170    N        0.99377    0.20405    0.04573    1.000
    N1171    N        0.04643    0.07871    0.10719    1.000
    S1172    S        0.62139    0.29494    0.03466    1.000
    S1173    S        0.92277    0.31677    0.08377    1.000
    C1189    C        0.04032    0.20656    0.81370    1.000
    H1190    H        0.04170    0.18570    0.81230    1.000
    C1191    C        0.05110    0.20194    0.83956    1.000
    H1192    H        0.05980    0.17840    0.85540    1.000
    C1193    C        0.04930    0.23226    0.84248    1.000
    H1194    H        0.05610    0.22990    0.86050    1.000
    C1195    C        0.03722    0.26590    0.81774    1.000
    C1196    C        0.02713    0.26779    0.79227    1.000
    H1197    H        0.01920    0.29080    0.77540    1.000
    C1198    C        0.02642    0.53834    0.66402    1.000
    C1199    C        0.01540    0.42524    0.76534    1.000
    H1200    H        0.01280    0.42480    0.78760    1.000
    C1201    C        0.02265    0.39315    0.76215    1.000
    C1202    C        0.02639    0.39385    0.72907    1.000
    H1203    H        0.03080    0.37240    0.72620    1.000
    C1204    C        0.02357    0.42629    0.70099    1.000
    H1205    H        0.02650    0.42770    0.67810    1.000
    C1206    C        0.01628    0.45714    0.70664    1.000
    H1207    H        0.01430    0.47930    0.68710    1.000
    C1208    C        0.02389    0.35971    0.79391    1.000
    C1209    C        0.01751    0.33185    0.85329    1.000
    C1210    C        0.03154    0.30000    0.81976    1.000
    C1211    C        0.00818    0.33380    0.88858    1.000
    C1212    C        0.00152    0.36558    0.89248    1.000
    H1213    H        0.00330    0.38690    0.87210    1.000
    C1214    C        0.99237    0.36531    0.92649    1.000
    H1215    H        0.98780    0.38640    0.93000    1.000
    C1216    C        0.98991    0.33331    0.95605    1.000
    H1217    H        0.98360    0.33340    0.97940    1.000
    C1218    C        0.00488    0.30340    0.91964    1.000
    H1219    H        0.00920    0.28200    0.91700    1.000
    C1220    C        0.05412    0.20246    0.94716    1.000
    C1221    C        0.07300    0.26166    0.96152    1.000
    H1222    H        0.07220    0.25980    0.94200    1.000
    C1223    C        0.10127    0.26927    0.95577    1.000
    H1224    H        0.11960    0.27260    0.93280    1.000
    C1225    C        0.10312    0.27210    0.98426    1.000
    H1226    H        0.12240    0.27760    0.98100    1.000
    C1227    C        0.07566    0.26644    0.01760    1.000
    C1228    C        0.04762    0.25906    0.02120    1.000
    H1229    H        0.02890    0.25570    0.04390    1.000
    C1230    C        0.07681    0.26751    0.04917    1.000
    N1231    N        0.01897    0.53015    0.69531    1.000
    N1232    N        0.02790    0.23886    0.79040    1.000
    N1233    N        0.01196    0.45710    0.73794    1.000
    N1234    N        0.03098    0.32928    0.78996    1.000
    N1235    N        0.02542    0.29962    0.85226    1.000
    N1236    N        0.01684    0.36276    0.82502    1.000
    N1237    N        0.99608    0.30276    0.95268    1.000
    N1238    N        0.03302    0.22062    0.96450    1.000
    N1239    N        0.04573    0.25645    0.99377    1.000
    N1240    N        0.10719    0.26767    0.04643    1.000
    S1241    S        0.03466    0.54900    0.62139    1.000
    S1242    S        0.08377    0.17669    0.92277    1.000
    C1258    C        0.43942    0.81370    0.20656    1.000
    H1259    H        0.46030    0.81230    0.18570    1.000
    C1260    C        0.40740    0.83956    0.20194    1.000
    H1261    H        0.40640    0.85540    0.17840    1.000
    C1262    C        0.37596    0.84248    0.23226    1.000
    H1263    H        0.35350    0.86050    0.22990    1.000
    C1264    C        0.37914    0.81774    0.26590    1.000
    C1265    C        0.41281    0.79227    0.26779    1.000
    H1266    H        0.41460    0.77540    0.29080    1.000
    C1267    C        0.27122    0.66402    0.53834    1.000
    C1268    C        0.29402    0.76534    0.42524    1.000
    H1269    H        0.27480    0.78760    0.42480    1.000
    C1270    C        0.32205    0.76215    0.39315    1.000
    C1271    C        0.35069    0.72907    0.39385    1.000
    H1272    H        0.37060    0.72620    0.37240    1.000
    C1273    C        0.34915    0.70099    0.42629    1.000
    H1274    H        0.36770    0.67810    0.42770    1.000
    C1275    C        0.31994    0.70664    0.45714    1.000
    H1276    H        0.31930    0.68710    0.47930    1.000
    C1277    C        0.32249    0.79391    0.35971    1.000
    C1278    C        0.29735    0.85329    0.33185    1.000
    C1279    C        0.34870    0.81976    0.30000    1.000
    C1280    C        0.26944    0.88858    0.33380    1.000
    C1281    C        0.24042    0.89248    0.36558    1.000
    H1282    H        0.23770    0.87210    0.38690    1.000
    C1283    C        0.21583    0.92649    0.36531    1.000
    H1284    H        0.19580    0.93000    0.38640    1.000
    C1285    C        0.22073    0.95605    0.33331    1.000
    H1286    H        0.20360    0.97940    0.33340    1.000
    C1287    C        0.27208    0.91964    0.30340    1.000
    H1288    H        0.29180    0.91700    0.28200    1.000
    C1289    C        0.29626    0.94716    0.20246    1.000
    C1290    C        0.20382    0.96152    0.26166    1.000
    H1291    H        0.22600    0.94200    0.25980    1.000
    C1292    C        0.17369    0.95577    0.26927    1.000
    H1293    H        0.17500    0.93280    0.27260    1.000
    C1294    C        0.14052    0.98426    0.27210    1.000
    H1295    H        0.11900    0.98100    0.27760    1.000
    C1296    C        0.14030    0.01760    0.26644    1.000
    C1297    C        0.17212    0.02120    0.25906    1.000
    H1298    H        0.17150    0.04390    0.25570    1.000
    C1299    C        0.10651    0.04917    0.26751    1.000
    N1300    N        0.25557    0.69531    0.53015    1.000
    N1301    N        0.44284    0.79040    0.23886    1.000
    N1302    N        0.29300    0.73794    0.45710    1.000
    N1303    N        0.34978    0.78996    0.32928    1.000
    N1304    N        0.32270    0.85226    0.29962    1.000
    N1305    N        0.29538    0.82502    0.36276    1.000
    N1306    N        0.24848    0.95268    0.30276    1.000
    N1307    N        0.28186    0.96450    0.22062    1.000
    N1308    N        0.20405    0.99377    0.25645    1.000
    N1309    N        0.07871    0.04643    0.26767    1.000
    S1310    S        0.29494    0.62139    0.54900    1.000
    S1311    S        0.31677    0.92277    0.17669    1.000
    C1327    C        0.20656    0.04032    0.43942    1.000
    H1328    H        0.18570    0.04170    0.46030    1.000
    C1329    C        0.20194    0.05110    0.40740    1.000
    H1330    H        0.17840    0.05980    0.40640    1.000
    C1331    C        0.23226    0.04930    0.37596    1.000
    H1332    H        0.22990    0.05610    0.35350    1.000
    C1333    C        0.26590    0.03722    0.37914    1.000
    C1334    C        0.26779    0.02713    0.41281    1.000
    H1335    H        0.29080    0.01920    0.41460    1.000
    C1336    C        0.53834    0.02642    0.27122    1.000
    C1337    C        0.42524    0.01540    0.29402    1.000
    H1338    H        0.42480    0.01280    0.27480    1.000
    C1339    C        0.39315    0.02265    0.32205    1.000
    C1340    C        0.39385    0.02639    0.35069    1.000
    H1341    H        0.37240    0.03080    0.37060    1.000
    C1342    C        0.42629    0.02357    0.34915    1.000
    H1343    H        0.42770    0.02650    0.36770    1.000
    C1344    C        0.45714    0.01628    0.31994    1.000
    H1345    H        0.47930    0.01430    0.31930    1.000
    C1346    C        0.35971    0.02389    0.32249    1.000
    C1347    C        0.33185    0.01751    0.29735    1.000
    C1348    C        0.30000    0.03154    0.34870    1.000
    C1349    C        0.33380    0.00818    0.26944    1.000
    C1350    C        0.36558    0.00152    0.24042    1.000
    H1351    H        0.38690    0.00330    0.23770    1.000
    C1352    C        0.36531    0.99237    0.21583    1.000
    H1353    H        0.38640    0.98780    0.19580    1.000
    C1354    C        0.33331    0.98991    0.22073    1.000
    H1355    H        0.33340    0.98360    0.20360    1.000
    C1356    C        0.30340    0.00488    0.27208    1.000
    H1357    H        0.28200    0.00920    0.29180    1.000
    C1358    C        0.20246    0.05412    0.29626    1.000
    C1359    C        0.26166    0.07300    0.20382    1.000
    H1360    H        0.25980    0.07220    0.22600    1.000
    C1361    C        0.26927    0.10127    0.17369    1.000
    H1362    H        0.27260    0.11960    0.17500    1.000
    C1363    C        0.27210    0.10312    0.14052    1.000
    H1364    H        0.27760    0.12240    0.11900    1.000
    C1365    C        0.26644    0.07566    0.14030    1.000
    C1366    C        0.25906    0.04762    0.17212    1.000
    H1367    H        0.25570    0.02890    0.17150    1.000
    C1368    C        0.26751    0.07681    0.10651    1.000
    N1369    N        0.53015    0.01897    0.25557    1.000
    N1370    N        0.23886    0.02790    0.44284    1.000
    N1371    N        0.45710    0.01196    0.29300    1.000
    N1372    N        0.32928    0.03098    0.34978    1.000
    N1373    N        0.29962    0.02542    0.32270    1.000
    N1374    N        0.36276    0.01684    0.29538    1.000
    N1375    N        0.30276    0.99608    0.24848    1.000
    N1376    N        0.22062    0.03302    0.28186    1.000
    N1377    N        0.25645    0.04573    0.20405    1.000
    N1378    N        0.26767    0.10719    0.07871    1.000
    S1379    S        0.54900    0.03466    0.29494    1.000
    S1380    S        0.17669    0.08377    0.31677    1.000
    C1396    C        0.20656    0.81370    0.04032    1.000
    H1397    H        0.18570    0.81230    0.04170    1.000
    C1398    C        0.20194    0.83956    0.05110    1.000
    H1399    H        0.17840    0.85540    0.05980    1.000
    C1400    C        0.23226    0.84248    0.04930    1.000
    H1401    H        0.22990    0.86050    0.05610    1.000
    C1402    C        0.26590    0.81774    0.03722    1.000
    C1403    C        0.26779    0.79227    0.02713    1.000
    H1404    H        0.29080    0.77540    0.01920    1.000
    C1405    C        0.53834    0.66402    0.02642    1.000
    C1406    C        0.42524    0.76534    0.01540    1.000
    H1407    H        0.42480    0.78760    0.01280    1.000
    C1408    C        0.39315    0.76215    0.02265    1.000
    C1409    C        0.39385    0.72907    0.02639    1.000
    H1410    H        0.37240    0.72620    0.03080    1.000
    C1411    C        0.42629    0.70099    0.02357    1.000
    H1412    H        0.42770    0.67810    0.02650    1.000
    C1413    C        0.45714    0.70664    0.01628    1.000
    H1414    H        0.47930    0.68710    0.01430    1.000
    C1415    C        0.35971    0.79391    0.02389    1.000
    C1416    C        0.33185    0.85329    0.01751    1.000
    C1417    C        0.30000    0.81976    0.03154    1.000
    C1418    C        0.33380    0.88858    0.00818    1.000
    C1419    C        0.36558    0.89248    0.00152    1.000
    H1420    H        0.38690    0.87210    0.00330    1.000
    C1421    C        0.36531    0.92649    0.99237    1.000
    H1422    H        0.38640    0.93000    0.98780    1.000
    C1423    C        0.33331    0.95605    0.98991    1.000
    H1424    H        0.33340    0.97940    0.98360    1.000
    C1425    C        0.30340    0.91964    0.00488    1.000
    H1426    H        0.28200    0.91700    0.00920    1.000
    C1427    C        0.20246    0.94716    0.05412    1.000
    C1428    C        0.26166    0.96152    0.07300    1.000
    H1429    H        0.25980    0.94200    0.07220    1.000
    C1430    C        0.26927    0.95577    0.10127    1.000
    H1431    H        0.27260    0.93280    0.11960    1.000
    C1432    C        0.27210    0.98426    0.10312    1.000
    H1433    H        0.27760    0.98100    0.12240    1.000
    C1434    C        0.26644    0.01760    0.07566    1.000
    C1435    C        0.25906    0.02120    0.04762    1.000
    H1436    H        0.25570    0.04390    0.02890    1.000
    C1437    C        0.26751    0.04917    0.07681    1.000
    N1438    N        0.53015    0.69531    0.01897    1.000
    N1439    N        0.23886    0.79040    0.02790    1.000
    N1440    N        0.45710    0.73794    0.01196    1.000
    N1441    N        0.32928    0.78996    0.03098    1.000
    N1442    N        0.29962    0.85226    0.02542    1.000
    N1443    N        0.36276    0.82502    0.01684    1.000
    N1444    N        0.30276    0.95268    0.99608    1.000
    N1445    N        0.22062    0.96450    0.03302    1.000
    N1446    N        0.25645    0.99377    0.04573    1.000
    N1447    N        0.26767    0.04643    0.10719    1.000
    S1448    S        0.54900    0.62139    0.03466    1.000
    S1449    S        0.17669    0.92277    0.08377    1.000
    C1465    C        0.43942    0.04032    0.81370    1.000
    H1466    H        0.46030    0.04170    0.81230    1.000
    C1467    C        0.40740    0.05110    0.83956    1.000
    H1468    H        0.40640    0.05980    0.85540    1.000
    C1469    C        0.37596    0.04930    0.84248    1.000
    H1470    H        0.35350    0.05610    0.86050    1.000
    C1471    C        0.37914    0.03722    0.81774    1.000
    C1472    C        0.41281    0.02713    0.79227    1.000
    H1473    H        0.41460    0.01920    0.77540    1.000
    C1474    C        0.27122    0.02642    0.66402    1.000
    C1475    C        0.29402    0.01540    0.76534    1.000
    H1476    H        0.27480    0.01280    0.78760    1.000
    C1477    C        0.32205    0.02265    0.76215    1.000
    C1478    C        0.35069    0.02639    0.72907    1.000
    H1479    H        0.37060    0.03080    0.72620    1.000
    C1480    C        0.34915    0.02357    0.70099    1.000
    H1481    H        0.36770    0.02650    0.67810    1.000
    C1482    C        0.31994    0.01628    0.70664    1.000
    H1483    H        0.31930    0.01430    0.68710    1.000
    C1484    C        0.32249    0.02389    0.79391    1.000
    C1485    C        0.29735    0.01751    0.85329    1.000
    C1486    C        0.34870    0.03154    0.81976    1.000
    C1487    C        0.26944    0.00818    0.88858    1.000
    C1488    C        0.24042    0.00152    0.89248    1.000
    H1489    H        0.23770    0.00330    0.87210    1.000
    C1490    C        0.21583    0.99237    0.92649    1.000
    H1491    H        0.19580    0.98780    0.93000    1.000
    C1492    C        0.22073    0.98991    0.95605    1.000
    H1493    H        0.20360    0.98360    0.97940    1.000
    C1494    C        0.27208    0.00488    0.91964    1.000
    H1495    H        0.29180    0.00920    0.91700    1.000
    C1496    C        0.29626    0.05412    0.94716    1.000
    C1497    C        0.20382    0.07300    0.96152    1.000
    H1498    H        0.22600    0.07220    0.94200    1.000
    C1499    C        0.17369    0.10127    0.95577    1.000
    H1500    H        0.17500    0.11960    0.93280    1.000
    C1501    C        0.14052    0.10312    0.98426    1.000
    H1502    H        0.11900    0.12240    0.98100    1.000
    C1503    C        0.14030    0.07566    0.01760    1.000
    C1504    C        0.17212    0.04762    0.02120    1.000
    H1505    H        0.17150    0.02890    0.04390    1.000
    C1506    C        0.10651    0.07681    0.04917    1.000
    N1507    N        0.25557    0.01897    0.69531    1.000
    N1508    N        0.44284    0.02790    0.79040    1.000
    N1509    N        0.29300    0.01196    0.73794    1.000
    N1510    N        0.34978    0.03098    0.78996    1.000
    N1511    N        0.32270    0.02542    0.85226    1.000
    N1512    N        0.29538    0.01684    0.82502    1.000
    N1513    N        0.24848    0.99608    0.95268    1.000
    N1514    N        0.28186    0.03302    0.96450    1.000
    N1515    N        0.20405    0.04573    0.99377    1.000
    N1516    N        0.07871    0.10719    0.04643    1.000
    S1517    S        0.29494    0.03466    0.62139    1.000
    S1518    S        0.31677    0.08377    0.92277    1.000
    C1534    C        0.04032    0.43942    0.20656    1.000
    H1535    H        0.04170    0.46030    0.18570    1.000
    C1536    C        0.05110    0.40740    0.20194    1.000
    H1537    H        0.05980    0.40640    0.17840    1.000
    C1538    C        0.04930    0.37596    0.23226    1.000
    H1539    H        0.05610    0.35350    0.22990    1.000
    C1540    C        0.03722    0.37914    0.26590    1.000
    C1541    C        0.02713    0.41281    0.26779    1.000
    H1542    H        0.01920    0.41460    0.29080    1.000
    C1543    C        0.02642    0.27122    0.53834    1.000
    C1544    C        0.01540    0.29402    0.42524    1.000
    H1545    H        0.01280    0.27480    0.42480    1.000
    C1546    C        0.02265    0.32205    0.39315    1.000
    C1547    C        0.02639    0.35069    0.39385    1.000
    H1548    H        0.03080    0.37060    0.37240    1.000
    C1549    C        0.02357    0.34915    0.42629    1.000
    H1550    H        0.02650    0.36770    0.42770    1.000
    C1551    C        0.01628    0.31994    0.45714    1.000
    H1552    H        0.01430    0.31930    0.47930    1.000
    C1553    C        0.02389    0.32249    0.35971    1.000
    C1554    C        0.01751    0.29735    0.33185    1.000
    C1555    C        0.03154    0.34870    0.30000    1.000
    C1556    C        0.00818    0.26944    0.33380    1.000
    C1557    C        0.00152    0.24042    0.36558    1.000
    H1558    H        0.00330    0.23770    0.38690    1.000
    C1559    C        0.99237    0.21583    0.36531    1.000
    H1560    H        0.98780    0.19580    0.38640    1.000
    C1561    C        0.98991    0.22073    0.33331    1.000
    H1562    H        0.98360    0.20360    0.33340    1.000
    C1563    C        0.00488    0.27208    0.30340    1.000
    H1564    H        0.00920    0.29180    0.28200    1.000
    C1565    C        0.05412    0.29626    0.20246    1.000
    C1566    C        0.07300    0.20382    0.26166    1.000
    H1567    H        0.07220    0.22600    0.25980    1.000
    C1568    C        0.10127    0.17369    0.26927    1.000
    H1569    H        0.11960    0.17500    0.27260    1.000
    C1570    C        0.10312    0.14052    0.27210    1.000
    H1571    H        0.12240    0.11900    0.27760    1.000
    C1572    C        0.07566    0.14030    0.26644    1.000
    C1573    C        0.04762    0.17212    0.25906    1.000
    H1574    H        0.02890    0.17150    0.25570    1.000
    C1575    C        0.07681    0.10651    0.26751    1.000
    N1576    N        0.01897    0.25557    0.53015    1.000
    N1577    N        0.02790    0.44284    0.23886    1.000
    N1578    N        0.01196    0.29300    0.45710    1.000
    N1579    N        0.03098    0.34978    0.32928    1.000
    N1580    N        0.02542    0.32270    0.29962    1.000
    N1581    N        0.01684    0.29538    0.36276    1.000
    N1582    N        0.99608    0.24848    0.30276    1.000
    N1583    N        0.03302    0.28186    0.22062    1.000
    N1584    N        0.04573    0.20405    0.25645    1.000
    N1585    N        0.10719    0.07871    0.26767    1.000
    S1586    S        0.03466    0.29494    0.54900    1.000
    S1587    S        0.08377    0.31677    0.17669    1.000
    C1603    C        0.81370    0.20656    0.43942    1.000
    H1604    H        0.81230    0.18570    0.46030    1.000
    C1605    C        0.83956    0.20194    0.40740    1.000
    H1606    H        0.85540    0.17840    0.40640    1.000
    C1607    C        0.84248    0.23226    0.37596    1.000
    H1608    H        0.86050    0.22990    0.35350    1.000
    C1609    C        0.81774    0.26590    0.37914    1.000
    C1610    C        0.79227    0.26779    0.41281    1.000
    H1611    H        0.77540    0.29080    0.41460    1.000
    C1612    C        0.66402    0.53834    0.27122    1.000
    C1613    C        0.76534    0.42524    0.29402    1.000
    H1614    H        0.78760    0.42480    0.27480    1.000
    C1615    C        0.76215    0.39315    0.32205    1.000
    C1616    C        0.72907    0.39385    0.35069    1.000
    H1617    H        0.72620    0.37240    0.37060    1.000
    C1618    C        0.70099    0.42629    0.34915    1.000
    H1619    H        0.67810    0.42770    0.36770    1.000
    C1620    C        0.70664    0.45714    0.31994    1.000
    H1621    H        0.68710    0.47930    0.31930    1.000
    C1622    C        0.79391    0.35971    0.32249    1.000
    C1623    C        0.85329    0.33185    0.29735    1.000
    C1624    C        0.81976    0.30000    0.34870    1.000
    C1625    C        0.88858    0.33380    0.26944    1.000
    C1626    C        0.89248    0.36558    0.24042    1.000
    H1627    H        0.87210    0.38690    0.23770    1.000
    C1628    C        0.92649    0.36531    0.21583    1.000
    H1629    H        0.93000    0.38640    0.19580    1.000
    C1630    C        0.95605    0.33331    0.22073    1.000
    H1631    H        0.97940    0.33340    0.20360    1.000
    C1632    C        0.91964    0.30340    0.27208    1.000
    H1633    H        0.91700    0.28200    0.29180    1.000
    C1634    C        0.94716    0.20246    0.29626    1.000
    C1635    C        0.96152    0.26166    0.20382    1.000
    H1636    H        0.94200    0.25980    0.22600    1.000
    C1637    C        0.95577    0.26927    0.17369    1.000
    H1638    H        0.93280    0.27260    0.17500    1.000
    C1639    C        0.98426    0.27210    0.14052    1.000
    H1640    H        0.98100    0.27760    0.11900    1.000
    C1641    C        0.01760    0.26644    0.14030    1.000
    C1642    C        0.02120    0.25906    0.17212    1.000
    H1643    H        0.04390    0.25570    0.17150    1.000
    C1644    C        0.04917    0.26751    0.10651    1.000
    N1645    N        0.69531    0.53015    0.25557    1.000
    N1646    N        0.79040    0.23886    0.44284    1.000
    N1647    N        0.73794    0.45710    0.29300    1.000
    N1648    N        0.78996    0.32928    0.34978    1.000
    N1649    N        0.85226    0.29962    0.32270    1.000
    N1650    N        0.82502    0.36276    0.29538    1.000
    N1651    N        0.95268    0.30276    0.24848    1.000
    N1652    N        0.96450    0.22062    0.28186    1.000
    N1653    N        0.99377    0.25645    0.20405    1.000
    N1654    N        0.04643    0.26767    0.07871    1.000
    S1655    S        0.62139    0.54900    0.29494    1.000
    S1656    S        0.92277    0.17669    0.31677    1.000
    C1672    C        0.93942    0.70656    0.31370    1.000
    H1673    H        0.96030    0.68570    0.31230    1.000
    C1674    C        0.90740    0.70194    0.33956    1.000
    H1675    H        0.90640    0.67840    0.35540    1.000
    C1676    C        0.87596    0.73226    0.34248    1.000
    H1677    H        0.85350    0.72990    0.36050    1.000
    C1678    C        0.87914    0.76590    0.31774    1.000
    C1679    C        0.91281    0.76779    0.29227    1.000
    H1680    H        0.91460    0.79080    0.27540    1.000
    C1681    C        0.77122    0.03834    0.16402    1.000
    C1682    C        0.79402    0.92524    0.26534    1.000
    H1683    H        0.77480    0.92480    0.28760    1.000
    C1684    C        0.82205    0.89315    0.26215    1.000
    C1685    C        0.85069    0.89385    0.22907    1.000
    H1686    H        0.87060    0.87240    0.22620    1.000
    C1687    C        0.84915    0.92629    0.20099    1.000
    H1688    H        0.86770    0.92770    0.17810    1.000
    C1689    C        0.81994    0.95714    0.20664    1.000
    H1690    H        0.81930    0.97930    0.18710    1.000
    C1691    C        0.82249    0.85971    0.29391    1.000
    C1692    C        0.79735    0.83185    0.35329    1.000
    C1693    C        0.84870    0.80000    0.31976    1.000
    C1694    C        0.76944    0.83380    0.38858    1.000
    C1695    C        0.74042    0.86558    0.39248    1.000
    H1696    H        0.73770    0.88690    0.37210    1.000
    C1697    C        0.71583    0.86531    0.42649    1.000
    H1698    H        0.69580    0.88640    0.43000    1.000
    C1699    C        0.72073    0.83331    0.45605    1.000
    H1700    H        0.70360    0.83340    0.47940    1.000
    C1701    C        0.77208    0.80340    0.41964    1.000
    H1702    H        0.79180    0.78200    0.41700    1.000
    C1703    C        0.79626    0.70246    0.44716    1.000
    C1704    C        0.70382    0.76166    0.46152    1.000
    H1705    H        0.72600    0.75980    0.44200    1.000
    C1706    C        0.67369    0.76927    0.45577    1.000
    H1707    H        0.67500    0.77260    0.43280    1.000
    C1708    C        0.64052    0.77210    0.48426    1.000
    H1709    H        0.61900    0.77760    0.48100    1.000
    C1710    C        0.64030    0.76644    0.51760    1.000
    C1711    C        0.67212    0.75906    0.52120    1.000
    H1712    H        0.67150    0.75570    0.54390    1.000
    C1713    C        0.60651    0.76751    0.54917    1.000
    N1714    N        0.75557    0.03015    0.19531    1.000
    N1715    N        0.94284    0.73886    0.29040    1.000
    N1716    N        0.79300    0.95710    0.23794    1.000
    N1717    N        0.84978    0.82928    0.28996    1.000
    N1718    N        0.82270    0.79962    0.35226    1.000
    N1719    N        0.79538    0.86276    0.32502    1.000
    N1720    N        0.74848    0.80276    0.45268    1.000
    N1721    N        0.78186    0.72062    0.46450    1.000
    N1722    N        0.70405    0.75645    0.49377    1.000
    N1723    N        0.57871    0.76767    0.54643    1.000
    S1724    S        0.79494    0.04900    0.12139    1.000
    S1725    S        0.81677    0.67669    0.42277    1.000
    C1741    C        0.70656    0.93942    0.54032    1.000
    H1742    H        0.68570    0.96030    0.54170    1.000
    C1743    C        0.70194    0.90740    0.55110    1.000
    H1744    H        0.67840    0.90640    0.55980    1.000
    C1745    C        0.73226    0.87596    0.54930    1.000
    H1746    H        0.72990    0.85350    0.55610    1.000
    C1747    C        0.76590    0.87914    0.53722    1.000
    C1748    C        0.76779    0.91281    0.52713    1.000
    H1749    H        0.79080    0.91460    0.51920    1.000
    C1750    C        0.03834    0.77122    0.52642    1.000
    C1751    C        0.92524    0.79402    0.51540    1.000
    H1752    H        0.92480    0.77480    0.51280    1.000
    C1753    C        0.89315    0.82205    0.52265    1.000
    C1754    C        0.89385    0.85069    0.52639    1.000
    H1755    H        0.87240    0.87060    0.53080    1.000
    C1756    C        0.92629    0.84915    0.52357    1.000
    H1757    H        0.92770    0.86770    0.52650    1.000
    C1758    C        0.95714    0.81994    0.51628    1.000
    H1759    H        0.97930    0.81930    0.51430    1.000
    C1760    C        0.85971    0.82249    0.52389    1.000
    C1761    C        0.83185    0.79735    0.51751    1.000
    C1762    C        0.80000    0.84870    0.53154    1.000
    C1763    C        0.83380    0.76944    0.50818    1.000
    C1764    C        0.86558    0.74042    0.50152    1.000
    H1765    H        0.88690    0.73770    0.50330    1.000
    C1766    C        0.86531    0.71583    0.49237    1.000
    H1767    H        0.88640    0.69580    0.48780    1.000
    C1768    C        0.83331    0.72073    0.48991    1.000
    H1769    H        0.83340    0.70360    0.48360    1.000
    C1770    C        0.80340    0.77208    0.50488    1.000
    H1771    H        0.78200    0.79180    0.50920    1.000
    C1772    C        0.70246    0.79626    0.55412    1.000
    C1773    C        0.76166    0.70382    0.57300    1.000
    H1774    H        0.75980    0.72600    0.57220    1.000
    C1775    C        0.76927    0.67369    0.60127    1.000
    H1776    H        0.77260    0.67500    0.61960    1.000
    C1777    C        0.77210    0.64052    0.60312    1.000
    H1778    H        0.77760    0.61900    0.62240    1.000
    C1779    C        0.76644    0.64030    0.57566    1.000
    C1780    C        0.75906    0.67212    0.54762    1.000
    H1781    H        0.75570    0.67150    0.52890    1.000
    C1782    C        0.76751    0.60651    0.57681    1.000
    N1783    N        0.03015    0.75557    0.51897    1.000
    N1784    N        0.73886    0.94284    0.52790    1.000
    N1785    N        0.95710    0.79300    0.51196    1.000
    N1786    N        0.82928    0.84978    0.53098    1.000
    N1787    N        0.79962    0.82270    0.52542    1.000
    N1788    N        0.86276    0.79538    0.51684    1.000
    N1789    N        0.80276    0.74848    0.49608    1.000
    N1790    N        0.72062    0.78186    0.53302    1.000
    N1791    N        0.75645    0.70405    0.54573    1.000
    N1792    N        0.76767    0.57871    0.60719    1.000
    S1793    S        0.04900    0.79494    0.53466    1.000
    S1794    S        0.67669    0.81677    0.58377    1.000
    C1810    C        0.31370    0.54032    0.93942    1.000
    H1811    H        0.31230    0.54170    0.96030    1.000
    C1812    C        0.33956    0.55110    0.90740    1.000
    H1813    H        0.35540    0.55980    0.90640    1.000
    C1814    C        0.34248    0.54930    0.87596    1.000
    H1815    H        0.36050    0.55610    0.85350    1.000
    C1816    C        0.31774    0.53722    0.87914    1.000
    C1817    C        0.29227    0.52713    0.91281    1.000
    H1818    H        0.27540    0.51920    0.91460    1.000
    C1819    C        0.16402    0.52642    0.77122    1.000
    C1820    C        0.26534    0.51540    0.79402    1.000
    H1821    H        0.28760    0.51280    0.77480    1.000
    C1822    C        0.26215    0.52265    0.82205    1.000
    C1823    C        0.22907    0.52639    0.85069    1.000
    H1824    H        0.22620    0.53080    0.87060    1.000
    C1825    C        0.20099    0.52357    0.84915    1.000
    H1826    H        0.17810    0.52650    0.86770    1.000
    C1827    C        0.20664    0.51628    0.81994    1.000
    H1828    H        0.18710    0.51430    0.81930    1.000
    C1829    C        0.29391    0.52389    0.82249    1.000
    C1830    C        0.35329    0.51751    0.79735    1.000
    C1831    C        0.31976    0.53154    0.84870    1.000
    C1832    C        0.38858    0.50818    0.76944    1.000
    C1833    C        0.39248    0.50152    0.74042    1.000
    H1834    H        0.37210    0.50330    0.73770    1.000
    C1835    C        0.42649    0.49237    0.71583    1.000
    H1836    H        0.43000    0.48780    0.69580    1.000
    C1837    C        0.45605    0.48991    0.72073    1.000
    H1838    H        0.47940    0.48360    0.70360    1.000
    C1839    C        0.41964    0.50488    0.77208    1.000
    H1840    H        0.41700    0.50920    0.79180    1.000
    C1841    C        0.44716    0.55412    0.79626    1.000
    C1842    C        0.46152    0.57300    0.70382    1.000
    H1843    H        0.44200    0.57220    0.72600    1.000
    C1844    C        0.45577    0.60127    0.67369    1.000
    H1845    H        0.43280    0.61960    0.67500    1.000
    C1846    C        0.48426    0.60312    0.64052    1.000
    H1847    H        0.48100    0.62240    0.61900    1.000
    C1848    C        0.51760    0.57566    0.64030    1.000
    C1849    C        0.52120    0.54762    0.67212    1.000
    H1850    H        0.54390    0.52890    0.67150    1.000
    C1851    C        0.54917    0.57681    0.60651    1.000
    N1852    N        0.19531    0.51897    0.75557    1.000
    N1853    N        0.29040    0.52790    0.94284    1.000
    N1854    N        0.23794    0.51196    0.79300    1.000
    N1855    N        0.28996    0.53098    0.84978    1.000
    N1856    N        0.35226    0.52542    0.82270    1.000
    N1857    N        0.32502    0.51684    0.79538    1.000
    N1858    N        0.45268    0.49608    0.74848    1.000
    N1859    N        0.46450    0.53302    0.78186    1.000
    N1860    N        0.49377    0.54573    0.70405    1.000
    N1861    N        0.54643    0.60719    0.57871    1.000
    S1862    S        0.12139    0.53466    0.79494    1.000
    S1863    S        0.42277    0.58377    0.81677    1.000
    C1879    C        0.54032    0.31370    0.70656    1.000
    H1880    H        0.54170    0.31230    0.68570    1.000
    C1881    C        0.55110    0.33956    0.70194    1.000
    H1882    H        0.55980    0.35540    0.67840    1.000
    C1883    C        0.54930    0.34248    0.73226    1.000
    H1884    H        0.55610    0.36050    0.72990    1.000
    C1885    C        0.53722    0.31774    0.76590    1.000
    C1886    C        0.52713    0.29227    0.76779    1.000
    H1887    H        0.51920    0.27540    0.79080    1.000
    C1888    C        0.52642    0.16402    0.03834    1.000
    C1889    C        0.51540    0.26534    0.92524    1.000
    H1890    H        0.51280    0.28760    0.92480    1.000
    C1891    C        0.52265    0.26215    0.89315    1.000
    C1892    C        0.52639    0.22907    0.89385    1.000
    H1893    H        0.53080    0.22620    0.87240    1.000
    C1894    C        0.52357    0.20099    0.92629    1.000
    H1895    H        0.52650    0.17810    0.92770    1.000
    C1896    C        0.51628    0.20664    0.95714    1.000
    H1897    H        0.51430    0.18710    0.97930    1.000
    C1898    C        0.52389    0.29391    0.85971    1.000
    C1899    C        0.51751    0.35329    0.83185    1.000
    C1900    C        0.53154    0.31976    0.80000    1.000
    C1901    C        0.50818    0.38858    0.83380    1.000
    C1902    C        0.50152    0.39248    0.86558    1.000
    H1903    H        0.50330    0.37210    0.88690    1.000
    C1904    C        0.49237    0.42649    0.86531    1.000
    H1905    H        0.48780    0.43000    0.88640    1.000
    C1906    C        0.48991    0.45605    0.83331    1.000
    H1907    H        0.48360    0.47940    0.83340    1.000
    C1908    C        0.50488    0.41964    0.80340    1.000
    H1909    H        0.50920    0.41700    0.78200    1.000
    C1910    C        0.55412    0.44716    0.70246    1.000
    C1911    C        0.57300    0.46152    0.76166    1.000
    H1912    H        0.57220    0.44200    0.75980    1.000
    C1913    C        0.60127    0.45577    0.76927    1.000
    H1914    H        0.61960    0.43280    0.77260    1.000
    C1915    C        0.60312    0.48426    0.77210    1.000
    H1916    H        0.62240    0.48100    0.77760    1.000
    C1917    C        0.57566    0.51760    0.76644    1.000
    C1918    C        0.54762    0.52120    0.75906    1.000
    H1919    H        0.52890    0.54390    0.75570    1.000
    C1920    C        0.57681    0.54917    0.76751    1.000
    N1921    N        0.51897    0.19531    0.03015    1.000
    N1922    N        0.52790    0.29040    0.73886    1.000
    N1923    N        0.51196    0.23794    0.95710    1.000
    N1924    N        0.53098    0.28996    0.82928    1.000
    N1925    N        0.52542    0.35226    0.79962    1.000
    N1926    N        0.51684    0.32502    0.86276    1.000
    N1927    N        0.49608    0.45268    0.80276    1.000
    N1928    N        0.53302    0.46450    0.72062    1.000
    N1929    N        0.54573    0.49377    0.75645    1.000
    N1930    N        0.60719    0.54643    0.76767    1.000
    S1931    S        0.53466    0.12139    0.04900    1.000
    S1932    S        0.58377    0.42277    0.67669    1.000
    C1948    C        0.31370    0.93942    0.70656    1.000
    H1949    H        0.31230    0.96030    0.68570    1.000
    C1950    C        0.33956    0.90740    0.70194    1.000
    H1951    H        0.35540    0.90640    0.67840    1.000
    C1952    C        0.34248    0.87596    0.73226    1.000
    H1953    H        0.36050    0.85350    0.72990    1.000
    C1954    C        0.31774    0.87914    0.76590    1.000
    C1955    C        0.29227    0.91281    0.76779    1.000
    H1956    H        0.27540    0.91460    0.79080    1.000
    C1957    C        0.16402    0.77122    0.03834    1.000
    C1958    C        0.26534    0.79402    0.92524    1.000
    H1959    H        0.28760    0.77480    0.92480    1.000
    C1960    C        0.26215    0.82205    0.89315    1.000
    C1961    C        0.22907    0.85069    0.89385    1.000
    H1962    H        0.22620    0.87060    0.87240    1.000
    C1963    C        0.20099    0.84915    0.92629    1.000
    H1964    H        0.17810    0.86770    0.92770    1.000
    C1965    C        0.20664    0.81994    0.95714    1.000
    H1966    H        0.18710    0.81930    0.97930    1.000
    C1967    C        0.29391    0.82249    0.85971    1.000
    C1968    C        0.35329    0.79735    0.83185    1.000
    C1969    C        0.31976    0.84870    0.80000    1.000
    C1970    C        0.38858    0.76944    0.83380    1.000
    C1971    C        0.39248    0.74042    0.86558    1.000
    H1972    H        0.37210    0.73770    0.88690    1.000
    C1973    C        0.42649    0.71583    0.86531    1.000
    H1974    H        0.43000    0.69580    0.88640    1.000
    C1975    C        0.45605    0.72073    0.83331    1.000
    H1976    H        0.47940    0.70360    0.83340    1.000
    C1977    C        0.41964    0.77208    0.80340    1.000
    H1978    H        0.41700    0.79180    0.78200    1.000
    C1979    C        0.44716    0.79626    0.70246    1.000
    C1980    C        0.46152    0.70382    0.76166    1.000
    H1981    H        0.44200    0.72600    0.75980    1.000
    C1982    C        0.45577    0.67369    0.76927    1.000
    H1983    H        0.43280    0.67500    0.77260    1.000
    C1984    C        0.48426    0.64052    0.77210    1.000
    H1985    H        0.48100    0.61900    0.77760    1.000
    C1986    C        0.51760    0.64030    0.76644    1.000
    C1987    C        0.52120    0.67212    0.75906    1.000
    H1988    H        0.54390    0.67150    0.75570    1.000
    C1989    C        0.54917    0.60651    0.76751    1.000
    N1990    N        0.19531    0.75557    0.03015    1.000
    N1991    N        0.29040    0.94284    0.73886    1.000
    N1992    N        0.23794    0.79300    0.95710    1.000
    N1993    N        0.28996    0.84978    0.82928    1.000
    N1994    N        0.35226    0.82270    0.79962    1.000
    N1995    N        0.32502    0.79538    0.86276    1.000
    N1996    N        0.45268    0.74848    0.80276    1.000
    N1997    N        0.46450    0.78186    0.72062    1.000
    N1998    N        0.49377    0.70405    0.75645    1.000
    N1999    N        0.54643    0.57871    0.76767    1.000
    S2000    S        0.12139    0.79494    0.04900    1.000
    S2001    S        0.42277    0.81677    0.67669    1.000
    C2017    C        0.54032    0.70656    0.93942    1.000
    H2018    H        0.54170    0.68570    0.96030    1.000
    C2019    C        0.55110    0.70194    0.90740    1.000
    H2020    H        0.55980    0.67840    0.90640    1.000
    C2021    C        0.54930    0.73226    0.87596    1.000
    H2022    H        0.55610    0.72990    0.85350    1.000
    C2023    C        0.53722    0.76590    0.87914    1.000
    C2024    C        0.52713    0.76779    0.91281    1.000
    H2025    H        0.51920    0.79080    0.91460    1.000
    C2026    C        0.52642    0.03834    0.77122    1.000
    C2027    C        0.51540    0.92524    0.79402    1.000
    H2028    H        0.51280    0.92480    0.77480    1.000
    C2029    C        0.52265    0.89315    0.82205    1.000
    C2030    C        0.52639    0.89385    0.85069    1.000
    H2031    H        0.53080    0.87240    0.87060    1.000
    C2032    C        0.52357    0.92629    0.84915    1.000
    H2033    H        0.52650    0.92770    0.86770    1.000
    C2034    C        0.51628    0.95714    0.81994    1.000
    H2035    H        0.51430    0.97930    0.81930    1.000
    C2036    C        0.52389    0.85971    0.82249    1.000
    C2037    C        0.51751    0.83185    0.79735    1.000
    C2038    C        0.53154    0.80000    0.84870    1.000
    C2039    C        0.50818    0.83380    0.76944    1.000
    C2040    C        0.50152    0.86558    0.74042    1.000
    H2041    H        0.50330    0.88690    0.73770    1.000
    C2042    C        0.49237    0.86531    0.71583    1.000
    H2043    H        0.48780    0.88640    0.69580    1.000
    C2044    C        0.48991    0.83331    0.72073    1.000
    H2045    H        0.48360    0.83340    0.70360    1.000
    C2046    C        0.50488    0.80340    0.77208    1.000
    H2047    H        0.50920    0.78200    0.79180    1.000
    C2048    C        0.55412    0.70246    0.79626    1.000
    C2049    C        0.57300    0.76166    0.70382    1.000
    H2050    H        0.57220    0.75980    0.72600    1.000
    C2051    C        0.60127    0.76927    0.67369    1.000
    H2052    H        0.61960    0.77260    0.67500    1.000
    C2053    C        0.60312    0.77210    0.64052    1.000
    H2054    H        0.62240    0.77760    0.61900    1.000
    C2055    C        0.57566    0.76644    0.64030    1.000
    C2056    C        0.54762    0.75906    0.67212    1.000
    H2057    H        0.52890    0.75570    0.67150    1.000
    C2058    C        0.57681    0.76751    0.60651    1.000
    N2059    N        0.51897    0.03015    0.75557    1.000
    N2060    N        0.52790    0.73886    0.94284    1.000
    N2061    N        0.51196    0.95710    0.79300    1.000
    N2062    N        0.53098    0.82928    0.84978    1.000
    N2063    N        0.52542    0.79962    0.82270    1.000
    N2064    N        0.51684    0.86276    0.79538    1.000
    N2065    N        0.49608    0.80276    0.74848    1.000
    N2066    N        0.53302    0.72062    0.78186    1.000
    N2067    N        0.54573    0.75645    0.70405    1.000
    N2068    N        0.60719    0.76767    0.57871    1.000
    S2069    S        0.53466    0.04900    0.79494    1.000
    S2070    S        0.58377    0.67669    0.81677    1.000
    C2086    C        0.93942    0.31370    0.54032    1.000
    H2087    H        0.96030    0.31230    0.54170    1.000
    C2088    C        0.90740    0.33956    0.55110    1.000
    H2089    H        0.90640    0.35540    0.55980    1.000
    C2090    C        0.87596    0.34248    0.54930    1.000
    H2091    H        0.85350    0.36050    0.55610    1.000
    C2092    C        0.87914    0.31774    0.53722    1.000
    C2093    C        0.91281    0.29227    0.52713    1.000
    H2094    H        0.91460    0.27540    0.51920    1.000
    C2095    C        0.77122    0.16402    0.52642    1.000
    C2096    C        0.79402    0.26534    0.51540    1.000
    H2097    H        0.77480    0.28760    0.51280    1.000
    C2098    C        0.82205    0.26215    0.52265    1.000
    C2099    C        0.85069    0.22907    0.52639    1.000
    H2100    H        0.87060    0.22620    0.53080    1.000
    C2101    C        0.84915    0.20099    0.52357    1.000
    H2102    H        0.86770    0.17810    0.52650    1.000
    C2103    C        0.81994    0.20664    0.51628    1.000
    H2104    H        0.81930    0.18710    0.51430    1.000
    C2105    C        0.82249    0.29391    0.52389    1.000
    C2106    C        0.79735    0.35329    0.51751    1.000
    C2107    C        0.84870    0.31976    0.53154    1.000
    C2108    C        0.76944    0.38858    0.50818    1.000
    C2109    C        0.74042    0.39248    0.50152    1.000
    H2110    H        0.73770    0.37210    0.50330    1.000
    C2111    C        0.71583    0.42649    0.49237    1.000
    H2112    H        0.69580    0.43000    0.48780    1.000
    C2113    C        0.72073    0.45605    0.48991    1.000
    H2114    H        0.70360    0.47940    0.48360    1.000
    C2115    C        0.77208    0.41964    0.50488    1.000
    H2116    H        0.79180    0.41700    0.50920    1.000
    C2117    C        0.79626    0.44716    0.55412    1.000
    C2118    C        0.70382    0.46152    0.57300    1.000
    H2119    H        0.72600    0.44200    0.57220    1.000
    C2120    C        0.67369    0.45577    0.60127    1.000
    H2121    H        0.67500    0.43280    0.61960    1.000
    C2122    C        0.64052    0.48426    0.60312    1.000
    H2123    H        0.61900    0.48100    0.62240    1.000
    C2124    C        0.64030    0.51760    0.57566    1.000
    C2125    C        0.67212    0.52120    0.54762    1.000
    H2126    H        0.67150    0.54390    0.52890    1.000
    C2127    C        0.60651    0.54917    0.57681    1.000
    N2128    N        0.75557    0.19531    0.51897    1.000
    N2129    N        0.94284    0.29040    0.52790    1.000
    N2130    N        0.79300    0.23794    0.51196    1.000
    N2131    N        0.84978    0.28996    0.53098    1.000
    N2132    N        0.82270    0.35226    0.52542    1.000
    N2133    N        0.79538    0.32502    0.51684    1.000
    N2134    N        0.74848    0.45268    0.49608    1.000
    N2135    N        0.78186    0.46450    0.53302    1.000
    N2136    N        0.70405    0.49377    0.54573    1.000
    N2137    N        0.57871    0.54643    0.60719    1.000
    S2138    S        0.79494    0.12139    0.53466    1.000
    S2139    S        0.81677    0.42277    0.58377    1.000
    C2155    C        0.70656    0.54032    0.31370    1.000
    H2156    H        0.68570    0.54170    0.31230    1.000
    C2157    C        0.70194    0.55110    0.33956    1.000
    H2158    H        0.67840    0.55980    0.35540    1.000
    C2159    C        0.73226    0.54930    0.34248    1.000
    H2160    H        0.72990    0.55610    0.36050    1.000
    C2161    C        0.76590    0.53722    0.31774    1.000
    C2162    C        0.76779    0.52713    0.29227    1.000
    H2163    H        0.79080    0.51920    0.27540    1.000
    C2164    C        0.03834    0.52642    0.16402    1.000
    C2165    C        0.92524    0.51540    0.26534    1.000
    H2166    H        0.92480    0.51280    0.28760    1.000
    C2167    C        0.89315    0.52265    0.26215    1.000
    C2168    C        0.89385    0.52639    0.22907    1.000
    H2169    H        0.87240    0.53080    0.22620    1.000
    C2170    C        0.92629    0.52357    0.20099    1.000
    H2171    H        0.92770    0.52650    0.17810    1.000
    C2172    C        0.95714    0.51628    0.20664    1.000
    H2173    H        0.97930    0.51430    0.18710    1.000
    C2174    C        0.85971    0.52389    0.29391    1.000
    C2175    C        0.83185    0.51751    0.35329    1.000
    C2176    C        0.80000    0.53154    0.31976    1.000
    C2177    C        0.83380    0.50818    0.38858    1.000
    C2178    C        0.86558    0.50152    0.39248    1.000
    H2179    H        0.88690    0.50330    0.37210    1.000
    C2180    C        0.86531    0.49237    0.42649    1.000
    H2181    H        0.88640    0.48780    0.43000    1.000
    C2182    C        0.83331    0.48991    0.45605    1.000
    H2183    H        0.83340    0.48360    0.47940    1.000
    C2184    C        0.80340    0.50488    0.41964    1.000
    H2185    H        0.78200    0.50920    0.41700    1.000
    C2186    C        0.70246    0.55412    0.44716    1.000
    C2187    C        0.76166    0.57300    0.46152    1.000
    H2188    H        0.75980    0.57220    0.44200    1.000
    C2189    C        0.76927    0.60127    0.45577    1.000
    H2190    H        0.77260    0.61960    0.43280    1.000
    C2191    C        0.77210    0.60312    0.48426    1.000
    H2192    H        0.77760    0.62240    0.48100    1.000
    C2193    C        0.76644    0.57566    0.51760    1.000
    C2194    C        0.75906    0.54762    0.52120    1.000
    H2195    H        0.75570    0.52890    0.54390    1.000
    C2196    C        0.76751    0.57681    0.54917    1.000
    N2197    N        0.03015    0.51897    0.19531    1.000
    N2198    N        0.73886    0.52790    0.29040    1.000
    N2199    N        0.95710    0.51196    0.23794    1.000
    N2200    N        0.82928    0.53098    0.28996    1.000
    N2201    N        0.79962    0.52542    0.35226    1.000
    N2202    N        0.86276    0.51684    0.32502    1.000
    N2203    N        0.80276    0.49608    0.45268    1.000
    N2204    N        0.72062    0.53302    0.46450    1.000
    N2205    N        0.75645    0.54573    0.49377    1.000
    N2206    N        0.76767    0.60719    0.54643    1.000
    S2207    S        0.04900    0.53466    0.12139    1.000
    S2208    S        0.67669    0.58377    0.42277    1.000
    C2224    C        0.70656    0.31370    0.93942    1.000
    H2225    H        0.68570    0.31230    0.96030    1.000
    C2226    C        0.70194    0.33956    0.90740    1.000
    H2227    H        0.67840    0.35540    0.90640    1.000
    C2228    C        0.73226    0.34248    0.87596    1.000
    H2229    H        0.72990    0.36050    0.85350    1.000
    C2230    C        0.76590    0.31774    0.87914    1.000
    C2231    C        0.76779    0.29227    0.91281    1.000
    H2232    H        0.79080    0.27540    0.91460    1.000
    C2233    C        0.03834    0.16402    0.77122    1.000
    C2234    C        0.92524    0.26534    0.79402    1.000
    H2235    H        0.92480    0.28760    0.77480    1.000
    C2236    C        0.89315    0.26215    0.82205    1.000
    C2237    C        0.89385    0.22907    0.85069    1.000
    H2238    H        0.87240    0.22620    0.87060    1.000
    C2239    C        0.92629    0.20099    0.84915    1.000
    H2240    H        0.92770    0.17810    0.86770    1.000
    C2241    C        0.95714    0.20664    0.81994    1.000
    H2242    H        0.97930    0.18710    0.81930    1.000
    C2243    C        0.85971    0.29391    0.82249    1.000
    C2244    C        0.83185    0.35329    0.79735    1.000
    C2245    C        0.80000    0.31976    0.84870    1.000
    C2246    C        0.83380    0.38858    0.76944    1.000
    C2247    C        0.86558    0.39248    0.74042    1.000
    H2248    H        0.88690    0.37210    0.73770    1.000
    C2249    C        0.86531    0.42649    0.71583    1.000
    H2250    H        0.88640    0.43000    0.69580    1.000
    C2251    C        0.83331    0.45605    0.72073    1.000
    H2252    H        0.83340    0.47940    0.70360    1.000
    C2253    C        0.80340    0.41964    0.77208    1.000
    H2254    H        0.78200    0.41700    0.79180    1.000
    C2255    C        0.70246    0.44716    0.79626    1.000
    C2256    C        0.76166    0.46152    0.70382    1.000
    H2257    H        0.75980    0.44200    0.72600    1.000
    C2258    C        0.76927    0.45577    0.67369    1.000
    H2259    H        0.77260    0.43280    0.67500    1.000
    C2260    C        0.77210    0.48426    0.64052    1.000
    H2261    H        0.77760    0.48100    0.61900    1.000
    C2262    C        0.76644    0.51760    0.64030    1.000
    C2263    C        0.75906    0.52120    0.67212    1.000
    H2264    H        0.75570    0.54390    0.67150    1.000
    C2265    C        0.76751    0.54917    0.60651    1.000
    N2266    N        0.03015    0.19531    0.75557    1.000
    N2267    N        0.73886    0.29040    0.94284    1.000
    N2268    N        0.95710    0.23794    0.79300    1.000
    N2269    N        0.82928    0.28996    0.84978    1.000
    N2270    N        0.79962    0.35226    0.82270    1.000
    N2271    N        0.86276    0.32502    0.79538    1.000
    N2272    N        0.80276    0.45268    0.74848    1.000
    N2273    N        0.72062    0.46450    0.78186    1.000
    N2274    N        0.75645    0.49377    0.70405    1.000
    N2275    N        0.76767    0.54643    0.57871    1.000
    S2276    S        0.04900    0.12139    0.79494    1.000
    S2277    S        0.67669    0.42277    0.81677    1.000
    C2293    C        0.93942    0.54032    0.70656    1.000
    H2294    H        0.96030    0.54170    0.68570    1.000
    C2295    C        0.90740    0.55110    0.70194    1.000
    H2296    H        0.90640    0.55980    0.67840    1.000
    C2297    C        0.87596    0.54930    0.73226    1.000
    H2298    H        0.85350    0.55610    0.72990    1.000
    C2299    C        0.87914    0.53722    0.76590    1.000
    C2300    C        0.91281    0.52713    0.76779    1.000
    H2301    H        0.91460    0.51920    0.79080    1.000
    C2302    C        0.77122    0.52642    0.03834    1.000
    C2303    C        0.79402    0.51540    0.92524    1.000
    H2304    H        0.77480    0.51280    0.92480    1.000
    C2305    C        0.82205    0.52265    0.89315    1.000
    C2306    C        0.85069    0.52639    0.89385    1.000
    H2307    H        0.87060    0.53080    0.87240    1.000
    C2308    C        0.84915    0.52357    0.92629    1.000
    H2309    H        0.86770    0.52650    0.92770    1.000
    C2310    C        0.81994    0.51628    0.95714    1.000
    H2311    H        0.81930    0.51430    0.97930    1.000
    C2312    C        0.82249    0.52389    0.85971    1.000
    C2313    C        0.79735    0.51751    0.83185    1.000
    C2314    C        0.84870    0.53154    0.80000    1.000
    C2315    C        0.76944    0.50818    0.83380    1.000
    C2316    C        0.74042    0.50152    0.86558    1.000
    H2317    H        0.73770    0.50330    0.88690    1.000
    C2318    C        0.71583    0.49237    0.86531    1.000
    H2319    H        0.69580    0.48780    0.88640    1.000
    C2320    C        0.72073    0.48991    0.83331    1.000
    H2321    H        0.70360    0.48360    0.83340    1.000
    C2322    C        0.77208    0.50488    0.80340    1.000
    H2323    H        0.79180    0.50920    0.78200    1.000
    C2324    C        0.79626    0.55412    0.70246    1.000
    C2325    C        0.70382    0.57300    0.76166    1.000
    H2326    H        0.72600    0.57220    0.75980    1.000
    C2327    C        0.67369    0.60127    0.76927    1.000
    H2328    H        0.67500    0.61960    0.77260    1.000
    C2329    C        0.64052    0.60312    0.77210    1.000
    H2330    H        0.61900    0.62240    0.77760    1.000
    C2331    C        0.64030    0.57566    0.76644    1.000
    C2332    C        0.67212    0.54762    0.75906    1.000
    H2333    H        0.67150    0.52890    0.75570    1.000
    C2334    C        0.60651    0.57681    0.76751    1.000
    N2335    N        0.75557    0.51897    0.03015    1.000
    N2336    N        0.94284    0.52790    0.73886    1.000
    N2337    N        0.79300    0.51196    0.95710    1.000
    N2338    N        0.84978    0.53098    0.82928    1.000
    N2339    N        0.82270    0.52542    0.79962    1.000
    N2340    N        0.79538    0.51684    0.86276    1.000
    N2341    N        0.74848    0.49608    0.80276    1.000
    N2342    N        0.78186    0.53302    0.72062    1.000
    N2343    N        0.70405    0.54573    0.75645    1.000
    N2344    N        0.57871    0.60719    0.76767    1.000
    S2345    S        0.79494    0.53466    0.04900    1.000
    S2346    S        0.81677    0.58377    0.67669    1.000
    C2362    C        0.54032    0.93942    0.31370    1.000
    H2363    H        0.54170    0.96030    0.31230    1.000
    C2364    C        0.55110    0.90740    0.33956    1.000
    H2365    H        0.55980    0.90640    0.35540    1.000
    C2366    C        0.54930    0.87596    0.34248    1.000
    H2367    H        0.55610    0.85350    0.36050    1.000
    C2368    C        0.53722    0.87914    0.31774    1.000
    C2369    C        0.52713    0.91281    0.29227    1.000
    H2370    H        0.51920    0.91460    0.27540    1.000
    C2371    C        0.52642    0.77122    0.16402    1.000
    C2372    C        0.51540    0.79402    0.26534    1.000
    H2373    H        0.51280    0.77480    0.28760    1.000
    C2374    C        0.52265    0.82205    0.26215    1.000
    C2375    C        0.52639    0.85069    0.22907    1.000
    H2376    H        0.53080    0.87060    0.22620    1.000
    C2377    C        0.52357    0.84915    0.20099    1.000
    H2378    H        0.52650    0.86770    0.17810    1.000
    C2379    C        0.51628    0.81994    0.20664    1.000
    H2380    H        0.51430    0.81930    0.18710    1.000
    C2381    C        0.52389    0.82249    0.29391    1.000
    C2382    C        0.51751    0.79735    0.35329    1.000
    C2383    C        0.53154    0.84870    0.31976    1.000
    C2384    C        0.50818    0.76944    0.38858    1.000
    C2385    C        0.50152    0.74042    0.39248    1.000
    H2386    H        0.50330    0.73770    0.37210    1.000
    C2387    C        0.49237    0.71583    0.42649    1.000
    H2388    H        0.48780    0.69580    0.43000    1.000
    C2389    C        0.48991    0.72073    0.45605    1.000
    H2390    H        0.48360    0.70360    0.47940    1.000
    C2391    C        0.50488    0.77208    0.41964    1.000
    H2392    H        0.50920    0.79180    0.41700    1.000
    C2393    C        0.55412    0.79626    0.44716    1.000
    C2394    C        0.57300    0.70382    0.46152    1.000
    H2395    H        0.57220    0.72600    0.44200    1.000
    C2396    C        0.60127    0.67369    0.45577    1.000
    H2397    H        0.61960    0.67500    0.43280    1.000
    C2398    C        0.60312    0.64052    0.48426    1.000
    H2399    H        0.62240    0.61900    0.48100    1.000
    C2400    C        0.57566    0.64030    0.51760    1.000
    C2401    C        0.54762    0.67212    0.52120    1.000
    H2402    H        0.52890    0.67150    0.54390    1.000
    C2403    C        0.57681    0.60651    0.54917    1.000
    N2404    N        0.51897    0.75557    0.19531    1.000
    N2405    N        0.52790    0.94284    0.29040    1.000
    N2406    N        0.51196    0.79300    0.23794    1.000
    N2407    N        0.53098    0.84978    0.28996    1.000
    N2408    N        0.52542    0.82270    0.35226    1.000
    N2409    N        0.51684    0.79538    0.32502    1.000
    N2410    N        0.49608    0.74848    0.45268    1.000
    N2411    N        0.53302    0.78186    0.46450    1.000
    N2412    N        0.54573    0.70405    0.49377    1.000
    N2413    N        0.60719    0.57871    0.54643    1.000
    S2414    S        0.53466    0.79494    0.12139    1.000
    S2415    S        0.58377    0.81677    0.42277    1.000
    C2431    C        0.31370    0.70656    0.54032    1.000
    H2432    H        0.31230    0.68570    0.54170    1.000
    C2433    C        0.33956    0.70194    0.55110    1.000
    H2434    H        0.35540    0.67840    0.55980    1.000
    C2435    C        0.34248    0.73226    0.54930    1.000
    H2436    H        0.36050    0.72990    0.55610    1.000
    C2437    C        0.31774    0.76590    0.53722    1.000
    C2438    C        0.29227    0.76779    0.52713    1.000
    H2439    H        0.27540    0.79080    0.51920    1.000
    C2440    C        0.16402    0.03834    0.52642    1.000
    C2441    C        0.26534    0.92524    0.51540    1.000
    H2442    H        0.28760    0.92480    0.51280    1.000
    C2443    C        0.26215    0.89315    0.52265    1.000
    C2444    C        0.22907    0.89385    0.52639    1.000
    H2445    H        0.22620    0.87240    0.53080    1.000
    C2446    C        0.20099    0.92629    0.52357    1.000
    H2447    H        0.17810    0.92770    0.52650    1.000
    C2448    C        0.20664    0.95714    0.51628    1.000
    H2449    H        0.18710    0.97930    0.51430    1.000
    C2450    C        0.29391    0.85971    0.52389    1.000
    C2451    C        0.35329    0.83185    0.51751    1.000
    C2452    C        0.31976    0.80000    0.53154    1.000
    C2453    C        0.38858    0.83380    0.50818    1.000
    C2454    C        0.39248    0.86558    0.50152    1.000
    H2455    H        0.37210    0.88690    0.50330    1.000
    C2456    C        0.42649    0.86531    0.49237    1.000
    H2457    H        0.43000    0.88640    0.48780    1.000
    C2458    C        0.45605    0.83331    0.48991    1.000
    H2459    H        0.47940    0.83340    0.48360    1.000
    C2460    C        0.41964    0.80340    0.50488    1.000
    H2461    H        0.41700    0.78200    0.50920    1.000
    C2462    C        0.44716    0.70246    0.55412    1.000
    C2463    C        0.46152    0.76166    0.57300    1.000
    H2464    H        0.44200    0.75980    0.57220    1.000
    C2465    C        0.45577    0.76927    0.60127    1.000
    H2466    H        0.43280    0.77260    0.61960    1.000
    C2467    C        0.48426    0.77210    0.60312    1.000
    H2468    H        0.48100    0.77760    0.62240    1.000
    C2469    C        0.51760    0.76644    0.57566    1.000
    C2470    C        0.52120    0.75906    0.54762    1.000
    H2471    H        0.54390    0.75570    0.52890    1.000
    C2472    C        0.54917    0.76751    0.57681    1.000
    N2473    N        0.19531    0.03015    0.51897    1.000
    N2474    N        0.29040    0.73886    0.52790    1.000
    N2475    N        0.23794    0.95710    0.51196    1.000
    N2476    N        0.28996    0.82928    0.53098    1.000
    N2477    N        0.35226    0.79962    0.52542    1.000
    N2478    N        0.32502    0.86276    0.51684    1.000
    N2479    N        0.45268    0.80276    0.49608    1.000
    N2480    N        0.46450    0.72062    0.53302    1.000
    N2481    N        0.49377    0.75645    0.54573    1.000
    N2482    N        0.54643    0.76767    0.60719    1.000
    S2483    S        0.12139    0.04900    0.53466    1.000
    S2484    S        0.42277    0.67669    0.58377    1.000
    C2500    C        0.56058    0.79344    0.95968    1.000
    H2501    H        0.53970    0.81430    0.95830    1.000
    C2502    C        0.59260    0.79806    0.94890    1.000
    H2503    H        0.59360    0.82160    0.94020    1.000
    C2504    C        0.62404    0.76774    0.95070    1.000
    H2505    H        0.64650    0.77010    0.94390    1.000
    C2506    C        0.62086    0.73410    0.96278    1.000
    C2507    C        0.58719    0.73221    0.97287    1.000
    H2508    H        0.58540    0.70920    0.98080    1.000
    C2509    C        0.72878    0.46166    0.97358    1.000
    C2510    C        0.70598    0.57476    0.98460    1.000
    H2511    H        0.72520    0.57520    0.98720    1.000
    C2512    C        0.67795    0.60685    0.97735    1.000
    C2513    C        0.64931    0.60615    0.97361    1.000
    H2514    H        0.62940    0.62760    0.96920    1.000
    C2515    C        0.65085    0.57371    0.97643    1.000
    H2516    H        0.63230    0.57230    0.97350    1.000
    C2517    C        0.68006    0.54286    0.98372    1.000
    H2518    H        0.68070    0.52070    0.98570    1.000
    C2519    C        0.67751    0.64029    0.97611    1.000
    C2520    C        0.70265    0.66815    0.98249    1.000
    C2521    C        0.65130    0.70000    0.96846    1.000
    C2522    C        0.73056    0.66620    0.99182    1.000
    C2523    C        0.75958    0.63442    0.99848    1.000
    H2524    H        0.76230    0.61310    0.99670    1.000
    C2525    C        0.78417    0.63469    0.00763    1.000
    H2526    H        0.80420    0.61360    0.01220    1.000
    C2527    C        0.77927    0.66669    0.01009    1.000
    H2528    H        0.79640    0.66660    0.01640    1.000
    C2529    C        0.72792    0.69660    0.99512    1.000
    H2530    H        0.70820    0.71800    0.99080    1.000
    C2531    C        0.70374    0.79754    0.94588    1.000
    C2532    C        0.79618    0.73834    0.92700    1.000
    H2533    H        0.77400    0.74020    0.92780    1.000
    C2534    C        0.82631    0.73073    0.89873    1.000
    H2535    H        0.82500    0.72740    0.88040    1.000
    C2536    C        0.85948    0.72790    0.89688    1.000
    H2537    H        0.88100    0.72240    0.87760    1.000
    C2538    C        0.85970    0.73356    0.92434    1.000
    C2539    C        0.82788    0.74094    0.95238    1.000
    H2540    H        0.82850    0.74430    0.97110    1.000
    C2541    C        0.89349    0.73249    0.92319    1.000
    N2542    N        0.74443    0.46985    0.98103    1.000
    N2543    N        0.55716    0.76114    0.97210    1.000
    N2544    N        0.70700    0.54290    0.98804    1.000
    N2545    N        0.65022    0.67072    0.96902    1.000
    N2546    N        0.67730    0.70038    0.97458    1.000
    N2547    N        0.70462    0.63724    0.98316    1.000
    N2548    N        0.75152    0.69724    0.00392    1.000
    N2549    N        0.71814    0.77938    0.96698    1.000
    N2550    N        0.79595    0.74355    0.95427    1.000
    N2551    N        0.92129    0.73233    0.89281    1.000
    S2552    S        0.70506    0.45100    0.96534    1.000
    S2553    S        0.68323    0.82331    0.91623    1.000
    C2569    C        0.79344    0.56058    0.18630    1.000
    H2570    H        0.81430    0.53970    0.18770    1.000
    C2571    C        0.79806    0.59260    0.16044    1.000
    H2572    H        0.82160    0.59360    0.14460    1.000
    C2573    C        0.76774    0.62404    0.15752    1.000
    H2574    H        0.77010    0.64650    0.13950    1.000
    C2575    C        0.73410    0.62086    0.18226    1.000
    C2576    C        0.73221    0.58719    0.20773    1.000
    H2577    H        0.70920    0.58540    0.22460    1.000
    C2578    C        0.46166    0.72878    0.33598    1.000
    C2579    C        0.57476    0.70598    0.23466    1.000
    H2580    H        0.57520    0.72520    0.21240    1.000
    C2581    C        0.60685    0.67795    0.23785    1.000
    C2582    C        0.60615    0.64931    0.27093    1.000
    H2583    H        0.62760    0.62940    0.27380    1.000
    C2584    C        0.57371    0.65085    0.29901    1.000
    H2585    H        0.57230    0.63230    0.32190    1.000
    C2586    C        0.54286    0.68006    0.29336    1.000
    H2587    H        0.52070    0.68070    0.31290    1.000
    C2588    C        0.64029    0.67751    0.20609    1.000
    C2589    C        0.66815    0.70265    0.14671    1.000
    C2590    C        0.70000    0.65130    0.18024    1.000
    C2591    C        0.66620    0.73056    0.11142    1.000
    C2592    C        0.63442    0.75958    0.10752    1.000
    H2593    H        0.61310    0.76230    0.12790    1.000
    C2594    C        0.63469    0.78417    0.07351    1.000
    H2595    H        0.61360    0.80420    0.07000    1.000
    C2596    C        0.66669    0.77927    0.04395    1.000
    H2597    H        0.66660    0.79640    0.02060    1.000
    C2598    C        0.69660    0.72792    0.08036    1.000
    H2599    H        0.71800    0.70820    0.08300    1.000
    C2600    C        0.79754    0.70374    0.05284    1.000
    C2601    C        0.73834    0.79618    0.03848    1.000
    H2602    H        0.74020    0.77400    0.05800    1.000
    C2603    C        0.73073    0.82631    0.04423    1.000
    H2604    H        0.72740    0.82500    0.06720    1.000
    C2605    C        0.72790    0.85948    0.01574    1.000
    H2606    H        0.72240    0.88100    0.01900    1.000
    C2607    C        0.73356    0.85970    0.98240    1.000
    C2608    C        0.74094    0.82788    0.97880    1.000
    H2609    H        0.74430    0.82850    0.95610    1.000
    C2610    C        0.73249    0.89349    0.95083    1.000
    N2611    N        0.46985    0.74443    0.30469    1.000
    N2612    N        0.76114    0.55716    0.20960    1.000
    N2613    N        0.54290    0.70700    0.26206    1.000
    N2614    N        0.67072    0.65022    0.21004    1.000
    N2615    N        0.70038    0.67730    0.14774    1.000
    N2616    N        0.63724    0.70462    0.17498    1.000
    N2617    N        0.69724    0.75152    0.04732    1.000
    N2618    N        0.77938    0.71814    0.03550    1.000
    N2619    N        0.74355    0.79595    0.00623    1.000
    N2620    N        0.73233    0.92129    0.95357    1.000
    S2621    S        0.45100    0.70506    0.37861    1.000
    S2622    S        0.82331    0.68323    0.07723    1.000
    C2638    C        0.18630    0.95968    0.79344    1.000
    H2639    H        0.18770    0.95830    0.81430    1.000
    C2640    C        0.16044    0.94890    0.79806    1.000
    H2641    H        0.14460    0.94020    0.82160    1.000
    C2642    C        0.15752    0.95070    0.76774    1.000
    H2643    H        0.13950    0.94390    0.77010    1.000
    C2644    C        0.18226    0.96278    0.73410    1.000
    C2645    C        0.20773    0.97287    0.73221    1.000
    H2646    H        0.22460    0.98080    0.70920    1.000
    C2647    C        0.33598    0.97358    0.46166    1.000
    C2648    C        0.23466    0.98460    0.57476    1.000
    H2649    H        0.21240    0.98720    0.57520    1.000
    C2650    C        0.23785    0.97735    0.60685    1.000
    C2651    C        0.27093    0.97361    0.60615    1.000
    H2652    H        0.27380    0.96920    0.62760    1.000
    C2653    C        0.29901    0.97643    0.57371    1.000
    H2654    H        0.32190    0.97350    0.57230    1.000
    C2655    C        0.29336    0.98372    0.54286    1.000
    H2656    H        0.31290    0.98570    0.52070    1.000
    C2657    C        0.20609    0.97611    0.64029    1.000
    C2658    C        0.14671    0.98249    0.66815    1.000
    C2659    C        0.18024    0.96846    0.70000    1.000
    C2660    C        0.11142    0.99182    0.66620    1.000
    C2661    C        0.10752    0.99848    0.63442    1.000
    H2662    H        0.12790    0.99670    0.61310    1.000
    C2663    C        0.07351    0.00763    0.63469    1.000
    H2664    H        0.07000    0.01220    0.61360    1.000
    C2665    C        0.04395    0.01009    0.66669    1.000
    H2666    H        0.02060    0.01640    0.66660    1.000
    C2667    C        0.08036    0.99512    0.69660    1.000
    H2668    H        0.08300    0.99080    0.71800    1.000
    C2669    C        0.05284    0.94588    0.79754    1.000
    C2670    C        0.03848    0.92700    0.73834    1.000
    H2671    H        0.05800    0.92780    0.74020    1.000
    C2672    C        0.04423    0.89873    0.73073    1.000
    H2673    H        0.06720    0.88040    0.72740    1.000
    C2674    C        0.01574    0.89688    0.72790    1.000
    H2675    H        0.01900    0.87760    0.72240    1.000
    C2676    C        0.98240    0.92434    0.73356    1.000
    C2677    C        0.97880    0.95238    0.74094    1.000
    H2678    H        0.95610    0.97110    0.74430    1.000
    C2679    C        0.95083    0.92319    0.73249    1.000
    N2680    N        0.30469    0.98103    0.46985    1.000
    N2681    N        0.20960    0.97210    0.76114    1.000
    N2682    N        0.26206    0.98804    0.54290    1.000
    N2683    N        0.21004    0.96902    0.67072    1.000
    N2684    N        0.14774    0.97458    0.70038    1.000
    N2685    N        0.17498    0.98316    0.63724    1.000
    N2686    N        0.04732    0.00392    0.69724    1.000
    N2687    N        0.03550    0.96698    0.77938    1.000
    N2688    N        0.00623    0.95427    0.74355    1.000
    N2689    N        0.95357    0.89281    0.73233    1.000
    S2690    S        0.37861    0.96534    0.45100    1.000
    S2691    S        0.07723    0.91623    0.82331    1.000
    C2707    C        0.95968    0.18630    0.56058    1.000
    H2708    H        0.95830    0.18770    0.53970    1.000
    C2709    C        0.94890    0.16044    0.59260    1.000
    H2710    H        0.94020    0.14460    0.59360    1.000
    C2711    C        0.95070    0.15752    0.62404    1.000
    H2712    H        0.94390    0.13950    0.64650    1.000
    C2713    C        0.96278    0.18226    0.62086    1.000
    C2714    C        0.97287    0.20773    0.58719    1.000
    H2715    H        0.98080    0.22460    0.58540    1.000
    C2716    C        0.97358    0.33598    0.72878    1.000
    C2717    C        0.98460    0.23466    0.70598    1.000
    H2718    H        0.98720    0.21240    0.72520    1.000
    C2719    C        0.97735    0.23785    0.67795    1.000
    C2720    C        0.97361    0.27093    0.64931    1.000
    H2721    H        0.96920    0.27380    0.62940    1.000
    C2722    C        0.97643    0.29901    0.65085    1.000
    H2723    H        0.97350    0.32190    0.63230    1.000
    C2724    C        0.98372    0.29336    0.68006    1.000
    H2725    H        0.98570    0.31290    0.68070    1.000
    C2726    C        0.97611    0.20609    0.67751    1.000
    C2727    C        0.98249    0.14671    0.70265    1.000
    C2728    C        0.96846    0.18024    0.65130    1.000
    C2729    C        0.99182    0.11142    0.73056    1.000
    C2730    C        0.99848    0.10752    0.75958    1.000
    H2731    H        0.99670    0.12790    0.76230    1.000
    C2732    C        0.00763    0.07351    0.78417    1.000
    H2733    H        0.01220    0.07000    0.80420    1.000
    C2734    C        0.01009    0.04395    0.77927    1.000
    H2735    H        0.01640    0.02060    0.79640    1.000
    C2736    C        0.99512    0.08036    0.72792    1.000
    H2737    H        0.99080    0.08300    0.70820    1.000
    C2738    C        0.94588    0.05284    0.70374    1.000
    C2739    C        0.92700    0.03848    0.79618    1.000
    H2740    H        0.92780    0.05800    0.77400    1.000
    C2741    C        0.89873    0.04423    0.82631    1.000
    H2742    H        0.88040    0.06720    0.82500    1.000
    C2743    C        0.89688    0.01574    0.85948    1.000
    H2744    H        0.87760    0.01900    0.88100    1.000
    C2745    C        0.92434    0.98240    0.85970    1.000
    C2746    C        0.95238    0.97880    0.82788    1.000
    H2747    H        0.97110    0.95610    0.82850    1.000
    C2748    C        0.92319    0.95083    0.89349    1.000
    N2749    N        0.98103    0.30469    0.74443    1.000
    N2750    N        0.97210    0.20960    0.55716    1.000
    N2751    N        0.98804    0.26206    0.70700    1.000
    N2752    N        0.96902    0.21004    0.65022    1.000
    N2753    N        0.97458    0.14774    0.67730    1.000
    N2754    N        0.98316    0.17498    0.70462    1.000
    N2755    N        0.00392    0.04732    0.75152    1.000
    N2756    N        0.96698    0.03550    0.71814    1.000
    N2757    N        0.95427    0.00623    0.79595    1.000
    N2758    N        0.89281    0.95357    0.92129    1.000
    S2759    S        0.96534    0.37861    0.70506    1.000
    S2760    S        0.91623    0.07723    0.68323    1.000
    C2776    C        0.18630    0.56058    0.95968    1.000
    H2777    H        0.18770    0.53970    0.95830    1.000
    C2778    C        0.16044    0.59260    0.94890    1.000
    H2779    H        0.14460    0.59360    0.94020    1.000
    C2780    C        0.15752    0.62404    0.95070    1.000
    H2781    H        0.13950    0.64650    0.94390    1.000
    C2782    C        0.18226    0.62086    0.96278    1.000
    C2783    C        0.20773    0.58719    0.97287    1.000
    H2784    H        0.22460    0.58540    0.98080    1.000
    C2785    C        0.33598    0.72878    0.97358    1.000
    C2786    C        0.23466    0.70598    0.98460    1.000
    H2787    H        0.21240    0.72520    0.98720    1.000
    C2788    C        0.23785    0.67795    0.97735    1.000
    C2789    C        0.27093    0.64931    0.97361    1.000
    H2790    H        0.27380    0.62940    0.96920    1.000
    C2791    C        0.29901    0.65085    0.97643    1.000
    H2792    H        0.32190    0.63230    0.97350    1.000
    C2793    C        0.29336    0.68006    0.98372    1.000
    H2794    H        0.31290    0.68070    0.98570    1.000
    C2795    C        0.20609    0.67751    0.97611    1.000
    C2796    C        0.14671    0.70265    0.98249    1.000
    C2797    C        0.18024    0.65130    0.96846    1.000
    C2798    C        0.11142    0.73056    0.99182    1.000
    C2799    C        0.10752    0.75958    0.99848    1.000
    H2800    H        0.12790    0.76230    0.99670    1.000
    C2801    C        0.07351    0.78417    0.00763    1.000
    H2802    H        0.07000    0.80420    0.01220    1.000
    C2803    C        0.04395    0.77927    0.01009    1.000
    H2804    H        0.02060    0.79640    0.01640    1.000
    C2805    C        0.08036    0.72792    0.99512    1.000
    H2806    H        0.08300    0.70820    0.99080    1.000
    C2807    C        0.05284    0.70374    0.94588    1.000
    C2808    C        0.03848    0.79618    0.92700    1.000
    H2809    H        0.05800    0.77400    0.92780    1.000
    C2810    C        0.04423    0.82631    0.89873    1.000
    H2811    H        0.06720    0.82500    0.88040    1.000
    C2812    C        0.01574    0.85948    0.89688    1.000
    H2813    H        0.01900    0.88100    0.87760    1.000
    C2814    C        0.98240    0.85970    0.92434    1.000
    C2815    C        0.97880    0.82788    0.95238    1.000
    H2816    H        0.95610    0.82850    0.97110    1.000
    C2817    C        0.95083    0.89349    0.92319    1.000
    N2818    N        0.30469    0.74443    0.98103    1.000
    N2819    N        0.20960    0.55716    0.97210    1.000
    N2820    N        0.26206    0.70700    0.98804    1.000
    N2821    N        0.21004    0.65022    0.96902    1.000
    N2822    N        0.14774    0.67730    0.97458    1.000
    N2823    N        0.17498    0.70462    0.98316    1.000
    N2824    N        0.04732    0.75152    0.00392    1.000
    N2825    N        0.03550    0.71814    0.96698    1.000
    N2826    N        0.00623    0.79595    0.95427    1.000
    N2827    N        0.95357    0.92129    0.89281    1.000
    S2828    S        0.37861    0.70506    0.96534    1.000
    S2829    S        0.07723    0.68323    0.91623    1.000
    C2845    C        0.95968    0.79344    0.18630    1.000
    H2846    H        0.95830    0.81430    0.18770    1.000
    C2847    C        0.94890    0.79806    0.16044    1.000
    H2848    H        0.94020    0.82160    0.14460    1.000
    C2849    C        0.95070    0.76774    0.15752    1.000
    H2850    H        0.94390    0.77010    0.13950    1.000
    C2851    C        0.96278    0.73410    0.18226    1.000
    C2852    C        0.97287    0.73221    0.20773    1.000
    H2853    H        0.98080    0.70920    0.22460    1.000
    C2854    C        0.97358    0.46166    0.33598    1.000
    C2855    C        0.98460    0.57476    0.23466    1.000
    H2856    H        0.98720    0.57520    0.21240    1.000
    C2857    C        0.97735    0.60685    0.23785    1.000
    C2858    C        0.97361    0.60615    0.27093    1.000
    H2859    H        0.96920    0.62760    0.27380    1.000
    C2860    C        0.97643    0.57371    0.29901    1.000
    H2861    H        0.97350    0.57230    0.32190    1.000
    C2862    C        0.98372    0.54286    0.29336    1.000
    H2863    H        0.98570    0.52070    0.31290    1.000
    C2864    C        0.97611    0.64029    0.20609    1.000
    C2865    C        0.98249    0.66815    0.14671    1.000
    C2866    C        0.96846    0.70000    0.18024    1.000
    C2867    C        0.99182    0.66620    0.11142    1.000
    C2868    C        0.99848    0.63442    0.10752    1.000
    H2869    H        0.99670    0.61310    0.12790    1.000
    C2870    C        0.00763    0.63469    0.07351    1.000
    H2871    H        0.01220    0.61360    0.07000    1.000
    C2872    C        0.01009    0.66669    0.04395    1.000
    H2873    H        0.01640    0.66660    0.02060    1.000
    C2874    C        0.99512    0.69660    0.08036    1.000
    H2875    H        0.99080    0.71800    0.08300    1.000
    C2876    C        0.94588    0.79754    0.05284    1.000
    C2877    C        0.92700    0.73834    0.03848    1.000
    H2878    H        0.92780    0.74020    0.05800    1.000
    C2879    C        0.89873    0.73073    0.04423    1.000
    H2880    H        0.88040    0.72740    0.06720    1.000
    C2881    C        0.89688    0.72790    0.01574    1.000
    H2882    H        0.87760    0.72240    0.01900    1.000
    C2883    C        0.92434    0.73356    0.98240    1.000
    C2884    C        0.95238    0.74094    0.97880    1.000
    H2885    H        0.97110    0.74430    0.95610    1.000
    C2886    C        0.92319    0.73249    0.95083    1.000
    N2887    N        0.98103    0.46985    0.30469    1.000
    N2888    N        0.97210    0.76114    0.20960    1.000
    N2889    N        0.98804    0.54290    0.26206    1.000
    N2890    N        0.96902    0.67072    0.21004    1.000
    N2891    N        0.97458    0.70038    0.14774    1.000
    N2892    N        0.98316    0.63724    0.17498    1.000
    N2893    N        0.00392    0.69724    0.04732    1.000
    N2894    N        0.96698    0.77938    0.03550    1.000
    N2895    N        0.95427    0.74355    0.00623    1.000
    N2896    N        0.89281    0.73233    0.95357    1.000
    S2897    S        0.96534    0.45100    0.37861    1.000
    S2898    S        0.91623    0.82331    0.07723    1.000
    C2914    C        0.56058    0.18630    0.79344    1.000
    H2915    H        0.53970    0.18770    0.81430    1.000
    C2916    C        0.59260    0.16044    0.79806    1.000
    H2917    H        0.59360    0.14460    0.82160    1.000
    C2918    C        0.62404    0.15752    0.76774    1.000
    H2919    H        0.64650    0.13950    0.77010    1.000
    C2920    C        0.62086    0.18226    0.73410    1.000
    C2921    C        0.58719    0.20773    0.73221    1.000
    H2922    H        0.58540    0.22460    0.70920    1.000
    C2923    C        0.72878    0.33598    0.46166    1.000
    C2924    C        0.70598    0.23466    0.57476    1.000
    H2925    H        0.72520    0.21240    0.57520    1.000
    C2926    C        0.67795    0.23785    0.60685    1.000
    C2927    C        0.64931    0.27093    0.60615    1.000
    H2928    H        0.62940    0.27380    0.62760    1.000
    C2929    C        0.65085    0.29901    0.57371    1.000
    H2930    H        0.63230    0.32190    0.57230    1.000
    C2931    C        0.68006    0.29336    0.54286    1.000
    H2932    H        0.68070    0.31290    0.52070    1.000
    C2933    C        0.67751    0.20609    0.64029    1.000
    C2934    C        0.70265    0.14671    0.66815    1.000
    C2935    C        0.65130    0.18024    0.70000    1.000
    C2936    C        0.73056    0.11142    0.66620    1.000
    C2937    C        0.75958    0.10752    0.63442    1.000
    H2938    H        0.76230    0.12790    0.61310    1.000
    C2939    C        0.78417    0.07351    0.63469    1.000
    H2940    H        0.80420    0.07000    0.61360    1.000
    C2941    C        0.77927    0.04395    0.66669    1.000
    H2942    H        0.79640    0.02060    0.66660    1.000
    C2943    C        0.72792    0.08036    0.69660    1.000
    H2944    H        0.70820    0.08300    0.71800    1.000
    C2945    C        0.70374    0.05284    0.79754    1.000
    C2946    C        0.79618    0.03848    0.73834    1.000
    H2947    H        0.77400    0.05800    0.74020    1.000
    C2948    C        0.82631    0.04423    0.73073    1.000
    H2949    H        0.82500    0.06720    0.72740    1.000
    C2950    C        0.85948    0.01574    0.72790    1.000
    H2951    H        0.88100    0.01900    0.72240    1.000
    C2952    C        0.85970    0.98240    0.73356    1.000
    C2953    C        0.82788    0.97880    0.74094    1.000
    H2954    H        0.82850    0.95610    0.74430    1.000
    C2955    C        0.89349    0.95083    0.73249    1.000
    N2956    N        0.74443    0.30469    0.46985    1.000
    N2957    N        0.55716    0.20960    0.76114    1.000
    N2958    N        0.70700    0.26206    0.54290    1.000
    N2959    N        0.65022    0.21004    0.67072    1.000
    N2960    N        0.67730    0.14774    0.70038    1.000
    N2961    N        0.70462    0.17498    0.63724    1.000
    N2962    N        0.75152    0.04732    0.69724    1.000
    N2963    N        0.71814    0.03550    0.77938    1.000
    N2964    N        0.79595    0.00623    0.74355    1.000
    N2965    N        0.92129    0.95357    0.73233    1.000
    S2966    S        0.70506    0.37861    0.45100    1.000
    S2967    S        0.68323    0.07723    0.82331    1.000
    C2983    C        0.79344    0.95968    0.56058    1.000
    H2984    H        0.81430    0.95830    0.53970    1.000
    C2985    C        0.79806    0.94890    0.59260    1.000
    H2986    H        0.82160    0.94020    0.59360    1.000
    C2987    C        0.76774    0.95070    0.62404    1.000
    H2988    H        0.77010    0.94390    0.64650    1.000
    C2989    C        0.73410    0.96278    0.62086    1.000
    C2990    C        0.73221    0.97287    0.58719    1.000
    H2991    H        0.70920    0.98080    0.58540    1.000
    C2992    C        0.46166    0.97358    0.72878    1.000
    C2993    C        0.57476    0.98460    0.70598    1.000
    H2994    H        0.57520    0.98720    0.72520    1.000
    C2995    C        0.60685    0.97735    0.67795    1.000
    C2996    C        0.60615    0.97361    0.64931    1.000
    H2997    H        0.62760    0.96920    0.62940    1.000
    C2998    C        0.57371    0.97643    0.65085    1.000
    H2999    H        0.57230    0.97350    0.63230    1.000
    C3000    C        0.54286    0.98372    0.68006    1.000
    H3001    H        0.52070    0.98570    0.68070    1.000
    C3002    C        0.64029    0.97611    0.67751    1.000
    C3003    C        0.66815    0.98249    0.70265    1.000
    C3004    C        0.70000    0.96846    0.65130    1.000
    C3005    C        0.66620    0.99182    0.73056    1.000
    C3006    C        0.63442    0.99848    0.75958    1.000
    H3007    H        0.61310    0.99670    0.76230    1.000
    C3008    C        0.63469    0.00763    0.78417    1.000
    H3009    H        0.61360    0.01220    0.80420    1.000
    C3010    C        0.66669    0.01009    0.77927    1.000
    H3011    H        0.66660    0.01640    0.79640    1.000
    C3012    C        0.69660    0.99512    0.72792    1.000
    H3013    H        0.71800    0.99080    0.70820    1.000
    C3014    C        0.79754    0.94588    0.70374    1.000
    C3015    C        0.73834    0.92700    0.79618    1.000
    H3016    H        0.74020    0.92780    0.77400    1.000
    C3017    C        0.73073    0.89873    0.82631    1.000
    H3018    H        0.72740    0.88040    0.82500    1.000
    C3019    C        0.72790    0.89688    0.85948    1.000
    H3020    H        0.72240    0.87760    0.88100    1.000
    C3021    C        0.73356    0.92434    0.85970    1.000
    C3022    C        0.74094    0.95238    0.82788    1.000
    H3023    H        0.74430    0.97110    0.82850    1.000
    C3024    C        0.73249    0.92319    0.89349    1.000
    N3025    N        0.46985    0.98103    0.74443    1.000
    N3026    N        0.76114    0.97210    0.55716    1.000
    N3027    N        0.54290    0.98804    0.70700    1.000
    N3028    N        0.67072    0.96902    0.65022    1.000
    N3029    N        0.70038    0.97458    0.67730    1.000
    N3030    N        0.63724    0.98316    0.70462    1.000
    N3031    N        0.69724    0.00392    0.75152    1.000
    N3032    N        0.77938    0.96698    0.71814    1.000
    N3033    N        0.74355    0.95427    0.79595    1.000
    N3034    N        0.73233    0.89281    0.92129    1.000
    S3035    S        0.45100    0.96534    0.70506    1.000
    S3036    S        0.82331    0.91623    0.68323    1.000
    C3052    C        0.79344    0.18630    0.95968    1.000
    H3053    H        0.81430    0.18770    0.95830    1.000
    C3054    C        0.79806    0.16044    0.94890    1.000
    H3055    H        0.82160    0.14460    0.94020    1.000
    C3056    C        0.76774    0.15752    0.95070    1.000
    H3057    H        0.77010    0.13950    0.94390    1.000
    C3058    C        0.73410    0.18226    0.96278    1.000
    C3059    C        0.73221    0.20773    0.97287    1.000
    H3060    H        0.70920    0.22460    0.98080    1.000
    C3061    C        0.46166    0.33598    0.97358    1.000
    C3062    C        0.57476    0.23466    0.98460    1.000
    H3063    H        0.57520    0.21240    0.98720    1.000
    C3064    C        0.60685    0.23785    0.97735    1.000
    C3065    C        0.60615    0.27093    0.97361    1.000
    H3066    H        0.62760    0.27380    0.96920    1.000
    C3067    C        0.57371    0.29901    0.97643    1.000
    H3068    H        0.57230    0.32190    0.97350    1.000
    C3069    C        0.54286    0.29336    0.98372    1.000
    H3070    H        0.52070    0.31290    0.98570    1.000
    C3071    C        0.64029    0.20609    0.97611    1.000
    C3072    C        0.66815    0.14671    0.98249    1.000
    C3073    C        0.70000    0.18024    0.96846    1.000
    C3074    C        0.66620    0.11142    0.99182    1.000
    C3075    C        0.63442    0.10752    0.99848    1.000
    H3076    H        0.61310    0.12790    0.99670    1.000
    C3077    C        0.63469    0.07351    0.00763    1.000
    H3078    H        0.61360    0.07000    0.01220    1.000
    C3079    C        0.66669    0.04395    0.01009    1.000
    H3080    H        0.66660    0.02060    0.01640    1.000
    C3081    C        0.69660    0.08036    0.99512    1.000
    H3082    H        0.71800    0.08300    0.99080    1.000
    C3083    C        0.79754    0.05284    0.94588    1.000
    C3084    C        0.73834    0.03848    0.92700    1.000
    H3085    H        0.74020    0.05800    0.92780    1.000
    C3086    C        0.73073    0.04423    0.89873    1.000
    H3087    H        0.72740    0.06720    0.88040    1.000
    C3088    C        0.72790    0.01574    0.89688    1.000
    H3089    H        0.72240    0.01900    0.87760    1.000
    C3090    C        0.73356    0.98240    0.92434    1.000
    C3091    C        0.74094    0.97880    0.95238    1.000
    H3092    H        0.74430    0.95610    0.97110    1.000
    C3093    C        0.73249    0.95083    0.92319    1.000
    N3094    N        0.46985    0.30469    0.98103    1.000
    N3095    N        0.76114    0.20960    0.97210    1.000
    N3096    N        0.54290    0.26206    0.98804    1.000
    N3097    N        0.67072    0.21004    0.96902    1.000
    N3098    N        0.70038    0.14774    0.97458    1.000
    N3099    N        0.63724    0.17498    0.98316    1.000
    N3100    N        0.69724    0.04732    0.00392    1.000
    N3101    N        0.77938    0.03550    0.96698    1.000
    N3102    N        0.74355    0.00623    0.95427    1.000
    N3103    N        0.73233    0.95357    0.89281    1.000
    S3104    S        0.45100    0.37861    0.96534    1.000
    S3105    S        0.82331    0.07723    0.91623    1.000
    C3121    C        0.56058    0.95968    0.18630    1.000
    H3122    H        0.53970    0.95830    0.18770    1.000
    C3123    C        0.59260    0.94890    0.16044    1.000
    H3124    H        0.59360    0.94020    0.14460    1.000
    C3125    C        0.62404    0.95070    0.15752    1.000
    H3126    H        0.64650    0.94390    0.13950    1.000
    C3127    C        0.62086    0.96278    0.18226    1.000
    C3128    C        0.58719    0.97287    0.20773    1.000
    H3129    H        0.58540    0.98080    0.22460    1.000
    C3130    C        0.72878    0.97358    0.33598    1.000
    C3131    C        0.70598    0.98460    0.23466    1.000
    H3132    H        0.72520    0.98720    0.21240    1.000
    C3133    C        0.67795    0.97735    0.23785    1.000
    C3134    C        0.64931    0.97361    0.27093    1.000
    H3135    H        0.62940    0.96920    0.27380    1.000
    C3136    C        0.65085    0.97643    0.29901    1.000
    H3137    H        0.63230    0.97350    0.32190    1.000
    C3138    C        0.68006    0.98372    0.29336    1.000
    H3139    H        0.68070    0.98570    0.31290    1.000
    C3140    C        0.67751    0.97611    0.20609    1.000
    C3141    C        0.70265    0.98249    0.14671    1.000
    C3142    C        0.65130    0.96846    0.18024    1.000
    C3143    C        0.73056    0.99182    0.11142    1.000
    C3144    C        0.75958    0.99848    0.10752    1.000
    H3145    H        0.76230    0.99670    0.12790    1.000
    C3146    C        0.78417    0.00763    0.07351    1.000
    H3147    H        0.80420    0.01220    0.07000    1.000
    C3148    C        0.77927    0.01009    0.04395    1.000
    H3149    H        0.79640    0.01640    0.02060    1.000
    C3150    C        0.72792    0.99512    0.08036    1.000
    H3151    H        0.70820    0.99080    0.08300    1.000
    C3152    C        0.70374    0.94588    0.05284    1.000
    C3153    C        0.79618    0.92700    0.03848    1.000
    H3154    H        0.77400    0.92780    0.05800    1.000
    C3155    C        0.82631    0.89873    0.04423    1.000
    H3156    H        0.82500    0.88040    0.06720    1.000
    C3157    C        0.85948    0.89688    0.01574    1.000
    H3158    H        0.88100    0.87760    0.01900    1.000
    C3159    C        0.85970    0.92434    0.98240    1.000
    C3160    C        0.82788    0.95238    0.97880    1.000
    H3161    H        0.82850    0.97110    0.95610    1.000
    C3162    C        0.89349    0.92319    0.95083    1.000
    N3163    N        0.74443    0.98103    0.30469    1.000
    N3164    N        0.55716    0.97210    0.20960    1.000
    N3165    N        0.70700    0.98804    0.26206    1.000
    N3166    N        0.65022    0.96902    0.21004    1.000
    N3167    N        0.67730    0.97458    0.14774    1.000
    N3168    N        0.70462    0.98316    0.17498    1.000
    N3169    N        0.75152    0.00392    0.04732    1.000
    N3170    N        0.71814    0.96698    0.03550    1.000
    N3171    N        0.79595    0.95427    0.00623    1.000
    N3172    N        0.92129    0.89281    0.95357    1.000
    S3173    S        0.70506    0.96534    0.37861    1.000
    S3174    S        0.68323    0.91623    0.07723    1.000
    C3190    C        0.95968    0.56058    0.79344    1.000
    H3191    H        0.95830    0.53970    0.81430    1.000
    C3192    C        0.94890    0.59260    0.79806    1.000
    H3193    H        0.94020    0.59360    0.82160    1.000
    C3194    C        0.95070    0.62404    0.76774    1.000
    H3195    H        0.94390    0.64650    0.77010    1.000
    C3196    C        0.96278    0.62086    0.73410    1.000
    C3197    C        0.97287    0.58719    0.73221    1.000
    H3198    H        0.98080    0.58540    0.70920    1.000
    C3199    C        0.97358    0.72878    0.46166    1.000
    C3200    C        0.98460    0.70598    0.57476    1.000
    H3201    H        0.98720    0.72520    0.57520    1.000
    C3202    C        0.97735    0.67795    0.60685    1.000
    C3203    C        0.97361    0.64931    0.60615    1.000
    H3204    H        0.96920    0.62940    0.62760    1.000
    C3205    C        0.97643    0.65085    0.57371    1.000
    H3206    H        0.97350    0.63230    0.57230    1.000
    C3207    C        0.98372    0.68006    0.54286    1.000
    H3208    H        0.98570    0.68070    0.52070    1.000
    C3209    C        0.97611    0.67751    0.64029    1.000
    C3210    C        0.98249    0.70265    0.66815    1.000
    C3211    C        0.96846    0.65130    0.70000    1.000
    C3212    C        0.99182    0.73056    0.66620    1.000
    C3213    C        0.99848    0.75958    0.63442    1.000
    H3214    H        0.99670    0.76230    0.61310    1.000
    C3215    C        0.00763    0.78417    0.63469    1.000
    H3216    H        0.01220    0.80420    0.61360    1.000
    C3217    C        0.01009    0.77927    0.66669    1.000
    H3218    H        0.01640    0.79640    0.66660    1.000
    C3219    C        0.99512    0.72792    0.69660    1.000
    H3220    H        0.99080    0.70820    0.71800    1.000
    C3221    C        0.94588    0.70374    0.79754    1.000
    C3222    C        0.92700    0.79618    0.73834    1.000
    H3223    H        0.92780    0.77400    0.74020    1.000
    C3224    C        0.89873    0.82631    0.73073    1.000
    H3225    H        0.88040    0.82500    0.72740    1.000
    C3226    C        0.89688    0.85948    0.72790    1.000
    H3227    H        0.87760    0.88100    0.72240    1.000
    C3228    C        0.92434    0.85970    0.73356    1.000
    C3229    C        0.95238    0.82788    0.74094    1.000
    H3230    H        0.97110    0.82850    0.74430    1.000
    C3231    C        0.92319    0.89349    0.73249    1.000
    N3232    N        0.98103    0.74443    0.46985    1.000
    N3233    N        0.97210    0.55716    0.76114    1.000
    N3234    N        0.98804    0.70700    0.54290    1.000
    N3235    N        0.96902    0.65022    0.67072    1.000
    N3236    N        0.97458    0.67730    0.70038    1.000
    N3237    N        0.98316    0.70462    0.63724    1.000
    N3238    N        0.00392    0.75152    0.69724    1.000
    N3239    N        0.96698    0.71814    0.77938    1.000
    N3240    N        0.95427    0.79595    0.74355    1.000
    N3241    N        0.89281    0.92129    0.73233    1.000
    S3242    S        0.96534    0.70506    0.45100    1.000
    S3243    S        0.91623    0.68323    0.82331    1.000
    C3259    C        0.18630    0.79344    0.56058    1.000
    H3260    H        0.18770    0.81430    0.53970    1.000
    C3261    C        0.16044    0.79806    0.59260    1.000
    H3262    H        0.14460    0.82160    0.59360    1.000
    C3263    C        0.15752    0.76774    0.62404    1.000
    H3264    H        0.13950    0.77010    0.64650    1.000
    C3265    C        0.18226    0.73410    0.62086    1.000
    C3266    C        0.20773    0.73221    0.58719    1.000
    H3267    H        0.22460    0.70920    0.58540    1.000
    C3268    C        0.33598    0.46166    0.72878    1.000
    C3269    C        0.23466    0.57476    0.70598    1.000
    H3270    H        0.21240    0.57520    0.72520    1.000
    C3271    C        0.23785    0.60685    0.67795    1.000
    C3272    C        0.27093    0.60615    0.64931    1.000
    H3273    H        0.27380    0.62760    0.62940    1.000
    C3274    C        0.29901    0.57371    0.65085    1.000
    H3275    H        0.32190    0.57230    0.63230    1.000
    C3276    C        0.29336    0.54286    0.68006    1.000
    H3277    H        0.31290    0.52070    0.68070    1.000
    C3278    C        0.20609    0.64029    0.67751    1.000
    C3279    C        0.14671    0.66815    0.70265    1.000
    C3280    C        0.18024    0.70000    0.65130    1.000
    C3281    C        0.11142    0.66620    0.73056    1.000
    C3282    C        0.10752    0.63442    0.75958    1.000
    H3283    H        0.12790    0.61310    0.76230    1.000
    C3284    C        0.07351    0.63469    0.78417    1.000
    H3285    H        0.07000    0.61360    0.80420    1.000
    C3286    C        0.04395    0.66669    0.77927    1.000
    H3287    H        0.02060    0.66660    0.79640    1.000
    C3288    C        0.08036    0.69660    0.72792    1.000
    H3289    H        0.08300    0.71800    0.70820    1.000
    C3290    C        0.05284    0.79754    0.70374    1.000
    C3291    C        0.03848    0.73834    0.79618    1.000
    H3292    H        0.05800    0.74020    0.77400    1.000
    C3293    C        0.04423    0.73073    0.82631    1.000
    H3294    H        0.06720    0.72740    0.82500    1.000
    C3295    C        0.01574    0.72790    0.85948    1.000
    H3296    H        0.01900    0.72240    0.88100    1.000
    C3297    C        0.98240    0.73356    0.85970    1.000
    C3298    C        0.97880    0.74094    0.82788    1.000
    H3299    H        0.95610    0.74430    0.82850    1.000
    C3300    C        0.95083    0.73249    0.89349    1.000
    N3301    N        0.30469    0.46985    0.74443    1.000
    N3302    N        0.20960    0.76114    0.55716    1.000
    N3303    N        0.26206    0.54290    0.70700    1.000
    N3304    N        0.21004    0.67072    0.65022    1.000
    N3305    N        0.14774    0.70038    0.67730    1.000
    N3306    N        0.17498    0.63724    0.70462    1.000
    N3307    N        0.04732    0.69724    0.75152    1.000
    N3308    N        0.03550    0.77938    0.71814    1.000
    N3309    N        0.00623    0.74355    0.79595    1.000
    N3310    N        0.95357    0.73233    0.92129    1.000
    S3311    S        0.37861    0.45100    0.70506    1.000
    S3312    S        0.07723    0.82331    0.68323    1.000
    Co3313   Co       0.25000    0.99356    0.75000    1.000
    Co3314   Co       0.99356    0.25000    0.50644    1.000
    Co3315   Co       0.75000    0.50644    0.25000    1.000
    Co3316   Co       0.50644    0.75000    0.99356    1.000
    Co3317   Co       0.75000    0.25000    0.99356    1.000
    Co3318   Co       0.50644    0.99356    0.25000    1.000
    Co3319   Co       0.25000    0.75000    0.50644    1.000
    Co3320   Co       0.99356    0.50644    0.75000    1.000
    Co3321   Co       0.99356    0.75000    0.25000    1.000
    Co3322   Co       0.25000    0.50644    0.99356    1.000
    Co3323   Co       0.50644    0.25000    0.75000    1.000
    Co3324   Co       0.75000    0.99356    0.50644    1.000
    Co3325   Co       0.75000    0.00644    0.25000    1.000
    Co3326   Co       0.00644    0.75000    0.49356    1.000
    Co3327   Co       0.25000    0.49356    0.75000    1.000
    Co3328   Co       0.49356    0.25000    0.00644    1.000
    Co3329   Co       0.25000    0.75000    0.00644    1.000
    Co3330   Co       0.49356    0.00644    0.75000    1.000
    Co3331   Co       0.75000    0.25000    0.49356    1.000
    Co3332   Co       0.00644    0.49356    0.25000    1.000
    Co3333   Co       0.00644    0.25000    0.75000    1.000
    Co3334   Co       0.75000    0.49356    0.00644    1.000
    Co3335   Co       0.49356    0.75000    0.25000    1.000
    Co3336   Co       0.25000    0.00644    0.49356    1.000
    Co3337   Co       0.24788    0.24788    0.50212    1.000
    Co3338   Co       0.50212    0.50212    0.24788    1.000
    Co3339   Co       0.50212    0.24788    0.24788    1.000
    Co3340   Co       0.24788    0.50212    0.50212    1.000
    Co3341   Co       0.24788    0.50212    0.24788    1.000
    Co3342   Co       0.50212    0.24788    0.50212    1.000
    Co3343   Co       0.25212    0.25212    0.99788    1.000
    Co3344   Co       0.99788    0.99788    0.25212    1.000
    Co3345   Co       0.99788    0.25212    0.99788    1.000
    Co3346   Co       0.25212    0.99788    0.25212    1.000
    Co3347   Co       0.25212    0.99788    0.99788    1.000
    Co3348   Co       0.99788    0.25212    0.25212    1.000
    Co3349   Co       0.75212    0.75212    0.49788    1.000
    Co3350   Co       0.49788    0.49788    0.75212    1.000
    Co3351   Co       0.49788    0.75212    0.75212    1.000
    Co3352   Co       0.75212    0.49788    0.49788    1.000
    Co3353   Co       0.75212    0.49788    0.75212    1.000
    Co3354   Co       0.49788    0.75212    0.49788    1.000
    Co3355   Co       0.74788    0.74788    0.00212    1.000
    Co3356   Co       0.00212    0.00212    0.74788    1.000
    Co3357   Co       0.00212    0.74788    0.00212    1.000
    Co3358   Co       0.74788    0.00212    0.74788    1.000
    Co3359   Co       0.74788    0.00212    0.00212    1.000
    Co3360   Co       0.00212    0.74788    0.74788    1.000
