data_functionalizedCrystal
_audit_creation_method	'EQeq! by Chris Wilmer'
_symmetry_space_group_name_H-M	'P1'
_symmetry_Int_Tables_number	1
_symmetry_cell_setting	triclinic
loop_
_symmetry_equiv_pos_as_xyz
  x,y,z
_cell_length_a	9.8884
_cell_length_b	9.8884
_cell_length_c	15.7829
_cell_angle_alpha	90
_cell_angle_beta	90
_cell_angle_gamma	90
loop_
_atom_site_label
_atom_site_type_symbol
_atom_site_fract_x
_atom_site_fract_y
_atom_site_fract_z
_atom_site_charge
Mof_C 	C 	0.2434	0.1571	0.1887	-0.015
Mof_H 	H 	0.241	0.0937	0.1452	0.041
Mof_C 	C 	0.7434	0.6571	0.6887	0.06
Mof_H 	H 	0.741	0.5937	0.6452	0.079
Mof_C 	C 	0.7566	0.8429	0.1887	0.048
Mof_H 	H 	0.759	0.9063	0.1452	0.157
Mof_C 	C 	0.2566	0.3429	0.6887	0.015
Mof_H 	H 	0.259	0.4063	0.6452	0.053
Mof_C 	C 	0.8429	0.2434	0.1887	0.019
Mof_H 	H 	0.9063	0.241	0.1452	0.129
Mof_C 	C 	0.3429	0.7434	0.6887	0.042
Mof_H 	H 	0.4063	0.741	0.6452	0.076
Mof_C 	C 	0.1571	0.7566	0.1887	0.016
Mof_H 	H 	0.0937	0.759	0.1452	0.076
Mof_C 	C 	0.6571	0.2566	0.6887	0.034
Mof_H 	H 	0.5937	0.259	0.6452	0.056
Mof_C 	C 	0.7566	0.1571	0.3113	0.023
Mof_H 	H 	0.759	0.0937	0.3548	0.081
Mof_C 	C 	0.2566	0.6571	0.8113	0.042
Mof_H 	H 	0.259	0.5937	0.8548	0.069
Mof_C 	C 	0.2434	0.8429	0.3113	0.027
Mof_H 	H 	0.241	0.9063	0.3548	0.134
Mof_C 	C 	0.7434	0.3429	0.8113	0.05
Mof_H 	H 	0.741	0.4063	0.8548	0.089
Mof_C 	C 	0.1571	0.2434	0.3113	-0.006
Mof_H 	H 	0.0937	0.241	0.3548	0.048
Mof_C 	C 	0.6571	0.7434	0.8113	0.068
Mof_H 	H 	0.5937	0.741	0.8548	0.091
Mof_C 	C 	0.8429	0.7566	0.3113	0.055
Mof_H 	H 	0.9063	0.759	0.3548	0.162
Mof_C 	C 	0.3429	0.2566	0.8113	0.024
Mof_H 	H 	0.4063	0.259	0.8548	0.067
Mof_C 	C 	0.7566	0.8429	0.8113	0.049
Mof_H 	H 	0.759	0.9063	0.8548	0.16
Mof_C 	C 	0.2566	0.3429	0.3113	0.014
Mof_H 	H 	0.259	0.4063	0.3548	0.053
Mof_C 	C 	0.2434	0.1571	0.8113	-0.011
Mof_H 	H 	0.241	0.0937	0.8548	0.052
Mof_C 	C 	0.7434	0.6571	0.3113	0.06
Mof_H 	H 	0.741	0.5937	0.3548	0.079
Mof_C 	C 	0.1571	0.7566	0.8113	0.018
Mof_H 	H 	0.0937	0.759	0.8548	0.084
Mof_C 	C 	0.6571	0.2566	0.3113	0.034
Mof_H 	H 	0.5937	0.259	0.3548	0.055
Mof_C 	C 	0.8429	0.2434	0.8113	0.022
Mof_H 	H 	0.9063	0.241	0.8548	0.134
Mof_C 	C 	0.3429	0.7434	0.3113	0.041
Mof_H 	H 	0.4063	0.741	0.3548	0.077
Mof_C 	C 	0.2434	0.8429	0.6887	0.028
Mof_H 	H 	0.241	0.9063	0.6452	0.133
Mof_C 	C 	0.7434	0.3429	0.1887	0.048
Mof_H 	H 	0.741	0.4063	0.1452	0.081
Mof_C 	C 	0.7566	0.1571	0.6887	0.025
Mof_H 	H 	0.759	0.0937	0.6452	0.081
Mof_C 	C 	0.2566	0.6571	0.1887	0.041
Mof_H 	H 	0.259	0.5937	0.1452	0.06
Mof_C 	C 	0.8429	0.7566	0.6887	0.055
Mof_H 	H 	0.9063	0.759	0.6452	0.161
Mof_C 	C 	0.3429	0.2566	0.1887	0.021
Mof_H 	H 	0.4063	0.259	0.1452	0.058
Mof_C 	C 	0.1571	0.2434	0.6887	-0.005
Mof_H 	H 	0.0937	0.241	0.6452	0.048
Mof_C 	C 	0.6571	0.7434	0.1887	0.067
Mof_H 	H 	0.5937	0.741	0.1452	0.084
Mof_Nb	Nb	-0	0	-0	2.117
Mof_Nb	Nb	0.5	0.5	0.5	3.063
Mof_Nb	Nb	2.99221e-33	0	0.5	2.368
Mof_Nb	Nb	0.5	0.5	-0	3.232
Mof_Ni	Ni	1.49611e-33	0	0.25	1.008
Mof_Ni	Ni	0.5	0.5	0.75	1.136
Mof_Ni	Ni	-3.69033e-33	0	0.75	1.011
Mof_Ni	Ni	0.5	0.5	0.25	1.135
Mof_O 	O 	2.77656e-33	2.04466e-33	0.1223	-0.746
Mof_F 	F 	2.26032e-33	0	0.3777	-0.909
Mof_O 	O 	0.5	0.5	0.6223	-0.682
Mof_F 	F 	0.5	0.5	0.8777	-0.833
Mof_O 	O 	5.25253e-33	0	0.8777	-0.722
Mof_F 	F 	3.72411e-33	0	0.6223	-0.907
Mof_O 	O 	0.5	0.5	0.3777	-0.682
Mof_F 	F 	0.5	0.5	0.1223	-0.846
Mof_F 	F 	0.192	0.0193	-0	-0.665
Mof_F 	F 	0.692	0.5193	0.5	-0.664
Mof_F 	F 	0.808	0.9807	-0	-0.408
Mof_F 	F 	0.308	0.4807	0.5	-0.715
Mof_F 	F 	0.9807	0.192	-0	-0.488
Mof_F 	F 	0.4807	0.692	0.5	-0.674
Mof_F 	F 	0.0193	0.808	-0	-0.571
Mof_F 	F 	0.5193	0.308	0.5	-0.705
Mof_F 	F 	0.808	0.0193	0.5	-0.576
Mof_F 	F 	0.308	0.5193	-0	-0.72
Mof_F 	F 	0.192	0.9807	0.5	-0.493
Mof_F 	F 	0.692	0.4807	-0	-0.688
Mof_F 	F 	0.0193	0.192	0.5	-0.667
Mof_F 	F 	0.5193	0.692	-0	-0.677
Mof_F 	F 	0.9807	0.808	0.5	-0.415
Mof_F 	F 	0.4807	0.308	-0	-0.73
Mof_N 	N 	0.1518	0.1518	0.25	-0.219
Mof_N 	N 	0.6518	0.6518	0.75	-0.189
Mof_N 	N 	0.8482	0.8482	0.25	-0.075
Mof_N 	N 	0.3482	0.3482	0.75	-0.195
Mof_N 	N 	0.8482	0.1518	0.25	-0.143
Mof_N 	N 	0.3482	0.6518	0.75	-0.192
Mof_N 	N 	0.1518	0.8482	0.25	-0.143
Mof_N 	N 	0.6518	0.3482	0.75	-0.192
Mof_N 	N 	0.8482	0.8482	0.75	-0.078
Mof_N 	N 	0.3482	0.3482	0.25	-0.196
Mof_N 	N 	0.1518	0.1518	0.75	-0.218
Mof_N 	N 	0.6518	0.6518	0.25	-0.19
Mof_N 	N 	0.1518	0.8482	0.75	-0.144
Mof_N 	N 	0.6518	0.3482	0.25	-0.193
Mof_N 	N 	0.8482	0.1518	0.75	-0.144
Mof_N 	N 	0.3482	0.6518	0.25	-0.193
_end
