data_functionalizedCrystal
_audit_creation_method	'EQeq! by Chris Wilmer'
_symmetry_space_group_name_H-M	'P1'
_symmetry_Int_Tables_number	1
_symmetry_cell_setting	triclinic
loop_
_symmetry_equiv_pos_as_xyz
  x,y,z
_cell_length_a	10.4489
_cell_length_b	21.5552
_cell_length_c	38.344
_cell_angle_alpha	90
_cell_angle_beta	90
_cell_angle_gamma	90
loop_
_atom_site_label
_atom_site_type_symbol
_atom_site_fract_x
_atom_site_fract_y
_atom_site_fract_z
_atom_site_charge
Mof_C 	C 	0.0169	0.6259	0.9103	-0.216
Mof_C 	C 	0.1035	0.6469	0.887	0.125
Mof_H 	H 	0.1897	0.6374	0.8899	0.001
Mof_C 	C 	0.0637	0.6833	0.8582	-0.188
Mof_H 	H 	0.1233	0.6984	0.8423	0.105
Mof_C 	C 	0.9358	0.6959	0.8541	0.13
Mof_C 	C 	0.8498	0.6738	0.8783	-0.204
Mof_H 	H 	0.7632	0.6829	0.876	0.105
Mof_C 	C 	0.891	0.6377	0.9065	0.144
Mof_H 	H 	0.8322	0.622	0.9224	-0.031
Mof_C 	C 	0.0595	0.5871	0.9411	0.438
Mof_C 	C 	0.8908	0.7345	0.8248	-0.042
Mof_C 	C 	0.9055	0.7943	0.8196	-0.035
Mof_C 	C 	0.9652	0.84	0.8428	0.116
Mof_C 	C 	0.958	0.8328	0.879	-0.179
Mof_H 	H 	0.915	0.799	0.8885	0.094
Mof_C 	C 	0.0147	0.8756	0.9005	0.115
Mof_H 	H 	0.0074	0.8712	0.9246	-0.012
Mof_C 	C 	0.0807	0.9239	0.8874	-0.176
Mof_C 	C 	0.0884	0.9329	0.8515	0.105
Mof_H 	H 	0.1317	0.9668	0.8422	0.021
Mof_C 	C 	0.0298	0.8898	0.83	-0.171
Mof_H 	H 	0.0346	0.8952	0.806	0.096
Mof_C 	C 	0.1452	0.9678	0.9124	0.437
Mof_C 	C 	0.7805	0.7522	0.7647	-0.006
Mof_O 	O 	0.9773	0.5682	0.9618	-0.498
Mof_O 	O 	0.1759	0.573	0.944	-0.454
Mof_O 	O 	0.1353	0.9619	0.9438	-0.448
Mof_O 	O 	0.2109	0.0123	0.8961	-0.509
Mof_H 	H 	0.2452	0.0348	0.9106	0.307
Mof_S 	S 	0.8108	0.69056	0.79271	0.003
Mof_S 	S 	0.8381	0.82441	0.78074	-0.003
Mof_C 	C 	0.5169	0.1259	0.4103	-0.225
Mof_C 	C 	0.6035	0.1469	0.387	0.128
Mof_H 	H 	0.6897	0.1374	0.3899	-0.002
Mof_C 	C 	0.5637	0.1833	0.3582	-0.193
Mof_H 	H 	0.6233	0.1984	0.3423	0.105
Mof_C 	C 	0.4358	0.1959	0.3541	0.132
Mof_C 	C 	0.3498	0.1738	0.3783	-0.209
Mof_H 	H 	0.2632	0.1829	0.376	0.106
Mof_C 	C 	0.391	0.1377	0.4065	0.149
Mof_H 	H 	0.3322	0.122	0.4224	-0.036
Mof_C 	C 	0.5595	0.0871	0.4411	0.445
Mof_C 	C 	0.3908	0.2345	0.3248	-0.043
Mof_C 	C 	0.4055	0.2943	0.3196	-0.035
Mof_C 	C 	0.4652	0.34	0.3428	0.118
Mof_C 	C 	0.458	0.3328	0.379	-0.183
Mof_H 	H 	0.415	0.299	0.3885	0.094
Mof_C 	C 	0.5147	0.3756	0.4005	0.119
Mof_H 	H 	0.5074	0.3712	0.4246	-0.018
Mof_C 	C 	0.5807	0.4239	0.3874	-0.182
Mof_C 	C 	0.5884	0.4329	0.3515	0.109
Mof_H 	H 	0.6317	0.4668	0.3422	0.019
Mof_C 	C 	0.5298	0.3898	0.33	-0.174
Mof_H 	H 	0.5346	0.3952	0.306	0.097
Mof_C 	C 	0.6452	0.4678	0.4124	0.441
Mof_C 	C 	0.2805	0.2522	0.2647	-0.006
Mof_O 	O 	0.4773	0.0682	0.4618	-0.52
Mof_O 	O 	0.6759	0.073	0.444	-0.468
Mof_O 	O 	0.6353	0.4619	0.4438	-0.463
Mof_O 	O 	0.7109	0.5123	0.3961	-0.511
Mof_H 	H 	0.7452	0.5348	0.4106	0.307
Mof_S 	S 	0.3108	0.19056	0.29271	0.004
Mof_S 	S 	0.3381	0.32441	0.28074	-0.003
Mof_C 	C 	0.9831	0.3741	0.9103	-0.217
Mof_C 	C 	0.8965	0.3531	0.887	0.124
Mof_H 	H 	0.8103	0.3626	0.8899	0
Mof_C 	C 	0.9363	0.3167	0.8582	-0.189
Mof_H 	H 	0.8767	0.3016	0.8423	0.104
Mof_C 	C 	0.0642	0.3041	0.8541	0.129
Mof_C 	C 	0.1502	0.3262	0.8783	-0.204
Mof_H 	H 	0.2368	0.3171	0.876	0.105
Mof_C 	C 	0.109	0.3623	0.9065	0.144
Mof_H 	H 	0.1678	0.378	0.9224	-0.031
Mof_C 	C 	0.9405	0.4129	0.9411	0.438
Mof_C 	C 	0.1092	0.2655	0.8248	-0.042
Mof_C 	C 	0.0945	0.2057	0.8196	-0.035
Mof_C 	C 	0.0348	0.16	0.8428	0.116
Mof_C 	C 	0.042	0.1672	0.879	-0.179
Mof_H 	H 	0.085	0.201	0.8885	0.094
Mof_C 	C 	0.9853	0.1244	0.9005	0.115
Mof_H 	H 	0.9926	0.1288	0.9246	-0.012
Mof_C 	C 	0.9193	0.0761	0.8874	-0.176
Mof_C 	C 	0.9116	0.0671	0.8515	0.105
Mof_H 	H 	0.8683	0.0332	0.8422	0.021
Mof_C 	C 	0.9702	0.1102	0.83	-0.171
Mof_H 	H 	0.9654	0.1048	0.806	0.096
Mof_C 	C 	0.8548	0.0322	0.9124	0.437
Mof_C 	C 	0.2195	0.2478	0.7647	-0.006
Mof_O 	O 	0.0227	0.4318	0.9618	-0.498
Mof_O 	O 	0.8241	0.427	0.944	-0.454
Mof_O 	O 	0.8647	0.0381	0.9438	-0.448
Mof_O 	O 	0.7891	0.9877	0.8961	-0.509
Mof_H 	H 	0.7548	0.9652	0.9106	0.307
Mof_S 	S 	0.1892	0.30944	0.79271	0.003
Mof_S 	S 	0.1619	0.17559	0.78074	-0.003
Mof_C 	C 	0.4831	0.8741	0.4103	-0.225
Mof_C 	C 	0.3965	0.8531	0.387	0.128
Mof_H 	H 	0.3103	0.8626	0.3899	-0.002
Mof_C 	C 	0.4363	0.8167	0.3582	-0.193
Mof_H 	H 	0.3767	0.8016	0.3423	0.105
Mof_C 	C 	0.5642	0.8041	0.3541	0.132
Mof_C 	C 	0.6502	0.8262	0.3783	-0.209
Mof_H 	H 	0.7368	0.8171	0.376	0.106
Mof_C 	C 	0.609	0.8623	0.4065	0.149
Mof_H 	H 	0.6678	0.878	0.4224	-0.036
Mof_C 	C 	0.4405	0.9129	0.4411	0.445
Mof_C 	C 	0.6092	0.7655	0.3248	-0.043
Mof_C 	C 	0.5945	0.7057	0.3196	-0.035
Mof_C 	C 	0.5348	0.66	0.3428	0.118
Mof_C 	C 	0.542	0.6672	0.379	-0.183
Mof_H 	H 	0.585	0.701	0.3885	0.094
Mof_C 	C 	0.4853	0.6244	0.4005	0.119
Mof_H 	H 	0.4926	0.6288	0.4246	-0.018
Mof_C 	C 	0.4193	0.5761	0.3874	-0.182
Mof_C 	C 	0.4116	0.5671	0.3515	0.109
Mof_H 	H 	0.3683	0.5332	0.3422	0.019
Mof_C 	C 	0.4702	0.6102	0.33	-0.174
Mof_H 	H 	0.4654	0.6048	0.306	0.097
Mof_C 	C 	0.3548	0.5322	0.4124	0.441
Mof_C 	C 	0.7195	0.7478	0.2647	-0.006
Mof_O 	O 	0.5227	0.9318	0.4618	-0.52
Mof_O 	O 	0.3241	0.927	0.444	-0.468
Mof_O 	O 	0.3647	0.5381	0.4438	-0.463
Mof_O 	O 	0.2891	0.4877	0.3961	-0.511
Mof_H 	H 	0.2548	0.4652	0.4106	0.307
Mof_S 	S 	0.6892	0.80944	0.29271	0.004
Mof_S 	S 	0.6619	0.67559	0.28074	-0.003
Mof_C 	C 	0.4831	0.1259	0.0897	-0.224
Mof_C 	C 	0.3965	0.1469	0.113	0.127
Mof_H 	H 	0.3103	0.1374	0.1101	-0.002
Mof_C 	C 	0.4363	0.1833	0.1418	-0.193
Mof_H 	H 	0.3767	0.1984	0.1577	0.105
Mof_C 	C 	0.5642	0.1959	0.1459	0.132
Mof_C 	C 	0.6502	0.1738	0.1217	-0.209
Mof_H 	H 	0.7368	0.1829	0.124	0.105
Mof_C 	C 	0.609	0.1377	0.0935	0.147
Mof_H 	H 	0.6678	0.122	0.0776	-0.036
Mof_C 	C 	0.4405	0.0871	0.0589	0.442
Mof_C 	C 	0.6092	0.2345	0.1752	-0.042
Mof_C 	C 	0.5945	0.2943	0.1804	-0.035
Mof_C 	C 	0.5348	0.34	0.1572	0.119
Mof_C 	C 	0.542	0.3328	0.121	-0.183
Mof_H 	H 	0.585	0.299	0.1115	0.093
Mof_C 	C 	0.4853	0.3756	0.0995	0.12
Mof_H 	H 	0.4926	0.3712	0.0754	-0.02
Mof_C 	C 	0.4193	0.4239	0.1126	-0.182
Mof_C 	C 	0.4116	0.4329	0.1485	0.109
Mof_H 	H 	0.3683	0.4668	0.1578	0.019
Mof_C 	C 	0.4702	0.3898	0.17	-0.174
Mof_H 	H 	0.4654	0.3952	0.194	0.098
Mof_C 	C 	0.3548	0.4678	0.0876	0.441
Mof_C 	C 	0.7195	0.2522	0.2353	-0.006
Mof_O 	O 	0.5227	0.0682	0.0382	-0.517
Mof_O 	O 	0.3241	0.073	0.056	-0.466
Mof_O 	O 	0.3647	0.4619	0.0562	-0.462
Mof_O 	O 	0.2891	0.5123	0.1039	-0.511
Mof_H 	H 	0.2548	0.5348	0.0894	0.307
Mof_S 	S 	0.6892	0.19056	0.20729	0.004
Mof_S 	S 	0.6619	0.32441	0.21926	-0.003
Mof_C 	C 	0.9831	0.6259	0.5897	-0.226
Mof_C 	C 	0.8965	0.6469	0.613	0.129
Mof_H 	H 	0.8103	0.6374	0.6101	-0.002
Mof_C 	C 	0.9363	0.6833	0.6418	-0.194
Mof_H 	H 	0.8767	0.6984	0.6577	0.105
Mof_C 	C 	0.0642	0.6959	0.6459	0.132
Mof_C 	C 	0.1502	0.6738	0.6217	-0.209
Mof_H 	H 	0.2368	0.6829	0.624	0.106
Mof_C 	C 	0.109	0.6377	0.5935	0.149
Mof_H 	H 	0.1678	0.622	0.5776	-0.037
Mof_C 	C 	0.9405	0.5871	0.5589	0.445
Mof_C 	C 	0.1092	0.7345	0.6752	-0.043
Mof_C 	C 	0.0945	0.7943	0.6804	-0.035
Mof_C 	C 	0.0348	0.84	0.6572	0.118
Mof_C 	C 	0.042	0.8328	0.621	-0.183
Mof_H 	H 	0.085	0.799	0.6115	0.094
Mof_C 	C 	0.9853	0.8756	0.5995	0.119
Mof_H 	H 	0.9926	0.8712	0.5754	-0.018
Mof_C 	C 	0.9193	0.9239	0.6126	-0.181
Mof_C 	C 	0.9116	0.9329	0.6485	0.109
Mof_H 	H 	0.8683	0.9668	0.6578	0.02
Mof_C 	C 	0.9702	0.8898	0.67	-0.174
Mof_H 	H 	0.9654	0.8952	0.694	0.097
Mof_C 	C 	0.8548	0.9678	0.5876	0.441
Mof_C 	C 	0.2195	0.7522	0.7353	-0.006
Mof_O 	O 	0.0227	0.5682	0.5382	-0.52
Mof_O 	O 	0.8241	0.573	0.556	-0.468
Mof_O 	O 	0.8647	0.9619	0.5562	-0.463
Mof_O 	O 	0.7891	0.0123	0.6039	-0.511
Mof_H 	H 	0.7548	0.0348	0.5894	0.307
Mof_S 	S 	0.1892	0.69056	0.70729	0.004
Mof_S 	S 	0.1619	0.82441	0.71926	-0.003
Mof_C 	C 	0.5169	0.8741	0.0897	-0.224
Mof_C 	C 	0.6035	0.8531	0.113	0.127
Mof_H 	H 	0.6897	0.8626	0.1101	-0.002
Mof_C 	C 	0.5637	0.8167	0.1418	-0.193
Mof_H 	H 	0.6233	0.8016	0.1577	0.105
Mof_C 	C 	0.4358	0.8041	0.1459	0.132
Mof_C 	C 	0.3498	0.8262	0.1217	-0.209
Mof_H 	H 	0.2632	0.8171	0.124	0.105
Mof_C 	C 	0.391	0.8623	0.0935	0.147
Mof_H 	H 	0.3322	0.878	0.0776	-0.036
Mof_C 	C 	0.5595	0.9129	0.0589	0.442
Mof_C 	C 	0.3908	0.7655	0.1752	-0.042
Mof_C 	C 	0.4055	0.7057	0.1804	-0.035
Mof_C 	C 	0.4652	0.66	0.1572	0.119
Mof_C 	C 	0.458	0.6672	0.121	-0.183
Mof_H 	H 	0.415	0.701	0.1115	0.093
Mof_C 	C 	0.5147	0.6244	0.0995	0.12
Mof_H 	H 	0.5074	0.6288	0.0754	-0.02
Mof_C 	C 	0.5807	0.5761	0.1126	-0.182
Mof_C 	C 	0.5884	0.5671	0.1485	0.109
Mof_H 	H 	0.6317	0.5332	0.1578	0.019
Mof_C 	C 	0.5298	0.6102	0.17	-0.174
Mof_H 	H 	0.5346	0.6048	0.194	0.098
Mof_C 	C 	0.6452	0.5322	0.0876	0.441
Mof_C 	C 	0.2805	0.7478	0.2353	-0.006
Mof_O 	O 	0.4773	0.9318	0.0382	-0.517
Mof_O 	O 	0.6759	0.927	0.056	-0.466
Mof_O 	O 	0.6353	0.5381	0.0562	-0.462
Mof_O 	O 	0.7109	0.4877	0.1039	-0.511
Mof_H 	H 	0.7452	0.4652	0.0894	0.307
Mof_S 	S 	0.3108	0.80944	0.20729	0.004
Mof_S 	S 	0.3381	0.67559	0.21926	-0.003
Mof_C 	C 	0.0169	0.3741	0.5897	-0.226
Mof_C 	C 	0.1035	0.3531	0.613	0.129
Mof_H 	H 	0.1897	0.3626	0.6101	-0.002
Mof_C 	C 	0.0637	0.3167	0.6418	-0.194
Mof_H 	H 	0.1233	0.3016	0.6577	0.105
Mof_C 	C 	0.9358	0.3041	0.6459	0.132
Mof_C 	C 	0.8498	0.3262	0.6217	-0.209
Mof_H 	H 	0.7632	0.3171	0.624	0.106
Mof_C 	C 	0.891	0.3623	0.5935	0.149
Mof_H 	H 	0.8322	0.378	0.5776	-0.037
Mof_C 	C 	0.0595	0.4129	0.5589	0.445
Mof_C 	C 	0.8908	0.2655	0.6752	-0.043
Mof_C 	C 	0.9055	0.2057	0.6804	-0.035
Mof_C 	C 	0.9652	0.16	0.6572	0.118
Mof_C 	C 	0.958	0.1672	0.621	-0.183
Mof_H 	H 	0.915	0.201	0.6115	0.094
Mof_C 	C 	0.0147	0.1244	0.5995	0.119
Mof_H 	H 	0.0074	0.1288	0.5754	-0.018
Mof_C 	C 	0.0807	0.0761	0.6126	-0.181
Mof_C 	C 	0.0884	0.0671	0.6485	0.109
Mof_H 	H 	0.1317	0.0332	0.6578	0.02
Mof_C 	C 	0.0298	0.1102	0.67	-0.174
Mof_H 	H 	0.0346	0.1048	0.694	0.097
Mof_C 	C 	0.1452	0.0322	0.5876	0.441
Mof_C 	C 	0.7805	0.2478	0.7353	-0.006
Mof_O 	O 	0.9773	0.4318	0.5382	-0.52
Mof_O 	O 	0.1759	0.427	0.556	-0.468
Mof_O 	O 	0.1353	0.0381	0.5562	-0.463
Mof_O 	O 	0.2109	0.9877	0.6039	-0.511
Mof_H 	H 	0.2452	0.9652	0.5894	0.307
Mof_S 	S 	0.8108	0.30944	0.70729	0.004
Mof_S 	S 	0.8381	0.17559	0.71926	-0.003
Mof_C 	C 	0.9831	0.3741	0.0897	-0.225
Mof_C 	C 	0.8965	0.3531	0.113	0.127
Mof_H 	H 	0.8103	0.3626	0.1101	-0.002
Mof_C 	C 	0.9363	0.3167	0.1418	-0.193
Mof_H 	H 	0.8767	0.3016	0.1577	0.105
Mof_C 	C 	0.0642	0.3041	0.1459	0.132
Mof_C 	C 	0.1502	0.3262	0.1217	-0.209
Mof_H 	H 	0.2368	0.3171	0.124	0.105
Mof_C 	C 	0.109	0.3623	0.0935	0.148
Mof_H 	H 	0.1678	0.378	0.0776	-0.036
Mof_C 	C 	0.9405	0.4129	0.0589	0.442
Mof_C 	C 	0.1092	0.2655	0.1752	-0.043
Mof_C 	C 	0.0945	0.2057	0.1804	-0.035
Mof_C 	C 	0.0348	0.16	0.1572	0.118
Mof_C 	C 	0.042	0.1672	0.121	-0.183
Mof_H 	H 	0.085	0.201	0.1115	0.093
Mof_C 	C 	0.9853	0.1244	0.0995	0.12
Mof_H 	H 	0.9926	0.1288	0.0754	-0.02
Mof_C 	C 	0.9193	0.0761	0.1126	-0.182
Mof_C 	C 	0.9116	0.0671	0.1485	0.109
Mof_H 	H 	0.8683	0.0332	0.1578	0.02
Mof_C 	C 	0.9702	0.1102	0.17	-0.174
Mof_H 	H 	0.9654	0.1048	0.194	0.098
Mof_C 	C 	0.8548	0.0322	0.0876	0.441
Mof_C 	C 	0.2195	0.2478	0.2353	-0.006
Mof_O 	O 	0.0227	0.4318	0.0382	-0.517
Mof_O 	O 	0.8241	0.427	0.056	-0.466
Mof_O 	O 	0.8647	0.0381	0.0562	-0.462
Mof_O 	O 	0.7891	0.9877	0.1039	-0.511
Mof_H 	H 	0.7548	0.9652	0.0894	0.307
Mof_S 	S 	0.1892	0.30944	0.20729	0.004
Mof_S 	S 	0.1619	0.17559	0.21926	-0.003
Mof_C 	C 	0.4831	0.8741	0.5897	-0.225
Mof_C 	C 	0.3965	0.8531	0.613	0.128
Mof_H 	H 	0.3103	0.8626	0.6101	-0.002
Mof_C 	C 	0.4363	0.8167	0.6418	-0.193
Mof_H 	H 	0.3767	0.8016	0.6577	0.105
Mof_C 	C 	0.5642	0.8041	0.6459	0.132
Mof_C 	C 	0.6502	0.8262	0.6217	-0.209
Mof_H 	H 	0.7368	0.8171	0.624	0.106
Mof_C 	C 	0.609	0.8623	0.5935	0.149
Mof_H 	H 	0.6678	0.878	0.5776	-0.036
Mof_C 	C 	0.4405	0.9129	0.5589	0.445
Mof_C 	C 	0.6092	0.7655	0.6752	-0.043
Mof_C 	C 	0.5945	0.7057	0.6804	-0.035
Mof_C 	C 	0.5348	0.66	0.6572	0.118
Mof_C 	C 	0.542	0.6672	0.621	-0.183
Mof_H 	H 	0.585	0.701	0.6115	0.094
Mof_C 	C 	0.4853	0.6244	0.5995	0.119
Mof_H 	H 	0.4926	0.6288	0.5754	-0.018
Mof_C 	C 	0.4193	0.5761	0.6126	-0.182
Mof_C 	C 	0.4116	0.5671	0.6485	0.109
Mof_H 	H 	0.3683	0.5332	0.6578	0.019
Mof_C 	C 	0.4702	0.6102	0.67	-0.174
Mof_H 	H 	0.4654	0.6048	0.694	0.097
Mof_C 	C 	0.3548	0.5322	0.5876	0.441
Mof_C 	C 	0.7195	0.7478	0.7353	-0.006
Mof_O 	O 	0.5227	0.9318	0.5382	-0.52
Mof_O 	O 	0.3241	0.927	0.556	-0.468
Mof_O 	O 	0.3647	0.5381	0.5562	-0.463
Mof_O 	O 	0.2891	0.4877	0.6039	-0.511
Mof_H 	H 	0.2548	0.4652	0.5894	0.307
Mof_S 	S 	0.6892	0.80944	0.70729	0.004
Mof_S 	S 	0.6619	0.67559	0.71926	-0.003
Mof_C 	C 	0.0169	0.6259	0.0897	-0.225
Mof_C 	C 	0.1035	0.6469	0.113	0.127
Mof_H 	H 	0.1897	0.6374	0.1101	-0.002
Mof_C 	C 	0.0637	0.6833	0.1418	-0.193
Mof_H 	H 	0.1233	0.6984	0.1577	0.105
Mof_C 	C 	0.9358	0.6959	0.1459	0.132
Mof_C 	C 	0.8498	0.6738	0.1217	-0.209
Mof_H 	H 	0.7632	0.6829	0.124	0.105
Mof_C 	C 	0.891	0.6377	0.0935	0.148
Mof_H 	H 	0.8322	0.622	0.0776	-0.036
Mof_C 	C 	0.0595	0.5871	0.0589	0.442
Mof_C 	C 	0.8908	0.7345	0.1752	-0.043
Mof_C 	C 	0.9055	0.7943	0.1804	-0.035
Mof_C 	C 	0.9652	0.84	0.1572	0.118
Mof_C 	C 	0.958	0.8328	0.121	-0.183
Mof_H 	H 	0.915	0.799	0.1115	0.093
Mof_C 	C 	0.0147	0.8756	0.0995	0.12
Mof_H 	H 	0.0074	0.8712	0.0754	-0.02
Mof_C 	C 	0.0807	0.9239	0.1126	-0.182
Mof_C 	C 	0.0884	0.9329	0.1485	0.109
Mof_H 	H 	0.1317	0.9668	0.1578	0.02
Mof_C 	C 	0.0298	0.8898	0.17	-0.174
Mof_H 	H 	0.0346	0.8952	0.194	0.098
Mof_C 	C 	0.1452	0.9678	0.0876	0.441
Mof_C 	C 	0.7805	0.7522	0.2353	-0.006
Mof_O 	O 	0.9773	0.5682	0.0382	-0.517
Mof_O 	O 	0.1759	0.573	0.056	-0.466
Mof_O 	O 	0.1353	0.9619	0.0562	-0.462
Mof_O 	O 	0.2109	0.0123	0.1039	-0.511
Mof_H 	H 	0.2452	0.0348	0.0894	0.307
Mof_S 	S 	0.8108	0.69056	0.20729	0.004
Mof_S 	S 	0.8381	0.82441	0.21926	-0.003
Mof_C 	C 	0.5169	0.1259	0.5897	-0.225
Mof_C 	C 	0.6035	0.1469	0.613	0.128
Mof_H 	H 	0.6897	0.1374	0.6101	-0.002
Mof_C 	C 	0.5637	0.1833	0.6418	-0.193
Mof_H 	H 	0.6233	0.1984	0.6577	0.105
Mof_C 	C 	0.4358	0.1959	0.6459	0.132
Mof_C 	C 	0.3498	0.1738	0.6217	-0.209
Mof_H 	H 	0.2632	0.1829	0.624	0.106
Mof_C 	C 	0.391	0.1377	0.5935	0.149
Mof_H 	H 	0.3322	0.122	0.5776	-0.036
Mof_C 	C 	0.5595	0.0871	0.5589	0.445
Mof_C 	C 	0.3908	0.2345	0.6752	-0.043
Mof_C 	C 	0.4055	0.2943	0.6804	-0.035
Mof_C 	C 	0.4652	0.34	0.6572	0.118
Mof_C 	C 	0.458	0.3328	0.621	-0.183
Mof_H 	H 	0.415	0.299	0.6115	0.094
Mof_C 	C 	0.5147	0.3756	0.5995	0.119
Mof_H 	H 	0.5074	0.3712	0.5754	-0.018
Mof_C 	C 	0.5807	0.4239	0.6126	-0.182
Mof_C 	C 	0.5884	0.4329	0.6485	0.109
Mof_H 	H 	0.6317	0.4668	0.6578	0.019
Mof_C 	C 	0.5298	0.3898	0.67	-0.174
Mof_H 	H 	0.5346	0.3952	0.694	0.097
Mof_C 	C 	0.6452	0.4678	0.5876	0.441
Mof_C 	C 	0.2805	0.2522	0.7353	-0.006
Mof_O 	O 	0.4773	0.0682	0.5382	-0.52
Mof_O 	O 	0.6759	0.073	0.556	-0.468
Mof_O 	O 	0.6353	0.4619	0.5562	-0.463
Mof_O 	O 	0.7109	0.5123	0.6039	-0.511
Mof_H 	H 	0.7452	0.5348	0.5894	0.307
Mof_S 	S 	0.3108	0.19056	0.70729	0.004
Mof_S 	S 	0.3381	0.32441	0.71926	-0.003
Mof_C 	C 	0.5169	0.8741	0.9103	-0.217
Mof_C 	C 	0.6035	0.8531	0.887	0.124
Mof_H 	H 	0.6897	0.8626	0.8899	0
Mof_C 	C 	0.5637	0.8167	0.8582	-0.189
Mof_H 	H 	0.6233	0.8016	0.8423	0.104
Mof_C 	C 	0.4358	0.8041	0.8541	0.129
Mof_C 	C 	0.3498	0.8262	0.8783	-0.204
Mof_H 	H 	0.2632	0.8171	0.876	0.105
Mof_C 	C 	0.391	0.8623	0.9065	0.144
Mof_H 	H 	0.3322	0.878	0.9224	-0.031
Mof_C 	C 	0.5595	0.9129	0.9411	0.439
Mof_C 	C 	0.3908	0.7655	0.8248	-0.042
Mof_C 	C 	0.4055	0.7057	0.8196	-0.035
Mof_C 	C 	0.4652	0.66	0.8428	0.116
Mof_C 	C 	0.458	0.6672	0.879	-0.179
Mof_H 	H 	0.415	0.701	0.8885	0.094
Mof_C 	C 	0.5147	0.6244	0.9005	0.115
Mof_H 	H 	0.5074	0.6288	0.9246	-0.012
Mof_C 	C 	0.5807	0.5761	0.8874	-0.176
Mof_C 	C 	0.5884	0.5671	0.8515	0.105
Mof_H 	H 	0.6317	0.5332	0.8422	0.021
Mof_C 	C 	0.5298	0.6102	0.83	-0.171
Mof_H 	H 	0.5346	0.6048	0.806	0.096
Mof_C 	C 	0.6452	0.5322	0.9124	0.437
Mof_C 	C 	0.2805	0.7478	0.7647	-0.006
Mof_O 	O 	0.4773	0.9318	0.9618	-0.499
Mof_O 	O 	0.6759	0.927	0.944	-0.454
Mof_O 	O 	0.6353	0.5381	0.9438	-0.448
Mof_O 	O 	0.7109	0.4877	0.8961	-0.509
Mof_H 	H 	0.7452	0.4652	0.9106	0.307
Mof_S 	S 	0.3108	0.80944	0.79271	0.004
Mof_S 	S 	0.3381	0.67559	0.78074	-0.003
Mof_C 	C 	0.0169	0.3741	0.4103	-0.226
Mof_C 	C 	0.1035	0.3531	0.387	0.129
Mof_H 	H 	0.1897	0.3626	0.3899	-0.002
Mof_C 	C 	0.0637	0.3167	0.3582	-0.194
Mof_H 	H 	0.1233	0.3016	0.3423	0.105
Mof_C 	C 	0.9358	0.3041	0.3541	0.132
Mof_C 	C 	0.8498	0.3262	0.3783	-0.209
Mof_H 	H 	0.7632	0.3171	0.376	0.106
Mof_C 	C 	0.891	0.3623	0.4065	0.149
Mof_H 	H 	0.8322	0.378	0.4224	-0.037
Mof_C 	C 	0.0595	0.4129	0.4411	0.445
Mof_C 	C 	0.8908	0.2655	0.3248	-0.043
Mof_C 	C 	0.9055	0.2057	0.3196	-0.035
Mof_C 	C 	0.9652	0.16	0.3428	0.118
Mof_C 	C 	0.958	0.1672	0.379	-0.183
Mof_H 	H 	0.915	0.201	0.3885	0.094
Mof_C 	C 	0.0147	0.1244	0.4005	0.119
Mof_H 	H 	0.0074	0.1288	0.4246	-0.018
Mof_C 	C 	0.0807	0.0761	0.3874	-0.181
Mof_C 	C 	0.0884	0.0671	0.3515	0.109
Mof_H 	H 	0.1317	0.0332	0.3422	0.02
Mof_C 	C 	0.0298	0.1102	0.33	-0.174
Mof_H 	H 	0.0346	0.1048	0.306	0.097
Mof_C 	C 	0.1452	0.0322	0.4124	0.441
Mof_C 	C 	0.7805	0.2478	0.2647	-0.006
Mof_O 	O 	0.9773	0.4318	0.4618	-0.52
Mof_O 	O 	0.1759	0.427	0.444	-0.468
Mof_O 	O 	0.1353	0.0381	0.4438	-0.463
Mof_O 	O 	0.2109	0.9877	0.3961	-0.511
Mof_H 	H 	0.2452	0.9652	0.4106	0.307
Mof_S 	S 	0.8108	0.30944	0.29271	0.004
Mof_S 	S 	0.8381	0.17559	0.28074	-0.003
Mof_C 	C 	0.4831	0.1259	0.9103	-0.217
Mof_C 	C 	0.3965	0.1469	0.887	0.124
Mof_H 	H 	0.3103	0.1374	0.8899	0
Mof_C 	C 	0.4363	0.1833	0.8582	-0.189
Mof_H 	H 	0.3767	0.1984	0.8423	0.104
Mof_C 	C 	0.5642	0.1959	0.8541	0.129
Mof_C 	C 	0.6502	0.1738	0.8783	-0.204
Mof_H 	H 	0.7368	0.1829	0.876	0.105
Mof_C 	C 	0.609	0.1377	0.9065	0.144
Mof_H 	H 	0.6678	0.122	0.9224	-0.031
Mof_C 	C 	0.4405	0.0871	0.9411	0.439
Mof_C 	C 	0.6092	0.2345	0.8248	-0.042
Mof_C 	C 	0.5945	0.2943	0.8196	-0.035
Mof_C 	C 	0.5348	0.34	0.8428	0.116
Mof_C 	C 	0.542	0.3328	0.879	-0.179
Mof_H 	H 	0.585	0.299	0.8885	0.094
Mof_C 	C 	0.4853	0.3756	0.9005	0.115
Mof_H 	H 	0.4926	0.3712	0.9246	-0.012
Mof_C 	C 	0.4193	0.4239	0.8874	-0.176
Mof_C 	C 	0.4116	0.4329	0.8515	0.105
Mof_H 	H 	0.3683	0.4668	0.8422	0.021
Mof_C 	C 	0.4702	0.3898	0.83	-0.171
Mof_H 	H 	0.4654	0.3952	0.806	0.096
Mof_C 	C 	0.3548	0.4678	0.9124	0.437
Mof_C 	C 	0.7195	0.2522	0.7647	-0.006
Mof_O 	O 	0.5227	0.0682	0.9618	-0.499
Mof_O 	O 	0.3241	0.073	0.944	-0.454
Mof_O 	O 	0.3647	0.4619	0.9438	-0.448
Mof_O 	O 	0.2891	0.5123	0.8961	-0.509
Mof_H 	H 	0.2548	0.5348	0.9106	0.307
Mof_S 	S 	0.6892	0.19056	0.79271	0.004
Mof_S 	S 	0.6619	0.32441	0.78074	-0.003
Mof_C 	C 	0.9831	0.6259	0.4103	-0.226
Mof_C 	C 	0.8965	0.6469	0.387	0.129
Mof_H 	H 	0.8103	0.6374	0.3899	-0.002
Mof_C 	C 	0.9363	0.6833	0.3582	-0.194
Mof_H 	H 	0.8767	0.6984	0.3423	0.105
Mof_C 	C 	0.0642	0.6959	0.3541	0.132
Mof_C 	C 	0.1502	0.6738	0.3783	-0.209
Mof_H 	H 	0.2368	0.6829	0.376	0.106
Mof_C 	C 	0.109	0.6377	0.4065	0.149
Mof_H 	H 	0.1678	0.622	0.4224	-0.037
Mof_C 	C 	0.9405	0.5871	0.4411	0.445
Mof_C 	C 	0.1092	0.7345	0.3248	-0.043
Mof_C 	C 	0.0945	0.7943	0.3196	-0.035
Mof_C 	C 	0.0348	0.84	0.3428	0.118
Mof_C 	C 	0.042	0.8328	0.379	-0.183
Mof_H 	H 	0.085	0.799	0.3885	0.094
Mof_C 	C 	0.9853	0.8756	0.4005	0.119
Mof_H 	H 	0.9926	0.8712	0.4246	-0.018
Mof_C 	C 	0.9193	0.9239	0.3874	-0.181
Mof_C 	C 	0.9116	0.9329	0.3515	0.109
Mof_H 	H 	0.8683	0.9668	0.3422	0.02
Mof_C 	C 	0.9702	0.8898	0.33	-0.174
Mof_H 	H 	0.9654	0.8952	0.306	0.097
Mof_C 	C 	0.8548	0.9678	0.4124	0.441
Mof_C 	C 	0.2195	0.7522	0.2647	-0.006
Mof_O 	O 	0.0227	0.5682	0.4618	-0.52
Mof_O 	O 	0.8241	0.573	0.444	-0.468
Mof_O 	O 	0.8647	0.9619	0.4438	-0.463
Mof_O 	O 	0.7891	0.0123	0.3961	-0.511
Mof_H 	H 	0.7548	0.0348	0.4106	0.307
Mof_S 	S 	0.1892	0.69056	0.29271	0.004
Mof_S 	S 	0.1619	0.82441	0.28074	-0.003
Mof_Ba	Ba	0.19843	0.49181	-0	1.733
Mof_Ba	Ba	0.69843	0.99181	0.5	1.794
Mof_Ba	Ba	0.80157	0.50819	-0	1.733
Mof_Ba	Ba	0.30157	0.00819	0.5	1.794
Mof_Ba	Ba	0.30157	0.99181	-0	1.735
Mof_Ba	Ba	0.80157	0.49181	0.5	1.793
Mof_Ba	Ba	0.69843	0.00819	-0	1.735
Mof_Ba	Ba	0.19843	0.50819	0.5	1.793
_end
