data_functionalizedCrystal
_audit_creation_method	'EQeq! by Chris Wilmer'
_symmetry_space_group_name_H-M	'P1'
_symmetry_Int_Tables_number	1
_symmetry_cell_setting	triclinic
loop_
_symmetry_equiv_pos_as_xyz
  x,y,z
_cell_length_a	6.8105
_cell_length_b	15.1252
_cell_length_c	15.1252
_cell_angle_alpha	62.2115
_cell_angle_beta	81.3678
_cell_angle_gamma	98.6322
loop_
_atom_site_label
_atom_site_type_symbol
_atom_site_fract_x
_atom_site_fract_y
_atom_site_fract_z
_atom_site_charge
Mof_Co	Co	0.1069	0.7163	0.7006	1.15
Mof_Co	Co	0.3906	0.2837	0.4169	1.17
Mof_Co	Co	0.3906	0.5831	0.7163	1.17
Mof_Co	Co	0.8075	0.7006	0.5831	1.183
Mof_Co	Co	0.8075	0.4169	0.2994	1.183
Mof_Co	Co	0.1069	0.2994	0.2837	1.152
Mof_H 	H 	0.24405	0	0.48585	0.16
Mof_H 	H 	0.7299	0.48585	0.51415	0.166
Mof_H 	H 	0.24405	0.51415	-0	0.158
Mof_H 	H 	0.1126	0.5694	0.4306	-0.053
Mof_H 	H 	0.5432	0.4306	-0	-0.037
Mof_H 	H 	0.5432	0	0.5694	-0.041
Mof_C 	C 	0.67785	0.44425	-0	0.227
Mof_C 	C 	0.9497	0.9062	0.5602	0.393
Mof_C 	C 	0.3161	0.5833	0.5108	-0.359
Mof_C 	C 	0.5099	0.5602	0.5336	0.353
Mof_C 	C 	0.2336	0.55575	0.44425	0.245
Mof_C 	C 	0.8269	0.5108	0.9059	-0.291
Mof_C 	C 	0.9497	0.4398	0.0938	0.4
Mof_C 	C 	0.2034	0.4535	0.3606	0.456
Mof_C 	C 	0.67785	-4.30987e-17	0.55575	0.247
Mof_C 	C 	0.0435	0.0938	0.4664	0.303
Mof_C 	C 	0.7499	0.5465	0.8141	0.438
Mof_C 	C 	0.7328	0.4167	0.0941	-0.351
Mof_C 	C 	0.7328	0.9059	0.5833	-0.366
Mof_C 	C 	0.5936	0.4986	0.5014	-0.377
Mof_C 	C 	0.564	0.8141	0.6394	0.461
Mof_C 	C 	0.095	0	0.4986	-0.416
Mof_C 	C 	0.7499	0.1859	0.4535	0.441
Mof_C 	C 	0.564	0.3606	0.1859	0.458
Mof_C 	C 	0.0435	0.5336	0.9062	0.299
Mof_C 	C 	0.095	0.5014	-0	-0.424
Mof_C 	C 	0.5099	0.4664	0.4398	0.353
Mof_C 	C 	0.3161	0.4892	0.4167	-0.359
Mof_C 	C 	0.8269	0.0941	0.4892	-0.297
Mof_C 	C 	0.2034	0.6394	0.5465	0.455
Mof_O 	O 	0.2564	0.3824	0.3438	-0.624
Mof_O 	O 	0.5644	0.1806	0.4902	-0.448
Mof_O 	O 	0.1819	0.6034	0.8173	-0.546
Mof_O 	O 	0.5785	0.3966	0.4207	-0.54
Mof_O 	O 	0.3838	0.8194	0.6708	-0.465
Mof_O 	O 	0.874	0.6176	0.7262	-0.583
Mof_O 	O 	0.6002	0.3438	0.2738	-0.613
Mof_O 	O 	0.0546	0.4902	0.3292	-0.481
Mof_O 	O 	0.3838	0.3292	0.1806	-0.459
Mof_O 	O 	0.6002	0.7262	0.6562	-0.615
Mof_O 	O 	0.2564	0.6562	0.6176	-0.625
Mof_O 	O 	0.874	0.2738	0.3824	-0.584
Mof_O 	O 	0.9992	0.8173	0.5793	-0.526
Mof_O 	O 	0.0546	0.6708	0.5098	-0.482
Mof_O 	O 	0.1819	0.1827	0.3966	-0.545
Mof_O 	O 	0.5785	0.5793	0.6034	-0.54
Mof_O 	O 	0.5644	0.5098	0.8194	-0.448
Mof_O 	O 	0.9992	0.4207	0.1827	-0.526
_end
