data_functionalizedCrystal
_audit_creation_method	'EQeq! by Chris Wilmer'
_symmetry_space_group_name_H-M	'P1'
_symmetry_Int_Tables_number	1
_symmetry_cell_setting	triclinic
loop_
_symmetry_equiv_pos_as_xyz
  x,y,z
_cell_length_a	13.8486
_cell_length_b	22.107
_cell_length_c	25.022
_cell_angle_alpha	90
_cell_angle_beta	95.003
_cell_angle_gamma	90
loop_
_atom_site_label
_atom_site_type_symbol
_atom_site_fract_x
_atom_site_fract_y
_atom_site_fract_z
_atom_site_charge
Mof_Mo	Mo	0.92253	0.63384	0.07232	1.183
Mof_Mo	Mo	0.69379	0.65052	0.11996	1.118
Mof_Mo	Mo	0.62257	0.75882	0.12939	1.15
Mof_Mo	Mo	0.75244	0.88493	0.09545	1.155
Mof_Mo	Mo	0.92288	0.8728	0.06086	1.138
Mof_Mo	Mo	0.02065	0.72809	0.04801	1.109
Mof_Mn	Mn	0.9233	0.73645	0.28028	0.784
Mof_Mn	Mn	0.8651	0.38992	0.16242	0.782
Mof_Mn	Mn	0.7203	0.42731	0.1941	0.629
Mof_P 	P 	0.87268	0.75733	0.14719	0.603
Mof_P 	P 	0.8482	0.54736	0.17004	0.563
Mof_P 	P 	0.6285	0.8839	0.20376	0.599
Mof_P 	P 	0.1596	0.8466	0.0832	0.365
Mof_P 	P 	0.1395	0.8313	0.1239	0.357
Mof_O 	O 	0.0379	0.6724	0.1079	-0.572
Mof_O 	O 	0.8884	0.7029	0.0249	-0.626
Mof_O 	O 	0.7757	0.6092	0.0622	-0.488
Mof_O 	O 	0.9272	0.5773	0.1383	-0.419
Mof_O 	O 	0.8137	0.4882	0.1444	-0.425
Mof_O 	O 	0.8931	0.5373	0.2276	-0.388
Mof_O 	O 	0.763	0.5907	0.1726	-0.435
Mof_O 	O 	0.6707	0.699	0.1824	-0.541
Mof_O 	O 	0.6749	0.7183	0.0676	-0.625
Mof_O 	O 	0.6117	0.8161	0.1946	-0.436
Mof_O 	O 	0.6257	0.837	0.0861	-0.515
Mof_O 	O 	0.5328	0.9187	0.1889	-0.46
Mof_O 	O 	0.6609	0.8951	0.2623	-0.521
Mof_O 	O 	0.708	0.9066	0.1698	-0.432
Mof_O 	O 	0.8824	0.9041	0.1279	-0.535
Mof_O 	O 	0.796	0.8361	0.036	-0.63
Mof_O 	O 	0.0632	0.8809	0.095	-0.456
Mof_O 	O 	0.2031	0.861	0.0311	-0.325
Mof_O 	O 	0.234	0.8619	0.1261	-0.482
Mof_O 	O 	0.1339	0.7766	0.0864	-0.448
Mof_O 	O 	0.1228	0.8135	0.1818	-0.354
Mof_O 	O 	0.9838	0.8105	0.0091	-0.471
Mof_O 	O 	0.8464	0.6918	0.1302	-0.453
Mof_O 	O 	0.7777	0.7948	0.1426	-0.432
Mof_O 	O 	0.9401	0.7828	0.1056	-0.438
Mof_O 	O 	0.9236	0.7588	0.203	-0.468
Mof_C 	C 	0.9402	0.4404	0.0679	-0.021
Mof_H 	H 	0.0043	0.4421	0.0551	-0.038
Mof_H 	H 	0.9384	0.4711	0.0954	0.025
Mof_C 	C 	0.8669	0.4593	0.0208	-0.02
Mof_H 	H 	0.8919	0.4948	0.0038	-0.035
Mof_H 	H 	0.8626	0.427	0.9944	0.033
Mof_N 	N 	0.9311	0.3807	0.0944	-0.313
Mof_H 	H 	0.9886	0.3703	0.1105	0.104
Mof_H 	H 	0.9122	0.3531	0.0698	0.074
Mof_N 	N 	0.7693	0.4728	0.0354	-0.199
Mof_H 	H 	0.7597	0.5126	0.0348	0.068
Mof_H 	H 	0.7632	0.4588	0.0683	0.117
Mof_H 	H 	0.7242	0.8915	0.481	0.178
Mof_H 	H 	0.7282	0.9231	0.5321	0.081
Mof_N 	N 	0.7244	0.9277	0.4967	-0.235
Mof_Mo	Mo	0.42253	0.13384	0.07232	1.148
Mof_Mo	Mo	0.19379	0.15052	0.11996	1.112
Mof_Mo	Mo	0.12257	0.25882	0.12939	1.137
Mof_Mo	Mo	0.25244	0.38493	0.09545	1.154
Mof_Mo	Mo	0.42288	0.3728	0.06086	1.115
Mof_Mo	Mo	0.52065	0.22809	0.04801	1.158
Mof_Mn	Mn	0.4233	0.23645	0.28028	0.763
Mof_Mn	Mn	0.3651	0.88992	0.16242	0.77
Mof_Mn	Mn	0.2203	0.92731	0.1941	0.624
Mof_P 	P 	0.37268	0.25733	0.14719	0.601
Mof_P 	P 	0.3482	0.04736	0.17004	0.561
Mof_P 	P 	0.1285	0.3839	0.20376	0.596
Mof_P 	P 	0.6596	0.3466	0.0832	0.365
Mof_P 	P 	0.6395	0.3313	0.1239	0.36
Mof_O 	O 	0.5379	0.1724	0.1079	-0.563
Mof_O 	O 	0.3884	0.2029	0.0249	-0.634
Mof_O 	O 	0.2757	0.1092	0.0622	-0.484
Mof_O 	O 	0.4272	0.0773	0.1383	-0.423
Mof_O 	O 	0.3137	0.9882	0.1444	-0.426
Mof_O 	O 	0.3931	0.0373	0.2276	-0.401
Mof_O 	O 	0.263	0.0907	0.1726	-0.436
Mof_O 	O 	0.1707	0.199	0.1824	-0.542
Mof_O 	O 	0.1749	0.2183	0.0676	-0.624
Mof_O 	O 	0.1117	0.3161	0.1946	-0.44
Mof_O 	O 	0.1257	0.337	0.0861	-0.52
Mof_O 	O 	0.0328	0.4187	0.1889	-0.468
Mof_O 	O 	0.1609	0.3951	0.2623	-0.521
Mof_O 	O 	0.208	0.4066	0.1698	-0.434
Mof_O 	O 	0.3824	0.4041	0.1279	-0.538
Mof_O 	O 	0.296	0.3361	0.036	-0.628
Mof_O 	O 	0.5632	0.3809	0.095	-0.443
Mof_O 	O 	0.7031	0.361	0.0311	-0.322
Mof_O 	O 	0.734	0.3619	0.1261	-0.483
Mof_O 	O 	0.6339	0.2766	0.0864	-0.451
Mof_O 	O 	0.6228	0.3135	0.1818	-0.352
Mof_O 	O 	0.4838	0.3105	0.0091	-0.487
Mof_O 	O 	0.3464	0.1918	0.1302	-0.452
Mof_O 	O 	0.2777	0.2948	0.1426	-0.431
Mof_O 	O 	0.4401	0.2828	0.1056	-0.45
Mof_O 	O 	0.4236	0.2588	0.203	-0.475
Mof_C 	C 	0.4402	0.9404	0.0679	-0.074
Mof_H 	H 	0.5043	0.9421	0.0551	-0.007
Mof_H 	H 	0.4384	0.9711	0.0954	0.037
Mof_C 	C 	0.3669	0.9593	0.0208	0.004
Mof_H 	H 	0.3919	0.9948	0.0038	-0.045
Mof_H 	H 	0.3626	0.927	0.9944	0.024
Mof_N 	N 	0.4311	0.8807	0.0944	-0.302
Mof_H 	H 	0.4886	0.8703	0.1105	0.091
Mof_H 	H 	0.4122	0.8531	0.0698	0.069
Mof_N 	N 	0.2693	0.9728	0.0354	-0.202
Mof_H 	H 	0.2597	0.0126	0.0348	0.067
Mof_H 	H 	0.2632	0.9588	0.0683	0.118
Mof_H 	H 	0.2242	0.3915	0.481	0.179
Mof_H 	H 	0.2282	0.4231	0.5321	0.08
Mof_N 	N 	0.2244	0.4277	0.4967	-0.236
Mof_Mo	Mo	0.07747	0.63384	0.42768	1.125
Mof_Mo	Mo	0.30621	0.65052	0.38004	1.124
Mof_Mo	Mo	0.37743	0.75882	0.37061	1.155
Mof_Mo	Mo	0.24756	0.88493	0.40455	1.166
Mof_Mo	Mo	0.07712	0.8728	0.43914	1.108
Mof_Mo	Mo	0.97935	0.72809	0.45199	1.222
Mof_Mn	Mn	0.0767	0.73645	0.21972	0.746
Mof_Mn	Mn	0.1349	0.38992	0.33758	0.76
Mof_Mn	Mn	0.2797	0.42731	0.3059	0.63
Mof_P 	P 	0.12732	0.75733	0.35281	0.601
Mof_P 	P 	0.1518	0.54736	0.32996	0.561
Mof_P 	P 	0.3715	0.8839	0.29624	0.598
Mof_P 	P 	0.8404	0.8466	0.4168	0.366
Mof_P 	P 	0.8605	0.8313	0.3761	0.362
Mof_O 	O 	0.9621	0.6724	0.3921	-0.557
Mof_O 	O 	0.1116	0.7029	0.4751	-0.639
Mof_O 	O 	0.2243	0.6092	0.4378	-0.476
Mof_O 	O 	0.0728	0.5773	0.3617	-0.427
Mof_O 	O 	0.1863	0.4882	0.3556	-0.427
Mof_O 	O 	0.1069	0.5373	0.2724	-0.401
Mof_O 	O 	0.237	0.5907	0.3274	-0.435
Mof_O 	O 	0.3293	0.699	0.3176	-0.542
Mof_O 	O 	0.3251	0.7183	0.4324	-0.621
Mof_O 	O 	0.3883	0.8161	0.3054	-0.437
Mof_O 	O 	0.3743	0.837	0.4139	-0.512
Mof_O 	O 	0.4672	0.9187	0.3111	-0.46
Mof_O 	O 	0.3391	0.8951	0.2377	-0.521
Mof_O 	O 	0.292	0.9066	0.3302	-0.435
Mof_O 	O 	0.1176	0.9041	0.3721	-0.543
Mof_O 	O 	0.204	0.8361	0.464	-0.623
Mof_O 	O 	0.9368	0.8809	0.405	-0.43
Mof_O 	O 	0.7969	0.861	0.4689	-0.31
Mof_O 	O 	0.766	0.8619	0.3739	-0.482
Mof_O 	O 	0.8661	0.7766	0.4136	-0.454
Mof_O 	O 	0.8772	0.8135	0.3182	-0.35
Mof_O 	O 	0.0162	0.8105	0.4909	-0.494
Mof_O 	O 	0.1536	0.6918	0.3698	-0.455
Mof_O 	O 	0.2223	0.7948	0.3574	-0.434
Mof_O 	O 	0.0599	0.7828	0.3944	-0.465
Mof_O 	O 	0.0764	0.7588	0.297	-0.482
Mof_C 	C 	0.0598	0.4404	0.4321	-0.148
Mof_H 	H 	0.9957	0.4421	0.4449	0.037
Mof_H 	H 	0.0616	0.4711	0.4046	0.054
Mof_C 	C 	0.1331	0.4593	0.4792	0.085
Mof_H 	H 	0.1081	0.4948	0.4962	-0.062
Mof_H 	H 	0.1374	0.427	0.5056	-0.025
Mof_N 	N 	0.0689	0.3807	0.4056	-0.29
Mof_H 	H 	0.0114	0.3703	0.3895	0.08
Mof_H 	H 	0.0878	0.3531	0.4302	0.07
Mof_N 	N 	0.2307	0.4728	0.4646	-0.218
Mof_H 	H 	0.2403	0.5126	0.4652	0.078
Mof_H 	H 	0.2368	0.4588	0.4317	0.122
Mof_H 	H 	0.2758	0.8915	0.019	0.178
Mof_H 	H 	0.2718	0.9231	0.9679	0.1
Mof_N 	N 	0.2756	0.9277	0.0033	-0.261
Mof_Mo	Mo	0.57747	0.13384	0.42768	1.157
Mof_Mo	Mo	0.80621	0.15052	0.38004	1.129
Mof_Mo	Mo	0.87743	0.25882	0.37061	1.167
Mof_Mo	Mo	0.74756	0.38493	0.40455	1.165
Mof_Mo	Mo	0.57712	0.3728	0.43914	1.128
Mof_Mo	Mo	0.47935	0.22809	0.45199	1.172
Mof_Mn	Mn	0.5767	0.23645	0.21972	0.765
Mof_Mn	Mn	0.6349	0.88992	0.33758	0.769
Mof_Mn	Mn	0.7797	0.92731	0.3059	0.635
Mof_P 	P 	0.62732	0.25733	0.35281	0.602
Mof_P 	P 	0.6518	0.04736	0.32996	0.562
Mof_P 	P 	0.8715	0.3839	0.29624	0.598
Mof_P 	P 	0.3404	0.3466	0.4168	0.366
Mof_P 	P 	0.3605	0.3313	0.3761	0.359
Mof_O 	O 	0.4621	0.1724	0.3921	-0.566
Mof_O 	O 	0.6116	0.2029	0.4751	-0.631
Mof_O 	O 	0.7243	0.1092	0.4378	-0.479
Mof_O 	O 	0.5728	0.0773	0.3617	-0.425
Mof_O 	O 	0.6863	0.9882	0.3556	-0.426
Mof_O 	O 	0.6069	0.0373	0.2724	-0.4
Mof_O 	O 	0.737	0.0907	0.3274	-0.435
Mof_O 	O 	0.8293	0.199	0.3176	-0.542
Mof_O 	O 	0.8251	0.2183	0.4324	-0.622
Mof_O 	O 	0.8883	0.3161	0.3054	-0.433
Mof_O 	O 	0.8743	0.337	0.4139	-0.508
Mof_O 	O 	0.9672	0.4187	0.3111	-0.441
Mof_O 	O 	0.8391	0.3951	0.2377	-0.518
Mof_O 	O 	0.792	0.4066	0.3302	-0.433
Mof_O 	O 	0.6176	0.4041	0.3721	-0.54
Mof_O 	O 	0.704	0.3361	0.464	-0.626
Mof_O 	O 	0.4368	0.3809	0.405	-0.443
Mof_O 	O 	0.2969	0.361	0.4689	-0.313
Mof_O 	O 	0.266	0.3619	0.3739	-0.481
Mof_O 	O 	0.3661	0.2766	0.4136	-0.451
Mof_O 	O 	0.3772	0.3135	0.3182	-0.352
Mof_O 	O 	0.5162	0.3105	0.4909	-0.479
Mof_O 	O 	0.6536	0.1918	0.3698	-0.455
Mof_O 	O 	0.7223	0.2948	0.3574	-0.435
Mof_O 	O 	0.5599	0.2828	0.3944	-0.453
Mof_O 	O 	0.5764	0.2588	0.297	-0.475
Mof_C 	C 	0.5598	0.9404	0.4321	-0.096
Mof_H 	H 	0.4957	0.9421	0.4449	0.006
Mof_H 	H 	0.5616	0.9711	0.4046	0.043
Mof_C 	C 	0.6331	0.9593	0.4792	0.061
Mof_H 	H 	0.6081	0.9948	0.4962	-0.051
Mof_H 	H 	0.6374	0.927	0.5056	-0.016
Mof_N 	N 	0.5689	0.8807	0.4056	-0.3
Mof_H 	H 	0.5114	0.8703	0.3895	0.092
Mof_H 	H 	0.5878	0.8531	0.4302	0.075
Mof_N 	N 	0.7307	0.9728	0.4646	-0.213
Mof_H 	H 	0.7403	0.0126	0.4652	0.077
Mof_H 	H 	0.7368	0.9588	0.4317	0.122
Mof_H 	H 	0.7758	0.3915	0.019	0.177
Mof_H 	H 	0.7718	0.4231	0.9679	0.101
Mof_N 	N 	0.7756	0.4277	0.0033	-0.26
Mof_Mo	Mo	0.07747	0.36616	0.92768	1.134
Mof_Mo	Mo	0.30621	0.34948	0.88004	1.13
Mof_Mo	Mo	0.37743	0.24118	0.87061	1.16
Mof_Mo	Mo	0.24756	0.11507	0.90455	1.174
Mof_Mo	Mo	0.07712	0.1272	0.93914	1.121
Mof_Mo	Mo	0.97935	0.27191	0.95199	1.232
Mof_Mn	Mn	0.0767	0.26355	0.71972	0.747
Mof_Mn	Mn	0.1349	0.61008	0.83758	0.761
Mof_Mn	Mn	0.2797	0.57269	0.8059	0.631
Mof_P 	P 	0.12732	0.24267	0.85281	0.602
Mof_P 	P 	0.1518	0.45264	0.82996	0.561
Mof_P 	P 	0.3715	0.1161	0.79624	0.598
Mof_P 	P 	0.8404	0.1534	0.9168	0.366
Mof_P 	P 	0.8605	0.1687	0.8761	0.361
Mof_O 	O 	0.9621	0.3276	0.8921	-0.559
Mof_O 	O 	0.1116	0.2971	0.9751	-0.625
Mof_O 	O 	0.2243	0.3908	0.9378	-0.469
Mof_O 	O 	0.0728	0.4227	0.8617	-0.428
Mof_O 	O 	0.1863	0.5118	0.8556	-0.427
Mof_O 	O 	0.1069	0.4627	0.7724	-0.401
Mof_O 	O 	0.237	0.4093	0.8274	-0.436
Mof_O 	O 	0.3293	0.301	0.8176	-0.543
Mof_O 	O 	0.3251	0.2817	0.9324	-0.606
Mof_O 	O 	0.3883	0.1839	0.8054	-0.437
Mof_O 	O 	0.3743	0.163	0.9139	-0.506
Mof_O 	O 	0.4672	0.0813	0.8111	-0.46
Mof_O 	O 	0.3391	0.1049	0.7377	-0.521
Mof_O 	O 	0.292	0.0934	0.8302	-0.435
Mof_O 	O 	0.1176	0.0959	0.8721	-0.544
Mof_O 	O 	0.204	0.1639	0.964	-0.608
Mof_O 	O 	0.9368	0.1191	0.905	-0.43
Mof_O 	O 	0.7969	0.139	0.9689	-0.301
Mof_O 	O 	0.766	0.1381	0.8739	-0.482
Mof_O 	O 	0.8661	0.2234	0.9136	-0.452
Mof_O 	O 	0.8772	0.1865	0.8182	-0.35
Mof_O 	O 	0.0162	0.1895	0.9909	-0.483
Mof_O 	O 	0.1536	0.3082	0.8698	-0.456
Mof_O 	O 	0.2223	0.2052	0.8574	-0.435
Mof_O 	O 	0.0599	0.2172	0.8944	-0.466
Mof_O 	O 	0.0764	0.2412	0.797	-0.483
Mof_C 	C 	0.0598	0.5596	0.9321	-0.168
Mof_H 	H 	0.9957	0.5579	0.9449	0.048
Mof_H 	H 	0.0616	0.5289	0.9046	0.06
Mof_C 	C 	0.1331	0.5407	0.9792	0.142
Mof_H 	H 	0.1081	0.5052	0.9962	-0.068
Mof_H 	H 	0.1374	0.573	0.0056	-0.066
Mof_N 	N 	0.0689	0.6193	0.9056	-0.288
Mof_H 	H 	0.0114	0.6297	0.8895	0.081
Mof_H 	H 	0.0878	0.6469	0.9302	0.076
Mof_N 	N 	0.2307	0.5272	0.9646	-0.229
Mof_H 	H 	0.2403	0.4874	0.9652	0.086
Mof_H 	H 	0.2368	0.5412	0.9317	0.125
Mof_H 	H 	0.2758	0.1085	0.519	0.178
Mof_H 	H 	0.2718	0.0769	0.4679	0.078
Mof_N 	N 	0.2756	0.0723	0.5033	-0.235
Mof_Mo	Mo	0.57747	0.86616	0.92768	1.165
Mof_Mo	Mo	0.80621	0.84948	0.88004	1.134
Mof_Mo	Mo	0.87743	0.74118	0.87061	1.171
Mof_Mo	Mo	0.74756	0.61507	0.90455	1.173
Mof_Mo	Mo	0.57712	0.6272	0.93914	1.14
Mof_Mo	Mo	0.47935	0.77191	0.95199	1.185
Mof_Mn	Mn	0.5767	0.76355	0.71972	0.765
Mof_Mn	Mn	0.6349	0.11008	0.83758	0.77
Mof_Mn	Mn	0.7797	0.07269	0.8059	0.635
Mof_P 	P 	0.62732	0.74267	0.85281	0.603
Mof_P 	P 	0.6518	0.95264	0.82996	0.562
Mof_P 	P 	0.8715	0.6161	0.79624	0.599
Mof_P 	P 	0.3404	0.6534	0.9168	0.366
Mof_P 	P 	0.3605	0.6687	0.8761	0.359
Mof_O 	O 	0.4621	0.8276	0.8921	-0.567
Mof_O 	O 	0.6116	0.7971	0.9751	-0.618
Mof_O 	O 	0.7243	0.8908	0.9378	-0.473
Mof_O 	O 	0.5728	0.9227	0.8617	-0.425
Mof_O 	O 	0.6863	0.0118	0.8556	-0.428
Mof_O 	O 	0.6069	0.9627	0.7724	-0.4
Mof_O 	O 	0.737	0.9093	0.8274	-0.435
Mof_O 	O 	0.8293	0.801	0.8176	-0.542
Mof_O 	O 	0.8251	0.7817	0.9324	-0.607
Mof_O 	O 	0.8883	0.6839	0.8054	-0.433
Mof_O 	O 	0.8743	0.663	0.9139	-0.502
Mof_O 	O 	0.9672	0.5813	0.8111	-0.442
Mof_O 	O 	0.8391	0.6049	0.7377	-0.518
Mof_O 	O 	0.792	0.5934	0.8302	-0.433
Mof_O 	O 	0.6176	0.5959	0.8721	-0.54
Mof_O 	O 	0.704	0.6639	0.964	-0.611
Mof_O 	O 	0.4368	0.6191	0.905	-0.442
Mof_O 	O 	0.2969	0.639	0.9689	-0.304
Mof_O 	O 	0.266	0.6381	0.8739	-0.481
Mof_O 	O 	0.3661	0.7234	0.9136	-0.449
Mof_O 	O 	0.3772	0.6865	0.8182	-0.352
Mof_O 	O 	0.5162	0.6895	0.9909	-0.469
Mof_O 	O 	0.6536	0.8082	0.8698	-0.456
Mof_O 	O 	0.7223	0.7052	0.8574	-0.436
Mof_O 	O 	0.5599	0.7172	0.8944	-0.455
Mof_O 	O 	0.5764	0.7412	0.797	-0.476
Mof_C 	C 	0.5598	0.0596	0.9321	-0.118
Mof_H 	H 	0.4957	0.0579	0.9449	0.019
Mof_H 	H 	0.5616	0.0289	0.9046	0.049
Mof_C 	C 	0.6331	0.0407	0.9792	0.118
Mof_H 	H 	0.6081	0.0052	0.9962	-0.058
Mof_H 	H 	0.6374	0.073	0.0056	-0.056
Mof_N 	N 	0.5689	0.1193	0.9056	-0.298
Mof_H 	H 	0.5114	0.1297	0.8895	0.093
Mof_H 	H 	0.5878	0.1469	0.9302	0.081
Mof_N 	N 	0.7307	0.0272	0.9646	-0.225
Mof_H 	H 	0.7403	0.9874	0.9652	0.086
Mof_H 	H 	0.7368	0.0412	0.9317	0.124
Mof_H 	H 	0.7758	0.6085	0.519	0.177
Mof_H 	H 	0.7718	0.5769	0.4679	0.079
Mof_N 	N 	0.7756	0.5723	0.5033	-0.234
Mof_Mo	Mo	0.92253	0.36616	0.57232	1.19
Mof_Mo	Mo	0.69379	0.34948	0.61996	1.124
Mof_Mo	Mo	0.62257	0.24118	0.62939	1.155
Mof_Mo	Mo	0.75244	0.11507	0.59545	1.163
Mof_Mo	Mo	0.92288	0.1272	0.56086	1.149
Mof_Mo	Mo	0.02065	0.27191	0.54801	1.123
Mof_Mn	Mn	0.9233	0.26355	0.78028	0.782
Mof_Mn	Mn	0.8651	0.61008	0.66242	0.781
Mof_Mn	Mn	0.7203	0.57269	0.6941	0.629
Mof_P 	P 	0.87268	0.24267	0.64719	0.603
Mof_P 	P 	0.8482	0.45264	0.67004	0.562
Mof_P 	P 	0.6285	0.1161	0.70376	0.598
Mof_P 	P 	0.1596	0.1534	0.5832	0.366
Mof_P 	P 	0.1395	0.1687	0.6239	0.357
Mof_O 	O 	0.0379	0.3276	0.6079	-0.574
Mof_O 	O 	0.8884	0.2971	0.5249	-0.623
Mof_O 	O 	0.7757	0.3908	0.5622	-0.483
Mof_O 	O 	0.9272	0.4227	0.6383	-0.42
Mof_O 	O 	0.8137	0.5118	0.6444	-0.426
Mof_O 	O 	0.8931	0.4627	0.7276	-0.389
Mof_O 	O 	0.763	0.4093	0.6726	-0.435
Mof_O 	O 	0.6707	0.301	0.6824	-0.542
Mof_O 	O 	0.6749	0.2817	0.5676	-0.622
Mof_O 	O 	0.6117	0.1839	0.6946	-0.437
Mof_O 	O 	0.6257	0.163	0.5861	-0.512
Mof_O 	O 	0.5328	0.0813	0.6889	-0.459
Mof_O 	O 	0.6609	0.1049	0.7623	-0.521
Mof_O 	O 	0.708	0.0934	0.6698	-0.433
Mof_O 	O 	0.8824	0.0959	0.6279	-0.536
Mof_O 	O 	0.796	0.1639	0.536	-0.628
Mof_O 	O 	0.0632	0.1191	0.595	-0.456
Mof_O 	O 	0.2031	0.139	0.5311	-0.316
Mof_O 	O 	0.234	0.1381	0.6261	-0.481
Mof_O 	O 	0.1339	0.2234	0.5864	-0.447
Mof_O 	O 	0.1228	0.1865	0.6818	-0.354
Mof_O 	O 	0.9838	0.1895	0.5091	-0.464
Mof_O 	O 	0.8464	0.3082	0.6302	-0.455
Mof_O 	O 	0.7777	0.2052	0.6426	-0.434
Mof_O 	O 	0.9401	0.2172	0.6056	-0.442
Mof_O 	O 	0.9236	0.2412	0.703	-0.468
Mof_C 	C 	0.9402	0.5596	0.5679	-0.044
Mof_H 	H 	0.0043	0.5579	0.5551	-0.024
Mof_H 	H 	0.9384	0.5289	0.5954	0.032
Mof_C 	C 	0.8669	0.5407	0.5208	0.037
Mof_H 	H 	0.8919	0.5052	0.5038	-0.041
Mof_H 	H 	0.8626	0.573	0.4944	-0.007
Mof_N 	N 	0.9311	0.6193	0.5944	-0.31
Mof_H 	H 	0.9886	0.6297	0.6105	0.105
Mof_H 	H 	0.9122	0.6469	0.5698	0.08
Mof_N 	N 	0.7693	0.5272	0.5354	-0.21
Mof_H 	H 	0.7597	0.4874	0.5348	0.076
Mof_H 	H 	0.7632	0.5412	0.5683	0.12
Mof_H 	H 	0.7242	0.1085	0.981	0.178
Mof_H 	H 	0.7282	0.0769	0.0321	0.06
Mof_N 	N 	0.7244	0.0723	0.9967	-0.209
Mof_Mo	Mo	0.42253	0.86616	0.57232	1.157
Mof_Mo	Mo	0.19379	0.84948	0.61996	1.12
Mof_Mo	Mo	0.12257	0.74118	0.62939	1.144
Mof_Mo	Mo	0.25244	0.61507	0.59545	1.164
Mof_Mo	Mo	0.42288	0.6272	0.56086	1.128
Mof_Mo	Mo	0.52065	0.77191	0.54801	1.172
Mof_Mn	Mn	0.4233	0.76355	0.78028	0.764
Mof_Mn	Mn	0.3651	0.11008	0.66242	0.77
Mof_Mn	Mn	0.2203	0.07269	0.6941	0.625
Mof_P 	P 	0.37268	0.74267	0.64719	0.602
Mof_P 	P 	0.3482	0.95264	0.67004	0.562
Mof_P 	P 	0.1285	0.6161	0.70376	0.597
Mof_P 	P 	0.6596	0.6534	0.5832	0.366
Mof_P 	P 	0.6395	0.6687	0.6239	0.36
Mof_O 	O 	0.5379	0.8276	0.6079	-0.565
Mof_O 	O 	0.3884	0.7971	0.5249	-0.631
Mof_O 	O 	0.2757	0.8908	0.5622	-0.479
Mof_O 	O 	0.4272	0.9227	0.6383	-0.424
Mof_O 	O 	0.3137	0.0118	0.6444	-0.428
Mof_O 	O 	0.3931	0.9627	0.7276	-0.4
Mof_O 	O 	0.263	0.9093	0.6726	-0.436
Mof_O 	O 	0.1707	0.801	0.6824	-0.543
Mof_O 	O 	0.1749	0.7817	0.5676	-0.621
Mof_O 	O 	0.1117	0.6839	0.6946	-0.44
Mof_O 	O 	0.1257	0.663	0.5861	-0.516
Mof_O 	O 	0.0328	0.5813	0.6889	-0.467
Mof_O 	O 	0.1609	0.6049	0.7623	-0.521
Mof_O 	O 	0.208	0.5934	0.6698	-0.434
Mof_O 	O 	0.3824	0.5959	0.6279	-0.539
Mof_O 	O 	0.296	0.6639	0.536	-0.625
Mof_O 	O 	0.5632	0.6191	0.595	-0.443
Mof_O 	O 	0.7031	0.639	0.5311	-0.313
Mof_O 	O 	0.734	0.6381	0.6261	-0.483
Mof_O 	O 	0.6339	0.7234	0.5864	-0.45
Mof_O 	O 	0.6228	0.6865	0.6818	-0.352
Mof_O 	O 	0.4838	0.6895	0.5091	-0.479
Mof_O 	O 	0.3464	0.8082	0.6302	-0.454
Mof_O 	O 	0.2777	0.7052	0.6426	-0.433
Mof_O 	O 	0.4401	0.7172	0.6056	-0.453
Mof_O 	O 	0.4236	0.7412	0.703	-0.475
Mof_C 	C 	0.4402	0.0596	0.5679	-0.096
Mof_H 	H 	0.5043	0.0579	0.5551	0.006
Mof_H 	H 	0.4384	0.0289	0.5954	0.043
Mof_C 	C 	0.3669	0.0407	0.5208	0.061
Mof_H 	H 	0.3919	0.0052	0.5038	-0.052
Mof_H 	H 	0.3626	0.073	0.4944	-0.016
Mof_N 	N 	0.4311	0.1193	0.5944	-0.3
Mof_H 	H 	0.4886	0.1297	0.6105	0.092
Mof_H 	H 	0.4122	0.1469	0.5698	0.075
Mof_N 	N 	0.2693	0.0272	0.5354	-0.215
Mof_H 	H 	0.2597	0.9874	0.5348	0.077
Mof_H 	H 	0.2632	0.0412	0.5683	0.12
Mof_H 	H 	0.2242	0.6085	0.981	0.179
Mof_H 	H 	0.2282	0.5769	0.0321	0.058
Mof_N 	N 	0.2244	0.5723	0.9967	-0.21
Mof_Mn	Mn	0.75	0.75	-0	1.098
Mof_Mn	Mn	0.25	0.75	0.5	1.141
Mof_Mn	Mn	0.25	0.25	-0	1.096
Mof_Mn	Mn	0.75	0.25	0.5	1.141
Mof_Mn	Mn	7.4487e-18	0.47564	0.25	0.865
Mof_Mn	Mn	0.5	0.97564	0.25	0.896
Mof_Mn	Mn	4.46922e-17	0.52436	0.75	0.866
Mof_Mn	Mn	0.5	0.02436	0.75	0.895
_end
