# CIF file generated by openbabel 3.1.0, see https://openbabel.org
data_I
_chemical_name_common 'image0'
_cell_length_a 12.338
_cell_length_b 33.33
_cell_length_c 25.857
_cell_angle_alpha 90
_cell_angle_beta 97.45
_cell_angle_gamma 90
_space_group_name_H-M_alt 'P 1'
_space_group_name_Hall 'P 1'
loop_
    _symmetry_equiv_pos_as_xyz
    x,y,z
loop_
    _atom_site_label
    _atom_site_type_symbol
    _atom_site_fract_x
    _atom_site_fract_y
    _atom_site_fract_z
    _atom_site_occupancy
    Mn1      Mn       0.81427    0.56725    0.19950    1.000
    C1       C        0.72230    0.64814    0.13452    1.000
    H1       H        0.69870    0.67350    0.11670    1.000
    H2       H        0.78540    0.65410    0.16110    1.000
    Mn2      Mn       0.00924    0.49630    0.25322    1.000
    Cl1      Cl       0.09466    0.69093    0.41265    1.000
    Mn3      Mn       0.21946    0.42849    0.30270    1.000
    C2       C        0.30670    0.34920    0.37219    1.000
    H3       H        0.32900    0.32420    0.39140    1.000
    H4       H        0.24750    0.34240    0.34400    1.000
    N1       N        0.65750    0.59921    0.19144    1.000
    N2       N        0.63300    0.63190    0.15988    1.000
    C3       C        0.52550    0.64101    0.15470    1.000
    C4       C        0.47620    0.61285    0.18310    1.000
    C5       C        0.56150    0.58705    0.20560    1.000
    C6       C        0.47860    0.67580    0.12380    1.000
    H5       H        0.52690    0.69910    0.13080    1.000
    H6       H        0.40640    0.68220    0.13370    1.000
    H7       H        0.47130    0.66920    0.08660    1.000
    C7       C        0.55580    0.55230    0.24030    1.000
    H8       H        0.55120    0.52760    0.21960    1.000
    H9       H        0.49100    0.55460    0.25830    1.000
    H10      H        0.62150    0.55150    0.26600    1.000
    C8       C        0.36030    0.60821    0.18840    1.000
    C9       C        0.29510    0.64003    0.20080    1.000
    H11      H        0.32600    0.66610    0.20540    1.000
    C10      C        0.18480    0.63441    0.20660    1.000
    H12      H        0.14140    0.65640    0.21490    1.000
    C11      C        0.13940    0.59593    0.19980    1.000
    C12      C        0.20380    0.56425    0.18820    1.000
    H13      H        0.17330    0.53810    0.18460    1.000
    C13      C        0.31160    0.57002    0.18170    1.000
    H14      H        0.35390    0.54790    0.17260    1.000
    C14      C        0.02350    0.58862    0.20560    1.000
    O1       O        0.95810    0.61747    0.20837    1.000
    O2       O        0.98840    0.55238    0.20505    1.000
    N3       N        0.81120    0.58668    0.11502    1.000
    N4       N        0.75480    0.62020    0.09728    1.000
    C15      C        0.74540    0.62276    0.04450    1.000
    C16      C        0.79720    0.58964    0.02711    1.000
    C17      C        0.83710    0.56788    0.07270    1.000
    C18      C        0.68740    0.65600    0.01460    1.000
    H15      H        0.61800    0.66120    0.02800    1.000
    H16      H        0.67300    0.64860    0.97770    1.000
    H17      H        0.73270    0.68020    0.01840    1.000
    C19      C        0.89720    0.52900    0.07790    1.000
    H18      H        0.96300    0.53090    0.06050    1.000
    H19      H        0.85000    0.50760    0.06170    1.000
    H20      H        0.91810    0.52290    0.11490    1.000
    C20      C        0.81000    0.58000    0.97270    1.000
    C21      C        0.82610    0.56282    0.86786    1.000
    C22      C        0.83480    0.55420    0.81186    1.000
    O3       O        0.78410    0.57643    0.77785    1.000
    O4       O        0.89130    0.52543    0.80158    1.000
    N5       N        0.37110    0.29448    0.12390    1.000
    N6       N        0.43300    0.28598    0.08593    1.000
    C23      C        0.51570    0.31296    0.08400    1.000
    C24      C        0.50540    0.34078    0.12270    1.000
    C25      C        0.41550    0.32763    0.14720    1.000
    C26      C        0.59620    0.31105    0.04590    1.000
    H21      H        0.63730    0.28590    0.05060    1.000
    H22      H        0.64680    0.33380    0.05160    1.000
    H23      H        0.55750    0.31230    0.01030    1.000
    C27      C        0.37290    0.34540    0.19340    1.000
    H24      H        0.29300    0.34300    0.18920    1.000
    H25      H        0.39360    0.37370    0.19650    1.000
    H26      H        0.40400    0.33100    0.22500    1.000
    C28      C        0.57640    0.37571    0.13730    1.000
    C29      C        0.53960    0.41430    0.12680    1.000
    H27      H        0.46760    0.41840    0.10970    1.000
    C30      C        0.60600    0.44770    0.14070    1.000
    H28      H        0.58070    0.47400    0.13150    1.000
    C31      C        0.71120    0.44180    0.16870    1.000
    C32      C        0.73580    0.40410    0.18470    1.000
    H29      H        0.80170    0.39960    0.20740    1.000
    C33      C        0.67050    0.37220    0.17000    1.000
    H30      H        0.69200    0.34640    0.18310    1.000
    C34      C        0.78270    0.47686    0.18633    1.000
    O5       O        0.74280    0.51139    0.17851    1.000
    O6       O        0.87460    0.46857    0.20771    1.000
    N7       N        0.62900    0.70496    0.38350    1.000
    N8       N        0.55990    0.71427    0.41891    1.000
    C35      C        0.47540    0.68775    0.41850    1.000
    C36      C        0.49400    0.65927    0.38110    1.000
    C37      C        0.58870    0.67146    0.35980    1.000
    C38      C        0.38880    0.69075    0.45240    1.000
    H31      H        0.42160    0.69640    0.48820    1.000
    H32      H        0.34860    0.66540    0.45150    1.000
    H33      H        0.33850    0.71250    0.43990    1.000
    C39      C        0.63540    0.65281    0.31520    1.000
    H34      H        0.58640    0.65780    0.28290    1.000
    H35      H        0.64310    0.62380    0.32100    1.000
    H36      H        0.70720    0.66460    0.31240    1.000
    C40      C        0.42660    0.62318    0.36660    1.000
    C41      C        0.31620    0.62607    0.34730    1.000
    H37      H        0.28260    0.65180    0.34460    1.000
    C42      C        0.25380    0.59255    0.33190    1.000
    H38      H        0.17830    0.59530    0.31940    1.000
    C43      C        0.30300    0.55463    0.33510    1.000
    C44      C        0.41430    0.55119    0.35540    1.000
    H39      H        0.44790    0.52550    0.35910    1.000
    C45      C        0.47460    0.58551    0.37000    1.000
    H40      H        0.55020    0.58310    0.38260    1.000
    C46      C        0.23810    0.51846    0.31735    1.000
    O7       O        0.13990    0.52394    0.30061    1.000
    O8       O        0.28540    0.48486    0.32082    1.000
    N9       N        0.21360    0.41125    0.38742    1.000
    N10      N        0.26530    0.37730    0.40749    1.000
    C47      C        0.26460    0.37433    0.45923    1.000
    C48      C        0.21080    0.40802    0.47456    1.000
    C49      C        0.18050    0.43010    0.42810    1.000
    C50      C        0.31930    0.34045    0.49080    1.000
    H41      H        0.26780    0.31810    0.49140    1.000
    H42      H        0.34240    0.34960    0.52650    1.000
    H43      H        0.38330    0.33150    0.47510    1.000
    C51      C        0.12120    0.46906    0.42060    1.000
    H44      H        0.17370    0.49120    0.42610    1.000
    H45      H        0.06840    0.47120    0.44580    1.000
    H46      H        0.08240    0.47040    0.38510    1.000
    C52      C        0.18940    0.41833    0.52753    1.000
    C53      C        0.16160    0.38878    0.56252    1.000
    H47      H        0.15240    0.36170    0.55140    1.000
    C54      C        0.14760    0.39914    0.61299    1.000
    H48      H        0.13320    0.37870    0.63680    1.000
    C55      C        0.15410    0.43889    0.62976    1.000
    C56      C        0.17800    0.46857    0.59460    1.000
    H49      H        0.18100    0.49590    0.60510    1.000
    C57      C        0.19710    0.45835    0.54500    1.000
    H50      H        0.21590    0.47870    0.52210    1.000
    C58      C        0.14000    0.44969    0.68456    1.000
    O9       O        0.17590    0.42513    0.71963    1.000
    O10      O        0.09320    0.48203    0.69215    1.000
    N11      N        0.37910    0.39695    0.31642    1.000
    N12      N        0.39850    0.36494    0.34951    1.000
    C59      C        0.50520    0.35526    0.35740    1.000
    C60      C        0.56060    0.38186    0.32900    1.000
    C61      C        0.47750    0.40752    0.30400    1.000
    C62      C        0.54780    0.32140    0.39250    1.000
    H51      H        0.52350    0.32490    0.42680    1.000
    H52      H        0.62790    0.32120    0.39630    1.000
    H53      H        0.51990    0.29590    0.37730    1.000
    C63      C        0.48680    0.44147    0.26740    1.000
    H54      H        0.42260    0.44180    0.24080    1.000
    H55      H        0.55300    0.43810    0.25060    1.000
    H56      H        0.49100    0.46680    0.28680    1.000
    C64      C        0.67740    0.38516    0.32520    1.000
    C65      C        0.74130    0.35240    0.31400    1.000
    H57      H        0.70950    0.32640    0.31130    1.000
    C66      C        0.85050    0.35697    0.30680    1.000
    H58      H        0.89220    0.33440    0.29870    1.000
    C67      C        0.89810    0.39514    0.31150    1.000
    C68      C        0.83660    0.42751    0.32490    1.000
    H59      H        0.86900    0.45340    0.32930    1.000
    C69      C        0.72910    0.42222    0.33200    1.000
    H60      H        0.68870    0.44460    0.34180    1.000
    C70      C        0.01140    0.40201    0.30030    1.000
    O11      O        0.07540    0.37295    0.29478    1.000
    O12      O        0.04360    0.43840    0.29812    1.000
    C71      C        0.82770    0.61000    0.93780    1.000
    H61      H        0.83470    0.63690    0.95000    1.000
    C72      C        0.83560    0.60230    0.88530    1.000
    H62      H        0.84710    0.62350    0.86210    1.000
    C73      C        0.81080    0.53200    0.90090    1.000
    H63      H        0.80670    0.50510    0.88850    1.000
    C74      C        0.80120    0.54020    0.95290    1.000
    H64      H        0.78850    0.51870    0.97550    1.000
    C75      C        0.72050    0.58490    0.93580    1.000
    H65      H        0.65360    0.59430    0.94580    1.000
    C76      C        0.72720    0.57620    0.88490    1.000
    H66      H        0.66390    0.57920    0.86000    1.000
    C77      C        0.91480    0.55600    0.90620    1.000
    H67      H        0.98150    0.54580    0.89700    1.000
    C78      C        0.90440    0.56450    0.95900    1.000
    H68      H        0.96400    0.55930    0.98530    1.000
    Mn4      Mn       0.18573    0.06725    0.80050    1.000
    C79      C        0.27770    0.14814    0.86548    1.000
    H69      H        0.30130    0.17350    0.88330    1.000
    H70      H        0.21460    0.15410    0.83890    1.000
    Mn5      Mn       0.99076    0.99630    0.74678    1.000
    Cl2      Cl       0.90534    0.19093    0.58735    1.000
    Mn6      Mn       0.78054    0.92849    0.69730    1.000
    C80      C        0.69330    0.84920    0.62781    1.000
    H71      H        0.67100    0.82420    0.60860    1.000
    H72      H        0.75250    0.84240    0.65600    1.000
    N13      N        0.34250    0.09921    0.80856    1.000
    N14      N        0.36700    0.13190    0.84012    1.000
    C81      C        0.47450    0.14101    0.84530    1.000
    C82      C        0.52380    0.11285    0.81690    1.000
    C83      C        0.43850    0.08705    0.79440    1.000
    C84      C        0.52140    0.17580    0.87620    1.000
    H73      H        0.47310    0.19910    0.86920    1.000
    H74      H        0.59360    0.18220    0.86630    1.000
    H75      H        0.52870    0.16920    0.91340    1.000
    C85      C        0.44420    0.05230    0.75970    1.000
    H76      H        0.44880    0.02760    0.78040    1.000
    H77      H        0.50900    0.05460    0.74170    1.000
    H78      H        0.37850    0.05150    0.73400    1.000
    C86      C        0.63970    0.10821    0.81160    1.000
    C87      C        0.70490    0.14003    0.79920    1.000
    H79      H        0.67400    0.16610    0.79460    1.000
    C88      C        0.81520    0.13441    0.79340    1.000
    H80      H        0.85860    0.15640    0.78510    1.000
    C89      C        0.86060    0.09593    0.80020    1.000
    C90      C        0.79620    0.06425    0.81180    1.000
    H81      H        0.82670    0.03810    0.81540    1.000
    C91      C        0.68840    0.07002    0.81830    1.000
    H82      H        0.64610    0.04790    0.82740    1.000
    C92      C        0.97650    0.08862    0.79440    1.000
    O13      O        0.04190    0.11747    0.79163    1.000
    O14      O        0.01160    0.05238    0.79495    1.000
    N15      N        0.18880    0.08668    0.88498    1.000
    N16      N        0.24520    0.12020    0.90272    1.000
    C93      C        0.25460    0.12276    0.95550    1.000
    C94      C        0.20280    0.08964    0.97289    1.000
    C95      C        0.16290    0.06788    0.92730    1.000
    C96      C        0.31260    0.15600    0.98540    1.000
    H83      H        0.38200    0.16120    0.97200    1.000
    H84      H        0.32700    0.14860    0.02230    1.000
    H85      H        0.26730    0.18020    0.98160    1.000
    C97      C        0.10280    0.02900    0.92210    1.000
    H86      H        0.03700    0.03090    0.93950    1.000
    H87      H        0.15000    0.00760    0.93830    1.000
    H88      H        0.08190    0.02290    0.88510    1.000
    C98      C        0.19000    0.08000    0.02730    1.000
    C99      C        0.17390    0.06282    0.13214    1.000
    C100     C        0.16520    0.05420    0.18814    1.000
    O15      O        0.21590    0.07643    0.22215    1.000
    O16      O        0.10870    0.02543    0.19842    1.000
    N17      N        0.62890    0.79448    0.87610    1.000
    N18      N        0.56700    0.78598    0.91407    1.000
    C101     C        0.48430    0.81296    0.91600    1.000
    C102     C        0.49460    0.84078    0.87730    1.000
    C103     C        0.58450    0.82763    0.85280    1.000
    C104     C        0.40380    0.81105    0.95410    1.000
    H89      H        0.36270    0.78590    0.94940    1.000
    H90      H        0.35320    0.83380    0.94840    1.000
    H91      H        0.44250    0.81230    0.98970    1.000
    C105     C        0.62710    0.84540    0.80660    1.000
    H92      H        0.70700    0.84300    0.81080    1.000
    H93      H        0.60640    0.87370    0.80350    1.000
    H94      H        0.59600    0.83100    0.77500    1.000
    C106     C        0.42360    0.87571    0.86270    1.000
    C107     C        0.46040    0.91430    0.87320    1.000
    H95      H        0.53240    0.91840    0.89030    1.000
    C108     C        0.39400    0.94770    0.85930    1.000
    H96      H        0.41930    0.97400    0.86850    1.000
    C109     C        0.28880    0.94180    0.83130    1.000
    C110     C        0.26420    0.90410    0.81530    1.000
    H97      H        0.19830    0.89960    0.79260    1.000
    C111     C        0.32950    0.87220    0.83000    1.000
    H98      H        0.30800    0.84640    0.81690    1.000
    C112     C        0.21730    0.97686    0.81367    1.000
    O17      O        0.25720    0.01139    0.82149    1.000
    O18      O        0.12540    0.96857    0.79229    1.000
    N19      N        0.37100    0.20496    0.61650    1.000
    N20      N        0.44010    0.21427    0.58109    1.000
    C113     C        0.52460    0.18775    0.58150    1.000
    C114     C        0.50600    0.15927    0.61890    1.000
    C115     C        0.41130    0.17146    0.64020    1.000
    C116     C        0.61120    0.19075    0.54760    1.000
    H99      H        0.57840    0.19640    0.51180    1.000
    H100     H        0.65140    0.16540    0.54850    1.000
    H101     H        0.66150    0.21250    0.56010    1.000
    C117     C        0.36460    0.15281    0.68480    1.000
    H102     H        0.41360    0.15780    0.71710    1.000
    H103     H        0.35690    0.12380    0.67900    1.000
    H104     H        0.29280    0.16460    0.68760    1.000
    C118     C        0.57340    0.12318    0.63340    1.000
    C119     C        0.68380    0.12607    0.65270    1.000
    H105     H        0.71740    0.15180    0.65540    1.000
    C120     C        0.74620    0.09255    0.66810    1.000
    H106     H        0.82170    0.09530    0.68060    1.000
    C121     C        0.69700    0.05463    0.66490    1.000
    C122     C        0.58570    0.05119    0.64460    1.000
    H107     H        0.55210    0.02550    0.64090    1.000
    C123     C        0.52540    0.08551    0.63000    1.000
    H108     H        0.44980    0.08310    0.61740    1.000
    C124     C        0.76190    0.01846    0.68265    1.000
    O19      O        0.86010    0.02394    0.69939    1.000
    O20      O        0.71460    0.98486    0.67918    1.000
    N21      N        0.78640    0.91125    0.61258    1.000
    N22      N        0.73470    0.87730    0.59251    1.000
    C125     C        0.73540    0.87433    0.54077    1.000
    C126     C        0.78920    0.90802    0.52544    1.000
    C127     C        0.81950    0.93010    0.57190    1.000
    C128     C        0.68070    0.84045    0.50920    1.000
    H109     H        0.73220    0.81810    0.50860    1.000
    H110     H        0.65760    0.84960    0.47350    1.000
    H111     H        0.61670    0.83150    0.52490    1.000
    C129     C        0.87880    0.96906    0.57940    1.000
    H112     H        0.82630    0.99120    0.57390    1.000
    H113     H        0.93160    0.97120    0.55420    1.000
    H114     H        0.91760    0.97040    0.61490    1.000
    C130     C        0.81060    0.91833    0.47247    1.000
    C131     C        0.83840    0.88878    0.43748    1.000
    H115     H        0.84760    0.86170    0.44860    1.000
    C132     C        0.85240    0.89914    0.38701    1.000
    H116     H        0.86680    0.87870    0.36320    1.000
    C133     C        0.84590    0.93889    0.37024    1.000
    C134     C        0.82200    0.96857    0.40540    1.000
    H117     H        0.81900    0.99590    0.39490    1.000
    C135     C        0.80290    0.95835    0.45500    1.000
    H118     H        0.78410    0.97870    0.47790    1.000
    C136     C        0.86000    0.94969    0.31544    1.000
    O21      O        0.82410    0.92513    0.28037    1.000
    O22      O        0.90680    0.98203    0.30785    1.000
    N23      N        0.62090    0.89695    0.68358    1.000
    N24      N        0.60150    0.86494    0.65049    1.000
    C137     C        0.49480    0.85526    0.64260    1.000
    C138     C        0.43940    0.88186    0.67100    1.000
    C139     C        0.52250    0.90752    0.69600    1.000
    C140     C        0.45220    0.82140    0.60750    1.000
    H119     H        0.47650    0.82490    0.57320    1.000
    H120     H        0.37210    0.82120    0.60370    1.000
    H121     H        0.48010    0.79590    0.62270    1.000
    C141     C        0.51320    0.94147    0.73260    1.000
    H122     H        0.57740    0.94180    0.75920    1.000
    H123     H        0.44700    0.93810    0.74940    1.000
    H124     H        0.50900    0.96680    0.71320    1.000
    C142     C        0.32260    0.88516    0.67480    1.000
    C143     C        0.25870    0.85240    0.68600    1.000
    H125     H        0.29050    0.82640    0.68870    1.000
    C144     C        0.14950    0.85697    0.69320    1.000
    H126     H        0.10780    0.83440    0.70130    1.000
    C145     C        0.10190    0.89514    0.68850    1.000
    C146     C        0.16340    0.92751    0.67510    1.000
    H127     H        0.13100    0.95340    0.67070    1.000
    C147     C        0.27090    0.92222    0.66800    1.000
    H128     H        0.31130    0.94460    0.65820    1.000
    C148     C        0.98860    0.90201    0.69970    1.000
    O23      O        0.92460    0.87295    0.70522    1.000
    O24      O        0.95640    0.93840    0.70188    1.000
    C149     C        0.17230    0.11000    0.06220    1.000
    H129     H        0.16530    0.13690    0.05000    1.000
    C150     C        0.16440    0.10230    0.11470    1.000
    H130     H        0.15290    0.12350    0.13790    1.000
    C151     C        0.18920    0.03200    0.09910    1.000
    H131     H        0.19330    0.00510    0.11150    1.000
    C152     C        0.19880    0.04020    0.04710    1.000
    H132     H        0.21150    0.01870    0.02450    1.000
    C153     C        0.27950    0.08490    0.06420    1.000
    H133     H        0.34640    0.09430    0.05420    1.000
    C154     C        0.27280    0.07620    0.11510    1.000
    H134     H        0.33610    0.07920    0.14000    1.000
    C155     C        0.08520    0.05600    0.09380    1.000
    H135     H        0.01850    0.04580    0.10300    1.000
    C156     C        0.09560    0.06450    0.04100    1.000
    H136     H        0.03600    0.05930    0.01470    1.000
    Mn7      Mn       0.18573    0.43275    0.80050    1.000
    C157     C        0.27770    0.35186    0.86548    1.000
    H137     H        0.30130    0.32650    0.88330    1.000
    H138     H        0.21460    0.34590    0.83890    1.000
    Mn8      Mn       0.99076    0.50370    0.74678    1.000
    Cl3      Cl       0.90534    0.30907    0.58735    1.000
    Mn9      Mn       0.78054    0.57151    0.69730    1.000
    C158     C        0.69330    0.65080    0.62781    1.000
    H139     H        0.67100    0.67580    0.60860    1.000
    H140     H        0.75250    0.65760    0.65600    1.000
    N25      N        0.34250    0.40079    0.80856    1.000
    N26      N        0.36700    0.36810    0.84012    1.000
    C159     C        0.47450    0.35899    0.84530    1.000
    C160     C        0.52380    0.38715    0.81690    1.000
    C161     C        0.43850    0.41295    0.79440    1.000
    C162     C        0.52140    0.32420    0.87620    1.000
    H141     H        0.47310    0.30090    0.86920    1.000
    H142     H        0.59360    0.31780    0.86630    1.000
    H143     H        0.52870    0.33080    0.91340    1.000
    C163     C        0.44420    0.44770    0.75970    1.000
    H144     H        0.44880    0.47240    0.78040    1.000
    H145     H        0.50900    0.44540    0.74170    1.000
    H146     H        0.37850    0.44850    0.73400    1.000
    C164     C        0.63970    0.39179    0.81160    1.000
    C165     C        0.70490    0.35997    0.79920    1.000
    H147     H        0.67400    0.33390    0.79460    1.000
    C166     C        0.81520    0.36559    0.79340    1.000
    H148     H        0.85860    0.34360    0.78510    1.000
    C167     C        0.86060    0.40407    0.80020    1.000
    C168     C        0.79620    0.43575    0.81180    1.000
    H149     H        0.82670    0.46190    0.81540    1.000
    C169     C        0.68840    0.42998    0.81830    1.000
    H150     H        0.64610    0.45210    0.82740    1.000
    C170     C        0.97650    0.41138    0.79440    1.000
    O25      O        0.04190    0.38253    0.79163    1.000
    O26      O        0.01160    0.44762    0.79495    1.000
    N27      N        0.18880    0.41332    0.88498    1.000
    N28      N        0.24520    0.37980    0.90272    1.000
    C171     C        0.25460    0.37724    0.95550    1.000
    C172     C        0.20280    0.41036    0.97289    1.000
    C173     C        0.16290    0.43212    0.92730    1.000
    C174     C        0.31260    0.34400    0.98540    1.000
    H151     H        0.38200    0.33880    0.97200    1.000
    H152     H        0.32700    0.35140    0.02230    1.000
    H153     H        0.26730    0.31980    0.98160    1.000
    C175     C        0.10280    0.47100    0.92210    1.000
    H154     H        0.03700    0.46910    0.93950    1.000
    H155     H        0.15000    0.49240    0.93830    1.000
    H156     H        0.08190    0.47710    0.88510    1.000
    C176     C        0.19000    0.42000    0.02730    1.000
    C177     C        0.17390    0.43718    0.13214    1.000
    C178     C        0.16520    0.44580    0.18814    1.000
    O27      O        0.21590    0.42357    0.22215    1.000
    O28      O        0.10870    0.47457    0.19842    1.000
    N29      N        0.62890    0.70552    0.87610    1.000
    N30      N        0.56700    0.71402    0.91407    1.000
    C179     C        0.48430    0.68704    0.91600    1.000
    C180     C        0.49460    0.65922    0.87730    1.000
    C181     C        0.58450    0.67237    0.85280    1.000
    C182     C        0.40380    0.68895    0.95410    1.000
    H157     H        0.36270    0.71410    0.94940    1.000
    H158     H        0.35320    0.66620    0.94840    1.000
    H159     H        0.44250    0.68770    0.98970    1.000
    C183     C        0.62710    0.65460    0.80660    1.000
    H160     H        0.70700    0.65700    0.81080    1.000
    H161     H        0.60640    0.62630    0.80350    1.000
    H162     H        0.59600    0.66900    0.77500    1.000
    C184     C        0.42360    0.62429    0.86270    1.000
    C185     C        0.46040    0.58570    0.87320    1.000
    H163     H        0.53240    0.58160    0.89030    1.000
    C186     C        0.39400    0.55230    0.85930    1.000
    H164     H        0.41930    0.52600    0.86850    1.000
    C187     C        0.28880    0.55820    0.83130    1.000
    C188     C        0.26420    0.59590    0.81530    1.000
    H165     H        0.19830    0.60040    0.79260    1.000
    C189     C        0.32950    0.62780    0.83000    1.000
    H166     H        0.30800    0.65360    0.81690    1.000
    C190     C        0.21730    0.52314    0.81367    1.000
    O29      O        0.25720    0.48861    0.82149    1.000
    O30      O        0.12540    0.53143    0.79229    1.000
    N31      N        0.37100    0.29504    0.61650    1.000
    N32      N        0.44010    0.28573    0.58109    1.000
    C191     C        0.52460    0.31225    0.58150    1.000
    C192     C        0.50600    0.34073    0.61890    1.000
    C193     C        0.41130    0.32854    0.64020    1.000
    C194     C        0.61120    0.30925    0.54760    1.000
    H167     H        0.57840    0.30360    0.51180    1.000
    H168     H        0.65140    0.33460    0.54850    1.000
    H169     H        0.66150    0.28750    0.56010    1.000
    C195     C        0.36460    0.34719    0.68480    1.000
    H170     H        0.41360    0.34220    0.71710    1.000
    H171     H        0.35690    0.37620    0.67900    1.000
    H172     H        0.29280    0.33540    0.68760    1.000
    C196     C        0.57340    0.37682    0.63340    1.000
    C197     C        0.68380    0.37393    0.65270    1.000
    H173     H        0.71740    0.34820    0.65540    1.000
    C198     C        0.74620    0.40745    0.66810    1.000
    H174     H        0.82170    0.40470    0.68060    1.000
    C199     C        0.69700    0.44537    0.66490    1.000
    C200     C        0.58570    0.44881    0.64460    1.000
    H175     H        0.55210    0.47450    0.64090    1.000
    C201     C        0.52540    0.41449    0.63000    1.000
    H176     H        0.44980    0.41690    0.61740    1.000
    C202     C        0.76190    0.48154    0.68265    1.000
    O31      O        0.86010    0.47606    0.69939    1.000
    O32      O        0.71460    0.51514    0.67918    1.000
    N33      N        0.78640    0.58875    0.61258    1.000
    N34      N        0.73470    0.62270    0.59251    1.000
    C203     C        0.73540    0.62567    0.54077    1.000
    C204     C        0.78920    0.59198    0.52544    1.000
    C205     C        0.81950    0.56990    0.57190    1.000
    C206     C        0.68070    0.65955    0.50920    1.000
    H177     H        0.73220    0.68190    0.50860    1.000
    H178     H        0.65760    0.65040    0.47350    1.000
    H179     H        0.61670    0.66850    0.52490    1.000
    C207     C        0.87880    0.53094    0.57940    1.000
    H180     H        0.82630    0.50880    0.57390    1.000
    H181     H        0.93160    0.52880    0.55420    1.000
    H182     H        0.91760    0.52960    0.61490    1.000
    C208     C        0.81060    0.58167    0.47247    1.000
    C209     C        0.83840    0.61122    0.43748    1.000
    H183     H        0.84760    0.63830    0.44860    1.000
    C210     C        0.85240    0.60086    0.38701    1.000
    H184     H        0.86680    0.62130    0.36320    1.000
    C211     C        0.84590    0.56111    0.37024    1.000
    C212     C        0.82200    0.53143    0.40540    1.000
    H185     H        0.81900    0.50410    0.39490    1.000
    C213     C        0.80290    0.54165    0.45500    1.000
    H186     H        0.78410    0.52130    0.47790    1.000
    C214     C        0.86000    0.55031    0.31544    1.000
    O33      O        0.82410    0.57487    0.28037    1.000
    O34      O        0.90680    0.51797    0.30785    1.000
    N35      N        0.62090    0.60305    0.68358    1.000
    N36      N        0.60150    0.63506    0.65049    1.000
    C215     C        0.49480    0.64474    0.64260    1.000
    C216     C        0.43940    0.61814    0.67100    1.000
    C217     C        0.52250    0.59248    0.69600    1.000
    C218     C        0.45220    0.67860    0.60750    1.000
    H187     H        0.47650    0.67510    0.57320    1.000
    H188     H        0.37210    0.67880    0.60370    1.000
    H189     H        0.48010    0.70410    0.62270    1.000
    C219     C        0.51320    0.55853    0.73260    1.000
    H190     H        0.57740    0.55820    0.75920    1.000
    H191     H        0.44700    0.56190    0.74940    1.000
    H192     H        0.50900    0.53320    0.71320    1.000
    C220     C        0.32260    0.61484    0.67480    1.000
    C221     C        0.25870    0.64760    0.68600    1.000
    H193     H        0.29050    0.67360    0.68870    1.000
    C222     C        0.14950    0.64303    0.69320    1.000
    H194     H        0.10780    0.66560    0.70130    1.000
    C223     C        0.10190    0.60486    0.68850    1.000
    C224     C        0.16340    0.57249    0.67510    1.000
    H195     H        0.13100    0.54660    0.67070    1.000
    C225     C        0.27090    0.57778    0.66800    1.000
    H196     H        0.31130    0.55540    0.65820    1.000
    C226     C        0.98860    0.59799    0.69970    1.000
    O35      O        0.92460    0.62705    0.70522    1.000
    O36      O        0.95640    0.56160    0.70188    1.000
    C227     C        0.17230    0.39000    0.06220    1.000
    H197     H        0.16530    0.36310    0.05000    1.000
    C228     C        0.16440    0.39770    0.11470    1.000
    H198     H        0.15290    0.37650    0.13790    1.000
    C229     C        0.18920    0.46800    0.09910    1.000
    H199     H        0.19330    0.49490    0.11150    1.000
    C230     C        0.19880    0.45980    0.04710    1.000
    H200     H        0.21150    0.48130    0.02450    1.000
    C231     C        0.27950    0.41510    0.06420    1.000
    H201     H        0.34640    0.40570    0.05420    1.000
    C232     C        0.27280    0.42380    0.11510    1.000
    H202     H        0.33610    0.42080    0.14000    1.000
    C233     C        0.08520    0.44400    0.09380    1.000
    H203     H        0.01850    0.45420    0.10300    1.000
    C234     C        0.09560    0.43550    0.04100    1.000
    H204     H        0.03600    0.44070    0.01470    1.000
    Mn10     Mn       0.81427    0.93275    0.19950    1.000
    C235     C        0.72230    0.85186    0.13452    1.000
    H205     H        0.69870    0.82650    0.11670    1.000
    H206     H        0.78540    0.84590    0.16110    1.000
    Mn11     Mn       0.00924    0.00370    0.25322    1.000
    Cl4      Cl       0.09466    0.80907    0.41265    1.000
    Mn12     Mn       0.21946    0.07151    0.30270    1.000
    C236     C        0.30670    0.15080    0.37219    1.000
    H207     H        0.32900    0.17580    0.39140    1.000
    H208     H        0.24750    0.15760    0.34400    1.000
    N37      N        0.65750    0.90079    0.19144    1.000
    N38      N        0.63300    0.86810    0.15988    1.000
    C237     C        0.52550    0.85899    0.15470    1.000
    C238     C        0.47620    0.88715    0.18310    1.000
    C239     C        0.56150    0.91295    0.20560    1.000
    C240     C        0.47860    0.82420    0.12380    1.000
    H209     H        0.52690    0.80090    0.13080    1.000
    H210     H        0.40640    0.81780    0.13370    1.000
    H211     H        0.47130    0.83080    0.08660    1.000
    C241     C        0.55580    0.94770    0.24030    1.000
    H212     H        0.55120    0.97240    0.21960    1.000
    H213     H        0.49100    0.94540    0.25830    1.000
    H214     H        0.62150    0.94850    0.26600    1.000
    C242     C        0.36030    0.89179    0.18840    1.000
    C243     C        0.29510    0.85997    0.20080    1.000
    H215     H        0.32600    0.83390    0.20540    1.000
    C244     C        0.18480    0.86559    0.20660    1.000
    H216     H        0.14140    0.84360    0.21490    1.000
    C245     C        0.13940    0.90407    0.19980    1.000
    C246     C        0.20380    0.93575    0.18820    1.000
    H217     H        0.17330    0.96190    0.18460    1.000
    C247     C        0.31160    0.92998    0.18170    1.000
    H218     H        0.35390    0.95210    0.17260    1.000
    C248     C        0.02350    0.91138    0.20560    1.000
    O37      O        0.95810    0.88253    0.20837    1.000
    O38      O        0.98840    0.94762    0.20505    1.000
    N39      N        0.81120    0.91332    0.11502    1.000
    N40      N        0.75480    0.87980    0.09728    1.000
    C249     C        0.74540    0.87724    0.04450    1.000
    C250     C        0.79720    0.91036    0.02711    1.000
    C251     C        0.83710    0.93212    0.07270    1.000
    C252     C        0.68740    0.84400    0.01460    1.000
    H219     H        0.61800    0.83880    0.02800    1.000
    H220     H        0.67300    0.85140    0.97770    1.000
    H221     H        0.73270    0.81980    0.01840    1.000
    C253     C        0.89720    0.97100    0.07790    1.000
    H222     H        0.96300    0.96910    0.06050    1.000
    H223     H        0.85000    0.99240    0.06170    1.000
    H224     H        0.91810    0.97710    0.11490    1.000
    C254     C        0.81000    0.92000    0.97270    1.000
    C255     C        0.82610    0.93718    0.86786    1.000
    C256     C        0.83480    0.94580    0.81186    1.000
    O39      O        0.78410    0.92357    0.77785    1.000
    O40      O        0.89130    0.97457    0.80158    1.000
    N41      N        0.37110    0.20552    0.12390    1.000
    N42      N        0.43300    0.21402    0.08593    1.000
    C257     C        0.51570    0.18704    0.08400    1.000
    C258     C        0.50540    0.15922    0.12270    1.000
    C259     C        0.41550    0.17237    0.14720    1.000
    C260     C        0.59620    0.18895    0.04590    1.000
    H225     H        0.63730    0.21410    0.05060    1.000
    H226     H        0.64680    0.16620    0.05160    1.000
    H227     H        0.55750    0.18770    0.01030    1.000
    C261     C        0.37290    0.15460    0.19340    1.000
    H228     H        0.29300    0.15700    0.18920    1.000
    H229     H        0.39360    0.12630    0.19650    1.000
    H230     H        0.40400    0.16900    0.22500    1.000
    C262     C        0.57640    0.12429    0.13730    1.000
    C263     C        0.53960    0.08570    0.12680    1.000
    H231     H        0.46760    0.08160    0.10970    1.000
    C264     C        0.60600    0.05230    0.14070    1.000
    H232     H        0.58070    0.02600    0.13150    1.000
    C265     C        0.71120    0.05820    0.16870    1.000
    C266     C        0.73580    0.09590    0.18470    1.000
    H233     H        0.80170    0.10040    0.20740    1.000
    C267     C        0.67050    0.12780    0.17000    1.000
    H234     H        0.69200    0.15360    0.18310    1.000
    C268     C        0.78270    0.02314    0.18633    1.000
    O41      O        0.74280    0.98861    0.17851    1.000
    O42      O        0.87460    0.03143    0.20771    1.000
    N43      N        0.62900    0.79504    0.38350    1.000
    N44      N        0.55990    0.78573    0.41891    1.000
    C269     C        0.47540    0.81225    0.41850    1.000
    C270     C        0.49400    0.84073    0.38110    1.000
    C271     C        0.58870    0.82854    0.35980    1.000
    C272     C        0.38880    0.80925    0.45240    1.000
    H235     H        0.42160    0.80360    0.48820    1.000
    H236     H        0.34860    0.83460    0.45150    1.000
    H237     H        0.33850    0.78750    0.43990    1.000
    C273     C        0.63540    0.84719    0.31520    1.000
    H238     H        0.58640    0.84220    0.28290    1.000
    H239     H        0.64310    0.87620    0.32100    1.000
    H240     H        0.70720    0.83540    0.31240    1.000
    C274     C        0.42660    0.87682    0.36660    1.000
    C275     C        0.31620    0.87393    0.34730    1.000
    H241     H        0.28260    0.84820    0.34460    1.000
    C276     C        0.25380    0.90745    0.33190    1.000
    H242     H        0.17830    0.90470    0.31940    1.000
    C277     C        0.30300    0.94537    0.33510    1.000
    C278     C        0.41430    0.94881    0.35540    1.000
    H243     H        0.44790    0.97450    0.35910    1.000
    C279     C        0.47460    0.91449    0.37000    1.000
    H244     H        0.55020    0.91690    0.38260    1.000
    C280     C        0.23810    0.98154    0.31735    1.000
    O43      O        0.13990    0.97606    0.30061    1.000
    O44      O        0.28540    0.01514    0.32082    1.000
    N45      N        0.21360    0.08875    0.38742    1.000
    N46      N        0.26530    0.12270    0.40749    1.000
    C281     C        0.26460    0.12567    0.45923    1.000
    C282     C        0.21080    0.09198    0.47456    1.000
    C283     C        0.18050    0.06990    0.42810    1.000
    C284     C        0.31930    0.15955    0.49080    1.000
    H245     H        0.26780    0.18190    0.49140    1.000
    H246     H        0.34240    0.15040    0.52650    1.000
    H247     H        0.38330    0.16850    0.47510    1.000
    C285     C        0.12120    0.03094    0.42060    1.000
    H248     H        0.17370    0.00880    0.42610    1.000
    H249     H        0.06840    0.02880    0.44580    1.000
    H250     H        0.08240    0.02960    0.38510    1.000
    C286     C        0.18940    0.08167    0.52753    1.000
    C287     C        0.16160    0.11122    0.56252    1.000
    H251     H        0.15240    0.13830    0.55140    1.000
    C288     C        0.14760    0.10086    0.61299    1.000
    H252     H        0.13320    0.12130    0.63680    1.000
    C289     C        0.15410    0.06111    0.62976    1.000
    C290     C        0.17800    0.03143    0.59460    1.000
    H253     H        0.18100    0.00410    0.60510    1.000
    C291     C        0.19710    0.04165    0.54500    1.000
    H254     H        0.21590    0.02130    0.52210    1.000
    C292     C        0.14000    0.05031    0.68456    1.000
    O45      O        0.17590    0.07487    0.71963    1.000
    O46      O        0.09320    0.01797    0.69215    1.000
    N47      N        0.37910    0.10305    0.31642    1.000
    N48      N        0.39850    0.13506    0.34951    1.000
    C293     C        0.50520    0.14474    0.35740    1.000
    C294     C        0.56060    0.11814    0.32900    1.000
    C295     C        0.47750    0.09248    0.30400    1.000
    C296     C        0.54780    0.17860    0.39250    1.000
    H255     H        0.52350    0.17510    0.42680    1.000
    H256     H        0.62790    0.17880    0.39630    1.000
    H257     H        0.51990    0.20410    0.37730    1.000
    C297     C        0.48680    0.05853    0.26740    1.000
    H258     H        0.42260    0.05820    0.24080    1.000
    H259     H        0.55300    0.06190    0.25060    1.000
    H260     H        0.49100    0.03320    0.28680    1.000
    C298     C        0.67740    0.11484    0.32520    1.000
    C299     C        0.74130    0.14760    0.31400    1.000
    H261     H        0.70950    0.17360    0.31130    1.000
    C300     C        0.85050    0.14303    0.30680    1.000
    H262     H        0.89220    0.16560    0.29870    1.000
    C301     C        0.89810    0.10486    0.31150    1.000
    C302     C        0.83660    0.07249    0.32490    1.000
    H263     H        0.86900    0.04660    0.32930    1.000
    C303     C        0.72910    0.07778    0.33200    1.000
    H264     H        0.68870    0.05540    0.34180    1.000
    C304     C        0.01140    0.09799    0.30030    1.000
    O47      O        0.07540    0.12705    0.29478    1.000
    O48      O        0.04360    0.06160    0.29812    1.000
    C305     C        0.82770    0.89000    0.93780    1.000
    H265     H        0.83470    0.86310    0.95000    1.000
    C306     C        0.83560    0.89770    0.88530    1.000
    H266     H        0.84710    0.87650    0.86210    1.000
    C307     C        0.81080    0.96800    0.90090    1.000
    H267     H        0.80670    0.99490    0.88850    1.000
    C308     C        0.80120    0.95980    0.95290    1.000
    H268     H        0.78850    0.98130    0.97550    1.000
    C309     C        0.72050    0.91510    0.93580    1.000
    H269     H        0.65360    0.90570    0.94580    1.000
    C310     C        0.72720    0.92380    0.88490    1.000
    H270     H        0.66390    0.92080    0.86000    1.000
    C311     C        0.91480    0.94400    0.90620    1.000
    H271     H        0.98150    0.95420    0.89700    1.000
    C312     C        0.90440    0.93550    0.95900    1.000
    H272     H        0.96400    0.94070    0.98530    1.000
    Cl5      Cl       0.86812    0.75000    0.45824    1.000
    Cl6      Cl       0.17690    0.75000    0.54051    1.000
    C313     C        0.58070    0.75000    0.45060    1.000
    H273     H        0.53310    0.75000    0.47860    1.000
    H274     H        0.65770    0.75000    0.46720    1.000
    Mn13     Mn       0.75630    0.75000    0.36381    1.000
    Mn14     Mn       0.06499    0.75000    0.45945    1.000
    Cl7      Cl       0.13188    0.25000    0.54176    1.000
    Cl8      Cl       0.82310    0.25000    0.45949    1.000
    C314     C        0.41930    0.25000    0.54940    1.000
    H275     H        0.46690    0.25000    0.52140    1.000
    H276     H        0.34230    0.25000    0.53280    1.000
    Mn15     Mn       0.24370    0.25000    0.63619    1.000
    Mn16     Mn       0.93501    0.25000    0.54055    1.000
    C315     C        0.41030    0.25000    0.05390    1.000
    H277     H        0.33280    0.25000    0.03820    1.000
    H278     H        0.45650    0.25000    0.02530    1.000
    Cl9      Cl       0.29960    0.25000    0.24110    1.000
    Mn17     Mn       0.24668    0.25000    0.14620    1.000
    C316     C        0.58970    0.75000    0.94610    1.000
    H279     H        0.66720    0.75000    0.96180    1.000
    H280     H        0.54350    0.75000    0.97470    1.000
    Cl10     Cl       0.70040    0.75000    0.75890    1.000
    Mn18     Mn       0.75332    0.75000    0.85380    1.000
