data_functionalizedCrystal
_audit_creation_method	'EQeq! by Chris Wilmer'
_symmetry_space_group_name_H-M	'P1'
_symmetry_Int_Tables_number	1
_symmetry_cell_setting	triclinic
loop_
_symmetry_equiv_pos_as_xyz
  x,y,z
_cell_length_a	11.0046
_cell_length_b	32.8649
_cell_length_c	32.8649
_cell_angle_alpha	88.3938
_cell_angle_beta	80.362
_cell_angle_gamma	80.362
loop_
_atom_site_label
_atom_site_type_symbol
_atom_site_fract_x
_atom_site_fract_y
_atom_site_fract_z
_atom_site_charge
Mof_Tb	Tb	0.71517	0.32868	0.97304	1.848
Mof_Tb	Tb	0.21509	0.32502	0.97529	1.869
Mof_Tb	Tb	0.51689	0.17132	0.52696	1.846
Mof_Tb	Tb	0.01541	0.17498	0.5247	1.861
Mof_Tb	Tb	0.68821	0.02696	0.82868	1.847
Mof_Tb	Tb	0.19038	0.02471	0.82502	1.869
Mof_Tb	Tb	0.04385	0.47304	0.67132	1.841
Mof_Tb	Tb	0.54011	0.47529	0.67499	1.869
Mof_Tb	Tb	0.28483	0.67132	0.02696	1.847
Mof_Tb	Tb	0.78491	0.67498	0.0247	1.869
Mof_Tb	Tb	0.48311	0.82868	0.47304	1.846
Mof_Tb	Tb	0.98459	0.82502	0.47529	1.861
Mof_Tb	Tb	0.31179	0.97304	0.17132	1.847
Mof_Tb	Tb	0.80962	0.97529	0.17498	1.869
Mof_Tb	Tb	0.95615	0.52696	0.32868	1.841
Mof_Tb	Tb	0.45988	0.52471	0.32502	1.869
Mof_Co	Co	0.7898	0.12864	0.03624	1.118
Mof_Co	Co	0.45468	0.37136	0.46376	1.118
Mof_Co	Co	0.82604	0.96376	0.62864	1.118
Mof_Co	Co	0.91844	0.53624	0.87136	1.118
Mof_Co	Co	0.2102	0.87136	0.96376	1.118
Mof_Co	Co	0.54532	0.62864	0.53624	1.118
Mof_Co	Co	0.17396	0.03624	0.37136	1.118
Mof_Co	Co	0.08156	0.46376	0.12864	1.118
Mof_H 	H 	0.5386	0.4382	0.0178	-0.007
Mof_H 	H 	0.5021	0.4954	0.0608	0.092
Mof_H 	H 	0.3319	0.5027	0.1137	-0.016
Mof_H 	H 	0.9415	0.3882	0.1396	-0.001
Mof_H 	H 	0.0017	0.319	0.1494	0.09
Mof_H 	H 	0.2096	0.2896	0.1294	0.032
Mof_H 	H 	0.7095	0.2793	0.1259	0.034
Mof_H 	H 	0.5452	0.2429	0.1299	0.087
Mof_H 	H 	0.5662	0.1871	0.0865	0.002
Mof_H 	H 	0.0829	0.1042	0.001	-0.018
Mof_H 	H 	0.2267	0.139	0.9622	0.092
Mof_H 	H 	0.1797	0.2099	0.9569	-0.01
Mof_H 	H 	0.7732	0.4609	0.0271	0.008
Mof_H 	H 	0.8115	0.5287	0.0283	0.091
Mof_H 	H 	0.896	0.5582	0.9682	-0.015
Mof_H 	H 	0.9501	0.4718	0.7986	-0.014
Mof_H 	H 	0.0619	0.405	0.788	0.096
Mof_H 	H 	0.1178	0.3672	0.8446	0.022
Mof_H 	H 	0.5446	0.3623	0.8483	0.029
Mof_H 	H 	0.4344	0.3645	0.7887	0.085
Mof_H 	H 	0.4654	0.2963	0.7617	0.026
Mof_H 	H 	0.666	0.1323	0.8739	-0.021
Mof_H 	H 	0.5476	0.1266	0.9316	0.134
Mof_H 	H 	0.4355	0.1877	0.9583	-0.015
Mof_H 	H 	0.4946	0.0618	0.4822	-0.007
Mof_H 	H 	0.5583	0.0046	0.4392	0.092
Mof_H 	H 	0.4483	0.9973	0.3863	-0.016
Mof_H 	H 	0.9693	0.1118	0.3604	0.001
Mof_H 	H 	0.9701	0.181	0.3506	0.089
Mof_H 	H 	0.1286	0.2104	0.3706	0.032
Mof_H 	H 	0.6147	0.2207	0.3741	0.034
Mof_H 	H 	0.418	0.2571	0.3701	0.087
Mof_H 	H 	0.3398	0.3129	0.4135	0.002
Mof_H 	H 	0.6881	0.3958	0.499	-0.018
Mof_H 	H 	0.8279	0.361	0.5378	0.093
Mof_H 	H 	0.8465	0.2901	0.5431	-0.009
Mof_H 	H 	0.7612	0.0391	0.4729	0.008
Mof_H 	H 	0.8685	0.9713	0.4717	0.091
Mof_H 	H 	0.9224	0.9418	0.5318	-0.016
Mof_H 	H 	0.7205	0.0282	0.7014	-0.012
Mof_H 	H 	0.7549	0.095	0.712	0.095
Mof_H 	H 	0.8296	0.1328	0.6554	0.024
Mof_H 	H 	0.2552	0.1377	0.6517	0.029
Mof_H 	H 	0.0876	0.1355	0.7113	0.085
Mof_H 	H 	0.0234	0.2037	0.7383	0.025
Mof_H 	H 	0.1722	0.3677	0.6261	-0.021
Mof_H 	H 	0.1058	0.3734	0.5684	0.134
Mof_H 	H 	0.0815	0.3123	0.5417	-0.015
Mof_H 	H 	0.5564	0.9822	0.9382	-0.007
Mof_H 	H 	0.5629	0.9392	0.9954	0.092
Mof_H 	H 	0.4456	0.8863	0.0027	-0.016
Mof_H 	H 	0.0811	0.8604	0.8882	0.001
Mof_H 	H 	0.1511	0.8506	0.819	0.088
Mof_H 	H 	0.339	0.8706	0.7896	0.033
Mof_H 	H 	0.8354	0.8741	0.7793	0.034
Mof_H 	H 	0.6751	0.8701	0.7429	0.087
Mof_H 	H 	0.6527	0.9135	0.6871	0.002
Mof_H 	H 	0.0839	0.999	0.6042	-0.018
Mof_H 	H 	0.1889	0.0378	0.639	0.093
Mof_H 	H 	0.1366	0.0431	0.7099	-0.011
Mof_H 	H 	0.8003	0.9729	0.9609	0.008
Mof_H 	H 	0.8398	0.9717	0.0287	0.091
Mof_H 	H 	0.8642	0.0318	0.0582	-0.015
Mof_H 	H 	0.7487	0.2014	0.9718	-0.012
Mof_H 	H 	0.8499	0.212	0.905	0.094
Mof_H 	H 	0.9624	0.1554	0.8672	0.025
Mof_H 	H 	0.3929	0.1517	0.8623	0.029
Mof_H 	H 	0.2231	0.2113	0.8645	0.085
Mof_H 	H 	0.2271	0.2383	0.7963	0.026
Mof_H 	H 	0.5399	0.1261	0.6323	-0.021
Mof_H 	H 	0.4792	0.0684	0.6266	0.134
Mof_H 	H 	0.3938	0.0417	0.6877	-0.015
Mof_H 	H 	0.9768	0.5178	0.5618	-0.006
Mof_H 	H 	0.9975	0.5608	0.5046	0.092
Mof_H 	H 	0.8346	0.6137	0.4973	-0.016
Mof_H 	H 	0.3297	0.6396	0.6118	0.001
Mof_H 	H 	0.3207	0.6494	0.681	0.088
Mof_H 	H 	0.4992	0.6294	0.7104	0.033
Mof_H 	H 	0.9888	0.6259	0.7207	0.033
Mof_H 	H 	0.7881	0.6299	0.7571	0.088
Mof_H 	H 	0.7533	0.5865	0.8129	0.001
Mof_H 	H 	0.1871	0.501	0.8958	-0.018
Mof_H 	H 	0.3657	0.4622	0.861	0.092
Mof_H 	H 	0.3896	0.4569	0.7901	-0.01
Mof_H 	H 	0.2341	0.5271	0.5391	0.008
Mof_H 	H 	0.3402	0.5283	0.4713	0.091
Mof_H 	H 	0.4542	0.4682	0.4418	-0.015
Mof_H 	H 	0.4219	0.2986	0.5282	-0.012
Mof_H 	H 	0.4669	0.288	0.595	0.094
Mof_H 	H 	0.485	0.3446	0.6328	0.024
Mof_H 	H 	0.9069	0.3483	0.6377	0.03
Mof_H 	H 	0.7989	0.2887	0.6355	0.086
Mof_H 	H 	0.7617	0.2617	0.7037	0.026
Mof_H 	H 	0.7983	0.3739	0.8677	-0.021
Mof_H 	H 	0.6742	0.4316	0.8734	0.135
Mof_H 	H 	0.6232	0.4583	0.8123	-0.015
Mof_H 	H 	0.4614	0.5618	0.9822	-0.007
Mof_H 	H 	0.4979	0.5046	0.9392	0.092
Mof_H 	H 	0.6681	0.4973	0.8863	-0.016
Mof_H 	H 	0.0585	0.6118	0.8604	-0.001
Mof_H 	H 	0.9983	0.681	0.8506	0.09
Mof_H 	H 	0.7904	0.7104	0.8706	0.032
Mof_H 	H 	0.2905	0.7207	0.8741	0.034
Mof_H 	H 	0.4548	0.7571	0.8701	0.087
Mof_H 	H 	0.4338	0.8129	0.9135	0.002
Mof_H 	H 	0.9171	0.8958	0.999	-0.018
Mof_H 	H 	0.7733	0.861	0.0378	0.092
Mof_H 	H 	0.8203	0.7901	0.0431	-0.01
Mof_H 	H 	0.2268	0.5391	0.9729	0.008
Mof_H 	H 	0.1885	0.4713	0.9717	0.091
Mof_H 	H 	0.104	0.4418	0.0318	-0.015
Mof_H 	H 	0.0499	0.5282	0.2014	-0.014
Mof_H 	H 	0.9381	0.595	0.212	0.096
Mof_H 	H 	0.8822	0.6328	0.1554	0.022
Mof_H 	H 	0.4554	0.6377	0.1517	0.029
Mof_H 	H 	0.5656	0.6355	0.2113	0.085
Mof_H 	H 	0.5346	0.7037	0.2383	0.026
Mof_H 	H 	0.334	0.8677	0.1261	-0.021
Mof_H 	H 	0.4524	0.8734	0.0684	0.134
Mof_H 	H 	0.5645	0.8123	0.0417	-0.015
Mof_H 	H 	0.5054	0.9382	0.5178	-0.007
Mof_H 	H 	0.4417	0.9954	0.5608	0.092
Mof_H 	H 	0.5517	0.0027	0.6137	-0.016
Mof_H 	H 	0.0307	0.8882	0.6396	0.001
Mof_H 	H 	0.0299	0.819	0.6494	0.089
Mof_H 	H 	0.8714	0.7896	0.6294	0.032
Mof_H 	H 	0.3853	0.7793	0.6259	0.034
Mof_H 	H 	0.582	0.7429	0.6299	0.087
Mof_H 	H 	0.6602	0.6871	0.5865	0.002
Mof_H 	H 	0.3119	0.6042	0.501	-0.018
Mof_H 	H 	0.1721	0.639	0.4622	0.093
Mof_H 	H 	0.1535	0.7099	0.4569	-0.009
Mof_H 	H 	0.2388	0.9609	0.5271	0.008
Mof_H 	H 	0.1315	0.0287	0.5283	0.091
Mof_H 	H 	0.0776	0.0582	0.4682	-0.016
Mof_H 	H 	0.2795	0.9718	0.2986	-0.012
Mof_H 	H 	0.2451	0.905	0.288	0.095
Mof_H 	H 	0.1704	0.8672	0.3446	0.024
Mof_H 	H 	0.7448	0.8623	0.3483	0.029
Mof_H 	H 	0.9124	0.8645	0.2887	0.085
Mof_H 	H 	0.9766	0.7963	0.2617	0.025
Mof_H 	H 	0.8278	0.6323	0.3739	-0.021
Mof_H 	H 	0.8942	0.6266	0.4316	0.134
Mof_H 	H 	0.9185	0.6877	0.4583	-0.015
Mof_H 	H 	0.4436	0.0178	0.0618	-0.007
Mof_H 	H 	0.4371	0.0608	0.0046	0.092
Mof_H 	H 	0.5544	0.1137	0.9973	-0.016
Mof_H 	H 	0.9189	0.1396	0.1118	0.001
Mof_H 	H 	0.8489	0.1494	0.181	0.088
Mof_H 	H 	0.661	0.1294	0.2104	0.033
Mof_H 	H 	0.1646	0.1259	0.2207	0.034
Mof_H 	H 	0.3249	0.1299	0.2571	0.087
Mof_H 	H 	0.3473	0.0865	0.3129	0.002
Mof_H 	H 	0.9161	0.001	0.3958	-0.018
Mof_H 	H 	0.8111	0.9622	0.361	0.093
Mof_H 	H 	0.8634	0.9569	0.2901	-0.011
Mof_H 	H 	0.1997	0.0271	0.0391	0.008
Mof_H 	H 	0.1602	0.0283	0.9713	0.091
Mof_H 	H 	0.1358	0.9682	0.9418	-0.015
Mof_H 	H 	0.2513	0.7986	0.0282	-0.012
Mof_H 	H 	0.1501	0.788	0.095	0.094
Mof_H 	H 	0.0376	0.8446	0.1328	0.025
Mof_H 	H 	0.6071	0.8483	0.1377	0.029
Mof_H 	H 	0.7769	0.7887	0.1355	0.085
Mof_H 	H 	0.7729	0.7617	0.2037	0.026
Mof_H 	H 	0.4601	0.8739	0.3677	-0.021
Mof_H 	H 	0.5208	0.9316	0.3734	0.134
Mof_H 	H 	0.6062	0.9583	0.3123	-0.015
Mof_H 	H 	0.0232	0.4822	0.4382	-0.006
Mof_H 	H 	0.0025	0.4392	0.4954	0.092
Mof_H 	H 	0.1654	0.3863	0.5027	-0.016
Mof_H 	H 	0.6703	0.3604	0.3882	0.001
Mof_H 	H 	0.6793	0.3506	0.319	0.088
Mof_H 	H 	0.5008	0.3706	0.2896	0.033
Mof_H 	H 	0.0112	0.3741	0.2793	0.033
Mof_H 	H 	0.2119	0.3701	0.2429	0.088
Mof_H 	H 	0.2467	0.4135	0.1871	0.001
Mof_H 	H 	0.8129	0.499	0.1042	-0.018
Mof_H 	H 	0.6343	0.5378	0.139	0.092
Mof_H 	H 	0.6104	0.5431	0.2099	-0.01
Mof_H 	H 	0.7659	0.4729	0.4609	0.008
Mof_H 	H 	0.6598	0.4717	0.5287	0.091
Mof_H 	H 	0.5458	0.5318	0.5582	-0.015
Mof_H 	H 	0.5781	0.7014	0.4718	-0.012
Mof_H 	H 	0.5331	0.712	0.405	0.094
Mof_H 	H 	0.515	0.6554	0.3672	0.024
Mof_H 	H 	0.0931	0.6517	0.3623	0.03
Mof_H 	H 	0.2011	0.7113	0.3645	0.086
Mof_H 	H 	0.2383	0.7383	0.2963	0.026
Mof_H 	H 	0.2017	0.6261	0.1323	-0.021
Mof_H 	H 	0.3258	0.5684	0.1266	0.135
Mof_H 	H 	0.3768	0.5417	0.1877	-0.015
Mof_C 	C 	0.41525	0.37612	0.01758	0.538
Mof_C 	C 	0.39908	0.41017	0.04867	-0.204
Mof_C 	C 	0.47393	0.44089	0.04025	0.114
Mof_C 	C 	0.45131	0.47525	0.06533	-0.171
Mof_C 	C 	0.35063	0.47895	0.09759	0.099
Mof_C 	C 	0.30682	0.41469	0.08367	0.099
Mof_C 	C 	0.2257	0.38337	0.10023	0.045
Mof_C 	C 	0.02469	0.37646	0.13116	0.073
Mof_C 	C 	0.05988	0.33507	0.13717	-0.121
Mof_C 	C 	0.18339	0.31751	0.12471	0.039
Mof_C 	C 	0.26818	0.34175	0.10529	-0.104
Mof_C 	C 	0.40246	0.32184	0.09104	0.306
Mof_C 	C 	0.93116	0.27001	0.07847	0.303
Mof_C 	C 	0.82401	0.24586	0.08012	-0.097
Mof_C 	C 	0.71606	0.25703	0.10845	0.038
Mof_C 	C 	0.61831	0.23533	0.11105	-0.115
Mof_C 	C 	0.63175	0.20196	0.08494	0.071
Mof_C 	C 	0.83099	0.21191	0.05451	0.045
Mof_C 	C 	0.94255	0.194	0.0241	0.097
Mof_C 	C 	0.06773	0.13288	0.00086	0.103
Mof_C 	C 	0.15271	0.15344	0.97654	-0.181
Mof_C 	C 	0.12545	0.1956	0.9741	0.122
Mof_C 	C 	0.01801	0.21699	0.99699	-0.201
Mof_C 	C 	0.97877	0.26272	0.98874	0.532
Mof_C 	C 	0.80416	0.40886	0.96482	0.333
Mof_C 	C 	0.84475	0.4505	0.9668	-0.112
Mof_C 	C 	0.81044	0.47287	0.00325	0.059
Mof_C 	C 	0.83219	0.5135	0.00392	-0.142
Mof_C 	C 	0.88482	0.5308	0.96796	0.095
Mof_C 	C 	0.90621	0.46927	0.93231	0.06
Mof_C 	C 	0.95655	0.44871	0.89199	0.061
Mof_C 	C 	0.96955	0.45586	0.82124	0.095
Mof_C 	C 	0.03851	0.41593	0.81445	-0.144
Mof_C 	C 	0.07053	0.39349	0.84825	0.061
Mof_C 	C 	0.03246	0.40986	0.88802	-0.124
Mof_C 	C 	0.08713	0.38723	0.92311	0.343
Mof_C 	C 	0.6217	0.3055	0.9015	0.442
Mof_C 	C 	0.559	0.3015	0.8615	-0.134
Mof_C 	C 	0.5272	0.3379	0.8387	0.047
Mof_C 	C 	0.4697	0.3407	0.8013	-0.118
Mof_C 	C 	0.4798	0.2996	0.7884	0.073
Mof_C 	C 	0.5345	0.2663	0.8479	0.093
Mof_C 	C 	0.5489	0.228	0.8722	0.089
Mof_C 	C 	0.6146	0.1567	0.8837	0.175
Mof_C 	C 	0.549	0.1518	0.918	-0.254
Mof_C 	C 	0.4825	0.1874	0.932	0.133
Mof_C 	C 	0.4771	0.2255	0.9099	-0.157
Mof_C 	C 	0.38524	0.26008	0.93004	0.36
Mof_C 	C 	0.30895	0.12388	0.48242	0.537
Mof_C 	C 	0.35792	0.08983	0.45133	-0.204
Mof_C 	C 	0.45507	0.05911	0.45975	0.114
Mof_C 	C 	0.49189	0.02475	0.43467	-0.171
Mof_C 	C 	0.42717	0.02105	0.40241	0.099
Mof_C 	C 	0.30518	0.08531	0.41633	0.099
Mof_C 	C 	0.2093	0.11663	0.39977	0.044
Mof_C 	C 	0.03231	0.12354	0.36884	0.069
Mof_C 	C 	0.03212	0.16493	0.36283	-0.12
Mof_C 	C 	0.12561	0.18249	0.37529	0.039
Mof_C 	C 	0.21522	0.15825	0.39471	-0.104
Mof_C 	C 	0.31534	0.17816	0.40896	0.306
Mof_C 	C 	0.77964	0.22999	0.42153	0.304
Mof_C 	C 	0.64999	0.25414	0.41988	-0.098
Mof_C 	C 	0.58154	0.24297	0.39155	0.038
Mof_C 	C 	0.46469	0.26467	0.38895	-0.115
Mof_C 	C 	0.41865	0.29804	0.41506	0.071
Mof_C 	C 	0.59741	0.28809	0.44549	0.046
Mof_C 	C 	0.66065	0.306	0.4759	0.096
Mof_C 	C 	0.70147	0.36712	0.49914	0.102
Mof_C 	C 	0.78269	0.34656	0.52346	-0.18
Mof_C 	C 	0.79515	0.3044	0.5259	0.12
Mof_C 	C 	0.73199	0.28301	0.50301	-0.199
Mof_C 	C 	0.73023	0.23728	0.51126	0.529
Mof_C 	C 	0.67784	0.09114	0.53518	0.333
Mof_C 	C 	0.76205	0.0495	0.5332	-0.113
Mof_C 	C 	0.78656	0.02713	0.49675	0.059
Mof_C 	C 	0.84961	0.9865	0.49608	-0.143
Mof_C 	C 	0.88358	0.9692	0.53204	0.094
Mof_C 	C 	0.80779	0.03073	0.56769	0.061
Mof_C 	C 	0.79725	0.05129	0.60801	0.058
Mof_C 	C 	0.74665	0.04414	0.67876	0.088
Mof_C 	C 	0.76889	0.08407	0.68555	-0.136
Mof_C 	C 	0.81227	0.10651	0.65175	0.056
Mof_C 	C 	0.83034	0.09014	0.61198	-0.12
Mof_C 	C 	0.89747	0.11277	0.57689	0.342
Mof_C 	C 	0.3287	0.1945	0.5985	0.442
Mof_C 	C 	0.222	0.1985	0.6385	-0.134
Mof_C 	C 	0.2038	0.1621	0.6613	0.047
Mof_C 	C 	0.1117	0.1593	0.6987	-0.119
Mof_C 	C 	0.0678	0.2004	0.7116	0.072
Mof_C 	C 	0.1487	0.2337	0.6521	0.093
Mof_C 	C 	0.1491	0.272	0.6278	0.087
Mof_C 	C 	0.155	0.3433	0.6163	0.174
Mof_C 	C 	0.1188	0.3482	0.582	-0.253
Mof_C 	C 	0.1019	0.3126	0.568	0.131
Mof_C 	C 	0.1125	0.2745	0.5901	-0.155
Mof_C 	C 	0.07536	0.23992	0.56996	0.355
Mof_C 	C 	0.43283	0.98242	0.87612	0.538
Mof_C 	C 	0.44775	0.95133	0.91017	-0.204
Mof_C 	C 	0.51418	0.95975	0.94089	0.114
Mof_C 	C 	0.51664	0.93467	0.97525	-0.171
Mof_C 	C 	0.44822	0.90241	0.97895	0.099
Mof_C 	C 	0.39049	0.91633	0.91469	0.099
Mof_C 	C 	0.32593	0.89977	0.88337	0.044
Mof_C 	C 	0.15585	0.86884	0.87646	0.069
Mof_C 	C 	0.19705	0.86283	0.83507	-0.119
Mof_C 	C 	0.3081	0.87529	0.81751	0.038
Mof_C 	C 	0.37347	0.89471	0.84175	-0.103
Mof_C 	C 	0.4935	0.90896	0.82184	0.306
Mof_C 	C 	0.00963	0.92153	0.77001	0.301
Mof_C 	C 	0.90413	0.91988	0.74586	-0.096
Mof_C 	C 	0.82451	0.89155	0.75703	0.037
Mof_C 	C 	0.72936	0.88895	0.73533	-0.114
Mof_C 	C 	0.71669	0.91506	0.70196	0.071
Mof_C 	C 	0.8855	0.94549	0.71191	0.044
Mof_C 	C 	0.96665	0.9759	0.694	0.099
Mof_C 	C 	0.06859	0.99914	0.63288	0.102
Mof_C 	C 	0.12925	0.02346	0.65344	-0.182
Mof_C 	C 	0.09955	0.0259	0.6956	0.123
Mof_C 	C 	0.015	0.00301	0.71699	-0.204
Mof_C 	C 	0.96751	0.01126	0.76272	0.534
Mof_C 	C 	0.76898	0.03518	0.90886	0.333
Mof_C 	C 	0.81155	0.0332	0.9505	-0.113
Mof_C 	C 	0.81369	0.99675	0.97287	0.059
Mof_C 	C 	0.83611	0.99608	0.0135	-0.143
Mof_C 	C 	0.85278	0.03204	0.0308	0.095
Mof_C 	C 	0.83852	0.06769	0.96927	0.061
Mof_C 	C 	0.84854	0.10801	0.94871	0.057
Mof_C 	C 	0.79079	0.17876	0.95586	0.088
Mof_C 	C 	0.85296	0.18555	0.91593	-0.136
Mof_C 	C 	0.91878	0.15175	0.89349	0.055
Mof_C 	C 	0.92048	0.11198	0.90986	-0.118
Mof_C 	C 	0.01024	0.07689	0.88723	0.34
Mof_C 	C 	0.5232	0.0985	0.8055	0.442
Mof_C 	C 	0.4205	0.1385	0.8015	-0.134
Mof_C 	C 	0.3659	0.1613	0.8379	0.047
Mof_C 	C 	0.271	0.1987	0.8407	-0.118
Mof_C 	C 	0.2682	0.2116	0.7996	0.073
Mof_C 	C 	0.3824	0.1521	0.7663	0.093
Mof_C 	C 	0.4211	0.1278	0.728	0.088
Mof_C 	C 	0.4983	0.1163	0.6567	0.175
Mof_C 	C 	0.467	0.082	0.6518	-0.254
Mof_C 	C 	0.4145	0.068	0.6874	0.133
Mof_C 	C 	0.387	0.0901	0.7255	-0.157
Mof_C 	C 	0.31528	0.06996	0.76008	0.36
Mof_C 	C 	0.79137	0.51758	0.62388	0.537
Mof_C 	C 	0.80925	0.54867	0.58983	-0.204
Mof_C 	C 	0.91482	0.54025	0.55911	0.113
Mof_C 	C 	0.92656	0.56533	0.52475	-0.17
Mof_C 	C 	0.82958	0.59759	0.52105	0.099
Mof_C 	C 	0.72151	0.58367	0.58531	0.099
Mof_C 	C 	0.60907	0.60023	0.61663	0.044
Mof_C 	C 	0.40115	0.63116	0.62354	0.069
Mof_C 	C 	0.39495	0.63717	0.66493	-0.119
Mof_C 	C 	0.5009	0.62471	0.68249	0.038
Mof_C 	C 	0.60993	0.60529	0.65825	-0.103
Mof_C 	C 	0.7243	0.59104	0.67816	0.306
Mof_C 	C 	0.20117	0.57847	0.72999	0.304
Mof_C 	C 	0.06987	0.58012	0.75414	-0.1
Mof_C 	C 	0.97309	0.60845	0.74297	0.042
Mof_C 	C 	0.85364	0.61105	0.76467	-0.117
Mof_C 	C 	0.83371	0.58494	0.79804	0.072
Mof_C 	C 	0.0429	0.55451	0.78809	0.045
Mof_C 	C 	0.13655	0.5241	0.806	0.096
Mof_C 	C 	0.20061	0.50086	0.86712	0.102
Mof_C 	C 	0.30615	0.47654	0.84656	-0.18
Mof_C 	C 	0.32105	0.4741	0.8044	0.12
Mof_C 	C 	0.235	0.49699	0.78301	-0.199
Mof_C 	C 	0.24149	0.48874	0.73728	0.529
Mof_C 	C 	0.21302	0.46482	0.59114	0.333
Mof_C 	C 	0.29525	0.4668	0.5495	-0.113
Mof_C 	C 	0.28331	0.50325	0.52713	0.059
Mof_C 	C 	0.34569	0.50392	0.4865	-0.142
Mof_C 	C 	0.41562	0.46796	0.4692	0.095
Mof_C 	C 	0.37548	0.43231	0.53073	0.061
Mof_C 	C 	0.40526	0.39199	0.55129	0.058
Mof_C 	C 	0.42541	0.32124	0.54414	0.088
Mof_C 	C 	0.45444	0.31445	0.58407	-0.136
Mof_C 	C 	0.46402	0.34825	0.60651	0.056
Mof_C 	C 	0.44232	0.38802	0.59014	-0.12
Mof_C 	C 	0.47436	0.42311	0.61277	0.342
Mof_C 	C 	0.9272	0.4015	0.6945	0.441
Mof_C 	C 	0.8605	0.3615	0.6985	-0.133
Mof_C 	C 	0.8651	0.3387	0.6621	0.047
Mof_C 	C 	0.8104	0.3013	0.6593	-0.117
Mof_C 	C 	0.7794	0.2884	0.7004	0.073
Mof_C 	C 	0.8008	0.3479	0.7337	0.093
Mof_C 	C 	0.7769	0.3722	0.772	0.089
Mof_C 	C 	0.7713	0.3837	0.8433	0.176
Mof_C 	C 	0.7008	0.418	0.8482	-0.254
Mof_C 	C 	0.6699	0.432	0.8126	0.133
Mof_C 	C 	0.7026	0.4099	0.7745	-0.157
Mof_C 	C 	0.64532	0.43004	0.73992	0.36
Mof_C 	C 	0.58475	0.62388	0.98242	0.538
Mof_C 	C 	0.60092	0.58983	0.95133	-0.204
Mof_C 	C 	0.52607	0.55911	0.95975	0.114
Mof_C 	C 	0.54869	0.52475	0.93467	-0.171
Mof_C 	C 	0.64937	0.52105	0.90241	0.099
Mof_C 	C 	0.69318	0.58531	0.91633	0.099
Mof_C 	C 	0.7743	0.61663	0.89977	0.045
Mof_C 	C 	0.97531	0.62354	0.86884	0.073
Mof_C 	C 	0.94012	0.66493	0.86283	-0.121
Mof_C 	C 	0.81661	0.68249	0.87529	0.039
Mof_C 	C 	0.73182	0.65825	0.89471	-0.104
Mof_C 	C 	0.59754	0.67816	0.90896	0.306
Mof_C 	C 	0.06884	0.72999	0.92153	0.303
Mof_C 	C 	0.17599	0.75414	0.91988	-0.097
Mof_C 	C 	0.28394	0.74297	0.89155	0.038
Mof_C 	C 	0.38169	0.76467	0.88895	-0.115
Mof_C 	C 	0.36825	0.79804	0.91506	0.071
Mof_C 	C 	0.16901	0.78809	0.94549	0.045
Mof_C 	C 	0.05745	0.806	0.9759	0.097
Mof_C 	C 	0.93227	0.86712	0.99914	0.103
Mof_C 	C 	0.84729	0.84656	0.02346	-0.181
Mof_C 	C 	0.87455	0.8044	0.0259	0.122
Mof_C 	C 	0.98199	0.78301	0.00301	-0.201
Mof_C 	C 	0.02123	0.73728	0.01126	0.532
Mof_C 	C 	0.19584	0.59114	0.03518	0.333
Mof_C 	C 	0.15525	0.5495	0.0332	-0.112
Mof_C 	C 	0.18956	0.52713	0.99675	0.059
Mof_C 	C 	0.16781	0.4865	0.99608	-0.142
Mof_C 	C 	0.11518	0.4692	0.03204	0.095
Mof_C 	C 	0.09379	0.53073	0.06769	0.06
Mof_C 	C 	0.04345	0.55129	0.10801	0.061
Mof_C 	C 	0.03045	0.54414	0.17876	0.095
Mof_C 	C 	0.96149	0.58407	0.18555	-0.144
Mof_C 	C 	0.92947	0.60651	0.15175	0.061
Mof_C 	C 	0.96754	0.59014	0.11198	-0.124
Mof_C 	C 	0.91287	0.61277	0.07689	0.343
Mof_C 	C 	0.3783	0.6945	0.0985	0.442
Mof_C 	C 	0.441	0.6985	0.1385	-0.134
Mof_C 	C 	0.4728	0.6621	0.1613	0.047
Mof_C 	C 	0.5303	0.6593	0.1987	-0.118
Mof_C 	C 	0.5202	0.7004	0.2116	0.073
Mof_C 	C 	0.4655	0.7337	0.1521	0.093
Mof_C 	C 	0.4511	0.772	0.1278	0.089
Mof_C 	C 	0.3854	0.8433	0.1163	0.175
Mof_C 	C 	0.451	0.8482	0.082	-0.254
Mof_C 	C 	0.5175	0.8126	0.068	0.133
Mof_C 	C 	0.5229	0.7745	0.0901	-0.157
Mof_C 	C 	0.61476	0.73992	0.06996	0.36
Mof_C 	C 	0.69105	0.87612	0.51758	0.537
Mof_C 	C 	0.64208	0.91017	0.54867	-0.204
Mof_C 	C 	0.54493	0.94089	0.54025	0.114
Mof_C 	C 	0.50811	0.97525	0.56533	-0.171
Mof_C 	C 	0.57283	0.97895	0.59759	0.099
Mof_C 	C 	0.69482	0.91469	0.58367	0.099
Mof_C 	C 	0.7907	0.88337	0.60023	0.044
Mof_C 	C 	0.96769	0.87646	0.63116	0.069
Mof_C 	C 	0.96788	0.83507	0.63717	-0.12
Mof_C 	C 	0.87439	0.81751	0.62471	0.039
Mof_C 	C 	0.78478	0.84175	0.60529	-0.104
Mof_C 	C 	0.68466	0.82184	0.59104	0.306
Mof_C 	C 	0.22036	0.77001	0.57847	0.304
Mof_C 	C 	0.35001	0.74586	0.58012	-0.098
Mof_C 	C 	0.41846	0.75703	0.60845	0.038
Mof_C 	C 	0.53531	0.73533	0.61105	-0.115
Mof_C 	C 	0.58135	0.70196	0.58494	0.071
Mof_C 	C 	0.40259	0.71191	0.55451	0.046
Mof_C 	C 	0.33935	0.694	0.5241	0.096
Mof_C 	C 	0.29853	0.63288	0.50086	0.102
Mof_C 	C 	0.21731	0.65344	0.47654	-0.18
Mof_C 	C 	0.20485	0.6956	0.4741	0.12
Mof_C 	C 	0.26801	0.71699	0.49699	-0.199
Mof_C 	C 	0.26977	0.76272	0.48874	0.529
Mof_C 	C 	0.32216	0.90886	0.46482	0.333
Mof_C 	C 	0.23795	0.9505	0.4668	-0.113
Mof_C 	C 	0.21344	0.97287	0.50325	0.059
Mof_C 	C 	0.15039	0.0135	0.50392	-0.143
Mof_C 	C 	0.11642	0.0308	0.46796	0.094
Mof_C 	C 	0.19221	0.96927	0.43231	0.061
Mof_C 	C 	0.20275	0.94871	0.39199	0.058
Mof_C 	C 	0.25335	0.95586	0.32124	0.088
Mof_C 	C 	0.23111	0.91593	0.31445	-0.136
Mof_C 	C 	0.18773	0.89349	0.34825	0.056
Mof_C 	C 	0.16966	0.90986	0.38802	-0.12
Mof_C 	C 	0.10253	0.88723	0.42311	0.342
Mof_C 	C 	0.6713	0.8055	0.4015	0.442
Mof_C 	C 	0.778	0.8015	0.3615	-0.134
Mof_C 	C 	0.7962	0.8379	0.3387	0.047
Mof_C 	C 	0.8883	0.8407	0.3013	-0.119
Mof_C 	C 	0.9322	0.7996	0.2884	0.072
Mof_C 	C 	0.8513	0.7663	0.3479	0.093
Mof_C 	C 	0.8509	0.728	0.3722	0.087
Mof_C 	C 	0.845	0.6567	0.3837	0.174
Mof_C 	C 	0.8812	0.6518	0.418	-0.253
Mof_C 	C 	0.8981	0.6874	0.432	0.131
Mof_C 	C 	0.8875	0.7255	0.4099	-0.155
Mof_C 	C 	0.92464	0.76008	0.43004	0.355
Mof_C 	C 	0.56717	0.01758	0.12388	0.538
Mof_C 	C 	0.55225	0.04867	0.08983	-0.204
Mof_C 	C 	0.48582	0.04025	0.05911	0.114
Mof_C 	C 	0.48336	0.06533	0.02475	-0.171
Mof_C 	C 	0.55178	0.09759	0.02105	0.099
Mof_C 	C 	0.60951	0.08367	0.08531	0.099
Mof_C 	C 	0.67407	0.10023	0.11663	0.044
Mof_C 	C 	0.84415	0.13116	0.12354	0.069
Mof_C 	C 	0.80295	0.13717	0.16493	-0.119
Mof_C 	C 	0.6919	0.12471	0.18249	0.038
Mof_C 	C 	0.62653	0.10529	0.15825	-0.103
Mof_C 	C 	0.5065	0.09104	0.17816	0.306
Mof_C 	C 	0.99037	0.07847	0.22999	0.301
Mof_C 	C 	0.09587	0.08012	0.25414	-0.096
Mof_C 	C 	0.17549	0.10845	0.24297	0.037
Mof_C 	C 	0.27064	0.11105	0.26467	-0.114
Mof_C 	C 	0.28331	0.08494	0.29804	0.071
Mof_C 	C 	0.1145	0.05451	0.28809	0.044
Mof_C 	C 	0.03335	0.0241	0.306	0.099
Mof_C 	C 	0.93141	0.00086	0.36712	0.102
Mof_C 	C 	0.87075	0.97654	0.34656	-0.182
Mof_C 	C 	0.90045	0.9741	0.3044	0.123
Mof_C 	C 	0.985	0.99699	0.28301	-0.204
Mof_C 	C 	0.03249	0.98874	0.23728	0.534
Mof_C 	C 	0.23102	0.96482	0.09114	0.333
Mof_C 	C 	0.18845	0.9668	0.0495	-0.113
Mof_C 	C 	0.18631	0.00325	0.02713	0.059
Mof_C 	C 	0.16389	0.00392	0.9865	-0.143
Mof_C 	C 	0.14722	0.96796	0.9692	0.095
Mof_C 	C 	0.16148	0.93231	0.03073	0.061
Mof_C 	C 	0.15146	0.89199	0.05129	0.057
Mof_C 	C 	0.20921	0.82124	0.04414	0.088
Mof_C 	C 	0.14704	0.81445	0.08407	-0.136
Mof_C 	C 	0.08122	0.84825	0.10651	0.055
Mof_C 	C 	0.07952	0.88802	0.09014	-0.118
Mof_C 	C 	0.98976	0.92311	0.11277	0.34
Mof_C 	C 	0.4768	0.9015	0.1945	0.442
Mof_C 	C 	0.5795	0.8615	0.1985	-0.134
Mof_C 	C 	0.6341	0.8387	0.1621	0.047
Mof_C 	C 	0.729	0.8013	0.1593	-0.118
Mof_C 	C 	0.7318	0.7884	0.2004	0.073
Mof_C 	C 	0.6176	0.8479	0.2337	0.093
Mof_C 	C 	0.5789	0.8722	0.272	0.088
Mof_C 	C 	0.5017	0.8837	0.3433	0.175
Mof_C 	C 	0.533	0.918	0.3482	-0.254
Mof_C 	C 	0.5855	0.932	0.3126	0.133
Mof_C 	C 	0.613	0.9099	0.2745	-0.157
Mof_C 	C 	0.68472	0.93004	0.23992	0.36
Mof_C 	C 	0.20863	0.48242	0.37612	0.537
Mof_C 	C 	0.19075	0.45133	0.41017	-0.204
Mof_C 	C 	0.08518	0.45975	0.44089	0.113
Mof_C 	C 	0.07344	0.43467	0.47525	-0.17
Mof_C 	C 	0.17042	0.40241	0.47895	0.099
Mof_C 	C 	0.27849	0.41633	0.41469	0.099
Mof_C 	C 	0.39093	0.39977	0.38337	0.044
Mof_C 	C 	0.59885	0.36884	0.37646	0.069
Mof_C 	C 	0.60505	0.36283	0.33507	-0.119
Mof_C 	C 	0.4991	0.37529	0.31751	0.038
Mof_C 	C 	0.39007	0.39471	0.34175	-0.103
Mof_C 	C 	0.2757	0.40896	0.32184	0.306
Mof_C 	C 	0.79883	0.42153	0.27001	0.304
Mof_C 	C 	0.93013	0.41988	0.24586	-0.1
Mof_C 	C 	0.02691	0.39155	0.25703	0.042
Mof_C 	C 	0.14636	0.38895	0.23533	-0.117
Mof_C 	C 	0.16629	0.41506	0.20196	0.072
Mof_C 	C 	0.9571	0.44549	0.21191	0.045
Mof_C 	C 	0.86345	0.4759	0.194	0.096
Mof_C 	C 	0.79939	0.49914	0.13288	0.102
Mof_C 	C 	0.69385	0.52346	0.15344	-0.18
Mof_C 	C 	0.67895	0.5259	0.1956	0.12
Mof_C 	C 	0.765	0.50301	0.21699	-0.199
Mof_C 	C 	0.75851	0.51126	0.26272	0.529
Mof_C 	C 	0.78698	0.53518	0.40886	0.333
Mof_C 	C 	0.70475	0.5332	0.4505	-0.113
Mof_C 	C 	0.71669	0.49675	0.47287	0.059
Mof_C 	C 	0.65431	0.49608	0.5135	-0.142
Mof_C 	C 	0.58438	0.53204	0.5308	0.095
Mof_C 	C 	0.62452	0.56769	0.46927	0.061
Mof_C 	C 	0.59474	0.60801	0.44871	0.058
Mof_C 	C 	0.57459	0.67876	0.45586	0.088
Mof_C 	C 	0.54556	0.68555	0.41593	-0.136
Mof_C 	C 	0.53598	0.65175	0.39349	0.056
Mof_C 	C 	0.55768	0.61198	0.40986	-0.12
Mof_C 	C 	0.52564	0.57689	0.38723	0.342
Mof_C 	C 	0.0728	0.5985	0.3055	0.441
Mof_C 	C 	0.1395	0.6385	0.3015	-0.133
Mof_C 	C 	0.1349	0.6613	0.3379	0.047
Mof_C 	C 	0.1896	0.6987	0.3407	-0.117
Mof_C 	C 	0.2206	0.7116	0.2996	0.073
Mof_C 	C 	0.1992	0.6521	0.2663	0.093
Mof_C 	C 	0.2231	0.6278	0.228	0.089
Mof_C 	C 	0.2287	0.6163	0.1567	0.176
Mof_C 	C 	0.2992	0.582	0.1518	-0.254
Mof_C 	C 	0.3301	0.568	0.1874	0.133
Mof_C 	C 	0.2974	0.5901	0.2255	-0.157
Mof_C 	C 	0.35468	0.56996	0.26008	0.36
Mof_N 	N 	0.27963	0.44937	0.10617	-0.245
Mof_N 	N 	0.10566	0.40084	0.11364	-0.244
Mof_N 	N 	0.73551	0.19035	0.05763	-0.239
Mof_N 	N 	0.96373	0.15267	0.02427	-0.246
Mof_N 	N 	0.93093	0.47178	0.85896	-0.241
Mof_N 	N 	0.9203	0.50942	0.93258	-0.236
Mof_N 	N 	0.6295	0.1884	0.8572	-0.137
Mof_N 	N 	0.5072	0.2645	0.8093	-0.12
Mof_N 	N 	0.33517	0.05063	0.39383	-0.245
Mof_N 	N 	0.12014	0.09916	0.38636	-0.244
Mof_N 	N 	0.48349	0.30965	0.44237	-0.239
Mof_N 	N 	0.64067	0.34733	0.47573	-0.245
Mof_N 	N 	0.76167	0.02822	0.64104	-0.24
Mof_N 	N 	0.8623	0.99058	0.56742	-0.237
Mof_N 	N 	0.1751	0.3116	0.6428	-0.137
Mof_N 	N 	0.081	0.2355	0.6907	-0.121
Mof_N 	N 	0.3858	0.89383	0.94937	-0.245
Mof_N 	N 	0.2193	0.88636	0.90084	-0.244
Mof_N 	N 	0.79314	0.94237	0.69035	-0.239
Mof_N 	N 	0.988	0.97573	0.65267	-0.246
Mof_N 	N 	0.78989	0.14104	0.97178	-0.239
Mof_N 	N 	0.85288	0.06742	0.00942	-0.237
Mof_N 	N 	0.4867	0.1428	0.6884	-0.137
Mof_N 	N 	0.3165	0.1907	0.7645	-0.12
Mof_N 	N 	0.729	0.60617	0.55063	-0.245
Mof_N 	N 	0.5065	0.61364	0.59916	-0.244
Mof_N 	N 	0.92586	0.55763	0.80965	-0.238
Mof_N 	N 	0.1164	0.52427	0.84733	-0.246
Mof_N 	N 	0.40271	0.35896	0.52822	-0.24
Mof_N 	N 	0.42972	0.43258	0.49058	-0.237
Mof_N 	N 	0.8179	0.3572	0.8116	-0.136
Mof_N 	N 	0.7717	0.3093	0.7355	-0.12
Mof_N 	N 	0.72037	0.55063	0.89383	-0.245
Mof_N 	N 	0.89434	0.59916	0.88636	-0.244
Mof_N 	N 	0.26449	0.80965	0.94237	-0.239
Mof_N 	N 	0.03627	0.84733	0.97573	-0.246
Mof_N 	N 	0.06907	0.52822	0.14104	-0.241
Mof_N 	N 	0.0797	0.49058	0.06742	-0.236
Mof_N 	N 	0.3705	0.8116	0.1428	-0.137
Mof_N 	N 	0.4928	0.7355	0.1907	-0.12
Mof_N 	N 	0.66483	0.94937	0.60617	-0.245
Mof_N 	N 	0.87986	0.90084	0.61364	-0.244
Mof_N 	N 	0.51651	0.69035	0.55763	-0.239
Mof_N 	N 	0.35933	0.65267	0.52427	-0.245
Mof_N 	N 	0.23833	0.97178	0.35896	-0.24
Mof_N 	N 	0.1377	0.00942	0.43258	-0.237
Mof_N 	N 	0.8249	0.6884	0.3572	-0.137
Mof_N 	N 	0.919	0.7645	0.3093	-0.121
Mof_N 	N 	0.6142	0.10617	0.05063	-0.245
Mof_N 	N 	0.7807	0.11364	0.09916	-0.244
Mof_N 	N 	0.20686	0.05763	0.30965	-0.239
Mof_N 	N 	0.012	0.02427	0.34733	-0.246
Mof_N 	N 	0.21011	0.85896	0.02822	-0.239
Mof_N 	N 	0.14712	0.93258	0.99058	-0.237
Mof_N 	N 	0.5133	0.8572	0.3116	-0.137
Mof_N 	N 	0.6835	0.8093	0.2355	-0.12
Mof_N 	N 	0.271	0.39383	0.44937	-0.245
Mof_N 	N 	0.4935	0.38636	0.40084	-0.244
Mof_N 	N 	0.07414	0.44237	0.19035	-0.238
Mof_N 	N 	0.8836	0.47573	0.15267	-0.246
Mof_N 	N 	0.59729	0.64104	0.47178	-0.24
Mof_N 	N 	0.57028	0.56742	0.50942	-0.237
Mof_N 	N 	0.1821	0.6428	0.1884	-0.136
Mof_N 	N 	0.2283	0.6907	0.2645	-0.12
Mof_O 	O 	0.5199	0.36718	0.99602	-0.547
Mof_O 	O 	0.31933	0.36128	0.01466	-0.56
Mof_O 	O 	0.41998	0.28898	0.07146	-0.277
Mof_O 	O 	0.48698	0.33998	0.10006	-0.256
Mof_O 	O 	0.72147	0.40555	0.94411	-0.37
Mof_O 	O 	0.85056	0.37909	0.98559	-0.442
Mof_O 	O 	0.11846	0.40623	0.94965	-0.373
Mof_O 	O 	0.10055	0.34785	0.92165	-0.449
Mof_O 	O 	0.90497	0.30833	0.07653	-0.278
Mof_O 	O 	0.03851	0.24944	0.07914	-0.254
Mof_O 	O 	0.86361	0.27516	0.99222	-0.553
Mof_O 	O 	0.0642	0.28309	0.97751	-0.55
Mof_O 	O 	0.60129	0.3367	0.91632	-0.514
Mof_O 	O 	0.69342	0.27562	0.91334	-0.408
Mof_O 	O 	0.40627	0.27462	0.96264	-0.462
Mof_O 	O 	0.29024	0.27407	0.91545	-0.396
Mof_O 	O 	0.3831	0.13282	0.50398	-0.547
Mof_O 	O 	0.19527	0.13872	0.48534	-0.559
Mof_O 	O 	0.28042	0.21102	0.42854	-0.277
Mof_O 	O 	0.42702	0.16002	0.39994	-0.256
Mof_O 	O 	0.57113	0.09445	0.55589	-0.37
Mof_O 	O 	0.71524	0.12091	0.51441	-0.442
Mof_O 	O 	0.97434	0.09377	0.55035	-0.372
Mof_O 	O 	0.87005	0.15215	0.57835	-0.447
Mof_O 	O 	0.78983	0.19167	0.42347	-0.277
Mof_O 	O 	0.86709	0.25056	0.42086	-0.254
Mof_O 	O 	0.63099	0.22484	0.50778	-0.552
Mof_O 	O 	0.8248	0.21691	0.52249	-0.547
Mof_O 	O 	0.35431	0.1633	0.58368	-0.514
Mof_O 	O 	0.38238	0.22438	0.58666	-0.408
Mof_O 	O 	0.14353	0.22538	0.53736	-0.46
Mof_O 	O 	0.97976	0.22593	0.58455	-0.391
Mof_O 	O 	0.51592	0.00398	0.86718	-0.547
Mof_O 	O 	0.33399	0.98534	0.86128	-0.56
Mof_O 	O 	0.49144	0.92854	0.78898	-0.277
Mof_O 	O 	0.58704	0.89994	0.83998	-0.256
Mof_O 	O 	0.66558	0.05589	0.90555	-0.37
Mof_O 	O 	0.83615	0.01441	0.87909	-0.442
Mof_O 	O 	0.06811	0.05035	0.90623	-0.372
Mof_O 	O 	0.0222	0.07835	0.84785	-0.449
Mof_O 	O 	0.9815	0.92347	0.80833	-0.276
Mof_O 	O 	0.11765	0.92086	0.74944	-0.254
Mof_O 	O 	0.85583	0.00778	0.77516	-0.553
Mof_O 	O 	0.04171	0.02249	0.78309	-0.551
Mof_O 	O 	0.51761	0.08368	0.8367	-0.514
Mof_O 	O 	0.60676	0.08666	0.77562	-0.408
Mof_O 	O 	0.36891	0.03736	0.77462	-0.462
Mof_O 	O 	0.20569	0.08455	0.77407	-0.396
Mof_O 	O 	0.88708	0.49602	0.63282	-0.546
Mof_O 	O 	0.68061	0.51466	0.63872	-0.56
Mof_O 	O 	0.70896	0.57146	0.71102	-0.276
Mof_O 	O 	0.82696	0.60006	0.66002	-0.256
Mof_O 	O 	0.12702	0.44411	0.59445	-0.37
Mof_O 	O 	0.22965	0.48559	0.62091	-0.442
Mof_O 	O 	0.52469	0.44965	0.59377	-0.373
Mof_O 	O 	0.4484	0.42165	0.65215	-0.448
Mof_O 	O 	0.2133	0.57653	0.69167	-0.278
Mof_O 	O 	0.28795	0.57914	0.75056	-0.255
Mof_O 	O 	0.13877	0.49222	0.72484	-0.552
Mof_O 	O 	0.34729	0.47751	0.71691	-0.549
Mof_O 	O 	0.93799	0.41632	0.6633	-0.512
Mof_O 	O 	0.96904	0.41334	0.72438	-0.406
Mof_O 	O 	0.68089	0.46264	0.72538	-0.462
Mof_O 	O 	0.56431	0.41545	0.72593	-0.396
Mof_O 	O 	0.4801	0.63282	0.00398	-0.547
Mof_O 	O 	0.68067	0.63872	0.98534	-0.56
Mof_O 	O 	0.58002	0.71102	0.92854	-0.277
Mof_O 	O 	0.51302	0.66002	0.89994	-0.256
Mof_O 	O 	0.27853	0.59445	0.05589	-0.37
Mof_O 	O 	0.14944	0.62091	0.01441	-0.442
Mof_O 	O 	0.88154	0.59377	0.05035	-0.373
Mof_O 	O 	0.89945	0.65215	0.07835	-0.449
Mof_O 	O 	0.09503	0.69167	0.92347	-0.278
Mof_O 	O 	0.96149	0.75056	0.92086	-0.254
Mof_O 	O 	0.13639	0.72484	0.00778	-0.553
Mof_O 	O 	0.9358	0.71691	0.02249	-0.55
Mof_O 	O 	0.39871	0.6633	0.08368	-0.514
Mof_O 	O 	0.30658	0.72438	0.08666	-0.408
Mof_O 	O 	0.59373	0.72538	0.03736	-0.462
Mof_O 	O 	0.70976	0.72593	0.08455	-0.396
Mof_O 	O 	0.6169	0.86718	0.49602	-0.547
Mof_O 	O 	0.80473	0.86128	0.51466	-0.559
Mof_O 	O 	0.71958	0.78898	0.57146	-0.277
Mof_O 	O 	0.57298	0.83998	0.60006	-0.256
Mof_O 	O 	0.42887	0.90555	0.44411	-0.37
Mof_O 	O 	0.28476	0.87909	0.48559	-0.442
Mof_O 	O 	0.02566	0.90623	0.44965	-0.372
Mof_O 	O 	0.12995	0.84785	0.42165	-0.447
Mof_O 	O 	0.21017	0.80833	0.57653	-0.277
Mof_O 	O 	0.13291	0.74944	0.57914	-0.254
Mof_O 	O 	0.36901	0.77516	0.49222	-0.552
Mof_O 	O 	0.1752	0.78309	0.47751	-0.547
Mof_O 	O 	0.64569	0.8367	0.41632	-0.514
Mof_O 	O 	0.61762	0.77562	0.41334	-0.408
Mof_O 	O 	0.85647	0.77462	0.46264	-0.46
Mof_O 	O 	0.02024	0.77407	0.41545	-0.391
Mof_O 	O 	0.48408	0.99602	0.13282	-0.547
Mof_O 	O 	0.66601	0.01466	0.13872	-0.56
Mof_O 	O 	0.50856	0.07146	0.21102	-0.277
Mof_O 	O 	0.41296	0.10006	0.16002	-0.256
Mof_O 	O 	0.33442	0.94411	0.09445	-0.37
Mof_O 	O 	0.16385	0.98559	0.12091	-0.442
Mof_O 	O 	0.93189	0.94965	0.09377	-0.372
Mof_O 	O 	0.9778	0.92165	0.15215	-0.449
Mof_O 	O 	0.0185	0.07653	0.19167	-0.276
Mof_O 	O 	0.88235	0.07914	0.25056	-0.254
Mof_O 	O 	0.14417	0.99222	0.22484	-0.553
Mof_O 	O 	0.95829	0.97751	0.21691	-0.551
Mof_O 	O 	0.48239	0.91632	0.1633	-0.514
Mof_O 	O 	0.39324	0.91334	0.22438	-0.408
Mof_O 	O 	0.63109	0.96264	0.22538	-0.462
Mof_O 	O 	0.79431	0.91545	0.22593	-0.396
Mof_O 	O 	0.11292	0.50398	0.36718	-0.546
Mof_O 	O 	0.31939	0.48534	0.36128	-0.56
Mof_O 	O 	0.29104	0.42854	0.28898	-0.276
Mof_O 	O 	0.17304	0.39994	0.33998	-0.256
Mof_O 	O 	0.87298	0.55589	0.40555	-0.37
Mof_O 	O 	0.77035	0.51441	0.37909	-0.442
Mof_O 	O 	0.47531	0.55035	0.40623	-0.373
Mof_O 	O 	0.5516	0.57835	0.34785	-0.448
Mof_O 	O 	0.7867	0.42347	0.30833	-0.278
Mof_O 	O 	0.71205	0.42086	0.24944	-0.255
Mof_O 	O 	0.86123	0.50778	0.27516	-0.552
Mof_O 	O 	0.65271	0.52249	0.28309	-0.549
Mof_O 	O 	0.06201	0.58368	0.3367	-0.512
Mof_O 	O 	0.03096	0.58666	0.27562	-0.406
Mof_O 	O 	0.31911	0.53736	0.27462	-0.461
Mof_O 	O 	0.43569	0.58455	0.27407	-0.396
_end
