data_functionalizedCrystal
_audit_creation_method	'EQeq! by Chris Wilmer'
_symmetry_space_group_name_H-M	'P1'
_symmetry_Int_Tables_number	1
_symmetry_cell_setting	triclinic
loop_
_symmetry_equiv_pos_as_xyz
  x,y,z
_cell_length_a	13.849
_cell_length_b	14.724
_cell_length_c	22.987
_cell_angle_alpha	88.25
_cell_angle_beta	74.38
_cell_angle_gamma	87.86
loop_
_atom_site_label
_atom_site_type_symbol
_atom_site_fract_x
_atom_site_fract_y
_atom_site_fract_z
_atom_site_charge
Mof_C 	C 	0.9484	0.5819	0.202	-0.015
Mof_H 	H 	0.9547	0.5288	0.1802	0.038
Mof_Cd	Cd	0.31679	0.06089	0.09852	0.428
Mof_Cd	Cd	0.20572	0.95482	0.44761	0.45
Mof_O 	O 	0.2585	0.088	0.0145	-0.282
Mof_O 	O 	0.3613	0.9702	0.00076	-0.276
Mof_O 	O 	0.1595	0.0247	0.544	-0.281
Mof_O 	O 	0.2531	0.9005	0.5321	-0.27
Mof_O 	O 	0.2457	0.1995	0.1286	-0.282
Mof_O 	O 	0.2843	0.132	0.2045	-0.288
Mof_O 	O 	0.1428	0.8254	0.4242	-0.312
Mof_N 	N 	0.0948	0.0543	0.4163	-0.167
Mof_N 	N 	0.3292	0.0582	0.4085	-0.127
Mof_N 	N 	0.1881	0.9578	0.14	-0.159
Mof_N 	N 	0.4134	0.9531	0.1361	-0.157
Mof_C 	C 	0.203	0.3661	0.1884	0.001
Mof_H 	H 	0.1803	0.3611	0.1541	0.041
Mof_C 	C 	0.1974	0.4491	0.2166	-0.085
Mof_H 	H 	0.1706	0.4993	0.2001	0.059
Mof_C 	C 	0.2524	0.3833	0.294	-0.086
Mof_H 	H 	0.2628	0.3877	0.3321	0.048
Mof_C 	C 	0.2274	0.461	0.2651	0.012
Mof_C 	C 	0.2209	0.5503	0.2949	0.079
Mof_C 	C 	0.2432	0.2913	0.2125	-0.083
Mof_C 	C 	0.2625	0.2981	0.2671	0.002
Mof_H 	H 	0.2821	0.2469	0.2863	0.033
Mof_C 	C 	0.2128	0.7184	0.3491	-0.149
Mof_C 	C 	0.095	0.0612	0.3602	0.126
Mof_H 	H 	0.1282	0.0154	0.3347	0
Mof_C 	C 	0.0504	0.1302	0.3353	-0.192
Mof_H 	H 	0.054	0.1304	0.2943	0.102
Mof_C 	C 	0.9998	0.2003	0.371	0.123
Mof_C 	C 	0.9941	0.189	0.4322	-0.177
Mof_H 	H 	0.9581	0.2316	0.4594	0.103
Mof_C 	C 	0.0404	0.1163	0.4529	0.107
Mof_H 	H 	0.0337	0.11	0.4942	0.016
Mof_C 	C 	0.9507	0.2798	0.3466	-0.091
Mof_C 	C 	0.4532	0.2061	0.3658	-0.1
Mof_C 	C 	0.166	0.8962	0.105	0.099
Mof_H 	H 	0.1957	0.8998	0.0636	0.01
Mof_C 	C 	0.1007	0.8268	0.1274	-0.17
Mof_H 	H 	0.0837	0.7884	0.1005	0.087
Mof_C 	C 	0.0609	0.8133	0.1875	0.106
Mof_C 	C 	0.0846	0.8782	0.2232	-0.177
Mof_H 	H 	0.0577	0.8755	0.2649	0.091
Mof_C 	C 	0.1474	0.9459	0.1974	0.112
Mof_H 	H 	0.1623	0.9874	0.2232	0.006
Mof_C 	C 	0.9966	0.7349	0.2107	-0.038
Mof_C 	C 	0.0148	0.6527	0.1784	-0.092
Mof_H 	H 	0.0675	0.6458	0.1437	0.057
Mof_C 	C 	0.3039	0.0261	0.9831	0.322
Mof_C 	C 	0.2328	0.0797	0.8969	0.068
Mof_H 	H 	0.2038	0.1291	0.9203	0.021
Mof_C 	C 	0.2179	0.0739	0.8396	-0.161
Mof_H 	H 	0.1824	0.1195	0.8246	0.088
Mof_C 	C 	0.2879	0.0169	0.9206	-0.12
Mof_C 	C 	0.3268	0.9436	0.8863	0.062
Mof_H 	H 	0.3654	0.9003	0.901	0.02
Mof_C 	C 	0.3108	0.9315	0.8301	-0.151
Mof_H 	H 	0.3353	0.8793	0.8085	0.075
Mof_C 	C 	0.2568	0.9992	0.8059	0.119
Mof_C 	C 	0.2439	0.9899	0.7447	-0.118
Mof_C 	C 	0.517	0.2849	0.3423	0.336
Mof_C 	C 	0.63	0.3966	0.357	2.303
Mof_H 	H 	0.664	0.4208	0.3824	-0.791
Mof_C 	C 	0.6435	0.4312	0.3013	-0.42
Mof_C 	C 	0.5659	0.3244	0.378	-2.353
Mof_H 	H 	0.5566	0.3031	0.4176	0.818
Mof_C 	C 	0.6023	0.3816	0.2615	-0.681
Mof_H 	H 	0.6181	0.3986	0.2208	0.259
Mof_C 	C 	0.5394	0.3089	0.2813	0.593
Mof_H 	H 	0.5134	0.2775	0.2547	-0.192
Mof_C 	C 	0.71	0.5105	0.2791	0.154
Mof_C 	C 	0.8067	0.5077	0.2797	-0.148
Mof_C 	C 	0.8576	0.4284	0.304	0.092
Mof_C 	C 	0.872	0.5881	0.2577	0.1
Mof_C 	C 	0.7033	0.6179	0.1924	-0.041
Mof_H 	H 	0.7617	0.5895	0.1695	0.023
Mof_C 	C 	0.6592	0.5888	0.2552	-0.022
Mof_C 	C 	0.2092	0.9674	0.5632	0.27
Mof_C 	C 	0.2218	0.9735	0.6264	0.008
Mof_C 	C 	0.2127	0.8064	0.3804	0.402
Mof_C 	C 	0.4631	0.8871	0.1022	0.093
Mof_H 	H 	0.4625	0.8872	0.0618	0.018
Mof_C 	C 	0.4191	0.9526	0.1924	0.086
Mof_H 	H 	0.388	0.0006	0.2165	0.019
Mof_C 	C 	0.4679	0.8858	0.2183	-0.14
Mof_H 	H 	0.4692	0.8889	0.2585	0.086
Mof_C 	C 	0.515	0.8191	0.1226	-0.149
Mof_H 	H 	0.5508	0.7759	0.0959	0.084
Mof_C 	C 	0.5154	0.8133	0.1825	0.071
Mof_C 	C 	0.5673	0.7359	0.2098	0.025
Mof_C 	C 	0.6592	0.685	0.1686	-0.027
Mof_H 	H 	0.6829	0.7013	0.1279	0.038
Mof_C 	C 	0.538	0.7043	0.2653	-0.005
Mof_H 	H 	0.484	0.733	0.2922	0.033
Mof_C 	C 	0.2582	0.199	0.1801	0.315
Mof_C 	C 	0.5846	0.6296	0.2851	-0.025
Mof_H 	H 	0.557	0.6087	0.3244	0.03
Mof_C 	C 	0.9219	0.7414	0.2649	-0.001
Mof_H 	H 	0.9131	0.794	0.2874	0.021
Mof_C 	C 	0.859	0.6654	0.2852	-0.074
Mof_H 	H 	0.806	0.6716	0.3199	0.048
Mof_C 	C 	0.9115	0.4328	0.3417	-0.296
Mof_H 	H 	0.9198	0.4906	0.3545	0.125
Mof_C 	C 	0.9573	0.3635	0.3649	0.257
Mof_H 	H 	0.9926	0.3741	0.3931	-0.066
Mof_C 	C 	0.8695	0.3389	0.2714	-0.489
Mof_H 	H 	0.8461	0.3322	0.2374	0.197
Mof_C 	C 	0.9157	0.2692	0.2941	0.397
Mof_H 	H 	0.9248	0.2133	0.2752	-0.125
Mof_C 	C 	0.37	0.2119	0.4156	-0.066
Mof_H 	H 	0.3595	0.2666	0.4359	0.049
Mof_C 	C 	0.302	0.1445	0.4381	-0.084
Mof_H 	H 	0.2445	0.1539	0.4695	0.064
Mof_C 	C 	0.394	0.055	0.359	-0.099
Mof_H 	H 	0.3971	0.0041	0.3357	0.062
Mof_C 	C 	0.465	0.128	0.3363	-0.145
Mof_H 	H 	0.5171	0.1199	0.3016	0.077
Mof_C 	C 	0.1532	0.6488	0.3762	0.017
Mof_H 	H 	0.1102	0.658	0.4144	0.028
Mof_C 	C 	0.258	0.7118	0.2874	0.031
Mof_H 	H 	0.2862	0.7628	0.2654	0.033
Mof_C 	C 	0.2614	0.6283	0.2577	-0.094
Mof_H 	H 	0.2885	0.6238	0.2162	0.063
Mof_C 	C 	0.153	0.5683	0.3509	-0.092
Mof_H 	H 	0.1083	0.5245	0.3704	0.053
Mof_C 	C 	0.167	0.042	0.7247	0.006
Mof_H 	H 	0.1253	0.0843	0.7497	0.021
Mof_C 	C 	0.158	0.028	0.6717	-0.079
Mof_H 	H 	0.1032	0.0569	0.6618	0.059
Mof_C 	C 	0.276	0.9223	0.7086	0.013
Mof_H 	H 	0.297	0.8711	0.7269	-0.526
Mof_C 	C 	0.283	0.914	0.6495	-0.186
Mof_H 	H 	0.3264	0.8709	0.6258	0.119
Mof_O 	O 	0.251	0.8747	0.3495	-0.205
Mof_O 	O 	0.296	0.845	0.38	-0.199
Mof_C 	C 	0.306	0.5766	0.3095	-0.092
Mof_H 	H 	0.3618	0.5374	0.3026	0.066
Mof_C 	C 	0.144	0.591	0.3176	-0.051
Mof_H 	H 	0.0839	0.5629	0.3209	0.045
Mof_C 	C 	0.309	0.6689	0.3368	0.017
Mof_H 	H 	0.3663	0.6913	0.3446	0.027
Mof_C 	C 	0.139	0.6838	0.3406	0.037
Mof_H 	H 	0.0787	0.7169	0.3488	0.016
Mof_C 	C 	0.358	0.075	0.3512	0.098
Mof_H 	H 	0.3336	0.0403	0.3255	0.003
Mof_C 	C 	0.421	0.1415	0.3275	0.109
Mof_H 	H 	0.4445	0.1471	0.2857	-0.009
Mof_C 	C 	0.433	0.179	0.4232	0.032
Mof_H 	H 	0.4653	0.2054	0.4489	-0.006
Mof_C 	C 	0.361	0.11	0.4459	0.08
Mof_H 	H 	0.3357	0.1014	0.4874	0.01
Mof_C 	C 	0.236	0.0672	0.7093	-0.006
Mof_H 	H 	0.2412	0.1241	0.7246	0.028
Mof_C 	C 	0.258	0.898	0.7174	0.284
Mof_H 	H 	0.2794	0.8465	0.7354	0.393
Mof_C 	C 	0.221	0.0619	0.6499	-0.016
Mof_H 	H 	0.2119	0.114	0.6279	0.037
Mof_C 	C 	0.234	0.898	0.6597	-0.001
Mof_H 	H 	0.2257	0.8417	0.6443	0.035
Mof_C 	C 	0.851	0.3278	0.3889	-0.101
Mof_H 	H 	0.8242	0.3047	0.4278	0.066
Mof_C 	C 	0.9842	0.3239	0.2963	-0.418
Mof_H 	H 	0.0478	0.3062	0.2731	0.178
Mof_C 	C 	0.9364	0.3945	0.2728	0.377
Mof_H 	H 	0.9638	0.4162	0.2336	-0.101
Mof_C 	C 	0.807	0.3981	0.3701	-0.046
Mof_H 	H 	0.7502	0.4275	0.3942	0.133
Mof_C 	C 	0.6012	0.7542	0.2595	-0.087
Mof_H 	H 	0.5916	0.811	0.2771	0.059
Mof_C 	C 	0.6516	0.6809	0.282	-0.011
Mof_H 	H 	0.6799	0.6903	0.3136	0.025
Mof_C 	C 	0.567	0.6537	0.191	-0.079
Mof_H 	H 	0.5373	0.643	0.16	0.054
Mof_C 	C 	0.6092	0.5817	0.2165	0.017
Mof_H 	H 	0.6007	0.5235	0.2044	0.034
Mof_C 	C 	0.56	0.4412	0.3533	-2.067
Mof_H 	H 	0.5475	0.4965	0.3728	0.75
Mof_C 	C 	0.4974	0.37	0.3749	2.05
Mof_H 	H 	0.444	0.376	0.4093	-0.711
Mof_C 	C 	0.5964	0.2832	0.2955	-0.826
Mof_H 	H 	0.6121	0.2298	0.2738	0.279
Mof_C 	C 	0.6575	0.3561	0.2767	0.883
Mof_H 	H 	0.7127	0.3486	0.2435	-0.273
Mof_C 	C 	0.98	0.7062	0.2707	-0.029
Mof_H 	H 	0.0152	0.7319	0.295	0.034
Mof_C 	C 	0.91	0.6382	0.295	-0.053
Mof_H 	H 	0.8892	0.6276	0.3366	0.037
Mof_C 	C 	0.946	0.693	0.176	0.056
Mof_H 	H 	0.9592	0.7097	0.1353	0.007
Mof_C 	C 	0.871	0.6219	0.2002	-0.121
Mof_H 	H 	0.8271	0.6019	0.1792	0.069
Mof_C 	C 	0.0516	0.4181	0.798	-0.016
Mof_H 	H 	0.0453	0.4712	0.8198	0.037
Mof_Cd	Cd	0.68321	0.93911	0.90148	0.427
Mof_Cd	Cd	0.79428	0.04518	0.55239	0.449
Mof_O 	O 	0.7415	0.912	0.9855	-0.282
Mof_O 	O 	0.6387	0.0298	0.99924	-0.276
Mof_O 	O 	0.8405	0.9753	0.456	-0.281
Mof_O 	O 	0.7469	0.0995	0.4679	-0.27
Mof_O 	O 	0.7543	0.8005	0.8714	-0.282
Mof_O 	O 	0.7157	0.868	0.7955	-0.288
Mof_O 	O 	0.8572	0.1746	0.5758	-0.312
Mof_N 	N 	0.9052	0.9457	0.5837	-0.167
Mof_N 	N 	0.6708	0.9418	0.5915	-0.127
Mof_N 	N 	0.8119	0.0422	0.86	-0.159
Mof_N 	N 	0.5866	0.0469	0.8639	-0.157
Mof_C 	C 	0.797	0.6339	0.8116	0.001
Mof_H 	H 	0.8197	0.6389	0.8459	0.041
Mof_C 	C 	0.8026	0.5509	0.7834	-0.085
Mof_H 	H 	0.8294	0.5007	0.7999	0.059
Mof_C 	C 	0.7476	0.6167	0.706	-0.086
Mof_H 	H 	0.7372	0.6123	0.6679	0.048
Mof_C 	C 	0.7726	0.539	0.7349	0.012
Mof_C 	C 	0.7791	0.4497	0.7051	0.079
Mof_C 	C 	0.7568	0.7087	0.7875	-0.083
Mof_C 	C 	0.7375	0.7019	0.7329	0.002
Mof_H 	H 	0.7179	0.7531	0.7137	0.033
Mof_C 	C 	0.7872	0.2816	0.6509	-0.149
Mof_C 	C 	0.905	0.9388	0.6398	0.126
Mof_H 	H 	0.8718	0.9846	0.6653	0
Mof_C 	C 	0.9496	0.8698	0.6647	-0.192
Mof_H 	H 	0.946	0.8696	0.7057	0.102
Mof_C 	C 	0.0002	0.7997	0.629	0.123
Mof_C 	C 	0.0059	0.811	0.5678	-0.177
Mof_H 	H 	0.0419	0.7684	0.5406	0.103
Mof_C 	C 	0.9596	0.8837	0.5471	0.107
Mof_H 	H 	0.9663	0.89	0.5058	0.016
Mof_C 	C 	0.0493	0.7202	0.6534	-0.091
Mof_C 	C 	0.5468	0.7939	0.6342	-0.1
Mof_C 	C 	0.834	0.1038	0.895	0.099
Mof_H 	H 	0.8043	0.1002	0.9364	0.01
Mof_C 	C 	0.8993	0.1732	0.8726	-0.17
Mof_H 	H 	0.9163	0.2116	0.8995	0.087
Mof_C 	C 	0.9391	0.1867	0.8125	0.106
Mof_C 	C 	0.9154	0.1218	0.7768	-0.177
Mof_H 	H 	0.9423	0.1245	0.7351	0.091
Mof_C 	C 	0.8526	0.0541	0.8026	0.112
Mof_H 	H 	0.8377	0.0126	0.7768	0.006
Mof_C 	C 	0.0034	0.2651	0.7893	-0.038
Mof_C 	C 	0.9852	0.3473	0.8216	-0.092
Mof_H 	H 	0.9325	0.3542	0.8563	0.057
Mof_C 	C 	0.6961	0.9739	0.0169	0.322
Mof_C 	C 	0.7672	0.9203	0.1031	0.068
Mof_H 	H 	0.7962	0.8709	0.0797	0.021
Mof_C 	C 	0.7821	0.9261	0.1604	-0.161
Mof_H 	H 	0.8176	0.8805	0.1754	0.088
Mof_C 	C 	0.7121	0.9831	0.0794	-0.12
Mof_C 	C 	0.6732	0.0564	0.1137	0.062
Mof_H 	H 	0.6346	0.0997	0.099	0.02
Mof_C 	C 	0.6892	0.0685	0.1699	-0.151
Mof_H 	H 	0.6647	0.1207	0.1915	0.075
Mof_C 	C 	0.7432	0.0008	0.1941	0.119
Mof_C 	C 	0.7561	0.0101	0.2553	-0.118
Mof_C 	C 	0.483	0.7151	0.6577	0.336
Mof_C 	C 	0.37	0.6034	0.643	2.303
Mof_H 	H 	0.336	0.5792	0.6176	-0.791
Mof_C 	C 	0.3565	0.5688	0.6987	-0.42
Mof_C 	C 	0.4341	0.6756	0.622	-2.353
Mof_H 	H 	0.4434	0.6969	0.5824	0.818
Mof_C 	C 	0.3977	0.6184	0.7385	-0.681
Mof_H 	H 	0.3819	0.6014	0.7792	0.259
Mof_C 	C 	0.4606	0.6911	0.7187	0.593
Mof_H 	H 	0.4866	0.7225	0.7453	-0.192
Mof_C 	C 	0.29	0.4895	0.7209	0.154
Mof_C 	C 	0.1933	0.4923	0.7203	-0.148
Mof_C 	C 	0.1424	0.5716	0.696	0.092
Mof_C 	C 	0.128	0.4119	0.7423	0.1
Mof_C 	C 	0.2967	0.3821	0.8076	-0.041
Mof_H 	H 	0.2383	0.4105	0.8305	0.023
Mof_C 	C 	0.3408	0.4112	0.7448	-0.022
Mof_C 	C 	0.7908	0.0326	0.4368	0.27
Mof_C 	C 	0.7782	0.0265	0.3736	0.008
Mof_C 	C 	0.7873	0.1936	0.6196	0.402
Mof_C 	C 	0.5369	0.1129	0.8978	0.093
Mof_H 	H 	0.5375	0.1128	0.9382	0.018
Mof_C 	C 	0.5809	0.0474	0.8076	0.086
Mof_H 	H 	0.612	0.9994	0.7835	0.019
Mof_C 	C 	0.5321	0.1142	0.7817	-0.14
Mof_H 	H 	0.5308	0.1111	0.7415	0.086
Mof_C 	C 	0.485	0.1809	0.8774	-0.149
Mof_H 	H 	0.4492	0.2241	0.9041	0.084
Mof_C 	C 	0.4846	0.1867	0.8175	0.071
Mof_C 	C 	0.4327	0.2641	0.7902	0.025
Mof_C 	C 	0.3408	0.315	0.8314	-0.027
Mof_H 	H 	0.3171	0.2987	0.8721	0.038
Mof_C 	C 	0.462	0.2957	0.7347	-0.005
Mof_H 	H 	0.516	0.267	0.7078	0.033
Mof_C 	C 	0.7418	0.801	0.8199	0.315
Mof_C 	C 	0.4154	0.3704	0.7149	-0.025
Mof_H 	H 	0.443	0.3913	0.6756	0.03
Mof_C 	C 	0.0781	0.2586	0.7351	-0.001
Mof_H 	H 	0.0869	0.206	0.7126	0.021
Mof_C 	C 	0.141	0.3346	0.7148	-0.074
Mof_H 	H 	0.194	0.3284	0.6801	0.048
Mof_C 	C 	0.0885	0.5672	0.6583	-0.296
Mof_H 	H 	0.0802	0.5094	0.6455	0.125
Mof_C 	C 	0.0427	0.6365	0.6351	0.257
Mof_H 	H 	0.0074	0.6259	0.6069	-0.066
Mof_C 	C 	0.1305	0.6611	0.7286	-0.489
Mof_H 	H 	0.1539	0.6678	0.7626	0.197
Mof_C 	C 	0.0843	0.7308	0.7059	0.397
Mof_H 	H 	0.0752	0.7867	0.7248	-0.125
Mof_C 	C 	0.63	0.7881	0.5844	-0.066
Mof_H 	H 	0.6405	0.7334	0.5641	0.049
Mof_C 	C 	0.698	0.8555	0.5619	-0.084
Mof_H 	H 	0.7555	0.8461	0.5305	0.064
Mof_C 	C 	0.606	0.945	0.641	-0.099
Mof_H 	H 	0.6029	0.9959	0.6643	0.062
Mof_C 	C 	0.535	0.872	0.6637	-0.145
Mof_H 	H 	0.4829	0.8801	0.6984	0.077
Mof_C 	C 	0.8468	0.3512	0.6238	0.017
Mof_H 	H 	0.8898	0.342	0.5856	0.028
Mof_C 	C 	0.742	0.2882	0.7126	0.031
Mof_H 	H 	0.7138	0.2372	0.7346	0.033
Mof_C 	C 	0.7386	0.3717	0.7423	-0.094
Mof_H 	H 	0.7115	0.3762	0.7838	0.063
Mof_C 	C 	0.847	0.4317	0.6491	-0.092
Mof_H 	H 	0.8917	0.4755	0.6296	0.053
Mof_C 	C 	0.833	0.958	0.2753	0.006
Mof_H 	H 	0.8747	0.9157	0.2503	0.021
Mof_C 	C 	0.842	0.972	0.3283	-0.079
Mof_H 	H 	0.8968	0.9431	0.3382	0.059
Mof_C 	C 	0.724	0.0777	0.2914	0.013
Mof_H 	H 	0.703	0.1289	0.2731	-0.526
Mof_C 	C 	0.717	0.086	0.3505	-0.186
Mof_H 	H 	0.6736	0.1291	0.3742	0.119
Mof_O 	O 	0.749	0.1253	0.6505	-0.205
Mof_O 	O 	0.704	0.155	0.62	-0.199
Mof_C 	C 	0.694	0.4234	0.6905	-0.092
Mof_H 	H 	0.6382	0.4626	0.6974	0.066
Mof_C 	C 	0.856	0.409	0.6824	-0.051
Mof_H 	H 	0.9161	0.4371	0.6791	0.045
Mof_C 	C 	0.691	0.3311	0.6632	0.017
Mof_H 	H 	0.6337	0.3087	0.6554	0.027
Mof_C 	C 	0.861	0.3162	0.6594	0.037
Mof_H 	H 	0.9213	0.2831	0.6512	0.016
Mof_C 	C 	0.642	0.925	0.6488	0.098
Mof_H 	H 	0.6664	0.9597	0.6745	0.003
Mof_C 	C 	0.579	0.8585	0.6725	0.109
Mof_H 	H 	0.5555	0.8529	0.7143	-0.009
Mof_C 	C 	0.567	0.821	0.5768	0.032
Mof_H 	H 	0.5347	0.7946	0.5511	-0.006
Mof_C 	C 	0.639	0.89	0.5541	0.08
Mof_H 	H 	0.6643	0.8986	0.5126	0.01
Mof_C 	C 	0.764	0.9328	0.2907	-0.006
Mof_H 	H 	0.7588	0.8759	0.2754	0.028
Mof_C 	C 	0.742	0.102	0.2826	0.284
Mof_H 	H 	0.7206	0.1535	0.2646	0.393
Mof_C 	C 	0.779	0.9381	0.3501	-0.016
Mof_H 	H 	0.7881	0.886	0.3721	0.037
Mof_C 	C 	0.766	0.102	0.3403	-0.001
Mof_H 	H 	0.7743	0.1583	0.3557	0.035
Mof_C 	C 	0.149	0.6722	0.6111	-0.101
Mof_H 	H 	0.1758	0.6953	0.5722	0.066
Mof_C 	C 	0.0158	0.6761	0.7037	-0.418
Mof_H 	H 	0.9522	0.6938	0.7269	0.178
Mof_C 	C 	0.0636	0.6055	0.7272	0.377
Mof_H 	H 	0.0362	0.5838	0.7664	-0.101
Mof_C 	C 	0.193	0.6019	0.6299	-0.046
Mof_H 	H 	0.2498	0.5725	0.6058	0.133
Mof_C 	C 	0.3988	0.2458	0.7405	-0.087
Mof_H 	H 	0.4084	0.189	0.7229	0.059
Mof_C 	C 	0.3484	0.3191	0.718	-0.011
Mof_H 	H 	0.3201	0.3097	0.6864	0.025
Mof_C 	C 	0.433	0.3463	0.809	-0.079
Mof_H 	H 	0.4627	0.357	0.84	0.054
Mof_C 	C 	0.3908	0.4183	0.7835	0.017
Mof_H 	H 	0.3993	0.4765	0.7956	0.034
Mof_C 	C 	0.44	0.5588	0.6467	-2.067
Mof_H 	H 	0.4525	0.5035	0.6272	0.75
Mof_C 	C 	0.5026	0.63	0.6251	2.05
Mof_H 	H 	0.556	0.624	0.5907	-0.711
Mof_C 	C 	0.4036	0.7168	0.7045	-0.826
Mof_H 	H 	0.3879	0.7702	0.7262	0.279
Mof_C 	C 	0.3425	0.6439	0.7233	0.883
Mof_H 	H 	0.2873	0.6514	0.7565	-0.273
Mof_C 	C 	0.02	0.2938	0.7293	-0.029
Mof_H 	H 	0.9848	0.2681	0.705	0.034
Mof_C 	C 	0.09	0.3618	0.705	-0.053
Mof_H 	H 	0.1108	0.3724	0.6634	0.037
Mof_C 	C 	0.054	0.307	0.824	0.056
Mof_H 	H 	0.0408	0.2903	0.8647	0.007
Mof_C 	C 	0.129	0.3781	0.7998	-0.121
Mof_H 	H 	0.1729	0.3981	0.8208	0.069
_end
