data_functionalizedCrystal
_audit_creation_method	'EQeq! by Chris Wilmer'
_symmetry_space_group_name_H-M	'P1'
_symmetry_Int_Tables_number	1
_symmetry_cell_setting	triclinic
loop_
_symmetry_equiv_pos_as_xyz
  x,y,z
_cell_length_a	8.4084
_cell_length_b	19.1847
_cell_length_c	19.1847
_cell_angle_alpha	62.0965
_cell_angle_beta	81.5992
_cell_angle_gamma	98.4008
loop_
_atom_site_label
_atom_site_type_symbol
_atom_site_fract_x
_atom_site_fract_y
_atom_site_fract_z
_atom_site_charge
Mof_Zn	Zn	0.85235	0.95104	0.45522	1.193
Mof_Zn	Zn	0.45965	0.81223	0.48672	1.192
Mof_Zn	Zn	0.30757	0.45522	0.59374	1.193
Mof_Zn	Zn	0.94637	0.48672	0.70105	1.191
Mof_Zn	Zn	0.90131	0.59374	0.95104	1.192
Mof_Zn	Zn	0.64742	0.70105	0.81223	1.191
Mof_Zn	Zn	0.14765	0.04896	0.54478	1.192
Mof_Zn	Zn	0.54035	0.18777	0.51328	1.191
Mof_Zn	Zn	0.69243	0.54478	0.40626	1.193
Mof_Zn	Zn	0.05363	0.51328	0.29895	1.191
Mof_Zn	Zn	0.09869	0.40626	0.04896	1.192
Mof_Zn	Zn	0.35258	0.29895	0.18777	1.191
Mof_H 	H 	0.1403	0.9504	0.2384	0.129
Mof_H 	H 	0.401	0.9257	0.2449	-0.037
Mof_H 	H 	0.433	0.7953	0.2993	0.125
Mof_H 	H 	0.2034	0.6877	0.3504	-0.02
Mof_H 	H 	0.7739	0.8191	0.2799	0.215
Mof_H 	H 	0.8583	0.9094	0.252	0.194
Mof_H 	H 	0.8191	0.8643	0.6479	-0.035
Mof_H 	H 	0.4315	0.7063	0.6798	-0.048
Mof_H 	H 	0.379	0.9367	0.5385	-0.032
Mof_H 	H 	0.1226	0.8567	0.4279	-0.014
Mof_H 	H 	0.3787	0.2384	0.8112	0.129
Mof_H 	H 	0.6459	0.2449	0.8294	-0.037
Mof_H 	H 	0.7323	0.2993	0.9054	0.125
Mof_H 	H 	0.5538	0.3504	0.9619	-0.02
Mof_H 	H 	0.0538	0.2799	0.901	0.215
Mof_H 	H 	0.1103	0.252	0.8386	0.194
Mof_H 	H 	0.467	0.6479	0.4878	-0.034
Mof_H 	H 	0.1113	0.6798	0.6139	-0.048
Mof_H 	H 	0.9175	0.5385	0.5248	-0.032
Mof_H 	H 	0.5505	0.4279	0.7154	-0.015
Mof_H 	H 	0.1899	0.8112	0.9504	0.131
Mof_H 	H 	0.4753	0.8294	0.9257	-0.038
Mof_H 	H 	0.6377	0.9054	0.7953	0.126
Mof_H 	H 	0.5157	0.9619	0.6877	-0.021
Mof_H 	H 	0.9548	0.901	0.8191	0.215
Mof_H 	H 	0.9489	0.8386	0.9094	0.195
Mof_H 	H 	0.9548	0.4878	0.8643	-0.034
Mof_H 	H 	0.7252	0.6139	0.7063	-0.049
Mof_H 	H 	0.4423	0.5248	0.9367	-0.032
Mof_H 	H 	0.2659	0.7154	0.8567	-0.014
Mof_H 	H 	0.8597	0.0496	0.7616	0.129
Mof_H 	H 	0.599	0.0743	0.7551	-0.037
Mof_H 	H 	0.567	0.2047	0.7007	0.125
Mof_H 	H 	0.7966	0.3123	0.6496	-0.02
Mof_H 	H 	0.2261	0.1809	0.7201	0.215
Mof_H 	H 	0.1417	0.0906	0.748	0.194
Mof_H 	H 	0.1809	0.1357	0.3521	-0.035
Mof_H 	H 	0.5685	0.2937	0.3202	-0.048
Mof_H 	H 	0.621	0.0633	0.4615	-0.032
Mof_H 	H 	0.8774	0.1433	0.5721	-0.014
Mof_H 	H 	0.6213	0.7616	0.1888	0.129
Mof_H 	H 	0.3541	0.7551	0.1706	-0.037
Mof_H 	H 	0.2677	0.7007	0.0946	0.125
Mof_H 	H 	0.4462	0.6496	0.0381	-0.02
Mof_H 	H 	0.9462	0.7201	0.099	0.215
Mof_H 	H 	0.8897	0.748	0.1614	0.194
Mof_H 	H 	0.533	0.3521	0.5122	-0.034
Mof_H 	H 	0.8887	0.3202	0.3861	-0.048
Mof_H 	H 	0.0825	0.4615	0.4752	-0.032
Mof_H 	H 	0.4495	0.5721	0.2846	-0.015
Mof_H 	H 	0.8101	0.1888	0.0496	0.131
Mof_H 	H 	0.5247	0.1706	0.0743	-0.038
Mof_H 	H 	0.3623	0.0946	0.2047	0.126
Mof_H 	H 	0.4843	0.0381	0.3123	-0.021
Mof_H 	H 	0.0452	0.099	0.1809	0.215
Mof_H 	H 	0.0511	0.1614	0.0906	0.195
Mof_H 	H 	0.0452	0.5122	0.1357	-0.034
Mof_H 	H 	0.2748	0.3861	0.2937	-0.049
Mof_H 	H 	0.5577	0.4752	0.0633	-0.032
Mof_H 	H 	0.7341	0.2846	0.1433	-0.014
Mof_C 	C 	0.03118	0.75453	0.32699	-0.262
Mof_C 	C 	0.01004	0.833	0.29488	0.316
Mof_C 	C 	0.15128	0.89714	0.2623	-0.313
Mof_C 	C 	0.30869	0.88239	0.26522	0.186
Mof_C 	C 	0.32791	0.80486	0.29773	-0.264
Mof_C 	C 	0.19045	0.74063	0.32848	0.168
Mof_C 	C 	0.8905	0.68005	0.36165	0.382
Mof_C 	C 	0.84283	0.85338	0.29399	-0.578
Mof_C 	C 	0.75289	0.84217	0.3741	0.53
Mof_C 	C 	0.73169	0.83687	0.6385	0.101
Mof_C 	C 	0.52154	0.75126	0.65594	0.109
Mof_C 	C 	0.29695	0.92734	0.51399	0.1
Mof_C 	C 	0.15867	0.88415	0.45394	0.107
Mof_C 	C 	0.35817	0.32699	0.91848	-0.263
Mof_C 	C 	0.30492	0.29488	0.87212	0.315
Mof_C 	C 	0.41358	0.2623	0.84056	-0.312
Mof_C 	C 	0.57391	0.26522	0.85239	0.185
Mof_C 	C 	0.62564	0.29773	0.89741	-0.264
Mof_C 	C 	0.51893	0.32848	0.93089	0.168
Mof_C 	C 	0.25215	0.36165	0.9583	0.384
Mof_C 	C 	0.13682	0.29399	0.85263	-0.577
Mof_C 	C 	0.12699	0.3741	0.78373	0.531
Mof_C 	C 	0.37019	0.6385	0.52463	0.101
Mof_C 	C 	0.17748	0.65594	0.5928	0.109
Mof_C 	C 	0.81094	0.51399	0.55867	0.1
Mof_C 	C 	0.61261	0.45394	0.66191	0.107
Mof_C 	C 	0.27665	0.91848	0.75453	-0.265
Mof_C 	C 	0.17704	0.87212	0.833	0.32
Mof_C 	C 	0.25414	0.84056	0.89714	-0.315
Mof_C 	C 	0.4263	0.85239	0.88239	0.188
Mof_C 	C 	0.52305	0.89741	0.80486	-0.266
Mof_C 	C 	0.44982	0.93089	0.74063	0.17
Mof_C 	C 	0.21045	0.9583	0.68005	0.384
Mof_C 	C 	0.98945	0.85263	0.85338	-0.582
Mof_C 	C 	0.91072	0.78373	0.84217	0.531
Mof_C 	C 	0.89482	0.52463	0.83687	0.101
Mof_C 	C 	0.77028	0.5928	0.75126	0.109
Mof_C 	C 	0.36961	0.55867	0.92734	0.1
Mof_C 	C 	0.27452	0.66191	0.88415	0.107
Mof_C 	C 	0.96882	0.24547	0.67301	-0.262
Mof_C 	C 	0.98996	0.167	0.70512	0.316
Mof_C 	C 	0.84872	0.10286	0.7377	-0.313
Mof_C 	C 	0.69131	0.11761	0.73478	0.186
Mof_C 	C 	0.67209	0.19514	0.70227	-0.264
Mof_C 	C 	0.80955	0.25937	0.67152	0.168
Mof_C 	C 	0.1095	0.31995	0.63835	0.382
Mof_C 	C 	0.15717	0.14662	0.70601	-0.578
Mof_C 	C 	0.24711	0.15783	0.6259	0.53
Mof_C 	C 	0.26831	0.16313	0.3615	0.101
Mof_C 	C 	0.47846	0.24874	0.34406	0.109
Mof_C 	C 	0.70305	0.07266	0.48601	0.1
Mof_C 	C 	0.84133	0.11585	0.54606	0.107
Mof_C 	C 	0.64183	0.67301	0.08152	-0.263
Mof_C 	C 	0.69508	0.70512	0.12788	0.315
Mof_C 	C 	0.58642	0.7377	0.15944	-0.312
Mof_C 	C 	0.42609	0.73478	0.14761	0.185
Mof_C 	C 	0.37436	0.70227	0.10259	-0.264
Mof_C 	C 	0.48107	0.67152	0.06911	0.168
Mof_C 	C 	0.74785	0.63835	0.0417	0.384
Mof_C 	C 	0.86318	0.70601	0.14737	-0.577
Mof_C 	C 	0.87301	0.6259	0.21627	0.531
Mof_C 	C 	0.62981	0.3615	0.47537	0.101
Mof_C 	C 	0.82252	0.34406	0.4072	0.109
Mof_C 	C 	0.18906	0.48601	0.44133	0.1
Mof_C 	C 	0.38739	0.54606	0.33809	0.107
Mof_C 	C 	0.72335	0.08152	0.24547	-0.265
Mof_C 	C 	0.82296	0.12788	0.167	0.32
Mof_C 	C 	0.74586	0.15944	0.10286	-0.315
Mof_C 	C 	0.5737	0.14761	0.11761	0.188
Mof_C 	C 	0.47695	0.10259	0.19514	-0.266
Mof_C 	C 	0.55018	0.06911	0.25937	0.17
Mof_C 	C 	0.78955	0.0417	0.31995	0.384
Mof_C 	C 	0.01055	0.14737	0.14662	-0.582
Mof_C 	C 	0.08928	0.21627	0.15783	0.531
Mof_C 	C 	0.10518	0.47537	0.16313	0.101
Mof_C 	C 	0.22972	0.4072	0.24874	0.109
Mof_C 	C 	0.63039	0.44133	0.07266	0.1
Mof_C 	C 	0.72548	0.33809	0.11585	0.107
Mof_N 	N 	0.56311	0.80562	0.57839	-0.254
Mof_N 	N 	0.70114	0.86169	0.56687	-0.242
Mof_N 	N 	0.62333	0.76752	0.69713	-0.285
Mof_N 	N 	0.07876	0.932	0.46882	-0.242
Mof_N 	N 	0.16837	0.9597	0.50879	-0.229
Mof_N 	N 	0.29766	0.8797	0.48072	-0.292
Mof_N 	N 	0.1415	0.57839	0.61599	-0.253
Mof_N 	N 	0.26801	0.56687	0.57144	-0.241
Mof_N 	N 	0.32046	0.69713	0.53535	-0.285
Mof_N 	N 	0.54758	0.46882	0.59918	-0.243
Mof_N 	N 	0.67716	0.50879	0.53151	-0.229
Mof_N 	N 	0.77838	0.48072	0.63958	-0.292
Mof_N 	N 	0.75749	0.61599	0.80562	-0.254
Mof_N 	N 	0.83945	0.57144	0.86169	-0.242
Mof_N 	N 	0.85581	0.53535	0.76752	-0.285
Mof_N 	N 	0.14676	0.59918	0.932	-0.242
Mof_N 	N 	0.20867	0.53151	0.9597	-0.229
Mof_N 	N 	0.41796	0.63958	0.8797	-0.292
Mof_N 	N 	0.43689	0.19438	0.42161	-0.254
Mof_N 	N 	0.29886	0.13831	0.43313	-0.242
Mof_N 	N 	0.37667	0.23248	0.30287	-0.285
Mof_N 	N 	0.92124	0.068	0.53118	-0.242
Mof_N 	N 	0.83163	0.0403	0.49121	-0.229
Mof_N 	N 	0.70234	0.1203	0.51928	-0.292
Mof_N 	N 	0.8585	0.42161	0.38401	-0.253
Mof_N 	N 	0.73199	0.43313	0.42856	-0.241
Mof_N 	N 	0.67954	0.30287	0.46465	-0.285
Mof_N 	N 	0.45242	0.53118	0.40082	-0.243
Mof_N 	N 	0.32284	0.49121	0.46849	-0.229
Mof_N 	N 	0.22162	0.51928	0.36042	-0.292
Mof_N 	N 	0.24251	0.38401	0.19438	-0.254
Mof_N 	N 	0.16055	0.42856	0.13831	-0.242
Mof_N 	N 	0.14419	0.46465	0.23248	-0.285
Mof_N 	N 	0.85324	0.40082	0.068	-0.242
Mof_N 	N 	0.79133	0.46849	0.0403	-0.229
Mof_N 	N 	0.58204	0.36042	0.1203	-0.292
Mof_O 	O 	0.92602	0.61352	0.37456	-0.487
Mof_O 	O 	0.74423	0.68354	0.37645	-0.396
Mof_O 	O 	0.59579	0.82726	0.38859	-0.536
Mof_O 	O 	0.834	0.85053	0.41993	-0.48
Mof_O 	O 	0.30058	0.37456	0.01192	-0.488
Mof_O 	O 	0.12068	0.37645	0.94001	-0.396
Mof_O 	O 	0.98438	0.38859	0.78415	-0.537
Mof_O 	O 	0.25393	0.41993	0.72954	-0.48
Mof_O 	O 	0.3125	0.01192	0.61352	-0.489
Mof_O 	O 	0.06069	0.94001	0.68354	-0.395
Mof_O 	O 	0.76853	0.78415	0.82726	-0.536
Mof_O 	O 	0.98347	0.72954	0.85053	-0.481
Mof_O 	O 	0.07398	0.38648	0.62544	-0.487
Mof_O 	O 	0.25577	0.31646	0.62355	-0.396
Mof_O 	O 	0.40421	0.17274	0.61141	-0.536
Mof_O 	O 	0.166	0.14947	0.58007	-0.48
Mof_O 	O 	0.69942	0.62544	0.98808	-0.488
Mof_O 	O 	0.87932	0.62355	0.05999	-0.396
Mof_O 	O 	0.01562	0.61141	0.21585	-0.537
Mof_O 	O 	0.74607	0.58007	0.27046	-0.48
Mof_O 	O 	0.6875	0.98808	0.38648	-0.489
Mof_O 	O 	0.93931	0.05999	0.31646	-0.395
Mof_O 	O 	0.23147	0.21585	0.17274	-0.536
Mof_O 	O 	0.01653	0.27046	0.14947	-0.481
_end
