# CIF file generated by openbabel 3.1.0, see https://openbabel.org
data_I
_chemical_name_common 'image0'
_cell_length_a 9.2414
_cell_length_b 10.304
_cell_length_c 12.8291
_cell_angle_alpha 76.388
_cell_angle_beta 69.431
_cell_angle_gamma 86.377
_space_group_name_H-M_alt 'P 1'
_space_group_name_Hall 'P 1'
loop_
    _symmetry_equiv_pos_as_xyz
    x,y,z
loop_
    _atom_site_label
    _atom_site_type_symbol
    _atom_site_fract_x
    _atom_site_fract_y
    _atom_site_fract_z
    _atom_site_occupancy
    Dy1      Dy       0.45968    0.25111    0.99767    1.000
    O1       O        0.46030    0.86440    0.14540    1.000
    O2       O        0.58850    0.55120    0.11410    1.000
    O3       O        0.33710    0.05800    0.12440    1.000
    N1       N        0.10030    0.85400    0.54260    1.000
    N2       N        0.37320    0.35700    0.53550    1.000
    C1       C        0.50750    0.44760    0.16840    1.000
    C2       C        0.06670    0.95900    0.47300    1.000
    C3       C        0.15090    0.99530    0.35590    1.000
    H1       H        0.12630    0.07310    0.30910    1.000
    C4       C        0.47070    0.46060    0.46960    1.000
    C5       C        0.21980    0.78040    0.49710    1.000
    H2       H        0.24590    0.70610    0.54650    1.000
    C6       C        0.51450    0.49330    0.35110    1.000
    H3       H        0.58030    0.56860    0.30720    1.000
    C7       C        0.46070    0.41450    0.29790    1.000
    C8       C        0.36320    0.94810    0.18360    1.000
    C9       C        0.27160    0.91470    0.30960    1.000
    C10      C        0.35940    0.30860    0.36480    1.000
    H4       H        0.31880    0.25350    0.33130    1.000
    C11      C        0.31980    0.28630    0.48300    1.000
    H5       H        0.24910    0.21500    0.52920    1.000
    C12      C        0.30900    0.80700    0.38010    1.000
    H6       H        0.39270    0.75190    0.35090    1.000
    O4       O        0.22550    0.21800    0.95870    1.000
    O5       O        0.18720    0.30250    0.10270    1.000
    N3       N        0.13130    0.25810    0.04290    1.000
    O6       O        0.98950    0.25330    0.06250    1.000
    O7       O        0.46200    0.36680    0.12740    1.000
    Dy2      Dy       0.54032    0.74889    0.00233    1.000
    O8       O        0.53970    0.13560    0.85460    1.000
    O9       O        0.41150    0.44880    0.88590    1.000
    O10      O        0.66290    0.94200    0.87560    1.000
    N4       N        0.89970    0.14600    0.45740    1.000
    N5       N        0.62680    0.64300    0.46450    1.000
    C13      C        0.49250    0.55240    0.83160    1.000
    C14      C        0.93330    0.04100    0.52700    1.000
    C15      C        0.84910    0.00470    0.64410    1.000
    H7       H        0.87370    0.92690    0.69090    1.000
    C16      C        0.52930    0.53940    0.53040    1.000
    C17      C        0.78020    0.21960    0.50290    1.000
    H8       H        0.75410    0.29390    0.45350    1.000
    C18      C        0.48550    0.50670    0.64890    1.000
    H9       H        0.41970    0.43140    0.69280    1.000
    C19      C        0.53930    0.58550    0.70210    1.000
    C20      C        0.63680    0.05190    0.81640    1.000
    C21      C        0.72840    0.08530    0.69040    1.000
    C22      C        0.64060    0.69140    0.63520    1.000
    H10      H        0.68120    0.74650    0.66870    1.000
    C23      C        0.68020    0.71370    0.51700    1.000
    H11      H        0.75090    0.78500    0.47080    1.000
    C24      C        0.69100    0.19300    0.61990    1.000
    H12      H        0.60730    0.24810    0.64910    1.000
    O11      O        0.77450    0.78200    0.04130    1.000
    O12      O        0.81280    0.69750    0.89730    1.000
    N6       N        0.86870    0.74190    0.95710    1.000
    O13      O        0.01050    0.74670    0.93750    1.000
    O14      O        0.53800    0.63320    0.87260    1.000
