data_functionalizedCrystal
_audit_creation_method	'EQeq! by Chris Wilmer'
_symmetry_space_group_name_H-M	'P1'
_symmetry_Int_Tables_number	1
_symmetry_cell_setting	triclinic
loop_
_symmetry_equiv_pos_as_xyz
  x,y,z
_cell_length_a	14.512
_cell_length_b	14.512
_cell_length_c	8.914
_cell_angle_alpha	90
_cell_angle_beta	90
_cell_angle_gamma	90
loop_
_atom_site_label
_atom_site_type_symbol
_atom_site_fract_x
_atom_site_fract_y
_atom_site_fract_z
_atom_site_charge
Mof_Zn	Zn	0.50381	0.63629	0.38993	1.22
Mof_Zn	Zn	0.50293	0.87246	0.70778	1.241
Mof_Zn	Zn	0.36657	0.01407	0.20939	1.219
Mof_Zn	Zn	0.13088	0.02126	0.88721	1.217
Mof_P 	P 	0.63883	0.49653	0.25792	0.546
Mof_P 	P 	0.34801	0.99071	0.8569	0.693
Mof_P 	P 	0.48947	0.85666	0.3549	0.563
Mof_P 	P 	0.14069	0.02683	0.24212	0.493
Mof_O 	O 	0.3801	0.9126	0.7539	-0.445
Mof_O 	O 	0.5365	0.874	0.5035	-0.492
Mof_O 	O 	0.4069	0.076	0.8385	-0.517
Mof_O 	O 	0.3493	0.9569	0.0174	-0.504
Mof_O 	O 	0.3993	0.9109	0.3421	-0.421
Mof_O 	O 	0.2501	0.013	0.809	-0.495
Mof_O 	O 	0.6074	0.5965	0.2678	-0.496
Mof_O 	O 	0.7404	0.4902	0.2348	-0.434
Mof_O 	O 	0.6091	0.4459	0.4054	-0.631
Mof_O 	O 	0.5905	0.445	0.1306	-0.489
Mof_O 	O 	0.5542	0.8814	0.2256	-0.474
Mof_O 	O 	0.4605	0.7554	0.3384	-0.45
Mof_O 	O 	0.2412	0.0491	0.2666	-0.443
Mof_O 	O 	0.0824	0.0683	0.3699	-0.494
Mof_O 	O 	0.1033	0.071	0.0934	-0.68
Mof_O 	O 	0.123	0.9231	0.2287	-0.461
Mof_Zn	Zn	0.49619	0.36371	0.38993	1.221
Mof_Zn	Zn	0.49707	0.12754	0.70778	1.237
Mof_Zn	Zn	0.63343	0.98593	0.20939	1.249
Mof_Zn	Zn	0.86912	0.97874	0.88721	1.241
Mof_P 	P 	0.36117	0.50347	0.25792	0.545
Mof_P 	P 	0.65199	0.00929	0.8569	0.556
Mof_P 	P 	0.51053	0.14334	0.3549	0.562
Mof_P 	P 	0.85931	0.97317	0.24212	0.563
Mof_O 	O 	0.6199	0.0874	0.7539	-0.451
Mof_O 	O 	0.4635	0.126	0.5035	-0.513
Mof_O 	O 	0.5931	0.924	0.8385	-0.445
Mof_O 	O 	0.6507	0.0431	0.0174	-0.531
Mof_O 	O 	0.6007	0.0891	0.3421	-0.461
Mof_O 	O 	0.7499	0.987	0.809	-0.406
Mof_O 	O 	0.3926	0.4035	0.2678	-0.498
Mof_O 	O 	0.2596	0.5098	0.2348	-0.435
Mof_O 	O 	0.3909	0.5541	0.4054	-0.631
Mof_O 	O 	0.4095	0.555	0.1306	-0.489
Mof_O 	O 	0.4458	0.1186	0.2256	-0.494
Mof_O 	O 	0.5395	0.2446	0.3384	-0.452
Mof_O 	O 	0.7588	0.9509	0.2666	-0.421
Mof_O 	O 	0.9176	0.9317	0.3699	-0.434
Mof_O 	O 	0.8967	0.929	0.0934	-0.635
Mof_O 	O 	0.877	0.0769	0.2287	-0.513
Mof_Zn	Zn	0.63629	0.49619	0.61007	1.222
Mof_Zn	Zn	0.87246	0.49707	0.29222	1.239
Mof_Zn	Zn	0.01407	0.63343	0.79061	1.224
Mof_Zn	Zn	0.02126	0.86912	0.11279	1.204
Mof_P 	P 	0.49653	0.36117	0.74208	0.545
Mof_P 	P 	0.99071	0.65199	0.1431	0.61
Mof_P 	P 	0.85666	0.51053	0.6451	0.562
Mof_P 	P 	0.02683	0.85931	0.75788	0.496
Mof_O 	O 	0.9126	0.6199	0.2461	-0.45
Mof_O 	O 	0.874	0.4635	0.4965	-0.493
Mof_O 	O 	0.076	0.5931	0.1615	-0.534
Mof_O 	O 	0.9569	0.6507	0.9826	-0.417
Mof_O 	O 	0.9109	0.6007	0.6579	-0.417
Mof_O 	O 	0.013	0.7499	0.191	-0.502
Mof_O 	O 	0.5965	0.3926	0.7322	-0.48
Mof_O 	O 	0.4902	0.2596	0.7652	-0.415
Mof_O 	O 	0.4459	0.3909	0.5946	-0.631
Mof_O 	O 	0.445	0.4095	0.8694	-0.448
Mof_O 	O 	0.8814	0.4458	0.7744	-0.453
Mof_O 	O 	0.7554	0.5395	0.6616	-0.44
Mof_O 	O 	0.0491	0.7588	0.7334	-0.429
Mof_O 	O 	0.0683	0.9176	0.6301	-0.449
Mof_O 	O 	0.071	0.8967	0.9066	-0.596
Mof_O 	O 	0.9231	0.877	0.7713	-0.435
Mof_Zn	Zn	0.36371	0.50381	0.61007	1.222
Mof_Zn	Zn	0.12754	0.50293	0.29222	1.234
Mof_Zn	Zn	0.98593	0.36657	0.79061	1.253
Mof_Zn	Zn	0.97874	0.13088	0.11279	1.219
Mof_P 	P 	0.50347	0.63883	0.74208	0.545
Mof_P 	P 	0.00929	0.34801	0.1431	0.474
Mof_P 	P 	0.14334	0.48947	0.6451	0.562
Mof_P 	P 	0.97317	0.14069	0.75788	0.567
Mof_O 	O 	0.0874	0.3801	0.2461	-0.457
Mof_O 	O 	0.126	0.5365	0.4965	-0.511
Mof_O 	O 	0.924	0.4069	0.1615	-0.464
Mof_O 	O 	0.0431	0.3493	0.9826	-0.444
Mof_O 	O 	0.0891	0.3993	0.6579	-0.458
Mof_O 	O 	0.987	0.2501	0.191	-0.415
Mof_O 	O 	0.4035	0.6074	0.7322	-0.479
Mof_O 	O 	0.5098	0.7404	0.7652	-0.413
Mof_O 	O 	0.5541	0.6091	0.5946	-0.63
Mof_O 	O 	0.555	0.5905	0.8694	-0.447
Mof_O 	O 	0.1186	0.5542	0.7744	-0.471
Mof_O 	O 	0.2446	0.4605	0.6616	-0.441
Mof_O 	O 	0.9509	0.2412	0.7334	-0.411
Mof_O 	O 	0.9317	0.0824	0.6301	-0.471
Mof_O 	O 	0.929	0.1033	0.9066	-0.615
Mof_O 	O 	0.0769	0.123	0.7713	-0.514
Mof_Zn	Zn	4.51327e-33	3.36173e-33	0.5	1.202
Mof_Zn	Zn	0.5	0.5	-0	1.219
_end
