# CIF file generated by openbabel 3.1.0, see https://openbabel.org
data_I
_chemical_name_common 'image0'
_cell_length_a 10.212
_cell_length_b 21.288
_cell_length_c 7.905
_cell_angle_alpha 90
_cell_angle_beta 98.851
_cell_angle_gamma 90
_space_group_name_H-M_alt 'P 1'
_space_group_name_Hall 'P 1'
loop_
    _symmetry_equiv_pos_as_xyz
    x,y,z
loop_
    _atom_site_label
    _atom_site_type_symbol
    _atom_site_fract_x
    _atom_site_fract_y
    _atom_site_fract_z
    _atom_site_occupancy
    Pr1      Pr       0.01055    0.21505    0.00493    1.000
    O1       O        0.87090    0.24050    0.24850    1.000
    O2       O        0.24640    0.31010    0.47030    1.000
    O3       O        0.77550    0.18380    0.03380    1.000
    F1       F        0.58940    0.12270    0.24160    1.000
    C1       C        0.76910    0.21670    0.16170    1.000
    O4       O        0.15220    0.24200    0.28290    1.000
    F2       F        0.66600    0.33880    0.17750    1.000
    C2       C        0.25290    0.27200    0.35700    1.000
    O5       O        0.98980    0.13280    0.79110    1.000
    F3       F        0.43190    0.36440    0.27250    1.000
    F4       F        0.35630    0.14780    0.33780    1.000
    F5       F        0.23020    0.05900    0.61230    1.000
    C3       C        0.63630    0.23010    0.21160    1.000
    C4       C        0.55200    0.18290    0.25030    1.000
    C5       C        0.00030    0.06020    0.56670    1.000
    C6       C        0.38740    0.25660    0.30600    1.000
    C7       C        0.00070    0.12720    0.63640    1.000
    C8       C        0.43100    0.19630    0.29480    1.000
    C9       C        0.59110    0.29200    0.22160    1.000
    O6       O        0.01450    0.16980    0.53070    1.000
    C10      C        0.11750    0.02960    0.55780    1.000
    F6       F        0.76930    0.05920    0.51550    1.000
    C11      C        0.88310    0.02990    0.50840    1.000
    C12      C        0.47060    0.30360    0.26760    1.000
    Pr2      Pr       0.98945    0.71505    0.49507    1.000
    O7       O        0.12910    0.74050    0.25150    1.000
    O8       O        0.75360    0.81010    0.02970    1.000
    O9       O        0.22450    0.68380    0.46620    1.000
    F7       F        0.41060    0.62270    0.25840    1.000
    C13      C        0.23090    0.71670    0.33830    1.000
    O10      O        0.84780    0.74200    0.21710    1.000
    F8       F        0.33400    0.83880    0.32250    1.000
    C14      C        0.74710    0.77200    0.14300    1.000
    O11      O        0.01020    0.63280    0.70890    1.000
    F9       F        0.56810    0.86440    0.22750    1.000
    F10      F        0.64370    0.64780    0.16220    1.000
    F11      F        0.76980    0.55900    0.88770    1.000
    C15      C        0.36370    0.73010    0.28840    1.000
    C16      C        0.44800    0.68290    0.24970    1.000
    C17      C        0.99970    0.56020    0.93330    1.000
    C18      C        0.61260    0.75660    0.19400    1.000
    C19      C        0.99930    0.62720    0.86360    1.000
    C20      C        0.56900    0.69630    0.20520    1.000
    C21      C        0.40890    0.79200    0.27840    1.000
    O12      O        0.98550    0.66980    0.96930    1.000
    C22      C        0.88250    0.52960    0.94220    1.000
    F12      F        0.23070    0.55920    0.98450    1.000
    C23      C        0.11690    0.52990    0.99160    1.000
    C24      C        0.52940    0.80360    0.23240    1.000
    Pr3      Pr       0.98945    0.78495    0.99507    1.000
    O13      O        0.12910    0.75950    0.75150    1.000
    O14      O        0.75360    0.68990    0.52970    1.000
    O15      O        0.22450    0.81620    0.96620    1.000
    F13      F        0.41060    0.87730    0.75840    1.000
    C25      C        0.23090    0.78330    0.83830    1.000
    O16      O        0.84780    0.75800    0.71710    1.000
    F14      F        0.33400    0.66120    0.82250    1.000
    C26      C        0.74710    0.72800    0.64300    1.000
    O17      O        0.01020    0.86720    0.20890    1.000
    F15      F        0.56810    0.63560    0.72750    1.000
    F16      F        0.64370    0.85220    0.66220    1.000
    F17      F        0.76980    0.94100    0.38770    1.000
    C27      C        0.36370    0.76990    0.78840    1.000
    C28      C        0.44800    0.81710    0.74970    1.000
    C29      C        0.99970    0.93980    0.43330    1.000
    C30      C        0.61260    0.74340    0.69400    1.000
    C31      C        0.99930    0.87280    0.36360    1.000
    C32      C        0.56900    0.80370    0.70520    1.000
    C33      C        0.40890    0.70800    0.77840    1.000
    O18      O        0.98550    0.83020    0.46930    1.000
    C34      C        0.88250    0.97040    0.44220    1.000
    F18      F        0.23070    0.94080    0.48450    1.000
    C35      C        0.11690    0.97010    0.49160    1.000
    C36      C        0.52940    0.69640    0.73240    1.000
    Pr4      Pr       0.01055    0.28495    0.50493    1.000
    O19      O        0.87090    0.25950    0.74850    1.000
    O20      O        0.24640    0.18990    0.97030    1.000
    O21      O        0.77550    0.31620    0.53380    1.000
    F19      F        0.58940    0.37730    0.74160    1.000
    C37      C        0.76910    0.28330    0.66170    1.000
    O22      O        0.15220    0.25800    0.78290    1.000
    F20      F        0.66600    0.16120    0.67750    1.000
    C38      C        0.25290    0.22800    0.85700    1.000
    O23      O        0.98980    0.36720    0.29110    1.000
    F21      F        0.43190    0.13560    0.77250    1.000
    F22      F        0.35630    0.35220    0.83780    1.000
    F23      F        0.23020    0.44100    0.11230    1.000
    C39      C        0.63630    0.26990    0.71160    1.000
    C40      C        0.55200    0.31710    0.75030    1.000
    C41      C        0.00030    0.43980    0.06670    1.000
    C42      C        0.38740    0.24340    0.80600    1.000
    C43      C        0.00070    0.37280    0.13640    1.000
    C44      C        0.43100    0.30370    0.79480    1.000
    C45      C        0.59110    0.20800    0.72160    1.000
    O24      O        0.01450    0.33020    0.03070    1.000
    C46      C        0.11750    0.47040    0.05780    1.000
    F24      F        0.76930    0.44080    0.01550    1.000
    C47      C        0.88310    0.47010    0.00840    1.000
    C48      C        0.47060    0.19640    0.76760    1.000
