data_functionalizedCrystal
_audit_creation_method	'EQeq! by Chris Wilmer'
_symmetry_space_group_name_H-M	'P1'
_symmetry_Int_Tables_number	1
_symmetry_cell_setting	triclinic
loop_
_symmetry_equiv_pos_as_xyz
  x,y,z
_cell_length_a	10.601
_cell_length_b	26.841
_cell_length_c	11.464
_cell_angle_alpha	90
_cell_angle_beta	97.32
_cell_angle_gamma	90
loop_
_atom_site_label
_atom_site_type_symbol
_atom_site_fract_x
_atom_site_fract_y
_atom_site_fract_z
_atom_site_charge
Mof_Pb	Pb	0.13332	0.37412	0.56364	0.542
Mof_Pb	Pb	0.26127	0.39041	0.91223	0.52
Mof_Pb	Pb	0.39172	0.39575	0.27827	0.523
Mof_K 	K 	0.5167	0.37406	0.6851	3.322
Mof_K 	K 	0.8964	0.49039	0.6392	2.583
Mof_K 	K 	0.8149	0.24226	0.6163	3.571
Mof_S 	S 	0.5311	0.2303	0.9399	-0.579
Mof_S 	S 	0.6845	0.3597	0.4595	-0.756
Mof_S 	S 	0.511	0.517	0.491	-0.216
Mof_O 	O 	0.9626	0.3243	0.6784	-0.765
Mof_O 	O 	0.0386	0.3969	0.7393	-0.601
Mof_O 	O 	0.1565	0.4693	0.5831	-0.877
Mof_O 	O 	0.3007	0.429	0.7046	-0.739
Mof_O 	O 	0.4378	0.3581	0.0814	-0.715
Mof_O 	O 	0.4875	0.3831	0.9112	-0.872
Mof_O 	O 	0.202	0.3016	0.9121	-0.82
Mof_O 	O 	0.2728	0.3292	0.752	-0.661
Mof_O 	O 	0.3932	0.3093	0.3206	-0.881
Mof_O 	O 	0.3799	0.3498	0.4775	-0.863
Mof_O 	O 	0.1641	0.4054	0.3198	-0.693
Mof_O 	O 	0.2003	0.369	0.155	-0.628
Mof_N 	N 	0.6215	0.2752	0.7473	-0.645
Mof_N 	N 	0.9166	0.4106	0.482	-0.431
Mof_N 	N 	0.651	0.476	0.685	-0.526
Mof_C 	C 	0.9632	0.3615	0.7451	0.41
Mof_C 	C 	0.874	0.3622	0.839	-0.35
Mof_H 	H 	0.823	0.3326	0.8327	-0.09
Mof_H 	H 	0.82	0.391	0.828	-0.131
Mof_H 	H 	0.9232	0.3636	0.9152	0.028
Mof_C 	C 	0.2475	0.4694	0.6678	0.552
Mof_C 	C 	0.288	0.5186	0.735	-0.708
Mof_H 	H 	0.2391	0.5459	0.6993	0.124
Mof_H 	H 	0.3769	0.5246	0.7317	0.13
Mof_H 	H 	0.2735	0.5155	0.8157	0.107
Mof_C 	C 	0.5206	0.3696	0.0153	0.698
Mof_C 	C 	0.6583	0.3673	0.0628	-1.034
Mof_H 	H 	0.6672	0.3546	0.1418	0.269
Mof_H 	H 	0.6945	0.4001	0.0628	0.239
Mof_H 	H 	0.7018	0.3456	0.0145	0.23
Mof_C 	C 	0.2258	0.2949	0.8109	0.642
Mof_C 	C 	0.2	0.2446	0.7538	-0.841
Mof_H 	H 	0.2771	0.2254	0.7618	0.172
Mof_H 	H 	0.1699	0.249	0.6718	0.172
Mof_H 	H 	0.1368	0.2274	0.7913	0.158
Mof_C 	C 	0.389	0.3086	0.4245	0.845
Mof_C 	C 	0.399	0.2627	0.488	-1.099
Mof_H 	H 	0.3623	0.2665	0.5596	0.225
Mof_H 	H 	0.4867	0.2535	0.5053	0.162
Mof_H 	H 	0.3539	0.2371	0.4406	0.237
Mof_C 	C 	0.132	0.383	0.2276	0.503
Mof_C 	C 	0.9841	0.3745	0.1879	-0.677
Mof_H 	H 	0.9408	0.3717	0.2563	0.152
Mof_H 	H 	0.9721	0.3444	0.1425	0.145
Mof_H 	H 	0.9503	0.4022	0.1411	0.104
Mof_C 	C 	0.5841	0.2558	0.826	0.051
Mof_C 	C 	0.82	0.3909	0.4752	-0.011
Mof_C 	C 	0.593	0.4885	0.601	-0.166
Mof_Pb	Pb	0.36668	0.87412	0.93636	0.537
Mof_Pb	Pb	0.23873	0.89041	0.58777	0.513
Mof_Pb	Pb	0.10828	0.89575	0.22173	0.526
Mof_K 	K 	0.9833	0.87406	0.8149	3.234
Mof_K 	K 	0.6036	0.99039	0.8608	2.569
Mof_K 	K 	0.6851	0.74226	0.8837	3.511
Mof_S 	S 	0.9689	0.7303	0.5601	-0.596
Mof_S 	S 	0.8155	0.8597	0.0405	-0.733
Mof_S 	S 	0.989	0.017	0.009	-0.186
Mof_O 	O 	0.5374	0.8243	0.8216	-0.766
Mof_O 	O 	0.4614	0.8969	0.7607	-0.605
Mof_O 	O 	0.3435	0.9693	0.9169	-0.874
Mof_O 	O 	0.1993	0.929	0.7954	-0.727
Mof_O 	O 	0.0622	0.8581	0.4186	-0.708
Mof_O 	O 	0.0125	0.8831	0.5888	-0.855
Mof_O 	O 	0.298	0.8016	0.5879	-0.83
Mof_O 	O 	0.2272	0.8292	0.748	-0.655
Mof_O 	O 	0.1068	0.8093	0.1794	-0.892
Mof_O 	O 	0.1201	0.8498	0.0225	-0.857
Mof_O 	O 	0.3359	0.9054	0.1802	-0.691
Mof_O 	O 	0.2997	0.869	0.345	-0.628
Mof_N 	N 	0.8785	0.7752	0.7527	-0.642
Mof_N 	N 	0.5834	0.9106	0.018	-0.426
Mof_N 	N 	0.849	0.976	0.815	-0.514
Mof_C 	C 	0.5368	0.8615	0.7549	0.419
Mof_C 	C 	0.626	0.8622	0.661	-0.369
Mof_H 	H 	0.677	0.8326	0.6673	-0.081
Mof_H 	H 	0.68	0.891	0.672	-0.122
Mof_H 	H 	0.5768	0.8636	0.5848	0.037
Mof_C 	C 	0.2525	0.9694	0.8322	0.548
Mof_C 	C 	0.212	0.0186	0.765	-0.702
Mof_H 	H 	0.2609	0.0459	0.8007	0.124
Mof_H 	H 	0.1231	0.0246	0.7683	0.132
Mof_H 	H 	0.2265	0.0155	0.6843	0.107
Mof_C 	C 	0.9794	0.8696	0.4847	0.688
Mof_C 	C 	0.8417	0.8673	0.4372	-1.023
Mof_H 	H 	0.8328	0.8546	0.3582	0.265
Mof_H 	H 	0.8055	0.9001	0.4372	0.236
Mof_H 	H 	0.7982	0.8456	0.4855	0.229
Mof_C 	C 	0.2742	0.7949	0.6891	0.644
Mof_C 	C 	0.3	0.7446	0.7462	-0.845
Mof_H 	H 	0.2229	0.7254	0.7382	0.174
Mof_H 	H 	0.3301	0.749	0.8282	0.172
Mof_H 	H 	0.3632	0.7274	0.7087	0.159
Mof_C 	C 	0.111	0.8086	0.0755	0.861
Mof_C 	C 	0.101	0.7627	0.012	-1.141
Mof_H 	H 	0.1377	0.7665	0.9404	0.241
Mof_H 	H 	0.0133	0.7535	0.9947	0.181
Mof_H 	H 	0.1461	0.7371	0.0594	0.249
Mof_C 	C 	0.368	0.883	0.2724	0.517
Mof_C 	C 	0.5159	0.8745	0.3121	-0.7
Mof_H 	H 	0.5592	0.8717	0.2437	0.157
Mof_H 	H 	0.5279	0.8444	0.3575	0.148
Mof_H 	H 	0.5497	0.9022	0.3589	0.109
Mof_C 	C 	0.9159	0.7558	0.674	0.053
Mof_C 	C 	0.68	0.8909	0.0248	-0.009
Mof_C 	C 	0.907	0.9885	0.899	-0.201
Mof_Pb	Pb	0.86668	0.62588	0.43636	0.541
Mof_Pb	Pb	0.73873	0.60959	0.08777	0.519
Mof_Pb	Pb	0.60828	0.60425	0.72173	0.522
Mof_K 	K 	0.4833	0.62594	0.3149	3.321
Mof_K 	K 	0.1036	0.50961	0.3608	2.582
Mof_K 	K 	0.1851	0.75774	0.3837	3.57
Mof_S 	S 	0.4689	0.7697	0.0601	-0.579
Mof_S 	S 	0.3155	0.6403	0.5405	-0.756
Mof_S 	S 	0.489	0.483	0.509	-0.216
Mof_O 	O 	0.0374	0.6757	0.3216	-0.765
Mof_O 	O 	0.9614	0.6031	0.2607	-0.601
Mof_O 	O 	0.8435	0.5307	0.4169	-0.877
Mof_O 	O 	0.6993	0.571	0.2954	-0.739
Mof_O 	O 	0.5622	0.6419	0.9186	-0.715
Mof_O 	O 	0.5125	0.6169	0.0888	-0.872
Mof_O 	O 	0.798	0.6984	0.0879	-0.82
Mof_O 	O 	0.7272	0.6708	0.248	-0.661
Mof_O 	O 	0.6068	0.6907	0.6794	-0.881
Mof_O 	O 	0.6201	0.6502	0.5225	-0.863
Mof_O 	O 	0.8359	0.5946	0.6802	-0.693
Mof_O 	O 	0.7997	0.631	0.845	-0.628
Mof_N 	N 	0.3785	0.7248	0.2527	-0.645
Mof_N 	N 	0.0834	0.5894	0.518	-0.431
Mof_N 	N 	0.349	0.524	0.315	-0.526
Mof_C 	C 	0.0368	0.6385	0.2549	0.41
Mof_C 	C 	0.126	0.6378	0.161	-0.35
Mof_H 	H 	0.177	0.6674	0.1673	-0.09
Mof_H 	H 	0.18	0.609	0.172	-0.131
Mof_H 	H 	0.0768	0.6364	0.0848	0.028
Mof_C 	C 	0.7525	0.5306	0.3322	0.552
Mof_C 	C 	0.712	0.4814	0.265	-0.708
Mof_H 	H 	0.7609	0.4541	0.3007	0.124
Mof_H 	H 	0.6231	0.4754	0.2683	0.13
Mof_H 	H 	0.7265	0.4845	0.1843	0.107
Mof_C 	C 	0.4794	0.6304	0.9847	0.698
Mof_C 	C 	0.3417	0.6327	0.9372	-1.034
Mof_H 	H 	0.3328	0.6454	0.8582	0.269
Mof_H 	H 	0.3055	0.5999	0.9372	0.239
Mof_H 	H 	0.2982	0.6544	0.9855	0.23
Mof_C 	C 	0.7742	0.7051	0.1891	0.642
Mof_C 	C 	0.8	0.7554	0.2462	-0.841
Mof_H 	H 	0.7229	0.7746	0.2382	0.172
Mof_H 	H 	0.8301	0.751	0.3282	0.172
Mof_H 	H 	0.8632	0.7726	0.2087	0.158
Mof_C 	C 	0.611	0.6914	0.5755	0.845
Mof_C 	C 	0.601	0.7373	0.512	-1.099
Mof_H 	H 	0.6377	0.7335	0.4404	0.225
Mof_H 	H 	0.5133	0.7465	0.4947	0.162
Mof_H 	H 	0.6461	0.7629	0.5594	0.237
Mof_C 	C 	0.868	0.617	0.7724	0.503
Mof_C 	C 	0.0159	0.6255	0.8121	-0.677
Mof_H 	H 	0.0592	0.6283	0.7437	0.152
Mof_H 	H 	0.0279	0.6556	0.8575	0.145
Mof_H 	H 	0.0497	0.5978	0.8589	0.104
Mof_C 	C 	0.4159	0.7442	0.174	0.051
Mof_C 	C 	0.18	0.6091	0.5248	-0.011
Mof_C 	C 	0.407	0.5115	0.399	-0.166
Mof_Pb	Pb	0.63332	0.12588	0.06364	0.537
Mof_Pb	Pb	0.76127	0.10959	0.41223	0.513
Mof_Pb	Pb	0.89172	0.10425	0.77827	0.526
Mof_K 	K 	0.0167	0.12594	0.1851	3.234
Mof_K 	K 	0.3964	0.00961	0.1392	2.569
Mof_K 	K 	0.3149	0.25774	0.1163	3.511
Mof_S 	S 	0.0311	0.2697	0.4399	-0.596
Mof_S 	S 	0.1845	0.1403	0.9595	-0.733
Mof_S 	S 	0.011	0.983	0.991	-0.186
Mof_O 	O 	0.4626	0.1757	0.1784	-0.766
Mof_O 	O 	0.5386	0.1031	0.2393	-0.605
Mof_O 	O 	0.6565	0.0307	0.0831	-0.874
Mof_O 	O 	0.8007	0.071	0.2046	-0.727
Mof_O 	O 	0.9378	0.1419	0.5814	-0.708
Mof_O 	O 	0.9875	0.1169	0.4112	-0.855
Mof_O 	O 	0.702	0.1984	0.4121	-0.83
Mof_O 	O 	0.7728	0.1708	0.252	-0.655
Mof_O 	O 	0.8932	0.1907	0.8206	-0.892
Mof_O 	O 	0.8799	0.1502	0.9775	-0.857
Mof_O 	O 	0.6641	0.0946	0.8198	-0.691
Mof_O 	O 	0.7003	0.131	0.655	-0.628
Mof_N 	N 	0.1215	0.2248	0.2473	-0.642
Mof_N 	N 	0.4166	0.0894	0.982	-0.426
Mof_N 	N 	0.151	0.024	0.185	-0.514
Mof_C 	C 	0.4632	0.1385	0.2451	0.419
Mof_C 	C 	0.374	0.1378	0.339	-0.369
Mof_H 	H 	0.323	0.1674	0.3327	-0.081
Mof_H 	H 	0.32	0.109	0.328	-0.122
Mof_H 	H 	0.4232	0.1364	0.4152	0.037
Mof_C 	C 	0.7475	0.0306	0.1678	0.548
Mof_C 	C 	0.788	0.9814	0.235	-0.702
Mof_H 	H 	0.7391	0.9541	0.1993	0.124
Mof_H 	H 	0.8769	0.9754	0.2317	0.132
Mof_H 	H 	0.7735	0.9845	0.3157	0.107
Mof_C 	C 	0.0206	0.1304	0.5153	0.688
Mof_C 	C 	0.1583	0.1327	0.5628	-1.023
Mof_H 	H 	0.1672	0.1454	0.6418	0.265
Mof_H 	H 	0.1945	0.0999	0.5628	0.236
Mof_H 	H 	0.2018	0.1544	0.5145	0.229
Mof_C 	C 	0.7258	0.2051	0.3109	0.644
Mof_C 	C 	0.7	0.2554	0.2538	-0.845
Mof_H 	H 	0.7771	0.2746	0.2618	0.174
Mof_H 	H 	0.6699	0.251	0.1718	0.172
Mof_H 	H 	0.6368	0.2726	0.2913	0.159
Mof_C 	C 	0.889	0.1914	0.9245	0.861
Mof_C 	C 	0.899	0.2373	0.988	-1.141
Mof_H 	H 	0.8623	0.2335	0.0596	0.241
Mof_H 	H 	0.9867	0.2465	0.0053	0.181
Mof_H 	H 	0.8539	0.2629	0.9406	0.249
Mof_C 	C 	0.632	0.117	0.7276	0.517
Mof_C 	C 	0.4841	0.1255	0.6879	-0.7
Mof_H 	H 	0.4408	0.1283	0.7563	0.157
Mof_H 	H 	0.4721	0.1556	0.6425	0.148
Mof_H 	H 	0.4503	0.0978	0.6411	0.109
Mof_C 	C 	0.0841	0.2442	0.326	0.053
Mof_C 	C 	0.32	0.1091	0.9752	-0.009
Mof_C 	C 	0.093	0.0115	0.101	-0.201
_end
