data_functionalizedCrystal
_audit_creation_method	'EQeq! by Chris Wilmer'
_symmetry_space_group_name_H-M	'P1'
_symmetry_Int_Tables_number	1
_symmetry_cell_setting	triclinic
loop_
_symmetry_equiv_pos_as_xyz
  x,y,z
_cell_length_a	24.378
_cell_length_b	24.378
_cell_length_c	15.017
_cell_angle_alpha	90
_cell_angle_beta	90
_cell_angle_gamma	90
loop_
_atom_site_label
_atom_site_type_symbol
_atom_site_fract_x
_atom_site_fract_y
_atom_site_fract_z
_atom_site_charge
Mof_O 	O 	0.85281	0.4455	0.5889	-0.65
Mof_O 	O 	0.918	0.3962	0.6629	-0.624
Mof_C 	C 	0.8681	0.408	0.64	0.487
Mof_C 	C 	0.8263	0.3674	0.6732	-0.084
Mof_C 	C 	0.7739	0.3716	0.6421	-0.071
Mof_H 	H 	0.7644	0.3994	0.6005	0.066
Mof_C 	C 	0.7334	0.3336	0.6726	0.115
Mof_C 	C 	0.7466	0.2942	0.7325	-0.031
Mof_C 	C 	0.8021	0.2895	0.7633	-0.055
Mof_H 	H 	0.8122	0.2613	0.8037	0.067
Mof_C 	C 	0.8405	0.3267	0.733	0.013
Mof_H 	H 	0.8773	0.3242	0.7536	0.059
Mof_C 	C 	0.676	0.3395	0.635	-0.45
Mof_H 	H 	0.6749	0.3705	0.5934	0.141
Mof_H 	H 	0.65	0.346	0.6837	0.141
Mof_H 	H 	0.6658	0.3057	0.6035	0.146
Mof_H 	H 	0.9679	0.1143	0.6692	0.076
Mof_O 	O 	0.14719	0.5545	0.5889	-0.661
Mof_O 	O 	0.082	0.6038	0.6629	-0.717
Mof_C 	C 	0.1319	0.592	0.64	0.501
Mof_C 	C 	0.1737	0.6326	0.6732	-0.12
Mof_C 	C 	0.2261	0.6284	0.6421	-0.057
Mof_H 	H 	0.2356	0.6006	0.6005	0.059
Mof_C 	C 	0.2666	0.6664	0.6726	0.103
Mof_C 	C 	0.2534	0.7058	0.7325	-0.019
Mof_C 	C 	0.1979	0.7105	0.7633	-0.082
Mof_H 	H 	0.1878	0.7387	0.8037	0.062
Mof_C 	C 	0.1595	0.6733	0.733	0.029
Mof_H 	H 	0.1227	0.6758	0.7536	0.011
Mof_C 	C 	0.324	0.6605	0.635	-0.447
Mof_H 	H 	0.3251	0.6295	0.5934	0.141
Mof_H 	H 	0.35	0.654	0.6837	0.141
Mof_H 	H 	0.3342	0.6943	0.6035	0.151
Mof_H 	H 	0.0321	0.8857	0.6692	-0.062
Mof_O 	O 	0.5545	0.85281	0.0889	-0.659
Mof_O 	O 	0.6038	0.918	0.1629	-0.628
Mof_C 	C 	0.592	0.8681	0.14	0.487
Mof_C 	C 	0.6326	0.8263	0.1732	-0.093
Mof_C 	C 	0.6284	0.7739	0.1421	-0.065
Mof_H 	H 	0.6006	0.7644	0.1005	0.058
Mof_C 	C 	0.6664	0.7334	0.1726	0.106
Mof_C 	C 	0.7058	0.7466	0.2325	-0.023
Mof_C 	C 	0.7105	0.8021	0.2633	-0.062
Mof_H 	H 	0.7387	0.8122	0.3037	0.077
Mof_C 	C 	0.6733	0.8405	0.233	0.019
Mof_H 	H 	0.6758	0.8773	0.2536	0.059
Mof_C 	C 	0.6605	0.676	0.135	-0.439
Mof_H 	H 	0.6295	0.6749	0.0934	0.132
Mof_H 	H 	0.654	0.65	0.1837	0.136
Mof_H 	H 	0.6943	0.6658	0.1035	0.143
Mof_H 	H 	0.8857	0.9679	0.1692	0.103
Mof_O 	O 	0.4455	0.14719	0.0889	-0.669
Mof_O 	O 	0.3962	0.082	0.1629	-0.721
Mof_C 	C 	0.408	0.1319	0.14	0.501
Mof_C 	C 	0.3674	0.1737	0.1732	-0.127
Mof_C 	C 	0.3716	0.2261	0.1421	-0.054
Mof_H 	H 	0.3994	0.2356	0.1005	0.052
Mof_C 	C 	0.3336	0.2666	0.1726	0.091
Mof_C 	C 	0.2942	0.2534	0.2325	-0.025
Mof_C 	C 	0.2895	0.1979	0.2633	-0.085
Mof_H 	H 	0.2613	0.1878	0.3037	0.046
Mof_C 	C 	0.3267	0.1595	0.233	0.025
Mof_H 	H 	0.3242	0.1227	0.2536	0.003
Mof_C 	C 	0.3395	0.324	0.135	-0.421
Mof_H 	H 	0.3705	0.3251	0.0934	0.125
Mof_H 	H 	0.346	0.35	0.1837	0.129
Mof_H 	H 	0.3057	0.3342	0.1035	0.13
Mof_H 	H 	0.1143	0.0321	0.1692	-0.093
Mof_O 	O 	0.14719	0.4455	0.4111	-0.662
Mof_O 	O 	0.082	0.3962	0.3371	-0.722
Mof_C 	C 	0.1319	0.408	0.36	0.499
Mof_C 	C 	0.1737	0.3674	0.3268	-0.121
Mof_C 	C 	0.2261	0.3716	0.3579	-0.061
Mof_H 	H 	0.2356	0.3994	0.3995	0.059
Mof_C 	C 	0.2666	0.3336	0.3274	0.102
Mof_C 	C 	0.2534	0.2942	0.2675	-0.032
Mof_C 	C 	0.1979	0.2895	0.2367	-0.08
Mof_H 	H 	0.1878	0.2613	0.1963	0.042
Mof_C 	C 	0.1595	0.3267	0.267	0.02
Mof_H 	H 	0.1227	0.3242	0.2464	0.003
Mof_C 	C 	0.324	0.3395	0.365	-0.44
Mof_H 	H 	0.3251	0.3705	0.4066	0.137
Mof_H 	H 	0.35	0.346	0.3163	0.136
Mof_H 	H 	0.3342	0.3057	0.3965	0.141
Mof_H 	H 	0.0321	0.1143	0.3308	-0.094
Mof_O 	O 	0.85281	0.5545	0.4111	-0.652
Mof_O 	O 	0.918	0.6038	0.3371	-0.627
Mof_C 	C 	0.8681	0.592	0.36	0.485
Mof_C 	C 	0.8263	0.6326	0.3268	-0.085
Mof_C 	C 	0.7739	0.6284	0.3579	-0.073
Mof_H 	H 	0.7644	0.6006	0.3995	0.066
Mof_C 	C 	0.7334	0.6664	0.3274	0.12
Mof_C 	C 	0.7466	0.7058	0.2675	-0.031
Mof_C 	C 	0.8021	0.7105	0.2367	-0.055
Mof_H 	H 	0.8122	0.7387	0.1963	0.071
Mof_C 	C 	0.8405	0.6733	0.267	0.013
Mof_H 	H 	0.8773	0.6758	0.2464	0.059
Mof_C 	C 	0.676	0.6605	0.365	-0.46
Mof_H 	H 	0.6749	0.6295	0.4066	0.145
Mof_H 	H 	0.65	0.654	0.3163	0.144
Mof_H 	H 	0.6658	0.6943	0.3965	0.156
Mof_H 	H 	0.9679	0.8857	0.3308	0.105
Mof_O 	O 	0.4455	0.85281	0.9111	-0.64
Mof_O 	O 	0.3962	0.918	0.8371	-0.623
Mof_C 	C 	0.408	0.8681	0.86	0.484
Mof_C 	C 	0.3674	0.8263	0.8268	-0.079
Mof_C 	C 	0.3716	0.7739	0.8579	-0.078
Mof_H 	H 	0.3994	0.7644	0.8995	0.073
Mof_C 	C 	0.3336	0.7334	0.8274	0.127
Mof_C 	C 	0.2942	0.7466	0.7675	-0.039
Mof_C 	C 	0.2895	0.8021	0.7367	-0.05
Mof_H 	H 	0.2613	0.8122	0.6963	0.061
Mof_C 	C 	0.3267	0.8405	0.767	0.007
Mof_H 	H 	0.3242	0.8773	0.7464	0.059
Mof_C 	C 	0.3395	0.676	0.865	-0.47
Mof_H 	H 	0.3705	0.6749	0.9066	0.153
Mof_H 	H 	0.346	0.65	0.8163	0.148
Mof_H 	H 	0.3057	0.6658	0.8965	0.158
Mof_H 	H 	0.1143	0.9679	0.8308	0.08
Mof_O 	O 	0.5545	0.14719	0.9111	-0.65
Mof_O 	O 	0.6038	0.082	0.8371	-0.714
Mof_C 	C 	0.592	0.1319	0.86	0.499
Mof_C 	C 	0.6326	0.1737	0.8268	-0.113
Mof_C 	C 	0.6284	0.2261	0.8579	-0.064
Mof_H 	H 	0.6006	0.2356	0.8995	0.067
Mof_C 	C 	0.6664	0.2666	0.8274	0.116
Mof_C 	C 	0.7058	0.2534	0.7675	-0.027
Mof_C 	C 	0.7105	0.1979	0.7367	-0.076
Mof_H 	H 	0.7387	0.1878	0.6963	0.057
Mof_C 	C 	0.6733	0.1595	0.767	0.023
Mof_H 	H 	0.6758	0.1227	0.7464	0.011
Mof_C 	C 	0.6605	0.324	0.865	-0.466
Mof_H 	H 	0.6295	0.3251	0.9066	0.153
Mof_H 	H 	0.654	0.35	0.8163	0.148
Mof_H 	H 	0.6943	0.3342	0.8965	0.163
Mof_H 	H 	0.8857	0.0321	0.8308	-0.055
Mof_O 	O 	0.14719	0.5545	0.4111	-0.661
Mof_O 	O 	0.082	0.6038	0.3371	-0.72
Mof_C 	C 	0.1319	0.592	0.36	0.499
Mof_C 	C 	0.1737	0.6326	0.3268	-0.12
Mof_C 	C 	0.2261	0.6284	0.3579	-0.06
Mof_H 	H 	0.2356	0.6006	0.3995	0.059
Mof_C 	C 	0.2666	0.6664	0.3274	0.105
Mof_C 	C 	0.2534	0.7058	0.2675	-0.026
Mof_C 	C 	0.1979	0.7105	0.2367	-0.081
Mof_H 	H 	0.1878	0.7387	0.1963	0.054
Mof_C 	C 	0.1595	0.6733	0.267	0.025
Mof_H 	H 	0.1227	0.6758	0.2464	0.007
Mof_C 	C 	0.324	0.6605	0.365	-0.448
Mof_H 	H 	0.3251	0.6295	0.4066	0.14
Mof_H 	H 	0.35	0.654	0.3163	0.14
Mof_H 	H 	0.3342	0.6943	0.3965	0.151
Mof_H 	H 	0.0321	0.8857	0.3308	-0.064
Mof_O 	O 	0.85281	0.4455	0.4111	-0.652
Mof_O 	O 	0.918	0.3962	0.3371	-0.629
Mof_C 	C 	0.8681	0.408	0.36	0.484
Mof_C 	C 	0.8263	0.3674	0.3268	-0.086
Mof_C 	C 	0.7739	0.3716	0.3579	-0.074
Mof_H 	H 	0.7644	0.3994	0.3995	0.066
Mof_C 	C 	0.7334	0.3336	0.3274	0.117
Mof_C 	C 	0.7466	0.2942	0.2675	-0.038
Mof_C 	C 	0.8021	0.2895	0.2367	-0.054
Mof_H 	H 	0.8122	0.2613	0.1963	0.059
Mof_C 	C 	0.8405	0.3267	0.267	0.008
Mof_H 	H 	0.8773	0.3242	0.2464	0.055
Mof_C 	C 	0.676	0.3395	0.365	-0.451
Mof_H 	H 	0.6749	0.3705	0.4066	0.141
Mof_H 	H 	0.65	0.346	0.3163	0.14
Mof_H 	H 	0.6658	0.3057	0.3965	0.146
Mof_H 	H 	0.9679	0.1143	0.3308	0.074
Mof_O 	O 	0.4455	0.14719	0.9111	-0.65
Mof_O 	O 	0.3962	0.082	0.8371	-0.715
Mof_C 	C 	0.408	0.1319	0.86	0.498
Mof_C 	C 	0.3674	0.1737	0.8268	-0.113
Mof_C 	C 	0.3716	0.2261	0.8579	-0.066
Mof_H 	H 	0.3994	0.2356	0.8995	0.067
Mof_C 	C 	0.3336	0.2666	0.8274	0.113
Mof_C 	C 	0.2942	0.2534	0.7675	-0.034
Mof_C 	C 	0.2895	0.1979	0.7367	-0.075
Mof_H 	H 	0.2613	0.1878	0.6963	0.044
Mof_C 	C 	0.3267	0.1595	0.767	0.018
Mof_H 	H 	0.3242	0.1227	0.7464	0.007
Mof_C 	C 	0.3395	0.324	0.865	-0.459
Mof_H 	H 	0.3705	0.3251	0.9066	0.149
Mof_H 	H 	0.346	0.35	0.8163	0.144
Mof_H 	H 	0.3057	0.3342	0.8965	0.154
Mof_H 	H 	0.1143	0.0321	0.8308	-0.086
Mof_O 	O 	0.5545	0.85281	0.9111	-0.64
Mof_O 	O 	0.6038	0.918	0.8371	-0.621
Mof_C 	C 	0.592	0.8681	0.86	0.484
Mof_C 	C 	0.6326	0.8263	0.8268	-0.078
Mof_C 	C 	0.6284	0.7739	0.8579	-0.077
Mof_H 	H 	0.6006	0.7644	0.8995	0.073
Mof_C 	C 	0.6664	0.7334	0.8274	0.129
Mof_C 	C 	0.7058	0.7466	0.7675	-0.032
Mof_C 	C 	0.7105	0.8021	0.7367	-0.051
Mof_H 	H 	0.7387	0.8122	0.6963	0.074
Mof_C 	C 	0.6733	0.8405	0.767	0.012
Mof_H 	H 	0.6758	0.8773	0.7464	0.063
Mof_C 	C 	0.6605	0.676	0.865	-0.478
Mof_H 	H 	0.6295	0.6749	0.9066	0.157
Mof_H 	H 	0.654	0.65	0.8163	0.152
Mof_H 	H 	0.6943	0.6658	0.8965	0.167
Mof_H 	H 	0.8857	0.9679	0.8308	0.111
Mof_O 	O 	0.85281	0.5545	0.5889	-0.651
Mof_O 	O 	0.918	0.6038	0.6629	-0.623
Mof_C 	C 	0.8681	0.592	0.64	0.486
Mof_C 	C 	0.8263	0.6326	0.6732	-0.085
Mof_C 	C 	0.7739	0.6284	0.6421	-0.07
Mof_H 	H 	0.7644	0.6006	0.6005	0.066
Mof_C 	C 	0.7334	0.6664	0.6726	0.118
Mof_C 	C 	0.7466	0.7058	0.7325	-0.025
Mof_C 	C 	0.8021	0.7105	0.7633	-0.056
Mof_H 	H 	0.8122	0.7387	0.8037	0.079
Mof_C 	C 	0.8405	0.6733	0.733	0.017
Mof_H 	H 	0.8773	0.6758	0.7536	0.063
Mof_C 	C 	0.676	0.6605	0.635	-0.459
Mof_H 	H 	0.6749	0.6295	0.5934	0.145
Mof_H 	H 	0.65	0.654	0.6837	0.145
Mof_H 	H 	0.6658	0.6943	0.6035	0.156
Mof_H 	H 	0.9679	0.8857	0.6692	0.107
Mof_O 	O 	0.14719	0.4455	0.5889	-0.661
Mof_O 	O 	0.082	0.3962	0.6629	-0.718
Mof_C 	C 	0.1319	0.408	0.64	0.5
Mof_C 	C 	0.1737	0.3674	0.6732	-0.12
Mof_C 	C 	0.2261	0.3716	0.6421	-0.058
Mof_H 	H 	0.2356	0.3994	0.6005	0.059
Mof_C 	C 	0.2666	0.3336	0.6726	0.1
Mof_C 	C 	0.2534	0.2942	0.7325	-0.026
Mof_C 	C 	0.1979	0.2895	0.7633	-0.081
Mof_H 	H 	0.1878	0.2613	0.8037	0.049
Mof_C 	C 	0.1595	0.3267	0.733	0.024
Mof_H 	H 	0.1227	0.3242	0.7536	0.007
Mof_C 	C 	0.324	0.3395	0.635	-0.438
Mof_H 	H 	0.3251	0.3705	0.5934	0.137
Mof_H 	H 	0.35	0.346	0.6837	0.137
Mof_H 	H 	0.3342	0.3057	0.6035	0.141
Mof_H 	H 	0.0321	0.1143	0.6692	-0.092
Mof_O 	O 	0.5545	0.14719	0.0889	-0.668
Mof_O 	O 	0.6038	0.082	0.1629	-0.72
Mof_C 	C 	0.592	0.1319	0.14	0.502
Mof_C 	C 	0.6326	0.1737	0.1732	-0.127
Mof_C 	C 	0.6284	0.2261	0.1421	-0.053
Mof_H 	H 	0.6006	0.2356	0.1005	0.052
Mof_C 	C 	0.6664	0.2666	0.1726	0.093
Mof_C 	C 	0.7058	0.2534	0.2325	-0.018
Mof_C 	C 	0.7105	0.1979	0.2633	-0.087
Mof_H 	H 	0.7387	0.1878	0.3037	0.059
Mof_C 	C 	0.6733	0.1595	0.233	0.031
Mof_H 	H 	0.6758	0.1227	0.2536	0.007
Mof_C 	C 	0.6605	0.324	0.135	-0.428
Mof_H 	H 	0.6295	0.3251	0.0934	0.128
Mof_H 	H 	0.654	0.35	0.1837	0.133
Mof_H 	H 	0.6943	0.3342	0.1035	0.139
Mof_H 	H 	0.8857	0.0321	0.1692	-0.063
Mof_O 	O 	0.4455	0.85281	0.0889	-0.659
Mof_O 	O 	0.3962	0.918	0.1629	-0.63
Mof_C 	C 	0.408	0.8681	0.14	0.487
Mof_C 	C 	0.3674	0.8263	0.1732	-0.093
Mof_C 	C 	0.3716	0.7739	0.1421	-0.067
Mof_H 	H 	0.3994	0.7644	0.1005	0.058
Mof_C 	C 	0.3336	0.7334	0.1726	0.104
Mof_C 	C 	0.2942	0.7466	0.2325	-0.03
Mof_C 	C 	0.2895	0.8021	0.2633	-0.06
Mof_H 	H 	0.2613	0.8122	0.3037	0.064
Mof_C 	C 	0.3267	0.8405	0.233	0.014
Mof_H 	H 	0.3242	0.8773	0.2536	0.055
Mof_C 	C 	0.3395	0.676	0.135	-0.432
Mof_H 	H 	0.3705	0.6749	0.0934	0.129
Mof_H 	H 	0.346	0.65	0.1837	0.133
Mof_H 	H 	0.3057	0.6658	0.1035	0.135
Mof_H 	H 	0.1143	0.9679	0.1692	0.072
Mof_Zr	Zr	0.89903	0.5	0.5	3.211
Mof_Zr	Zr	0.10097	0.5	0.5	3.212
Mof_Zr	Zr	0.5	0.89903	-0	3.208
Mof_Zr	Zr	0.5	0.10097	-0	3.21
Mof_Zr	Zr	1.42519e-33	0.42703	0.61706	3.171
Mof_O 	O 	1.33406e-33	0.3352	0.5776	-0.449
Mof_C 	C 	4.17097e-33	0.2245	0.5812	-0.198
Mof_H 	H 	-1.35966e-33	0.244	0.636	0.08
Mof_C 	C 	-4.31967e-33	0.1676	0.5791	0.203
Mof_C 	C 	1.53777e-33	0.1369	0.6658	0.314
Mof_O 	O 	9.87782e-33	0.3389	0.6027	-0.151
Mof_H 	H 	1.64979e-33	0.1625	0.7143	-0.106
Mof_H 	H 	-1.35943e-33	0.1477	0.6361	-0.29
Mof_Zr	Zr	1.42519e-33	0.57297	0.61706	3.171
Mof_O 	O 	-9.98033e-33	0.6648	0.5776	-0.445
Mof_C 	C 	1.26568e-32	0.7755	0.5812	-0.168
Mof_H 	H 	9.95473e-33	0.756	0.636	0.077
Mof_C 	C 	1.33752e-33	0.8324	0.5791	0.171
Mof_C 	C 	1.28522e-32	0.8631	0.6658	0.367
Mof_O 	O 	1.27064e-32	0.6611	0.6027	-0.154
Mof_H 	H 	7.30698e-33	0.8375	0.7143	-0.1
Mof_H 	H 	1.56122e-32	0.8523	0.6361	-0.31
Mof_Zr	Zr	0.57297	7.07149e-34	0.11706	3.171
Mof_O 	O 	0.6648	3.53575e-34	0.0776	-0.448
Mof_C 	C 	0.7755	0	0.0812	-0.165
Mof_H 	H 	0.756	7.07149e-34	0.136	0.074
Mof_C 	C 	0.8324	0	0.0791	0.172
Mof_C 	C 	0.8631	0	0.1658	0.361
Mof_O 	O 	0.6611	0	0.1027	-0.151
Mof_H 	H 	0.8375	0	0.2143	-0.101
Mof_H 	H 	0.8523	7.07149e-34	0.1361	-0.306
Mof_Zr	Zr	0.42703	7.07149e-34	0.11706	3.171
Mof_O 	O 	0.3352	3.53575e-34	0.0776	-0.452
Mof_C 	C 	0.2245	0	0.0812	-0.194
Mof_H 	H 	0.244	7.07149e-34	0.136	0.077
Mof_C 	C 	0.1676	0	0.0791	0.202
Mof_C 	C 	0.1369	0	0.1658	0.308
Mof_O 	O 	0.3389	0	0.1027	-0.149
Mof_H 	H 	0.1625	0	0.2143	-0.107
Mof_H 	H 	0.1477	7.07149e-34	0.1361	-0.286
Mof_Zr	Zr	-1.94414e-33	0.42703	0.38294	3.17
Mof_O 	O 	6.63279e-33	0.3352	0.4224	-0.452
Mof_C 	C 	-1.86131e-33	0.2245	0.4188	-0.197
Mof_H 	H 	3.66931e-33	0.244	0.364	0.077
Mof_C 	C 	3.80073e-33	0.1676	0.4209	0.2
Mof_C 	C 	-6.42412e-34	0.1369	0.3342	0.312
Mof_O 	O 	9.40342e-33	0.3389	0.3973	-0.15
Mof_H 	H 	2.07417e-33	0.1625	0.2857	-0.109
Mof_H 	H 	-1.98811e-33	0.1477	0.3639	-0.288
Mof_Zr	Zr	3.71306e-33	0.57297	0.38294	3.17
Mof_O 	O 	-4.6816e-33	0.6648	0.4224	-0.447
Mof_C 	C 	6.62448e-33	0.7755	0.4188	-0.167
Mof_H 	H 	9.32651e-33	0.756	0.364	0.074
Mof_C 	C 	9.72133e-34	0.8324	0.4209	0.168
Mof_C 	C 	9.25768e-33	0.8631	0.3342	0.365
Mof_O 	O 	1.2232e-32	0.6611	0.3973	-0.153
Mof_H 	H 	2.07417e-33	0.8375	0.2857	-0.104
Mof_H 	H 	9.32627e-33	0.8523	0.3639	-0.307
Mof_Zr	Zr	0.42703	5.65719e-33	0.88294	3.173
Mof_O 	O 	0.3352	0	0.9224	-0.461
Mof_C 	C 	0.2245	0	0.9188	-0.17
Mof_H 	H 	0.244	5.65719e-33	0.864	0.073
Mof_C 	C 	0.1676	0	0.9209	0.229
Mof_C 	C 	0.1369	0	0.8342	0.305
Mof_O 	O 	0.3389	0	0.8973	-0.121
Mof_H 	H 	0.1625	5.65719e-33	0.7857	-0.105
Mof_H 	H 	0.1477	0	0.8639	-0.291
Mof_Zr	Zr	0.57297	5.65719e-33	0.88294	3.173
Mof_O 	O 	0.6648	0	0.9224	-0.457
Mof_C 	C 	0.7755	0	0.9188	-0.141
Mof_H 	H 	0.756	5.65719e-33	0.864	0.07
Mof_C 	C 	0.8324	0	0.9209	0.2
Mof_C 	C 	0.8631	0	0.8342	0.358
Mof_O 	O 	0.6611	0	0.8973	-0.124
Mof_H 	H 	0.8375	5.65719e-33	0.7857	-0.098
Mof_H 	H 	0.8523	0	0.8639	-0.311
Mof_O 	O 	0.0495	0.5	0.6197	-1.366
Mof_O 	O 	0.9505	0.5	0.6197	-1.234
Mof_O 	O 	0.5	0.0495	0.1197	-1.367
Mof_O 	O 	0.5	0.9505	0.1197	-1.238
Mof_O 	O 	0.9505	0.5	0.3803	-1.237
Mof_O 	O 	0.0495	0.5	0.3803	-1.369
Mof_O 	O 	0.5	0.0495	0.8803	-1.356
Mof_O 	O 	0.5	0.9505	0.8803	-1.226
Mof_O 	O 	0.9499	0.4281	0.5	-1.19
Mof_O 	O 	0.0501	0.5719	0.5	-1.317
Mof_O 	O 	0.5719	0.9499	-0	-1.207
Mof_O 	O 	0.4281	0.0501	-0	-1.33
Mof_O 	O 	0.0501	0.4281	0.5	-1.318
Mof_O 	O 	0.9499	0.5719	0.5	-1.189
Mof_O 	O 	0.4281	0.9499	-0	-1.207
Mof_O 	O 	0.5719	0.0501	-0	-1.33
Mof_C 	C 	-1.67377e-33	0.3145	0.5	0.261
Mof_C 	C 	-1.67377e-33	0.2534	0.5	0.03
Mof_C 	C 	1.15483e-33	0.1385	0.5	-0.253
Mof_C 	C 	1.15483e-33	0.0776	0.5	0.131
Mof_C 	C 	-1.67377e-33	0.0287	0.5	-0.395
Mof_C 	C 	9.64062e-33	0.6855	0.5	0.266
Mof_C 	C 	3.98342e-33	0.7466	0.5	0.016
Mof_C 	C 	9.64062e-33	0.8615	0.5	-0.105
Mof_C 	C 	-1.67377e-33	0.9224	0.5	-0.124
Mof_C 	C 	2.0955e-32	0.9713	0.5	0.273
Mof_C 	C 	0.6855	0	-0	0.256
Mof_C 	C 	0.7466	0	-0	-0.012
Mof_C 	C 	0.8615	0	-0	-0.138
Mof_C 	C 	0.9224	0	-0	-0.123
Mof_C 	C 	0.9713	0	-0	0.261
Mof_C 	C 	0.3145	0	-0	0.252
Mof_C 	C 	0.2534	0	-0	0.002
Mof_C 	C 	0.1385	0	-0	-0.281
Mof_C 	C 	0.0776	0	-0	0.13
Mof_C 	C 	0.0287	0	-0	-0.399
_end
