data_functionalizedCrystal
_audit_creation_method	'EQeq! by Chris Wilmer'
_symmetry_space_group_name_H-M	'P1'
_symmetry_Int_Tables_number	1
_symmetry_cell_setting	triclinic
loop_
_symmetry_equiv_pos_as_xyz
  x,y,z
_cell_length_a	16.0798
_cell_length_b	22.7096
_cell_length_c	38.484
_cell_angle_alpha	90
_cell_angle_beta	90
_cell_angle_gamma	90
loop_
_atom_site_label
_atom_site_type_symbol
_atom_site_fract_x
_atom_site_fract_y
_atom_site_fract_z
_atom_site_charge
Mof_Yb	Yb	0.25	0.5	0.53258	2.045
Mof_Yb	Yb	0.25	0	0.96742	1.888
Mof_Yb	Yb	0.75	0.5	0.46742	2.041
Mof_Yb	Yb	0.75	4.49076e-34	0.03258	1.848
Mof_Yb	Yb	0.5	0.5	0.5	2.097
Mof_Yb	Yb	-9.8837e-33	0.5	0.5	2.042
Mof_Yb	Yb	-0	0	-0	1.831
Mof_Yb	Yb	0.5	0	-0	1.882
Mof_H 	H 	0.4371	0.6407	0.4249	-0.02
Mof_H 	H 	0.3935	0.7037	0.3811	0.118
Mof_H 	H 	0.1553	0.672	0.4066	0.116
Mof_H 	H 	0.199	0.6089	0.4504	-0.025
Mof_H 	H 	0.2941	0.7429	0.3442	0.097
Mof_H 	H 	0.1344	0.7317	0.361	0.033
Mof_H 	H 	0.9914	0.816	0.2727	0.096
Mof_H 	H 	0.2724	0.7962	0.2974	0.089
Mof_H 	H 	0.8754	0.7554	0.3374	0.121
Mof_H 	H 	0.8966	0.7805	0.3005	0.113
Mof_H 	H 	0.9103	0.8195	0.3336	0.123
Mof_H 	H 	0.1284	0.8619	0.2043	0.035
Mof_H 	H 	0.968	0.858	0.2218	0.118
Mof_H 	H 	0.8854	0.9011	0.1854	0.103
Mof_H 	H 	0.8376	0.9349	0.1311	0.014
Mof_H 	H 	0.0691	0.9285	0.0965	-0.006
Mof_H 	H 	0.113	0.8933	0.1488	0.121
Mof_H 	H 	0.4633	0.3578	0.481	-0.02
Mof_H 	H 	0.5088	0.2619	0.4726	0.096
Mof_H 	H 	0.3859	0.2111	0.5584	0.093
Mof_H 	H 	0.3405	0.3069	0.5668	0.001
Mof_H 	H 	0.5139	0.1607	0.488	0.058
Mof_H 	H 	0.4077	0.12	0.5338	0.069
Mof_H 	H 	0.5506	0.0768	0.4677	0.133
Mof_H 	H 	0.3423	0.0001	0.598	-0.068
Mof_H 	H 	0.3495	0.9507	0.5697	-0.001
Mof_H 	H 	0.4263	0.9661	0.5931	0.004
Mof_H 	H 	0.0629	0.3593	0.4249	-0.023
Mof_H 	H 	0.1065	0.2963	0.3811	0.107
Mof_H 	H 	0.3447	0.328	0.4066	0.114
Mof_H 	H 	0.301	0.3911	0.4504	-0.023
Mof_H 	H 	0.2059	0.2571	0.3442	0.086
Mof_H 	H 	0.3656	0.2683	0.361	0.038
Mof_H 	H 	0.5086	0.184	0.2727	0.058
Mof_H 	H 	0.2276	0.2038	0.2974	0.086
Mof_H 	H 	0.6246	0.2446	0.3374	0.115
Mof_H 	H 	0.6034	0.2195	0.3005	0.107
Mof_H 	H 	0.5897	0.1805	0.3336	0.106
Mof_H 	H 	0.3716	0.1381	0.2043	0.02
Mof_H 	H 	0.532	0.142	0.2218	0.102
Mof_H 	H 	0.6146	0.0989	0.1854	0.118
Mof_H 	H 	0.6624	0.0651	0.1311	-0.033
Mof_H 	H 	0.4309	0.0715	0.0965	-0.055
Mof_H 	H 	0.387	0.1067	0.1488	0.14
Mof_H 	H 	0.0367	0.6422	0.481	-0.067
Mof_H 	H 	0.9912	0.7381	0.4726	0.178
Mof_H 	H 	0.1141	0.7889	0.5584	0.152
Mof_H 	H 	0.1595	0.6931	0.5668	-0.033
Mof_H 	H 	0.9861	0.8393	0.488	0.188
Mof_H 	H 	0.0923	0.88	0.5338	-0.045
Mof_H 	H 	0.9494	0.9232	0.4677	-0.025
Mof_H 	H 	0.1577	0.9999	0.598	0.248
Mof_H 	H 	0.1505	0.0493	0.5697	0.179
Mof_H 	H 	0.0737	0.0339	0.5931	0.176
Mof_H 	H 	0.0629	0.1407	0.0751	-0.025
Mof_H 	H 	0.1065	0.2037	0.1189	0.106
Mof_H 	H 	0.3447	0.172	0.0934	0.114
Mof_H 	H 	0.301	0.1089	0.0496	-0.024
Mof_H 	H 	0.2059	0.2429	0.1558	0.087
Mof_H 	H 	0.3656	0.2317	0.139	0.039
Mof_H 	H 	0.5086	0.316	0.2273	0.06
Mof_H 	H 	0.2276	0.2962	0.2026	0.088
Mof_H 	H 	0.6246	0.2554	0.1626	0.119
Mof_H 	H 	0.6034	0.2805	0.1995	0.112
Mof_H 	H 	0.5897	0.3195	0.1664	0.116
Mof_H 	H 	0.3716	0.3619	0.2957	0.022
Mof_H 	H 	0.532	0.358	0.2782	0.106
Mof_H 	H 	0.6146	0.4011	0.3146	0.126
Mof_H 	H 	0.6624	0.4349	0.3689	-0.028
Mof_H 	H 	0.4309	0.4285	0.4035	-0.052
Mof_H 	H 	0.387	0.3933	0.3512	0.147
Mof_H 	H 	0.0367	0.8578	0.019	-0.042
Mof_H 	H 	0.9912	0.7619	0.0274	0.156
Mof_H 	H 	0.1141	0.7111	0.9416	0.126
Mof_H 	H 	0.1595	0.8069	0.9332	-0.012
Mof_H 	H 	0.9861	0.6607	0.012	0.127
Mof_H 	H 	0.0923	0.62	0.9662	0.008
Mof_H 	H 	0.9494	0.5768	0.0323	0.052
Mof_H 	H 	0.1577	0.5001	0.902	0.088
Mof_H 	H 	0.1505	0.4507	0.9303	0.088
Mof_H 	H 	0.0737	0.4661	0.9069	0.087
Mof_H 	H 	0.4371	0.8593	0.0751	-0.008
Mof_H 	H 	0.3935	0.7963	0.1189	0.113
Mof_H 	H 	0.1553	0.828	0.0934	0.11
Mof_H 	H 	0.199	0.8911	0.0496	-0.014
Mof_H 	H 	0.2941	0.7571	0.1558	0.093
Mof_H 	H 	0.1344	0.7683	0.139	0.034
Mof_H 	H 	0.9914	0.684	0.2273	0.093
Mof_H 	H 	0.2724	0.7038	0.2026	0.088
Mof_H 	H 	0.8754	0.7446	0.1626	0.117
Mof_H 	H 	0.8966	0.7195	0.1995	0.108
Mof_H 	H 	0.9103	0.6805	0.1664	0.113
Mof_H 	H 	0.1284	0.6381	0.2957	0.029
Mof_H 	H 	0.968	0.642	0.2782	0.119
Mof_H 	H 	0.8854	0.5989	0.3146	0.101
Mof_H 	H 	0.8376	0.5651	0.3689	-0.003
Mof_H 	H 	0.0691	0.5715	0.4035	-0.022
Mof_H 	H 	0.113	0.6067	0.3512	0.121
Mof_H 	H 	0.4633	0.1422	0.019	-0.014
Mof_H 	H 	0.5088	0.2381	0.0274	0.102
Mof_H 	H 	0.3859	0.2889	0.9416	0.098
Mof_H 	H 	0.3405	0.1931	0.9332	0.002
Mof_H 	H 	0.5139	0.3393	0.012	0.058
Mof_H 	H 	0.4077	0.38	0.9662	0.056
Mof_H 	H 	0.5506	0.4232	0.0323	0.096
Mof_H 	H 	0.3423	0.4999	0.902	0.098
Mof_H 	H 	0.3495	0.5493	0.9303	0.099
Mof_H 	H 	0.4263	0.5339	0.9069	0.101
Mof_H 	H 	0.5629	0.3593	0.5751	-0.017
Mof_H 	H 	0.6065	0.2963	0.6189	0.11
Mof_H 	H 	0.8447	0.328	0.5934	0.115
Mof_H 	H 	0.801	0.3911	0.5496	-0.02
Mof_H 	H 	0.7059	0.2571	0.6558	0.085
Mof_H 	H 	0.8656	0.2683	0.639	0.043
Mof_H 	H 	0.0086	0.184	0.7273	0.023
Mof_H 	H 	0.7276	0.2038	0.7026	0.093
Mof_H 	H 	0.1246	0.2446	0.6626	0.119
Mof_H 	H 	0.1034	0.2195	0.6995	0.112
Mof_H 	H 	0.0897	0.1805	0.6664	0.11
Mof_H 	H 	0.8716	0.1381	0.7957	0.014
Mof_H 	H 	0.032	0.142	0.7782	0.087
Mof_H 	H 	0.1146	0.0989	0.8146	0.142
Mof_H 	H 	0.1624	0.0651	0.8689	-0.058
Mof_H 	H 	0.9309	0.0715	0.9035	-0.083
Mof_H 	H 	0.887	0.1067	0.8512	0.165
Mof_H 	H 	0.5367	0.6422	0.519	-0.035
Mof_H 	H 	0.4912	0.7381	0.5274	0.122
Mof_H 	H 	0.6141	0.7889	0.4416	0.125
Mof_H 	H 	0.6595	0.6931	0.4332	-0.011
Mof_H 	H 	0.4861	0.8393	0.512	0.12
Mof_H 	H 	0.5923	0.88	0.4662	0.003
Mof_H 	H 	0.4494	0.9232	0.5323	0.017
Mof_H 	H 	0.6577	0.9999	0.402	0.257
Mof_H 	H 	0.6505	0.0493	0.4303	0.189
Mof_H 	H 	0.5737	0.0339	0.4069	0.189
Mof_H 	H 	0.9371	0.6407	0.5751	-0.012
Mof_H 	H 	0.8935	0.7037	0.6189	0.119
Mof_H 	H 	0.6553	0.672	0.5934	0.116
Mof_H 	H 	0.699	0.6089	0.5496	-0.022
Mof_H 	H 	0.7941	0.7429	0.6558	0.095
Mof_H 	H 	0.6344	0.7317	0.639	0.039
Mof_H 	H 	0.4914	0.816	0.7273	0.064
Mof_H 	H 	0.7724	0.7962	0.7026	0.095
Mof_H 	H 	0.3754	0.7554	0.6626	0.125
Mof_H 	H 	0.3966	0.7805	0.6995	0.117
Mof_H 	H 	0.4103	0.8195	0.6664	0.127
Mof_H 	H 	0.6284	0.8619	0.7957	0.03
Mof_H 	H 	0.468	0.858	0.7782	0.104
Mof_H 	H 	0.3854	0.9011	0.8146	0.126
Mof_H 	H 	0.3376	0.9349	0.8689	-0.01
Mof_H 	H 	0.5691	0.9285	0.9035	-0.034
Mof_H 	H 	0.613	0.8933	0.8512	0.145
Mof_H 	H 	0.9633	0.3578	0.519	0.017
Mof_H 	H 	0.0088	0.2619	0.5274	0.036
Mof_H 	H 	0.8859	0.2111	0.4416	0.064
Mof_H 	H 	0.8405	0.3069	0.4332	0.025
Mof_H 	H 	0.0139	0.1607	0.512	-0.014
Mof_H 	H 	0.9077	0.12	0.4662	0.119
Mof_H 	H 	0.0506	0.0768	0.5323	0.177
Mof_H 	H 	0.8423	0.0001	0.402	-0.055
Mof_H 	H 	0.8495	0.9507	0.4303	0.012
Mof_H 	H 	0.9263	0.9661	0.4069	0.019
Mof_H 	H 	0.9371	0.8593	0.9249	0.001
Mof_H 	H 	0.8935	0.7963	0.8811	0.114
Mof_H 	H 	0.6553	0.828	0.9066	0.11
Mof_H 	H 	0.699	0.8911	0.9504	-0.007
Mof_H 	H 	0.7941	0.7571	0.8442	0.091
Mof_H 	H 	0.6344	0.7683	0.861	0.041
Mof_H 	H 	0.4914	0.684	0.7727	0.06
Mof_H 	H 	0.7724	0.7038	0.7974	0.095
Mof_H 	H 	0.3754	0.7446	0.8374	0.121
Mof_H 	H 	0.3966	0.7195	0.8005	0.113
Mof_H 	H 	0.4103	0.6805	0.8336	0.117
Mof_H 	H 	0.6284	0.6381	0.7043	0.023
Mof_H 	H 	0.468	0.642	0.7218	0.105
Mof_H 	H 	0.3854	0.5989	0.6854	0.125
Mof_H 	H 	0.3376	0.5651	0.6311	-0.028
Mof_H 	H 	0.5691	0.5715	0.5965	-0.052
Mof_H 	H 	0.613	0.6067	0.6488	0.147
Mof_H 	H 	0.9633	0.1422	0.981	0.008
Mof_H 	H 	0.0088	0.2381	0.9726	0.054
Mof_H 	H 	0.8859	0.2889	0.0584	0.085
Mof_H 	H 	0.8405	0.1931	0.0668	0.012
Mof_H 	H 	0.0139	0.3393	0.988	0.046
Mof_H 	H 	0.9077	0.38	0.0338	0.067
Mof_H 	H 	0.0506	0.4232	0.9677	0.099
Mof_H 	H 	0.8423	0.4999	0.098	0.102
Mof_H 	H 	0.8495	0.5493	0.0697	0.101
Mof_H 	H 	0.9263	0.5339	0.0931	0.106
Mof_H 	H 	0.5629	0.1407	0.9249	-0.017
Mof_H 	H 	0.6065	0.2037	0.8811	0.108
Mof_H 	H 	0.8447	0.172	0.9066	0.114
Mof_H 	H 	0.801	0.1089	0.9504	-0.017
Mof_H 	H 	0.7059	0.2429	0.8442	0.085
Mof_H 	H 	0.8656	0.2317	0.861	0.045
Mof_H 	H 	0.0086	0.316	0.7727	0.026
Mof_H 	H 	0.7276	0.2962	0.7974	0.095
Mof_H 	H 	0.1246	0.2554	0.8374	0.124
Mof_H 	H 	0.1034	0.2805	0.8005	0.117
Mof_H 	H 	0.0897	0.3195	0.8336	0.12
Mof_H 	H 	0.8716	0.3619	0.7043	0.017
Mof_H 	H 	0.032	0.358	0.7218	0.091
Mof_H 	H 	0.1146	0.4011	0.6854	0.15
Mof_H 	H 	0.1624	0.4349	0.6311	-0.051
Mof_H 	H 	0.9309	0.4285	0.5965	-0.081
Mof_H 	H 	0.887	0.3933	0.6488	0.172
Mof_H 	H 	0.5367	0.8578	0.981	-0.024
Mof_H 	H 	0.4912	0.7619	0.9726	0.111
Mof_H 	H 	0.6141	0.7111	0.0584	0.114
Mof_H 	H 	0.6595	0.8069	0.0668	-0.004
Mof_H 	H 	0.4861	0.6607	0.988	0.116
Mof_H 	H 	0.5923	0.62	0.0338	0.018
Mof_H 	H 	0.4494	0.5768	0.9677	0.055
Mof_H 	H 	0.6577	0.5001	0.098	0.092
Mof_H 	H 	0.6505	0.4507	0.0697	0.09
Mof_H 	H 	0.5737	0.4661	0.0931	0.092
Mof_C 	C 	0.3476	0.5756	0.46952	0.581
Mof_C 	C 	0.3224	0.6185	0.442	-0.266
Mof_C 	C 	0.3806	0.6469	0.4212	0.175
Mof_C 	C 	0.3545	0.6847	0.395	-0.239
Mof_C 	C 	0.2701	0.6941	0.3895	0.187
Mof_C 	C 	0.2118	0.6657	0.4103	-0.241
Mof_C 	C 	0.238	0.6279	0.4365	0.174
Mof_C 	C 	0.2494	0.7298	0.3574	-0.17
Mof_C 	C 	0.1787	0.7433	0.347	0.03
Mof_C 	C 	0.1571	0.776	0.3147	-0.01
Mof_C 	C 	0.0729	0.782	0.3073	0.115
Mof_C 	C 	0.0477	0.812	0.2776	-0.138
Mof_C 	C 	0.1067	0.8362	0.2554	-0.012
Mof_C 	C 	0.1909	0.8302	0.2628	0.133
Mof_C 	C 	0.2161	0.8002	0.2925	-0.111
Mof_C 	C 	0.9127	0.7802	0.3245	-0.264
Mof_C 	C 	0.0845	0.8567	0.2197	0.054
Mof_C 	C 	0.0145	0.8674	0.2086	-0.202
Mof_C 	C 	0.004	0.8959	0.1732	0.178
Mof_C 	C 	0.9232	0.9068	0.1674	-0.179
Mof_C 	C 	0.8937	0.9268	0.1345	0.122
Mof_C 	C 	0.9505	0.9338	0.10789	-0.196
Mof_C 	C 	0.0305	0.9226	0.1141	0.138
Mof_C 	C 	0.0571	0.9026	0.1458	-0.224
Mof_C 	C 	0.9185	0.9535	0.07321	0.516
Mof_C 	C 	0.3638	0.4016	0.52909	0.454
Mof_C 	C 	0.3974	0.3419	0.52474	-0.211
Mof_C 	C 	0.4478	0.3284	0.4965	0.13
Mof_C 	C 	0.4751	0.271	0.4915	-0.197
Mof_C 	C 	0.4519	0.227	0.5146	0.129
Mof_C 	C 	0.4015	0.2405	0.5429	-0.189
Mof_C 	C 	0.3742	0.2979	0.54792	0.117
Mof_C 	C 	0.4744	0.1643	0.5055	-0.092
Mof_C 	C 	0.4495	0.1174	0.5172	-0.074
Mof_C 	C 	0.4775	0.0568	0.5083	0.111
Mof_C 	C 	0.5284	0.0457	0.4805	-0.322
Mof_C 	C 	0.4536	0.0112	0.5285	-0.018
Mof_C 	C 	0.379	0.9819	0.5813	0.174
Mof_C 	C 	0.1524	0.4244	0.46952	0.578
Mof_C 	C 	0.1776	0.3815	0.442	-0.265
Mof_C 	C 	0.1194	0.3531	0.4212	0.169
Mof_C 	C 	0.1455	0.3153	0.395	-0.234
Mof_C 	C 	0.2299	0.3059	0.3895	0.175
Mof_C 	C 	0.2882	0.3343	0.4103	-0.236
Mof_C 	C 	0.262	0.3721	0.4365	0.169
Mof_C 	C 	0.2506	0.2702	0.3574	-0.16
Mof_C 	C 	0.3213	0.2567	0.347	0.011
Mof_C 	C 	0.3429	0.224	0.3147	0.003
Mof_C 	C 	0.4271	0.218	0.3073	0.088
Mof_C 	C 	0.4523	0.188	0.2776	-0.083
Mof_C 	C 	0.3933	0.1638	0.2554	-0.048
Mof_C 	C 	0.3091	0.1698	0.2628	0.143
Mof_C 	C 	0.2839	0.1998	0.2925	-0.132
Mof_C 	C 	0.5873	0.2198	0.3245	-0.271
Mof_C 	C 	0.4155	0.1433	0.2197	0.071
Mof_C 	C 	0.4855	0.1326	0.2086	-0.216
Mof_C 	C 	0.496	0.1041	0.1732	0.244
Mof_C 	C 	0.5768	0.0932	0.1674	-0.278
Mof_C 	C 	0.6063	0.0732	0.1345	0.192
Mof_C 	C 	0.5495	0.0662	0.10789	-0.302
Mof_C 	C 	0.4695	0.0774	0.1141	0.242
Mof_C 	C 	0.4429	0.0974	0.1458	-0.314
Mof_C 	C 	0.5815	0.0465	0.07321	0.55
Mof_C 	C 	0.1362	0.5984	0.52909	0.481
Mof_C 	C 	0.1026	0.6581	0.52474	-0.293
Mof_C 	C 	0.0522	0.6716	0.4965	0.251
Mof_C 	C 	0.0249	0.729	0.4915	-0.377
Mof_C 	C 	0.0481	0.773	0.5146	0.319
Mof_C 	C 	0.0985	0.7595	0.5429	-0.326
Mof_C 	C 	0.1258	0.7021	0.54792	0.22
Mof_C 	C 	0.0256	0.8357	0.5055	-0.408
Mof_C 	C 	0.0505	0.8826	0.5172	0.281
Mof_C 	C 	0.0225	0.9432	0.5083	-0.281
Mof_C 	C 	0.9716	0.9543	0.4805	0.203
Mof_C 	C 	0.0464	0.9888	0.5285	0.384
Mof_C 	C 	0.121	0.0181	0.5813	-0.559
Mof_C 	C 	0.1524	0.0756	0.03048	0.556
Mof_C 	C 	0.1776	0.1185	0.058	-0.263
Mof_C 	C 	0.1194	0.1469	0.0788	0.162
Mof_C 	C 	0.1455	0.1847	0.105	-0.234
Mof_C 	C 	0.2299	0.1941	0.1105	0.174
Mof_C 	C 	0.2882	0.1657	0.0897	-0.236
Mof_C 	C 	0.262	0.1279	0.0635	0.162
Mof_C 	C 	0.2506	0.2298	0.1426	-0.16
Mof_C 	C 	0.3213	0.2433	0.153	0.012
Mof_C 	C 	0.3429	0.276	0.1853	0.005
Mof_C 	C 	0.4271	0.282	0.1927	0.09
Mof_C 	C 	0.4523	0.312	0.2224	-0.081
Mof_C 	C 	0.3933	0.3362	0.2446	-0.043
Mof_C 	C 	0.3091	0.3302	0.2372	0.145
Mof_C 	C 	0.2839	0.3002	0.2075	-0.129
Mof_C 	C 	0.5873	0.2802	0.1755	-0.281
Mof_C 	C 	0.4155	0.3567	0.2803	0.075
Mof_C 	C 	0.4855	0.3674	0.2914	-0.216
Mof_C 	C 	0.496	0.3959	0.3268	0.255
Mof_C 	C 	0.5768	0.4068	0.3326	-0.281
Mof_C 	C 	0.6063	0.4268	0.3655	0.203
Mof_C 	C 	0.5495	0.4338	0.39211	-0.308
Mof_C 	C 	0.4695	0.4226	0.3859	0.254
Mof_C 	C 	0.4429	0.4026	0.3542	-0.319
Mof_C 	C 	0.5815	0.4535	0.42679	0.574
Mof_C 	C 	0.1362	0.9016	0.97091	0.445
Mof_C 	C 	0.1026	0.8419	0.97526	-0.231
Mof_C 	C 	0.0522	0.8284	0.0035	0.184
Mof_C 	C 	0.0249	0.771	0.0085	-0.325
Mof_C 	C 	0.0481	0.727	0.9854	0.248
Mof_C 	C 	0.0985	0.7405	0.9571	-0.265
Mof_C 	C 	0.1258	0.7979	0.95208	0.166
Mof_C 	C 	0.0256	0.6643	0.9945	-0.264
Mof_C 	C 	0.0505	0.6174	0.9828	0.114
Mof_C 	C 	0.0225	0.5568	0.9917	-0.091
Mof_C 	C 	0.9716	0.5457	0.0195	-0.054
Mof_C 	C 	0.0464	0.5112	0.9715	0.187
Mof_C 	C 	0.121	0.4819	0.9187	-0.189
Mof_C 	C 	0.3476	0.9244	0.03048	0.553
Mof_C 	C 	0.3224	0.8815	0.058	-0.241
Mof_C 	C 	0.3806	0.8531	0.0788	0.16
Mof_C 	C 	0.3545	0.8153	0.105	-0.223
Mof_C 	C 	0.2701	0.8059	0.1105	0.175
Mof_C 	C 	0.2118	0.8343	0.0897	-0.226
Mof_C 	C 	0.238	0.8721	0.0635	0.158
Mof_C 	C 	0.2494	0.7702	0.1426	-0.162
Mof_C 	C 	0.1787	0.7567	0.153	0.022
Mof_C 	C 	0.1571	0.724	0.1853	-0.008
Mof_C 	C 	0.0729	0.718	0.1927	0.11
Mof_C 	C 	0.0477	0.688	0.2224	-0.136
Mof_C 	C 	0.1067	0.6638	0.2446	-0.022
Mof_C 	C 	0.1909	0.6698	0.2372	0.134
Mof_C 	C 	0.2161	0.6998	0.2075	-0.117
Mof_C 	C 	0.9127	0.7198	0.1755	-0.254
Mof_C 	C 	0.0845	0.6433	0.2803	0.06
Mof_C 	C 	0.0145	0.6326	0.2914	-0.216
Mof_C 	C 	0.004	0.6041	0.3268	0.185
Mof_C 	C 	0.9232	0.5932	0.3326	-0.197
Mof_C 	C 	0.8937	0.5732	0.3655	0.136
Mof_C 	C 	0.9505	0.5662	0.39211	-0.226
Mof_C 	C 	0.0305	0.5774	0.3859	0.156
Mof_C 	C 	0.0571	0.5974	0.3542	-0.245
Mof_C 	C 	0.9185	0.5465	0.42679	0.545
Mof_C 	C 	0.3638	0.0984	0.97091	0.44
Mof_C 	C 	0.3974	0.1581	0.97526	-0.192
Mof_C 	C 	0.4478	0.1716	0.0035	0.115
Mof_C 	C 	0.4751	0.229	0.0085	-0.21
Mof_C 	C 	0.4519	0.273	0.9854	0.15
Mof_C 	C 	0.4015	0.2595	0.9571	-0.193
Mof_C 	C 	0.3742	0.2021	0.95208	0.115
Mof_C 	C 	0.4744	0.3357	0.9945	-0.101
Mof_C 	C 	0.4495	0.3826	0.9828	-0.029
Mof_C 	C 	0.4775	0.4432	0.9917	0.046
Mof_C 	C 	0.5284	0.4543	0.0195	-0.187
Mof_C 	C 	0.4536	0.4888	0.9715	0.092
Mof_C 	C 	0.379	0.5181	0.9187	-0.22
Mof_C 	C 	0.6524	0.4244	0.53048	0.579
Mof_C 	C 	0.6776	0.3815	0.558	-0.262
Mof_C 	C 	0.6194	0.3531	0.5788	0.167
Mof_C 	C 	0.6455	0.3153	0.605	-0.23
Mof_C 	C 	0.7299	0.3059	0.6105	0.173
Mof_C 	C 	0.7882	0.3343	0.5897	-0.233
Mof_C 	C 	0.762	0.3721	0.5635	0.167
Mof_C 	C 	0.7506	0.2702	0.6426	-0.151
Mof_C 	C 	0.8213	0.2567	0.653	0.001
Mof_C 	C 	0.8429	0.224	0.6853	0.02
Mof_C 	C 	0.9271	0.218	0.6927	0.065
Mof_C 	C 	0.9523	0.188	0.7224	-0.024
Mof_C 	C 	0.8933	0.1638	0.7446	-0.07
Mof_C 	C 	0.8091	0.1698	0.7372	0.156
Mof_C 	C 	0.7839	0.1998	0.7075	-0.145
Mof_C 	C 	0.0873	0.2198	0.6755	-0.3
Mof_C 	C 	0.9155	0.1433	0.7803	0.085
Mof_C 	C 	0.9855	0.1326	0.7914	-0.213
Mof_C 	C 	0.996	0.1041	0.8268	0.314
Mof_C 	C 	0.0768	0.0932	0.8326	-0.363
Mof_C 	C 	0.1063	0.0732	0.8655	0.258
Mof_C 	C 	0.0495	0.0662	0.89211	-0.382
Mof_C 	C 	0.9695	0.0774	0.8859	0.34
Mof_C 	C 	0.9429	0.0974	0.8542	-0.387
Mof_C 	C 	0.0815	0.0465	0.92679	0.574
Mof_C 	C 	0.6362	0.5984	0.47091	0.467
Mof_C 	C 	0.6026	0.6581	0.47526	-0.242
Mof_C 	C 	0.5522	0.6716	0.5035	0.176
Mof_C 	C 	0.5249	0.729	0.5085	-0.257
Mof_C 	C 	0.5481	0.773	0.4854	0.218
Mof_C 	C 	0.5985	0.7595	0.4571	-0.249
Mof_C 	C 	0.6258	0.7021	0.45208	0.163
Mof_C 	C 	0.5256	0.8357	0.4945	-0.247
Mof_C 	C 	0.5505	0.8826	0.4828	0.14
Mof_C 	C 	0.5225	0.9432	0.4917	-0.148
Mof_C 	C 	0.4716	0.9543	0.5195	0.076
Mof_C 	C 	0.5464	0.9888	0.4715	0.291
Mof_C 	C 	0.621	0.0181	0.4187	-0.587
Mof_C 	C 	0.8476	0.5756	0.53048	0.576
Mof_C 	C 	0.8224	0.6185	0.558	-0.259
Mof_C 	C 	0.8806	0.6469	0.5788	0.172
Mof_C 	C 	0.8545	0.6847	0.605	-0.233
Mof_C 	C 	0.7701	0.6941	0.6105	0.184
Mof_C 	C 	0.7118	0.6657	0.5897	-0.237
Mof_C 	C 	0.738	0.6279	0.5635	0.17
Mof_C 	C 	0.7494	0.7298	0.6426	-0.162
Mof_C 	C 	0.6787	0.7433	0.653	0.02
Mof_C 	C 	0.6571	0.776	0.6853	0.005
Mof_C 	C 	0.5729	0.782	0.6927	0.094
Mof_C 	C 	0.5477	0.812	0.7224	-0.083
Mof_C 	C 	0.6067	0.8362	0.7446	-0.033
Mof_C 	C 	0.6909	0.8302	0.7372	0.145
Mof_C 	C 	0.7161	0.8002	0.7075	-0.124
Mof_C 	C 	0.4127	0.7802	0.6755	-0.292
Mof_C 	C 	0.5845	0.8567	0.7803	0.068
Mof_C 	C 	0.5145	0.8674	0.7914	-0.201
Mof_C 	C 	0.504	0.8959	0.8268	0.245
Mof_C 	C 	0.4232	0.9068	0.8326	-0.26
Mof_C 	C 	0.3937	0.9268	0.8655	0.186
Mof_C 	C 	0.4505	0.9338	0.89211	-0.273
Mof_C 	C 	0.5305	0.9226	0.8859	0.233
Mof_C 	C 	0.5571	0.9026	0.8542	-0.294
Mof_C 	C 	0.4185	0.9535	0.92679	0.545
Mof_C 	C 	0.8638	0.4016	0.47091	0.432
Mof_C 	C 	0.8974	0.3419	0.47526	-0.152
Mof_C 	C 	0.9478	0.3284	0.5035	0.046
Mof_C 	C 	0.9751	0.271	0.5085	-0.067
Mof_C 	C 	0.9519	0.227	0.4854	0.021
Mof_C 	C 	0.9015	0.2405	0.4571	-0.105
Mof_C 	C 	0.8742	0.2979	0.45208	0.052
Mof_C 	C 	0.9744	0.1643	0.4945	0.078
Mof_C 	C 	0.9495	0.1174	0.4828	-0.222
Mof_C 	C 	0.9775	0.0568	0.4917	0.249
Mof_C 	C 	0.0284	0.0457	0.5195	-0.455
Mof_C 	C 	0.9536	0.0112	0.4715	-0.109
Mof_C 	C 	0.879	0.9819	0.4187	0.135
Mof_C 	C 	0.8476	0.9244	0.96952	0.544
Mof_C 	C 	0.8224	0.8815	0.942	-0.228
Mof_C 	C 	0.8806	0.8531	0.9212	0.154
Mof_C 	C 	0.8545	0.8153	0.895	-0.213
Mof_C 	C 	0.7701	0.8059	0.8895	0.17
Mof_C 	C 	0.7118	0.8343	0.9103	-0.217
Mof_C 	C 	0.738	0.8721	0.9365	0.151
Mof_C 	C 	0.7494	0.7702	0.8574	-0.15
Mof_C 	C 	0.6787	0.7567	0.847	0.01
Mof_C 	C 	0.6571	0.724	0.8147	0.009
Mof_C 	C 	0.5729	0.718	0.8073	0.089
Mof_C 	C 	0.5477	0.688	0.7776	-0.08
Mof_C 	C 	0.6067	0.6638	0.7554	-0.044
Mof_C 	C 	0.6909	0.6698	0.7628	0.147
Mof_C 	C 	0.7161	0.6998	0.7925	-0.13
Mof_C 	C 	0.4127	0.7198	0.8245	-0.283
Mof_C 	C 	0.5845	0.6433	0.7197	0.075
Mof_C 	C 	0.5145	0.6326	0.7086	-0.216
Mof_C 	C 	0.504	0.6041	0.6732	0.255
Mof_C 	C 	0.4232	0.5932	0.6674	-0.281
Mof_C 	C 	0.3937	0.5732	0.6345	0.203
Mof_C 	C 	0.4505	0.5662	0.60789	-0.307
Mof_C 	C 	0.5305	0.5774	0.6141	0.254
Mof_C 	C 	0.5571	0.5974	0.6458	-0.318
Mof_C 	C 	0.4185	0.5465	0.57321	0.574
Mof_C 	C 	0.8638	0.0984	0.02909	0.433
Mof_C 	C 	0.8974	0.1581	0.02474	-0.186
Mof_C 	C 	0.9478	0.1716	0.9965	0.093
Mof_C 	C 	0.9751	0.229	0.9915	-0.103
Mof_C 	C 	0.9519	0.273	0.0146	0.081
Mof_C 	C 	0.9015	0.2595	0.0429	-0.152
Mof_C 	C 	0.8742	0.2021	0.04792	0.089
Mof_C 	C 	0.9744	0.3357	0.0055	-0.061
Mof_C 	C 	0.9495	0.3826	0.0172	-0.059
Mof_C 	C 	0.9775	0.4432	0.0083	0.057
Mof_C 	C 	0.0284	0.4543	0.9805	-0.194
Mof_C 	C 	0.9536	0.4888	0.0285	0.085
Mof_C 	C 	0.879	0.5181	0.0813	-0.227
Mof_C 	C 	0.6524	0.0756	0.96952	0.552
Mof_C 	C 	0.6776	0.1185	0.942	-0.252
Mof_C 	C 	0.6194	0.1469	0.9212	0.157
Mof_C 	C 	0.6455	0.1847	0.895	-0.226
Mof_C 	C 	0.7299	0.1941	0.8895	0.169
Mof_C 	C 	0.7882	0.1657	0.9103	-0.228
Mof_C 	C 	0.762	0.1279	0.9365	0.157
Mof_C 	C 	0.7506	0.2298	0.8574	-0.149
Mof_C 	C 	0.8213	0.2433	0.847	0.001
Mof_C 	C 	0.8429	0.276	0.8147	0.022
Mof_C 	C 	0.9271	0.282	0.8073	0.067
Mof_C 	C 	0.9523	0.312	0.7776	-0.023
Mof_C 	C 	0.8933	0.3362	0.7554	-0.065
Mof_C 	C 	0.8091	0.3302	0.7628	0.158
Mof_C 	C 	0.7839	0.3002	0.7925	-0.142
Mof_C 	C 	0.0873	0.2802	0.8245	-0.311
Mof_C 	C 	0.9155	0.3567	0.7197	0.089
Mof_C 	C 	0.9855	0.3674	0.7086	-0.213
Mof_C 	C 	0.996	0.3959	0.6732	0.324
Mof_C 	C 	0.0768	0.4068	0.6674	-0.364
Mof_C 	C 	0.1063	0.4268	0.6345	0.267
Mof_C 	C 	0.0495	0.4338	0.60789	-0.385
Mof_C 	C 	0.9695	0.4226	0.6141	0.351
Mof_C 	C 	0.9429	0.4026	0.6458	-0.39
Mof_C 	C 	0.0815	0.4535	0.57321	0.597
Mof_C 	C 	0.6362	0.9016	0.02909	0.446
Mof_C 	C 	0.6026	0.8419	0.02474	-0.231
Mof_C 	C 	0.5522	0.8284	0.9965	0.167
Mof_C 	C 	0.5249	0.771	0.9915	-0.225
Mof_C 	C 	0.5481	0.727	0.0146	0.184
Mof_C 	C 	0.5985	0.7405	0.0429	-0.228
Mof_C 	C 	0.6258	0.7979	0.04792	0.145
Mof_C 	C 	0.5256	0.6643	0.0055	-0.228
Mof_C 	C 	0.5505	0.6174	0.0172	0.087
Mof_C 	C 	0.5225	0.5568	0.0083	-0.081
Mof_C 	C 	0.4716	0.5457	0.9805	-0.06
Mof_C 	C 	0.5464	0.5112	0.0285	0.18
Mof_C 	C 	0.621	0.4819	0.0813	-0.197
Mof_O 	O 	0.0073	0.755	0.328	-0.173
Mof_O 	O 	0.2529	0.8542	0.2412	-0.173
Mof_O 	O 	0.4057	0.0263	0.5556	-0.245
Mof_O 	O 	0.2965	0.5583	0.49106	-0.596
Mof_O 	O 	0.4235	0.5609	0.46973	-0.591
Mof_O 	O 	0.844	0.9672	0.06993	-0.496
Mof_O 	O 	0.9716	0.9545	0.04871	-0.505
Mof_O 	O 	0.3886	0.4446	0.51021	-0.614
Mof_O 	O 	0.306	0.4099	0.55051	-0.464
Mof_O 	O 	0.4927	0.245	0.328	-0.16
Mof_O 	O 	0.2471	0.1458	0.2412	-0.201
Mof_O 	O 	0.0943	0.9737	0.5556	-0.146
Mof_O 	O 	0.2035	0.4417	0.49106	-0.595
Mof_O 	O 	0.0765	0.4391	0.46973	-0.59
Mof_O 	O 	0.656	0.0328	0.06993	-0.557
Mof_O 	O 	0.5284	0.0455	0.04871	-0.571
Mof_O 	O 	0.1114	0.5554	0.51021	-0.618
Mof_O 	O 	0.194	0.5901	0.55051	-0.47
Mof_O 	O 	0.4927	0.255	0.172	-0.157
Mof_O 	O 	0.2471	0.3542	0.2588	-0.19
Mof_O 	O 	0.0943	0.5263	0.9444	-0.197
Mof_O 	O 	0.2035	0.0583	0.00894	-0.587
Mof_O 	O 	0.0765	0.0609	0.03027	-0.576
Mof_O 	O 	0.656	0.4672	0.43007	-0.569
Mof_O 	O 	0.5284	0.4545	0.45129	-0.59
Mof_O 	O 	0.1114	0.9446	0.98979	-0.537
Mof_O 	O 	0.194	0.9099	0.94949	-0.426
Mof_O 	O 	0.0073	0.745	0.172	-0.176
Mof_O 	O 	0.2529	0.6458	0.2588	-0.185
Mof_O 	O 	0.4057	0.4737	0.9444	-0.169
Mof_O 	O 	0.2965	0.9417	0.00894	-0.547
Mof_O 	O 	0.4235	0.9391	0.03027	-0.531
Mof_O 	O 	0.844	0.5328	0.43007	-0.558
Mof_O 	O 	0.9716	0.5455	0.45129	-0.562
Mof_O 	O 	0.3886	0.0554	0.98979	-0.589
Mof_O 	O 	0.306	0.0901	0.94949	-0.453
Mof_O 	O 	0.9927	0.245	0.672	-0.14
Mof_O 	O 	0.7471	0.1458	0.7588	-0.2
Mof_O 	O 	0.5943	0.9737	0.4444	-0.118
Mof_O 	O 	0.7035	0.4417	0.50894	-0.595
Mof_O 	O 	0.5765	0.4391	0.53027	-0.591
Mof_O 	O 	0.156	0.0328	0.93007	-0.567
Mof_O 	O 	0.0284	0.0455	0.95129	-0.575
Mof_O 	O 	0.6114	0.5554	0.48979	-0.617
Mof_O 	O 	0.694	0.5901	0.44949	-0.465
Mof_O 	O 	0.5073	0.755	0.672	-0.154
Mof_O 	O 	0.7529	0.8542	0.7588	-0.173
Mof_O 	O 	0.9057	0.0263	0.4444	-0.215
Mof_O 	O 	0.7965	0.5583	0.50894	-0.592
Mof_O 	O 	0.9235	0.5609	0.53027	-0.573
Mof_O 	O 	0.344	0.9672	0.93007	-0.509
Mof_O 	O 	0.4716	0.9545	0.95129	-0.525
Mof_O 	O 	0.8886	0.4446	0.48979	-0.596
Mof_O 	O 	0.806	0.4099	0.44949	-0.456
Mof_O 	O 	0.5073	0.745	0.828	-0.156
Mof_O 	O 	0.7529	0.6458	0.7412	-0.184
Mof_O 	O 	0.9057	0.4737	0.0556	-0.165
Mof_O 	O 	0.7965	0.9417	0.99106	-0.525
Mof_O 	O 	0.9235	0.9391	0.96973	-0.506
Mof_O 	O 	0.344	0.5328	0.56993	-0.568
Mof_O 	O 	0.4716	0.5455	0.54871	-0.589
Mof_O 	O 	0.8886	0.0554	0.01021	-0.586
Mof_O 	O 	0.806	0.0901	0.05051	-0.449
Mof_O 	O 	0.9927	0.255	0.828	-0.136
Mof_O 	O 	0.7471	0.3542	0.7412	-0.19
Mof_O 	O 	0.5943	0.5263	0.0556	-0.193
Mof_O 	O 	0.7035	0.0583	0.99106	-0.567
Mof_O 	O 	0.5765	0.0609	0.96973	-0.567
Mof_O 	O 	0.156	0.4672	0.56993	-0.576
Mof_O 	O 	0.0284	0.4545	0.54871	-0.599
Mof_O 	O 	0.6114	0.9446	0.01021	-0.55
Mof_O 	O 	0.694	0.9099	0.05051	-0.424
_end
