# CIF file generated by openbabel 3.1.0, see https://openbabel.org
data_I
_chemical_name_common 'image0'
_cell_length_a 18.5728
_cell_length_b 18.5728
_cell_length_c 18.5728
_cell_angle_alpha 90
_cell_angle_beta 90
_cell_angle_gamma 90
_space_group_name_H-M_alt 'P 1'
_space_group_name_Hall 'P 1'
loop_
    _symmetry_equiv_pos_as_xyz
    x,y,z
loop_
    _atom_site_label
    _atom_site_type_symbol
    _atom_site_fract_x
    _atom_site_fract_y
    _atom_site_fract_z
    _atom_site_occupancy
    Ce1      Ce       0.39290    0.25980    0.24410    1.000
    O1       O        0.32250    0.32250    0.17750    1.000
    O2       O        0.45200    0.27300    0.12800    1.000
    O3       O        0.35700    0.25700    0.05300    1.000
    C1       C        0.42600    0.26900    0.06400    1.000
    C2       C        0.46300    0.27400    0.00000    1.000
    O4       O        0.46960    0.25700    0.34900    1.000
    O5       O        0.38300    0.25200    0.43450    1.000
    C3       C        0.45000    0.25900    0.41900    1.000
    C4       C        0.50900    0.26700    0.46400    1.000
    Ce2      Ce       0.60710    0.74020    0.24410    1.000
    O6       O        0.67750    0.67750    0.17750    1.000
    O7       O        0.54800    0.72700    0.12800    1.000
    O8       O        0.64300    0.74300    0.05300    1.000
    C5       C        0.57400    0.73100    0.06400    1.000
    C6       C        0.53700    0.72600    0.00000    1.000
    O9       O        0.53040    0.74300    0.34900    1.000
    O10      O        0.61700    0.74800    0.43450    1.000
    C7       C        0.55000    0.74100    0.41900    1.000
    C8       C        0.49100    0.73300    0.46400    1.000
    Ce3      Ce       0.60710    0.25980    0.75590    1.000
    O11      O        0.67750    0.32250    0.82250    1.000
    O12      O        0.54800    0.27300    0.87200    1.000
    O13      O        0.64300    0.25700    0.94700    1.000
    C9       C        0.57400    0.26900    0.93600    1.000
    C10      C        0.53700    0.27400    0.00000    1.000
    O14      O        0.53040    0.25700    0.65100    1.000
    O15      O        0.61700    0.25200    0.56550    1.000
    C11      C        0.55000    0.25900    0.58100    1.000
    C12      C        0.49100    0.26700    0.53600    1.000
    Ce4      Ce       0.39290    0.74020    0.75590    1.000
    O16      O        0.32250    0.67750    0.82250    1.000
    O17      O        0.45200    0.72700    0.87200    1.000
    O18      O        0.35700    0.74300    0.94700    1.000
    C13      C        0.42600    0.73100    0.93600    1.000
    C14      C        0.46300    0.72600    0.00000    1.000
    O19      O        0.46960    0.74300    0.65100    1.000
    O20      O        0.38300    0.74800    0.56550    1.000
    C15      C        0.45000    0.74100    0.58100    1.000
    C16      C        0.50900    0.73300    0.53600    1.000
    Ce5      Ce       0.24410    0.39290    0.25980    1.000
    O21      O        0.17750    0.32250    0.32250    1.000
    O22      O        0.12800    0.45200    0.27300    1.000
    O23      O        0.05300    0.35700    0.25700    1.000
    C17      C        0.06400    0.42600    0.26900    1.000
    C18      C        0.00000    0.46300    0.27400    1.000
    O24      O        0.34900    0.46960    0.25700    1.000
    O25      O        0.43450    0.38300    0.25200    1.000
    C19      C        0.41900    0.45000    0.25900    1.000
    C20      C        0.46400    0.50900    0.26700    1.000
    Ce6      Ce       0.24410    0.60710    0.74020    1.000
    O26      O        0.17750    0.67750    0.67750    1.000
    O27      O        0.12800    0.54800    0.72700    1.000
    O28      O        0.05300    0.64300    0.74300    1.000
    C21      C        0.06400    0.57400    0.73100    1.000
    C22      C        0.00000    0.53700    0.72600    1.000
    O29      O        0.34900    0.53040    0.74300    1.000
    O30      O        0.43450    0.61700    0.74800    1.000
    C23      C        0.41900    0.55000    0.74100    1.000
    C24      C        0.46400    0.49100    0.73300    1.000
    Ce7      Ce       0.75590    0.60710    0.25980    1.000
    O31      O        0.82250    0.67750    0.32250    1.000
    O32      O        0.87200    0.54800    0.27300    1.000
    O33      O        0.94700    0.64300    0.25700    1.000
    C25      C        0.93600    0.57400    0.26900    1.000
    C26      C        0.00000    0.53700    0.27400    1.000
    O34      O        0.65100    0.53040    0.25700    1.000
    O35      O        0.56550    0.61700    0.25200    1.000
    C27      C        0.58100    0.55000    0.25900    1.000
    C28      C        0.53600    0.49100    0.26700    1.000
    Ce8      Ce       0.75590    0.39290    0.74020    1.000
    O36      O        0.82250    0.32250    0.67750    1.000
    O37      O        0.87200    0.45200    0.72700    1.000
    O38      O        0.94700    0.35700    0.74300    1.000
    C29      C        0.93600    0.42600    0.73100    1.000
    C30      C        0.00000    0.46300    0.72600    1.000
    O39      O        0.65100    0.46960    0.74300    1.000
    O40      O        0.56550    0.38300    0.74800    1.000
    C31      C        0.58100    0.45000    0.74100    1.000
    C32      C        0.53600    0.50900    0.73300    1.000
    Ce9      Ce       0.25980    0.24410    0.39290    1.000
    O41      O        0.32250    0.17750    0.32250    1.000
    O42      O        0.27300    0.12800    0.45200    1.000
    O43      O        0.25700    0.05300    0.35700    1.000
    C33      C        0.26900    0.06400    0.42600    1.000
    C34      C        0.27400    0.00000    0.46300    1.000
    O44      O        0.25700    0.34900    0.46960    1.000
    O45      O        0.25200    0.43450    0.38300    1.000
    C35      C        0.25900    0.41900    0.45000    1.000
    C36      C        0.26700    0.46400    0.50900    1.000
    Ce10     Ce       0.74020    0.24410    0.60710    1.000
    O46      O        0.67750    0.17750    0.67750    1.000
    O47      O        0.72700    0.12800    0.54800    1.000
    O48      O        0.74300    0.05300    0.64300    1.000
    C37      C        0.73100    0.06400    0.57400    1.000
    C38      C        0.72600    0.00000    0.53700    1.000
    O49      O        0.74300    0.34900    0.53040    1.000
    O50      O        0.74800    0.43450    0.61700    1.000
    C39      C        0.74100    0.41900    0.55000    1.000
    C40      C        0.73300    0.46400    0.49100    1.000
    Ce11     Ce       0.25980    0.75590    0.60710    1.000
    O51      O        0.32250    0.82250    0.67750    1.000
    O52      O        0.27300    0.87200    0.54800    1.000
    O53      O        0.25700    0.94700    0.64300    1.000
    C41      C        0.26900    0.93600    0.57400    1.000
    C42      C        0.27400    0.00000    0.53700    1.000
    O54      O        0.25700    0.65100    0.53040    1.000
    O55      O        0.25200    0.56550    0.61700    1.000
    C43      C        0.25900    0.58100    0.55000    1.000
    C44      C        0.26700    0.53600    0.49100    1.000
    Ce12     Ce       0.74020    0.75590    0.39290    1.000
    O56      O        0.67750    0.82250    0.32250    1.000
    O57      O        0.72700    0.87200    0.45200    1.000
    O58      O        0.74300    0.94700    0.35700    1.000
    C45      C        0.73100    0.93600    0.42600    1.000
    C46      C        0.72600    0.00000    0.46300    1.000
    O59      O        0.74300    0.65100    0.46960    1.000
    O60      O        0.74800    0.56550    0.38300    1.000
    C47      C        0.74100    0.58100    0.45000    1.000
    C48      C        0.73300    0.53600    0.50900    1.000
    Ce13     Ce       0.10710    0.24020    0.25590    1.000
    O61      O        0.17750    0.17750    0.32250    1.000
    O62      O        0.04800    0.22700    0.37200    1.000
    O63      O        0.14300    0.24300    0.44700    1.000
    C49      C        0.07400    0.23100    0.43600    1.000
    C50      C        0.03700    0.22600    0.50000    1.000
    O64      O        0.03040    0.24300    0.15100    1.000
    O65      O        0.11700    0.24800    0.06550    1.000
    C51      C        0.05000    0.24100    0.08100    1.000
    C52      C        0.99100    0.23300    0.03600    1.000
    Ce14     Ce       0.89290    0.75980    0.25590    1.000
    O66      O        0.82250    0.82250    0.32250    1.000
    O67      O        0.95200    0.77300    0.37200    1.000
    O68      O        0.85700    0.75700    0.44700    1.000
    C53      C        0.92600    0.76900    0.43600    1.000
    C54      C        0.96300    0.77400    0.50000    1.000
    O69      O        0.96960    0.75700    0.15100    1.000
    O70      O        0.88300    0.75200    0.06550    1.000
    C55      C        0.95000    0.75900    0.08100    1.000
    C56      C        0.00900    0.76700    0.03600    1.000
    Ce15     Ce       0.89290    0.24020    0.74410    1.000
    O71      O        0.82250    0.17750    0.67750    1.000
    O72      O        0.95200    0.22700    0.62800    1.000
    O73      O        0.85700    0.24300    0.55300    1.000
    C57      C        0.92600    0.23100    0.56400    1.000
    C58      C        0.96300    0.22600    0.50000    1.000
    O74      O        0.96960    0.24300    0.84900    1.000
    O75      O        0.88300    0.24800    0.93450    1.000
    C59      C        0.95000    0.24100    0.91900    1.000
    C60      C        0.00900    0.23300    0.96400    1.000
    Ce16     Ce       0.10710    0.75980    0.74410    1.000
    O76      O        0.17750    0.82250    0.67750    1.000
    O77      O        0.04800    0.77300    0.62800    1.000
    O78      O        0.14300    0.75700    0.55300    1.000
    C61      C        0.07400    0.76900    0.56400    1.000
    C62      C        0.03700    0.77400    0.50000    1.000
    O79      O        0.03040    0.75700    0.84900    1.000
    O80      O        0.11700    0.75200    0.93450    1.000
    C63      C        0.05000    0.75900    0.91900    1.000
    C64      C        0.99100    0.76700    0.96400    1.000
    Ce17     Ce       0.25590    0.10710    0.24020    1.000
    O81      O        0.32250    0.17750    0.17750    1.000
    O82      O        0.37200    0.04800    0.22700    1.000
    O83      O        0.44700    0.14300    0.24300    1.000
    C65      C        0.43600    0.07400    0.23100    1.000
    C66      C        0.50000    0.03700    0.22600    1.000
    O84      O        0.15100    0.03040    0.24300    1.000
    O85      O        0.06550    0.11700    0.24800    1.000
    C67      C        0.08100    0.05000    0.24100    1.000
    C68      C        0.03600    0.99100    0.23300    1.000
    Ce18     Ce       0.25590    0.89290    0.75980    1.000
    O86      O        0.32250    0.82250    0.82250    1.000
    O87      O        0.37200    0.95200    0.77300    1.000
    O88      O        0.44700    0.85700    0.75700    1.000
    C69      C        0.43600    0.92600    0.76900    1.000
    C70      C        0.50000    0.96300    0.77400    1.000
    O89      O        0.15100    0.96960    0.75700    1.000
    O90      O        0.06550    0.88300    0.75200    1.000
    C71      C        0.08100    0.95000    0.75900    1.000
    C72      C        0.03600    0.00900    0.76700    1.000
    Ce19     Ce       0.74410    0.89290    0.24020    1.000
    O91      O        0.67750    0.82250    0.17750    1.000
    O92      O        0.62800    0.95200    0.22700    1.000
    O93      O        0.55300    0.85700    0.24300    1.000
    C73      C        0.56400    0.92600    0.23100    1.000
    C74      C        0.50000    0.96300    0.22600    1.000
    O94      O        0.84900    0.96960    0.24300    1.000
    O95      O        0.93450    0.88300    0.24800    1.000
    C75      C        0.91900    0.95000    0.24100    1.000
    C76      C        0.96400    0.00900    0.23300    1.000
    Ce20     Ce       0.74410    0.10710    0.75980    1.000
    O96      O        0.67750    0.17750    0.82250    1.000
    O97      O        0.62800    0.04800    0.77300    1.000
    O98      O        0.55300    0.14300    0.75700    1.000
    C77      C        0.56400    0.07400    0.76900    1.000
    C78      C        0.50000    0.03700    0.77400    1.000
    O99      O        0.84900    0.03040    0.75700    1.000
    O100     O        0.93450    0.11700    0.75200    1.000
    C79      C        0.91900    0.05000    0.75900    1.000
    C80      C        0.96400    0.99100    0.76700    1.000
    Ce21     Ce       0.24020    0.25590    0.10710    1.000
    O101     O        0.17750    0.32250    0.17750    1.000
    O102     O        0.22700    0.37200    0.04800    1.000
    O103     O        0.24300    0.44700    0.14300    1.000
    C81      C        0.23100    0.43600    0.07400    1.000
    C82      C        0.22600    0.50000    0.03700    1.000
    O104     O        0.24300    0.15100    0.03040    1.000
    O105     O        0.24800    0.06550    0.11700    1.000
    C83      C        0.24100    0.08100    0.05000    1.000
    C84      C        0.23300    0.03600    0.99100    1.000
    Ce22     Ce       0.75980    0.25590    0.89290    1.000
    O106     O        0.82250    0.32250    0.82250    1.000
    O107     O        0.77300    0.37200    0.95200    1.000
    O108     O        0.75700    0.44700    0.85700    1.000
    C85      C        0.76900    0.43600    0.92600    1.000
    C86      C        0.77400    0.50000    0.96300    1.000
    O109     O        0.75700    0.15100    0.96960    1.000
    O110     O        0.75200    0.06550    0.88300    1.000
    C87      C        0.75900    0.08100    0.95000    1.000
    C88      C        0.76700    0.03600    0.00900    1.000
    Ce23     Ce       0.24020    0.74410    0.89290    1.000
    O111     O        0.17750    0.67750    0.82250    1.000
    O112     O        0.22700    0.62800    0.95200    1.000
    O113     O        0.24300    0.55300    0.85700    1.000
    C89      C        0.23100    0.56400    0.92600    1.000
    C90      C        0.22600    0.50000    0.96300    1.000
    O114     O        0.24300    0.84900    0.96960    1.000
    O115     O        0.24800    0.93450    0.88300    1.000
    C91      C        0.24100    0.91900    0.95000    1.000
    C92      C        0.23300    0.96400    0.00900    1.000
    Ce24     Ce       0.75980    0.74410    0.10710    1.000
    O116     O        0.82250    0.67750    0.17750    1.000
    O117     O        0.77300    0.62800    0.04800    1.000
    O118     O        0.75700    0.55300    0.14300    1.000
    C93      C        0.76900    0.56400    0.07400    1.000
    C94      C        0.77400    0.50000    0.03700    1.000
    O119     O        0.75700    0.84900    0.03040    1.000
    O120     O        0.75200    0.93450    0.11700    1.000
    C95      C        0.75900    0.91900    0.05000    1.000
    C96      C        0.76700    0.96400    0.99100    1.000
    O121     O        0.33490    0.33490    0.33490    1.000
    O122     O        0.66510    0.66510    0.33490    1.000
    O123     O        0.66510    0.33490    0.66510    1.000
    O124     O        0.33490    0.66510    0.66510    1.000
    O125     O        0.16510    0.16510    0.16510    1.000
    O126     O        0.83490    0.83490    0.16510    1.000
    O127     O        0.83490    0.16510    0.83490    1.000
    O128     O        0.16510    0.83490    0.83490    1.000
