data_functionalizedCrystal
_audit_creation_method	'EQeq! by Chris Wilmer'
_symmetry_space_group_name_H-M	'P1'
_symmetry_Int_Tables_number	1
_symmetry_cell_setting	triclinic
loop_
_symmetry_equiv_pos_as_xyz
  x,y,z
_cell_length_a	15.8029
_cell_length_b	15.8029
_cell_length_c	21.845
_cell_angle_alpha	90
_cell_angle_beta	90
_cell_angle_gamma	90
loop_
_atom_site_label
_atom_site_type_symbol
_atom_site_fract_x
_atom_site_fract_y
_atom_site_fract_z
_atom_site_charge
Mof_Cd	Cd	0.05949	0.94051	0.25	0.385
Mof_Cd	Cd	0.94051	0.05949	0.75	0.385
Mof_Cd	Cd	0.55949	0.55949	0.5	0.387
Mof_Cd	Cd	0.44051	0.44051	-0	0.388
Mof_H 	H 	0.743	0.4946	0.5704	0.011
Mof_H 	H 	0.8532	0.4032	0.5581	0.089
Mof_H 	H 	0.7635	0.3459	0.3933	0.104
Mof_H 	H 	0.6577	0.4407	0.4089	0.01
Mof_H 	H 	0.9671	0.3364	0.5333	0.062
Mof_H 	H 	0.0668	0.2338	0.5225	0.053
Mof_H 	H 	0.0461	0.1209	0.4583	0.072
Mof_H 	H 	0.8251	0.2239	0.4052	0.081
Mof_H 	H 	0.8018	0.0015	0.2095	0.089
Mof_H 	H 	0.7058	0.9081	0.165	0.035
Mof_H 	H 	0.656	0.7938	0.2196	0.074
Mof_H 	H 	0.803	0.8604	0.3607	0.092
Mof_H 	H 	0.5865	0.7139	0.2852	0.098
Mof_H 	H 	0.5358	0.6139	0.3514	0.035
Mof_H 	H 	0.7318	0.6402	0.4571	0.01
Mof_H 	H 	0.7894	0.736	0.3937	0.101
Mof_H 	H 	0.7414	0.0263	0.3864	0.138
Mof_H 	H 	0.7427	0.1056	0.3529	0.152
Mof_H 	H 	0.257	0.5054	0.0704	0.01
Mof_H 	H 	0.1468	0.5968	0.0581	0.088
Mof_H 	H 	0.2365	0.6541	0.8933	0.103
Mof_H 	H 	0.3423	0.5593	0.9089	0.009
Mof_H 	H 	0.0329	0.6636	0.0333	0.06
Mof_H 	H 	0.9332	0.7662	0.0225	0.054
Mof_H 	H 	0.9539	0.8791	0.9583	0.07
Mof_H 	H 	0.1749	0.7761	0.9052	0.08
Mof_H 	H 	0.1982	0.9985	0.7095	0.088
Mof_H 	H 	0.2942	0.0919	0.665	0.034
Mof_H 	H 	0.344	0.2062	0.7196	0.073
Mof_H 	H 	0.197	0.1396	0.8607	0.091
Mof_H 	H 	0.4135	0.2861	0.7852	0.097
Mof_H 	H 	0.4642	0.3861	0.8514	0.034
Mof_H 	H 	0.2682	0.3598	0.9571	0.008
Mof_H 	H 	0.2106	0.264	0.8937	0.1
Mof_H 	H 	0.2586	0.9737	0.8864	0.138
Mof_H 	H 	0.2573	0.8944	0.8529	0.152
Mof_H 	H 	0.0054	0.243	0.8204	0.01
Mof_H 	H 	0.0968	0.3532	0.8081	0.088
Mof_H 	H 	0.1541	0.2635	0.6433	0.103
Mof_H 	H 	0.0593	0.1577	0.6589	0.009
Mof_H 	H 	0.1636	0.4671	0.7833	0.06
Mof_H 	H 	0.2662	0.5668	0.7725	0.052
Mof_H 	H 	0.3791	0.5461	0.7083	0.071
Mof_H 	H 	0.2761	0.3251	0.6552	0.08
Mof_H 	H 	0.4985	0.3018	0.4595	0.089
Mof_H 	H 	0.5919	0.2058	0.415	0.033
Mof_H 	H 	0.7062	0.156	0.4696	0.073
Mof_H 	H 	0.6396	0.303	0.6107	0.091
Mof_H 	H 	0.7861	0.0865	0.5352	0.097
Mof_H 	H 	0.8861	0.0358	0.6014	0.034
Mof_H 	H 	0.8598	0.2318	0.7071	0.008
Mof_H 	H 	0.764	0.2894	0.6437	0.1
Mof_H 	H 	0.4737	0.2414	0.6364	0.138
Mof_H 	H 	0.3944	0.2427	0.6029	0.152
Mof_H 	H 	0.9946	0.757	0.3204	0.01
Mof_H 	H 	0.9032	0.6468	0.3081	0.088
Mof_H 	H 	0.8459	0.7365	0.1433	0.103
Mof_H 	H 	0.9407	0.8423	0.1589	0.009
Mof_H 	H 	0.8364	0.5329	0.2833	0.06
Mof_H 	H 	0.7338	0.4332	0.2725	0.052
Mof_H 	H 	0.6209	0.4539	0.2083	0.071
Mof_H 	H 	0.7239	0.6749	0.1552	0.08
Mof_H 	H 	0.5015	0.6982	0.9595	0.089
Mof_H 	H 	0.4081	0.7942	0.915	0.033
Mof_H 	H 	0.2938	0.844	0.9696	0.074
Mof_H 	H 	0.3604	0.697	0.1107	0.091
Mof_H 	H 	0.2139	0.9135	0.0352	0.097
Mof_H 	H 	0.1139	0.9642	0.1014	0.034
Mof_H 	H 	0.1402	0.7682	0.2071	0.008
Mof_H 	H 	0.236	0.7106	0.1437	0.1
Mof_H 	H 	0.5263	0.7586	0.1364	0.138
Mof_H 	H 	0.6056	0.7573	0.1029	0.152
Mof_H 	H 	0.757	0.9946	0.6796	0.01
Mof_H 	H 	0.6468	0.9032	0.6919	0.088
Mof_H 	H 	0.7365	0.8459	0.8567	0.103
Mof_H 	H 	0.8423	0.9407	0.8411	0.009
Mof_H 	H 	0.5329	0.8364	0.7167	0.06
Mof_H 	H 	0.4332	0.7338	0.7275	0.052
Mof_H 	H 	0.4539	0.6209	0.7917	0.071
Mof_H 	H 	0.6749	0.7239	0.8448	0.08
Mof_H 	H 	0.6982	0.5015	0.0405	0.088
Mof_H 	H 	0.7942	0.4081	0.085	0.034
Mof_H 	H 	0.844	0.2938	0.0304	0.072
Mof_H 	H 	0.697	0.3604	0.8893	0.09
Mof_H 	H 	0.9135	0.2139	0.9648	0.097
Mof_H 	H 	0.9642	0.1139	0.8986	0.034
Mof_H 	H 	0.7682	0.1402	0.7929	0.008
Mof_H 	H 	0.7106	0.236	0.8563	0.1
Mof_H 	H 	0.7586	0.5263	0.8636	0.138
Mof_H 	H 	0.7573	0.6056	0.8971	0.152
Mof_H 	H 	0.243	0.0054	0.1796	0.011
Mof_H 	H 	0.3532	0.0968	0.1919	0.088
Mof_H 	H 	0.2635	0.1541	0.3567	0.103
Mof_H 	H 	0.1577	0.0593	0.3411	0.009
Mof_H 	H 	0.4671	0.1636	0.2167	0.06
Mof_H 	H 	0.5668	0.2662	0.2275	0.052
Mof_H 	H 	0.5461	0.3791	0.2917	0.071
Mof_H 	H 	0.3251	0.2761	0.3448	0.08
Mof_H 	H 	0.3018	0.4985	0.5405	0.089
Mof_H 	H 	0.2058	0.5919	0.585	0.033
Mof_H 	H 	0.156	0.7062	0.5304	0.073
Mof_H 	H 	0.303	0.6396	0.3893	0.091
Mof_H 	H 	0.0865	0.7861	0.4648	0.097
Mof_H 	H 	0.0358	0.8861	0.3986	0.034
Mof_H 	H 	0.2318	0.8598	0.2929	0.008
Mof_H 	H 	0.2894	0.764	0.3563	0.1
Mof_H 	H 	0.2414	0.4737	0.3636	0.138
Mof_H 	H 	0.2427	0.3944	0.3971	0.152
Mof_H 	H 	0.4946	0.743	0.4296	0.01
Mof_H 	H 	0.4032	0.8532	0.4419	0.088
Mof_H 	H 	0.3459	0.7635	0.6067	0.103
Mof_H 	H 	0.4407	0.6577	0.5911	0.009
Mof_H 	H 	0.3364	0.9671	0.4667	0.061
Mof_H 	H 	0.2338	0.0668	0.4775	0.052
Mof_H 	H 	0.1209	0.0461	0.5417	0.071
Mof_H 	H 	0.2239	0.8251	0.5948	0.08
Mof_H 	H 	0.0015	0.8018	0.7905	0.087
Mof_H 	H 	0.9081	0.7058	0.835	0.034
Mof_H 	H 	0.7938	0.656	0.7804	0.073
Mof_H 	H 	0.8604	0.803	0.6393	0.091
Mof_H 	H 	0.7139	0.5865	0.7148	0.097
Mof_H 	H 	0.6139	0.5358	0.6486	0.034
Mof_H 	H 	0.6402	0.7318	0.5429	0.009
Mof_H 	H 	0.736	0.7894	0.6063	0.1
Mof_H 	H 	0.0263	0.7414	0.6136	0.138
Mof_H 	H 	0.1056	0.7427	0.6471	0.152
Mof_H 	H 	0.5054	0.257	0.9296	0.01
Mof_H 	H 	0.5968	0.1468	0.9419	0.088
Mof_H 	H 	0.6541	0.2365	0.1067	0.103
Mof_H 	H 	0.5593	0.3423	0.0911	0.009
Mof_H 	H 	0.6636	0.0329	0.9667	0.063
Mof_H 	H 	0.7662	0.9332	0.9775	0.05
Mof_H 	H 	0.8791	0.9539	0.0417	0.073
Mof_H 	H 	0.7761	0.1749	0.0948	0.081
Mof_H 	H 	0.9985	0.1982	0.2905	0.088
Mof_H 	H 	0.0919	0.2942	0.335	0.034
Mof_H 	H 	0.2062	0.344	0.2804	0.073
Mof_H 	H 	0.1396	0.197	0.1393	0.091
Mof_H 	H 	0.2861	0.4135	0.2148	0.097
Mof_H 	H 	0.3861	0.4642	0.1486	0.034
Mof_H 	H 	0.3598	0.2682	0.0429	0.009
Mof_H 	H 	0.264	0.2106	0.1063	0.1
Mof_H 	H 	0.9737	0.2586	0.1136	0.138
Mof_H 	H 	0.8944	0.2573	0.1471	0.152
Mof_C 	C 	0.7469	0.464	0.5342	0.093
Mof_C 	C 	0.813	0.4079	0.5273	-0.154
Mof_C 	C 	0.8205	0.359	0.4761	0.09
Mof_C 	C 	0.7603	0.3747	0.4304	-0.159
Mof_C 	C 	0.6969	0.4322	0.44	0.1
Mof_C 	C 	0.8855	0.2928	0.4693	0.015
Mof_C 	C 	0.9585	0.2931	0.5051	-0.071
Mof_C 	C 	0.0175	0.2308	0.4994	0.003
Mof_C 	C 	0.006	0.1639	0.4605	-0.07
Mof_C 	C 	0.9329	0.1609	0.4239	0.027
Mof_C 	C 	0.8737	0.2256	0.4292	-0.081
Mof_C 	C 	0.9247	0.0913	0.3809	0.111
Mof_C 	C 	0.8738	0.9952	0.3196	0.105
Mof_C 	C 	0.8124	0.938	0.2896	0.044
Mof_C 	C 	0.783	0.9543	0.2309	-0.094
Mof_C 	C 	0.7248	0.8988	0.2047	0.024
Mof_C 	C 	0.6953	0.8301	0.2374	-0.096
Mof_C 	C 	0.7234	0.8146	0.2965	0.036
Mof_C 	C 	0.7829	0.8701	0.3213	-0.108
Mof_C 	C 	0.6928	0.7423	0.3341	0.076
Mof_C 	C 	0.6164	0.701	0.3207	-0.137
Mof_C 	C 	0.5863	0.6411	0.3609	0.079
Mof_C 	C 	0.7014	0.6561	0.4225	0.092
Mof_C 	C 	0.7359	0.7144	0.385	-0.153
Mof_C 	C 	0.2531	0.536	0.0342	0.093
Mof_C 	C 	0.187	0.5921	0.0273	-0.155
Mof_C 	C 	0.1795	0.641	0.9761	0.09
Mof_C 	C 	0.2397	0.6253	0.9304	-0.159
Mof_C 	C 	0.3031	0.5678	0.94	0.1
Mof_C 	C 	0.1145	0.7072	0.9693	0.014
Mof_C 	C 	0.0415	0.7069	0.0051	-0.069
Mof_C 	C 	0.9825	0.7692	0.9994	0
Mof_C 	C 	0.994	0.8361	0.9605	-0.069
Mof_C 	C 	0.0671	0.8391	0.9239	0.027
Mof_C 	C 	0.1263	0.7744	0.9292	-0.08
Mof_C 	C 	0.0753	0.9087	0.8809	0.112
Mof_C 	C 	0.1262	0.0048	0.8196	0.105
Mof_C 	C 	0.1876	0.062	0.7896	0.044
Mof_C 	C 	0.217	0.0457	0.7309	-0.093
Mof_C 	C 	0.2752	0.1012	0.7047	0.024
Mof_C 	C 	0.3047	0.1699	0.7374	-0.096
Mof_C 	C 	0.2766	0.1854	0.7965	0.036
Mof_C 	C 	0.2171	0.1299	0.8213	-0.108
Mof_C 	C 	0.3072	0.2577	0.8341	0.076
Mof_C 	C 	0.3836	0.299	0.8207	-0.137
Mof_C 	C 	0.4137	0.3589	0.8609	0.079
Mof_C 	C 	0.2986	0.3439	0.9225	0.092
Mof_C 	C 	0.2641	0.2856	0.885	-0.153
Mof_C 	C 	0.036	0.2469	0.7842	0.093
Mof_C 	C 	0.0921	0.313	0.7773	-0.154
Mof_C 	C 	0.141	0.3205	0.7261	0.09
Mof_C 	C 	0.1253	0.2603	0.6804	-0.159
Mof_C 	C 	0.0678	0.1969	0.69	0.1
Mof_C 	C 	0.2072	0.3855	0.7193	0.014
Mof_C 	C 	0.2069	0.4585	0.7551	-0.07
Mof_C 	C 	0.2692	0.5175	0.7494	0.002
Mof_C 	C 	0.3361	0.506	0.7105	-0.072
Mof_C 	C 	0.3391	0.4329	0.6739	0.029
Mof_C 	C 	0.2744	0.3737	0.6792	-0.081
Mof_C 	C 	0.4087	0.4247	0.6309	0.111
Mof_C 	C 	0.5048	0.3738	0.5696	0.104
Mof_C 	C 	0.562	0.3124	0.5396	0.045
Mof_C 	C 	0.5457	0.283	0.4809	-0.097
Mof_C 	C 	0.6012	0.2248	0.4547	0.026
Mof_C 	C 	0.6699	0.1953	0.4874	-0.098
Mof_C 	C 	0.6854	0.2234	0.5465	0.037
Mof_C 	C 	0.6299	0.2829	0.5713	-0.109
Mof_C 	C 	0.7577	0.1928	0.5841	0.075
Mof_C 	C 	0.799	0.1164	0.5707	-0.137
Mof_C 	C 	0.8589	0.0863	0.6109	0.079
Mof_C 	C 	0.8439	0.2014	0.6725	0.092
Mof_C 	C 	0.7856	0.2359	0.635	-0.152
Mof_C 	C 	0.964	0.7531	0.2842	0.093
Mof_C 	C 	0.9079	0.687	0.2773	-0.154
Mof_C 	C 	0.859	0.6795	0.2261	0.09
Mof_C 	C 	0.8747	0.7397	0.1804	-0.159
Mof_C 	C 	0.9322	0.8031	0.19	0.1
Mof_C 	C 	0.7928	0.6145	0.2193	0.015
Mof_C 	C 	0.7931	0.5415	0.2551	-0.07
Mof_C 	C 	0.7308	0.4825	0.2494	0.002
Mof_C 	C 	0.6639	0.494	0.2105	-0.072
Mof_C 	C 	0.6609	0.5671	0.1739	0.029
Mof_C 	C 	0.7256	0.6263	0.1792	-0.081
Mof_C 	C 	0.5913	0.5753	0.1309	0.111
Mof_C 	C 	0.4952	0.6262	0.0696	0.103
Mof_C 	C 	0.438	0.6876	0.0396	0.046
Mof_C 	C 	0.4543	0.717	0.9809	-0.098
Mof_C 	C 	0.3988	0.7752	0.9547	0.027
Mof_C 	C 	0.3301	0.8047	0.9874	-0.099
Mof_C 	C 	0.3146	0.7766	0.0465	0.038
Mof_C 	C 	0.3701	0.7171	0.0713	-0.109
Mof_C 	C 	0.2423	0.8072	0.0841	0.075
Mof_C 	C 	0.201	0.8836	0.0707	-0.136
Mof_C 	C 	0.1411	0.9137	0.1109	0.079
Mof_C 	C 	0.1561	0.7986	0.1725	0.092
Mof_C 	C 	0.2144	0.7641	0.135	-0.152
Mof_C 	C 	0.7531	0.964	0.7158	0.093
Mof_C 	C 	0.687	0.9079	0.7227	-0.154
Mof_C 	C 	0.6795	0.859	0.7739	0.09
Mof_C 	C 	0.7397	0.8747	0.8196	-0.159
Mof_C 	C 	0.8031	0.9322	0.81	0.1
Mof_C 	C 	0.6145	0.7928	0.7807	0.014
Mof_C 	C 	0.5415	0.7931	0.7449	-0.07
Mof_C 	C 	0.4825	0.7308	0.7506	0.002
Mof_C 	C 	0.494	0.6639	0.7895	-0.072
Mof_C 	C 	0.5671	0.6609	0.8261	0.029
Mof_C 	C 	0.6263	0.7256	0.8208	-0.081
Mof_C 	C 	0.5753	0.5913	0.8691	0.111
Mof_C 	C 	0.6262	0.4952	0.9304	0.104
Mof_C 	C 	0.6876	0.438	0.9604	0.043
Mof_C 	C 	0.717	0.4543	0.0191	-0.093
Mof_C 	C 	0.7752	0.3988	0.0453	0.023
Mof_C 	C 	0.8047	0.3301	0.0126	-0.094
Mof_C 	C 	0.7766	0.3146	0.9535	0.034
Mof_C 	C 	0.7171	0.3701	0.9287	-0.107
Mof_C 	C 	0.8072	0.2423	0.9159	0.076
Mof_C 	C 	0.8836	0.201	0.9293	-0.137
Mof_C 	C 	0.9137	0.1411	0.8891	0.079
Mof_C 	C 	0.7986	0.1561	0.8275	0.092
Mof_C 	C 	0.7641	0.2144	0.865	-0.153
Mof_C 	C 	0.2469	0.036	0.2158	0.093
Mof_C 	C 	0.313	0.0921	0.2227	-0.154
Mof_C 	C 	0.3205	0.141	0.2739	0.09
Mof_C 	C 	0.2603	0.1253	0.3196	-0.159
Mof_C 	C 	0.1969	0.0678	0.31	0.1
Mof_C 	C 	0.3855	0.2072	0.2807	0.015
Mof_C 	C 	0.4585	0.2069	0.2449	-0.07
Mof_C 	C 	0.5175	0.2692	0.2506	0.002
Mof_C 	C 	0.506	0.3361	0.2895	-0.072
Mof_C 	C 	0.4329	0.3391	0.3261	0.029
Mof_C 	C 	0.3737	0.2744	0.3208	-0.081
Mof_C 	C 	0.4247	0.4087	0.3691	0.111
Mof_C 	C 	0.3738	0.5048	0.4304	0.104
Mof_C 	C 	0.3124	0.562	0.4604	0.045
Mof_C 	C 	0.283	0.5457	0.5191	-0.097
Mof_C 	C 	0.2248	0.6012	0.5453	0.026
Mof_C 	C 	0.1953	0.6699	0.5126	-0.098
Mof_C 	C 	0.2234	0.6854	0.4535	0.037
Mof_C 	C 	0.2829	0.6299	0.4287	-0.109
Mof_C 	C 	0.1928	0.7577	0.4159	0.075
Mof_C 	C 	0.1164	0.799	0.4293	-0.137
Mof_C 	C 	0.0863	0.8589	0.3891	0.079
Mof_C 	C 	0.2014	0.8439	0.3275	0.092
Mof_C 	C 	0.2359	0.7856	0.365	-0.152
Mof_C 	C 	0.464	0.7469	0.4658	0.093
Mof_C 	C 	0.4079	0.813	0.4727	-0.154
Mof_C 	C 	0.359	0.8205	0.5239	0.09
Mof_C 	C 	0.3747	0.7603	0.5696	-0.159
Mof_C 	C 	0.4322	0.6969	0.56	0.1
Mof_C 	C 	0.2928	0.8855	0.5307	0.015
Mof_C 	C 	0.2931	0.9585	0.4949	-0.071
Mof_C 	C 	0.2308	0.0175	0.5006	0.003
Mof_C 	C 	0.1639	0.006	0.5395	-0.07
Mof_C 	C 	0.1609	0.9329	0.5761	0.027
Mof_C 	C 	0.2256	0.8737	0.5708	-0.081
Mof_C 	C 	0.0913	0.9247	0.6191	0.111
Mof_C 	C 	0.9952	0.8738	0.6804	0.105
Mof_C 	C 	0.938	0.8124	0.7104	0.043
Mof_C 	C 	0.9543	0.783	0.7691	-0.093
Mof_C 	C 	0.8988	0.7248	0.7953	0.024
Mof_C 	C 	0.8301	0.6953	0.7626	-0.096
Mof_C 	C 	0.8146	0.7234	0.7035	0.036
Mof_C 	C 	0.8701	0.7829	0.6787	-0.107
Mof_C 	C 	0.7423	0.6928	0.6659	0.076
Mof_C 	C 	0.701	0.6164	0.6793	-0.137
Mof_C 	C 	0.6411	0.5863	0.6391	0.079
Mof_C 	C 	0.6561	0.7014	0.5775	0.092
Mof_C 	C 	0.7144	0.7359	0.615	-0.153
Mof_C 	C 	0.536	0.2531	0.9658	0.092
Mof_C 	C 	0.5921	0.187	0.9727	-0.155
Mof_C 	C 	0.641	0.1795	0.0239	0.09
Mof_C 	C 	0.6253	0.2397	0.0696	-0.158
Mof_C 	C 	0.5678	0.3031	0.06	0.1
Mof_C 	C 	0.7072	0.1145	0.0307	0.019
Mof_C 	C 	0.7069	0.0415	0.9949	-0.078
Mof_C 	C 	0.7692	0.9825	0.0006	0.01
Mof_C 	C 	0.8361	0.994	0.0395	-0.075
Mof_C 	C 	0.8391	0.0671	0.0761	0.031
Mof_C 	C 	0.7744	0.1263	0.0708	-0.084
Mof_C 	C 	0.9087	0.0753	0.1191	0.11
Mof_C 	C 	0.0048	0.1262	0.1804	0.105
Mof_C 	C 	0.062	0.1876	0.2104	0.044
Mof_C 	C 	0.0457	0.217	0.2691	-0.094
Mof_C 	C 	0.1012	0.2752	0.2953	0.024
Mof_C 	C 	0.1699	0.3047	0.2626	-0.096
Mof_C 	C 	0.1854	0.2766	0.2035	0.036
Mof_C 	C 	0.1299	0.2171	0.1787	-0.108
Mof_C 	C 	0.2577	0.3072	0.1659	0.076
Mof_C 	C 	0.299	0.3836	0.1793	-0.137
Mof_C 	C 	0.3589	0.4137	0.1391	0.079
Mof_C 	C 	0.3439	0.2986	0.0775	0.092
Mof_C 	C 	0.2856	0.2641	0.115	-0.152
Mof_N 	N 	0.6885	0.4762	0.4911	-0.157
Mof_N 	N 	0.9883	0.0543	0.35449	-0.099
Mof_N 	N 	0.9555	0.9933	0.3159	-0.112
Mof_N 	N 	0.851	0.0559	0.3599	-0.095
Mof_N 	N 	0.7693	0.0744	0.3809	-0.229
Mof_N 	N 	0.6256	0.6196	0.41305	-0.154
Mof_N 	N 	0.3115	0.5238	0.9911	-0.157
Mof_N 	N 	0.0117	0.9457	0.85449	-0.099
Mof_N 	N 	0.0445	0.0067	0.8159	-0.112
Mof_N 	N 	0.149	0.9441	0.8599	-0.095
Mof_N 	N 	0.2307	0.9256	0.8809	-0.229
Mof_N 	N 	0.3744	0.3804	0.91305	-0.154
Mof_N 	N 	0.0238	0.1885	0.7411	-0.156
Mof_N 	N 	0.4457	0.4883	0.60449	-0.099
Mof_N 	N 	0.5067	0.4555	0.5659	-0.113
Mof_N 	N 	0.4441	0.351	0.6099	-0.094
Mof_N 	N 	0.4256	0.2693	0.6309	-0.229
Mof_N 	N 	0.8804	0.1256	0.66305	-0.154
Mof_N 	N 	0.9762	0.8115	0.2411	-0.156
Mof_N 	N 	0.5543	0.5117	0.10449	-0.099
Mof_N 	N 	0.4933	0.5445	0.0659	-0.113
Mof_N 	N 	0.5559	0.649	0.1099	-0.094
Mof_N 	N 	0.5744	0.7307	0.1309	-0.229
Mof_N 	N 	0.1196	0.8744	0.16305	-0.154
Mof_N 	N 	0.8115	0.9762	0.7589	-0.156
Mof_N 	N 	0.5117	0.5543	0.89551	-0.099
Mof_N 	N 	0.5445	0.4933	0.9341	-0.113
Mof_N 	N 	0.649	0.5559	0.8901	-0.094
Mof_N 	N 	0.7307	0.5744	0.8691	-0.229
Mof_N 	N 	0.8744	0.1196	0.83695	-0.154
Mof_N 	N 	0.1885	0.0238	0.2589	-0.156
Mof_N 	N 	0.4883	0.4457	0.39551	-0.099
Mof_N 	N 	0.4555	0.5067	0.4341	-0.113
Mof_N 	N 	0.351	0.4441	0.3901	-0.094
Mof_N 	N 	0.2693	0.4256	0.3691	-0.229
Mof_N 	N 	0.1256	0.8804	0.33695	-0.154
Mof_N 	N 	0.4762	0.6885	0.5089	-0.157
Mof_N 	N 	0.0543	0.9883	0.64551	-0.099
Mof_N 	N 	0.9933	0.9555	0.6841	-0.112
Mof_N 	N 	0.0559	0.851	0.6401	-0.095
Mof_N 	N 	0.0744	0.7693	0.6191	-0.229
Mof_N 	N 	0.6196	0.6256	0.58695	-0.154
Mof_N 	N 	0.5238	0.3115	0.0089	-0.156
Mof_N 	N 	0.9457	0.0117	0.14551	-0.099
Mof_N 	N 	0.0067	0.0445	0.1841	-0.112
Mof_N 	N 	0.9441	0.149	0.1401	-0.095
Mof_N 	N 	0.9256	0.2307	0.1191	-0.229
Mof_N 	N 	0.3804	0.3744	0.08695	-0.154
Mof_Cl	Cl	0.62644	0.37356	0.75	-0.232
Mof_O 	O 	0.6296	0.4409	0.7891	-0.024
Mof_O 	O 	0.6733	0.4062	0.6989	-0.051
Mof_O 	O 	0.5591	0.3704	0.7109	-0.024
Mof_O 	O 	0.5938	0.3267	0.8011	-0.051
Mof_Cl	Cl	0.37356	0.62644	0.25	-0.232
Mof_O 	O 	0.3704	0.5591	0.2891	-0.024
Mof_O 	O 	0.3267	0.5938	0.1989	-0.051
Mof_O 	O 	0.4409	0.6296	0.2109	-0.024
Mof_O 	O 	0.4062	0.6733	0.3011	-0.051
Mof_Cl	Cl	0.12644	0.12644	-0	-0.231
Mof_O 	O 	0.0591	0.1296	0.0391	-0.023
Mof_O 	O 	0.0938	0.1733	0.9489	-0.051
Mof_O 	O 	0.1296	0.0591	0.9609	-0.024
Mof_O 	O 	0.1733	0.0938	0.0511	-0.05
Mof_Cl	Cl	0.87356	0.87356	0.5	-0.232
Mof_O 	O 	0.9409	0.8704	0.5391	-0.023
Mof_O 	O 	0.9062	0.8267	0.4489	-0.05
Mof_O 	O 	0.8704	0.9409	0.4609	-0.023
Mof_O 	O 	0.8267	0.9062	0.5511	-0.05
Mof_Cl	Cl	0.72995	0.72995	-0	-0.208
Mof_O 	O 	0.7637	0.7653	0.0529	-0.05
Mof_O 	O 	0.7779	0.645	0.994	-0.066
Mof_O 	O 	0.7653	0.7637	0.9471	-0.05
Mof_O 	O 	0.645	0.7779	0.006	-0.065
Mof_Cl	Cl	0.27005	0.27005	0.5	-0.209
Mof_O 	O 	0.2363	0.2347	0.5529	-0.05
Mof_O 	O 	0.2221	0.355	0.494	-0.065
Mof_O 	O 	0.2347	0.2363	0.4471	-0.05
Mof_O 	O 	0.355	0.2221	0.506	-0.065
Mof_Cl	Cl	0.77005	0.22995	0.25	-0.209
Mof_O 	O 	0.7347	0.2637	0.3029	-0.05
Mof_O 	O 	0.855	0.2779	0.244	-0.065
Mof_O 	O 	0.7363	0.2653	0.1971	-0.05
Mof_O 	O 	0.7221	0.145	0.256	-0.065
Mof_Cl	Cl	0.22995	0.77005	0.75	-0.209
Mof_O 	O 	0.2653	0.7363	0.8029	-0.05
Mof_O 	O 	0.145	0.7221	0.744	-0.065
Mof_O 	O 	0.2637	0.7347	0.6971	-0.05
Mof_O 	O 	0.2779	0.855	0.756	-0.065
_end
