data_functionalizedCrystal
_audit_creation_method	'EQeq! by Chris Wilmer'
_symmetry_space_group_name_H-M	'P1'
_symmetry_Int_Tables_number	1
_symmetry_cell_setting	triclinic
loop_
_symmetry_equiv_pos_as_xyz
  x,y,z
_cell_length_a	7.3201
_cell_length_b	21.101
_cell_length_c	22.207
_cell_angle_alpha	90
_cell_angle_beta	90
_cell_angle_gamma	90
loop_
_atom_site_label
_atom_site_type_symbol
_atom_site_fract_x
_atom_site_fract_y
_atom_site_fract_z
_atom_site_charge
Mof_Cu	Cu	0.75	0.75	0.00308	0.846
Mof_Cu	Cu	0.25	0.25	0.49692	0.846
Mof_Cu	Cu	0.25	0.25	0.99692	0.846
Mof_Cu	Cu	0.75	0.75	0.50308	0.846
Mof_H 	H 	0.5014	0.7177	0.1032	-0.022
Mof_H 	H 	0.4873	0.7198	0.2074	0.069
Mof_H 	H 	0.608	0.6676	0.2985	0.069
Mof_H 	H 	0.6222	0.6685	0.4018	-0.018
Mof_H 	H 	0.0458	0.8273	0.9397	-0.012
Mof_H 	H 	0.1573	0.9302	0.9383	0.062
Mof_H 	H 	0.807	0.9723	0.0721	0.063
Mof_H 	H 	0.699	0.8695	0.0712	-0.01
Mof_H 	H 	0.9986	0.7823	0.1032	-0.021
Mof_H 	H 	0.0127	0.7802	0.2074	0.07
Mof_H 	H 	0.892	0.8324	0.2985	0.069
Mof_H 	H 	0.8778	0.8315	0.4018	-0.018
Mof_H 	H 	0.4542	0.6727	0.9397	-0.012
Mof_H 	H 	0.3427	0.5698	0.9383	0.062
Mof_H 	H 	0.693	0.5277	0.0721	0.063
Mof_H 	H 	0.801	0.6305	0.0712	-0.01
Mof_H 	H 	0.4986	0.2177	0.3968	-0.021
Mof_H 	H 	0.5127	0.2198	0.2926	0.07
Mof_H 	H 	0.392	0.1676	0.2015	0.069
Mof_H 	H 	0.3778	0.1685	0.0982	-0.018
Mof_H 	H 	0.9542	0.3273	0.5603	-0.012
Mof_H 	H 	0.8427	0.4302	0.5617	0.062
Mof_H 	H 	0.193	0.4723	0.4279	0.063
Mof_H 	H 	0.301	0.3695	0.4288	-0.01
Mof_H 	H 	0.0014	0.2823	0.3968	-0.021
Mof_H 	H 	0.9873	0.2802	0.2926	0.07
Mof_H 	H 	0.108	0.3324	0.2015	0.069
Mof_H 	H 	0.1222	0.3315	0.0982	-0.018
Mof_H 	H 	0.5458	0.1727	0.5603	-0.012
Mof_H 	H 	0.6573	0.0698	0.5617	0.062
Mof_H 	H 	0.307	0.0277	0.4279	0.063
Mof_H 	H 	0.199	0.1305	0.4288	-0.01
Mof_H 	H 	0.4986	0.2823	0.8968	-0.021
Mof_H 	H 	0.5127	0.2802	0.7926	0.07
Mof_H 	H 	0.392	0.3324	0.7015	0.069
Mof_H 	H 	0.3778	0.3315	0.5982	-0.018
Mof_H 	H 	0.9542	0.1727	0.0603	-0.012
Mof_H 	H 	0.8427	0.0698	0.0617	0.062
Mof_H 	H 	0.193	0.0277	0.9279	0.063
Mof_H 	H 	0.301	0.1305	0.9288	-0.01
Mof_H 	H 	0.0014	0.2177	0.8968	-0.021
Mof_H 	H 	0.9873	0.2198	0.7926	0.07
Mof_H 	H 	0.108	0.1676	0.7015	0.069
Mof_H 	H 	0.1222	0.1685	0.5982	-0.018
Mof_H 	H 	0.5458	0.3273	0.0603	-0.012
Mof_H 	H 	0.6573	0.4302	0.0617	0.062
Mof_H 	H 	0.307	0.4723	0.9279	0.063
Mof_H 	H 	0.199	0.3695	0.9288	-0.01
Mof_H 	H 	0.5014	0.7823	0.6032	-0.021
Mof_H 	H 	0.4873	0.7802	0.7074	0.07
Mof_H 	H 	0.608	0.8324	0.7985	0.069
Mof_H 	H 	0.6222	0.8315	0.9018	-0.018
Mof_H 	H 	0.0458	0.6727	0.4397	-0.012
Mof_H 	H 	0.1573	0.5698	0.4383	0.062
Mof_H 	H 	0.807	0.5277	0.5721	0.063
Mof_H 	H 	0.699	0.6305	0.5712	-0.01
Mof_H 	H 	0.9986	0.7177	0.6032	-0.021
Mof_H 	H 	0.0127	0.7198	0.7074	0.07
Mof_H 	H 	0.892	0.6676	0.7985	0.069
Mof_H 	H 	0.8778	0.6685	0.9018	-0.018
Mof_H 	H 	0.4542	0.8273	0.4397	-0.012
Mof_H 	H 	0.3427	0.9302	0.4383	0.062
Mof_H 	H 	0.693	0.9723	0.5721	0.063
Mof_H 	H 	0.801	0.8695	0.5712	-0.01
Mof_C 	C 	0.6052	0.73172	0.12521	0.08
Mof_C 	C 	0.5963	0.73185	0.18724	-0.137
Mof_C 	C 	0.6678	0.70141	0.31872	-0.132
Mof_C 	C 	0.6745	0.70295	0.38036	0.071
Mof_C 	C 	0.9963	0.8574	0.967	0.058
Mof_C 	C 	0.0635	0.9188	0.9658	-0.121
Mof_C 	C 	0.992	0.9635	0.0053	0.044
Mof_C 	C 	0.8573	0.943	0.0442	-0.118
Mof_C 	C 	0.793	0.8815	0.0441	0.054
Mof_C 	C 	0.8948	0.76828	0.12521	0.08
Mof_C 	C 	0.9037	0.76815	0.18724	-0.137
Mof_C 	C 	0.8322	0.79859	0.31872	-0.132
Mof_C 	C 	0.8255	0.79705	0.38036	0.071
Mof_C 	C 	0.5037	0.6426	0.967	0.057
Mof_C 	C 	0.4365	0.5812	0.9658	-0.122
Mof_C 	C 	0.508	0.5365	0.0053	0.045
Mof_C 	C 	0.6427	0.557	0.0442	-0.119
Mof_C 	C 	0.707	0.6185	0.0441	0.054
Mof_C 	C 	0.3948	0.23172	0.37479	0.08
Mof_C 	C 	0.4037	0.23185	0.31276	-0.137
Mof_C 	C 	0.3322	0.20141	0.18128	-0.132
Mof_C 	C 	0.3255	0.20295	0.11964	0.071
Mof_C 	C 	0.0037	0.3574	0.533	0.057
Mof_C 	C 	0.9365	0.4188	0.5342	-0.122
Mof_C 	C 	0.008	0.4635	0.4947	0.045
Mof_C 	C 	0.1427	0.443	0.4558	-0.119
Mof_C 	C 	0.207	0.3815	0.4559	0.054
Mof_C 	C 	0.1052	0.26828	0.37479	0.08
Mof_C 	C 	0.0963	0.26815	0.31276	-0.137
Mof_C 	C 	0.1678	0.29859	0.18128	-0.132
Mof_C 	C 	0.1745	0.29705	0.11964	0.071
Mof_C 	C 	0.4963	0.1426	0.533	0.057
Mof_C 	C 	0.5635	0.0812	0.5342	-0.122
Mof_C 	C 	0.492	0.0365	0.4947	0.045
Mof_C 	C 	0.3573	0.057	0.4558	-0.118
Mof_C 	C 	0.293	0.1185	0.4559	0.054
Mof_C 	C 	0.3948	0.26828	0.87479	0.08
Mof_C 	C 	0.4037	0.26815	0.81276	-0.137
Mof_C 	C 	0.3322	0.29859	0.68128	-0.132
Mof_C 	C 	0.3255	0.29705	0.61964	0.071
Mof_C 	C 	0.0037	0.1426	0.033	0.058
Mof_C 	C 	0.9365	0.0812	0.0342	-0.121
Mof_C 	C 	0.008	0.0365	0.9947	0.044
Mof_C 	C 	0.1427	0.057	0.9558	-0.118
Mof_C 	C 	0.207	0.1185	0.9559	0.054
Mof_C 	C 	0.1052	0.23172	0.87479	0.08
Mof_C 	C 	0.0963	0.23185	0.81276	-0.137
Mof_C 	C 	0.1678	0.20141	0.68128	-0.132
Mof_C 	C 	0.1745	0.20295	0.61964	0.071
Mof_C 	C 	0.4963	0.3574	0.033	0.057
Mof_C 	C 	0.5635	0.4188	0.0342	-0.122
Mof_C 	C 	0.492	0.4635	0.9947	0.045
Mof_C 	C 	0.3573	0.443	0.9558	-0.119
Mof_C 	C 	0.293	0.3815	0.9559	0.054
Mof_C 	C 	0.6052	0.76828	0.62521	0.08
Mof_C 	C 	0.5963	0.76815	0.68724	-0.137
Mof_C 	C 	0.6678	0.79859	0.81872	-0.132
Mof_C 	C 	0.6745	0.79705	0.88036	0.071
Mof_C 	C 	0.9963	0.6426	0.467	0.057
Mof_C 	C 	0.0635	0.5812	0.4658	-0.122
Mof_C 	C 	0.992	0.5365	0.5053	0.045
Mof_C 	C 	0.8573	0.557	0.5442	-0.119
Mof_C 	C 	0.793	0.6185	0.5441	0.054
Mof_C 	C 	0.8948	0.73172	0.62521	0.08
Mof_C 	C 	0.9037	0.73185	0.68724	-0.137
Mof_C 	C 	0.8322	0.70141	0.81872	-0.132
Mof_C 	C 	0.8255	0.70295	0.88036	0.071
Mof_C 	C 	0.5037	0.8574	0.467	0.057
Mof_C 	C 	0.4365	0.9188	0.4658	-0.122
Mof_C 	C 	0.508	0.9635	0.5053	0.045
Mof_C 	C 	0.6427	0.943	0.5442	-0.118
Mof_C 	C 	0.707	0.8815	0.5441	0.054
Mof_C 	C 	0.75	0.75	0.2197	0.054
Mof_C 	C 	0.75	0.75	0.2863	0.048
Mof_C 	C 	0.25	0.25	0.2803	0.054
Mof_C 	C 	0.25	0.25	0.2137	0.048
Mof_C 	C 	0.25	0.25	0.7803	0.054
Mof_C 	C 	0.25	0.25	0.7137	0.048
Mof_C 	C 	0.75	0.75	0.7197	0.054
Mof_C 	C 	0.75	0.75	0.7863	0.048
Mof_N 	N 	0.8631	0.8383	0.0054	-0.232
Mof_N 	N 	0.6369	0.6617	0.0054	-0.232
Mof_N 	N 	0.1369	0.3383	0.4946	-0.232
Mof_N 	N 	0.3631	0.1617	0.4946	-0.232
Mof_N 	N 	0.1369	0.1617	0.9946	-0.232
Mof_N 	N 	0.3631	0.3383	0.9946	-0.232
Mof_N 	N 	0.8631	0.6617	0.5054	-0.232
Mof_N 	N 	0.6369	0.8383	0.5054	-0.232
Mof_N 	N 	0.75	0.75	0.09509	-0.243
Mof_N 	N 	0.75	0.75	0.41215	-0.242
Mof_N 	N 	0.25	0.25	0.40491	-0.243
Mof_N 	N 	0.25	0.25	0.08785	-0.242
Mof_N 	N 	0.25	0.25	0.90491	-0.243
Mof_N 	N 	0.25	0.25	0.58785	-0.242
Mof_N 	N 	0.75	0.75	0.59509	-0.243
Mof_N 	N 	0.75	0.75	0.91215	-0.242
_end
