# CIF file generated by openbabel 3.1.0, see https://openbabel.org
data_I
_chemical_name_common 'HOWPOZ_clean'
_cell_length_a 13.199
_cell_length_b 13.645
_cell_length_c 20.033
_cell_angle_alpha 90
_cell_angle_beta 90
_cell_angle_gamma 90
_space_group_name_H-M_alt 'P 1'
_space_group_name_Hall 'P 1'
loop_
    _symmetry_equiv_pos_as_xyz
    x,y,z
loop_
    _atom_site_label
    _atom_site_type_symbol
    _atom_site_fract_x
    _atom_site_fract_y
    _atom_site_fract_z
    _atom_site_occupancy
    Cd1      Cd       0.13371    0.56158    0.64890    1.000
    Cd2      Cd       0.36629    0.56158    0.35110    1.000
    Cd3      Cd       0.36629    0.06158    0.14890    1.000
    Cd4      Cd       0.13371    0.06158    0.85110    1.000
    H1       H        0.79350    0.16170    0.73310    1.000
    H2       H        0.90910    0.06220    0.78430    1.000
    H3       H        0.12490    0.25070    0.75390    1.000
    H4       H        0.42490    0.95380    0.00640    1.000
    H5       H        0.39900    0.87230    0.05900    1.000
    H6       H        0.30210    0.07840    0.98120    1.000
    H7       H        0.34070    0.95390    0.90040    1.000
    H8       H        0.26040    0.87230    0.88410    1.000
    H9       H        0.22150    0.75480    0.96580    1.000
    H10      H        0.70650    0.16170    0.26690    1.000
    H11      H        0.59090    0.06220    0.21570    1.000
    H12      H        0.37510    0.25070    0.24610    1.000
    H13      H        0.07510    0.95380    0.99360    1.000
    H14      H        0.10100    0.87230    0.94100    1.000
    H15      H        0.19790    0.07840    0.01880    1.000
    H16      H        0.15930    0.95390    0.09960    1.000
    H17      H        0.23960    0.87230    0.11590    1.000
    H18      H        0.27850    0.75480    0.03420    1.000
    H19      H        0.70650    0.66170    0.23310    1.000
    H20      H        0.59090    0.56220    0.28430    1.000
    H21      H        0.37510    0.75070    0.25390    1.000
    H22      H        0.07510    0.45380    0.50640    1.000
    H23      H        0.10100    0.37230    0.55900    1.000
    H24      H        0.19790    0.57840    0.48120    1.000
    H25      H        0.15930    0.45390    0.40040    1.000
    H26      H        0.23960    0.37230    0.38410    1.000
    H27      H        0.27850    0.25480    0.46580    1.000
    H28      H        0.79350    0.66170    0.76690    1.000
    H29      H        0.90910    0.56220    0.71570    1.000
    H30      H        0.12490    0.75070    0.74610    1.000
    H31      H        0.42490    0.45380    0.49360    1.000
    H32      H        0.39900    0.37230    0.44100    1.000
    H33      H        0.30210    0.57840    0.51880    1.000
    H34      H        0.34070    0.45390    0.59960    1.000
    H35      H        0.26040    0.37230    0.61590    1.000
    H36      H        0.22150    0.25480    0.53420    1.000
    C1       C        0.03710    0.88790    0.81300    1.000
    C2       C        0.99470    0.79660    0.78390    1.000
    C3       C        0.88980    0.77170    0.78830    1.000
    C4       C        0.80880    0.33900    0.68590    1.000
    C5       C        0.86060    0.68190    0.76310    1.000
    C6       C        0.93060    0.62240    0.73230    1.000
    C7       C        0.05730    0.23320    0.74900    1.000
    C8       C        0.12940    0.91380    0.97570    1.000
    C9       C        0.21240    0.91330    0.08060    1.000
    C10      C        0.46290    0.88790    0.18700    1.000
    C11      C        0.50530    0.79660    0.21610    1.000
    C12      C        0.61020    0.77170    0.21170    1.000
    C13      C        0.69120    0.33900    0.31410    1.000
    C14      C        0.63940    0.68190    0.23690    1.000
    C15      C        0.56940    0.62240    0.26770    1.000
    C16      C        0.44270    0.23320    0.25100    1.000
    C17      C        0.37060    0.91380    0.02430    1.000
    C18      C        0.28760    0.91330    0.91940    1.000
    C19      C        0.46290    0.38790    0.31300    1.000
    C20      C        0.50530    0.29660    0.28390    1.000
    C21      C        0.61020    0.27170    0.28830    1.000
    C22      C        0.69120    0.83900    0.18590    1.000
    C23      C        0.63940    0.18190    0.26310    1.000
    C24      C        0.56940    0.12240    0.23230    1.000
    C25      C        0.44270    0.73320    0.24900    1.000
    C26      C        0.37060    0.41380    0.47570    1.000
    C27      C        0.28760    0.41330    0.58060    1.000
    C28      C        0.03710    0.38790    0.68700    1.000
    C29      C        0.99470    0.29660    0.71610    1.000
    C30      C        0.88980    0.27170    0.71170    1.000
    C31      C        0.80880    0.83900    0.81410    1.000
    C32      C        0.86060    0.18190    0.73690    1.000
    C33      C        0.93060    0.12240    0.76770    1.000
    C34      C        0.05730    0.73320    0.75100    1.000
    C35      C        0.12940    0.41380    0.52430    1.000
    C36      C        0.21240    0.41330    0.41940    1.000
    C37      C        0.25000    0.03660    0.00000    1.000
    C38      C        0.25000    0.79680    0.00000    1.000
    C39      C        0.25000    0.53660    0.50000    1.000
    C40      C        0.25000    0.29680    0.50000    1.000
    N1       N        0.02700    0.64670    0.72530    1.000
    N2       N        0.20590    0.97660    0.94690    1.000
    N3       N        0.17060    0.85240    0.02870    1.000
    N4       N        0.47300    0.64670    0.27470    1.000
    N5       N        0.29410    0.97660    0.05310    1.000
    N6       N        0.32940    0.85240    0.97130    1.000
    N7       N        0.47300    0.14670    0.22530    1.000
    N8       N        0.29410    0.47660    0.44690    1.000
    N9       N        0.32940    0.35240    0.52870    1.000
    N10      N        0.02700    0.14670    0.77470    1.000
    N11      N        0.20590    0.47660    0.55310    1.000
    N12      N        0.17060    0.35240    0.47130    1.000
    O1       O        0.12590    0.91310    0.79600    1.000
    O2       O        0.98560    0.43860    0.64790    1.000
    O3       O        0.76820    0.31390    0.63070    1.000
    O4       O        0.78010    0.40870    0.71970    1.000
    O5       O        0.37410    0.91310    0.20400    1.000
    O6       O        0.51440    0.43860    0.35210    1.000
    O7       O        0.73180    0.31390    0.36930    1.000
    O8       O        0.71990    0.40870    0.28030    1.000
    O9       O        0.37410    0.41310    0.29600    1.000
    O10      O        0.51440    0.93860    0.14790    1.000
    O11      O        0.73180    0.81390    0.13070    1.000
    O12      O        0.71990    0.90870    0.21970    1.000
    O13      O        0.12590    0.41310    0.70400    1.000
    O14      O        0.98560    0.93860    0.85210    1.000
    O15      O        0.76820    0.81390    0.86930    1.000
    O16      O        0.78010    0.90870    0.78030    1.000
    Cd5      Cd       0.63371    0.93842    0.85110    1.000
    Cd6      Cd       0.86629    0.93842    0.14890    1.000
    Cd7      Cd       0.86629    0.43842    0.35110    1.000
    Cd8      Cd       0.63371    0.43842    0.64890    1.000
    H37      H        0.29350    0.33830    0.76690    1.000
    H38      H        0.40910    0.43780    0.71570    1.000
    H39      H        0.62490    0.24930    0.74610    1.000
    H40      H        0.92490    0.54620    0.49360    1.000
    H41      H        0.89900    0.62770    0.44100    1.000
    H42      H        0.80210    0.42160    0.51880    1.000
    H43      H        0.84070    0.54610    0.59960    1.000
    H44      H        0.76040    0.62770    0.61590    1.000
    H45      H        0.72150    0.74520    0.53420    1.000
    H46      H        0.20650    0.33830    0.23310    1.000
    H47      H        0.09090    0.43780    0.28430    1.000
    H48      H        0.87510    0.24930    0.25390    1.000
    H49      H        0.57510    0.54620    0.50640    1.000
    H50      H        0.60100    0.62770    0.55900    1.000
    H51      H        0.69790    0.42160    0.48120    1.000
    H52      H        0.65930    0.54610    0.40040    1.000
    H53      H        0.73960    0.62770    0.38410    1.000
    H54      H        0.77850    0.74520    0.46580    1.000
    H55      H        0.20650    0.83830    0.26690    1.000
    H56      H        0.09090    0.93780    0.21570    1.000
    H57      H        0.87510    0.74930    0.24610    1.000
    H58      H        0.57510    0.04620    0.99360    1.000
    H59      H        0.60100    0.12770    0.94100    1.000
    H60      H        0.69790    0.92160    0.01880    1.000
    H61      H        0.65930    0.04610    0.09960    1.000
    H62      H        0.73960    0.12770    0.11590    1.000
    H63      H        0.77850    0.24520    0.03420    1.000
    H64      H        0.29350    0.83830    0.73310    1.000
    H65      H        0.40910    0.93780    0.78430    1.000
    H66      H        0.62490    0.74930    0.75390    1.000
    H67      H        0.92490    0.04620    0.00640    1.000
    H68      H        0.89900    0.12770    0.05900    1.000
    H69      H        0.80210    0.92160    0.98120    1.000
    H70      H        0.84070    0.04610    0.90040    1.000
    H71      H        0.76040    0.12770    0.88410    1.000
    H72      H        0.72150    0.24520    0.96580    1.000
    C41      C        0.53710    0.61210    0.68700    1.000
    C42      C        0.49470    0.70340    0.71610    1.000
    C43      C        0.38980    0.72830    0.71170    1.000
    C44      C        0.30880    0.16100    0.81410    1.000
    C45      C        0.36060    0.81810    0.73690    1.000
    C46      C        0.43060    0.87760    0.76770    1.000
    C47      C        0.55730    0.26680    0.75100    1.000
    C48      C        0.62940    0.58620    0.52430    1.000
    C49      C        0.71240    0.58670    0.41940    1.000
    C50      C        0.96290    0.61210    0.31300    1.000
    C51      C        0.00530    0.70340    0.28390    1.000
    C52      C        0.11020    0.72830    0.28830    1.000
    C53      C        0.19120    0.16100    0.18590    1.000
    C54      C        0.13940    0.81810    0.26310    1.000
    C55      C        0.06940    0.87760    0.23230    1.000
    C56      C        0.94270    0.26680    0.24900    1.000
    C57      C        0.87060    0.58620    0.47570    1.000
    C58      C        0.78760    0.58670    0.58060    1.000
    C59      C        0.96290    0.11210    0.18700    1.000
    C60      C        0.00530    0.20340    0.21610    1.000
    C61      C        0.11020    0.22830    0.21170    1.000
    C62      C        0.19120    0.66100    0.31410    1.000
    C63      C        0.13940    0.31810    0.23690    1.000
    C64      C        0.06940    0.37760    0.26770    1.000
    C65      C        0.94270    0.76680    0.25100    1.000
    C66      C        0.87060    0.08620    0.02430    1.000
    C67      C        0.78760    0.08670    0.91940    1.000
    C68      C        0.53710    0.11210    0.81300    1.000
    C69      C        0.49470    0.20340    0.78390    1.000
    C70      C        0.38980    0.22830    0.78830    1.000
    C71      C        0.30880    0.66100    0.68590    1.000
    C72      C        0.36060    0.31810    0.76310    1.000
    C73      C        0.43060    0.37760    0.73230    1.000
    C74      C        0.55730    0.76680    0.74900    1.000
    C75      C        0.62940    0.08620    0.97570    1.000
    C76      C        0.71240    0.08670    0.08060    1.000
    C77      C        0.75000    0.46340    0.50000    1.000
    C78      C        0.75000    0.70320    0.50000    1.000
    C79      C        0.75000    0.96340    0.00000    1.000
    C80      C        0.75000    0.20320    0.00000    1.000
    N13      N        0.52700    0.85330    0.77470    1.000
    N14      N        0.70590    0.52340    0.55310    1.000
    N15      N        0.67060    0.64760    0.47130    1.000
    N16      N        0.97300    0.85330    0.22530    1.000
    N17      N        0.79410    0.52340    0.44690    1.000
    N18      N        0.82940    0.64760    0.52870    1.000
    N19      N        0.97300    0.35330    0.27470    1.000
    N20      N        0.79410    0.02340    0.05310    1.000
    N21      N        0.82940    0.14760    0.97130    1.000
    N22      N        0.52700    0.35330    0.72530    1.000
    N23      N        0.70590    0.02340    0.94690    1.000
    N24      N        0.67060    0.14760    0.02870    1.000
    O17      O        0.62590    0.58690    0.70400    1.000
    O18      O        0.48560    0.06140    0.85210    1.000
    O19      O        0.26820    0.18610    0.86930    1.000
    O20      O        0.28010    0.09130    0.78030    1.000
    O21      O        0.87410    0.58690    0.29600    1.000
    O22      O        0.01440    0.06140    0.14790    1.000
    O23      O        0.23180    0.18610    0.13070    1.000
    O24      O        0.21990    0.09130    0.21970    1.000
    O25      O        0.87410    0.08690    0.20400    1.000
    O26      O        0.01440    0.56140    0.35210    1.000
    O27      O        0.23180    0.68610    0.36930    1.000
    O28      O        0.21990    0.59130    0.28030    1.000
    O29      O        0.62590    0.08690    0.79600    1.000
    O30      O        0.48560    0.56140    0.64790    1.000
    O31      O        0.26820    0.68610    0.63070    1.000
    O32      O        0.28010    0.59130    0.71970    1.000
