data_functionalizedCrystal
_audit_creation_method	'EQeq! by Chris Wilmer'
_symmetry_space_group_name_H-M	'P1'
_symmetry_Int_Tables_number	1
_symmetry_cell_setting	triclinic
loop_
_symmetry_equiv_pos_as_xyz
  x,y,z
_cell_length_a	32.27
_cell_length_b	18.631
_cell_length_c	23.512
_cell_angle_alpha	90
_cell_angle_beta	117.225
_cell_angle_gamma	90
loop_
_atom_site_label
_atom_site_type_symbol
_atom_site_fract_x
_atom_site_fract_y
_atom_site_fract_z
_atom_site_charge
Mof_Cu	Cu	0.25121	0.44778	0.29787	0.91
Mof_Cu	Cu	0.23987	0.51803	0.19395	0.91
Mof_Cu	Cu	0.04077	0.23112	0.30217	0.947
Mof_O 	O 	0.2575	0.3623	0.2527	-0.391
Mof_O 	O 	0.2452	0.4225	0.164	-0.382
Mof_O 	O 	0.2672	0.1002	0.2618	-0.369
Mof_O 	O 	0.2588	0.0419	0.1752	-0.398
Mof_O 	O 	0.31751	0.4719	0.3242	-0.274
Mof_O 	O 	0.3072	0.5308	0.2381	-0.297
Mof_O 	O 	0.5073	0.6593	0.3304	-0.258
Mof_O 	O 	0.4409	0.657	0.2393	-0.282
Mof_O 	O 	0.1845	0.4382	0.2532	-0.386
Mof_O 	O 	0.1723	0.4979	0.1658	-0.352
Mof_O 	O 	0.05414	0.3034	0.257	-0.367
Mof_O 	O 	0.98281	0.2945	0.175	-0.451
Mof_C 	C 	0.2525	0.368	0.1991	0.345
Mof_C 	C 	0.2567	0.2969	0.1701	0.063
Mof_C 	C 	0.2527	0.2963	0.1087	-0.211
Mof_H 	H 	0.2498	0.3392	0.087	0.195
Mof_C 	C 	0.2532	0.2314	0.0798	0.363
Mof_C 	C 	0.2576	0.1673	0.1122	-0.22
Mof_H 	H 	0.258	0.1239	0.0928	0.149
Mof_C 	C 	0.2616	0.1679	0.1736	0.048
Mof_C 	C 	0.2611	0.2327	0.2026	-0.075
Mof_H 	H 	0.2637	0.2331	0.2436	0.107
Mof_C 	C 	0.2626	0.0989	0.2028	0.319
Mof_C 	C 	0.331	0.5058	0.2949	-0.041
Mof_C 	C 	0.37987	0.524	0.3259	1.05
Mof_C 	C 	0.39759	0.5688	0.295	-1.014
Mof_H 	H 	0.3783	0.585	0.2538	0.41
Mof_C 	C 	0.4442	0.5893	0.3256	1.043
Mof_C 	C 	0.47299	0.565	0.3871	-1.983
Mof_H 	H 	0.5041	0.5787	0.4076	0.856
Mof_C 	C 	0.4553	0.5202	0.418	3.181
Mof_C 	C 	0.4087	0.4997	0.3874	-1.971
Mof_H 	H 	0.3968	0.4698	0.4081	0.844
Mof_C 	C 	0.4638	0.6424	0.2962	-0.108
Mof_H 	H 	0.4524	0.6841	0.3104	0.073
Mof_C 	C 	0.1573	0.4575	0.197	0.326
Mof_C 	C 	0.10679	0.4448	0.1693	0.002
Mof_C 	C 	0.08936	0.3972	0.1986	-0.039
Mof_H 	H 	0.1091	0.3777	0.2383	0.084
Mof_C 	C 	0.04242	0.3788	0.1686	0.021
Mof_C 	C 	0.0129	0.408	0.1093	-0.137
Mof_H 	H 	0.9815	0.3957	0.0892	0.131
Mof_C 	C 	0.0303	0.4556	0.08	0.188
Mof_C 	C 	0.0773	0.474	0.11	-0.102
Mof_H 	H 	0.0889	0.5059	0.0904	0.159
Mof_C 	C 	0.0205	0.3257	0.1992	0.33
Mof_C 	C 	0.2528	0.2266	0.0174	-0.509
Mof_O 	O 	0.276	0.181	0.0071	-1.031
Mof_C 	C 	0.9968	0.4785	0.017	-0.115
Mof_O 	O 	0.9654	0.439	0.9818	-1.266
Mof_C 	C 	0.4825	0.4912	0.4834	-5.934
Mof_H 	H 	0.4698	0.4583	0.496	7.549
Mof_H 	H 	0.2571	0.1847	0.0056	1.092
Mof_H 	H 	0.9694	0.4598	0.0019	1.162
Mof_O 	O 	0.4725	0.4289	0.4935	-6.097
Mof_N 	N 	0.5175	0.5088	0.5166	2.062
Mof_Cu	Cu	0.75121	0.94778	0.29787	0.918
Mof_Cu	Cu	0.73987	0.01803	0.19395	0.901
Mof_Cu	Cu	0.54077	0.73112	0.30217	0.94
Mof_O 	O 	0.7575	0.8623	0.2527	-0.396
Mof_O 	O 	0.7452	0.9225	0.164	-0.375
Mof_O 	O 	0.7672	0.6002	0.2618	-0.37
Mof_O 	O 	0.7588	0.5419	0.1752	-0.387
Mof_O 	O 	0.81751	0.9719	0.3242	-0.363
Mof_O 	O 	0.8072	0.0308	0.2381	-0.377
Mof_O 	O 	0.0073	0.1593	0.3304	-0.336
Mof_O 	O 	0.9409	0.157	0.2393	-0.373
Mof_O 	O 	0.6845	0.9382	0.2532	-0.381
Mof_O 	O 	0.6723	0.9979	0.1658	-0.336
Mof_O 	O 	0.55414	0.8034	0.257	-0.37
Mof_O 	O 	0.48281	0.7945	0.175	-0.462
Mof_C 	C 	0.7525	0.868	0.1991	0.343
Mof_C 	C 	0.7567	0.7969	0.1701	0.056
Mof_C 	C 	0.7527	0.7963	0.1087	-0.206
Mof_H 	H 	0.7498	0.8392	0.087	0.193
Mof_C 	C 	0.7532	0.7314	0.0798	0.348
Mof_C 	C 	0.7576	0.6673	0.1122	-0.214
Mof_H 	H 	0.758	0.6239	0.0928	0.148
Mof_C 	C 	0.7616	0.6679	0.1736	0.042
Mof_C 	C 	0.7611	0.7327	0.2026	-0.074
Mof_H 	H 	0.7637	0.7331	0.2436	0.101
Mof_C 	C 	0.7626	0.5989	0.2028	0.318
Mof_C 	C 	0.831	0.0058	0.2949	0.271
Mof_C 	C 	0.87987	0.024	0.3259	0.191
Mof_C 	C 	0.89759	0.0688	0.295	-0.234
Mof_H 	H 	0.8783	0.085	0.2538	0.149
Mof_C 	C 	0.9442	0.0893	0.3256	0.232
Mof_C 	C 	0.97299	0.065	0.3871	-0.542
Mof_H 	H 	0.0041	0.0787	0.4076	0.319
Mof_C 	C 	0.9553	0.0202	0.418	0.92
Mof_C 	C 	0.9087	0.9997	0.3874	-0.493
Mof_H 	H 	0.8968	0.9698	0.4081	0.285
Mof_C 	C 	0.9638	0.1424	0.2962	0.257
Mof_H 	H 	0.9524	0.1841	0.3104	0.002
Mof_C 	C 	0.6573	0.9575	0.197	0.331
Mof_C 	C 	0.60679	0.9448	0.1693	-0.008
Mof_C 	C 	0.58936	0.8972	0.1986	-0.03
Mof_H 	H 	0.6091	0.8777	0.2383	0.082
Mof_C 	C 	0.54242	0.8788	0.1686	0.016
Mof_C 	C 	0.5129	0.908	0.1093	-0.132
Mof_H 	H 	0.4815	0.8957	0.0892	0.127
Mof_C 	C 	0.5303	0.9556	0.08	0.212
Mof_C 	C 	0.5773	0.974	0.11	-0.061
Mof_H 	H 	0.5889	0.0059	0.0904	0.13
Mof_C 	C 	0.5205	0.8257	0.1992	0.341
Mof_C 	C 	0.7528	0.7266	0.0174	-0.484
Mof_O 	O 	0.776	0.681	0.0071	-1.031
Mof_C 	C 	0.4968	0.9785	0.017	-0.194
Mof_O 	O 	0.4654	0.939	0.9818	-1.334
Mof_C 	C 	0.9825	0.9912	0.4834	-1.724
Mof_H 	H 	0.9698	0.9583	0.496	3.009
Mof_H 	H 	0.7571	0.6847	0.0056	1.081
Mof_H 	H 	0.4694	0.9598	0.0019	1.251
Mof_O 	O 	0.9725	0.9289	0.4935	-2.679
Mof_N 	N 	0.0175	0.0088	0.5166	0.091
Mof_Cu	Cu	0.74879	0.44778	0.20213	0.912
Mof_Cu	Cu	0.76013	0.51803	0.30605	0.909
Mof_Cu	Cu	0.95923	0.23112	0.19783	0.948
Mof_O 	O 	0.7425	0.3623	0.2473	-0.397
Mof_O 	O 	0.7548	0.4225	0.336	-0.39
Mof_O 	O 	0.7328	0.1002	0.2382	-0.374
Mof_O 	O 	0.7412	0.0419	0.3248	-0.406
Mof_O 	O 	0.68249	0.4719	0.1758	-0.333
Mof_O 	O 	0.6928	0.5308	0.2619	-0.339
Mof_O 	O 	0.4927	0.6593	0.1696	-0.29
Mof_O 	O 	0.5591	0.657	0.2607	-0.328
Mof_O 	O 	0.8155	0.4382	0.2468	-0.383
Mof_O 	O 	0.8277	0.4979	0.3342	-0.353
Mof_O 	O 	0.94586	0.3034	0.243	-0.368
Mof_O 	O 	0.01719	0.2945	0.325	-0.47
Mof_C 	C 	0.7475	0.368	0.3009	0.358
Mof_C 	C 	0.7433	0.2969	0.3299	0.02
Mof_C 	C 	0.7473	0.2963	0.3913	-0.138
Mof_H 	H 	0.7502	0.3392	0.413	0.161
Mof_C 	C 	0.7468	0.2314	0.4202	0.241
Mof_C 	C 	0.7424	0.1673	0.3878	-0.145
Mof_H 	H 	0.742	0.1239	0.4072	0.118
Mof_C 	C 	0.7384	0.1679	0.3264	0.003
Mof_C 	C 	0.7389	0.2327	0.2974	-0.037
Mof_H 	H 	0.7363	0.2331	0.2564	0.092
Mof_C 	C 	0.7374	0.0989	0.2972	0.334
Mof_C 	C 	0.669	0.5058	0.2051	0.136
Mof_C 	C 	0.62013	0.524	0.1741	0.618
Mof_C 	C 	0.60241	0.5688	0.205	-0.61
Mof_H 	H 	0.6217	0.585	0.2462	0.276
Mof_C 	C 	0.5558	0.5893	0.1744	0.628
Mof_C 	C 	0.52701	0.565	0.1129	-1.226
Mof_H 	H 	0.4959	0.5787	0.0924	0.587
Mof_C 	C 	0.5447	0.5202	0.082	1.99
Mof_C 	C 	0.5913	0.4997	0.1126	-1.219
Mof_H 	H 	0.6032	0.4698	0.0919	0.558
Mof_C 	C 	0.5362	0.6424	0.2038	0.078
Mof_H 	H 	0.5476	0.6841	0.1896	0.038
Mof_C 	C 	0.8427	0.4575	0.303	0.321
Mof_C 	C 	0.89321	0.4448	0.3307	0.014
Mof_C 	C 	0.91064	0.3972	0.3014	-0.045
Mof_H 	H 	0.8909	0.3777	0.2617	0.087
Mof_C 	C 	0.95758	0.3788	0.3314	0.018
Mof_C 	C 	0.9871	0.408	0.3907	-0.135
Mof_H 	H 	0.0185	0.3957	0.4108	0.116
Mof_C 	C 	0.9697	0.4556	0.42	0.233
Mof_C 	C 	0.9227	0.474	0.39	-0.131
Mof_H 	H 	0.9111	0.5059	0.4096	0.171
Mof_C 	C 	0.9795	0.3257	0.3008	0.347
Mof_C 	C 	0.7472	0.2266	0.4826	-0.288
Mof_O 	O 	0.724	0.181	0.4929	-0.954
Mof_C 	C 	0.0032	0.4785	0.483	-0.224
Mof_O 	O 	0.0346	0.439	0.5182	-1.155
Mof_C 	C 	0.5175	0.4912	0.0166	-3.607
Mof_H 	H 	0.5302	0.4583	0.004	5.025
Mof_H 	H 	0.7429	0.1847	0.4944	0.934
Mof_H 	H 	0.0306	0.4598	0.4981	1.096
Mof_O 	O 	0.5275	0.4289	0.0065	-4.177
Mof_N 	N 	0.4825	0.5088	0.9834	0.971
Mof_Cu	Cu	0.24879	0.94778	0.20213	0.919
Mof_Cu	Cu	0.26013	0.01803	0.30605	0.9
Mof_Cu	Cu	0.45923	0.73112	0.19783	0.941
Mof_O 	O 	0.2425	0.8623	0.2473	-0.4
Mof_O 	O 	0.2548	0.9225	0.336	-0.382
Mof_O 	O 	0.2328	0.6002	0.2382	-0.374
Mof_O 	O 	0.2412	0.5419	0.3248	-0.396
Mof_O 	O 	0.18249	0.9719	0.1758	-0.383
Mof_O 	O 	0.1928	0.0308	0.2619	-0.393
Mof_O 	O 	0.9927	0.1593	0.1696	-0.332
Mof_O 	O 	0.0591	0.157	0.2607	-0.387
Mof_O 	O 	0.3155	0.9382	0.2468	-0.376
Mof_O 	O 	0.3277	0.9979	0.3342	-0.333
Mof_O 	O 	0.44586	0.8034	0.243	-0.37
Mof_O 	O 	0.51719	0.7945	0.325	-0.468
Mof_C 	C 	0.2475	0.868	0.3009	0.355
Mof_C 	C 	0.2433	0.7969	0.3299	0.014
Mof_C 	C 	0.2473	0.7963	0.3913	-0.136
Mof_H 	H 	0.2502	0.8392	0.413	0.159
Mof_C 	C 	0.2468	0.7314	0.4202	0.23
Mof_C 	C 	0.2424	0.6673	0.3878	-0.143
Mof_H 	H 	0.242	0.6239	0.4072	0.118
Mof_C 	C 	0.2384	0.6679	0.3264	-0.001
Mof_C 	C 	0.2389	0.7327	0.2974	-0.038
Mof_H 	H 	0.2363	0.7331	0.2564	0.087
Mof_C 	C 	0.2374	0.5989	0.2972	0.333
Mof_C 	C 	0.169	0.0058	0.2051	0.334
Mof_C 	C 	0.12013	0.024	0.1741	0.037
Mof_C 	C 	0.10241	0.0688	0.205	-0.095
Mof_H 	H 	0.1217	0.085	0.2462	0.102
Mof_C 	C 	0.0558	0.0893	0.1744	0.095
Mof_C 	C 	0.02701	0.065	0.1129	-0.293
Mof_H 	H 	0.9959	0.0787	0.0924	0.243
Mof_C 	C 	0.0447	0.0202	0.082	0.483
Mof_C 	C 	0.0913	0.9997	0.1126	-0.22
Mof_H 	H 	0.1032	0.9698	0.0919	0.182
Mof_C 	C 	0.0362	0.1424	0.2038	0.301
Mof_H 	H 	0.0476	0.1841	0.1896	-0.007
Mof_C 	C 	0.3427	0.9575	0.303	0.317
Mof_C 	C 	0.39321	0.9448	0.3307	0.029
Mof_C 	C 	0.41064	0.8972	0.3014	-0.064
Mof_H 	H 	0.3909	0.8777	0.2617	0.093
Mof_C 	C 	0.45758	0.8788	0.3314	0.044
Mof_C 	C 	0.4871	0.908	0.3907	-0.198
Mof_H 	H 	0.5185	0.8957	0.4108	0.142
Mof_C 	C 	0.4697	0.9556	0.42	0.315
Mof_C 	C 	0.4227	0.974	0.39	-0.132
Mof_H 	H 	0.4111	0.0059	0.4096	0.155
Mof_C 	C 	0.4795	0.8257	0.3008	0.33
Mof_C 	C 	0.2472	0.7266	0.4826	-0.273
Mof_O 	O 	0.224	0.681	0.4929	-0.962
Mof_C 	C 	0.5032	0.9785	0.483	-0.414
Mof_O 	O 	0.5346	0.939	0.5182	-1.276
Mof_C 	C 	0.0175	0.9912	0.0166	-0.832
Mof_H 	H 	0.0302	0.9583	0.004	2.037
Mof_H 	H 	0.2429	0.6847	0.4944	0.933
Mof_H 	H 	0.5306	0.9598	0.4981	1.273
Mof_O 	O 	0.0275	0.9289	0.0065	-1.932
Mof_N 	N 	0.9825	0.0088	0.9834	-0.327
Mof_Cu	Cu	0.74879	0.55222	0.70213	0.914
Mof_Cu	Cu	0.76013	0.48197	0.80605	0.91
Mof_Cu	Cu	0.95923	0.76888	0.69783	0.949
Mof_O 	O 	0.7425	0.6377	0.7473	-0.412
Mof_O 	O 	0.7548	0.5775	0.836	-0.402
Mof_O 	O 	0.7328	0.8998	0.7382	-0.373
Mof_O 	O 	0.7412	0.9581	0.8248	-0.387
Mof_O 	O 	0.68249	0.5281	0.6758	-0.452
Mof_O 	O 	0.6928	0.4692	0.7619	-0.424
Mof_O 	O 	0.4927	0.3407	0.6696	-0.328
Mof_O 	O 	0.5591	0.343	0.7607	-0.413
Mof_O 	O 	0.8155	0.5618	0.7468	-0.382
Mof_O 	O 	0.8277	0.5021	0.8342	-0.353
Mof_O 	O 	0.94586	0.6966	0.743	-0.366
Mof_O 	O 	0.01719	0.7055	0.825	-0.469
Mof_C 	C 	0.7475	0.632	0.8009	0.372
Mof_C 	C 	0.7433	0.7031	0.8299	-0.037
Mof_C 	C 	0.7473	0.7037	0.8913	-0.054
Mof_H 	H 	0.7502	0.6608	0.913	0.116
Mof_C 	C 	0.7468	0.7686	0.9202	0.096
Mof_C 	C 	0.7424	0.8327	0.8878	-0.061
Mof_H 	H 	0.742	0.8761	0.9072	0.089
Mof_C 	C 	0.7384	0.8321	0.8264	-0.047
Mof_C 	C 	0.7389	0.7673	0.7974	0.006
Mof_H 	H 	0.7363	0.7669	0.7564	0.07
Mof_C 	C 	0.7374	0.9011	0.7972	0.348
Mof_C 	C 	0.669	0.4942	0.7051	0.483
Mof_C 	C 	0.62013	0.476	0.6741	-0.224
Mof_C 	C 	0.60241	0.4312	0.705	0.17
Mof_H 	H 	0.6217	0.415	0.7462	0.015
Mof_C 	C 	0.5558	0.4107	0.6744	-0.155
Mof_C 	C 	0.52701	0.435	0.6129	0.263
Mof_H 	H 	0.4959	0.4213	0.5924	0.122
Mof_C 	C 	0.5447	0.4798	0.582	-0.331
Mof_C 	C 	0.5913	0.5003	0.6126	0.264
Mof_H 	H 	0.6032	0.5302	0.5919	-0.01
Mof_C 	C 	0.5362	0.3576	0.7038	0.404
Mof_H 	H 	0.5476	0.3159	0.6896	-0.003
Mof_C 	C 	0.8427	0.5425	0.803	0.303
Mof_C 	C 	0.89321	0.5552	0.8307	0.062
Mof_C 	C 	0.91064	0.6028	0.8014	-0.091
Mof_H 	H 	0.8909	0.6223	0.7617	0.101
Mof_C 	C 	0.95758	0.6212	0.8314	0.062
Mof_C 	C 	0.9871	0.592	0.8907	-0.224
Mof_H 	H 	0.0185	0.6043	0.9108	0.14
Mof_C 	C 	0.9697	0.5444	0.92	0.385
Mof_C 	C 	0.9227	0.526	0.89	-0.231
Mof_H 	H 	0.9111	0.4941	0.9096	0.203
Mof_C 	C 	0.9795	0.6743	0.8008	0.336
Mof_C 	C 	0.7472	0.7734	0.9826	-0.028
Mof_O 	O 	0.724	0.819	0.9929	-0.895
Mof_C 	C 	0.0032	0.5215	0.983	-0.545
Mof_O 	O 	0.0346	0.561	0.0182	-1.107
Mof_H 	H 	0.5302	0.5417	0.504	-0.566
Mof_H 	H 	0.7429	0.8153	0.9944	0.775
Mof_H 	H 	0.0306	0.5402	0.9981	1.166
Mof_O 	O 	0.5275	0.5711	0.5065	0.223
Mof_Cu	Cu	0.24879	0.05222	0.70213	0.907
Mof_Cu	Cu	0.26013	0.98197	0.80605	0.92
Mof_Cu	Cu	0.45923	0.26888	0.69783	0.953
Mof_O 	O 	0.2425	0.1377	0.7473	-0.412
Mof_O 	O 	0.2548	0.0775	0.836	-0.411
Mof_O 	O 	0.2328	0.3998	0.7382	-0.378
Mof_O 	O 	0.2412	0.4581	0.8248	-0.4
Mof_O 	O 	0.18249	0.0281	0.6758	-0.454
Mof_O 	O 	0.1928	0.9692	0.7619	-0.405
Mof_O 	O 	0.9927	0.8407	0.6696	-0.328
Mof_O 	O 	0.0591	0.843	0.7607	-0.393
Mof_O 	O 	0.3155	0.0618	0.7468	-0.385
Mof_O 	O 	0.3277	0.0021	0.8342	-0.366
Mof_O 	O 	0.44586	0.1966	0.743	-0.362
Mof_O 	O 	0.51719	0.2055	0.825	-0.45
Mof_C 	C 	0.2475	0.132	0.8009	0.377
Mof_C 	C 	0.2433	0.2031	0.8299	-0.043
Mof_C 	C 	0.2473	0.2037	0.8913	-0.041
Mof_H 	H 	0.2502	0.1608	0.913	0.11
Mof_C 	C 	0.2468	0.2686	0.9202	0.081
Mof_C 	C 	0.2424	0.3327	0.8878	-0.047
Mof_H 	H 	0.242	0.3761	0.9072	0.083
Mof_C 	C 	0.2384	0.3321	0.8264	-0.055
Mof_C 	C 	0.2389	0.2673	0.7974	0.016
Mof_H 	H 	0.2363	0.2669	0.7564	0.069
Mof_C 	C 	0.2374	0.4011	0.7972	0.354
Mof_C 	C 	0.169	0.9942	0.7051	0.421
Mof_C 	C 	0.12013	0.976	0.6741	0.015
Mof_C 	C 	0.10241	0.9312	0.705	-0.044
Mof_H 	H 	0.1217	0.915	0.7462	0.085
Mof_C 	C 	0.0558	0.9107	0.6744	0.036
Mof_C 	C 	0.02701	0.935	0.6129	-0.139
Mof_H 	H 	0.9959	0.9213	0.5924	0.201
Mof_C 	C 	0.0447	0.9798	0.582	0.245
Mof_C 	C 	0.0913	0.0003	0.6126	-0.175
Mof_H 	H 	0.1032	0.0302	0.5919	0.143
Mof_C 	C 	0.0362	0.8576	0.7038	0.322
Mof_H 	H 	0.0476	0.8159	0.6896	-0.007
Mof_C 	C 	0.3427	0.0425	0.803	0.297
Mof_C 	C 	0.39321	0.0552	0.8307	0.078
Mof_C 	C 	0.41064	0.1028	0.8014	-0.103
Mof_H 	H 	0.3909	0.1223	0.7617	0.106
Mof_C 	C 	0.45758	0.1212	0.8314	0.078
Mof_C 	C 	0.4871	0.092	0.8907	-0.235
Mof_H 	H 	0.5185	0.1043	0.9108	0.156
Mof_C 	C 	0.4697	0.0444	0.92	0.368
Mof_C 	C 	0.4227	0.026	0.89	-0.271
Mof_H 	H 	0.4111	0.9941	0.9096	0.236
Mof_C 	C 	0.4795	0.1743	0.8008	0.321
Mof_C 	C 	0.2472	0.2734	0.9826	0.003
Mof_O 	O 	0.224	0.319	0.9929	-0.89
Mof_C 	C 	0.5032	0.0215	0.983	-0.459
Mof_O 	O 	0.5346	0.061	0.0182	-1.036
Mof_H 	H 	0.0302	0.0417	0.504	1.233
Mof_H 	H 	0.2429	0.3153	0.9944	0.759
Mof_H 	H 	0.5306	0.0402	0.9981	1.08
Mof_O 	O 	0.0275	0.0711	0.5065	-1.343
Mof_Cu	Cu	0.25121	0.55222	0.79787	0.912
Mof_Cu	Cu	0.23987	0.48197	0.69395	0.911
Mof_Cu	Cu	0.04077	0.76888	0.80217	0.945
Mof_O 	O 	0.2575	0.6377	0.7527	-0.408
Mof_O 	O 	0.2452	0.5775	0.664	-0.394
Mof_O 	O 	0.2672	0.8998	0.7618	-0.371
Mof_O 	O 	0.2588	0.9581	0.6752	-0.379
Mof_O 	O 	0.31751	0.5281	0.8242	-0.443
Mof_O 	O 	0.3072	0.4692	0.7381	-0.413
Mof_O 	O 	0.5073	0.3407	0.8304	-0.341
Mof_O 	O 	0.4409	0.343	0.7393	-0.403
Mof_O 	O 	0.1845	0.5618	0.7532	-0.385
Mof_O 	O 	0.1723	0.5021	0.6658	-0.351
Mof_O 	O 	0.05414	0.6966	0.757	-0.366
Mof_O 	O 	0.98281	0.7055	0.675	-0.443
Mof_C 	C 	0.2525	0.632	0.6991	0.36
Mof_C 	C 	0.2567	0.7031	0.6701	0.004
Mof_C 	C 	0.2527	0.7037	0.6087	-0.123
Mof_H 	H 	0.2498	0.6608	0.587	0.15
Mof_C 	C 	0.2532	0.7686	0.5798	0.214
Mof_C 	C 	0.2576	0.8327	0.6122	-0.131
Mof_H 	H 	0.258	0.8761	0.5928	0.12
Mof_C 	C 	0.2616	0.8321	0.6736	-0.005
Mof_C 	C 	0.2611	0.7673	0.7026	-0.03
Mof_H 	H 	0.2637	0.7669	0.7436	0.082
Mof_C 	C 	0.2626	0.9011	0.7028	0.334
Mof_C 	C 	0.331	0.4942	0.7949	0.443
Mof_C 	C 	0.37987	0.476	0.8259	-0.132
Mof_C 	C 	0.39759	0.4312	0.795	0.08
Mof_H 	H 	0.3783	0.415	0.7538	0.045
Mof_C 	C 	0.4442	0.4107	0.8256	-0.08
Mof_C 	C 	0.47299	0.435	0.8871	0.082
Mof_H 	H 	0.5041	0.4213	0.9076	0.138
Mof_C 	C 	0.4553	0.4798	0.918	-0.069
Mof_C 	C 	0.4087	0.5003	0.8874	0.085
Mof_H 	H 	0.3968	0.5302	0.9081	0.053
Mof_C 	C 	0.4638	0.3576	0.7962	0.377
Mof_H 	H 	0.4524	0.3159	0.8104	-0.01
Mof_C 	C 	0.1573	0.5425	0.697	0.307
Mof_C 	C 	0.10679	0.5552	0.6693	0.053
Mof_C 	C 	0.08936	0.6028	0.6986	-0.09
Mof_H 	H 	0.1091	0.6223	0.7383	0.099
Mof_C 	C 	0.04242	0.6212	0.6686	0.073
Mof_C 	C 	0.0129	0.592	0.6093	-0.239
Mof_H 	H 	0.9815	0.6043	0.5892	0.166
Mof_C 	C 	0.0303	0.5444	0.58	0.345
Mof_C 	C 	0.0773	0.526	0.61	-0.205
Mof_H 	H 	0.0889	0.4941	0.5904	0.194
Mof_C 	C 	0.0205	0.6743	0.6992	0.311
Mof_C 	C 	0.2528	0.7734	0.5174	-0.238
Mof_O 	O 	0.276	0.819	0.5071	-0.961
Mof_C 	C 	0.9968	0.5215	0.517	-0.436
Mof_O 	O 	0.9654	0.561	0.4818	-1.236
Mof_H 	H 	0.4698	0.5417	0.996	0.445
Mof_H 	H 	0.2571	0.8153	0.5056	0.922
Mof_H 	H 	0.9694	0.5402	0.5019	1.25
Mof_O 	O 	0.4725	0.5711	0.9935	-0.674
Mof_Cu	Cu	0.75121	0.05222	0.79787	0.905
Mof_Cu	Cu	0.73987	0.98197	0.69395	0.922
Mof_Cu	Cu	0.54077	0.26888	0.80217	0.949
Mof_O 	O 	0.7575	0.1377	0.7527	-0.408
Mof_O 	O 	0.7452	0.0775	0.664	-0.402
Mof_O 	O 	0.7672	0.3998	0.7618	-0.374
Mof_O 	O 	0.7588	0.4581	0.6752	-0.39
Mof_O 	O 	0.81751	0.0281	0.8242	-0.453
Mof_O 	O 	0.8072	0.9692	0.7381	-0.4
Mof_O 	O 	0.0073	0.8407	0.8304	-0.357
Mof_O 	O 	0.9409	0.843	0.7393	-0.395
Mof_O 	O 	0.6845	0.0618	0.7532	-0.39
Mof_O 	O 	0.6723	0.0021	0.6658	-0.366
Mof_O 	O 	0.55414	0.1966	0.757	-0.365
Mof_O 	O 	0.48281	0.2055	0.675	-0.441
Mof_C 	C 	0.7525	0.132	0.6991	0.364
Mof_C 	C 	0.7567	0.2031	0.6701	0.001
Mof_C 	C 	0.7527	0.2037	0.6087	-0.112
Mof_H 	H 	0.7498	0.1608	0.587	0.146
Mof_C 	C 	0.7532	0.2686	0.5798	0.206
Mof_C 	C 	0.7576	0.3327	0.6122	-0.119
Mof_H 	H 	0.758	0.3761	0.5928	0.117
Mof_C 	C 	0.7616	0.3321	0.6736	-0.008
Mof_C 	C 	0.7611	0.2673	0.7026	-0.022
Mof_H 	H 	0.7637	0.2669	0.7436	0.082
Mof_C 	C 	0.7626	0.4011	0.7028	0.34
Mof_C 	C 	0.831	0.9942	0.7949	0.412
Mof_C 	C 	0.87987	0.976	0.8259	0.036
Mof_C 	C 	0.89759	0.9312	0.795	-0.057
Mof_H 	H 	0.8783	0.915	0.7538	0.091
Mof_C 	C 	0.9442	0.9107	0.8256	0.034
Mof_C 	C 	0.97299	0.935	0.8871	-0.153
Mof_H 	H 	0.0041	0.9213	0.9076	0.171
Mof_C 	C 	0.9553	0.9798	0.918	0.321
Mof_C 	C 	0.9087	0.0003	0.8874	-0.227
Mof_H 	H 	0.8968	0.0302	0.9081	0.16
Mof_C 	C 	0.9638	0.8576	0.7962	0.349
Mof_H 	H 	0.9524	0.8159	0.8104	-0.016
Mof_C 	C 	0.6573	0.0425	0.697	0.312
Mof_C 	C 	0.60679	0.0552	0.6693	0.043
Mof_C 	C 	0.58936	0.1028	0.6986	-0.068
Mof_H 	H 	0.6091	0.1223	0.7383	0.094
Mof_C 	C 	0.54242	0.1212	0.6686	0.051
Mof_C 	C 	0.5129	0.092	0.6093	-0.166
Mof_H 	H 	0.4815	0.1043	0.5892	0.145
Mof_C 	C 	0.5303	0.0444	0.58	0.265
Mof_C 	C 	0.5773	0.026	0.61	-0.199
Mof_H 	H 	0.5889	0.9941	0.5904	0.213
Mof_C 	C 	0.5205	0.1743	0.6992	0.333
Mof_C 	C 	0.7528	0.2734	0.5174	-0.214
Mof_O 	O 	0.776	0.319	0.5071	-0.956
Mof_C 	C 	0.4968	0.0215	0.517	-0.231
Mof_O 	O 	0.4654	0.061	0.4818	-1.068
Mof_H 	H 	0.9698	0.0417	0.996	1.623
Mof_H 	H 	0.7571	0.3153	0.5056	0.91
Mof_H 	H 	0.4694	0.0402	0.5019	1.037
Mof_O 	O 	0.9725	0.0711	0.9935	-1.695
_end
