data_functionalizedCrystal
_audit_creation_method	'EQeq! by Chris Wilmer'
_symmetry_space_group_name_H-M	'P1'
_symmetry_Int_Tables_number	1
_symmetry_cell_setting	triclinic
loop_
_symmetry_equiv_pos_as_xyz
  x,y,z
_cell_length_a	25.117
_cell_length_b	5.7802
_cell_length_c	21.993
_cell_angle_alpha	90
_cell_angle_beta	120.744
_cell_angle_gamma	90
loop_
_atom_site_label
_atom_site_type_symbol
_atom_site_fract_x
_atom_site_fract_y
_atom_site_fract_z
_atom_site_charge
Mof_C 	C 	0.5259	0.376	0.3841	0.028
Mof_H 	H 	0.5463	0.5165	0.3997	-0.026
Mof_C 	C 	0.524	0.268	0.3285	-0.125
Mof_H 	H 	0.5462	0.329	0.3089	0.056
Mof_C 	C 	0.4887	0.0628	0.2993	0.015
Mof_C 	C 	0.4609	0.975	0.3333	-0.072
Mof_H 	H 	0.4384	0.8381	0.3169	0.047
Mof_C 	C 	0.4653	0.082	0.391	0.012
Mof_H 	H 	0.4449	0.0167	0.4121	0.003
Mof_C 	C 	0.4848	0.956	0.2347	-0.059
Mof_H 	H 	0.4948	0.793	0.2429	0.045
Mof_H 	H 	0.5148	0.0297	0.2256	0.04
Mof_C 	C 	0.4146	0.8828	0.1056	-0.42
Mof_H 	H 	0.433	0.7279	0.1166	0.166
Mof_C 	C 	0.4485	0.0336	0.0789	0.356
Mof_C 	C 	0.3459	0.865	0.0479	0.903
Mof_H 	H 	0.3254	0.7855	0.0698	-0.275
Mof_C 	C 	0.3366	0.712	0.9871	-1.285
Mof_H 	H 	0.3385	0.8047	0.952	0.413
Mof_H 	H 	0.2969	0.6377	0.9664	0.391
Mof_H 	H 	0.3686	0.5964	0.0044	0.379
Mof_C 	C 	0.3127	0.097	0.0211	-1.607
Mof_H 	H 	0.3306	0.1801	0.9982	0.503
Mof_H 	H 	0.3171	0.1855	0.0603	0.482
Mof_H 	H 	0.2695	0.0699	0.988	0.498
Mof_C 	C 	0.1292	0.85	0.1095	0.1
Mof_H 	H 	0.117	0.9775	0.0794	-0.065
Mof_C 	C 	0.1887	0.851	0.1687	-0.227
Mof_H 	H 	0.2143	0.9788	0.1785	0.09
Mof_C 	C 	0.2097	0.66	0.2128	0.157
Mof_C 	C 	0.1685	0.481	0.195	-0.229
Mof_H 	H 	0.1804	0.3491	0.2231	0.092
Mof_C 	C 	0.1101	0.493	0.1365	0.097
Mof_H 	H 	0.0839	0.367	0.126	-0.037
Mof_C 	C 	0.2718	0.663	0.2772	-0.195
Mof_H 	H 	0.2939	0.8011	0.2775	0.086
Mof_H 	H 	0.2953	0.5294	0.2774	0.087
Mof_C 	C 	0.3239	0.7489	0.407	-0.405
Mof_H 	H 	0.3353	0.8975	0.3953	0.17
Mof_C 	C 	0.3771	0.5785	0.4282	0.405
Mof_C 	C 	0.3103	0.7871	0.466	0.751
Mof_H 	H 	0.2707	0.8705	0.4443	-0.224
Mof_C 	C 	0.3576	0.948	0.5237	-1.141
Mof_H 	H 	0.3392	0.0207	0.5477	0.333
Mof_H 	H 	0.3704	0.0638	0.5026	0.353
Mof_H 	H 	0.393	0.8592	0.557	0.371
Mof_C 	C 	0.2999	0.565	0.4962	-1.23
Mof_H 	H 	0.336	0.4686	0.5141	0.377
Mof_H 	H 	0.2647	0.4842	0.4595	0.373
Mof_H 	H 	0.2926	0.6027	0.5338	0.381
Mof_N 	N 	0.4974	0.2778	0.4186	-0.263
Mof_N 	N 	0.42	0.9865	0.1707	-0.144
Mof_H 	H 	0.3924	0.9191	0.1794	0.088
Mof_H 	H 	0.411	0.1383	0.1633	0.08
Mof_N 	N 	0.0888	0.68	0.0935	-0.286
Mof_N 	N 	0.2663	0.6595	0.3422	-0.143
Mof_H 	H 	0.259	0.5136	0.3503	0.087
Mof_H 	H 	0.2337	0.7468	0.3344	0.085
Mof_O 	O 	0.4307	0.6748	0.4684	-0.48
Mof_O 	O 	0.3669	0.377	0.41	-0.378
Mof_O 	O 	0.466	0.9254	0.0417	-0.454
Mof_O 	O 	0.4571	0.2441	0.0936	-0.376
Mof_C 	C 	0.0259	0.876	0.3841	0.034
Mof_H 	H 	0.0463	0.0165	0.3997	-0.045
Mof_C 	C 	0.024	0.768	0.3285	-0.258
Mof_H 	H 	0.0462	0.829	0.3089	0.087
Mof_C 	C 	0.9887	0.5628	0.2993	0.18
Mof_C 	C 	0.9609	0.475	0.3333	-0.221
Mof_H 	H 	0.9384	0.3381	0.3169	0.101
Mof_C 	C 	0.9653	0.582	0.391	0.123
Mof_H 	H 	0.9449	0.5167	0.4121	-0.02
Mof_C 	C 	0.9848	0.456	0.2347	-0.092
Mof_H 	H 	0.9948	0.293	0.2429	0.067
Mof_H 	H 	0.0148	0.5297	0.2256	0.019
Mof_C 	C 	0.9146	0.3828	0.1056	-0.43
Mof_H 	H 	0.933	0.2279	0.1166	0.174
Mof_C 	C 	0.9485	0.5336	0.0789	0.398
Mof_C 	C 	0.8459	0.365	0.0479	0.864
Mof_H 	H 	0.8254	0.2855	0.0698	-0.266
Mof_C 	C 	0.8366	0.212	0.9871	-1.26
Mof_H 	H 	0.8385	0.3047	0.952	0.4
Mof_H 	H 	0.7969	0.1377	0.9664	0.378
Mof_H 	H 	0.8686	0.0964	0.0044	0.373
Mof_C 	C 	0.8127	0.597	0.0211	-1.528
Mof_H 	H 	0.8306	0.6801	0.9982	0.482
Mof_H 	H 	0.8171	0.6855	0.0603	0.463
Mof_H 	H 	0.7695	0.5699	0.988	0.477
Mof_C 	C 	0.6292	0.35	0.1095	0.094
Mof_H 	H 	0.617	0.4775	0.0794	-0.064
Mof_C 	C 	0.6887	0.351	0.1687	-0.218
Mof_H 	H 	0.7143	0.4788	0.1785	0.084
Mof_C 	C 	0.7097	0.16	0.2128	0.136
Mof_C 	C 	0.6685	0.981	0.195	-0.206
Mof_H 	H 	0.6804	0.8491	0.2231	0.092
Mof_C 	C 	0.6101	0.993	0.1365	0.111
Mof_H 	H 	0.5839	0.867	0.126	-0.025
Mof_C 	C 	0.7718	0.163	0.2772	-0.185
Mof_H 	H 	0.7939	0.3011	0.2775	0.082
Mof_H 	H 	0.7953	0.0294	0.2774	0.085
Mof_C 	C 	0.8239	0.2489	0.407	-0.471
Mof_H 	H 	0.8353	0.3975	0.3953	0.186
Mof_C 	C 	0.8771	0.0785	0.4282	0.418
Mof_C 	C 	0.8103	0.2871	0.466	0.931
Mof_H 	H 	0.7707	0.3705	0.4443	-0.278
Mof_C 	C 	0.8576	0.448	0.5237	-1.461
Mof_H 	H 	0.8392	0.5207	0.5477	0.441
Mof_H 	H 	0.8704	0.5638	0.5026	0.462
Mof_H 	H 	0.893	0.3592	0.557	0.468
Mof_C 	C 	0.7999	0.065	0.4962	-1.462
Mof_H 	H 	0.836	0.9686	0.5141	0.447
Mof_H 	H 	0.7647	0.9842	0.4595	0.453
Mof_H 	H 	0.7926	0.1027	0.5338	0.448
Mof_N 	N 	0.9974	0.7778	0.4186	-0.251
Mof_N 	N 	0.92	0.4865	0.1707	-0.152
Mof_H 	H 	0.8924	0.4191	0.1794	0.085
Mof_H 	H 	0.911	0.6383	0.1633	0.098
Mof_N 	N 	0.5888	0.18	0.0935	-0.287
Mof_N 	N 	0.7663	0.1595	0.3422	-0.135
Mof_H 	H 	0.759	0.0136	0.3503	0.084
Mof_H 	H 	0.7337	0.2468	0.3344	0.084
Mof_O 	O 	0.9307	0.1748	0.4684	-0.47
Mof_O 	O 	0.8669	0.877	0.41	-0.376
Mof_O 	O 	0.966	0.4254	0.0417	-0.452
Mof_O 	O 	0.9571	0.7441	0.0936	-0.361
Mof_C 	C 	0.4741	0.376	0.6159	0.029
Mof_H 	H 	0.4537	0.5165	0.6003	-0.025
Mof_C 	C 	0.476	0.268	0.6715	-0.124
Mof_H 	H 	0.4538	0.329	0.6911	0.056
Mof_C 	C 	0.5113	0.0628	0.7007	0.014
Mof_C 	C 	0.5391	0.975	0.6667	-0.07
Mof_H 	H 	0.5616	0.8381	0.6831	0.047
Mof_C 	C 	0.5347	0.082	0.609	0.012
Mof_H 	H 	0.5551	0.0167	0.5879	0.003
Mof_C 	C 	0.5152	0.956	0.7653	-0.057
Mof_H 	H 	0.5052	0.793	0.7571	0.044
Mof_H 	H 	0.4852	0.0297	0.7744	0.039
Mof_C 	C 	0.5854	0.8828	0.8944	-0.404
Mof_H 	H 	0.567	0.7279	0.8834	0.164
Mof_C 	C 	0.5515	0.0336	0.9211	0.356
Mof_C 	C 	0.6541	0.865	0.9521	0.878
Mof_H 	H 	0.6746	0.7855	0.9302	-0.262
Mof_C 	C 	0.6634	0.712	0.0129	-1.497
Mof_H 	H 	0.6615	0.8047	0.048	0.466
Mof_H 	H 	0.7031	0.6377	0.0336	0.44
Mof_H 	H 	0.6314	0.5964	0.9956	0.48
Mof_C 	C 	0.6873	0.097	0.9789	-1.206
Mof_H 	H 	0.6694	0.1801	0.0018	0.346
Mof_H 	H 	0.6829	0.1855	0.9397	0.367
Mof_H 	H 	0.7305	0.0699	0.012	0.346
Mof_C 	C 	0.8708	0.85	0.8905	0.098
Mof_H 	H 	0.883	0.9775	0.9206	-0.043
Mof_C 	C 	0.8113	0.851	0.8313	-0.219
Mof_H 	H 	0.7857	0.9788	0.8215	0.09
Mof_C 	C 	0.7903	0.66	0.7872	0.153
Mof_C 	C 	0.8315	0.481	0.805	-0.219
Mof_H 	H 	0.8196	0.3491	0.7769	0.093
Mof_C 	C 	0.8899	0.493	0.8635	0.098
Mof_H 	H 	0.9161	0.367	0.874	-0.009
Mof_C 	C 	0.7282	0.663	0.7228	-0.191
Mof_H 	H 	0.7061	0.8011	0.7225	0.085
Mof_H 	H 	0.7047	0.5294	0.7226	0.087
Mof_C 	C 	0.6761	0.7489	0.593	-0.405
Mof_H 	H 	0.6647	0.8975	0.6047	0.17
Mof_C 	C 	0.6229	0.5785	0.5718	0.405
Mof_C 	C 	0.6897	0.7871	0.534	0.752
Mof_H 	H 	0.7293	0.8705	0.5557	-0.224
Mof_C 	C 	0.6424	0.948	0.4763	-1.143
Mof_H 	H 	0.6608	0.0207	0.4523	0.333
Mof_H 	H 	0.6296	0.0638	0.4974	0.354
Mof_H 	H 	0.607	0.8592	0.443	0.372
Mof_C 	C 	0.7001	0.565	0.5038	-1.232
Mof_H 	H 	0.664	0.4686	0.4859	0.378
Mof_H 	H 	0.7353	0.4842	0.5405	0.374
Mof_H 	H 	0.7074	0.6027	0.4662	0.382
Mof_N 	N 	0.5026	0.2778	0.5814	-0.263
Mof_N 	N 	0.58	0.9865	0.8293	-0.148
Mof_H 	H 	0.6076	0.9191	0.8206	0.09
Mof_H 	H 	0.589	0.1383	0.8367	0.083
Mof_N 	N 	0.9112	0.68	0.9065	-0.258
Mof_N 	N 	0.7337	0.6595	0.6578	-0.145
Mof_H 	H 	0.741	0.5136	0.6497	0.089
Mof_H 	H 	0.7663	0.7468	0.6656	0.088
Mof_O 	O 	0.5693	0.6748	0.5316	-0.48
Mof_O 	O 	0.6331	0.377	0.59	-0.377
Mof_O 	O 	0.534	0.9254	0.9583	-0.433
Mof_O 	O 	0.5429	0.2441	0.9064	-0.366
Mof_C 	C 	0.9741	0.876	0.6159	0.108
Mof_H 	H 	0.9537	0.0165	0.6003	-0.047
Mof_C 	C 	0.976	0.768	0.6715	-0.145
Mof_H 	H 	0.9538	0.829	0.6911	0.073
Mof_C 	C 	0.0113	0.5628	0.7007	0.093
Mof_C 	C 	0.0391	0.475	0.6667	-0.206
Mof_H 	H 	0.0616	0.3381	0.6831	0.085
Mof_C 	C 	0.0347	0.582	0.609	0.082
Mof_H 	H 	0.0551	0.5167	0.5879	-0.022
Mof_C 	C 	0.0152	0.456	0.7653	-0.261
Mof_H 	H 	0.0052	0.293	0.7571	0.083
Mof_H 	H 	0.9852	0.5297	0.7744	0.15
Mof_C 	C 	0.0854	0.3828	0.8944	-0.426
Mof_H 	H 	0.067	0.2279	0.8834	0.163
Mof_C 	C 	0.0515	0.5336	0.9211	0.395
Mof_C 	C 	0.1541	0.365	0.9521	0.841
Mof_H 	H 	0.1746	0.2855	0.9302	-0.255
Mof_C 	C 	0.1634	0.212	0.0129	-1.463
Mof_H 	H 	0.1615	0.3047	0.048	0.45
Mof_H 	H 	0.2031	0.1377	0.0336	0.425
Mof_H 	H 	0.1314	0.0964	0.9956	0.468
Mof_C 	C 	0.1873	0.597	0.9789	-1.132
Mof_H 	H 	0.1694	0.6801	0.0018	0.328
Mof_H 	H 	0.1829	0.6855	0.9397	0.349
Mof_H 	H 	0.2305	0.5699	0.012	0.326
Mof_C 	C 	0.3708	0.35	0.8905	0.09
Mof_H 	H 	0.383	0.4775	0.9206	-0.05
Mof_C 	C 	0.3113	0.351	0.8313	-0.214
Mof_H 	H 	0.2857	0.4788	0.8215	0.084
Mof_C 	C 	0.2903	0.16	0.7872	0.134
Mof_C 	C 	0.3315	0.981	0.805	-0.204
Mof_H 	H 	0.3196	0.8491	0.7769	0.092
Mof_C 	C 	0.3899	0.993	0.8635	0.113
Mof_H 	H 	0.4161	0.867	0.874	-0.021
Mof_C 	C 	0.2282	0.163	0.7228	-0.184
Mof_H 	H 	0.2061	0.3011	0.7225	0.081
Mof_H 	H 	0.2047	0.0294	0.7226	0.084
Mof_C 	C 	0.1761	0.2489	0.593	-0.461
Mof_H 	H 	0.1647	0.3975	0.6047	0.181
Mof_C 	C 	0.1229	0.0785	0.5718	0.421
Mof_C 	C 	0.1897	0.2871	0.534	0.895
Mof_H 	H 	0.2293	0.3705	0.5557	-0.267
Mof_C 	C 	0.1424	0.448	0.4763	-1.398
Mof_H 	H 	0.1608	0.5207	0.4523	0.419
Mof_H 	H 	0.1296	0.5638	0.4974	0.436
Mof_H 	H 	0.107	0.3592	0.443	0.433
Mof_C 	C 	0.2001	0.065	0.5038	-1.422
Mof_H 	H 	0.164	0.9686	0.4859	0.433
Mof_H 	H 	0.2353	0.9842	0.5405	0.441
Mof_H 	H 	0.2074	0.1027	0.4662	0.434
Mof_N 	N 	0.0026	0.7778	0.5814	-0.316
Mof_N 	N 	0.08	0.4865	0.8293	-0.136
Mof_H 	H 	0.1076	0.4191	0.8206	0.085
Mof_H 	H 	0.089	0.6383	0.8367	0.09
Mof_N 	N 	0.4112	0.18	0.9065	-0.279
Mof_N 	N 	0.2337	0.1595	0.6578	-0.137
Mof_H 	H 	0.241	0.0136	0.6497	0.085
Mof_H 	H 	0.2663	0.2468	0.6656	0.085
Mof_O 	O 	0.0693	0.1748	0.5316	-0.505
Mof_O 	O 	0.1331	0.877	0.59	-0.384
Mof_O 	O 	0.034	0.4254	0.9583	-0.475
Mof_O 	O 	0.0429	0.7441	0.9064	-0.387
Mof_Zn	Zn	0.5	0.169	-0	1.171
Mof_Zn	Zn	-0	0.669	-0	1.159
Mof_Zn	Zn	0.5	0.4509	0.5	1.2
Mof_Zn	Zn	2.48068e-33	0.9509	0.5	1.182
_end
