data_functionalizedCrystal
_audit_creation_method	'EQeq! by Chris Wilmer'
_symmetry_space_group_name_H-M	'P1'
_symmetry_Int_Tables_number	1
_symmetry_cell_setting	triclinic
loop_
_symmetry_equiv_pos_as_xyz
  x,y,z
_cell_length_a	13.9306
_cell_length_b	13.9306
_cell_length_c	24.0435
_cell_angle_alpha	90
_cell_angle_beta	90
_cell_angle_gamma	120
loop_
_atom_site_label
_atom_site_type_symbol
_atom_site_fract_x
_atom_site_fract_y
_atom_site_fract_z
_atom_site_charge
Mof_In	In	0.29304	0.4414	0.47128	2.827
Mof_P 	P 	0.12005	0.4922	0.54439	0.581
Mof_P 	P 	0.16657	0.19116	0.40118	0.654
Mof_O 	O 	0.144	0.4313	0.4984	-0.798
Mof_O 	O 	0.1894	0.3055	0.41794	-0.711
Mof_O 	O 	0.1725	0.4795	0.6003	-0.427
Mof_H 	H 	0.1466	0.4135	0.6074	0.16
Mof_H 	H 	0.3845	0.6589	0.3166	0.99
Mof_O 	O 	0.3185	0.5555	0.4088	-0.851
Mof_O 	O 	0.9974	0.4368	0.555	-0.573
Mof_O 	O 	0.1402	0.1129	0.45101	-0.649
Mof_O 	O 	0.0715	0.1472	0.3584	-0.613
Mof_O 	O 	0.2661	0.1956	0.36888	-0.477
Mof_H 	H 	0.3214	0.2238	0.3887	0.184
Mof_O 	O 	0.1731	0.6156	0.53409	-0.703
Mof_In	In	0.5586	0.85164	0.47128	2.997
Mof_P 	P 	0.5078	0.62785	0.54439	0.738
Mof_P 	P 	0.80884	0.97541	0.40118	0.923
Mof_O 	O 	0.5687	0.7127	0.4984	-0.787
Mof_O 	O 	0.6945	0.8839	0.41794	-0.702
Mof_O 	O 	0.5205	0.693	0.6003	-0.432
Mof_H 	H 	0.5865	0.7331	0.6074	0.215
Mof_H 	H 	0.3411	0.7256	0.3166	0.997
Mof_O 	O 	0.4445	0.763	0.4088	-0.851
Mof_O 	O 	0.5632	0.5606	0.555	-0.736
Mof_O 	O 	0.8871	0.0273	0.45101	-0.636
Mof_O 	O 	0.8528	0.9243	0.3584	-0.387
Mof_O 	O 	0.8044	0.0705	0.36888	-0.564
Mof_H 	H 	0.7762	0.0976	0.3887	0.205
Mof_O 	O 	0.3844	0.5575	0.53409	-0.706
Mof_In	In	0.14836	0.70696	0.47128	2.735
Mof_P 	P 	0.37215	0.87995	0.54439	0.888
Mof_P 	P 	0.02459	0.83343	0.40118	0.377
Mof_O 	O 	0.2873	0.856	0.4984	-0.745
Mof_O 	O 	0.1161	0.8106	0.41794	-0.64
Mof_O 	O 	0.307	0.8275	0.6003	-0.449
Mof_H 	H 	0.2669	0.8534	0.6074	0.234
Mof_H 	H 	0.2744	0.6155	0.3166	0.969
Mof_O 	O 	0.237	0.6815	0.4088	-0.837
Mof_O 	O 	0.4394	0.0026	0.555	-0.891
Mof_O 	O 	0.9727	0.8598	0.45101	-0.308
Mof_O 	O 	0.0757	0.9285	0.3584	-0.407
Mof_O 	O 	0.9295	0.7339	0.36888	-0.24
Mof_H 	H 	0.9024	0.6786	0.3887	0.137
Mof_O 	O 	0.4425	0.8269	0.53409	-0.72
Mof_In	In	0.5586	0.70696	0.02872	2.824
Mof_P 	P 	0.5078	0.87995	0.95561	0.91
Mof_P 	P 	0.80884	0.83343	0.09882	0.646
Mof_O 	O 	0.5687	0.856	0.0016	-0.776
Mof_O 	O 	0.6945	0.8106	0.08206	-0.655
Mof_O 	O 	0.5205	0.8275	0.8997	-0.445
Mof_H 	H 	0.5865	0.8534	0.8926	0.246
Mof_H 	H 	0.3411	0.6155	0.1834	0.978
Mof_O 	O 	0.4445	0.6815	0.0912	-0.836
Mof_O 	O 	0.5632	0.0026	0.945	-0.896
Mof_O 	O 	0.8871	0.8598	0.04899	-0.417
Mof_O 	O 	0.8528	0.9285	0.1416	-0.335
Mof_O 	O 	0.8044	0.7339	0.13112	-0.38
Mof_H 	H 	0.7762	0.6786	0.1113	0.166
Mof_O 	O 	0.3844	0.8269	0.96591	-0.695
Mof_In	In	0.14836	0.4414	0.02872	2.643
Mof_P 	P 	0.37215	0.4922	0.95561	0.752
Mof_P 	P 	0.02459	0.19116	0.09882	0.341
Mof_O 	O 	0.2873	0.4313	0.0016	-0.783
Mof_O 	O 	0.1161	0.3055	0.08206	-0.659
Mof_O 	O 	0.307	0.4795	0.8997	-0.441
Mof_H 	H 	0.2669	0.4135	0.8926	0.193
Mof_H 	H 	0.2744	0.6589	0.1834	0.972
Mof_O 	O 	0.237	0.5555	0.0912	-0.834
Mof_O 	O 	0.4394	0.4368	0.945	-0.731
Mof_O 	O 	0.9727	0.1129	0.04899	-0.386
Mof_O 	O 	0.0757	0.1472	0.1416	-0.554
Mof_O 	O 	0.9295	0.1956	0.13112	-0.264
Mof_H 	H 	0.9024	0.2238	0.1113	0.138
Mof_O 	O 	0.4425	0.6156	0.96591	-0.692
Mof_In	In	0.29304	0.85164	0.02872	2.92
Mof_P 	P 	0.12005	0.62785	0.95561	0.615
Mof_P 	P 	0.16657	0.97541	0.09882	0.947
Mof_O 	O 	0.144	0.7127	0.0016	-0.827
Mof_O 	O 	0.1894	0.8839	0.08206	-0.724
Mof_O 	O 	0.1725	0.693	0.8997	-0.425
Mof_H 	H 	0.1466	0.7331	0.8926	0.18
Mof_H 	H 	0.3845	0.7256	0.1834	0.999
Mof_O 	O 	0.3185	0.763	0.0912	-0.85
Mof_O 	O 	0.9974	0.5606	0.945	-0.585
Mof_O 	O 	0.1402	0.0273	0.04899	-0.767
Mof_O 	O 	0.0715	0.9243	0.1416	-0.518
Mof_O 	O 	0.2661	0.0705	0.13112	-0.629
Mof_H 	H 	0.3214	0.0976	0.1113	0.216
Mof_O 	O 	0.1731	0.5575	0.96591	-0.677
Mof_In	In	0.70696	0.5586	0.52872	2.878
Mof_P 	P 	0.87995	0.5078	0.45561	0.888
Mof_P 	P 	0.83343	0.80884	0.59882	0.651
Mof_O 	O 	0.856	0.5687	0.5016	-0.758
Mof_O 	O 	0.8106	0.6945	0.58206	-0.66
Mof_O 	O 	0.8275	0.5205	0.3997	-0.444
Mof_H 	H 	0.8534	0.5865	0.3926	0.243
Mof_H 	H 	0.6155	0.3411	0.6834	0.979
Mof_O 	O 	0.6815	0.4445	0.5912	-0.842
Mof_O 	O 	0.0026	0.5632	0.445	-0.892
Mof_O 	O 	0.8598	0.8871	0.54899	-0.422
Mof_O 	O 	0.9285	0.8528	0.6416	-0.337
Mof_O 	O 	0.7339	0.8044	0.63112	-0.381
Mof_H 	H 	0.6786	0.7762	0.6113	0.168
Mof_O 	O 	0.8269	0.3844	0.46591	-0.717
Mof_In	In	0.4414	0.14836	0.52872	2.7
Mof_P 	P 	0.4922	0.37215	0.45561	0.731
Mof_P 	P 	0.19116	0.02459	0.59882	0.349
Mof_O 	O 	0.4313	0.2873	0.5016	-0.766
Mof_O 	O 	0.3055	0.1161	0.58206	-0.664
Mof_O 	O 	0.4795	0.307	0.3997	-0.44
Mof_H 	H 	0.4135	0.2669	0.3926	0.19
Mof_H 	H 	0.6589	0.2744	0.6834	0.973
Mof_O 	O 	0.5555	0.237	0.5912	-0.841
Mof_O 	O 	0.4368	0.4394	0.445	-0.729
Mof_O 	O 	0.1129	0.9727	0.54899	-0.396
Mof_O 	O 	0.1472	0.0757	0.6416	-0.556
Mof_O 	O 	0.1956	0.9295	0.63112	-0.267
Mof_H 	H 	0.2238	0.9024	0.6113	0.14
Mof_O 	O 	0.6156	0.4425	0.46591	-0.713
Mof_In	In	0.85164	0.29304	0.52872	2.981
Mof_P 	P 	0.62785	0.12005	0.45561	0.585
Mof_P 	P 	0.97541	0.16657	0.59882	0.955
Mof_O 	O 	0.7127	0.144	0.5016	-0.807
Mof_O 	O 	0.8839	0.1894	0.58206	-0.729
Mof_O 	O 	0.693	0.1725	0.3997	-0.424
Mof_H 	H 	0.7331	0.1466	0.3926	0.176
Mof_H 	H 	0.7256	0.3845	0.6834	1
Mof_O 	O 	0.763	0.3185	0.5912	-0.857
Mof_O 	O 	0.5606	0.9974	0.445	-0.577
Mof_O 	O 	0.0273	0.1402	0.54899	-0.773
Mof_O 	O 	0.9243	0.0715	0.6416	-0.52
Mof_O 	O 	0.0705	0.2661	0.63112	-0.631
Mof_H 	H 	0.0976	0.3214	0.6113	0.218
Mof_O 	O 	0.5575	0.1731	0.46591	-0.699
Mof_In	In	0.4414	0.29304	0.97128	2.882
Mof_P 	P 	0.4922	0.12005	0.04439	0.564
Mof_P 	P 	0.19116	0.16657	0.90118	0.654
Mof_O 	O 	0.4313	0.144	0.9984	-0.781
Mof_O 	O 	0.3055	0.1894	0.91794	-0.713
Mof_O 	O 	0.4795	0.1725	0.1003	-0.426
Mof_H 	H 	0.4135	0.1466	0.1074	0.159
Mof_H 	H 	0.6589	0.3845	0.8166	0.99
Mof_O 	O 	0.5555	0.3185	0.9088	-0.858
Mof_O 	O 	0.4368	0.9974	0.055	-0.571
Mof_O 	O 	0.1129	0.1402	0.95101	-0.62
Mof_O 	O 	0.1472	0.0715	0.8584	-0.612
Mof_O 	O 	0.1956	0.2661	0.86888	-0.476
Mof_H 	H 	0.2238	0.3214	0.8887	0.186
Mof_O 	O 	0.6156	0.1731	0.03409	-0.718
Mof_In	In	0.85164	0.5586	0.97128	3.045
Mof_P 	P 	0.62785	0.5078	0.04439	0.72
Mof_P 	P 	0.97541	0.80884	0.90118	0.914
Mof_O 	O 	0.7127	0.5687	0.9984	-0.77
Mof_O 	O 	0.8839	0.6945	0.91794	-0.704
Mof_O 	O 	0.693	0.5205	0.1003	-0.431
Mof_H 	H 	0.7331	0.5865	0.1074	0.213
Mof_H 	H 	0.7256	0.3411	0.8166	0.997
Mof_O 	O 	0.763	0.4445	0.9088	-0.857
Mof_O 	O 	0.5606	0.5632	0.055	-0.733
Mof_O 	O 	0.0273	0.8871	0.95101	-0.602
Mof_O 	O 	0.9243	0.8528	0.8584	-0.387
Mof_O 	O 	0.0705	0.8044	0.86888	-0.559
Mof_H 	H 	0.0976	0.7762	0.8887	0.206
Mof_O 	O 	0.5575	0.3844	0.03409	-0.725
Mof_In	In	0.70696	0.14836	0.97128	2.783
Mof_P 	P 	0.87995	0.37215	0.04439	0.874
Mof_P 	P 	0.83343	0.02459	0.90118	0.373
Mof_O 	O 	0.856	0.2873	0.9984	-0.731
Mof_O 	O 	0.8106	0.1161	0.91794	-0.643
Mof_O 	O 	0.8275	0.307	0.1003	-0.449
Mof_H 	H 	0.8534	0.2669	0.1074	0.233
Mof_H 	H 	0.6155	0.2744	0.8166	0.97
Mof_O 	O 	0.6815	0.237	0.9088	-0.843
Mof_O 	O 	0.0026	0.4394	0.055	-0.89
Mof_O 	O 	0.8598	0.9727	0.95101	-0.282
Mof_O 	O 	0.9285	0.0757	0.8584	-0.41
Mof_O 	O 	0.7339	0.9295	0.86888	-0.238
Mof_H 	H 	0.6786	0.9024	0.8887	0.139
Mof_O 	O 	0.8269	0.4425	0.03409	-0.737
Mof_In	In	6.24716e-33	1.24943e-32	0.5	1.608
Mof_In	In	-0	0	-0	1.507
Mof_In	In	6.24716e-33	1.24943e-32	0.31507	1.766
Mof_In	In	6.24716e-33	6.24716e-33	0.18493	1.767
Mof_In	In	1.24943e-32	0	0.68493	1.77
Mof_In	In	3.74829e-32	2.49886e-32	0.81507	1.779
Mof_P 	P 	0.33333	0.66667	0.39315	1.217
Mof_O 	O 	0.33333	0.66667	0.328	-2.806
Mof_P 	P 	0.33333	0.66667	0.10685	1.209
Mof_O 	O 	0.33333	0.66667	0.172	-2.8
Mof_P 	P 	0.66667	0.33333	0.60685	1.217
Mof_O 	O 	0.66667	0.33333	0.672	-2.804
Mof_P 	P 	0.66667	0.33333	0.89315	1.224
Mof_O 	O 	0.66667	0.33333	0.828	-2.809
Mof_F 	F 	0.1234	0.0617	0.25	-0.783
Mof_F 	F 	0.9383	0.0617	0.25	-0.626
Mof_F 	F 	0.9383	0.8766	0.25	-0.499
Mof_F 	F 	0.8766	0.9383	0.75	-0.501
Mof_F 	F 	0.0617	0.9383	0.75	-0.627
Mof_F 	F 	0.0617	0.1234	0.75	-0.784
_end
