# CIF file generated by openbabel 3.1.0, see https://openbabel.org
data_I
_chemical_name_common 'image0'
_cell_length_a 11.877
_cell_length_b 13.855
_cell_length_c 13.921
_cell_angle_alpha 90
_cell_angle_beta 114.403
_cell_angle_gamma 90
_space_group_name_H-M_alt 'P 1'
_space_group_name_Hall 'P 1'
loop_
    _symmetry_equiv_pos_as_xyz
    x,y,z
loop_
    _atom_site_label
    _atom_site_type_symbol
    _atom_site_fract_x
    _atom_site_fract_y
    _atom_site_fract_z
    _atom_site_occupancy
    C1       C        0.42820    0.89565    0.11732    1.000
    C2       C        0.35970    0.83893    0.16884    1.000
    C3       C        0.41640    0.76581    0.24037    1.000
    H1       H        0.50010    0.75320    0.26090    1.000
    C4       C        0.34890    0.71144    0.28141    1.000
    C5       C        0.22400    0.73120    0.25240    1.000
    H2       H        0.17830    0.69310    0.27820    1.000
    C6       C        0.16760    0.80781    0.18492    1.000
    C7       C        0.23630    0.86013    0.14282    1.000
    H3       H        0.19890    0.91040    0.09620    1.000
    C8       C        0.41000    0.63242    0.35957    1.000
    C9       C        0.03690    0.83539    0.15771    1.000
    C10      C        0.94550    0.76882    0.14580    1.000
    H4       H        0.96500    0.70360    0.15660    1.000
    C11      C        0.82590    0.79872    0.11797    1.000
    H5       H        0.76600    0.75240    0.10990    1.000
    C12      C        0.88080    0.95654    0.11550    1.000
    H6       H        0.85920    0.02150    0.10590    1.000
    C13      C        0.00140    0.93176    0.14270    1.000
    H7       H        0.05990    0.97940    0.15130    1.000
    N1       N        0.79181    0.89106    0.10203    1.000
    O1       O        0.37033    0.96393    0.05868    1.000
    O2       O        0.53649    0.87016    0.13481    1.000
    O3       O        0.51896    0.64698    0.42483    1.000
    O4       O        0.34662    0.55809    0.35318    1.000
    Zn1      Zn       0.61518    0.94025    0.04962    1.000
    C14      C        0.57180    0.39565    0.38268    1.000
    C15      C        0.64030    0.33893    0.33116    1.000
    C16      C        0.58360    0.26581    0.25963    1.000
    H8       H        0.49990    0.25320    0.23910    1.000
    C17      C        0.65110    0.21144    0.21859    1.000
    C18      C        0.77600    0.23120    0.24760    1.000
    H9       H        0.82170    0.19310    0.22180    1.000
    C19      C        0.83240    0.30781    0.31508    1.000
    C20      C        0.76370    0.36013    0.35718    1.000
    H10      H        0.80110    0.41040    0.40380    1.000
    C21      C        0.59000    0.13242    0.14043    1.000
    C22      C        0.96310    0.33539    0.34229    1.000
    C23      C        0.05450    0.26882    0.35420    1.000
    H11      H        0.03500    0.20360    0.34340    1.000
    C24      C        0.17410    0.29872    0.38203    1.000
    H12      H        0.23400    0.25240    0.39010    1.000
    C25      C        0.11920    0.45654    0.38450    1.000
    H13      H        0.14080    0.52150    0.39410    1.000
    C26      C        0.99860    0.43176    0.35730    1.000
    H14      H        0.94010    0.47940    0.34870    1.000
    N2       N        0.20819    0.39106    0.39797    1.000
    O5       O        0.62967    0.46393    0.44132    1.000
    O6       O        0.46351    0.37016    0.36519    1.000
    O7       O        0.48104    0.14698    0.07517    1.000
    O8       O        0.65338    0.05809    0.14682    1.000
    Zn2      Zn       0.38482    0.44025    0.45038    1.000
    C27      C        0.57180    0.10435    0.88268    1.000
    C28      C        0.64030    0.16107    0.83116    1.000
    C29      C        0.58360    0.23419    0.75963    1.000
    H15      H        0.49990    0.24680    0.73910    1.000
    C30      C        0.65110    0.28856    0.71859    1.000
    C31      C        0.77600    0.26880    0.74760    1.000
    H16      H        0.82170    0.30690    0.72180    1.000
    C32      C        0.83240    0.19219    0.81508    1.000
    C33      C        0.76370    0.13987    0.85718    1.000
    H17      H        0.80110    0.08960    0.90380    1.000
    C34      C        0.59000    0.36758    0.64043    1.000
    C35      C        0.96310    0.16461    0.84229    1.000
    C36      C        0.05450    0.23118    0.85420    1.000
    H18      H        0.03500    0.29640    0.84340    1.000
    C37      C        0.17410    0.20128    0.88203    1.000
    H19      H        0.23400    0.24760    0.89010    1.000
    C38      C        0.11920    0.04346    0.88450    1.000
    H20      H        0.14080    0.97850    0.89410    1.000
    C39      C        0.99860    0.06824    0.85730    1.000
    H21      H        0.94010    0.02060    0.84870    1.000
    N3       N        0.20819    0.10894    0.89797    1.000
    O9       O        0.62967    0.03607    0.94132    1.000
    O10      O        0.46351    0.12984    0.86519    1.000
    O11      O        0.48104    0.35302    0.57517    1.000
    O12      O        0.65338    0.44191    0.64682    1.000
    Zn3      Zn       0.38482    0.05975    0.95038    1.000
    C40      C        0.42820    0.60435    0.61732    1.000
    C41      C        0.35970    0.66107    0.66884    1.000
    C42      C        0.41640    0.73419    0.74037    1.000
    H22      H        0.50010    0.74680    0.76090    1.000
    C43      C        0.34890    0.78856    0.78141    1.000
    C44      C        0.22400    0.76880    0.75240    1.000
    H23      H        0.17830    0.80690    0.77820    1.000
    C45      C        0.16760    0.69219    0.68492    1.000
    C46      C        0.23630    0.63987    0.64282    1.000
    H24      H        0.19890    0.58960    0.59620    1.000
    C47      C        0.41000    0.86758    0.85957    1.000
    C48      C        0.03690    0.66461    0.65771    1.000
    C49      C        0.94550    0.73118    0.64580    1.000
    H25      H        0.96500    0.79640    0.65660    1.000
    C50      C        0.82590    0.70128    0.61797    1.000
    H26      H        0.76600    0.74760    0.60990    1.000
    C51      C        0.88080    0.54346    0.61550    1.000
    H27      H        0.85920    0.47850    0.60590    1.000
    C52      C        0.00140    0.56824    0.64270    1.000
    H28      H        0.05990    0.52060    0.65130    1.000
    N4       N        0.79181    0.60894    0.60203    1.000
    O13      O        0.37033    0.53607    0.55868    1.000
    O14      O        0.53649    0.62984    0.63481    1.000
    O15      O        0.51896    0.85302    0.92483    1.000
    O16      O        0.34662    0.94191    0.85318    1.000
    Zn4      Zn       0.61518    0.55975    0.54962    1.000
