data_functionalizedCrystal
_audit_creation_method	'EQeq! by Chris Wilmer'
_symmetry_space_group_name_H-M	'P1'
_symmetry_Int_Tables_number	1
_symmetry_cell_setting	triclinic
loop_
_symmetry_equiv_pos_as_xyz
  x,y,z
_cell_length_a	7.2338
_cell_length_b	15.0238
_cell_length_c	9.2153
_cell_angle_alpha	90
_cell_angle_beta	107.741
_cell_angle_gamma	90
loop_
_atom_site_label
_atom_site_type_symbol
_atom_site_fract_x
_atom_site_fract_y
_atom_site_fract_z
_atom_site_charge
Mof_Zn	Zn	0.48795	0.23994	0.02498	1.21
Mof_P 	P 	0.23097	0.34172	0.7252	0.457
Mof_H 	H 	0.111	0.281	0.661	-0.119
Mof_P 	P 	0.76667	0.31754	0.3353	0.442
Mof_H 	H 	0.846	0.234	0.388	-0.011
Mof_O 	O 	0.3134	0.3223	0.8939	-0.438
Mof_O 	O 	0.6863	0.3142	0.1613	-0.432
Mof_O 	O 	0.3845	0.3421	0.6416	-0.478
Mof_O 	O 	0.6074	0.3368	0.4088	-0.464
Mof_O 	O 	0.1199	0.4287	0.7037	-0.434
Mof_O 	O 	0.9338	0.3812	0.3822	-0.339
Mof_Zn	Zn	0.51205	0.73994	0.47502	1.233
Mof_P 	P 	0.76903	0.84172	0.7748	0.465
Mof_H 	H 	0.889	0.781	0.839	-0.002
Mof_P 	P 	0.23333	0.81754	0.1647	0.432
Mof_H 	H 	0.154	0.734	0.112	-0.096
Mof_O 	O 	0.6866	0.8223	0.6061	-0.408
Mof_O 	O 	0.3137	0.8142	0.3387	-0.431
Mof_O 	O 	0.6155	0.8421	0.8584	-0.428
Mof_O 	O 	0.3926	0.8368	0.0912	-0.472
Mof_O 	O 	0.8801	0.9287	0.7963	-0.268
Mof_O 	O 	0.0662	0.8812	0.1178	-0.458
Mof_Zn	Zn	0.51205	0.76006	0.97502	1.251
Mof_P 	P 	0.76903	0.65828	0.2748	0.467
Mof_H 	H 	0.889	0.719	0.339	-0.014
Mof_P 	P 	0.23333	0.68246	0.6647	0.433
Mof_H 	H 	0.154	0.766	0.612	-0.074
Mof_O 	O 	0.6866	0.6777	0.1061	-0.446
Mof_O 	O 	0.3137	0.6858	0.8387	-0.424
Mof_O 	O 	0.6155	0.6579	0.3584	-0.465
Mof_O 	O 	0.3926	0.6632	0.5912	-0.466
Mof_O 	O 	0.8801	0.5713	0.2963	-0.335
Mof_O 	O 	0.0662	0.6188	0.6178	-0.475
Mof_Zn	Zn	0.48795	0.26006	0.52498	1.228
Mof_P 	P 	0.23097	0.15828	0.2252	0.458
Mof_H 	H 	0.111	0.219	0.161	-0.133
Mof_P 	P 	0.76667	0.18246	0.8353	0.441
Mof_H 	H 	0.846	0.266	0.888	0.012
Mof_O 	O 	0.3134	0.1777	0.3939	-0.48
Mof_O 	O 	0.6863	0.1858	0.6613	-0.423
Mof_O 	O 	0.3845	0.1579	0.1416	-0.514
Mof_O 	O 	0.6074	0.1632	0.9088	-0.447
Mof_O 	O 	0.1199	0.0713	0.2037	-0.489
Mof_O 	O 	0.9338	0.1188	0.8822	-0.332
Mof_Zn	Zn	2.97958e-17	0.5	0.5	1.158
Mof_Zn	Zn	-0	0	-0	1.108
_end
