data_functionalizedCrystal
_audit_creation_method	'EQeq! by Chris Wilmer'
_symmetry_space_group_name_H-M	'P1'
_symmetry_Int_Tables_number	1
_symmetry_cell_setting	triclinic
loop_
_symmetry_equiv_pos_as_xyz
  x,y,z
_cell_length_a	11.3379
_cell_length_b	7.1677
_cell_length_c	6.608
_cell_angle_alpha	90
_cell_angle_beta	109.69
_cell_angle_gamma	90
loop_
_atom_site_label
_atom_site_type_symbol
_atom_site_fract_x
_atom_site_fract_y
_atom_site_fract_z
_atom_site_charge
Mof_O 	O 	0.1721	0.6837	0.1162	-0.446
Mof_O 	O 	0.0076	0.6331	0.3375	-0.428
Mof_O 	O 	0.3465	0.8275	0.1188	-0.463
Mof_C 	C 	0.2361	0.7864	0.0349	0.237
Mof_H 	H 	0.1949	0.8349	0.8988	-0.006
Mof_O 	O 	0.6721	0.1837	0.1162	-0.336
Mof_O 	O 	0.5076	0.1331	0.3375	-0.456
Mof_O 	O 	0.8465	0.3275	0.1188	-0.311
Mof_C 	C 	0.7361	0.2864	0.0349	0.203
Mof_H 	H 	0.6949	0.3349	0.8988	0.071
Mof_O 	O 	0.8279	0.6837	0.8838	-0.422
Mof_O 	O 	0.9924	0.6331	0.6625	-0.149
Mof_O 	O 	0.6535	0.8275	0.8812	-0.518
Mof_C 	C 	0.7639	0.7864	0.9651	0.855
Mof_H 	H 	0.8051	0.8349	0.1012	-0.332
Mof_O 	O 	0.3279	0.1837	0.8838	-0.431
Mof_O 	O 	0.4924	0.1331	0.6625	-0.409
Mof_O 	O 	0.1535	0.3275	0.8812	-0.503
Mof_C 	C 	0.2639	0.2864	0.9651	0.869
Mof_H 	H 	0.3051	0.3349	0.1012	-0.334
Mof_Tb	Tb	-0	0.4874	-0	1.301
Mof_Tb	Tb	0.5	0.9874	-0	1.392
Mof_C 	C 	-1.40532e-17	0.553	0.5	0.216
Mof_H 	H 	1.46076e-33	0.4237	0.5	-0.079
Mof_C 	C 	0.5	0.053	0.5	0.784
Mof_H 	H 	0.5	0.9237	0.5	-0.305
_end
