# CIF file generated by openbabel 3.1.0, see https://openbabel.org
data_I
_chemical_name_common 'image0'
_cell_length_a 9.593
_cell_length_b 13.795
_cell_length_c 16.875
_cell_angle_alpha 90
_cell_angle_beta 90
_cell_angle_gamma 90
_space_group_name_H-M_alt 'P 1'
_space_group_name_Hall 'P 1'
loop_
    _symmetry_equiv_pos_as_xyz
    x,y,z
loop_
    _atom_site_label
    _atom_site_type_symbol
    _atom_site_fract_x
    _atom_site_fract_y
    _atom_site_fract_z
    _atom_site_occupancy
    C1       C        0.07900    0.59800    0.46520    1.000
    O1       O        0.62000    0.90600    0.07830    1.000
    O2       O        0.38940    0.60240    0.41600    1.000
    Br1      Br       0.28100    0.80970    0.39150    1.000
    Br2      Br       0.27700    0.69250    0.10960    1.000
    C2       C        0.39400    0.67900    0.26000    1.000
    C3       C        0.40600    0.73700    0.19200    1.000
    C4       C        0.40100    0.76100    0.30600    1.000
    C5       C        0.58300    0.83000    0.23200    1.000
    C6       C        0.92100    0.40200    0.46520    1.000
    O3       O        0.38000    0.09400    0.07830    1.000
    O4       O        0.61060    0.39760    0.41600    1.000
    Br3      Br       0.71900    0.19030    0.39150    1.000
    Br4      Br       0.72300    0.30750    0.10960    1.000
    C7       C        0.60600    0.32100    0.26000    1.000
    C8       C        0.59400    0.26300    0.19200    1.000
    C9       C        0.59900    0.23900    0.30600    1.000
    C10      C        0.41700    0.17000    0.23200    1.000
    C11      C        0.92100    0.59800    0.53480    1.000
    O5       O        0.38000    0.90600    0.92170    1.000
    O6       O        0.61060    0.60240    0.58400    1.000
    Br5      Br       0.71900    0.80970    0.60850    1.000
    Br6      Br       0.72300    0.69250    0.89040    1.000
    C12      C        0.60600    0.67900    0.74000    1.000
    C13      C        0.59400    0.73700    0.80800    1.000
    C14      C        0.59900    0.76100    0.69400    1.000
    C15      C        0.41700    0.83000    0.76800    1.000
    C16      C        0.07900    0.40200    0.53480    1.000
    O7       O        0.62000    0.09400    0.92170    1.000
    O8       O        0.38940    0.39760    0.58400    1.000
    Br7      Br       0.28100    0.19030    0.60850    1.000
    Br8      Br       0.27700    0.30750    0.89040    1.000
    C17      C        0.39400    0.32100    0.74000    1.000
    C18      C        0.40600    0.26300    0.80800    1.000
    C19      C        0.40100    0.23900    0.69400    1.000
    C20      C        0.58300    0.17000    0.76800    1.000
    C21      C        0.92100    0.40200    0.53480    1.000
    O9       O        0.38000    0.09400    0.92170    1.000
    O10      O        0.61060    0.39760    0.58400    1.000
    Br9      Br       0.71900    0.19030    0.60850    1.000
    Br10     Br       0.72300    0.30750    0.89040    1.000
    C22      C        0.60600    0.32100    0.74000    1.000
    C23      C        0.59400    0.26300    0.80800    1.000
    C24      C        0.59900    0.23900    0.69400    1.000
    C25      C        0.41700    0.17000    0.76800    1.000
    C26      C        0.07900    0.59800    0.53480    1.000
    O11      O        0.62000    0.90600    0.92170    1.000
    O12      O        0.38940    0.60240    0.58400    1.000
    Br11     Br       0.28100    0.80970    0.60850    1.000
    Br12     Br       0.27700    0.69250    0.89040    1.000
    C27      C        0.39400    0.67900    0.74000    1.000
    C28      C        0.40600    0.73700    0.80800    1.000
    C29      C        0.40100    0.76100    0.69400    1.000
    C30      C        0.58300    0.83000    0.76800    1.000
    C31      C        0.07900    0.40200    0.46520    1.000
    O13      O        0.62000    0.09400    0.07830    1.000
    O14      O        0.38940    0.39760    0.41600    1.000
    Br13     Br       0.28100    0.19030    0.39150    1.000
    Br14     Br       0.27700    0.30750    0.10960    1.000
    C32      C        0.39400    0.32100    0.26000    1.000
    C33      C        0.40600    0.26300    0.19200    1.000
    C34      C        0.40100    0.23900    0.30600    1.000
    C35      C        0.58300    0.17000    0.23200    1.000
    C36      C        0.92100    0.59800    0.46520    1.000
    O15      O        0.38000    0.90600    0.07830    1.000
    O16      O        0.61060    0.60240    0.41600    1.000
    Br15     Br       0.71900    0.80970    0.39150    1.000
    Br16     Br       0.72300    0.69250    0.10960    1.000
    C37      C        0.60600    0.67900    0.26000    1.000
    C38      C        0.59400    0.73700    0.19200    1.000
    C39      C        0.59900    0.76100    0.30600    1.000
    C40      C        0.41700    0.83000    0.23200    1.000
    C41      C        0.50000    0.87300    0.11400    1.000
    C42      C        0.50000    0.80700    0.18280    1.000
    C43      C        0.50000    0.63000    0.38680    1.000
    C44      C        0.50000    0.69000    0.32280    1.000
    C45      C        0.50000    0.12700    0.11400    1.000
    C46      C        0.50000    0.19300    0.18280    1.000
    C47      C        0.50000    0.37000    0.38680    1.000
    C48      C        0.50000    0.31000    0.32280    1.000
    C49      C        0.50000    0.87300    0.88600    1.000
    C50      C        0.50000    0.80700    0.81720    1.000
    C51      C        0.50000    0.63000    0.61320    1.000
    C52      C        0.50000    0.69000    0.67720    1.000
    C53      C        0.50000    0.12700    0.88600    1.000
    C54      C        0.50000    0.19300    0.81720    1.000
    C55      C        0.50000    0.37000    0.61320    1.000
    C56      C        0.50000    0.31000    0.67720    1.000
    C57      C        0.06200    0.50000    0.42200    1.000
    C58      C        0.93800    0.50000    0.42200    1.000
    C59      C        0.93800    0.50000    0.57800    1.000
    C60      C        0.06200    0.50000    0.57800    1.000
    Zn1      Zn       0.64790    0.00000    0.00000    1.000
    Zn2      Zn       0.35210    0.00000    0.00000    1.000
    N1       N        0.13500    0.50000    0.50000    1.000
    Zn3      Zn       0.34860    0.50000    0.50000    1.000
    N2       N        0.86500    0.50000    0.50000    1.000
    Zn4      Zn       0.65140    0.50000    0.50000    1.000
