# CIF file generated by openbabel 3.1.0, see https://openbabel.org
data_I
_chemical_name_common 'image0'
_cell_length_a 28.0134
_cell_length_b 17.8914
_cell_length_c 12.7629
_cell_angle_alpha 90
_cell_angle_beta 90
_cell_angle_gamma 90
_space_group_name_H-M_alt 'P 1'
_space_group_name_Hall 'P 1'
loop_
    _symmetry_equiv_pos_as_xyz
    x,y,z
loop_
    _atom_site_label
    _atom_site_type_symbol
    _atom_site_fract_x
    _atom_site_fract_y
    _atom_site_fract_z
    _atom_site_occupancy
    C1       C        0.95610    0.30270    0.26050    1.000
    H1       H        0.93090    0.31480    0.21130    1.000
    H2       H        0.96230    0.34700    0.30230    1.000
    C2       C        0.93910    0.24010    0.33230    1.000
    H3       H        0.97220    0.29270    0.05690    1.000
    C3       C        0.79530    0.01230    0.90710    1.000
    H4       H        0.77890    0.02250    0.84530    1.000
    C4       C        0.87190    0.01250    0.80490    1.000
    C5       C        0.84460    0.00950    0.90720    1.000
    Mg1      Mg       0.94600    0.05775    0.33951    1.000
    Mg2      Mg       0.87712    0.05914    0.58191    1.000
    O1       O        0.94741    0.17360    0.30040    1.000
    O2       O        0.91690    0.25650    0.41330    1.000
    O3       O        0.88711    0.05530    0.42510    1.000
    O4       O        0.04575    0.44490    0.11660    1.000
    O5       O        0.69634    0.04720    0.94180    1.000
    O6       O        0.90468    0.96560    0.79320    1.000
    O7       O        0.86018    0.06200    0.73880    1.000
    Ni1      Ni       0.94600    0.94225    0.66049    1.000
    C6       C        0.45610    0.80270    0.26050    1.000
    H5       H        0.43090    0.81480    0.21130    1.000
    H6       H        0.46230    0.84700    0.30230    1.000
    C7       C        0.43910    0.74010    0.33230    1.000
    H7       H        0.47220    0.79270    0.05690    1.000
    C8       C        0.29530    0.51230    0.90710    1.000
    H8       H        0.27890    0.52250    0.84530    1.000
    C9       C        0.37190    0.51250    0.80490    1.000
    C10      C        0.34460    0.50950    0.90720    1.000
    Mg3      Mg       0.44600    0.55775    0.33951    1.000
    Mg4      Mg       0.37712    0.55914    0.58191    1.000
    O8       O        0.44741    0.67360    0.30040    1.000
    O9       O        0.41690    0.75650    0.41330    1.000
    O10      O        0.38711    0.55530    0.42510    1.000
    O11      O        0.54575    0.94490    0.11660    1.000
    O12      O        0.19634    0.54720    0.94180    1.000
    O13      O        0.40468    0.46560    0.79320    1.000
    O14      O        0.36018    0.56200    0.73880    1.000
    Ni2      Ni       0.44600    0.44225    0.66049    1.000
    C11      C        0.04390    0.19730    0.76050    1.000
    H9       H        0.06910    0.18520    0.71130    1.000
    H10      H        0.03770    0.15300    0.80230    1.000
    C12      C        0.06090    0.25990    0.83230    1.000
    H11      H        0.02780    0.20730    0.55690    1.000
    C13      C        0.20470    0.48770    0.40710    1.000
    H12      H        0.22110    0.47750    0.34530    1.000
    C14      C        0.12810    0.48750    0.30490    1.000
    C15      C        0.15540    0.49050    0.40720    1.000
    Mg5      Mg       0.05400    0.44225    0.83951    1.000
    Mg6      Mg       0.12288    0.44086    0.08191    1.000
    O15      O        0.05259    0.32640    0.80040    1.000
    O16      O        0.08310    0.24350    0.91330    1.000
    O17      O        0.11289    0.44470    0.92510    1.000
    O18      O        0.95425    0.05510    0.61660    1.000
    O19      O        0.30366    0.45280    0.44180    1.000
    O20      O        0.09532    0.53440    0.29320    1.000
    O21      O        0.13982    0.43800    0.23880    1.000
    Ni3      Ni       0.05400    0.55775    0.16049    1.000
    C16      C        0.54390    0.69730    0.76050    1.000
    H13      H        0.56910    0.68520    0.71130    1.000
    H14      H        0.53770    0.65300    0.80230    1.000
    C17      C        0.56090    0.75990    0.83230    1.000
    H15      H        0.52780    0.70730    0.55690    1.000
    C18      C        0.70470    0.98770    0.40710    1.000
    H16      H        0.72110    0.97750    0.34530    1.000
    C19      C        0.62810    0.98750    0.30490    1.000
    C20      C        0.65540    0.99050    0.40720    1.000
    Mg7      Mg       0.55400    0.94225    0.83951    1.000
    Mg8      Mg       0.62288    0.94086    0.08191    1.000
    O22      O        0.55259    0.82640    0.80040    1.000
    O23      O        0.58310    0.74350    0.91330    1.000
    O24      O        0.61289    0.94470    0.92510    1.000
    O25      O        0.45425    0.55510    0.61660    1.000
    O26      O        0.80366    0.95280    0.44180    1.000
    O27      O        0.59532    0.03440    0.29320    1.000
    O28      O        0.63982    0.93800    0.23880    1.000
    Ni4      Ni       0.55400    0.05775    0.16049    1.000
    C21      C        0.04390    0.80270    0.23950    1.000
    H17      H        0.06910    0.81480    0.28870    1.000
    H18      H        0.03770    0.84700    0.19770    1.000
    C22      C        0.06090    0.74010    0.16770    1.000
    H19      H        0.02780    0.79270    0.44310    1.000
    C23      C        0.20470    0.51230    0.59290    1.000
    H20      H        0.22110    0.52250    0.65470    1.000
    C24      C        0.12810    0.51250    0.69510    1.000
    C25      C        0.15540    0.50950    0.59280    1.000
    Mg9      Mg       0.12288    0.55914    0.91809    1.000
    O29      O        0.05259    0.67360    0.19960    1.000
    O30      O        0.08310    0.75650    0.08670    1.000
    O31      O        0.11289    0.55530    0.07490    1.000
    O32      O        0.95425    0.94490    0.38340    1.000
    O33      O        0.30366    0.54720    0.55820    1.000
    O34      O        0.09532    0.46560    0.70680    1.000
    O35      O        0.13982    0.56200    0.76120    1.000
    C26      C        0.54390    0.30270    0.23950    1.000
    H21      H        0.56910    0.31480    0.28870    1.000
    H22      H        0.53770    0.34700    0.19770    1.000
    C27      C        0.56090    0.24010    0.16770    1.000
    H23      H        0.52780    0.29270    0.44310    1.000
    C28      C        0.70470    0.01230    0.59290    1.000
    H24      H        0.72110    0.02250    0.65470    1.000
    C29      C        0.62810    0.01250    0.69510    1.000
    C30      C        0.65540    0.00950    0.59280    1.000
    Mg10     Mg       0.62288    0.05914    0.91809    1.000
    O36      O        0.55259    0.17360    0.19960    1.000
    O37      O        0.58310    0.25650    0.08670    1.000
    O38      O        0.61289    0.05530    0.07490    1.000
    O39      O        0.45425    0.44490    0.38340    1.000
    O40      O        0.80366    0.04720    0.55820    1.000
    O41      O        0.59532    0.96560    0.70680    1.000
    O42      O        0.63982    0.06200    0.76120    1.000
    C31      C        0.95610    0.69730    0.73950    1.000
    H25      H        0.93090    0.68520    0.78870    1.000
    H26      H        0.96230    0.65300    0.69770    1.000
    C32      C        0.93910    0.75990    0.66770    1.000
    H27      H        0.97220    0.70730    0.94310    1.000
    C33      C        0.79530    0.98770    0.09290    1.000
    H28      H        0.77890    0.97750    0.15470    1.000
    C34      C        0.87190    0.98750    0.19510    1.000
    C35      C        0.84460    0.99050    0.09280    1.000
    Mg11     Mg       0.87712    0.94086    0.41809    1.000
    O43      O        0.94741    0.82640    0.69960    1.000
    O44      O        0.91690    0.74350    0.58670    1.000
    O45      O        0.88711    0.94470    0.57490    1.000
    O46      O        0.04575    0.55510    0.88340    1.000
    O47      O        0.69634    0.95280    0.05820    1.000
    O48      O        0.90468    0.03440    0.20680    1.000
    O49      O        0.86018    0.93800    0.26120    1.000
    C36      C        0.45610    0.19730    0.73950    1.000
    H29      H        0.43090    0.18520    0.78870    1.000
    H30      H        0.46230    0.15300    0.69770    1.000
    C37      C        0.43910    0.25990    0.66770    1.000
    H31      H        0.47220    0.20730    0.94310    1.000
    C38      C        0.29530    0.48770    0.09290    1.000
    H32      H        0.27890    0.47750    0.15470    1.000
    C39      C        0.37190    0.48750    0.19510    1.000
    C40      C        0.34460    0.49050    0.09280    1.000
    Mg12     Mg       0.37712    0.44086    0.41809    1.000
    O50      O        0.44741    0.32640    0.69960    1.000
    O51      O        0.41690    0.24350    0.58670    1.000
    O52      O        0.38711    0.44470    0.57490    1.000
    O53      O        0.54575    0.05510    0.88340    1.000
    O54      O        0.19634    0.45280    0.05820    1.000
    O55      O        0.40468    0.53440    0.20680    1.000
    O56      O        0.36018    0.43800    0.26120    1.000
    C41      C        0.04390    0.69730    0.73950    1.000
    H33      H        0.06910    0.68520    0.78870    1.000
    H34      H        0.03770    0.65300    0.69770    1.000
    C42      C        0.06090    0.75990    0.66770    1.000
    H35      H        0.02780    0.70730    0.94310    1.000
    C43      C        0.20470    0.98770    0.09290    1.000
    H36      H        0.22110    0.97750    0.15470    1.000
    C44      C        0.12810    0.98750    0.19510    1.000
    C45      C        0.15540    0.99050    0.09280    1.000
    Mg13     Mg       0.05400    0.94225    0.66049    1.000
    Mg14     Mg       0.12288    0.94086    0.41809    1.000
    O57      O        0.05259    0.82640    0.69960    1.000
    O58      O        0.08310    0.74350    0.58670    1.000
    O59      O        0.11289    0.94470    0.57490    1.000
    O60      O        0.95425    0.55510    0.88340    1.000
    O61      O        0.30366    0.95280    0.05820    1.000
    O62      O        0.09532    0.03440    0.20680    1.000
    O63      O        0.13982    0.93800    0.26120    1.000
    Ni5      Ni       0.05400    0.05775    0.33951    1.000
    C46      C        0.54390    0.19730    0.73950    1.000
    H37      H        0.56910    0.18520    0.78870    1.000
    H38      H        0.53770    0.15300    0.69770    1.000
    C47      C        0.56090    0.25990    0.66770    1.000
    H39      H        0.52780    0.20730    0.94310    1.000
    C48      C        0.70470    0.48770    0.09290    1.000
    H40      H        0.72110    0.47750    0.15470    1.000
    C49      C        0.62810    0.48750    0.19510    1.000
    C50      C        0.65540    0.49050    0.09280    1.000
    Mg15     Mg       0.55400    0.44225    0.66049    1.000
    Mg16     Mg       0.62288    0.44086    0.41809    1.000
    O64      O        0.55259    0.32640    0.69960    1.000
    O65      O        0.58310    0.24350    0.58670    1.000
    O66      O        0.61289    0.44470    0.57490    1.000
    O67      O        0.45425    0.05510    0.88340    1.000
    O68      O        0.80366    0.45280    0.05820    1.000
    O69      O        0.59532    0.53440    0.20680    1.000
    O70      O        0.63982    0.43800    0.26120    1.000
    Ni6      Ni       0.55400    0.55775    0.33951    1.000
    C51      C        0.95610    0.80270    0.23950    1.000
    H41      H        0.93090    0.81480    0.28870    1.000
    H42      H        0.96230    0.84700    0.19770    1.000
    C52      C        0.93910    0.74010    0.16770    1.000
    H43      H        0.97220    0.79270    0.44310    1.000
    C53      C        0.79530    0.51230    0.59290    1.000
    H44      H        0.77890    0.52250    0.65470    1.000
    C54      C        0.87190    0.51250    0.69510    1.000
    C55      C        0.84460    0.50950    0.59280    1.000
    Mg17     Mg       0.94600    0.55775    0.16049    1.000
    Mg18     Mg       0.87712    0.55914    0.91809    1.000
    O71      O        0.94741    0.67360    0.19960    1.000
    O72      O        0.91690    0.75650    0.08670    1.000
    O73      O        0.88711    0.55530    0.07490    1.000
    O74      O        0.04575    0.94490    0.38340    1.000
    O75      O        0.69634    0.54720    0.55820    1.000
    O76      O        0.90468    0.46560    0.70680    1.000
    O77      O        0.86018    0.56200    0.76120    1.000
    Ni7      Ni       0.94600    0.44225    0.83951    1.000
    C56      C        0.45610    0.30270    0.23950    1.000
    H45      H        0.43090    0.31480    0.28870    1.000
    H46      H        0.46230    0.34700    0.19770    1.000
    C57      C        0.43910    0.24010    0.16770    1.000
    H47      H        0.47220    0.29270    0.44310    1.000
    C58      C        0.29530    0.01230    0.59290    1.000
    H48      H        0.27890    0.02250    0.65470    1.000
    C59      C        0.37190    0.01250    0.69510    1.000
    C60      C        0.34460    0.00950    0.59280    1.000
    Mg19     Mg       0.44600    0.05775    0.16049    1.000
    Mg20     Mg       0.37712    0.05914    0.91809    1.000
    O78      O        0.44741    0.17360    0.19960    1.000
    O79      O        0.41690    0.25650    0.08670    1.000
    O80      O        0.38711    0.05530    0.07490    1.000
    O81      O        0.54575    0.44490    0.38340    1.000
    O82      O        0.19634    0.04720    0.55820    1.000
    O83      O        0.40468    0.96560    0.70680    1.000
    O84      O        0.36018    0.06200    0.76120    1.000
    Ni8      Ni       0.44600    0.94225    0.83951    1.000
    C61      C        0.95610    0.19730    0.76050    1.000
    H49      H        0.93090    0.18520    0.71130    1.000
    H50      H        0.96230    0.15300    0.80230    1.000
    C62      C        0.93910    0.25990    0.83230    1.000
    H51      H        0.97220    0.20730    0.55690    1.000
    C63      C        0.79530    0.48770    0.40710    1.000
    H52      H        0.77890    0.47750    0.34530    1.000
    C64      C        0.87190    0.48750    0.30490    1.000
    C65      C        0.84460    0.49050    0.40720    1.000
    Mg21     Mg       0.87712    0.44086    0.08191    1.000
    O85      O        0.94741    0.32640    0.80040    1.000
    O86      O        0.91690    0.24350    0.91330    1.000
    O87      O        0.88711    0.44470    0.92510    1.000
    O88      O        0.04575    0.05510    0.61660    1.000
    O89      O        0.69634    0.45280    0.44180    1.000
    O90      O        0.90468    0.53440    0.29320    1.000
    O91      O        0.86018    0.43800    0.23880    1.000
    C66      C        0.45610    0.69730    0.76050    1.000
    H53      H        0.43090    0.68520    0.71130    1.000
    H54      H        0.46230    0.65300    0.80230    1.000
    C67      C        0.43910    0.75990    0.83230    1.000
    H55      H        0.47220    0.70730    0.55690    1.000
    C68      C        0.29530    0.98770    0.40710    1.000
    H56      H        0.27890    0.97750    0.34530    1.000
    C69      C        0.37190    0.98750    0.30490    1.000
    C70      C        0.34460    0.99050    0.40720    1.000
    Mg22     Mg       0.37712    0.94086    0.08191    1.000
    O92      O        0.44741    0.82640    0.80040    1.000
    O93      O        0.41690    0.74350    0.91330    1.000
    O94      O        0.38711    0.94470    0.92510    1.000
    O95      O        0.54575    0.55510    0.61660    1.000
    O96      O        0.19634    0.95280    0.44180    1.000
    O97      O        0.40468    0.03440    0.29320    1.000
    O98      O        0.36018    0.93800    0.23880    1.000
    C71      C        0.04390    0.30270    0.26050    1.000
    H57      H        0.06910    0.31480    0.21130    1.000
    H58      H        0.03770    0.34700    0.30230    1.000
    C72      C        0.06090    0.24010    0.33230    1.000
    H59      H        0.02780    0.29270    0.05690    1.000
    C73      C        0.20470    0.01230    0.90710    1.000
    H60      H        0.22110    0.02250    0.84530    1.000
    C74      C        0.12810    0.01250    0.80490    1.000
    C75      C        0.15540    0.00950    0.90720    1.000
    Mg23     Mg       0.12288    0.05914    0.58191    1.000
    O99      O        0.05259    0.17360    0.30040    1.000
    O100     O        0.08310    0.25650    0.41330    1.000
    O101     O        0.11289    0.05530    0.42510    1.000
    O102     O        0.95425    0.44490    0.11660    1.000
    O103     O        0.30366    0.04720    0.94180    1.000
    O104     O        0.09532    0.96560    0.79320    1.000
    O105     O        0.13982    0.06200    0.73880    1.000
    C76      C        0.54390    0.80270    0.26050    1.000
    H61      H        0.56910    0.81480    0.21130    1.000
    H62      H        0.53770    0.84700    0.30230    1.000
    C77      C        0.56090    0.74010    0.33230    1.000
    H63      H        0.52780    0.79270    0.05690    1.000
    C78      C        0.70470    0.51230    0.90710    1.000
    H64      H        0.72110    0.52250    0.84530    1.000
    C79      C        0.62810    0.51250    0.80490    1.000
    C80      C        0.65540    0.50950    0.90720    1.000
    Mg24     Mg       0.62288    0.55914    0.58191    1.000
    O106     O        0.55259    0.67360    0.30040    1.000
    O107     O        0.58310    0.75650    0.41330    1.000
    O108     O        0.61289    0.55530    0.42510    1.000
    O109     O        0.45425    0.94490    0.11660    1.000
    O110     O        0.80366    0.54720    0.94180    1.000
    O111     O        0.59532    0.46560    0.79320    1.000
    O112     O        0.63982    0.56200    0.73880    1.000
    P1       P        0.00000    0.41305    0.06898    1.000
    N1       N        0.00000    0.28280    0.20130    1.000
    C81      C        0.00000    0.31310    0.09210    1.000
    Ni9      Ni       0.00000    0.16508    0.18850    1.000
    O113     O        0.00000    0.05830    0.23620    1.000
    O114     O        0.00000    0.41840    0.94960    1.000
    P2       P        0.50000    0.91305    0.06898    1.000
    N2       N        0.50000    0.78280    0.20130    1.000
    C82      C        0.50000    0.81310    0.09210    1.000
    Ni10     Ni       0.50000    0.66508    0.18850    1.000
    O115     O        0.50000    0.55830    0.23620    1.000
    O116     O        0.50000    0.91840    0.94960    1.000
    P3       P        0.00000    0.08695    0.56898    1.000
    N3       N        0.00000    0.21720    0.70130    1.000
    C83      C        0.00000    0.18690    0.59210    1.000
    Ni11     Ni       0.00000    0.33492    0.68850    1.000
    O117     O        0.00000    0.44170    0.73620    1.000
    O118     O        0.00000    0.08160    0.44960    1.000
    P4       P        0.50000    0.58695    0.56898    1.000
    N4       N        0.50000    0.71720    0.70130    1.000
    C84      C        0.50000    0.68690    0.59210    1.000
    Ni12     Ni       0.50000    0.83492    0.68850    1.000
    O119     O        0.50000    0.94170    0.73620    1.000
    O120     O        0.50000    0.58160    0.44960    1.000
    P5       P        0.00000    0.91305    0.43102    1.000
    N5       N        0.00000    0.78280    0.29870    1.000
    C85      C        0.00000    0.81310    0.40790    1.000
    Ni13     Ni       0.00000    0.66508    0.31150    1.000
    O121     O        0.00000    0.55830    0.26380    1.000
    O122     O        0.00000    0.91840    0.55040    1.000
    P6       P        0.50000    0.41305    0.43102    1.000
    N6       N        0.50000    0.28280    0.29870    1.000
    C86      C        0.50000    0.31310    0.40790    1.000
    Ni14     Ni       0.50000    0.16508    0.31150    1.000
    O123     O        0.50000    0.05830    0.26380    1.000
    O124     O        0.50000    0.41840    0.55040    1.000
    P7       P        0.00000    0.58695    0.93102    1.000
    N7       N        0.00000    0.71720    0.79870    1.000
    C87      C        0.00000    0.68690    0.90790    1.000
    Ni15     Ni       0.00000    0.83492    0.81150    1.000
    O125     O        0.00000    0.94170    0.76380    1.000
    O126     O        0.00000    0.58160    0.05040    1.000
    P8       P        0.50000    0.08695    0.93102    1.000
    N8       N        0.50000    0.21720    0.79870    1.000
    C88      C        0.50000    0.18690    0.90790    1.000
    Ni16     Ni       0.50000    0.33492    0.81150    1.000
    O127     O        0.50000    0.44170    0.76380    1.000
    O128     O        0.50000    0.08160    0.05040    1.000
    C89      C        0.71670    0.00000    0.00000    1.000
    C90      C        0.77000    0.00000    0.00000    1.000
    C91      C        0.86880    0.00000    0.00000    1.000
    H65      H        0.90200    0.00000    0.00000    1.000
    C92      C        0.21670    0.50000    0.00000    1.000
    C93      C        0.27000    0.50000    0.00000    1.000
    C94      C        0.36880    0.50000    0.00000    1.000
    H66      H        0.40200    0.50000    0.00000    1.000
    C95      C        0.28330    0.50000    0.50000    1.000
    C96      C        0.23000    0.50000    0.50000    1.000
    C97      C        0.13120    0.50000    0.50000    1.000
    H67      H        0.09800    0.50000    0.50000    1.000
    C98      C        0.78330    0.00000    0.50000    1.000
    C99      C        0.73000    0.00000    0.50000    1.000
    C100     C        0.63120    0.00000    0.50000    1.000
    H68      H        0.59800    0.00000    0.50000    1.000
    C101     C        0.28330    0.00000    0.00000    1.000
    C102     C        0.23000    0.00000    0.00000    1.000
    C103     C        0.13120    0.00000    0.00000    1.000
    H69      H        0.09800    0.00000    0.00000    1.000
    C104     C        0.78330    0.50000    0.00000    1.000
    C105     C        0.73000    0.50000    0.00000    1.000
    C106     C        0.63120    0.50000    0.00000    1.000
    H70      H        0.59800    0.50000    0.00000    1.000
    C107     C        0.71670    0.50000    0.50000    1.000
    C108     C        0.77000    0.50000    0.50000    1.000
    C109     C        0.86880    0.50000    0.50000    1.000
    H71      H        0.90200    0.50000    0.50000    1.000
    C110     C        0.21670    0.00000    0.50000    1.000
    C111     C        0.27000    0.00000    0.50000    1.000
    C112     C        0.36880    0.00000    0.50000    1.000
    H72      H        0.40200    0.00000    0.50000    1.000
