# CIF file generated by openbabel 3.1.0, see https://openbabel.org
data_I
_chemical_name_common 'image0'
_cell_length_a 35.0063
_cell_length_b 15.0958
_cell_length_c 30.2162
_cell_angle_alpha 90
_cell_angle_beta 102.088
_cell_angle_gamma 90
_space_group_name_H-M_alt 'P 1'
_space_group_name_Hall 'P 1'
loop_
    _symmetry_equiv_pos_as_xyz
    x,y,z
loop_
    _atom_site_label
    _atom_site_type_symbol
    _atom_site_fract_x
    _atom_site_fract_y
    _atom_site_fract_z
    _atom_site_occupancy
    Zn1      Zn       0.37178    0.90828    0.44920    1.000
    I1       I        0.35327    0.93000    0.52422    1.000
    I2       I        0.38350    0.76080    0.41850    1.000
    Zn2      Zn       0.17360    0.64140    0.27240    1.000
    I3       I        0.12869    0.66270    0.19539    1.000
    I4       I        0.23283    0.73980    0.29605    1.000
    Zn3      Zn       0.08051    0.88034    0.09369    1.000
    I5       I        0.11580    0.76599    0.05670    1.000
    I6       I        0.02662    0.85478    0.13634    1.000
    N1       N        0.32926    0.97170    0.40280    1.000
    C1       C        0.32350    0.05750    0.40610    1.000
    H1       H        0.33940    0.08890    0.43040    1.000
    C2       C        0.29560    0.10430    0.37630    1.000
    H2       H        0.29340    0.16660    0.37950    1.000
    C3       C        0.27100    0.06040    0.34200    1.000
    C4       C        0.27620    0.97010    0.33880    1.000
    H3       H        0.26000    0.93680    0.31550    1.000
    C5       C        0.30520    0.92890    0.37020    1.000
    H4       H        0.30800    0.86650    0.36830    1.000
    C6       C        0.24000    0.10680    0.30920    1.000
    N2       N        0.23472    0.19200    0.31410    1.000
    C7       C        0.20650    0.22810    0.28300    1.000
    N3       N        0.18314    0.18390    0.24910    1.000
    C8       C        0.19200    0.09800    0.24690    1.000
    N4       N        0.22108    0.05660    0.27500    1.000
    C9       C        0.19970    0.32570    0.28350    1.000
    C10      C        0.22240    0.38120    0.31460    1.000
    H5       H        0.24230    0.35800    0.33800    1.000
    C11      C        0.21560    0.47090    0.31100    1.000
    H6       H        0.23180    0.50910    0.33190    1.000
    N5       N        0.18770    0.50670    0.28000    1.000
    C12      C        0.16580    0.45280    0.25010    1.000
    H7       H        0.14560    0.47760    0.22750    1.000
    C13      C        0.17140    0.36340    0.25070    1.000
    H8       H        0.15570    0.32720    0.22830    1.000
    C14      C        0.16890    0.04720    0.20840    1.000
    C15      C        0.17530    0.95800    0.20170    1.000
    H9       H        0.19600    0.92750    0.22090    1.000
    C16      C        0.15100    0.91420    0.16650    1.000
    H10      H        0.15540    0.85300    0.16230    1.000
    N6       N        0.12197    0.95320    0.13860    1.000
    C17      C        0.11660    0.03830    0.14470    1.000
    H11      H        0.09570    0.06710    0.12480    1.000
    C18      C        0.13950    0.08780    0.17810    1.000
    H12      H        0.13510    0.14960    0.18020    1.000
    N7       N        0.06208    0.97840    0.04570    1.000
    C19      C        0.03490    0.03840    0.05000    1.000
    H13      H        0.01960    0.02870    0.07200    1.000
    C20      C        0.02840    0.11330    0.02390    1.000
    H14      H        0.00920    0.15500    0.02850    1.000
    C21      C        0.04944    0.12790    0.99140    1.000
    C22      C        0.07580    0.06400    0.98520    1.000
    H15      H        0.09010    0.07040    0.96190    1.000
    C23      C        0.08140    0.99150    0.01260    1.000
    H16      H        0.09990    0.94830    0.00790    1.000
    C24      C        0.04525    0.21030    0.96440    1.000
    N8       N        0.01792    0.26800    0.97050    1.000
    C25      C        0.01408    0.33810    0.94230    1.000
    N9       N        0.03515    0.35450    0.91160    1.000
    C26      C        0.06330    0.29550    0.91080    1.000
    N10      N        0.06913    0.22240    0.93560    1.000
    C27      C        0.98170    0.40020    0.94480    1.000
    C28      C        0.96600    0.40540    0.98290    1.000
    H17      H        0.97640    0.36980    0.00850    1.000
    C29      C        0.93580    0.46100    0.98410    1.000
    H18      H        0.92560    0.46340    0.01090    1.000
    N11      N        0.91966    0.51280    0.94900    1.000
    C30      C        0.93460    0.50640    0.91270    1.000
    H19      H        0.92350    0.54200    0.88730    1.000
    C31      C        0.96530    0.45160    0.90890    1.000
    H20      H        0.97480    0.44980    0.88170    1.000
    C32      C        0.09000    0.31200    0.87950    1.000
    C33      C        0.12380    0.26520    0.88360    1.000
    H21      H        0.13000    0.22020    0.90590    1.000
    C34      C        0.14920    0.28340    0.85530    1.000
    H22      H        0.17320    0.25200    0.85930    1.000
    N12      N        0.14080    0.34420    0.82230    1.000
    C35      C        0.10800    0.38910    0.81890    1.000
    H23      H        0.10180    0.43250    0.79580    1.000
    C36      C        0.08260    0.37630    0.84700    1.000
    H24      H        0.05990    0.41200    0.84400    1.000
    I7       I        0.38740    0.76280    0.41000    1.000
    Zn4      Zn       0.17920    0.64170    0.28110    1.000
    I8       I        0.13860    0.67640    0.20320    1.000
    I9       I        0.24140    0.72480    0.31230    1.000
    Zn5      Zn       0.87178    0.40828    0.44920    1.000
    I10      I        0.85327    0.43000    0.52422    1.000
    I11      I        0.88350    0.26080    0.41850    1.000
    Zn6      Zn       0.67360    0.14140    0.27240    1.000
    I12      I        0.62869    0.16270    0.19539    1.000
    I13      I        0.73283    0.23980    0.29605    1.000
    Zn7      Zn       0.58051    0.38034    0.09369    1.000
    I14      I        0.61580    0.26599    0.05670    1.000
    I15      I        0.52662    0.35478    0.13634    1.000
    N13      N        0.82926    0.47170    0.40280    1.000
    C37      C        0.82350    0.55750    0.40610    1.000
    H25      H        0.83940    0.58890    0.43040    1.000
    C38      C        0.79560    0.60430    0.37630    1.000
    H26      H        0.79340    0.66660    0.37950    1.000
    C39      C        0.77100    0.56040    0.34200    1.000
    C40      C        0.77620    0.47010    0.33880    1.000
    H27      H        0.76000    0.43680    0.31550    1.000
    C41      C        0.80520    0.42890    0.37020    1.000
    H28      H        0.80800    0.36650    0.36830    1.000
    C42      C        0.74000    0.60680    0.30920    1.000
    N14      N        0.73472    0.69200    0.31410    1.000
    C43      C        0.70650    0.72810    0.28300    1.000
    N15      N        0.68314    0.68390    0.24910    1.000
    C44      C        0.69200    0.59800    0.24690    1.000
    N16      N        0.72108    0.55660    0.27500    1.000
    C45      C        0.69970    0.82570    0.28350    1.000
    C46      C        0.72240    0.88120    0.31460    1.000
    H29      H        0.74230    0.85800    0.33800    1.000
    C47      C        0.71560    0.97090    0.31100    1.000
    H30      H        0.73180    0.00910    0.33190    1.000
    N17      N        0.68770    0.00670    0.28000    1.000
    C48      C        0.66580    0.95280    0.25010    1.000
    H31      H        0.64560    0.97760    0.22750    1.000
    C49      C        0.67140    0.86340    0.25070    1.000
    H32      H        0.65570    0.82720    0.22830    1.000
    C50      C        0.66890    0.54720    0.20840    1.000
    C51      C        0.67530    0.45800    0.20170    1.000
    H33      H        0.69600    0.42750    0.22090    1.000
    C52      C        0.65100    0.41420    0.16650    1.000
    H34      H        0.65540    0.35300    0.16230    1.000
    N18      N        0.62197    0.45320    0.13860    1.000
    C53      C        0.61660    0.53830    0.14470    1.000
    H35      H        0.59570    0.56710    0.12480    1.000
    C54      C        0.63950    0.58780    0.17810    1.000
    H36      H        0.63510    0.64960    0.18020    1.000
    N19      N        0.56208    0.47840    0.04570    1.000
    C55      C        0.53490    0.53840    0.05000    1.000
    H37      H        0.51960    0.52870    0.07200    1.000
    C56      C        0.52840    0.61330    0.02390    1.000
    H38      H        0.50920    0.65500    0.02850    1.000
    C57      C        0.54944    0.62790    0.99140    1.000
    C58      C        0.57580    0.56400    0.98520    1.000
    H39      H        0.59010    0.57040    0.96190    1.000
    C59      C        0.58140    0.49150    0.01260    1.000
    H40      H        0.59990    0.44830    0.00790    1.000
    C60      C        0.54525    0.71030    0.96440    1.000
    N20      N        0.51792    0.76800    0.97050    1.000
    C61      C        0.51408    0.83810    0.94230    1.000
    N21      N        0.53515    0.85450    0.91160    1.000
    C62      C        0.56330    0.79550    0.91080    1.000
    N22      N        0.56913    0.72240    0.93560    1.000
    C63      C        0.48170    0.90020    0.94480    1.000
    C64      C        0.46600    0.90540    0.98290    1.000
    H41      H        0.47640    0.86980    0.00850    1.000
    C65      C        0.43580    0.96100    0.98410    1.000
    H42      H        0.42560    0.96340    0.01090    1.000
    N23      N        0.41966    0.01280    0.94900    1.000
    C66      C        0.43460    0.00640    0.91270    1.000
    H43      H        0.42350    0.04200    0.88730    1.000
    C67      C        0.46530    0.95160    0.90890    1.000
    H44      H        0.47480    0.94980    0.88170    1.000
    C68      C        0.59000    0.81200    0.87950    1.000
    C69      C        0.62380    0.76520    0.88360    1.000
    H45      H        0.63000    0.72020    0.90590    1.000
    C70      C        0.64920    0.78340    0.85530    1.000
    H46      H        0.67320    0.75200    0.85930    1.000
    N24      N        0.64080    0.84420    0.82230    1.000
    C71      C        0.60800    0.88910    0.81890    1.000
    H47      H        0.60180    0.93250    0.79580    1.000
    C72      C        0.58260    0.87630    0.84700    1.000
    H48      H        0.55990    0.91200    0.84400    1.000
    I16      I        0.88740    0.26280    0.41000    1.000
    Zn8      Zn       0.67920    0.14170    0.28110    1.000
    I17      I        0.63860    0.17640    0.20320    1.000
    I18      I        0.74140    0.22480    0.31230    1.000
    Zn9      Zn       0.37178    0.09172    0.94920    1.000
    I19      I        0.35327    0.07000    0.02422    1.000
    I20      I        0.38350    0.23920    0.91850    1.000
    Zn10     Zn       0.17360    0.35860    0.77240    1.000
    I21      I        0.12869    0.33730    0.69539    1.000
    I22      I        0.23283    0.26020    0.79605    1.000
    Zn11     Zn       0.08051    0.11966    0.59369    1.000
    I23      I        0.11580    0.23401    0.55670    1.000
    I24      I        0.02662    0.14522    0.63634    1.000
    N25      N        0.32926    0.02830    0.90280    1.000
    C73      C        0.32350    0.94250    0.90610    1.000
    H49      H        0.33940    0.91110    0.93040    1.000
    C74      C        0.29560    0.89570    0.87630    1.000
    H50      H        0.29340    0.83340    0.87950    1.000
    C75      C        0.27100    0.93960    0.84200    1.000
    C76      C        0.27620    0.02990    0.83880    1.000
    H51      H        0.26000    0.06320    0.81550    1.000
    C77      C        0.30520    0.07110    0.87020    1.000
    H52      H        0.30800    0.13350    0.86830    1.000
    C78      C        0.24000    0.89320    0.80920    1.000
    N26      N        0.23472    0.80800    0.81410    1.000
    C79      C        0.20650    0.77190    0.78300    1.000
    N27      N        0.18314    0.81610    0.74910    1.000
    C80      C        0.19200    0.90200    0.74690    1.000
    N28      N        0.22108    0.94340    0.77500    1.000
    C81      C        0.19970    0.67430    0.78350    1.000
    C82      C        0.22240    0.61880    0.81460    1.000
    H53      H        0.24230    0.64200    0.83800    1.000
    C83      C        0.21560    0.52910    0.81100    1.000
    H54      H        0.23180    0.49090    0.83190    1.000
    N29      N        0.18770    0.49330    0.78000    1.000
    C84      C        0.16580    0.54720    0.75010    1.000
    H55      H        0.14560    0.52240    0.72750    1.000
    C85      C        0.17140    0.63660    0.75070    1.000
    H56      H        0.15570    0.67280    0.72830    1.000
    C86      C        0.16890    0.95280    0.70840    1.000
    C87      C        0.17530    0.04200    0.70170    1.000
    H57      H        0.19600    0.07250    0.72090    1.000
    C88      C        0.15100    0.08580    0.66650    1.000
    H58      H        0.15540    0.14700    0.66230    1.000
    N30      N        0.12197    0.04680    0.63860    1.000
    C89      C        0.11660    0.96170    0.64470    1.000
    H59      H        0.09570    0.93290    0.62480    1.000
    C90      C        0.13950    0.91220    0.67810    1.000
    H60      H        0.13510    0.85040    0.68020    1.000
    N31      N        0.06208    0.02160    0.54570    1.000
    C91      C        0.03490    0.96160    0.55000    1.000
    H61      H        0.01960    0.97130    0.57200    1.000
    C92      C        0.02840    0.88670    0.52390    1.000
    H62      H        0.00920    0.84500    0.52850    1.000
    C93      C        0.04944    0.87210    0.49140    1.000
    C94      C        0.07580    0.93600    0.48520    1.000
    H63      H        0.09010    0.92960    0.46190    1.000
    C95      C        0.08140    0.00850    0.51260    1.000
    H64      H        0.09990    0.05170    0.50790    1.000
    C96      C        0.04525    0.78970    0.46440    1.000
    N32      N        0.01792    0.73200    0.47050    1.000
    C97      C        0.01408    0.66190    0.44230    1.000
    N33      N        0.03515    0.64550    0.41160    1.000
    C98      C        0.06330    0.70450    0.41080    1.000
    N34      N        0.06913    0.77760    0.43560    1.000
    C99      C        0.98170    0.59980    0.44480    1.000
    C100     C        0.96600    0.59460    0.48290    1.000
    H65      H        0.97640    0.63020    0.50850    1.000
    C101     C        0.93580    0.53900    0.48410    1.000
    H66      H        0.92560    0.53660    0.51090    1.000
    N35      N        0.91966    0.48720    0.44900    1.000
    C102     C        0.93460    0.49360    0.41270    1.000
    H67      H        0.92350    0.45800    0.38730    1.000
    C103     C        0.96530    0.54840    0.40890    1.000
    H68      H        0.97480    0.55020    0.38170    1.000
    C104     C        0.09000    0.68800    0.37950    1.000
    C105     C        0.12380    0.73480    0.38360    1.000
    H69      H        0.13000    0.77980    0.40590    1.000
    C106     C        0.14920    0.71660    0.35530    1.000
    H70      H        0.17320    0.74800    0.35930    1.000
    N36      N        0.14080    0.65580    0.32230    1.000
    C107     C        0.10800    0.61090    0.31890    1.000
    H71      H        0.10180    0.56750    0.29580    1.000
    C108     C        0.08260    0.62370    0.34700    1.000
    H72      H        0.05990    0.58800    0.34400    1.000
    I25      I        0.38740    0.23720    0.91000    1.000
    Zn12     Zn       0.17920    0.35830    0.78110    1.000
    I26      I        0.13860    0.32360    0.70320    1.000
    I27      I        0.24140    0.27520    0.81230    1.000
    Zn13     Zn       0.87178    0.59172    0.94920    1.000
    I28      I        0.85327    0.57000    0.02422    1.000
    I29      I        0.88350    0.73920    0.91850    1.000
    Zn14     Zn       0.67360    0.85860    0.77240    1.000
    I30      I        0.62869    0.83730    0.69539    1.000
    I31      I        0.73283    0.76020    0.79605    1.000
    Zn15     Zn       0.58051    0.61966    0.59369    1.000
    I32      I        0.61580    0.73401    0.55670    1.000
    I33      I        0.52662    0.64522    0.63634    1.000
    N37      N        0.82926    0.52830    0.90280    1.000
    C109     C        0.82350    0.44250    0.90610    1.000
    H73      H        0.83940    0.41110    0.93040    1.000
    C110     C        0.79560    0.39570    0.87630    1.000
    H74      H        0.79340    0.33340    0.87950    1.000
    C111     C        0.77100    0.43960    0.84200    1.000
    C112     C        0.77620    0.52990    0.83880    1.000
    H75      H        0.76000    0.56320    0.81550    1.000
    C113     C        0.80520    0.57110    0.87020    1.000
    H76      H        0.80800    0.63350    0.86830    1.000
    C114     C        0.74000    0.39320    0.80920    1.000
    N38      N        0.73472    0.30800    0.81410    1.000
    C115     C        0.70650    0.27190    0.78300    1.000
    N39      N        0.68314    0.31610    0.74910    1.000
    C116     C        0.69200    0.40200    0.74690    1.000
    N40      N        0.72108    0.44340    0.77500    1.000
    C117     C        0.69970    0.17430    0.78350    1.000
    C118     C        0.72240    0.11880    0.81460    1.000
    H77      H        0.74230    0.14200    0.83800    1.000
    C119     C        0.71560    0.02910    0.81100    1.000
    H78      H        0.73180    0.99090    0.83190    1.000
    N41      N        0.68770    0.99330    0.78000    1.000
    C120     C        0.66580    0.04720    0.75010    1.000
    H79      H        0.64560    0.02240    0.72750    1.000
    C121     C        0.67140    0.13660    0.75070    1.000
    H80      H        0.65570    0.17280    0.72830    1.000
    C122     C        0.66890    0.45280    0.70840    1.000
    C123     C        0.67530    0.54200    0.70170    1.000
    H81      H        0.69600    0.57250    0.72090    1.000
    C124     C        0.65100    0.58580    0.66650    1.000
    H82      H        0.65540    0.64700    0.66230    1.000
    N42      N        0.62197    0.54680    0.63860    1.000
    C125     C        0.61660    0.46170    0.64470    1.000
    H83      H        0.59570    0.43290    0.62480    1.000
    C126     C        0.63950    0.41220    0.67810    1.000
    H84      H        0.63510    0.35040    0.68020    1.000
    N43      N        0.56208    0.52160    0.54570    1.000
    C127     C        0.53490    0.46160    0.55000    1.000
    H85      H        0.51960    0.47130    0.57200    1.000
    C128     C        0.52840    0.38670    0.52390    1.000
    H86      H        0.50920    0.34500    0.52850    1.000
    C129     C        0.54944    0.37210    0.49140    1.000
    C130     C        0.57580    0.43600    0.48520    1.000
    H87      H        0.59010    0.42960    0.46190    1.000
    C131     C        0.58140    0.50850    0.51260    1.000
    H88      H        0.59990    0.55170    0.50790    1.000
    C132     C        0.54525    0.28970    0.46440    1.000
    N44      N        0.51792    0.23200    0.47050    1.000
    C133     C        0.51408    0.16190    0.44230    1.000
    N45      N        0.53515    0.14550    0.41160    1.000
    C134     C        0.56330    0.20450    0.41080    1.000
    N46      N        0.56913    0.27760    0.43560    1.000
    C135     C        0.48170    0.09980    0.44480    1.000
    C136     C        0.46600    0.09460    0.48290    1.000
    H89      H        0.47640    0.13020    0.50850    1.000
    C137     C        0.43580    0.03900    0.48410    1.000
    H90      H        0.42560    0.03660    0.51090    1.000
    N47      N        0.41966    0.98720    0.44900    1.000
    C138     C        0.43460    0.99360    0.41270    1.000
    H91      H        0.42350    0.95800    0.38730    1.000
    C139     C        0.46530    0.04840    0.40890    1.000
    H92      H        0.47480    0.05020    0.38170    1.000
    C140     C        0.59000    0.18800    0.37950    1.000
    C141     C        0.62380    0.23480    0.38360    1.000
    H93      H        0.63000    0.27980    0.40590    1.000
    C142     C        0.64920    0.21660    0.35530    1.000
    H94      H        0.67320    0.24800    0.35930    1.000
    N48      N        0.64080    0.15580    0.32230    1.000
    C143     C        0.60800    0.11090    0.31890    1.000
    H95      H        0.60180    0.06750    0.29580    1.000
    C144     C        0.58260    0.12370    0.34700    1.000
    H96      H        0.55990    0.08800    0.34400    1.000
    I34      I        0.88740    0.73720    0.91000    1.000
    Zn16     Zn       0.67920    0.85830    0.78110    1.000
    I35      I        0.63860    0.82360    0.70320    1.000
    I36      I        0.74140    0.77520    0.81230    1.000
    Zn17     Zn       0.62822    0.90828    0.05080    1.000
    I37      I        0.64673    0.93000    0.97578    1.000
    I38      I        0.61650    0.76080    0.08150    1.000
    Zn18     Zn       0.82640    0.64140    0.22760    1.000
    I39      I        0.87131    0.66270    0.30461    1.000
    I40      I        0.76717    0.73980    0.20395    1.000
    Zn19     Zn       0.91949    0.88034    0.40631    1.000
    I41      I        0.88420    0.76599    0.44330    1.000
    I42      I        0.97338    0.85478    0.36366    1.000
    N49      N        0.67074    0.97170    0.09720    1.000
    C145     C        0.67650    0.05750    0.09390    1.000
    H97      H        0.66060    0.08890    0.06960    1.000
    C146     C        0.70440    0.10430    0.12370    1.000
    H98      H        0.70660    0.16660    0.12050    1.000
    C147     C        0.72900    0.06040    0.15800    1.000
    C148     C        0.72380    0.97010    0.16120    1.000
    H99      H        0.74000    0.93680    0.18450    1.000
    C149     C        0.69480    0.92890    0.12980    1.000
    H100     H        0.69200    0.86650    0.13170    1.000
    C150     C        0.76000    0.10680    0.19080    1.000
    N50      N        0.76528    0.19200    0.18590    1.000
    C151     C        0.79350    0.22810    0.21700    1.000
    N51      N        0.81686    0.18390    0.25090    1.000
    C152     C        0.80800    0.09800    0.25310    1.000
    N52      N        0.77892    0.05660    0.22500    1.000
    C153     C        0.80030    0.32570    0.21650    1.000
    C154     C        0.77760    0.38120    0.18540    1.000
    H101     H        0.75770    0.35800    0.16200    1.000
    C155     C        0.78440    0.47090    0.18900    1.000
    H102     H        0.76820    0.50910    0.16810    1.000
    N53      N        0.81230    0.50670    0.22000    1.000
    C156     C        0.83420    0.45280    0.24990    1.000
    H103     H        0.85440    0.47760    0.27250    1.000
    C157     C        0.82860    0.36340    0.24930    1.000
    H104     H        0.84430    0.32720    0.27170    1.000
    C158     C        0.83110    0.04720    0.29160    1.000
    C159     C        0.82470    0.95800    0.29830    1.000
    H105     H        0.80400    0.92750    0.27910    1.000
    C160     C        0.84900    0.91420    0.33350    1.000
    H106     H        0.84460    0.85300    0.33770    1.000
    N54      N        0.87803    0.95320    0.36140    1.000
    C161     C        0.88340    0.03830    0.35530    1.000
    H107     H        0.90430    0.06710    0.37520    1.000
    C162     C        0.86050    0.08780    0.32190    1.000
    H108     H        0.86490    0.14960    0.31980    1.000
    N55      N        0.93792    0.97840    0.45430    1.000
    C163     C        0.96510    0.03840    0.45000    1.000
    H109     H        0.98040    0.02870    0.42800    1.000
    C164     C        0.97160    0.11330    0.47610    1.000
    H110     H        0.99080    0.15500    0.47150    1.000
    C165     C        0.95056    0.12790    0.50860    1.000
    C166     C        0.92420    0.06400    0.51480    1.000
    H111     H        0.90990    0.07040    0.53810    1.000
    C167     C        0.91860    0.99150    0.48740    1.000
    H112     H        0.90010    0.94830    0.49210    1.000
    C168     C        0.95475    0.21030    0.53560    1.000
    N56      N        0.98208    0.26800    0.52950    1.000
    C169     C        0.98592    0.33810    0.55770    1.000
    N57      N        0.96485    0.35450    0.58840    1.000
    C170     C        0.93670    0.29550    0.58920    1.000
    N58      N        0.93087    0.22240    0.56440    1.000
    C171     C        0.01830    0.40020    0.55520    1.000
    C172     C        0.03400    0.40540    0.51710    1.000
    H113     H        0.02360    0.36980    0.49150    1.000
    C173     C        0.06420    0.46100    0.51590    1.000
    H114     H        0.07440    0.46340    0.48910    1.000
    N59      N        0.08034    0.51280    0.55100    1.000
    C174     C        0.06540    0.50640    0.58730    1.000
    H115     H        0.07650    0.54200    0.61270    1.000
    C175     C        0.03470    0.45160    0.59110    1.000
    H116     H        0.02520    0.44980    0.61830    1.000
    C176     C        0.91000    0.31200    0.62050    1.000
    C177     C        0.87620    0.26520    0.61640    1.000
    H117     H        0.87000    0.22020    0.59410    1.000
    C178     C        0.85080    0.28340    0.64470    1.000
    H118     H        0.82680    0.25200    0.64070    1.000
    N60      N        0.85920    0.34420    0.67770    1.000
    C179     C        0.89200    0.38910    0.68110    1.000
    H119     H        0.89820    0.43250    0.70420    1.000
    C180     C        0.91740    0.37630    0.65300    1.000
    H120     H        0.94010    0.41200    0.65600    1.000
    I43      I        0.61260    0.76280    0.09000    1.000
    Zn20     Zn       0.82080    0.64170    0.21890    1.000
    I44      I        0.86140    0.67640    0.29680    1.000
    I45      I        0.75860    0.72480    0.18770    1.000
    Zn21     Zn       0.12822    0.40828    0.05080    1.000
    I46      I        0.14673    0.43000    0.97578    1.000
    I47      I        0.11650    0.26080    0.08150    1.000
    Zn22     Zn       0.32640    0.14140    0.22760    1.000
    I48      I        0.37131    0.16270    0.30461    1.000
    I49      I        0.26717    0.23980    0.20395    1.000
    Zn23     Zn       0.41949    0.38034    0.40631    1.000
    I50      I        0.38420    0.26599    0.44330    1.000
    I51      I        0.47338    0.35478    0.36366    1.000
    N61      N        0.17074    0.47170    0.09720    1.000
    C181     C        0.17650    0.55750    0.09390    1.000
    H121     H        0.16060    0.58890    0.06960    1.000
    C182     C        0.20440    0.60430    0.12370    1.000
    H122     H        0.20660    0.66660    0.12050    1.000
    C183     C        0.22900    0.56040    0.15800    1.000
    C184     C        0.22380    0.47010    0.16120    1.000
    H123     H        0.24000    0.43680    0.18450    1.000
    C185     C        0.19480    0.42890    0.12980    1.000
    H124     H        0.19200    0.36650    0.13170    1.000
    C186     C        0.26000    0.60680    0.19080    1.000
    N62      N        0.26528    0.69200    0.18590    1.000
    C187     C        0.29350    0.72810    0.21700    1.000
    N63      N        0.31686    0.68390    0.25090    1.000
    C188     C        0.30800    0.59800    0.25310    1.000
    N64      N        0.27892    0.55660    0.22500    1.000
    C189     C        0.30030    0.82570    0.21650    1.000
    C190     C        0.27760    0.88120    0.18540    1.000
    H125     H        0.25770    0.85800    0.16200    1.000
    C191     C        0.28440    0.97090    0.18900    1.000
    H126     H        0.26820    0.00910    0.16810    1.000
    N65      N        0.31230    0.00670    0.22000    1.000
    C192     C        0.33420    0.95280    0.24990    1.000
    H127     H        0.35440    0.97760    0.27250    1.000
    C193     C        0.32860    0.86340    0.24930    1.000
    H128     H        0.34430    0.82720    0.27170    1.000
    C194     C        0.33110    0.54720    0.29160    1.000
    C195     C        0.32470    0.45800    0.29830    1.000
    H129     H        0.30400    0.42750    0.27910    1.000
    C196     C        0.34900    0.41420    0.33350    1.000
    H130     H        0.34460    0.35300    0.33770    1.000
    N66      N        0.37803    0.45320    0.36140    1.000
    C197     C        0.38340    0.53830    0.35530    1.000
    H131     H        0.40430    0.56710    0.37520    1.000
    C198     C        0.36050    0.58780    0.32190    1.000
    H132     H        0.36490    0.64960    0.31980    1.000
    N67      N        0.43792    0.47840    0.45430    1.000
    C199     C        0.46510    0.53840    0.45000    1.000
    H133     H        0.48040    0.52870    0.42800    1.000
    C200     C        0.47160    0.61330    0.47610    1.000
    H134     H        0.49080    0.65500    0.47150    1.000
    C201     C        0.45056    0.62790    0.50860    1.000
    C202     C        0.42420    0.56400    0.51480    1.000
    H135     H        0.40990    0.57040    0.53810    1.000
    C203     C        0.41860    0.49150    0.48740    1.000
    H136     H        0.40010    0.44830    0.49210    1.000
    C204     C        0.45475    0.71030    0.53560    1.000
    N68      N        0.48208    0.76800    0.52950    1.000
    C205     C        0.48592    0.83810    0.55770    1.000
    N69      N        0.46485    0.85450    0.58840    1.000
    C206     C        0.43670    0.79550    0.58920    1.000
    N70      N        0.43087    0.72240    0.56440    1.000
    C207     C        0.51830    0.90020    0.55520    1.000
    C208     C        0.53400    0.90540    0.51710    1.000
    H137     H        0.52360    0.86980    0.49150    1.000
    C209     C        0.56420    0.96100    0.51590    1.000
    H138     H        0.57440    0.96340    0.48910    1.000
    N71      N        0.58034    0.01280    0.55100    1.000
    C210     C        0.56540    0.00640    0.58730    1.000
    H139     H        0.57650    0.04200    0.61270    1.000
    C211     C        0.53470    0.95160    0.59110    1.000
    H140     H        0.52520    0.94980    0.61830    1.000
    C212     C        0.41000    0.81200    0.62050    1.000
    C213     C        0.37620    0.76520    0.61640    1.000
    H141     H        0.37000    0.72020    0.59410    1.000
    C214     C        0.35080    0.78340    0.64470    1.000
    H142     H        0.32680    0.75200    0.64070    1.000
    N72      N        0.35920    0.84420    0.67770    1.000
    C215     C        0.39200    0.88910    0.68110    1.000
    H143     H        0.39820    0.93250    0.70420    1.000
    C216     C        0.41740    0.87630    0.65300    1.000
    H144     H        0.44010    0.91200    0.65600    1.000
    I52      I        0.11260    0.26280    0.09000    1.000
    Zn24     Zn       0.32080    0.14170    0.21890    1.000
    I53      I        0.36140    0.17640    0.29680    1.000
    I54      I        0.25860    0.22480    0.18770    1.000
    Zn25     Zn       0.62822    0.09172    0.55080    1.000
    I55      I        0.64673    0.07000    0.47578    1.000
    I56      I        0.61650    0.23920    0.58150    1.000
    Zn26     Zn       0.82640    0.35860    0.72760    1.000
    I57      I        0.87131    0.33730    0.80461    1.000
    I58      I        0.76717    0.26020    0.70395    1.000
    Zn27     Zn       0.91949    0.11966    0.90631    1.000
    I59      I        0.88420    0.23401    0.94330    1.000
    I60      I        0.97338    0.14522    0.86366    1.000
    N73      N        0.67074    0.02830    0.59720    1.000
    C217     C        0.67650    0.94250    0.59390    1.000
    H145     H        0.66060    0.91110    0.56960    1.000
    C218     C        0.70440    0.89570    0.62370    1.000
    H146     H        0.70660    0.83340    0.62050    1.000
    C219     C        0.72900    0.93960    0.65800    1.000
    C220     C        0.72380    0.02990    0.66120    1.000
    H147     H        0.74000    0.06320    0.68450    1.000
    C221     C        0.69480    0.07110    0.62980    1.000
    H148     H        0.69200    0.13350    0.63170    1.000
    C222     C        0.76000    0.89320    0.69080    1.000
    N74      N        0.76528    0.80800    0.68590    1.000
    C223     C        0.79350    0.77190    0.71700    1.000
    N75      N        0.81686    0.81610    0.75090    1.000
    C224     C        0.80800    0.90200    0.75310    1.000
    N76      N        0.77892    0.94340    0.72500    1.000
    C225     C        0.80030    0.67430    0.71650    1.000
    C226     C        0.77760    0.61880    0.68540    1.000
    H149     H        0.75770    0.64200    0.66200    1.000
    C227     C        0.78440    0.52910    0.68900    1.000
    H150     H        0.76820    0.49090    0.66810    1.000
    N77      N        0.81230    0.49330    0.72000    1.000
    C228     C        0.83420    0.54720    0.74990    1.000
    H151     H        0.85440    0.52240    0.77250    1.000
    C229     C        0.82860    0.63660    0.74930    1.000
    H152     H        0.84430    0.67280    0.77170    1.000
    C230     C        0.83110    0.95280    0.79160    1.000
    C231     C        0.82470    0.04200    0.79830    1.000
    H153     H        0.80400    0.07250    0.77910    1.000
    C232     C        0.84900    0.08580    0.83350    1.000
    H154     H        0.84460    0.14700    0.83770    1.000
    N78      N        0.87803    0.04680    0.86140    1.000
    C233     C        0.88340    0.96170    0.85530    1.000
    H155     H        0.90430    0.93290    0.87520    1.000
    C234     C        0.86050    0.91220    0.82190    1.000
    H156     H        0.86490    0.85040    0.81980    1.000
    N79      N        0.93792    0.02160    0.95430    1.000
    C235     C        0.96510    0.96160    0.95000    1.000
    H157     H        0.98040    0.97130    0.92800    1.000
    C236     C        0.97160    0.88670    0.97610    1.000
    H158     H        0.99080    0.84500    0.97150    1.000
    C237     C        0.95056    0.87210    0.00860    1.000
    C238     C        0.92420    0.93600    0.01480    1.000
    H159     H        0.90990    0.92960    0.03810    1.000
    C239     C        0.91860    0.00850    0.98740    1.000
    H160     H        0.90010    0.05170    0.99210    1.000
    C240     C        0.95475    0.78970    0.03560    1.000
    N80      N        0.98208    0.73200    0.02950    1.000
    C241     C        0.98592    0.66190    0.05770    1.000
    N81      N        0.96485    0.64550    0.08840    1.000
    C242     C        0.93670    0.70450    0.08920    1.000
    N82      N        0.93087    0.77760    0.06440    1.000
    C243     C        0.01830    0.59980    0.05520    1.000
    C244     C        0.03400    0.59460    0.01710    1.000
    H161     H        0.02360    0.63020    0.99150    1.000
    C245     C        0.06420    0.53900    0.01590    1.000
    H162     H        0.07440    0.53660    0.98910    1.000
    N83      N        0.08034    0.48720    0.05100    1.000
    C246     C        0.06540    0.49360    0.08730    1.000
    H163     H        0.07650    0.45800    0.11270    1.000
    C247     C        0.03470    0.54840    0.09110    1.000
    H164     H        0.02520    0.55020    0.11830    1.000
    C248     C        0.91000    0.68800    0.12050    1.000
    C249     C        0.87620    0.73480    0.11640    1.000
    H165     H        0.87000    0.77980    0.09410    1.000
    C250     C        0.85080    0.71660    0.14470    1.000
    H166     H        0.82680    0.74800    0.14070    1.000
    N84      N        0.85920    0.65580    0.17770    1.000
    C251     C        0.89200    0.61090    0.18110    1.000
    H167     H        0.89820    0.56750    0.20420    1.000
    C252     C        0.91740    0.62370    0.15300    1.000
    H168     H        0.94010    0.58800    0.15600    1.000
    I61      I        0.61260    0.23720    0.59000    1.000
    Zn28     Zn       0.82080    0.35830    0.71890    1.000
    I62      I        0.86140    0.32360    0.79680    1.000
    I63      I        0.75860    0.27520    0.68770    1.000
    Zn29     Zn       0.12822    0.59172    0.55080    1.000
    I64      I        0.14673    0.57000    0.47578    1.000
    I65      I        0.11650    0.73920    0.58150    1.000
    Zn30     Zn       0.32640    0.85860    0.72760    1.000
    I66      I        0.37131    0.83730    0.80461    1.000
    I67      I        0.26717    0.76020    0.70395    1.000
    Zn31     Zn       0.41949    0.61966    0.90631    1.000
    I68      I        0.38420    0.73401    0.94330    1.000
    I69      I        0.47338    0.64522    0.86366    1.000
    N85      N        0.17074    0.52830    0.59720    1.000
    C253     C        0.17650    0.44250    0.59390    1.000
    H169     H        0.16060    0.41110    0.56960    1.000
    C254     C        0.20440    0.39570    0.62370    1.000
    H170     H        0.20660    0.33340    0.62050    1.000
    C255     C        0.22900    0.43960    0.65800    1.000
    C256     C        0.22380    0.52990    0.66120    1.000
    H171     H        0.24000    0.56320    0.68450    1.000
    C257     C        0.19480    0.57110    0.62980    1.000
    H172     H        0.19200    0.63350    0.63170    1.000
    C258     C        0.26000    0.39320    0.69080    1.000
    N86      N        0.26528    0.30800    0.68590    1.000
    C259     C        0.29350    0.27190    0.71700    1.000
    N87      N        0.31686    0.31610    0.75090    1.000
    C260     C        0.30800    0.40200    0.75310    1.000
    N88      N        0.27892    0.44340    0.72500    1.000
    C261     C        0.30030    0.17430    0.71650    1.000
    C262     C        0.27760    0.11880    0.68540    1.000
    H173     H        0.25770    0.14200    0.66200    1.000
    C263     C        0.28440    0.02910    0.68900    1.000
    H174     H        0.26820    0.99090    0.66810    1.000
    N89      N        0.31230    0.99330    0.72000    1.000
    C264     C        0.33420    0.04720    0.74990    1.000
    H175     H        0.35440    0.02240    0.77250    1.000
    C265     C        0.32860    0.13660    0.74930    1.000
    H176     H        0.34430    0.17280    0.77170    1.000
    C266     C        0.33110    0.45280    0.79160    1.000
    C267     C        0.32470    0.54200    0.79830    1.000
    H177     H        0.30400    0.57250    0.77910    1.000
    C268     C        0.34900    0.58580    0.83350    1.000
    H178     H        0.34460    0.64700    0.83770    1.000
    N90      N        0.37803    0.54680    0.86140    1.000
    C269     C        0.38340    0.46170    0.85530    1.000
    H179     H        0.40430    0.43290    0.87520    1.000
    C270     C        0.36050    0.41220    0.82190    1.000
    H180     H        0.36490    0.35040    0.81980    1.000
    N91      N        0.43792    0.52160    0.95430    1.000
    C271     C        0.46510    0.46160    0.95000    1.000
    H181     H        0.48040    0.47130    0.92800    1.000
    C272     C        0.47160    0.38670    0.97610    1.000
    H182     H        0.49080    0.34500    0.97150    1.000
    C273     C        0.45056    0.37210    0.00860    1.000
    C274     C        0.42420    0.43600    0.01480    1.000
    H183     H        0.40990    0.42960    0.03810    1.000
    C275     C        0.41860    0.50850    0.98740    1.000
    H184     H        0.40010    0.55170    0.99210    1.000
    C276     C        0.45475    0.28970    0.03560    1.000
    N92      N        0.48208    0.23200    0.02950    1.000
    C277     C        0.48592    0.16190    0.05770    1.000
    N93      N        0.46485    0.14550    0.08840    1.000
    C278     C        0.43670    0.20450    0.08920    1.000
    N94      N        0.43087    0.27760    0.06440    1.000
    C279     C        0.51830    0.09980    0.05520    1.000
    C280     C        0.53400    0.09460    0.01710    1.000
    H185     H        0.52360    0.13020    0.99150    1.000
    C281     C        0.56420    0.03900    0.01590    1.000
    H186     H        0.57440    0.03660    0.98910    1.000
    N95      N        0.58034    0.98720    0.05100    1.000
    C282     C        0.56540    0.99360    0.08730    1.000
    H187     H        0.57650    0.95800    0.11270    1.000
    C283     C        0.53470    0.04840    0.09110    1.000
    H188     H        0.52520    0.05020    0.11830    1.000
    C284     C        0.41000    0.18800    0.12050    1.000
    C285     C        0.37620    0.23480    0.11640    1.000
    H189     H        0.37000    0.27980    0.09410    1.000
    C286     C        0.35080    0.21660    0.14470    1.000
    H190     H        0.32680    0.24800    0.14070    1.000
    N96      N        0.35920    0.15580    0.17770    1.000
    C287     C        0.39200    0.11090    0.18110    1.000
    H191     H        0.39820    0.06750    0.20420    1.000
    C288     C        0.41740    0.12370    0.15300    1.000
    H192     H        0.44010    0.08800    0.15600    1.000
    I70      I        0.11260    0.73720    0.59000    1.000
    Zn32     Zn       0.32080    0.85830    0.71890    1.000
    I71      I        0.36140    0.82360    0.79680    1.000
    I72      I        0.25860    0.77520    0.68770    1.000
