data_functionalizedCrystal
_audit_creation_method	'EQeq! by Chris Wilmer'
_symmetry_space_group_name_H-M	'P1'
_symmetry_Int_Tables_number	1
_symmetry_cell_setting	triclinic
loop_
_symmetry_equiv_pos_as_xyz
  x,y,z
_cell_length_a	23.7035
_cell_length_b	23.7035
_cell_length_c	23.7035
_cell_angle_alpha	90
_cell_angle_beta	90
_cell_angle_gamma	90
loop_
_atom_site_label
_atom_site_type_symbol
_atom_site_fract_x
_atom_site_fract_y
_atom_site_fract_z
_atom_site_charge
Mof_N 	N 	0.8003	0.4635	0.0588	-0.221
Mof_N 	N 	0.7889	0.4063	0.0687	-0.142
Mof_C 	C 	0.8174	0.3803	0.1083	0.154
Mof_C 	C 	0.8391	0.4904	0.0868	0.137
Mof_C 	C 	0.8503	0.5509	0.0744	-0.327
Mof_H 	H 	0.8161	0.5689	0.0623	0.101
Mof_H 	H 	0.8774	0.554	0.0445	0.113
Mof_C 	C 	0.8039	0.3192	0.1212	-0.355
Mof_H 	H 	0.7949	0.2999	0.0868	0.128
Mof_H 	H 	0.771	0.3181	0.1449	0.129
Mof_N 	N 	0.3003	0.9635	0.5588	-0.219
Mof_N 	N 	0.2889	0.9063	0.5687	-0.129
Mof_C 	C 	0.3174	0.8803	0.6083	0.147
Mof_C 	C 	0.3391	0.9904	0.5868	0.227
Mof_C 	C 	0.3503	0.0509	0.5744	-0.469
Mof_H 	H 	0.3161	0.0689	0.5623	0.145
Mof_H 	H 	0.3774	0.054	0.5445	0.154
Mof_C 	C 	0.3039	0.8192	0.6212	-0.345
Mof_H 	H 	0.2949	0.7999	0.5868	0.131
Mof_H 	H 	0.271	0.8181	0.6449	0.128
Mof_N 	N 	0.1997	0.5365	0.0588	-0.219
Mof_N 	N 	0.2111	0.5937	0.0687	-0.142
Mof_C 	C 	0.1826	0.6197	0.1083	0.155
Mof_C 	C 	0.1609	0.5096	0.0868	0.126
Mof_C 	C 	0.1497	0.4491	0.0744	-0.307
Mof_H 	H 	0.1839	0.4311	0.0623	0.093
Mof_H 	H 	0.1226	0.446	0.0445	0.099
Mof_C 	C 	0.1961	0.6808	0.1212	-0.358
Mof_H 	H 	0.2051	0.7001	0.0868	0.128
Mof_H 	H 	0.229	0.6819	0.1449	0.131
Mof_N 	N 	0.6997	0.0365	0.5588	-0.206
Mof_N 	N 	0.7111	0.0937	0.5687	-0.139
Mof_C 	C 	0.6826	0.1197	0.6083	0.168
Mof_C 	C 	0.6609	0.0096	0.5868	0.058
Mof_C 	C 	0.6497	0.9491	0.5744	-0.198
Mof_H 	H 	0.6839	0.9311	0.5623	0.073
Mof_H 	H 	0.6226	0.946	0.5445	0.089
Mof_C 	C 	0.6961	0.1808	0.6212	-0.369
Mof_H 	H 	0.7051	0.2001	0.5868	0.138
Mof_H 	H 	0.729	0.1819	0.6449	0.134
Mof_N 	N 	0.1997	0.4635	0.9412	-0.205
Mof_N 	N 	0.2111	0.4063	0.9313	-0.127
Mof_C 	C 	0.1826	0.3803	0.8917	0.159
Mof_C 	C 	0.1609	0.4904	0.9132	0.148
Mof_C 	C 	0.1497	0.5509	0.9256	-0.34
Mof_H 	H 	0.1839	0.5689	0.9377	0.118
Mof_H 	H 	0.1226	0.554	0.9555	0.13
Mof_C 	C 	0.1961	0.3192	0.8788	-0.358
Mof_H 	H 	0.2051	0.2999	0.9132	0.138
Mof_H 	H 	0.229	0.3181	0.8551	0.131
Mof_N 	N 	0.6997	0.9635	0.4412	-0.219
Mof_N 	N 	0.7111	0.9063	0.4313	-0.129
Mof_C 	C 	0.6826	0.8803	0.3917	0.148
Mof_C 	C 	0.6609	0.9904	0.4132	0.227
Mof_C 	C 	0.6497	0.0509	0.4256	-0.469
Mof_H 	H 	0.6839	0.0689	0.4377	0.145
Mof_H 	H 	0.6226	0.054	0.4555	0.154
Mof_C 	C 	0.6961	0.8192	0.3788	-0.346
Mof_H 	H 	0.7051	0.7999	0.4132	0.131
Mof_H 	H 	0.729	0.8181	0.3551	0.129
Mof_N 	N 	0.8003	0.5365	0.9412	-0.207
Mof_N 	N 	0.7889	0.5937	0.9313	-0.125
Mof_C 	C 	0.8174	0.6197	0.8917	0.159
Mof_C 	C 	0.8391	0.5096	0.9132	0.159
Mof_C 	C 	0.8503	0.4491	0.9256	-0.361
Mof_H 	H 	0.8161	0.4311	0.9377	0.125
Mof_H 	H 	0.8774	0.446	0.9555	0.144
Mof_C 	C 	0.8039	0.6808	0.8788	-0.351
Mof_H 	H 	0.7949	0.7001	0.9132	0.14
Mof_H 	H 	0.771	0.6819	0.8551	0.129
Mof_N 	N 	0.3003	0.0365	0.4412	-0.206
Mof_N 	N 	0.2889	0.0937	0.4313	-0.139
Mof_C 	C 	0.3174	0.1197	0.3917	0.164
Mof_C 	C 	0.3391	0.0096	0.4132	0.059
Mof_C 	C 	0.3503	0.9491	0.4256	-0.199
Mof_H 	H 	0.3161	0.9311	0.4377	0.073
Mof_H 	H 	0.3774	0.946	0.4555	0.089
Mof_C 	C 	0.3039	0.1808	0.3788	-0.362
Mof_H 	H 	0.2949	0.2001	0.4132	0.135
Mof_H 	H 	0.271	0.1819	0.3551	0.129
Mof_N 	N 	0.0588	0.8003	0.4635	-0.22
Mof_N 	N 	0.0687	0.7889	0.4063	-0.141
Mof_C 	C 	0.1083	0.8174	0.3803	0.155
Mof_C 	C 	0.0868	0.8391	0.4904	0.137
Mof_C 	C 	0.0744	0.8503	0.5509	-0.327
Mof_H 	H 	0.0623	0.8161	0.5689	0.101
Mof_H 	H 	0.0445	0.8774	0.554	0.113
Mof_C 	C 	0.1212	0.8039	0.3192	-0.355
Mof_H 	H 	0.0868	0.7949	0.2999	0.128
Mof_H 	H 	0.1449	0.771	0.3181	0.129
Mof_N 	N 	0.5588	0.3003	0.9635	-0.219
Mof_N 	N 	0.5687	0.2889	0.9063	-0.129
Mof_C 	C 	0.6083	0.3174	0.8803	0.147
Mof_C 	C 	0.5868	0.3391	0.9904	0.227
Mof_C 	C 	0.5744	0.3503	0.0509	-0.469
Mof_H 	H 	0.5623	0.3161	0.0689	0.145
Mof_H 	H 	0.5445	0.3774	0.054	0.154
Mof_C 	C 	0.6212	0.3039	0.8192	-0.345
Mof_H 	H 	0.5868	0.2949	0.7999	0.131
Mof_H 	H 	0.6449	0.271	0.8181	0.128
Mof_N 	N 	0.0588	0.1997	0.5365	-0.219
Mof_N 	N 	0.0687	0.2111	0.5937	-0.142
Mof_C 	C 	0.1083	0.1826	0.6197	0.155
Mof_C 	C 	0.0868	0.1609	0.5096	0.126
Mof_C 	C 	0.0744	0.1497	0.4491	-0.307
Mof_H 	H 	0.0623	0.1839	0.4311	0.093
Mof_H 	H 	0.0445	0.1226	0.446	0.099
Mof_C 	C 	0.1212	0.1961	0.6808	-0.358
Mof_H 	H 	0.0868	0.2051	0.7001	0.128
Mof_H 	H 	0.1449	0.229	0.6819	0.131
Mof_N 	N 	0.5588	0.6997	0.0365	-0.206
Mof_N 	N 	0.5687	0.7111	0.0937	-0.139
Mof_C 	C 	0.6083	0.6826	0.1197	0.168
Mof_C 	C 	0.5868	0.6609	0.0096	0.058
Mof_C 	C 	0.5744	0.6497	0.9491	-0.198
Mof_H 	H 	0.5623	0.6839	0.9311	0.073
Mof_H 	H 	0.5445	0.6226	0.946	0.089
Mof_C 	C 	0.6212	0.6961	0.1808	-0.369
Mof_H 	H 	0.5868	0.7051	0.2001	0.138
Mof_H 	H 	0.6449	0.729	0.1819	0.134
Mof_N 	N 	0.9412	0.1997	0.4635	-0.205
Mof_N 	N 	0.9313	0.2111	0.4063	-0.127
Mof_C 	C 	0.8917	0.1826	0.3803	0.159
Mof_C 	C 	0.9132	0.1609	0.4904	0.148
Mof_C 	C 	0.9256	0.1497	0.5509	-0.34
Mof_H 	H 	0.9377	0.1839	0.5689	0.118
Mof_H 	H 	0.9555	0.1226	0.554	0.13
Mof_C 	C 	0.8788	0.1961	0.3192	-0.358
Mof_H 	H 	0.9132	0.2051	0.2999	0.138
Mof_H 	H 	0.8551	0.229	0.3181	0.131
Mof_N 	N 	0.4412	0.6997	0.9635	-0.219
Mof_N 	N 	0.4313	0.7111	0.9063	-0.129
Mof_C 	C 	0.3917	0.6826	0.8803	0.148
Mof_C 	C 	0.4132	0.6609	0.9904	0.227
Mof_C 	C 	0.4256	0.6497	0.0509	-0.469
Mof_H 	H 	0.4377	0.6839	0.0689	0.145
Mof_H 	H 	0.4555	0.6226	0.054	0.154
Mof_C 	C 	0.3788	0.6961	0.8192	-0.346
Mof_H 	H 	0.4132	0.7051	0.7999	0.131
Mof_H 	H 	0.3551	0.729	0.8181	0.129
Mof_N 	N 	0.9412	0.8003	0.5365	-0.207
Mof_N 	N 	0.9313	0.7889	0.5937	-0.125
Mof_C 	C 	0.8917	0.8174	0.6197	0.159
Mof_C 	C 	0.9132	0.8391	0.5096	0.159
Mof_C 	C 	0.9256	0.8503	0.4491	-0.361
Mof_H 	H 	0.9377	0.8161	0.4311	0.125
Mof_H 	H 	0.9555	0.8774	0.446	0.144
Mof_C 	C 	0.8788	0.8039	0.6808	-0.351
Mof_H 	H 	0.9132	0.7949	0.7001	0.14
Mof_H 	H 	0.8551	0.771	0.6819	0.129
Mof_N 	N 	0.4412	0.3003	0.0365	-0.206
Mof_N 	N 	0.4313	0.2889	0.0937	-0.139
Mof_C 	C 	0.3917	0.3174	0.1197	0.164
Mof_C 	C 	0.4132	0.3391	0.0096	0.059
Mof_C 	C 	0.4256	0.3503	0.9491	-0.199
Mof_H 	H 	0.4377	0.3161	0.9311	0.073
Mof_H 	H 	0.4555	0.3774	0.946	0.089
Mof_C 	C 	0.3788	0.3039	0.1808	-0.362
Mof_H 	H 	0.4132	0.2949	0.2001	0.135
Mof_H 	H 	0.3551	0.271	0.1819	0.129
Mof_N 	N 	0.4635	0.0588	0.8003	-0.22
Mof_N 	N 	0.4063	0.0687	0.7889	-0.141
Mof_C 	C 	0.3803	0.1083	0.8174	0.155
Mof_C 	C 	0.4904	0.0868	0.8391	0.137
Mof_C 	C 	0.5509	0.0744	0.8503	-0.327
Mof_H 	H 	0.5689	0.0623	0.8161	0.101
Mof_H 	H 	0.554	0.0445	0.8774	0.113
Mof_C 	C 	0.3192	0.1212	0.8039	-0.355
Mof_H 	H 	0.2999	0.0868	0.7949	0.128
Mof_H 	H 	0.3181	0.1449	0.771	0.129
Mof_N 	N 	0.9635	0.5588	0.3003	-0.219
Mof_N 	N 	0.9063	0.5687	0.2889	-0.129
Mof_C 	C 	0.8803	0.6083	0.3174	0.147
Mof_C 	C 	0.9904	0.5868	0.3391	0.227
Mof_C 	C 	0.0509	0.5744	0.3503	-0.469
Mof_H 	H 	0.0689	0.5623	0.3161	0.145
Mof_H 	H 	0.054	0.5445	0.3774	0.154
Mof_C 	C 	0.8192	0.6212	0.3039	-0.345
Mof_H 	H 	0.7999	0.5868	0.2949	0.131
Mof_H 	H 	0.8181	0.6449	0.271	0.128
Mof_N 	N 	0.5365	0.0588	0.1997	-0.219
Mof_N 	N 	0.5937	0.0687	0.2111	-0.142
Mof_C 	C 	0.6197	0.1083	0.1826	0.155
Mof_C 	C 	0.5096	0.0868	0.1609	0.126
Mof_C 	C 	0.4491	0.0744	0.1497	-0.307
Mof_H 	H 	0.4311	0.0623	0.1839	0.093
Mof_H 	H 	0.446	0.0445	0.1226	0.099
Mof_C 	C 	0.6808	0.1212	0.1961	-0.358
Mof_H 	H 	0.7001	0.0868	0.2051	0.128
Mof_H 	H 	0.6819	0.1449	0.229	0.131
Mof_N 	N 	0.0365	0.5588	0.6997	-0.206
Mof_N 	N 	0.0937	0.5687	0.7111	-0.139
Mof_C 	C 	0.1197	0.6083	0.6826	0.168
Mof_C 	C 	0.0096	0.5868	0.6609	0.058
Mof_C 	C 	0.9491	0.5744	0.6497	-0.198
Mof_H 	H 	0.9311	0.5623	0.6839	0.073
Mof_H 	H 	0.946	0.5445	0.6226	0.089
Mof_C 	C 	0.1808	0.6212	0.6961	-0.369
Mof_H 	H 	0.2001	0.5868	0.7051	0.138
Mof_H 	H 	0.1819	0.6449	0.729	0.134
Mof_N 	N 	0.4635	0.9412	0.1997	-0.205
Mof_N 	N 	0.4063	0.9313	0.2111	-0.127
Mof_C 	C 	0.3803	0.8917	0.1826	0.159
Mof_C 	C 	0.4904	0.9132	0.1609	0.148
Mof_C 	C 	0.5509	0.9256	0.1497	-0.34
Mof_H 	H 	0.5689	0.9377	0.1839	0.118
Mof_H 	H 	0.554	0.9555	0.1226	0.13
Mof_C 	C 	0.3192	0.8788	0.1961	-0.358
Mof_H 	H 	0.2999	0.9132	0.2051	0.138
Mof_H 	H 	0.3181	0.8551	0.229	0.131
Mof_N 	N 	0.9635	0.4412	0.6997	-0.219
Mof_N 	N 	0.9063	0.4313	0.7111	-0.129
Mof_C 	C 	0.8803	0.3917	0.6826	0.148
Mof_C 	C 	0.9904	0.4132	0.6609	0.227
Mof_C 	C 	0.0509	0.4256	0.6497	-0.469
Mof_H 	H 	0.0689	0.4377	0.6839	0.145
Mof_H 	H 	0.054	0.4555	0.6226	0.154
Mof_C 	C 	0.8192	0.3788	0.6961	-0.346
Mof_H 	H 	0.7999	0.4132	0.7051	0.131
Mof_H 	H 	0.8181	0.3551	0.729	0.129
Mof_N 	N 	0.5365	0.9412	0.8003	-0.207
Mof_N 	N 	0.5937	0.9313	0.7889	-0.125
Mof_C 	C 	0.6197	0.8917	0.8174	0.159
Mof_C 	C 	0.5096	0.9132	0.8391	0.159
Mof_C 	C 	0.4491	0.9256	0.8503	-0.361
Mof_H 	H 	0.4311	0.9377	0.8161	0.125
Mof_H 	H 	0.446	0.9555	0.8774	0.144
Mof_C 	C 	0.6808	0.8788	0.8039	-0.351
Mof_H 	H 	0.7001	0.9132	0.7949	0.14
Mof_H 	H 	0.6819	0.8551	0.771	0.129
Mof_N 	N 	0.0365	0.4412	0.3003	-0.206
Mof_N 	N 	0.0937	0.4313	0.2889	-0.139
Mof_C 	C 	0.1197	0.3917	0.3174	0.164
Mof_C 	C 	0.0096	0.4132	0.3391	0.059
Mof_C 	C 	0.9491	0.4256	0.3503	-0.199
Mof_H 	H 	0.9311	0.4377	0.3161	0.073
Mof_H 	H 	0.946	0.4555	0.3774	0.089
Mof_C 	C 	0.1808	0.3788	0.3039	-0.362
Mof_H 	H 	0.2001	0.4132	0.2949	0.135
Mof_H 	H 	0.1819	0.3551	0.271	0.129
Mof_N 	N 	0.4635	0.8003	0.0588	-0.22
Mof_N 	N 	0.4063	0.7889	0.0687	-0.141
Mof_C 	C 	0.3803	0.8174	0.1083	0.155
Mof_C 	C 	0.4904	0.8391	0.0868	0.137
Mof_C 	C 	0.5509	0.8503	0.0744	-0.327
Mof_H 	H 	0.5689	0.8161	0.0623	0.101
Mof_H 	H 	0.554	0.8774	0.0445	0.113
Mof_C 	C 	0.3192	0.8039	0.1212	-0.355
Mof_H 	H 	0.2999	0.7949	0.0868	0.128
Mof_H 	H 	0.3181	0.771	0.1449	0.129
Mof_N 	N 	0.9635	0.3003	0.5588	-0.219
Mof_N 	N 	0.9063	0.2889	0.5687	-0.129
Mof_C 	C 	0.8803	0.3174	0.6083	0.147
Mof_C 	C 	0.9904	0.3391	0.5868	0.227
Mof_C 	C 	0.0509	0.3503	0.5744	-0.469
Mof_H 	H 	0.0689	0.3161	0.5623	0.145
Mof_H 	H 	0.054	0.3774	0.5445	0.154
Mof_C 	C 	0.8192	0.3039	0.6212	-0.345
Mof_H 	H 	0.7999	0.2949	0.5868	0.131
Mof_H 	H 	0.8181	0.271	0.6449	0.128
Mof_N 	N 	0.5365	0.1997	0.0588	-0.219
Mof_N 	N 	0.5937	0.2111	0.0687	-0.142
Mof_C 	C 	0.6197	0.1826	0.1083	0.155
Mof_C 	C 	0.5096	0.1609	0.0868	0.126
Mof_C 	C 	0.4491	0.1497	0.0744	-0.307
Mof_H 	H 	0.4311	0.1839	0.0623	0.093
Mof_H 	H 	0.446	0.1226	0.0445	0.099
Mof_C 	C 	0.6808	0.1961	0.1212	-0.358
Mof_H 	H 	0.7001	0.2051	0.0868	0.128
Mof_H 	H 	0.6819	0.229	0.1449	0.131
Mof_N 	N 	0.0365	0.6997	0.5588	-0.206
Mof_N 	N 	0.0937	0.7111	0.5687	-0.139
Mof_C 	C 	0.1197	0.6826	0.6083	0.168
Mof_C 	C 	0.0096	0.6609	0.5868	0.058
Mof_C 	C 	0.9491	0.6497	0.5744	-0.198
Mof_H 	H 	0.9311	0.6839	0.5623	0.073
Mof_H 	H 	0.946	0.6226	0.5445	0.089
Mof_C 	C 	0.1808	0.6961	0.6212	-0.369
Mof_H 	H 	0.2001	0.7051	0.5868	0.138
Mof_H 	H 	0.1819	0.729	0.6449	0.134
Mof_N 	N 	0.4635	0.1997	0.9412	-0.205
Mof_N 	N 	0.4063	0.2111	0.9313	-0.127
Mof_C 	C 	0.3803	0.1826	0.8917	0.159
Mof_C 	C 	0.4904	0.1609	0.9132	0.148
Mof_C 	C 	0.5509	0.1497	0.9256	-0.34
Mof_H 	H 	0.5689	0.1839	0.9377	0.118
Mof_H 	H 	0.554	0.1226	0.9555	0.13
Mof_C 	C 	0.3192	0.1961	0.8788	-0.358
Mof_H 	H 	0.2999	0.2051	0.9132	0.138
Mof_H 	H 	0.3181	0.229	0.8551	0.131
Mof_N 	N 	0.9635	0.6997	0.4412	-0.219
Mof_N 	N 	0.9063	0.7111	0.4313	-0.129
Mof_C 	C 	0.8803	0.6826	0.3917	0.148
Mof_C 	C 	0.9904	0.6609	0.4132	0.227
Mof_C 	C 	0.0509	0.6497	0.4256	-0.469
Mof_H 	H 	0.0689	0.6839	0.4377	0.145
Mof_H 	H 	0.054	0.6226	0.4555	0.154
Mof_C 	C 	0.8192	0.6961	0.3788	-0.346
Mof_H 	H 	0.7999	0.7051	0.4132	0.131
Mof_H 	H 	0.8181	0.729	0.3551	0.129
Mof_N 	N 	0.5365	0.8003	0.9412	-0.207
Mof_N 	N 	0.5937	0.7889	0.9313	-0.125
Mof_C 	C 	0.6197	0.8174	0.8917	0.159
Mof_C 	C 	0.5096	0.8391	0.9132	0.159
Mof_C 	C 	0.4491	0.8503	0.9256	-0.361
Mof_H 	H 	0.4311	0.8161	0.9377	0.125
Mof_H 	H 	0.446	0.8774	0.9555	0.144
Mof_C 	C 	0.6808	0.8039	0.8788	-0.351
Mof_H 	H 	0.7001	0.7949	0.9132	0.14
Mof_H 	H 	0.6819	0.771	0.8551	0.129
Mof_N 	N 	0.0365	0.3003	0.4412	-0.206
Mof_N 	N 	0.0937	0.2889	0.4313	-0.139
Mof_C 	C 	0.1197	0.3174	0.3917	0.164
Mof_C 	C 	0.0096	0.3391	0.4132	0.059
Mof_C 	C 	0.9491	0.3503	0.4256	-0.199
Mof_H 	H 	0.9311	0.3161	0.4377	0.073
Mof_H 	H 	0.946	0.3774	0.4555	0.089
Mof_C 	C 	0.1808	0.3039	0.3788	-0.362
Mof_H 	H 	0.2001	0.2949	0.4132	0.135
Mof_H 	H 	0.1819	0.271	0.3551	0.129
Mof_N 	N 	0.8003	0.0588	0.4635	-0.22
Mof_N 	N 	0.7889	0.0687	0.4063	-0.141
Mof_C 	C 	0.8174	0.1083	0.3803	0.155
Mof_C 	C 	0.8391	0.0868	0.4904	0.137
Mof_C 	C 	0.8503	0.0744	0.5509	-0.327
Mof_H 	H 	0.8161	0.0623	0.5689	0.101
Mof_H 	H 	0.8774	0.0445	0.554	0.113
Mof_C 	C 	0.8039	0.1212	0.3192	-0.355
Mof_H 	H 	0.7949	0.0868	0.2999	0.128
Mof_H 	H 	0.771	0.1449	0.3181	0.129
Mof_N 	N 	0.3003	0.5588	0.9635	-0.219
Mof_N 	N 	0.2889	0.5687	0.9063	-0.129
Mof_C 	C 	0.3174	0.6083	0.8803	0.147
Mof_C 	C 	0.3391	0.5868	0.9904	0.227
Mof_C 	C 	0.3503	0.5744	0.0509	-0.469
Mof_H 	H 	0.3161	0.5623	0.0689	0.145
Mof_H 	H 	0.3774	0.5445	0.054	0.154
Mof_C 	C 	0.3039	0.6212	0.8192	-0.345
Mof_H 	H 	0.2949	0.5868	0.7999	0.131
Mof_H 	H 	0.271	0.6449	0.8181	0.128
Mof_N 	N 	0.1997	0.0588	0.5365	-0.219
Mof_N 	N 	0.2111	0.0687	0.5937	-0.142
Mof_C 	C 	0.1826	0.1083	0.6197	0.155
Mof_C 	C 	0.1609	0.0868	0.5096	0.126
Mof_C 	C 	0.1497	0.0744	0.4491	-0.307
Mof_H 	H 	0.1839	0.0623	0.4311	0.093
Mof_H 	H 	0.1226	0.0445	0.446	0.099
Mof_C 	C 	0.1961	0.1212	0.6808	-0.358
Mof_H 	H 	0.2051	0.0868	0.7001	0.128
Mof_H 	H 	0.229	0.1449	0.6819	0.131
Mof_N 	N 	0.6997	0.5588	0.0365	-0.206
Mof_N 	N 	0.7111	0.5687	0.0937	-0.139
Mof_C 	C 	0.6826	0.6083	0.1197	0.168
Mof_C 	C 	0.6609	0.5868	0.0096	0.058
Mof_C 	C 	0.6497	0.5744	0.9491	-0.198
Mof_H 	H 	0.6839	0.5623	0.9311	0.073
Mof_H 	H 	0.6226	0.5445	0.946	0.089
Mof_C 	C 	0.6961	0.6212	0.1808	-0.369
Mof_H 	H 	0.7051	0.5868	0.2001	0.138
Mof_H 	H 	0.729	0.6449	0.1819	0.134
Mof_N 	N 	0.1997	0.9412	0.4635	-0.205
Mof_N 	N 	0.2111	0.9313	0.4063	-0.127
Mof_C 	C 	0.1826	0.8917	0.3803	0.159
Mof_C 	C 	0.1609	0.9132	0.4904	0.148
Mof_C 	C 	0.1497	0.9256	0.5509	-0.34
Mof_H 	H 	0.1839	0.9377	0.5689	0.118
Mof_H 	H 	0.1226	0.9555	0.554	0.13
Mof_C 	C 	0.1961	0.8788	0.3192	-0.358
Mof_H 	H 	0.2051	0.9132	0.2999	0.138
Mof_H 	H 	0.229	0.8551	0.3181	0.131
Mof_N 	N 	0.6997	0.4412	0.9635	-0.219
Mof_N 	N 	0.7111	0.4313	0.9063	-0.129
Mof_C 	C 	0.6826	0.3917	0.8803	0.148
Mof_C 	C 	0.6609	0.4132	0.9904	0.227
Mof_C 	C 	0.6497	0.4256	0.0509	-0.469
Mof_H 	H 	0.6839	0.4377	0.0689	0.145
Mof_H 	H 	0.6226	0.4555	0.054	0.154
Mof_C 	C 	0.6961	0.3788	0.8192	-0.346
Mof_H 	H 	0.7051	0.4132	0.7999	0.131
Mof_H 	H 	0.729	0.3551	0.8181	0.129
Mof_N 	N 	0.8003	0.9412	0.5365	-0.207
Mof_N 	N 	0.7889	0.9313	0.5937	-0.125
Mof_C 	C 	0.8174	0.8917	0.6197	0.159
Mof_C 	C 	0.8391	0.9132	0.5096	0.159
Mof_C 	C 	0.8503	0.9256	0.4491	-0.361
Mof_H 	H 	0.8161	0.9377	0.4311	0.125
Mof_H 	H 	0.8774	0.9555	0.446	0.144
Mof_C 	C 	0.8039	0.8788	0.6808	-0.351
Mof_H 	H 	0.7949	0.9132	0.7001	0.14
Mof_H 	H 	0.771	0.8551	0.6819	0.129
Mof_N 	N 	0.3003	0.4412	0.0365	-0.206
Mof_N 	N 	0.2889	0.4313	0.0937	-0.139
Mof_C 	C 	0.3174	0.3917	0.1197	0.164
Mof_C 	C 	0.3391	0.4132	0.0096	0.059
Mof_C 	C 	0.3503	0.4256	0.9491	-0.199
Mof_H 	H 	0.3161	0.4377	0.9311	0.073
Mof_H 	H 	0.3774	0.4555	0.946	0.089
Mof_C 	C 	0.3039	0.3788	0.1808	-0.362
Mof_H 	H 	0.2949	0.4132	0.2001	0.135
Mof_H 	H 	0.271	0.3551	0.1819	0.129
Mof_N 	N 	0.0588	0.4635	0.8003	-0.22
Mof_N 	N 	0.0687	0.4063	0.7889	-0.141
Mof_C 	C 	0.1083	0.3803	0.8174	0.155
Mof_C 	C 	0.0868	0.4904	0.8391	0.137
Mof_C 	C 	0.0744	0.5509	0.8503	-0.327
Mof_H 	H 	0.0623	0.5689	0.8161	0.101
Mof_H 	H 	0.0445	0.554	0.8774	0.113
Mof_C 	C 	0.1212	0.3192	0.8039	-0.355
Mof_H 	H 	0.0868	0.2999	0.7949	0.128
Mof_H 	H 	0.1449	0.3181	0.771	0.129
Mof_N 	N 	0.5588	0.9635	0.3003	-0.219
Mof_N 	N 	0.5687	0.9063	0.2889	-0.129
Mof_C 	C 	0.6083	0.8803	0.3174	0.147
Mof_C 	C 	0.5868	0.9904	0.3391	0.227
Mof_C 	C 	0.5744	0.0509	0.3503	-0.469
Mof_H 	H 	0.5623	0.0689	0.3161	0.145
Mof_H 	H 	0.5445	0.054	0.3774	0.154
Mof_C 	C 	0.6212	0.8192	0.3039	-0.345
Mof_H 	H 	0.5868	0.7999	0.2949	0.131
Mof_H 	H 	0.6449	0.8181	0.271	0.128
Mof_N 	N 	0.0588	0.5365	0.1997	-0.219
Mof_N 	N 	0.0687	0.5937	0.2111	-0.142
Mof_C 	C 	0.1083	0.6197	0.1826	0.155
Mof_C 	C 	0.0868	0.5096	0.1609	0.126
Mof_C 	C 	0.0744	0.4491	0.1497	-0.307
Mof_H 	H 	0.0623	0.4311	0.1839	0.093
Mof_H 	H 	0.0445	0.446	0.1226	0.099
Mof_C 	C 	0.1212	0.6808	0.1961	-0.358
Mof_H 	H 	0.0868	0.7001	0.2051	0.128
Mof_H 	H 	0.1449	0.6819	0.229	0.131
Mof_N 	N 	0.5588	0.0365	0.6997	-0.206
Mof_N 	N 	0.5687	0.0937	0.7111	-0.139
Mof_C 	C 	0.6083	0.1197	0.6826	0.168
Mof_C 	C 	0.5868	0.0096	0.6609	0.058
Mof_C 	C 	0.5744	0.9491	0.6497	-0.198
Mof_H 	H 	0.5623	0.9311	0.6839	0.073
Mof_H 	H 	0.5445	0.946	0.6226	0.089
Mof_C 	C 	0.6212	0.1808	0.6961	-0.369
Mof_H 	H 	0.5868	0.2001	0.7051	0.138
Mof_H 	H 	0.6449	0.1819	0.729	0.134
Mof_N 	N 	0.9412	0.4635	0.1997	-0.205
Mof_N 	N 	0.9313	0.4063	0.2111	-0.127
Mof_C 	C 	0.8917	0.3803	0.1826	0.159
Mof_C 	C 	0.9132	0.4904	0.1609	0.148
Mof_C 	C 	0.9256	0.5509	0.1497	-0.34
Mof_H 	H 	0.9377	0.5689	0.1839	0.118
Mof_H 	H 	0.9555	0.554	0.1226	0.13
Mof_C 	C 	0.8788	0.3192	0.1961	-0.358
Mof_H 	H 	0.9132	0.2999	0.2051	0.138
Mof_H 	H 	0.8551	0.3181	0.229	0.131
Mof_N 	N 	0.4412	0.9635	0.6997	-0.219
Mof_N 	N 	0.4313	0.9063	0.7111	-0.129
Mof_C 	C 	0.3917	0.8803	0.6826	0.148
Mof_C 	C 	0.4132	0.9904	0.6609	0.227
Mof_C 	C 	0.4256	0.0509	0.6497	-0.469
Mof_H 	H 	0.4377	0.0689	0.6839	0.145
Mof_H 	H 	0.4555	0.054	0.6226	0.154
Mof_C 	C 	0.3788	0.8192	0.6961	-0.346
Mof_H 	H 	0.4132	0.7999	0.7051	0.131
Mof_H 	H 	0.3551	0.8181	0.729	0.129
Mof_N 	N 	0.9412	0.5365	0.8003	-0.207
Mof_N 	N 	0.9313	0.5937	0.7889	-0.125
Mof_C 	C 	0.8917	0.6197	0.8174	0.159
Mof_C 	C 	0.9132	0.5096	0.8391	0.159
Mof_C 	C 	0.9256	0.4491	0.8503	-0.361
Mof_H 	H 	0.9377	0.4311	0.8161	0.125
Mof_H 	H 	0.9555	0.446	0.8774	0.144
Mof_C 	C 	0.8788	0.6808	0.8039	-0.351
Mof_H 	H 	0.9132	0.7001	0.7949	0.14
Mof_H 	H 	0.8551	0.6819	0.771	0.129
Mof_N 	N 	0.4412	0.0365	0.3003	-0.206
Mof_N 	N 	0.4313	0.0937	0.2889	-0.139
Mof_C 	C 	0.3917	0.1197	0.3174	0.164
Mof_C 	C 	0.4132	0.0096	0.3391	0.059
Mof_C 	C 	0.4256	0.9491	0.3503	-0.199
Mof_H 	H 	0.4377	0.9311	0.3161	0.073
Mof_H 	H 	0.4555	0.946	0.3774	0.089
Mof_C 	C 	0.3788	0.1808	0.3039	-0.362
Mof_H 	H 	0.4132	0.2001	0.2949	0.135
Mof_H 	H 	0.3551	0.1819	0.271	0.129
Mof_Cu	Cu	0.75	0.5	-0	0.846
Mof_Cu	Cu	0.25	0	0.5	0.846
Mof_Cu	Cu	0.25	0.5	-0	0.846
Mof_Cu	Cu	1.32474e-32	0.75	0.5	0.846
Mof_Cu	Cu	0.5	0.25	-0	0.846
Mof_Cu	Cu	1.8747e-33	0.25	0.5	0.846
Mof_Cu	Cu	0.5	-7.58181e-33	0.75	0.846
Mof_Cu	Cu	2.8328e-33	0.5	0.25	0.846
Mof_Cu	Cu	0.5	0	0.25	0.846
Mof_Cu	Cu	0.5	0.75	-0	0.846
Mof_Cu	Cu	0.75	0	0.5	0.846
Mof_Cu	Cu	1.03939e-32	0.5	0.75	0.846
Mof_C 	C 	0.8594	0.4071	0.1406	-0.081
Mof_C 	C 	0.871	0.4629	0.129	-0.071
Mof_C 	C 	0.8736	0.581	0.1264	0.141
Mof_H 	H 	0.845	0.5808	0.155	-0.017
Mof_H 	H 	0.88235	0.6195	0.11765	-0.024
Mof_C 	C 	0.8503	0.2882	0.1497	0.193
Mof_H 	H 	0.87815	0.2786	0.12185	-0.036
Mof_H 	H 	0.8356	0.2535	0.1644	-0.045
Mof_C 	C 	0.3594	0.9071	0.6406	-0.056
Mof_C 	C 	0.371	0.9629	0.629	-0.119
Mof_C 	C 	0.3736	0.081	0.6264	0.261
Mof_H 	H 	0.345	0.0808	0.655	-0.059
Mof_H 	H 	0.38235	0.1195	0.61765	-0.063
Mof_C 	C 	0.3503	0.7882	0.6497	0.18
Mof_H 	H 	0.37815	0.7786	0.62185	-0.031
Mof_H 	H 	0.3356	0.7535	0.6644	-0.04
Mof_C 	C 	0.1406	0.5929	0.1406	-0.086
Mof_C 	C 	0.129	0.5371	0.129	-0.065
Mof_C 	C 	0.1264	0.419	0.1264	0.115
Mof_H 	H 	0.155	0.4192	0.155	-0.011
Mof_H 	H 	0.11765	0.3805	0.11765	-0.026
Mof_C 	C 	0.1497	0.7118	0.1497	0.195
Mof_H 	H 	0.12185	0.7214	0.12185	-0.043
Mof_H 	H 	0.1644	0.7465	0.1644	-0.047
Mof_C 	C 	0.6406	0.0929	0.6406	-0.106
Mof_C 	C 	0.629	0.0371	0.629	-0.022
Mof_C 	C 	0.6264	0.919	0.6264	0.021
Mof_H 	H 	0.655	0.9192	0.655	0.026
Mof_H 	H 	0.61765	0.8805	0.61765	0.013
Mof_C 	C 	0.6497	0.2118	0.6497	0.206
Mof_H 	H 	0.62185	0.2214	0.62185	-0.039
Mof_H 	H 	0.6644	0.2465	0.6644	-0.048
Mof_C 	C 	0.1406	0.4071	0.8594	-0.081
Mof_C 	C 	0.129	0.4629	0.871	-0.071
Mof_C 	C 	0.1264	0.581	0.8736	0.141
Mof_H 	H 	0.155	0.5808	0.845	-0.017
Mof_H 	H 	0.11765	0.6195	0.88235	-0.024
Mof_C 	C 	0.1497	0.2882	0.8503	0.193
Mof_H 	H 	0.12185	0.2786	0.87815	-0.036
Mof_H 	H 	0.1644	0.2535	0.8356	-0.045
Mof_C 	C 	0.6406	0.9071	0.3594	-0.056
Mof_C 	C 	0.629	0.9629	0.371	-0.119
Mof_C 	C 	0.6264	0.081	0.3736	0.261
Mof_H 	H 	0.655	0.0808	0.345	-0.059
Mof_H 	H 	0.61765	0.1195	0.38235	-0.063
Mof_C 	C 	0.6497	0.7882	0.3503	0.18
Mof_H 	H 	0.62185	0.7786	0.37815	-0.031
Mof_H 	H 	0.6644	0.7535	0.3356	-0.04
Mof_C 	C 	0.8594	0.5929	0.8594	-0.074
Mof_C 	C 	0.871	0.5371	0.871	-0.077
Mof_C 	C 	0.8736	0.419	0.8736	0.169
Mof_H 	H 	0.845	0.4192	0.845	-0.024
Mof_H 	H 	0.88235	0.3805	0.88235	-0.026
Mof_C 	C 	0.8503	0.7118	0.8503	0.182
Mof_H 	H 	0.87815	0.7214	0.87815	-0.02
Mof_H 	H 	0.8356	0.7465	0.8356	-0.037
Mof_C 	C 	0.3594	0.0929	0.3594	-0.104
Mof_C 	C 	0.371	0.0371	0.371	-0.024
Mof_C 	C 	0.3736	0.919	0.3736	0.023
Mof_H 	H 	0.345	0.9192	0.345	0.025
Mof_H 	H 	0.38235	0.8805	0.38235	0.012
Mof_C 	C 	0.3503	0.2118	0.3503	0.197
Mof_H 	H 	0.37815	0.2214	0.37815	-0.036
Mof_H 	H 	0.3356	0.2465	0.3356	-0.046
Mof_C 	C 	0.1406	0.8594	0.4071	-0.081
Mof_C 	C 	0.129	0.871	0.4629	-0.071
Mof_C 	C 	0.1264	0.8736	0.581	0.141
Mof_H 	H 	0.155	0.845	0.5808	-0.017
Mof_H 	H 	0.11765	0.88235	0.6195	-0.024
Mof_C 	C 	0.1497	0.8503	0.2882	0.193
Mof_H 	H 	0.12185	0.87815	0.2786	-0.036
Mof_H 	H 	0.1644	0.8356	0.2535	-0.045
Mof_C 	C 	0.6406	0.3594	0.9071	-0.056
Mof_C 	C 	0.629	0.371	0.9629	-0.119
Mof_C 	C 	0.6264	0.3736	0.081	0.261
Mof_H 	H 	0.655	0.345	0.0808	-0.059
Mof_H 	H 	0.61765	0.38235	0.1195	-0.063
Mof_C 	C 	0.6497	0.3503	0.7882	0.18
Mof_H 	H 	0.62185	0.37815	0.7786	-0.031
Mof_H 	H 	0.6644	0.3356	0.7535	-0.04
Mof_C 	C 	0.1406	0.1406	0.5929	-0.086
Mof_C 	C 	0.129	0.129	0.5371	-0.065
Mof_C 	C 	0.1264	0.1264	0.419	0.115
Mof_H 	H 	0.155	0.155	0.4192	-0.011
Mof_H 	H 	0.11765	0.11765	0.3805	-0.026
Mof_C 	C 	0.1497	0.1497	0.7118	0.195
Mof_H 	H 	0.12185	0.12185	0.7214	-0.043
Mof_H 	H 	0.1644	0.1644	0.7465	-0.047
Mof_C 	C 	0.6406	0.6406	0.0929	-0.106
Mof_C 	C 	0.629	0.629	0.0371	-0.022
Mof_C 	C 	0.6264	0.6264	0.919	0.021
Mof_H 	H 	0.655	0.655	0.9192	0.026
Mof_H 	H 	0.61765	0.61765	0.8805	0.013
Mof_C 	C 	0.6497	0.6497	0.2118	0.206
Mof_H 	H 	0.62185	0.62185	0.2214	-0.039
Mof_H 	H 	0.6644	0.6644	0.2465	-0.048
Mof_C 	C 	0.8594	0.1406	0.4071	-0.081
Mof_C 	C 	0.871	0.129	0.4629	-0.071
Mof_C 	C 	0.8736	0.1264	0.581	0.141
Mof_H 	H 	0.845	0.155	0.5808	-0.017
Mof_H 	H 	0.88235	0.11765	0.6195	-0.024
Mof_C 	C 	0.8503	0.1497	0.2882	0.193
Mof_H 	H 	0.87815	0.12185	0.2786	-0.036
Mof_H 	H 	0.8356	0.1644	0.2535	-0.045
Mof_C 	C 	0.3594	0.6406	0.9071	-0.056
Mof_C 	C 	0.371	0.629	0.9629	-0.119
Mof_C 	C 	0.3736	0.6264	0.081	0.261
Mof_H 	H 	0.345	0.655	0.0808	-0.059
Mof_H 	H 	0.38235	0.61765	0.1195	-0.063
Mof_C 	C 	0.3503	0.6497	0.7882	0.18
Mof_H 	H 	0.37815	0.62185	0.7786	-0.031
Mof_H 	H 	0.3356	0.6644	0.7535	-0.04
Mof_C 	C 	0.8594	0.8594	0.5929	-0.074
Mof_C 	C 	0.871	0.871	0.5371	-0.077
Mof_C 	C 	0.8736	0.8736	0.419	0.169
Mof_H 	H 	0.845	0.845	0.4192	-0.024
Mof_H 	H 	0.88235	0.88235	0.3805	-0.026
Mof_C 	C 	0.8503	0.8503	0.7118	0.182
Mof_H 	H 	0.87815	0.87815	0.7214	-0.02
Mof_H 	H 	0.8356	0.8356	0.7465	-0.037
Mof_C 	C 	0.3594	0.3594	0.0929	-0.104
Mof_C 	C 	0.371	0.371	0.0371	-0.024
Mof_C 	C 	0.3736	0.3736	0.919	0.023
Mof_H 	H 	0.345	0.345	0.9192	0.025
Mof_H 	H 	0.38235	0.38235	0.8805	0.012
Mof_C 	C 	0.3503	0.3503	0.2118	0.197
Mof_H 	H 	0.37815	0.37815	0.2214	-0.036
Mof_H 	H 	0.3356	0.3356	0.2465	-0.046
Mof_C 	C 	0.4071	0.1406	0.8594	-0.081
Mof_C 	C 	0.4629	0.129	0.871	-0.071
Mof_C 	C 	0.581	0.1264	0.8736	0.141
Mof_H 	H 	0.5808	0.155	0.845	-0.017
Mof_H 	H 	0.6195	0.11765	0.88235	-0.024
Mof_C 	C 	0.2882	0.1497	0.8503	0.193
Mof_H 	H 	0.2786	0.12185	0.87815	-0.036
Mof_H 	H 	0.2535	0.1644	0.8356	-0.045
Mof_C 	C 	0.9071	0.6406	0.3594	-0.056
Mof_C 	C 	0.9629	0.629	0.371	-0.119
Mof_C 	C 	0.081	0.6264	0.3736	0.261
Mof_H 	H 	0.0808	0.655	0.345	-0.059
Mof_H 	H 	0.1195	0.61765	0.38235	-0.063
Mof_C 	C 	0.7882	0.6497	0.3503	0.18
Mof_H 	H 	0.7786	0.62185	0.37815	-0.031
Mof_H 	H 	0.7535	0.6644	0.3356	-0.04
Mof_C 	C 	0.5929	0.1406	0.1406	-0.086
Mof_C 	C 	0.5371	0.129	0.129	-0.065
Mof_C 	C 	0.419	0.1264	0.1264	0.115
Mof_H 	H 	0.4192	0.155	0.155	-0.011
Mof_H 	H 	0.3805	0.11765	0.11765	-0.026
Mof_C 	C 	0.7118	0.1497	0.1497	0.195
Mof_H 	H 	0.7214	0.12185	0.12185	-0.043
Mof_H 	H 	0.7465	0.1644	0.1644	-0.047
Mof_C 	C 	0.0929	0.6406	0.6406	-0.106
Mof_C 	C 	0.0371	0.629	0.629	-0.022
Mof_C 	C 	0.919	0.6264	0.6264	0.021
Mof_H 	H 	0.9192	0.655	0.655	0.026
Mof_H 	H 	0.8805	0.61765	0.61765	0.013
Mof_C 	C 	0.2118	0.6497	0.6497	0.206
Mof_H 	H 	0.2214	0.62185	0.62185	-0.039
Mof_H 	H 	0.2465	0.6644	0.6644	-0.048
Mof_C 	C 	0.4071	0.8594	0.1406	-0.081
Mof_C 	C 	0.4629	0.871	0.129	-0.071
Mof_C 	C 	0.581	0.8736	0.1264	0.141
Mof_H 	H 	0.5808	0.845	0.155	-0.017
Mof_H 	H 	0.6195	0.88235	0.11765	-0.024
Mof_C 	C 	0.2882	0.8503	0.1497	0.193
Mof_H 	H 	0.2786	0.87815	0.12185	-0.036
Mof_H 	H 	0.2535	0.8356	0.1644	-0.045
Mof_C 	C 	0.9071	0.3594	0.6406	-0.056
Mof_C 	C 	0.9629	0.371	0.629	-0.119
Mof_C 	C 	0.081	0.3736	0.6264	0.261
Mof_H 	H 	0.0808	0.345	0.655	-0.059
Mof_H 	H 	0.1195	0.38235	0.61765	-0.063
Mof_C 	C 	0.7882	0.3503	0.6497	0.18
Mof_H 	H 	0.7786	0.37815	0.62185	-0.031
Mof_H 	H 	0.7535	0.3356	0.6644	-0.04
Mof_C 	C 	0.5929	0.8594	0.8594	-0.074
Mof_C 	C 	0.5371	0.871	0.871	-0.077
Mof_C 	C 	0.419	0.8736	0.8736	0.169
Mof_H 	H 	0.4192	0.845	0.845	-0.024
Mof_H 	H 	0.3805	0.88235	0.88235	-0.026
Mof_C 	C 	0.7118	0.8503	0.8503	0.182
Mof_H 	H 	0.7214	0.87815	0.87815	-0.02
Mof_H 	H 	0.7465	0.8356	0.8356	-0.037
Mof_C 	C 	0.0929	0.3594	0.3594	-0.104
Mof_C 	C 	0.0371	0.371	0.371	-0.024
Mof_C 	C 	0.919	0.3736	0.3736	0.023
Mof_H 	H 	0.9192	0.345	0.345	0.025
Mof_H 	H 	0.8805	0.38235	0.38235	0.012
Mof_C 	C 	0.2118	0.3503	0.3503	0.197
Mof_H 	H 	0.2214	0.37815	0.37815	-0.036
Mof_H 	H 	0.2465	0.3356	0.3356	-0.046
_end
