data_functionalizedCrystal
_audit_creation_method	'EQeq! by Chris Wilmer'
_symmetry_space_group_name_H-M	'P1'
_symmetry_Int_Tables_number	1
_symmetry_cell_setting	triclinic
loop_
_symmetry_equiv_pos_as_xyz
  x,y,z
_cell_length_a	34.8004
_cell_length_b	34.8004
_cell_length_c	24.2223
_cell_angle_alpha	90
_cell_angle_beta	90
_cell_angle_gamma	120
loop_
_atom_site_label
_atom_site_type_symbol
_atom_site_fract_x
_atom_site_fract_y
_atom_site_fract_z
_atom_site_charge
Mof_O 	O 	0.64027	0.78058	0.39896	-0.41
Mof_O 	O 	0.61009	0.76529	0.31427	-0.41
Mof_C 	C 	0.61311	0.75504	0.3634	0.377
Mof_C 	C 	0.58196	0.70824	0.3812	-0.148
Mof_C 	C 	0.55365	0.67693	0.34322	0.091
Mof_H 	H 	0.5539	0.685	0.3066	0.016
Mof_C 	C 	0.52526	0.63408	0.35976	-0.171
Mof_H 	H 	0.5056	0.6138	0.3343	0.105
Mof_C 	C 	0.52513	0.62039	0.4133	0.128
Mof_C 	C 	0.55396	0.65177	0.45005	-0.174
Mof_H 	H 	0.5544	0.6437	0.4865	0.094
Mof_C 	C 	0.58228	0.69507	0.43387	0.094
Mof_H 	H 	0.6018	0.7154	0.4594	0.015
Mof_C 	C 	0.49635	0.57358	0.43114	-0.069
Mof_C 	C 	0.51444	0.55373	0.46419	-0.043
Mof_H 	H 	0.5441	0.5705	0.4746	0.046
Mof_H 	H 	0.4346	0.6105	0.4302	0.091
Mof_O 	O 	0.30694	0.11391	0.73229	-0.41
Mof_O 	O 	0.27676	0.09862	0.6476	-0.41
Mof_C 	C 	0.27978	0.08837	0.69673	0.377
Mof_C 	C 	0.24863	0.04157	0.71453	-0.148
Mof_C 	C 	0.22032	0.01026	0.67655	0.091
Mof_H 	H 	0.22057	0.01833	0.63993	0.016
Mof_C 	C 	0.19193	0.96741	0.69309	-0.171
Mof_H 	H 	0.17227	0.94713	0.66763	0.104
Mof_C 	C 	0.1918	0.95372	0.74663	0.127
Mof_C 	C 	0.22063	0.9851	0.78338	-0.175
Mof_H 	H 	0.22107	0.97703	0.81983	0.093
Mof_C 	C 	0.24895	0.0284	0.7672	0.093
Mof_H 	H 	0.26847	0.04873	0.79273	0.014
Mof_C 	C 	0.16302	0.90691	0.76447	-0.07
Mof_C 	C 	0.18111	0.88706	0.79752	-0.044
Mof_H 	H 	0.21077	0.90383	0.80793	0.045
Mof_H 	H 	0.10127	0.94383	0.76353	0.09
Mof_O 	O 	0.9736	0.44725	0.06563	-0.411
Mof_O 	O 	0.94342	0.43196	0.98094	-0.411
Mof_C 	C 	0.94644	0.42171	0.03007	0.376
Mof_C 	C 	0.91529	0.37491	0.04787	-0.149
Mof_C 	C 	0.88698	0.3436	0.00989	0.09
Mof_H 	H 	0.88723	0.35167	0.97327	0.015
Mof_C 	C 	0.85859	0.30075	0.02643	-0.172
Mof_H 	H 	0.83893	0.28047	0.00097	0.104
Mof_C 	C 	0.85846	0.28706	0.07997	0.127
Mof_C 	C 	0.88729	0.31844	0.11672	-0.176
Mof_H 	H 	0.88773	0.31037	0.15317	0.093
Mof_C 	C 	0.91561	0.36174	0.10054	0.093
Mof_H 	H 	0.93513	0.38207	0.12607	0.014
Mof_C 	C 	0.82968	0.24025	0.09781	-0.07
Mof_C 	C 	0.84777	0.2204	0.13086	-0.044
Mof_H 	H 	0.87743	0.23717	0.14127	0.045
Mof_H 	H 	0.76793	0.27717	0.09687	0.09
Mof_O 	O 	0.21942	0.85969	0.39896	-0.411
Mof_O 	O 	0.23471	0.8448	0.31427	-0.411
Mof_C 	C 	0.24496	0.85807	0.3634	0.376
Mof_C 	C 	0.29176	0.87372	0.3812	-0.149
Mof_C 	C 	0.32307	0.87672	0.34322	0.09
Mof_H 	H 	0.315	0.8689	0.3066	0.015
Mof_C 	C 	0.36592	0.89118	0.35976	-0.172
Mof_H 	H 	0.3862	0.8918	0.3343	0.104
Mof_C 	C 	0.37961	0.90474	0.4133	0.127
Mof_C 	C 	0.34823	0.90219	0.45005	-0.175
Mof_H 	H 	0.3563	0.9107	0.4865	0.093
Mof_C 	C 	0.30493	0.88721	0.43387	0.093
Mof_H 	H 	0.2846	0.8864	0.4594	0.014
Mof_C 	C 	0.42642	0.92277	0.43114	-0.07
Mof_C 	C 	0.44627	0.96071	0.46419	-0.044
Mof_H 	H 	0.4295	0.9736	0.4746	0.045
Mof_H 	H 	0.3895	0.8241	0.4302	0.09
Mof_O 	O 	0.88609	0.19302	0.73229	-0.411
Mof_O 	O 	0.90138	0.17813	0.6476	-0.411
Mof_C 	C 	0.91163	0.1914	0.69673	0.376
Mof_C 	C 	0.95843	0.20705	0.71453	-0.149
Mof_C 	C 	0.98974	0.21005	0.67655	0.09
Mof_H 	H 	0.98167	0.20223	0.63993	0.015
Mof_C 	C 	0.03259	0.22451	0.69309	-0.172
Mof_H 	H 	0.05287	0.22513	0.66763	0.104
Mof_C 	C 	0.04628	0.23807	0.74663	0.127
Mof_C 	C 	0.0149	0.23552	0.78338	-0.175
Mof_H 	H 	0.02297	0.24403	0.81983	0.093
Mof_C 	C 	0.9716	0.22054	0.7672	0.093
Mof_H 	H 	0.95127	0.21973	0.79273	0.014
Mof_C 	C 	0.09309	0.2561	0.76447	-0.07
Mof_C 	C 	0.11294	0.29404	0.79752	-0.044
Mof_H 	H 	0.09617	0.30693	0.80793	0.045
Mof_H 	H 	0.05617	0.15743	0.76353	0.09
Mof_O 	O 	0.55275	0.52636	0.06563	-0.411
Mof_O 	O 	0.56804	0.51147	0.98094	-0.411
Mof_C 	C 	0.57829	0.52474	0.03007	0.376
Mof_C 	C 	0.62509	0.54039	0.04787	-0.149
Mof_C 	C 	0.6564	0.54339	0.00989	0.09
Mof_H 	H 	0.64833	0.53557	0.97327	0.015
Mof_C 	C 	0.69925	0.55785	0.02643	-0.172
Mof_H 	H 	0.71953	0.55847	0.00097	0.104
Mof_C 	C 	0.71294	0.57141	0.07997	0.127
Mof_C 	C 	0.68156	0.56886	0.11672	-0.175
Mof_H 	H 	0.68963	0.57737	0.15317	0.093
Mof_C 	C 	0.63826	0.55388	0.10054	0.093
Mof_H 	H 	0.61793	0.55307	0.12607	0.014
Mof_C 	C 	0.75975	0.58944	0.09781	-0.07
Mof_C 	C 	0.7796	0.62738	0.13086	-0.044
Mof_H 	H 	0.76283	0.64027	0.14127	0.045
Mof_H 	H 	0.72283	0.49077	0.09687	0.09
Mof_O 	O 	0.14031	0.35973	0.39896	-0.411
Mof_O 	O 	0.1552	0.38991	0.31427	-0.411
Mof_C 	C 	0.14193	0.38689	0.3634	0.376
Mof_C 	C 	0.12628	0.41804	0.3812	-0.149
Mof_C 	C 	0.12328	0.44635	0.34322	0.09
Mof_H 	H 	0.1311	0.4461	0.3066	0.015
Mof_C 	C 	0.10882	0.47474	0.35976	-0.172
Mof_H 	H 	0.1082	0.4944	0.3343	0.104
Mof_C 	C 	0.09526	0.47487	0.4133	0.127
Mof_C 	C 	0.09781	0.44604	0.45005	-0.175
Mof_H 	H 	0.0893	0.4456	0.4865	0.093
Mof_C 	C 	0.11279	0.41772	0.43387	0.093
Mof_H 	H 	0.1136	0.3982	0.4594	0.014
Mof_C 	C 	0.07723	0.50365	0.43114	-0.07
Mof_C 	C 	0.03929	0.48556	0.46419	-0.044
Mof_H 	H 	0.0264	0.4559	0.4746	0.045
Mof_H 	H 	0.1759	0.5654	0.4302	0.09
Mof_O 	O 	0.80698	0.69306	0.73229	-0.411
Mof_O 	O 	0.82187	0.72324	0.6476	-0.411
Mof_C 	C 	0.8086	0.72022	0.69673	0.376
Mof_C 	C 	0.79295	0.75137	0.71453	-0.149
Mof_C 	C 	0.78995	0.77968	0.67655	0.09
Mof_H 	H 	0.79777	0.77943	0.63993	0.015
Mof_C 	C 	0.77549	0.80807	0.69309	-0.172
Mof_H 	H 	0.77487	0.82773	0.66763	0.104
Mof_C 	C 	0.76193	0.8082	0.74663	0.127
Mof_C 	C 	0.76448	0.77937	0.78338	-0.175
Mof_H 	H 	0.75597	0.77893	0.81983	0.093
Mof_C 	C 	0.77946	0.75105	0.7672	0.093
Mof_H 	H 	0.78027	0.73153	0.79273	0.014
Mof_C 	C 	0.7439	0.83698	0.76447	-0.07
Mof_C 	C 	0.70596	0.81889	0.79752	-0.044
Mof_H 	H 	0.69307	0.78923	0.80793	0.045
Mof_H 	H 	0.84257	0.89873	0.76353	0.09
Mof_O 	O 	0.47364	0.0264	0.06563	-0.411
Mof_O 	O 	0.48853	0.05658	0.98094	-0.411
Mof_C 	C 	0.47526	0.05356	0.03007	0.376
Mof_C 	C 	0.45961	0.08471	0.04787	-0.149
Mof_C 	C 	0.45661	0.11302	0.00989	0.09
Mof_H 	H 	0.46443	0.11277	0.97327	0.015
Mof_C 	C 	0.44215	0.14141	0.02643	-0.172
Mof_H 	H 	0.44153	0.16107	0.00097	0.104
Mof_C 	C 	0.42859	0.14154	0.07997	0.127
Mof_C 	C 	0.43114	0.11271	0.11672	-0.176
Mof_H 	H 	0.42263	0.11227	0.15317	0.093
Mof_C 	C 	0.44612	0.08439	0.10054	0.093
Mof_H 	H 	0.44693	0.06487	0.12607	0.014
Mof_C 	C 	0.41056	0.17032	0.09781	-0.07
Mof_C 	C 	0.37262	0.15223	0.13086	-0.044
Mof_H 	H 	0.35973	0.12257	0.14127	0.045
Mof_H 	H 	0.50923	0.23207	0.09687	0.09
Mof_O 	O 	0.78058	0.64027	0.60104	-0.411
Mof_O 	O 	0.76529	0.61009	0.68573	-0.411
Mof_C 	C 	0.75504	0.61311	0.6366	0.376
Mof_C 	C 	0.70824	0.58196	0.6188	-0.149
Mof_C 	C 	0.67693	0.55365	0.65678	0.09
Mof_H 	H 	0.685	0.5539	0.6934	0.015
Mof_C 	C 	0.63408	0.52526	0.64024	-0.172
Mof_H 	H 	0.6138	0.5056	0.6657	0.104
Mof_C 	C 	0.62039	0.52513	0.5867	0.127
Mof_C 	C 	0.65177	0.55396	0.54995	-0.175
Mof_H 	H 	0.6437	0.5544	0.5135	0.093
Mof_C 	C 	0.69507	0.58228	0.56613	0.093
Mof_H 	H 	0.7154	0.6018	0.5406	0.014
Mof_C 	C 	0.57358	0.49635	0.56886	-0.07
Mof_C 	C 	0.55373	0.51444	0.53581	-0.044
Mof_H 	H 	0.5705	0.5441	0.5254	0.045
Mof_H 	H 	0.6105	0.4346	0.5698	0.09
Mof_O 	O 	0.44725	0.9736	0.93437	-0.411
Mof_O 	O 	0.43196	0.94342	0.01906	-0.411
Mof_C 	C 	0.42171	0.94644	0.96993	0.376
Mof_C 	C 	0.37491	0.91529	0.95213	-0.149
Mof_C 	C 	0.3436	0.88698	0.99011	0.09
Mof_H 	H 	0.35167	0.88723	0.02673	0.015
Mof_C 	C 	0.30075	0.85859	0.97357	-0.172
Mof_H 	H 	0.28047	0.83893	0.99903	0.104
Mof_C 	C 	0.28706	0.85846	0.92003	0.127
Mof_C 	C 	0.31844	0.88729	0.88328	-0.176
Mof_H 	H 	0.31037	0.88773	0.84683	0.093
Mof_C 	C 	0.36174	0.91561	0.89946	0.093
Mof_H 	H 	0.38207	0.93513	0.87393	0.014
Mof_C 	C 	0.24025	0.82968	0.90219	-0.07
Mof_C 	C 	0.2204	0.84777	0.86914	-0.044
Mof_H 	H 	0.23717	0.87743	0.85873	0.045
Mof_H 	H 	0.27717	0.76793	0.90313	0.09
Mof_O 	O 	0.11391	0.30694	0.26771	-0.411
Mof_O 	O 	0.09862	0.27676	0.3524	-0.411
Mof_C 	C 	0.08837	0.27978	0.30327	0.376
Mof_C 	C 	0.04157	0.24863	0.28547	-0.149
Mof_C 	C 	0.01026	0.22032	0.32345	0.09
Mof_H 	H 	0.01833	0.22057	0.36007	0.015
Mof_C 	C 	0.96741	0.19193	0.30691	-0.172
Mof_H 	H 	0.94713	0.17227	0.33237	0.104
Mof_C 	C 	0.95372	0.1918	0.25337	0.127
Mof_C 	C 	0.9851	0.22063	0.21662	-0.175
Mof_H 	H 	0.97703	0.22107	0.18017	0.093
Mof_C 	C 	0.0284	0.24895	0.2328	0.093
Mof_H 	H 	0.04873	0.26847	0.20727	0.014
Mof_C 	C 	0.90691	0.16302	0.23553	-0.07
Mof_C 	C 	0.88706	0.18111	0.20248	-0.044
Mof_H 	H 	0.90383	0.21077	0.19207	0.045
Mof_H 	H 	0.94383	0.10127	0.23647	0.09
Mof_O 	O 	0.85969	0.21942	0.60104	-0.411
Mof_O 	O 	0.8448	0.23471	0.68573	-0.411
Mof_C 	C 	0.85807	0.24496	0.6366	0.376
Mof_C 	C 	0.87372	0.29176	0.6188	-0.149
Mof_C 	C 	0.87672	0.32307	0.65678	0.09
Mof_H 	H 	0.8689	0.315	0.6934	0.015
Mof_C 	C 	0.89118	0.36592	0.64024	-0.172
Mof_H 	H 	0.8918	0.3862	0.6657	0.104
Mof_C 	C 	0.90474	0.37961	0.5867	0.127
Mof_C 	C 	0.90219	0.34823	0.54995	-0.175
Mof_H 	H 	0.9107	0.3563	0.5135	0.093
Mof_C 	C 	0.88721	0.30493	0.56613	0.093
Mof_H 	H 	0.8864	0.2846	0.5406	0.014
Mof_C 	C 	0.92277	0.42642	0.56886	-0.07
Mof_C 	C 	0.96071	0.44627	0.53581	-0.044
Mof_H 	H 	0.9736	0.4295	0.5254	0.045
Mof_H 	H 	0.8241	0.3895	0.5698	0.09
Mof_O 	O 	0.52636	0.55275	0.93437	-0.411
Mof_O 	O 	0.51147	0.56804	0.01906	-0.411
Mof_C 	C 	0.52474	0.57829	0.96993	0.376
Mof_C 	C 	0.54039	0.62509	0.95213	-0.149
Mof_C 	C 	0.54339	0.6564	0.99011	0.09
Mof_H 	H 	0.53557	0.64833	0.02673	0.015
Mof_C 	C 	0.55785	0.69925	0.97357	-0.172
Mof_H 	H 	0.55847	0.71953	0.99903	0.104
Mof_C 	C 	0.57141	0.71294	0.92003	0.127
Mof_C 	C 	0.56886	0.68156	0.88328	-0.175
Mof_H 	H 	0.57737	0.68963	0.84683	0.093
Mof_C 	C 	0.55388	0.63826	0.89946	0.093
Mof_H 	H 	0.55307	0.61793	0.87393	0.014
Mof_C 	C 	0.58944	0.75975	0.90219	-0.07
Mof_C 	C 	0.62738	0.7796	0.86914	-0.044
Mof_H 	H 	0.64027	0.76283	0.85873	0.045
Mof_H 	H 	0.49077	0.72283	0.90313	0.09
Mof_O 	O 	0.19302	0.88609	0.26771	-0.411
Mof_O 	O 	0.17813	0.90138	0.3524	-0.411
Mof_C 	C 	0.1914	0.91163	0.30327	0.376
Mof_C 	C 	0.20705	0.95843	0.28547	-0.149
Mof_C 	C 	0.21005	0.98974	0.32345	0.09
Mof_H 	H 	0.20223	0.98167	0.36007	0.015
Mof_C 	C 	0.22451	0.03259	0.30691	-0.172
Mof_H 	H 	0.22513	0.05287	0.33237	0.104
Mof_C 	C 	0.23807	0.04628	0.25337	0.127
Mof_C 	C 	0.23552	0.0149	0.21662	-0.175
Mof_H 	H 	0.24403	0.02297	0.18017	0.093
Mof_C 	C 	0.22054	0.9716	0.2328	0.093
Mof_H 	H 	0.21973	0.95127	0.20727	0.014
Mof_C 	C 	0.2561	0.09309	0.23553	-0.07
Mof_C 	C 	0.29404	0.11294	0.20248	-0.044
Mof_H 	H 	0.30693	0.09617	0.19207	0.045
Mof_H 	H 	0.15743	0.05617	0.23647	0.09
Mof_O 	O 	0.35973	0.14031	0.60104	-0.411
Mof_O 	O 	0.38991	0.1552	0.68573	-0.411
Mof_C 	C 	0.38689	0.14193	0.6366	0.376
Mof_C 	C 	0.41804	0.12628	0.6188	-0.149
Mof_C 	C 	0.44635	0.12328	0.65678	0.09
Mof_H 	H 	0.4461	0.1311	0.6934	0.015
Mof_C 	C 	0.47474	0.10882	0.64024	-0.172
Mof_H 	H 	0.4944	0.1082	0.6657	0.104
Mof_C 	C 	0.47487	0.09526	0.5867	0.127
Mof_C 	C 	0.44604	0.09781	0.54995	-0.175
Mof_H 	H 	0.4456	0.0893	0.5135	0.093
Mof_C 	C 	0.41772	0.11279	0.56613	0.093
Mof_H 	H 	0.3982	0.1136	0.5406	0.014
Mof_C 	C 	0.50365	0.07723	0.56886	-0.07
Mof_C 	C 	0.48556	0.03929	0.53581	-0.044
Mof_H 	H 	0.4559	0.0264	0.5254	0.045
Mof_H 	H 	0.5654	0.1759	0.5698	0.09
Mof_O 	O 	0.0264	0.47364	0.93437	-0.411
Mof_O 	O 	0.05658	0.48853	0.01906	-0.411
Mof_C 	C 	0.05356	0.47526	0.96993	0.376
Mof_C 	C 	0.08471	0.45961	0.95213	-0.149
Mof_C 	C 	0.11302	0.45661	0.99011	0.09
Mof_H 	H 	0.11277	0.46443	0.02673	0.015
Mof_C 	C 	0.14141	0.44215	0.97357	-0.172
Mof_H 	H 	0.16107	0.44153	0.99903	0.104
Mof_C 	C 	0.14154	0.42859	0.92003	0.127
Mof_C 	C 	0.11271	0.43114	0.88328	-0.176
Mof_H 	H 	0.11227	0.42263	0.84683	0.093
Mof_C 	C 	0.08439	0.44612	0.89946	0.093
Mof_H 	H 	0.06487	0.44693	0.87393	0.014
Mof_C 	C 	0.17032	0.41056	0.90219	-0.07
Mof_C 	C 	0.15223	0.37262	0.86914	-0.044
Mof_H 	H 	0.12257	0.35973	0.85873	0.045
Mof_H 	H 	0.23207	0.50923	0.90313	0.09
Mof_O 	O 	0.69306	0.80698	0.26771	-0.411
Mof_O 	O 	0.72324	0.82187	0.3524	-0.411
Mof_C 	C 	0.72022	0.8086	0.30327	0.376
Mof_C 	C 	0.75137	0.79295	0.28547	-0.149
Mof_C 	C 	0.77968	0.78995	0.32345	0.09
Mof_H 	H 	0.77943	0.79777	0.36007	0.015
Mof_C 	C 	0.80807	0.77549	0.30691	-0.172
Mof_H 	H 	0.82773	0.77487	0.33237	0.104
Mof_C 	C 	0.8082	0.76193	0.25337	0.127
Mof_C 	C 	0.77937	0.76448	0.21662	-0.175
Mof_H 	H 	0.77893	0.75597	0.18017	0.093
Mof_C 	C 	0.75105	0.77946	0.2328	0.093
Mof_H 	H 	0.73153	0.78027	0.20727	0.014
Mof_C 	C 	0.83698	0.7439	0.23553	-0.07
Mof_C 	C 	0.81889	0.70596	0.20248	-0.044
Mof_H 	H 	0.78923	0.69307	0.19207	0.045
Mof_H 	H 	0.89873	0.84257	0.23647	0.09
Mof_O 	O 	0.35973	0.21942	0.60104	-0.411
Mof_O 	O 	0.38991	0.23471	0.68573	-0.411
Mof_C 	C 	0.38689	0.24496	0.6366	0.376
Mof_C 	C 	0.41804	0.29176	0.6188	-0.149
Mof_C 	C 	0.44635	0.32307	0.65678	0.09
Mof_H 	H 	0.4461	0.315	0.6934	0.015
Mof_C 	C 	0.47474	0.36592	0.64024	-0.172
Mof_H 	H 	0.4944	0.3862	0.6657	0.104
Mof_C 	C 	0.47487	0.37961	0.5867	0.127
Mof_C 	C 	0.44604	0.34823	0.54995	-0.175
Mof_H 	H 	0.4456	0.3563	0.5135	0.093
Mof_C 	C 	0.41772	0.30493	0.56613	0.093
Mof_H 	H 	0.3982	0.2846	0.5406	0.014
Mof_C 	C 	0.50365	0.42642	0.56886	-0.07
Mof_C 	C 	0.48556	0.44627	0.53581	-0.044
Mof_H 	H 	0.4559	0.4295	0.5254	0.045
Mof_H 	H 	0.5654	0.3895	0.5698	0.09
Mof_O 	O 	0.0264	0.55275	0.93437	-0.411
Mof_O 	O 	0.05658	0.56804	0.01906	-0.411
Mof_C 	C 	0.05356	0.57829	0.96993	0.376
Mof_C 	C 	0.08471	0.62509	0.95213	-0.149
Mof_C 	C 	0.11302	0.6564	0.99011	0.09
Mof_H 	H 	0.11277	0.64833	0.02673	0.015
Mof_C 	C 	0.14141	0.69925	0.97357	-0.172
Mof_H 	H 	0.16107	0.71953	0.99903	0.104
Mof_C 	C 	0.14154	0.71294	0.92003	0.127
Mof_C 	C 	0.11271	0.68156	0.88328	-0.176
Mof_H 	H 	0.11227	0.68963	0.84683	0.093
Mof_C 	C 	0.08439	0.63826	0.89946	0.093
Mof_H 	H 	0.06487	0.61793	0.87393	0.014
Mof_C 	C 	0.17032	0.75975	0.90219	-0.07
Mof_C 	C 	0.15223	0.7796	0.86914	-0.044
Mof_H 	H 	0.12257	0.76283	0.85873	0.045
Mof_H 	H 	0.23207	0.72283	0.90313	0.09
Mof_O 	O 	0.69306	0.88609	0.26771	-0.411
Mof_O 	O 	0.72324	0.90138	0.3524	-0.411
Mof_C 	C 	0.72022	0.91163	0.30327	0.376
Mof_C 	C 	0.75137	0.95843	0.28547	-0.149
Mof_C 	C 	0.77968	0.98974	0.32345	0.09
Mof_H 	H 	0.77943	0.98167	0.36007	0.015
Mof_C 	C 	0.80807	0.03259	0.30691	-0.172
Mof_H 	H 	0.82773	0.05287	0.33237	0.104
Mof_C 	C 	0.8082	0.04628	0.25337	0.127
Mof_C 	C 	0.77937	0.0149	0.21662	-0.175
Mof_H 	H 	0.77893	0.02297	0.18017	0.093
Mof_C 	C 	0.75105	0.9716	0.2328	0.093
Mof_H 	H 	0.73153	0.95127	0.20727	0.014
Mof_C 	C 	0.83698	0.09309	0.23553	-0.07
Mof_C 	C 	0.81889	0.11294	0.20248	-0.044
Mof_H 	H 	0.78923	0.09617	0.19207	0.045
Mof_H 	H 	0.89873	0.05617	0.23647	0.09
Mof_O 	O 	0.78058	0.14031	0.60104	-0.411
Mof_O 	O 	0.76529	0.1552	0.68573	-0.411
Mof_C 	C 	0.75504	0.14193	0.6366	0.376
Mof_C 	C 	0.70824	0.12628	0.6188	-0.149
Mof_C 	C 	0.67693	0.12328	0.65678	0.09
Mof_H 	H 	0.685	0.1311	0.6934	0.015
Mof_C 	C 	0.63408	0.10882	0.64024	-0.172
Mof_H 	H 	0.6138	0.1082	0.6657	0.104
Mof_C 	C 	0.62039	0.09526	0.5867	0.127
Mof_C 	C 	0.65177	0.09781	0.54995	-0.175
Mof_H 	H 	0.6437	0.0893	0.5135	0.093
Mof_C 	C 	0.69507	0.11279	0.56613	0.093
Mof_H 	H 	0.7154	0.1136	0.5406	0.014
Mof_C 	C 	0.57358	0.07723	0.56886	-0.07
Mof_C 	C 	0.55373	0.03929	0.53581	-0.044
Mof_H 	H 	0.5705	0.0264	0.5254	0.045
Mof_H 	H 	0.6105	0.1759	0.5698	0.09
Mof_O 	O 	0.44725	0.47364	0.93437	-0.411
Mof_O 	O 	0.43196	0.48853	0.01906	-0.411
Mof_C 	C 	0.42171	0.47526	0.96993	0.376
Mof_C 	C 	0.37491	0.45961	0.95213	-0.149
Mof_C 	C 	0.3436	0.45661	0.99011	0.09
Mof_H 	H 	0.35167	0.46443	0.02673	0.015
Mof_C 	C 	0.30075	0.44215	0.97357	-0.172
Mof_H 	H 	0.28047	0.44153	0.99903	0.104
Mof_C 	C 	0.28706	0.42859	0.92003	0.127
Mof_C 	C 	0.31844	0.43114	0.88328	-0.175
Mof_H 	H 	0.31037	0.42263	0.84683	0.093
Mof_C 	C 	0.36174	0.44612	0.89946	0.093
Mof_H 	H 	0.38207	0.44693	0.87393	0.014
Mof_C 	C 	0.24025	0.41056	0.90219	-0.07
Mof_C 	C 	0.2204	0.37262	0.86914	-0.044
Mof_H 	H 	0.23717	0.35973	0.85873	0.045
Mof_H 	H 	0.27717	0.50923	0.90313	0.09
Mof_O 	O 	0.11391	0.80698	0.26771	-0.411
Mof_O 	O 	0.09862	0.82187	0.3524	-0.411
Mof_C 	C 	0.08837	0.8086	0.30327	0.376
Mof_C 	C 	0.04157	0.79295	0.28547	-0.149
Mof_C 	C 	0.01026	0.78995	0.32345	0.09
Mof_H 	H 	0.01833	0.79777	0.36007	0.015
Mof_C 	C 	0.96741	0.77549	0.30691	-0.172
Mof_H 	H 	0.94713	0.77487	0.33237	0.104
Mof_C 	C 	0.95372	0.76193	0.25337	0.127
Mof_C 	C 	0.9851	0.76448	0.21662	-0.175
Mof_H 	H 	0.97703	0.75597	0.18017	0.093
Mof_C 	C 	0.0284	0.77946	0.2328	0.093
Mof_H 	H 	0.04873	0.78027	0.20727	0.014
Mof_C 	C 	0.90691	0.7439	0.23553	-0.07
Mof_C 	C 	0.88706	0.70596	0.20248	-0.044
Mof_H 	H 	0.90383	0.69307	0.19207	0.045
Mof_H 	H 	0.94383	0.84257	0.23647	0.09
Mof_O 	O 	0.85969	0.64027	0.60104	-0.411
Mof_O 	O 	0.8448	0.61009	0.68573	-0.411
Mof_C 	C 	0.85807	0.61311	0.6366	0.376
Mof_C 	C 	0.87372	0.58196	0.6188	-0.149
Mof_C 	C 	0.87672	0.55365	0.65678	0.09
Mof_H 	H 	0.8689	0.5539	0.6934	0.015
Mof_C 	C 	0.89118	0.52526	0.64024	-0.172
Mof_H 	H 	0.8918	0.5056	0.6657	0.104
Mof_C 	C 	0.90474	0.52513	0.5867	0.127
Mof_C 	C 	0.90219	0.55396	0.54995	-0.175
Mof_H 	H 	0.9107	0.5544	0.5135	0.093
Mof_C 	C 	0.88721	0.58228	0.56613	0.093
Mof_H 	H 	0.8864	0.6018	0.5406	0.014
Mof_C 	C 	0.92277	0.49635	0.56886	-0.07
Mof_C 	C 	0.96071	0.51444	0.53581	-0.044
Mof_H 	H 	0.9736	0.5441	0.5254	0.045
Mof_H 	H 	0.8241	0.4346	0.5698	0.09
Mof_O 	O 	0.52636	0.9736	0.93437	-0.411
Mof_O 	O 	0.51147	0.94342	0.01906	-0.411
Mof_C 	C 	0.52474	0.94644	0.96993	0.376
Mof_C 	C 	0.54039	0.91529	0.95213	-0.149
Mof_C 	C 	0.54339	0.88698	0.99011	0.09
Mof_H 	H 	0.53557	0.88723	0.02673	0.015
Mof_C 	C 	0.55785	0.85859	0.97357	-0.172
Mof_H 	H 	0.55847	0.83893	0.99903	0.104
Mof_C 	C 	0.57141	0.85846	0.92003	0.127
Mof_C 	C 	0.56886	0.88729	0.88328	-0.176
Mof_H 	H 	0.57737	0.88773	0.84683	0.093
Mof_C 	C 	0.55388	0.91561	0.89946	0.093
Mof_H 	H 	0.55307	0.93513	0.87393	0.014
Mof_C 	C 	0.58944	0.82968	0.90219	-0.07
Mof_C 	C 	0.62738	0.84777	0.86914	-0.044
Mof_H 	H 	0.64027	0.87743	0.85873	0.045
Mof_H 	H 	0.49077	0.76793	0.90313	0.09
Mof_O 	O 	0.19302	0.30694	0.26771	-0.411
Mof_O 	O 	0.17813	0.27676	0.3524	-0.411
Mof_C 	C 	0.1914	0.27978	0.30327	0.376
Mof_C 	C 	0.20705	0.24863	0.28547	-0.149
Mof_C 	C 	0.21005	0.22032	0.32345	0.09
Mof_H 	H 	0.20223	0.22057	0.36007	0.015
Mof_C 	C 	0.22451	0.19193	0.30691	-0.172
Mof_H 	H 	0.22513	0.17227	0.33237	0.104
Mof_C 	C 	0.23807	0.1918	0.25337	0.127
Mof_C 	C 	0.23552	0.22063	0.21662	-0.175
Mof_H 	H 	0.24403	0.22107	0.18017	0.093
Mof_C 	C 	0.22054	0.24895	0.2328	0.093
Mof_H 	H 	0.21973	0.26847	0.20727	0.014
Mof_C 	C 	0.2561	0.16302	0.23553	-0.07
Mof_C 	C 	0.29404	0.18111	0.20248	-0.044
Mof_H 	H 	0.30693	0.21077	0.19207	0.045
Mof_H 	H 	0.15743	0.10127	0.23647	0.09
Mof_O 	O 	0.21942	0.35973	0.39896	-0.411
Mof_O 	O 	0.23471	0.38991	0.31427	-0.411
Mof_C 	C 	0.24496	0.38689	0.3634	0.376
Mof_C 	C 	0.29176	0.41804	0.3812	-0.149
Mof_C 	C 	0.32307	0.44635	0.34322	0.09
Mof_H 	H 	0.315	0.4461	0.3066	0.015
Mof_C 	C 	0.36592	0.47474	0.35976	-0.172
Mof_H 	H 	0.3862	0.4944	0.3343	0.104
Mof_C 	C 	0.37961	0.47487	0.4133	0.127
Mof_C 	C 	0.34823	0.44604	0.45005	-0.175
Mof_H 	H 	0.3563	0.4456	0.4865	0.093
Mof_C 	C 	0.30493	0.41772	0.43387	0.093
Mof_H 	H 	0.2846	0.3982	0.4594	0.014
Mof_C 	C 	0.42642	0.50365	0.43114	-0.07
Mof_C 	C 	0.44627	0.48556	0.46419	-0.044
Mof_H 	H 	0.4295	0.4559	0.4746	0.045
Mof_H 	H 	0.3895	0.5654	0.4302	0.09
Mof_O 	O 	0.88609	0.69306	0.73229	-0.411
Mof_O 	O 	0.90138	0.72324	0.6476	-0.411
Mof_C 	C 	0.91163	0.72022	0.69673	0.376
Mof_C 	C 	0.95843	0.75137	0.71453	-0.149
Mof_C 	C 	0.98974	0.77968	0.67655	0.09
Mof_H 	H 	0.98167	0.77943	0.63993	0.015
Mof_C 	C 	0.03259	0.80807	0.69309	-0.172
Mof_H 	H 	0.05287	0.82773	0.66763	0.104
Mof_C 	C 	0.04628	0.8082	0.74663	0.127
Mof_C 	C 	0.0149	0.77937	0.78338	-0.175
Mof_H 	H 	0.02297	0.77893	0.81983	0.093
Mof_C 	C 	0.9716	0.75105	0.7672	0.093
Mof_H 	H 	0.95127	0.73153	0.79273	0.014
Mof_C 	C 	0.09309	0.83698	0.76447	-0.07
Mof_C 	C 	0.11294	0.81889	0.79752	-0.044
Mof_H 	H 	0.09617	0.78923	0.80793	0.045
Mof_H 	H 	0.05617	0.89873	0.76353	0.09
Mof_O 	O 	0.55275	0.0264	0.06563	-0.411
Mof_O 	O 	0.56804	0.05658	0.98094	-0.411
Mof_C 	C 	0.57829	0.05356	0.03007	0.376
Mof_C 	C 	0.62509	0.08471	0.04787	-0.149
Mof_C 	C 	0.6564	0.11302	0.00989	0.09
Mof_H 	H 	0.64833	0.11277	0.97327	0.015
Mof_C 	C 	0.69925	0.14141	0.02643	-0.172
Mof_H 	H 	0.71953	0.16107	0.00097	0.104
Mof_C 	C 	0.71294	0.14154	0.07997	0.127
Mof_C 	C 	0.68156	0.11271	0.11672	-0.176
Mof_H 	H 	0.68963	0.11227	0.15317	0.093
Mof_C 	C 	0.63826	0.08439	0.10054	0.093
Mof_H 	H 	0.61793	0.06487	0.12607	0.014
Mof_C 	C 	0.75975	0.17032	0.09781	-0.07
Mof_C 	C 	0.7796	0.15223	0.13086	-0.044
Mof_H 	H 	0.76283	0.12257	0.14127	0.045
Mof_H 	H 	0.72283	0.23207	0.09687	0.09
Mof_O 	O 	0.14031	0.78058	0.39896	-0.411
Mof_O 	O 	0.1552	0.76529	0.31427	-0.411
Mof_C 	C 	0.14193	0.75504	0.3634	0.376
Mof_C 	C 	0.12628	0.70824	0.3812	-0.149
Mof_C 	C 	0.12328	0.67693	0.34322	0.09
Mof_H 	H 	0.1311	0.685	0.3066	0.015
Mof_C 	C 	0.10882	0.63408	0.35976	-0.172
Mof_H 	H 	0.1082	0.6138	0.3343	0.104
Mof_C 	C 	0.09526	0.62039	0.4133	0.127
Mof_C 	C 	0.09781	0.65177	0.45005	-0.175
Mof_H 	H 	0.0893	0.6437	0.4865	0.093
Mof_C 	C 	0.11279	0.69507	0.43387	0.093
Mof_H 	H 	0.1136	0.7154	0.4594	0.014
Mof_C 	C 	0.07723	0.57358	0.43114	-0.07
Mof_C 	C 	0.03929	0.55373	0.46419	-0.044
Mof_H 	H 	0.0264	0.5705	0.4746	0.045
Mof_H 	H 	0.1759	0.6105	0.4302	0.09
Mof_O 	O 	0.80698	0.11391	0.73229	-0.411
Mof_O 	O 	0.82187	0.09862	0.6476	-0.411
Mof_C 	C 	0.8086	0.08837	0.69673	0.376
Mof_C 	C 	0.79295	0.04157	0.71453	-0.149
Mof_C 	C 	0.78995	0.01026	0.67655	0.09
Mof_H 	H 	0.79777	0.01833	0.63993	0.015
Mof_C 	C 	0.77549	0.96741	0.69309	-0.172
Mof_H 	H 	0.77487	0.94713	0.66763	0.104
Mof_C 	C 	0.76193	0.95372	0.74663	0.127
Mof_C 	C 	0.76448	0.9851	0.78338	-0.175
Mof_H 	H 	0.75597	0.97703	0.81983	0.093
Mof_C 	C 	0.77946	0.0284	0.7672	0.093
Mof_H 	H 	0.78027	0.04873	0.79273	0.014
Mof_C 	C 	0.7439	0.90691	0.76447	-0.07
Mof_C 	C 	0.70596	0.88706	0.79752	-0.044
Mof_H 	H 	0.69307	0.90383	0.80793	0.045
Mof_H 	H 	0.84257	0.94383	0.76353	0.09
Mof_O 	O 	0.47364	0.44725	0.06563	-0.411
Mof_O 	O 	0.48853	0.43196	0.98094	-0.411
Mof_C 	C 	0.47526	0.42171	0.03007	0.376
Mof_C 	C 	0.45961	0.37491	0.04787	-0.149
Mof_C 	C 	0.45661	0.3436	0.00989	0.09
Mof_H 	H 	0.46443	0.35167	0.97327	0.015
Mof_C 	C 	0.44215	0.30075	0.02643	-0.172
Mof_H 	H 	0.44153	0.28047	0.00097	0.104
Mof_C 	C 	0.42859	0.28706	0.07997	0.127
Mof_C 	C 	0.43114	0.31844	0.11672	-0.175
Mof_H 	H 	0.42263	0.31037	0.15317	0.093
Mof_C 	C 	0.44612	0.36174	0.10054	0.093
Mof_H 	H 	0.44693	0.38207	0.12607	0.014
Mof_C 	C 	0.41056	0.24025	0.09781	-0.07
Mof_C 	C 	0.37262	0.2204	0.13086	-0.044
Mof_H 	H 	0.35973	0.23717	0.14127	0.045
Mof_H 	H 	0.50923	0.27717	0.09687	0.09
Mof_O 	O 	0.64027	0.85969	0.39896	-0.411
Mof_O 	O 	0.61009	0.8448	0.31427	-0.411
Mof_C 	C 	0.61311	0.85807	0.3634	0.376
Mof_C 	C 	0.58196	0.87372	0.3812	-0.149
Mof_C 	C 	0.55365	0.87672	0.34322	0.09
Mof_H 	H 	0.5539	0.8689	0.3066	0.015
Mof_C 	C 	0.52526	0.89118	0.35976	-0.172
Mof_H 	H 	0.5056	0.8918	0.3343	0.104
Mof_C 	C 	0.52513	0.90474	0.4133	0.127
Mof_C 	C 	0.55396	0.90219	0.45005	-0.175
Mof_H 	H 	0.5544	0.9107	0.4865	0.093
Mof_C 	C 	0.58228	0.88721	0.43387	0.093
Mof_H 	H 	0.6018	0.8864	0.4594	0.014
Mof_C 	C 	0.49635	0.92277	0.43114	-0.07
Mof_C 	C 	0.51444	0.96071	0.46419	-0.044
Mof_H 	H 	0.5441	0.9736	0.4746	0.045
Mof_H 	H 	0.4346	0.8241	0.4302	0.09
Mof_O 	O 	0.30694	0.19302	0.73229	-0.411
Mof_O 	O 	0.27676	0.17813	0.6476	-0.411
Mof_C 	C 	0.27978	0.1914	0.69673	0.376
Mof_C 	C 	0.24863	0.20705	0.71453	-0.149
Mof_C 	C 	0.22032	0.21005	0.67655	0.09
Mof_H 	H 	0.22057	0.20223	0.63993	0.015
Mof_C 	C 	0.19193	0.22451	0.69309	-0.172
Mof_H 	H 	0.17227	0.22513	0.66763	0.104
Mof_C 	C 	0.1918	0.23807	0.74663	0.127
Mof_C 	C 	0.22063	0.23552	0.78338	-0.175
Mof_H 	H 	0.22107	0.24403	0.81983	0.093
Mof_C 	C 	0.24895	0.22054	0.7672	0.093
Mof_H 	H 	0.26847	0.21973	0.79273	0.014
Mof_C 	C 	0.16302	0.2561	0.76447	-0.07
Mof_C 	C 	0.18111	0.29404	0.79752	-0.044
Mof_H 	H 	0.21077	0.30693	0.80793	0.045
Mof_H 	H 	0.10127	0.15743	0.76353	0.09
Mof_O 	O 	0.9736	0.52636	0.06563	-0.411
Mof_O 	O 	0.94342	0.51147	0.98094	-0.411
Mof_C 	C 	0.94644	0.52474	0.03007	0.376
Mof_C 	C 	0.91529	0.54039	0.04787	-0.149
Mof_C 	C 	0.88698	0.54339	0.00989	0.09
Mof_H 	H 	0.88723	0.53557	0.97327	0.015
Mof_C 	C 	0.85859	0.55785	0.02643	-0.172
Mof_H 	H 	0.83893	0.55847	0.00097	0.104
Mof_C 	C 	0.85846	0.57141	0.07997	0.127
Mof_C 	C 	0.88729	0.56886	0.11672	-0.176
Mof_H 	H 	0.88773	0.57737	0.15317	0.093
Mof_C 	C 	0.91561	0.55388	0.10054	0.093
Mof_H 	H 	0.93513	0.55307	0.12607	0.014
Mof_C 	C 	0.82968	0.58944	0.09781	-0.07
Mof_C 	C 	0.84777	0.62738	0.13086	-0.044
Mof_H 	H 	0.87743	0.64027	0.14127	0.045
Mof_H 	H 	0.76793	0.49077	0.09687	0.09
Mof_Cu	Cu	0.64871	0.82435	0.28356	0.905
Mof_Cu	Cu	0.31538	0.15769	0.61689	0.905
Mof_Cu	Cu	0.98204	0.49102	0.95023	0.905
Mof_Cu	Cu	0.17565	0.82435	0.28356	0.905
Mof_Cu	Cu	0.84231	0.15769	0.61689	0.905
Mof_Cu	Cu	0.50898	0.49102	0.95023	0.906
Mof_Cu	Cu	0.17565	0.35129	0.28356	0.905
Mof_Cu	Cu	0.84231	0.68462	0.61689	0.905
Mof_Cu	Cu	0.50898	0.01796	0.95023	0.905
Mof_Cu	Cu	0.82435	0.64871	0.71644	0.905
Mof_Cu	Cu	0.49102	0.98204	0.04977	0.905
Mof_Cu	Cu	0.15769	0.31538	0.38311	0.905
Mof_Cu	Cu	0.82435	0.17565	0.71644	0.905
Mof_Cu	Cu	0.49102	0.50898	0.04977	0.906
Mof_Cu	Cu	0.15769	0.84231	0.38311	0.905
Mof_Cu	Cu	0.35129	0.17565	0.71644	0.905
Mof_Cu	Cu	0.01796	0.50898	0.04977	0.905
Mof_Cu	Cu	0.68462	0.84231	0.38311	0.905
Mof_O 	O 	0.43329	0.56671	0.38131	-0.176
Mof_C 	C 	0.49009	0.50991	0.48233	0.007
Mof_C 	C 	0.45234	0.54766	0.41431	0.119
Mof_C 	C 	0.41327	0.58673	0.4075	-0.177
Mof_H 	H 	0.4016	0.5984	0.3805	0.091
Mof_O 	O 	0.09996	0.90004	0.71464	-0.176
Mof_C 	C 	0.15676	0.84324	0.81566	0.007
Mof_C 	C 	0.11901	0.88099	0.74764	0.119
Mof_C 	C 	0.07994	0.92006	0.74083	-0.177
Mof_H 	H 	0.06827	0.93173	0.71383	0.091
Mof_O 	O 	0.76662	0.23338	0.04798	-0.176
Mof_C 	C 	0.82342	0.17658	0.149	0.007
Mof_C 	C 	0.78567	0.21433	0.08098	0.119
Mof_C 	C 	0.7466	0.2534	0.07417	-0.177
Mof_H 	H 	0.73493	0.26507	0.04717	0.091
Mof_O 	O 	0.43329	0.86658	0.38131	-0.176
Mof_C 	C 	0.49009	0.98018	0.48233	0.007
Mof_C 	C 	0.45234	0.90468	0.41431	0.119
Mof_C 	C 	0.41327	0.82654	0.4075	-0.177
Mof_H 	H 	0.4016	0.8032	0.3805	0.091
Mof_O 	O 	0.09996	0.19991	0.71464	-0.176
Mof_C 	C 	0.15676	0.31351	0.81566	0.007
Mof_C 	C 	0.11901	0.23801	0.74764	0.119
Mof_C 	C 	0.07994	0.15987	0.74083	-0.177
Mof_H 	H 	0.06827	0.13653	0.71383	0.091
Mof_O 	O 	0.76662	0.53325	0.04798	-0.176
Mof_C 	C 	0.82342	0.64685	0.149	0.007
Mof_C 	C 	0.78567	0.57135	0.08098	0.119
Mof_C 	C 	0.7466	0.49321	0.07417	-0.177
Mof_H 	H 	0.73493	0.46987	0.04717	0.091
Mof_O 	O 	0.13342	0.56671	0.38131	-0.176
Mof_C 	C 	0.01982	0.50991	0.48233	0.007
Mof_C 	C 	0.09532	0.54766	0.41431	0.119
Mof_C 	C 	0.17346	0.58673	0.4075	-0.177
Mof_H 	H 	0.1968	0.5984	0.3805	0.091
Mof_O 	O 	0.80009	0.90004	0.71464	-0.176
Mof_C 	C 	0.68649	0.84324	0.81566	0.007
Mof_C 	C 	0.76199	0.88099	0.74764	0.119
Mof_C 	C 	0.84013	0.92006	0.74083	-0.177
Mof_H 	H 	0.86347	0.93173	0.71383	0.091
Mof_O 	O 	0.46675	0.23338	0.04798	-0.176
Mof_C 	C 	0.35315	0.17658	0.149	0.007
Mof_C 	C 	0.42865	0.21433	0.08098	0.119
Mof_C 	C 	0.50679	0.2534	0.07417	-0.177
Mof_H 	H 	0.53013	0.26507	0.04717	0.091
Mof_O 	O 	0.56671	0.43329	0.61869	-0.176
Mof_C 	C 	0.50991	0.49009	0.51767	0.007
Mof_C 	C 	0.54766	0.45234	0.58569	0.119
Mof_C 	C 	0.58673	0.41327	0.5925	-0.177
Mof_H 	H 	0.5984	0.4016	0.6195	0.091
Mof_O 	O 	0.23338	0.76662	0.95202	-0.176
Mof_C 	C 	0.17658	0.82342	0.851	0.007
Mof_C 	C 	0.21433	0.78567	0.91902	0.119
Mof_C 	C 	0.2534	0.7466	0.92583	-0.177
Mof_H 	H 	0.26507	0.73493	0.95283	0.091
Mof_O 	O 	0.90004	0.09996	0.28536	-0.176
Mof_C 	C 	0.84324	0.15676	0.18434	0.007
Mof_C 	C 	0.88099	0.11901	0.25236	0.119
Mof_C 	C 	0.92006	0.07994	0.25917	-0.177
Mof_H 	H 	0.93173	0.06827	0.28617	0.091
Mof_O 	O 	0.86658	0.43329	0.61869	-0.176
Mof_C 	C 	0.98018	0.49009	0.51767	0.007
Mof_C 	C 	0.90468	0.45234	0.58569	0.119
Mof_C 	C 	0.82654	0.41327	0.5925	-0.177
Mof_H 	H 	0.8032	0.4016	0.6195	0.091
Mof_O 	O 	0.53325	0.76662	0.95202	-0.176
Mof_C 	C 	0.64685	0.82342	0.851	0.007
Mof_C 	C 	0.57135	0.78567	0.91902	0.119
Mof_C 	C 	0.49321	0.7466	0.92583	-0.177
Mof_H 	H 	0.46987	0.73493	0.95283	0.091
Mof_O 	O 	0.19991	0.09996	0.28536	-0.176
Mof_C 	C 	0.31351	0.15676	0.18434	0.007
Mof_C 	C 	0.23801	0.11901	0.25236	0.119
Mof_C 	C 	0.15987	0.07994	0.25917	-0.177
Mof_H 	H 	0.13653	0.06827	0.28617	0.091
Mof_O 	O 	0.56671	0.13342	0.61869	-0.176
Mof_C 	C 	0.50991	0.01982	0.51767	0.007
Mof_C 	C 	0.54766	0.09532	0.58569	0.119
Mof_C 	C 	0.58673	0.17346	0.5925	-0.177
Mof_H 	H 	0.5984	0.1968	0.6195	0.091
Mof_O 	O 	0.23338	0.46675	0.95202	-0.176
Mof_C 	C 	0.17658	0.35315	0.851	0.007
Mof_C 	C 	0.21433	0.42865	0.91902	0.119
Mof_C 	C 	0.2534	0.50679	0.92583	-0.177
Mof_H 	H 	0.26507	0.53013	0.95283	0.091
Mof_O 	O 	0.90004	0.80009	0.28536	-0.176
Mof_C 	C 	0.84324	0.68649	0.18434	0.007
Mof_C 	C 	0.88099	0.76199	0.25236	0.119
Mof_C 	C 	0.92006	0.84013	0.25917	-0.177
Mof_H 	H 	0.93173	0.86347	0.28617	0.091
_end
