data_functionalizedCrystal
_audit_creation_method	'EQeq! by Chris Wilmer'
_symmetry_space_group_name_H-M	'P1'
_symmetry_Int_Tables_number	1
_symmetry_cell_setting	triclinic
loop_
_symmetry_equiv_pos_as_xyz
  x,y,z
_cell_length_a	15.36
_cell_length_b	22.493
_cell_length_c	23.83
_cell_angle_alpha	90
_cell_angle_beta	90
_cell_angle_gamma	90
loop_
_atom_site_label
_atom_site_type_symbol
_atom_site_fract_x
_atom_site_fract_y
_atom_site_fract_z
_atom_site_charge
Mof_Li	Li	0.7663	0.6353	0.5715	6.591
Mof_Li	Li	0.1969	0.7678	0.7621	6.331
Mof_Li	Li	0.7337	0.3647	0.0715	6.591
Mof_Li	Li	0.3031	0.2322	0.2621	6.33
Mof_Li	Li	0.2337	0.1353	0.9285	6.587
Mof_Li	Li	0.8031	0.2678	0.7379	6.33
Mof_Li	Li	0.2663	0.8647	0.4285	6.59
Mof_Li	Li	0.6969	0.7322	0.2379	6.33
Mof_Co	Co	0.70696	0.90119	0.78121	1.177
Mof_Co	Co	0.79304	0.09881	0.28121	1.177
Mof_Co	Co	0.29304	0.40119	0.71879	1.177
Mof_Co	Co	0.20696	0.59881	0.21879	1.177
Mof_P 	P 	0.40258	0.77958	0.47421	0.67
Mof_P 	P 	0.09742	0.22042	0.97421	0.669
Mof_P 	P 	0.59742	0.27958	0.02579	0.67
Mof_P 	P 	0.90258	0.72042	0.52579	0.67
Mof_H 	H 	0.0097	0.8491	0.7487	0.039
Mof_H 	H 	0.7585	0.1057	0.843	0.1
Mof_H 	H 	0.607	0.0658	0.8295	0.103
Mof_H 	H 	0.4093	0.904	0.8581	0.077
Mof_H 	H 	0.6796	0.7301	0.6994	0.006
Mof_H 	H 	0.7642	0.7694	0.8	0.044
Mof_H 	H 	0.8125	0.8421	0.6437	0.102
Mof_H 	H 	0.7815	0.7743	0.6469	0.058
Mof_H 	H 	0.7157	0.8265	0.6636	0.102
Mof_H 	H 	0.9031	0.7054	0.6965	-0.009
Mof_H 	H 	0.9185	0.7565	0.6508	0.018
Mof_H 	H 	0.9964	0.7366	0.6912	-0.038
Mof_H 	H 	0.8863	0.7304	0.7989	0.158
Mof_H 	H 	0.9087	0.7962	0.8199	0.177
Mof_H 	H 	0.0853	0.677	0.8156	0.077
Mof_H 	H 	0.988	0.6684	0.825	0.184
Mof_H 	H 	0.9234	0.8908	0.6488	0.018
Mof_H 	H 	0.99	0.8367	0.6418	-0.003
Mof_H 	H 	0.0313	0.9539	0.6771	0.1
Mof_H 	H 	0.0986	0.9003	0.6857	0.054
Mof_H 	H 	0.1278	0.985	0.5539	0.144
Mof_H 	H 	0.1037	0.0071	0.6123	0.188
Mof_H 	H 	0.0149	0.9731	0.8359	0.105
Mof_H 	H 	0.0396	0.9167	0.7981	0.096
Mof_H 	H 	0.0355	0.9816	0.7706	0.11
Mof_H 	H 	0.9564	0.0813	0.7811	0.132
Mof_H 	H 	0.9337	0.1234	0.8332	0.097
Mof_H 	H 	0.9935	0.0659	0.8422	0.113
Mof_H 	H 	0.7977	0.014	0.9053	0.137
Mof_H 	H 	0.8483	0.0747	0.9169	0.13
Mof_H 	H 	0.9572	0.9219	0.9492	0.145
Mof_H 	H 	0.8721	0.9247	0.9164	0.15
Mof_H 	H 	0.8202	0.0822	0.7302	-0.131
Mof_H 	H 	0.8216	0.1454	0.7609	-0.307
Mof_H 	H 	0.6618	0.1414	0.7584	0.191
Mof_H 	H 	0.6723	0.0869	0.7159	0.24
Mof_H 	H 	0.6563	0.1838	0.609	0.167
Mof_H 	H 	0.6204	0.1273	0.6356	0.157
Mof_H 	H 	0.5348	0.0065	0.932	0.154
Mof_H 	H 	0.4473	0.9682	0.9368	0.166
Mof_H 	H 	0.5377	0.9361	0.9226	0.163
Mof_H 	H 	0.4296	0.0473	0.8041	0.099
Mof_H 	H 	0.379	0.0371	0.8621	0.041
Mof_H 	H 	0.4694	0.0726	0.8614	0.093
Mof_H 	H 	0.404	0.9707	0.7565	-0.021
Mof_H 	H 	0.3867	0.9007	0.7523	-0.017
Mof_H 	H 	0.2561	0.9655	0.7633	0.172
Mof_H 	H 	0.2845	0.9713	0.8278	0.12
Mof_H 	H 	0.1918	0.844	0.8681	0.058
Mof_H 	H 	0.2242	0.9057	0.8845	0.167
Mof_H 	H 	0.4053	0.7908	0.7664	-0.118
Mof_H 	H 	0.4408	0.758	0.8214	-0.046
Mof_H 	H 	0.3913	0.8204	0.8268	-0.066
Mof_H 	H 	0.5468	0.7148	0.8499	0.127
Mof_H 	H 	0.5993	0.6585	0.8267	0.127
Mof_H 	H 	0.651	0.7149	0.8504	0.137
Mof_H 	H 	0.4754	0.6971	0.7526	-0.004
Mof_H 	H 	0.5502	0.6592	0.723	0.022
Mof_H 	H 	0.5683	0.7385	0.6552	0.076
Mof_H 	H 	0.4875	0.7722	0.6833	0.084
Mof_H 	H 	0.5366	0.6855	0.5802	0.041
Mof_H 	H 	0.7855	0.6691	0.7723	0.149
Mof_H 	H 	0.693	0.6368	0.7674	0.15
Mof_H 	H 	0.8363	0.5741	0.666	0.047
Mof_H 	H 	0.8396	0.5825	0.7294	0.182
Mof_H 	H 	0.4697	0.6172	0.5274	0.066
Mof_H 	H 	0.3979	0.6103	0.5754	0.069
Mof_H 	H 	0.3289	0.6995	0.5411	-0.06
Mof_H 	H 	0.3426	0.6078	0.4573	0.198
Mof_H 	H 	0.2744	0.606	0.508	0.182
Mof_H 	H 	0.2658	0.6557	0.4603	0.191
Mof_H 	H 	0.5007	0.9702	0.5672	0.004
Mof_H 	H 	0.5515	0.887	0.5213	0.016
Mof_H 	H 	0.3983	0.8826	0.522	-0.18
Mof_H 	H 	0.4032	0.8402	0.6366	0.046
Mof_H 	H 	0.2627	0.8456	0.5991	-0.122
Mof_H 	H 	0.2794	0.9122	0.5779	-0.103
Mof_H 	H 	0.5974	0.814	0.5708	0.158
Mof_H 	H 	0.2529	0.8775	0.683	0.166
Mof_H 	H 	0.5504	0.8957	0.6999	0
Mof_H 	H 	0.8364	0.982	0.6903	0.087
Mof_H 	H 	0.6386	0.0155	0.5411	0.08
Mof_H 	H 	0.9437	0.0339	0.5834	0.161
Mof_H 	H 	0.9025	0.0948	0.6057	0.152
Mof_H 	H 	0.9373	0.0463	0.6494	0.171
Mof_H 	H 	0.7379	0.0801	0.4962	0.147
Mof_H 	H 	0.8125	0.1098	0.5338	0.137
Mof_H 	H 	0.833	0.0511	0.4982	0.138
Mof_H 	H 	0.1873	0.7515	0.6507	0.606
Mof_H 	H 	0.2744	0.7345	0.6731	0.592
Mof_H 	H 	0.6746	0.5576	0.5341	0.567
Mof_H 	H 	0.6373	0.6095	0.5031	0.681
Mof_H 	H 	0.8176	0.5335	0.561	0.493
Mof_H 	H 	0.9059	0.5564	0.5753	0.678
Mof_H 	H 	0.4903	0.1509	0.2487	0.04
Mof_H 	H 	0.7415	0.8943	0.343	0.1
Mof_H 	H 	0.893	0.9342	0.3295	0.103
Mof_H 	H 	0.0907	0.096	0.3581	0.077
Mof_H 	H 	0.8204	0.2699	0.1994	0.006
Mof_H 	H 	0.7358	0.2306	0.3	0.044
Mof_H 	H 	0.6875	0.1579	0.1437	0.102
Mof_H 	H 	0.7185	0.2257	0.1469	0.058
Mof_H 	H 	0.7843	0.1735	0.1636	0.102
Mof_H 	H 	0.5969	0.2946	0.1965	-0.008
Mof_H 	H 	0.5815	0.2435	0.1508	0.018
Mof_H 	H 	0.5036	0.2634	0.1912	-0.038
Mof_H 	H 	0.6137	0.2696	0.2989	0.158
Mof_H 	H 	0.5913	0.2038	0.3199	0.177
Mof_H 	H 	0.4147	0.323	0.3156	0.077
Mof_H 	H 	0.512	0.3316	0.325	0.184
Mof_H 	H 	0.5766	0.1092	0.1488	0.018
Mof_H 	H 	0.51	0.1633	0.1418	-0.003
Mof_H 	H 	0.4687	0.0461	0.1771	0.1
Mof_H 	H 	0.4014	0.0997	0.1857	0.054
Mof_H 	H 	0.3722	0.015	0.0539	0.144
Mof_H 	H 	0.3963	0.9929	0.1123	0.187
Mof_H 	H 	0.4851	0.0269	0.3359	0.105
Mof_H 	H 	0.4604	0.0833	0.2981	0.095
Mof_H 	H 	0.4645	0.0184	0.2706	0.11
Mof_H 	H 	0.5436	0.9187	0.2811	0.132
Mof_H 	H 	0.5663	0.8766	0.3332	0.097
Mof_H 	H 	0.5065	0.9341	0.3422	0.113
Mof_H 	H 	0.7023	0.986	0.4053	0.137
Mof_H 	H 	0.6517	0.9253	0.4169	0.13
Mof_H 	H 	0.5428	0.0781	0.4492	0.145
Mof_H 	H 	0.6279	0.0753	0.4164	0.15
Mof_H 	H 	0.6798	0.9178	0.2302	-0.131
Mof_H 	H 	0.6784	0.8546	0.2609	-0.307
Mof_H 	H 	0.8382	0.8586	0.2584	0.191
Mof_H 	H 	0.8277	0.9131	0.2159	0.24
Mof_H 	H 	0.8437	0.8162	0.109	0.167
Mof_H 	H 	0.8796	0.8727	0.1356	0.157
Mof_H 	H 	0.9652	0.9935	0.432	0.155
Mof_H 	H 	0.0527	0.0318	0.4368	0.166
Mof_H 	H 	0.9623	0.0639	0.4226	0.164
Mof_H 	H 	0.0704	0.9527	0.3041	0.098
Mof_H 	H 	0.121	0.9629	0.3621	0.041
Mof_H 	H 	0.0306	0.9274	0.3614	0.092
Mof_H 	H 	0.096	0.0293	0.2565	-0.021
Mof_H 	H 	0.1133	0.0993	0.2523	-0.017
Mof_H 	H 	0.2439	0.0345	0.2633	0.172
Mof_H 	H 	0.2155	0.0287	0.3278	0.12
Mof_H 	H 	0.3082	0.156	0.3681	0.058
Mof_H 	H 	0.2758	0.0943	0.3845	0.167
Mof_H 	H 	0.0947	0.2092	0.2664	-0.118
Mof_H 	H 	0.0592	0.242	0.3214	-0.046
Mof_H 	H 	0.1087	0.1796	0.3268	-0.066
Mof_H 	H 	0.9532	0.2852	0.3499	0.127
Mof_H 	H 	0.9007	0.3415	0.3267	0.127
Mof_H 	H 	0.849	0.2851	0.3504	0.137
Mof_H 	H 	0.0246	0.3029	0.2526	-0.004
Mof_H 	H 	0.9498	0.3408	0.223	0.021
Mof_H 	H 	0.9317	0.2615	0.1552	0.076
Mof_H 	H 	0.0125	0.2278	0.1833	0.085
Mof_H 	H 	0.9634	0.3145	0.0802	0.04
Mof_H 	H 	0.7145	0.3309	0.2723	0.149
Mof_H 	H 	0.807	0.3632	0.2674	0.15
Mof_H 	H 	0.6637	0.4259	0.166	0.047
Mof_H 	H 	0.6604	0.4175	0.2294	0.182
Mof_H 	H 	0.0303	0.3828	0.0274	0.067
Mof_H 	H 	0.1021	0.3897	0.0754	0.07
Mof_H 	H 	0.1711	0.3005	0.0411	-0.061
Mof_H 	H 	0.1574	0.3922	0.9573	0.199
Mof_H 	H 	0.2256	0.394	0.008	0.183
Mof_H 	H 	0.2342	0.3443	0.9603	0.192
Mof_H 	H 	0.9993	0.0298	0.0672	0.004
Mof_H 	H 	0.9485	0.113	0.0213	0.016
Mof_H 	H 	0.1017	0.1174	0.022	-0.179
Mof_H 	H 	0.0968	0.1598	0.1366	0.046
Mof_H 	H 	0.2373	0.1544	0.0991	-0.122
Mof_H 	H 	0.2206	0.0878	0.0779	-0.102
Mof_H 	H 	0.9026	0.186	0.0708	0.158
Mof_H 	H 	0.2471	0.1225	0.183	0.166
Mof_H 	H 	0.9496	0.1043	0.1999	-0
Mof_H 	H 	0.6636	0.018	0.1903	0.085
Mof_H 	H 	0.8614	0.9845	0.0411	0.082
Mof_H 	H 	0.5563	0.9661	0.0834	0.159
Mof_H 	H 	0.5975	0.9052	0.1057	0.15
Mof_H 	H 	0.5627	0.9537	0.1494	0.169
Mof_H 	H 	0.7621	0.9199	0.9962	0.154
Mof_H 	H 	0.6875	0.8902	0.0338	0.142
Mof_H 	H 	0.667	0.9489	0.9982	0.145
Mof_H 	H 	0.3127	0.2485	0.1507	0.606
Mof_H 	H 	0.2256	0.2655	0.1731	0.592
Mof_H 	H 	0.8254	0.4424	0.0341	0.567
Mof_H 	H 	0.8627	0.3905	0.0031	0.681
Mof_H 	H 	0.6824	0.4665	0.061	0.493
Mof_H 	H 	0.5941	0.4436	0.0753	0.678
Mof_H 	H 	0.9903	0.3491	0.7513	0.04
Mof_H 	H 	0.2415	0.6057	0.657	0.1
Mof_H 	H 	0.393	0.5658	0.6705	0.103
Mof_H 	H 	0.5907	0.404	0.6419	0.077
Mof_H 	H 	0.3204	0.2301	0.8006	0.006
Mof_H 	H 	0.2358	0.2694	0.7	0.044
Mof_H 	H 	0.1875	0.3421	0.8563	0.102
Mof_H 	H 	0.2185	0.2743	0.8531	0.058
Mof_H 	H 	0.2843	0.3265	0.8364	0.102
Mof_H 	H 	0.0969	0.2054	0.8035	-0.009
Mof_H 	H 	0.0815	0.2565	0.8492	0.018
Mof_H 	H 	0.0036	0.2366	0.8088	-0.038
Mof_H 	H 	0.1137	0.2304	0.7011	0.158
Mof_H 	H 	0.0913	0.2962	0.6801	0.177
Mof_H 	H 	0.9147	0.177	0.6844	0.076
Mof_H 	H 	0.012	0.1684	0.675	0.184
Mof_H 	H 	0.0766	0.3908	0.8512	0.018
Mof_H 	H 	0.01	0.3367	0.8582	-0.003
Mof_H 	H 	0.9687	0.4539	0.8229	0.1
Mof_H 	H 	0.9014	0.4003	0.8143	0.054
Mof_H 	H 	0.8722	0.485	0.9461	0.144
Mof_H 	H 	0.8963	0.5071	0.8877	0.188
Mof_H 	H 	0.9851	0.4731	0.6641	0.105
Mof_H 	H 	0.9604	0.4167	0.7019	0.095
Mof_H 	H 	0.9645	0.4816	0.7294	0.109
Mof_H 	H 	0.0436	0.5813	0.7189	0.132
Mof_H 	H 	0.0663	0.6234	0.6668	0.097
Mof_H 	H 	0.0065	0.5659	0.6578	0.113
Mof_H 	H 	0.2023	0.514	0.5947	0.138
Mof_H 	H 	0.1517	0.5747	0.5831	0.13
Mof_H 	H 	0.0428	0.4219	0.5508	0.144
Mof_H 	H 	0.1279	0.4247	0.5836	0.15
Mof_H 	H 	0.1798	0.5822	0.7698	-0.131
Mof_H 	H 	0.1784	0.6454	0.7391	-0.307
Mof_H 	H 	0.3382	0.6414	0.7416	0.191
Mof_H 	H 	0.3277	0.5869	0.7841	0.24
Mof_H 	H 	0.3437	0.6838	0.891	0.167
Mof_H 	H 	0.3796	0.6273	0.8644	0.157
Mof_H 	H 	0.4652	0.5065	0.568	0.156
Mof_H 	H 	0.5527	0.4682	0.5632	0.166
Mof_H 	H 	0.4623	0.4361	0.5774	0.164
Mof_H 	H 	0.5704	0.5473	0.6959	0.099
Mof_H 	H 	0.621	0.5371	0.6379	0.042
Mof_H 	H 	0.5306	0.5726	0.6386	0.092
Mof_H 	H 	0.596	0.4707	0.7435	-0.021
Mof_H 	H 	0.6133	0.4007	0.7477	-0.017
Mof_H 	H 	0.7439	0.4655	0.7367	0.172
Mof_H 	H 	0.7155	0.4713	0.6722	0.12
Mof_H 	H 	0.8082	0.344	0.6319	0.058
Mof_H 	H 	0.7758	0.4057	0.6155	0.167
Mof_H 	H 	0.5947	0.2908	0.7336	-0.118
Mof_H 	H 	0.5592	0.258	0.6786	-0.046
Mof_H 	H 	0.6087	0.3204	0.6732	-0.066
Mof_H 	H 	0.4532	0.2148	0.6501	0.127
Mof_H 	H 	0.4007	0.1585	0.6733	0.127
Mof_H 	H 	0.349	0.2149	0.6496	0.137
Mof_H 	H 	0.5246	0.1971	0.7474	-0.004
Mof_H 	H 	0.4498	0.1592	0.777	0.021
Mof_H 	H 	0.4317	0.2385	0.8448	0.076
Mof_H 	H 	0.5125	0.2722	0.8167	0.084
Mof_H 	H 	0.4634	0.1855	0.9198	0.041
Mof_H 	H 	0.2145	0.1691	0.7277	0.149
Mof_H 	H 	0.307	0.1368	0.7326	0.15
Mof_H 	H 	0.1637	0.0741	0.834	0.046
Mof_H 	H 	0.1604	0.0825	0.7706	0.181
Mof_H 	H 	0.5303	0.1172	0.9726	0.066
Mof_H 	H 	0.6021	0.1103	0.9246	0.069
Mof_H 	H 	0.6711	0.1995	0.9589	-0.059
Mof_H 	H 	0.6574	0.1078	0.0427	0.197
Mof_H 	H 	0.7256	0.106	0.992	0.18
Mof_H 	H 	0.7342	0.1557	0.0397	0.189
Mof_H 	H 	0.4993	0.4702	0.9328	0.004
Mof_H 	H 	0.4485	0.387	0.9787	0.016
Mof_H 	H 	0.6017	0.3826	0.978	-0.18
Mof_H 	H 	0.5968	0.3402	0.8634	0.046
Mof_H 	H 	0.7373	0.3456	0.9009	-0.122
Mof_H 	H 	0.7206	0.4122	0.9221	-0.103
Mof_H 	H 	0.4026	0.314	0.9292	0.158
Mof_H 	H 	0.7471	0.3775	0.817	0.166
Mof_H 	H 	0.4496	0.3957	0.8001	0
Mof_H 	H 	0.1636	0.482	0.8097	0.087
Mof_H 	H 	0.3614	0.5155	0.9589	0.08
Mof_H 	H 	0.0563	0.5339	0.9166	0.161
Mof_H 	H 	0.0975	0.5948	0.8943	0.152
Mof_H 	H 	0.0627	0.5463	0.8506	0.171
Mof_H 	H 	0.2621	0.5801	0.0038	0.146
Mof_H 	H 	0.1875	0.6098	0.9662	0.136
Mof_H 	H 	0.167	0.5511	0.0018	0.138
Mof_H 	H 	0.8127	0.2515	0.8493	0.606
Mof_H 	H 	0.7256	0.2345	0.8269	0.592
Mof_H 	H 	0.3254	0.0576	0.9659	0.566
Mof_H 	H 	0.3627	0.1095	0.9969	0.68
Mof_H 	H 	0.1824	0.0335	0.939	0.492
Mof_H 	H 	0.0941	0.0564	0.9247	0.678
Mof_H 	H 	0.5097	0.6509	0.2513	0.04
Mof_H 	H 	0.2585	0.3943	0.157	0.1
Mof_H 	H 	0.107	0.4342	0.1705	0.103
Mof_H 	H 	0.9093	0.596	0.1419	0.077
Mof_H 	H 	0.1796	0.7699	0.3006	0.006
Mof_H 	H 	0.2642	0.7306	0.2	0.044
Mof_H 	H 	0.3125	0.6579	0.3563	0.102
Mof_H 	H 	0.2815	0.7257	0.3531	0.058
Mof_H 	H 	0.2157	0.6735	0.3364	0.102
Mof_H 	H 	0.4031	0.7946	0.3035	-0.008
Mof_H 	H 	0.4185	0.7435	0.3492	0.018
Mof_H 	H 	0.4964	0.7634	0.3088	-0.038
Mof_H 	H 	0.3863	0.7696	0.2011	0.158
Mof_H 	H 	0.4087	0.7038	0.1801	0.177
Mof_H 	H 	0.5853	0.823	0.1844	0.077
Mof_H 	H 	0.488	0.8316	0.175	0.184
Mof_H 	H 	0.4234	0.6092	0.3512	0.018
Mof_H 	H 	0.49	0.6633	0.3582	-0.003
Mof_H 	H 	0.5313	0.5461	0.3229	0.1
Mof_H 	H 	0.5986	0.5997	0.3143	0.054
Mof_H 	H 	0.6278	0.515	0.4461	0.144
Mof_H 	H 	0.6037	0.4929	0.3877	0.188
Mof_H 	H 	0.5149	0.5269	0.1641	0.105
Mof_H 	H 	0.5396	0.5833	0.2019	0.095
Mof_H 	H 	0.5355	0.5184	0.2294	0.109
Mof_H 	H 	0.4564	0.4187	0.2189	0.132
Mof_H 	H 	0.4337	0.3766	0.1668	0.097
Mof_H 	H 	0.4935	0.4341	0.1578	0.113
Mof_H 	H 	0.2977	0.486	0.0947	0.138
Mof_H 	H 	0.3483	0.4253	0.0831	0.13
Mof_H 	H 	0.4572	0.5781	0.0508	0.145
Mof_H 	H 	0.3721	0.5753	0.0836	0.15
Mof_H 	H 	0.3202	0.4178	0.2698	-0.131
Mof_H 	H 	0.3216	0.3546	0.2391	-0.307
Mof_H 	H 	0.1618	0.3586	0.2416	0.191
Mof_H 	H 	0.1723	0.4131	0.2841	0.24
Mof_H 	H 	0.1563	0.3162	0.391	0.167
Mof_H 	H 	0.1204	0.3727	0.3644	0.157
Mof_H 	H 	0.0348	0.4935	0.068	0.155
Mof_H 	H 	0.9473	0.5318	0.0632	0.165
Mof_H 	H 	0.0377	0.5639	0.0774	0.164
Mof_H 	H 	0.9296	0.4527	0.1959	0.098
Mof_H 	H 	0.879	0.4629	0.1379	0.041
Mof_H 	H 	0.9694	0.4274	0.1386	0.092
Mof_H 	H 	0.904	0.5293	0.2435	-0.021
Mof_H 	H 	0.8867	0.5993	0.2477	-0.017
Mof_H 	H 	0.7561	0.5345	0.2367	0.172
Mof_H 	H 	0.7845	0.5287	0.1722	0.12
Mof_H 	H 	0.6918	0.656	0.1319	0.057
Mof_H 	H 	0.7242	0.5943	0.1155	0.167
Mof_H 	H 	0.9053	0.7092	0.2336	-0.118
Mof_H 	H 	0.9408	0.742	0.1786	-0.046
Mof_H 	H 	0.8913	0.6796	0.1732	-0.066
Mof_H 	H 	0.0468	0.7852	0.1501	0.127
Mof_H 	H 	0.0993	0.8415	0.1733	0.127
Mof_H 	H 	0.151	0.7851	0.1496	0.137
Mof_H 	H 	0.9754	0.8029	0.2474	-0.005
Mof_H 	H 	0.0502	0.8408	0.277	0.021
Mof_H 	H 	0.0683	0.7615	0.3448	0.076
Mof_H 	H 	0.9875	0.7278	0.3167	0.084
Mof_H 	H 	0.0366	0.8145	0.4198	0.041
Mof_H 	H 	0.2855	0.8309	0.2277	0.149
Mof_H 	H 	0.193	0.8632	0.2326	0.15
Mof_H 	H 	0.3363	0.9259	0.334	0.047
Mof_H 	H 	0.3396	0.9175	0.2706	0.181
Mof_H 	H 	0.9697	0.8828	0.4726	0.066
Mof_H 	H 	0.8979	0.8897	0.4246	0.069
Mof_H 	H 	0.8289	0.8005	0.4589	-0.06
Mof_H 	H 	0.8426	0.8922	0.5427	0.198
Mof_H 	H 	0.7744	0.894	0.492	0.182
Mof_H 	H 	0.7658	0.8443	0.5397	0.191
Mof_H 	H 	0.0007	0.5298	0.4328	0.004
Mof_H 	H 	0.0515	0.613	0.4787	0.016
Mof_H 	H 	0.8983	0.6174	0.478	-0.18
Mof_H 	H 	0.9032	0.6598	0.3634	0.046
Mof_H 	H 	0.7627	0.6544	0.4009	-0.122
Mof_H 	H 	0.7794	0.5878	0.4221	-0.103
Mof_H 	H 	0.0974	0.686	0.4292	0.158
Mof_H 	H 	0.7529	0.6225	0.317	0.166
Mof_H 	H 	0.0504	0.6043	0.3001	0
Mof_H 	H 	0.3364	0.518	0.3097	0.087
Mof_H 	H 	0.1386	0.4845	0.4589	0.08
Mof_H 	H 	0.4437	0.4661	0.4166	0.161
Mof_H 	H 	0.4025	0.4052	0.3943	0.153
Mof_H 	H 	0.4373	0.4537	0.3506	0.172
Mof_H 	H 	0.2379	0.4199	0.5038	0.147
Mof_H 	H 	0.3125	0.3902	0.4662	0.137
Mof_H 	H 	0.333	0.4489	0.5018	0.138
Mof_H 	H 	0.6873	0.7485	0.3493	0.606
Mof_H 	H 	0.7744	0.7655	0.3269	0.592
Mof_H 	H 	0.1746	0.9424	0.4659	0.567
Mof_H 	H 	0.1373	0.8905	0.4969	0.681
Mof_H 	H 	0.3176	0.9665	0.439	0.493
Mof_H 	H 	0.4059	0.9436	0.4247	0.678
Mof_C 	C 	0.7388	0.87667	0.85407	-0.219
Mof_C 	C 	0.8084	0.81	0.7262	0.053
Mof_C 	C 	0.9055	0.78994	0.73162	0.13
Mof_C 	C 	0.9546	0.85085	0.72639	-0.116
Mof_C 	C 	0.8906	0.89125	0.75568	0.053
Mof_C 	C 	0.9144	0.94593	0.78513	0.027
Mof_C 	C 	0.8518	0.98477	0.80274	-0.045
Mof_C 	C 	0.8633	0.04525	0.83353	0.24
Mof_C 	C 	0.7789	0.07689	0.81385	-0.335
Mof_C 	C 	0.7172	0.0248	0.81013	0.18
Mof_C 	C 	0.6308	0.02763	0.82218	-0.252
Mof_C 	C 	0.5746	0.97951	0.82462	0.066
Mof_C 	C 	0.4859	0.98146	0.85317	0.175
Mof_C 	C 	0.4425	0.92522	0.82801	-0.211
Mof_C 	C 	0.5202	0.88822	0.8112	0.108
Mof_C 	C 	0.5168	0.82908	0.79774	-0.123
Mof_C 	C 	0.592	0.79743	0.77797	0.066
Mof_C 	C 	0.5998	0.72952	0.77063	0.024
Mof_C 	C 	0.6897	0.72417	0.74051	0.11
Mof_C 	C 	0.7386	0.77899	0.76249	-0.086
Mof_C 	C 	0.7766	0.81353	0.66439	-0.298
Mof_C 	C 	0.9334	0.74283	0.68862	-0.149
Mof_C 	C 	0.9242	0.76529	0.79204	-0.545
Mof_C 	C 	0.0179	0.74718	0.801	0.789
Mof_C 	C 	0.9759	0.87192	0.665	0.007
Mof_C 	C 	0.0503	0.91498	0.66197	-0.269
Mof_C 	C 	0.0831	0.92344	0.60191	0.303
Mof_C 	C 	0.0094	0.95513	0.79862	-0.338
Mof_C 	C 	0.9439	0.08224	0.82145	-0.441
Mof_C 	C 	0.8532	0.03523	0.89876	-0.412
Mof_C 	C 	0.9247	0.00115	0.92811	0.341
Mof_C 	C 	0.7875	0.10841	0.75602	0.462
Mof_C 	C 	0.7001	0.12395	0.72934	-0.807
Mof_C 	C 	0.7068	0.16652	0.6815	0.795
Mof_C 	C 	0.503	0.97219	0.91709	-0.501
Mof_C 	C 	0.4365	0.03987	0.8444	-0.326
Mof_C 	C 	0.3831	0.93552	0.77757	0.164
Mof_C 	C 	0.2873	0.94539	0.79431	-0.496
Mof_C 	C 	0.2437	0.88674	0.80698	0.719
Mof_C 	C 	0.431	0.79672	0.80362	0.051
Mof_C 	C 	0.5992	0.7019	0.82977	-0.389
Mof_C 	C 	0.5308	0.70017	0.73162	-0.033
Mof_C 	C 	0.5127	0.73255	0.67549	-0.251
Mof_C 	C 	0.4508	0.69758	0.63901	0.26
Mof_C 	C 	0.7337	0.66416	0.74807	-0.459
Mof_C 	C 	0.7616	0.6363	0.69249	0.67
Mof_C 	C 	0.4302	0.6396	0.55243	-0.178
Mof_C 	C 	0.3656	0.67351	0.51662	0.322
Mof_C 	C 	0.3068	0.632	0.48247	-0.599
Mof_C 	C 	0.5084	0.93544	0.59284	0.108
Mof_C 	C 	0.5229	0.8788	0.55815	0.01
Mof_C 	C 	0.428	0.85855	0.55165	0.183
Mof_C 	C 	0.389	0.8726	0.60934	-0.094
Mof_C 	C 	0.2929	0.88333	0.60803	0.224
Mof_C 	C 	0.5929	0.91983	0.68203	0.101
Mof_C 	C 	0.7963	0.98901	0.66072	-0.178
Mof_C 	C 	0.8204	0.02387	0.61418	0.104
Mof_C 	C 	0.7613	0.03404	0.56935	0.074
Mof_C 	C 	0.6787	0.00945	0.57094	-0.16
Mof_C 	C 	0.6565	0.97576	0.61754	0.061
Mof_C 	C 	0.7139	0.96515	0.66275	0.063
Mof_C 	C 	0.9086	0.0522	0.613	-0.482
Mof_C 	C 	0.7886	0.0721	0.52	-0.438
Mof_C 	C 	0.7612	0.12333	0.35407	-0.219
Mof_C 	C 	0.6916	0.19	0.2262	0.053
Mof_C 	C 	0.5945	0.21006	0.23162	0.13
Mof_C 	C 	0.5454	0.14915	0.22639	-0.116
Mof_C 	C 	0.6094	0.10875	0.25568	0.053
Mof_C 	C 	0.5856	0.05407	0.28513	0.026
Mof_C 	C 	0.6482	0.01523	0.30274	-0.044
Mof_C 	C 	0.6367	0.95475	0.33353	0.24
Mof_C 	C 	0.7211	0.92311	0.31385	-0.335
Mof_C 	C 	0.7828	0.9752	0.31013	0.18
Mof_C 	C 	0.8692	0.97237	0.32218	-0.252
Mof_C 	C 	0.9254	0.02049	0.32462	0.066
Mof_C 	C 	0.0141	0.01854	0.35317	0.174
Mof_C 	C 	0.0575	0.07478	0.32801	-0.21
Mof_C 	C 	0.9798	0.11178	0.3112	0.107
Mof_C 	C 	0.9832	0.17092	0.29774	-0.123
Mof_C 	C 	0.908	0.20257	0.27797	0.067
Mof_C 	C 	0.9002	0.27048	0.27063	0.023
Mof_C 	C 	0.8103	0.27583	0.24051	0.11
Mof_C 	C 	0.7614	0.22101	0.26249	-0.086
Mof_C 	C 	0.7234	0.18647	0.16439	-0.298
Mof_C 	C 	0.5666	0.25717	0.18862	-0.15
Mof_C 	C 	0.5758	0.23471	0.29204	-0.545
Mof_C 	C 	0.4821	0.25282	0.301	0.79
Mof_C 	C 	0.5241	0.12808	0.165	0.008
Mof_C 	C 	0.4497	0.08502	0.16197	-0.269
Mof_C 	C 	0.4169	0.07656	0.10191	0.303
Mof_C 	C 	0.4906	0.04487	0.29862	-0.337
Mof_C 	C 	0.5561	0.91776	0.32145	-0.44
Mof_C 	C 	0.6468	0.96477	0.39876	-0.413
Mof_C 	C 	0.5753	0.99885	0.42811	0.341
Mof_C 	C 	0.7125	0.89159	0.25602	0.462
Mof_C 	C 	0.7999	0.87605	0.22934	-0.806
Mof_C 	C 	0.7932	0.83348	0.1815	0.795
Mof_C 	C 	0.997	0.02781	0.41709	-0.502
Mof_C 	C 	0.0635	0.96013	0.3444	-0.325
Mof_C 	C 	0.1169	0.06448	0.27757	0.163
Mof_C 	C 	0.2127	0.05461	0.29431	-0.495
Mof_C 	C 	0.2563	0.11326	0.30698	0.719
Mof_C 	C 	0.069	0.20328	0.30362	0.051
Mof_C 	C 	0.9008	0.2981	0.32977	-0.389
Mof_C 	C 	0.9692	0.29983	0.23162	-0.033
Mof_C 	C 	0.9873	0.26745	0.17549	-0.252
Mof_C 	C 	0.0492	0.30242	0.13901	0.261
Mof_C 	C 	0.7663	0.33584	0.24807	-0.459
Mof_C 	C 	0.7384	0.3637	0.19249	0.67
Mof_C 	C 	0.0698	0.3604	0.05243	-0.18
Mof_C 	C 	0.1344	0.32649	0.01662	0.325
Mof_C 	C 	0.1932	0.368	0.98247	-0.603
Mof_C 	C 	0.9916	0.06456	0.09284	0.108
Mof_C 	C 	0.9771	0.1212	0.05815	0.01
Mof_C 	C 	0.072	0.14145	0.05165	0.183
Mof_C 	C 	0.111	0.1274	0.10934	-0.094
Mof_C 	C 	0.2071	0.11667	0.10803	0.224
Mof_C 	C 	0.9071	0.08017	0.18203	0.101
Mof_C 	C 	0.7037	0.01099	0.16072	-0.172
Mof_C 	C 	0.6796	0.97613	0.11418	0.097
Mof_C 	C 	0.7387	0.96596	0.06935	0.083
Mof_C 	C 	0.8213	0.99055	0.07094	-0.168
Mof_C 	C 	0.8435	0.02424	0.11754	0.066
Mof_C 	C 	0.7861	0.03485	0.16275	0.06
Mof_C 	C 	0.5914	0.9478	0.113	-0.475
Mof_C 	C 	0.7114	0.9279	0.02	-0.458
Mof_C 	C 	0.2612	0.37667	0.64593	-0.219
Mof_C 	C 	0.1916	0.31	0.7738	0.053
Mof_C 	C 	0.0945	0.28994	0.76838	0.13
Mof_C 	C 	0.0454	0.35085	0.77361	-0.117
Mof_C 	C 	0.1094	0.39125	0.74432	0.053
Mof_C 	C 	0.0856	0.44593	0.71487	0.026
Mof_C 	C 	0.1482	0.48477	0.69726	-0.045
Mof_C 	C 	0.1367	0.54525	0.66647	0.241
Mof_C 	C 	0.2211	0.57689	0.68615	-0.336
Mof_C 	C 	0.2828	0.5248	0.68987	0.18
Mof_C 	C 	0.3692	0.52763	0.67782	-0.251
Mof_C 	C 	0.4254	0.47951	0.67538	0.065
Mof_C 	C 	0.5141	0.48146	0.64683	0.176
Mof_C 	C 	0.5575	0.42522	0.67199	-0.211
Mof_C 	C 	0.4798	0.38822	0.6888	0.108
Mof_C 	C 	0.4832	0.32908	0.70226	-0.123
Mof_C 	C 	0.408	0.29743	0.72203	0.067
Mof_C 	C 	0.4002	0.22952	0.72937	0.024
Mof_C 	C 	0.3103	0.22417	0.75949	0.11
Mof_C 	C 	0.2614	0.27899	0.73751	-0.086
Mof_C 	C 	0.2234	0.31353	0.83561	-0.298
Mof_C 	C 	0.0666	0.24283	0.81138	-0.149
Mof_C 	C 	0.0758	0.26529	0.70796	-0.546
Mof_C 	C 	0.9821	0.24718	0.699	0.79
Mof_C 	C 	0.0241	0.37192	0.835	0.007
Mof_C 	C 	0.9497	0.41498	0.83803	-0.268
Mof_C 	C 	0.9169	0.42344	0.89809	0.303
Mof_C 	C 	0.9906	0.45513	0.70138	-0.337
Mof_C 	C 	0.0561	0.58224	0.67855	-0.441
Mof_C 	C 	0.1468	0.53523	0.60124	-0.413
Mof_C 	C 	0.0753	0.50115	0.57189	0.342
Mof_C 	C 	0.2125	0.60841	0.74398	0.462
Mof_C 	C 	0.2999	0.62395	0.77066	-0.807
Mof_C 	C 	0.2932	0.66652	0.8185	0.796
Mof_C 	C 	0.497	0.47219	0.58291	-0.505
Mof_C 	C 	0.5635	0.53987	0.6556	-0.325
Mof_C 	C 	0.6169	0.43552	0.72243	0.164
Mof_C 	C 	0.7127	0.44539	0.70569	-0.495
Mof_C 	C 	0.7563	0.38674	0.69302	0.719
Mof_C 	C 	0.569	0.29672	0.69638	0.051
Mof_C 	C 	0.4008	0.2019	0.67023	-0.389
Mof_C 	C 	0.4692	0.20017	0.76838	-0.033
Mof_C 	C 	0.4873	0.23255	0.82451	-0.251
Mof_C 	C 	0.5492	0.19758	0.86099	0.26
Mof_C 	C 	0.2663	0.16416	0.75193	-0.458
Mof_C 	C 	0.2384	0.1363	0.80751	0.67
Mof_C 	C 	0.5698	0.1396	0.94757	-0.177
Mof_C 	C 	0.6344	0.17351	0.98338	0.319
Mof_C 	C 	0.6932	0.132	0.01753	-0.593
Mof_C 	C 	0.4916	0.43544	0.90716	0.108
Mof_C 	C 	0.4771	0.3788	0.94185	0.01
Mof_C 	C 	0.572	0.35855	0.94835	0.183
Mof_C 	C 	0.611	0.3726	0.89066	-0.094
Mof_C 	C 	0.7071	0.38333	0.89197	0.224
Mof_C 	C 	0.4071	0.41983	0.81797	0.101
Mof_C 	C 	0.2037	0.48901	0.83928	-0.178
Mof_C 	C 	0.1796	0.52387	0.88582	0.105
Mof_C 	C 	0.2387	0.53404	0.93065	0.074
Mof_C 	C 	0.3213	0.50945	0.92906	-0.159
Mof_C 	C 	0.3435	0.47576	0.88246	0.061
Mof_C 	C 	0.2861	0.46515	0.83725	0.063
Mof_C 	C 	0.0914	0.5522	0.887	-0.482
Mof_C 	C 	0.2114	0.5721	0.98	-0.437
Mof_C 	C 	0.2388	0.62333	0.14593	-0.219
Mof_C 	C 	0.3084	0.69	0.2738	0.053
Mof_C 	C 	0.4055	0.71006	0.26838	0.13
Mof_C 	C 	0.4546	0.64915	0.27361	-0.116
Mof_C 	C 	0.3906	0.60875	0.24432	0.053
Mof_C 	C 	0.4144	0.55407	0.21487	0.026
Mof_C 	C 	0.3518	0.51523	0.19726	-0.045
Mof_C 	C 	0.3633	0.45475	0.16647	0.241
Mof_C 	C 	0.2789	0.42311	0.18615	-0.336
Mof_C 	C 	0.2172	0.4752	0.18987	0.18
Mof_C 	C 	0.1308	0.47237	0.17782	-0.251
Mof_C 	C 	0.0746	0.52049	0.17538	0.066
Mof_C 	C 	0.9859	0.51854	0.14683	0.174
Mof_C 	C 	0.9425	0.57478	0.17199	-0.211
Mof_C 	C 	0.0202	0.61178	0.1888	0.108
Mof_C 	C 	0.0168	0.67092	0.20226	-0.122
Mof_C 	C 	0.092	0.70257	0.22203	0.067
Mof_C 	C 	0.0998	0.77048	0.22937	0.023
Mof_C 	C 	0.1897	0.77583	0.25949	0.11
Mof_C 	C 	0.2386	0.72101	0.23751	-0.086
Mof_C 	C 	0.2766	0.68647	0.33561	-0.298
Mof_C 	C 	0.4334	0.75717	0.31138	-0.15
Mof_C 	C 	0.4242	0.73471	0.20796	-0.545
Mof_C 	C 	0.5179	0.75282	0.199	0.789
Mof_C 	C 	0.4759	0.62808	0.335	0.008
Mof_C 	C 	0.5503	0.58502	0.33803	-0.269
Mof_C 	C 	0.5831	0.57656	0.39809	0.304
Mof_C 	C 	0.5094	0.54487	0.20138	-0.337
Mof_C 	C 	0.4439	0.41776	0.17855	-0.441
Mof_C 	C 	0.3532	0.46477	0.10124	-0.413
Mof_C 	C 	0.4247	0.49885	0.07189	0.342
Mof_C 	C 	0.2875	0.39159	0.24398	0.462
Mof_C 	C 	0.2001	0.37605	0.27066	-0.807
Mof_C 	C 	0.2068	0.33348	0.3185	0.796
Mof_C 	C 	0.003	0.52781	0.08291	-0.502
Mof_C 	C 	0.9365	0.46013	0.1556	-0.324
Mof_C 	C 	0.8831	0.56448	0.22243	0.163
Mof_C 	C 	0.7873	0.55461	0.20569	-0.495
Mof_C 	C 	0.7437	0.61326	0.19302	0.719
Mof_C 	C 	0.931	0.70328	0.19638	0.05
Mof_C 	C 	0.0992	0.7981	0.17023	-0.389
Mof_C 	C 	0.0308	0.79983	0.26838	-0.033
Mof_C 	C 	0.0127	0.76745	0.32451	-0.25
Mof_C 	C 	0.9508	0.80242	0.36099	0.26
Mof_C 	C 	0.2337	0.83584	0.25193	-0.458
Mof_C 	C 	0.2616	0.8637	0.30751	0.67
Mof_C 	C 	0.9302	0.8604	0.44757	-0.178
Mof_C 	C 	0.8656	0.82649	0.48338	0.321
Mof_C 	C 	0.8068	0.868	0.51753	-0.598
Mof_C 	C 	0.0084	0.56456	0.40716	0.108
Mof_C 	C 	0.0229	0.6212	0.44185	0.01
Mof_C 	C 	0.928	0.64145	0.44835	0.183
Mof_C 	C 	0.889	0.6274	0.39066	-0.094
Mof_C 	C 	0.7929	0.61667	0.39197	0.224
Mof_C 	C 	0.0929	0.58017	0.31797	0.101
Mof_C 	C 	0.2963	0.51099	0.33928	-0.178
Mof_C 	C 	0.3204	0.47613	0.38582	0.105
Mof_C 	C 	0.2613	0.46596	0.43065	0.074
Mof_C 	C 	0.1787	0.49055	0.42906	-0.159
Mof_C 	C 	0.1565	0.52424	0.38246	0.061
Mof_C 	C 	0.2139	0.53485	0.33725	0.063
Mof_C 	C 	0.4086	0.4478	0.387	-0.482
Mof_C 	C 	0.2886	0.4279	0.48	-0.437
Mof_N 	N 	0.7605	0.861	0.89834	-0.085
Mof_N 	N 	0.81196	0.87106	0.75224	-0.258
Mof_N 	N 	0.7624	0.97561	0.79589	-0.265
Mof_N 	N 	0.59392	0.92491	0.80734	-0.27
Mof_N 	N 	0.66752	0.82283	0.76999	-0.246
Mof_N 	N 	0.032	0.6913	0.8155	-0.497
Mof_N 	N 	0.1076	0.97798	0.58779	-0.357
Mof_N 	N 	0.9172	0.94275	0.93164	-0.356
Mof_N 	N 	0.6553	0.1583	0.637	-0.47
Mof_N 	N 	0.2169	0.87781	0.85899	-0.468
Mof_N 	N 	0.4829	0.67663	0.58982	-0.189
Mof_N 	N 	0.8188	0.59283	0.69642	-0.476
Mof_N 	N 	0.5796	0.94699	0.63158	-0.136
Mof_N 	N 	0.67024	0.9302	0.70359	-0.249
Mof_N 	N 	0.7395	0.139	0.39834	-0.085
Mof_N 	N 	0.68804	0.12894	0.25224	-0.258
Mof_N 	N 	0.7376	0.02439	0.29589	-0.265
Mof_N 	N 	0.90608	0.07509	0.30734	-0.27
Mof_N 	N 	0.83248	0.17717	0.26999	-0.246
Mof_N 	N 	0.468	0.3087	0.3155	-0.497
Mof_N 	N 	0.3924	0.02202	0.08779	-0.356
Mof_N 	N 	0.5828	0.05725	0.43164	-0.357
Mof_N 	N 	0.8447	0.8417	0.137	-0.469
Mof_N 	N 	0.2831	0.12219	0.35899	-0.467
Mof_N 	N 	0.0171	0.32337	0.08982	-0.188
Mof_N 	N 	0.6812	0.40717	0.19642	-0.476
Mof_N 	N 	0.9204	0.05301	0.13158	-0.137
Mof_N 	N 	0.82976	0.0698	0.20359	-0.248
Mof_N 	N 	0.2395	0.361	0.60166	-0.085
Mof_N 	N 	0.18804	0.37106	0.74776	-0.258
Mof_N 	N 	0.2376	0.47561	0.70411	-0.266
Mof_N 	N 	0.40608	0.42491	0.69266	-0.27
Mof_N 	N 	0.33248	0.32283	0.73001	-0.246
Mof_N 	N 	0.968	0.1913	0.6845	-0.497
Mof_N 	N 	0.8924	0.47798	0.91221	-0.358
Mof_N 	N 	0.0828	0.44275	0.56836	-0.357
Mof_N 	N 	0.3447	0.6583	0.863	-0.47
Mof_N 	N 	0.7831	0.37781	0.64101	-0.467
Mof_N 	N 	0.5171	0.17663	0.91018	-0.189
Mof_N 	N 	0.1812	0.09283	0.80358	-0.476
Mof_N 	N 	0.4204	0.44699	0.86842	-0.136
Mof_N 	N 	0.32976	0.4302	0.79641	-0.249
Mof_N 	N 	0.2605	0.639	0.10166	-0.085
Mof_N 	N 	0.31196	0.62894	0.24776	-0.258
Mof_N 	N 	0.2624	0.52439	0.20411	-0.266
Mof_N 	N 	0.09392	0.57509	0.19266	-0.27
Mof_N 	N 	0.16752	0.67717	0.23001	-0.246
Mof_N 	N 	0.532	0.8087	0.1845	-0.497
Mof_N 	N 	0.6076	0.52202	0.41221	-0.358
Mof_N 	N 	0.4172	0.55725	0.06836	-0.357
Mof_N 	N 	0.1553	0.3417	0.363	-0.47
Mof_N 	N 	0.7169	0.62219	0.14101	-0.467
Mof_N 	N 	0.9829	0.82337	0.41018	-0.189
Mof_N 	N 	0.3188	0.90717	0.30358	-0.476
Mof_N 	N 	0.0796	0.55301	0.36842	-0.136
Mof_N 	N 	0.17024	0.5698	0.29641	-0.249
Mof_O 	O 	0.07946	0.77817	0.78798	-1.68
Mof_O 	O 	0.08763	0.8807	0.56825	-0.388
Mof_O 	O 	0.9878	0.0278	0.94928	-0.382
Mof_O 	O 	0.7571	0.21069	0.68396	-1.637
Mof_O 	O 	0.23559	0.84946	0.76875	-1.612
Mof_O 	O 	0.37574	0.68666	0.65452	-0.377
Mof_O 	O 	0.73022	0.65265	0.647	-1.671
Mof_O 	O 	0.42015	0.79693	0.53947	-0.332
Mof_O 	O 	0.41515	0.71017	0.47757	-0.324
Mof_O 	O 	0.31052	0.79447	0.46088	-1.663
Mof_O 	O 	0.47139	0.80433	0.43694	-0.446
Mof_O 	O 	0.4318	0.9274	0.62571	-0.177
Mof_O 	O 	0.57123	0.83831	0.59169	-0.325
Mof_O 	O 	0.26074	0.90588	0.66066	-0.368
Mof_O 	O 	0.2206	0.74835	0.68263	-2.173
Mof_O 	O 	0.66912	0.59801	0.53392	-2.287
Mof_O 	O 	0.8477	0.56455	0.57628	-2.092
Mof_O 	O 	0.42054	0.22183	0.28798	-1.68
Mof_O 	O 	0.41237	0.1193	0.06825	-0.388
Mof_O 	O 	0.5122	0.9722	0.44928	-0.382
Mof_O 	O 	0.7429	0.78931	0.18396	-1.637
Mof_O 	O 	0.26441	0.15054	0.26875	-1.612
Mof_O 	O 	0.12426	0.31334	0.15452	-0.377
Mof_O 	O 	0.76978	0.34735	0.147	-1.671
Mof_O 	O 	0.07985	0.20307	0.03947	-0.332
Mof_O 	O 	0.08485	0.28983	0.97757	-0.326
Mof_O 	O 	0.18948	0.20553	0.96088	-1.663
Mof_O 	O 	0.02861	0.19567	0.93694	-0.446
Mof_O 	O 	0.0682	0.0726	0.12571	-0.177
Mof_O 	O 	0.92877	0.16169	0.09169	-0.325
Mof_O 	O 	0.23926	0.09412	0.16066	-0.368
Mof_O 	O 	0.2794	0.25165	0.18263	-2.173
Mof_O 	O 	0.83088	0.40199	0.03392	-2.287
Mof_O 	O 	0.6523	0.43545	0.07628	-2.092
Mof_O 	O 	0.92054	0.27817	0.71202	-1.68
Mof_O 	O 	0.91237	0.3807	0.93175	-0.388
Mof_O 	O 	0.0122	0.5278	0.55072	-0.382
Mof_O 	O 	0.2429	0.71069	0.81604	-1.637
Mof_O 	O 	0.76441	0.34946	0.73125	-1.612
Mof_O 	O 	0.62426	0.18666	0.84548	-0.377
Mof_O 	O 	0.26978	0.15265	0.853	-1.67
Mof_O 	O 	0.57985	0.29693	0.96053	-0.332
Mof_O 	O 	0.58485	0.21017	0.02243	-0.323
Mof_O 	O 	0.68948	0.29447	0.03912	-1.663
Mof_O 	O 	0.52861	0.30433	0.06306	-0.446
Mof_O 	O 	0.5682	0.4274	0.87429	-0.177
Mof_O 	O 	0.42877	0.33831	0.90831	-0.325
Mof_O 	O 	0.73926	0.40588	0.83934	-0.368
Mof_O 	O 	0.7794	0.24835	0.81737	-2.173
Mof_O 	O 	0.33088	0.09801	0.96608	-2.286
Mof_O 	O 	0.1523	0.06455	0.92372	-2.091
Mof_O 	O 	0.57946	0.72183	0.21202	-1.68
Mof_O 	O 	0.58763	0.6193	0.43175	-0.388
Mof_O 	O 	0.4878	0.4722	0.05072	-0.382
Mof_O 	O 	0.2571	0.28931	0.31604	-1.637
Mof_O 	O 	0.73559	0.65054	0.23125	-1.612
Mof_O 	O 	0.87574	0.81334	0.34548	-0.377
Mof_O 	O 	0.23022	0.84735	0.353	-1.671
Mof_O 	O 	0.92015	0.70307	0.46053	-0.332
Mof_O 	O 	0.91515	0.78983	0.52243	-0.325
Mof_O 	O 	0.81052	0.70553	0.53912	-1.663
Mof_O 	O 	0.97139	0.69567	0.56306	-0.446
Mof_O 	O 	0.9318	0.5726	0.37429	-0.177
Mof_O 	O 	0.07123	0.66169	0.40831	-0.325
Mof_O 	O 	0.76074	0.59412	0.33934	-0.368
Mof_O 	O 	0.7206	0.75165	0.31737	-2.173
Mof_O 	O 	0.16912	0.90199	0.46608	-2.287
Mof_O 	O 	0.3477	0.93545	0.42372	-2.092
Mof_Cl	Cl	0.89088	0.58405	0.82271	-0.439
Mof_Cl	Cl	0.27355	0.96224	0.96941	-0.541
Mof_Cl	Cl	0.60912	0.41595	0.32271	-0.439
Mof_Cl	Cl	0.22645	0.03776	0.46941	-0.543
Mof_Cl	Cl	0.10912	0.08405	0.67729	-0.439
Mof_Cl	Cl	0.72645	0.46224	0.53059	-0.542
Mof_Cl	Cl	0.39088	0.91595	0.17729	-0.439
Mof_Cl	Cl	0.77355	0.53776	0.03059	-0.543
_end
