data_functionalizedCrystal
_audit_creation_method	'EQeq! by Chris Wilmer'
_symmetry_space_group_name_H-M	'P1'
_symmetry_Int_Tables_number	1
_symmetry_cell_setting	triclinic
loop_
_symmetry_equiv_pos_as_xyz
  x,y,z
_cell_length_a	10.07
_cell_length_b	13.107
_cell_length_c	15.216
_cell_angle_alpha	78.42
_cell_angle_beta	76.527
_cell_angle_gamma	68.204
loop_
_atom_site_label
_atom_site_type_symbol
_atom_site_fract_x
_atom_site_fract_y
_atom_site_fract_z
_atom_site_charge
Mof_Ni	Ni	0.01571	0.57777	0.34037	1.087
Mof_Ni	Ni	0.73771	0.80245	0.26034	1.112
Mof_C 	C 	0.248	0.6292	0.2036	0.356
Mof_C 	C 	0.4048	0.5999	0.1612	-0.125
Mof_C 	C 	0.4453	0.6271	0.0692	0.056
Mof_H 	H 	0.3745	0.6627	0.0329	0.03
Mof_C 	C 	0.5902	0.6021	0.0305	-0.126
Mof_H 	H 	0.6158	0.6197	0.968	0.081
Mof_C 	C 	0.5109	0.5465	0.2134	0.058
Mof_H 	H 	0.4849	0.5251	0.2751	0.025
Mof_C 	C 	0.6551	0.5243	0.1755	-0.125
Mof_H 	H 	0.7255	0.4905	0.2124	0.082
Mof_C 	C 	0.697	0.5518	0.08236	0.074
Mof_C 	C 	0.8524	0.5277	0.04055	0.02
Mof_C 	C 	0.9049	0.4807	0.95986	-0.033
Mof_H 	H 	0.8409	0.4673	0.9321	0.056
Mof_C 	C 	0.9503	0.5467	0.08057	-0.076
Mof_C 	C 	0.9065	0.6001	0.16613	0.39
Mof_C 	C 	0.6971	0.6173	0.4077	0.4
Mof_C 	C 	0.5937	0.5594	0.45945	-0.102
Mof_C 	C 	0.63	0.4497	0.44842	-0.027
Mof_H 	H 	0.7192	0.4153	0.4135	0.039
Mof_C 	C 	0.5394	0.3884	0.48709	0.015
Mof_C 	C 	0.5856	0.2724	0.46698	0.066
Mof_C 	C 	0.7297	0.2041	0.4665	-0.122
Mof_H 	H 	0.7943	0.2297	0.4827	0.071
Mof_C 	C 	0.777	0.0992	0.4424	0.054
Mof_H 	H 	0.8733	0.0543	0.4429	0.028
Mof_C 	C 	0.4923	0.2312	0.4444	-0.115
Mof_H 	H 	0.3951	0.2748	0.446	0.07
Mof_C 	C 	0.541	0.1259	0.4195	0.052
Mof_H 	H 	0.4767	0.0995	0.4039	0.028
Mof_C 	C 	0.6848	0.0597	0.4175	-0.121
Mof_C 	C 	0.7418	0.9484	0.3834	0.363
Mof_O 	O 	0.1584	0.71055	0.16631	-0.311
Mof_O 	O 	0.218	0.56941	0.27525	-0.439
Mof_O 	O 	0.8125	0.69541	0.16506	-0.408
Mof_O 	O 	0.9707	0.54418	0.22986	-0.431
Mof_O 	O 	0.8265	0.56983	0.4199	-0.472
Mof_O 	O 	0.6499	0.70293	0.35602	-0.436
Mof_O 	O 	0.8669	0.88792	0.39769	-0.343
Mof_O 	O 	0.6642	0.92624	0.34258	-0.421
Mof_O 	O 	0.93637	0.74297	0.29644	-0.997
Mof_H 	H 	0.0136	0.7445	0.2597	0.399
Mof_H 	H 	0.929	0.7755	0.3413	0.385
Mof_O 	O 	0.8112	0.9161	0.15849	-0.492
Mof_H 	H 	0.7307	0.9053	0.1673	0.129
Mof_H 	H 	0.8282	0.9182	0.2101	0.196
Mof_Ni	Ni	0.98429	0.42223	0.65963	1.087
Mof_Ni	Ni	0.26229	0.19755	0.73966	1.112
Mof_C 	C 	0.752	0.3708	0.7964	0.356
Mof_C 	C 	0.5952	0.4001	0.8388	-0.125
Mof_C 	C 	0.5547	0.3729	0.9308	0.056
Mof_H 	H 	0.6255	0.3373	0.9671	0.03
Mof_C 	C 	0.4098	0.3979	0.9695	-0.126
Mof_H 	H 	0.3842	0.3803	0.032	0.081
Mof_C 	C 	0.4891	0.4535	0.7866	0.058
Mof_H 	H 	0.5151	0.4749	0.7249	0.025
Mof_C 	C 	0.3449	0.4757	0.8245	-0.125
Mof_H 	H 	0.2745	0.5095	0.7876	0.082
Mof_C 	C 	0.303	0.4482	0.91764	0.074
Mof_C 	C 	0.1476	0.4723	0.95945	0.02
Mof_C 	C 	0.0951	0.5193	0.04014	-0.033
Mof_H 	H 	0.1591	0.5327	0.0679	0.056
Mof_C 	C 	0.0497	0.4533	0.91943	-0.076
Mof_C 	C 	0.0935	0.3999	0.83387	0.39
Mof_C 	C 	0.3029	0.3827	0.5923	0.4
Mof_C 	C 	0.4063	0.4406	0.54055	-0.102
Mof_C 	C 	0.37	0.5503	0.55158	-0.027
Mof_H 	H 	0.2808	0.5847	0.5865	0.039
Mof_C 	C 	0.4606	0.6116	0.51291	0.015
Mof_C 	C 	0.4144	0.7276	0.53302	0.066
Mof_C 	C 	0.2703	0.7959	0.5335	-0.122
Mof_H 	H 	0.2057	0.7703	0.5173	0.071
Mof_C 	C 	0.223	0.9008	0.5576	0.054
Mof_H 	H 	0.1267	0.9457	0.5571	0.028
Mof_C 	C 	0.5077	0.7688	0.5556	-0.115
Mof_H 	H 	0.6049	0.7252	0.554	0.07
Mof_C 	C 	0.459	0.8741	0.5805	0.052
Mof_H 	H 	0.5233	0.9005	0.5961	0.028
Mof_C 	C 	0.3152	0.9403	0.5825	-0.121
Mof_C 	C 	0.2582	0.0516	0.6166	0.363
Mof_O 	O 	0.8416	0.28945	0.83369	-0.311
Mof_O 	O 	0.782	0.43059	0.72475	-0.439
Mof_O 	O 	0.1875	0.30459	0.83494	-0.408
Mof_O 	O 	0.0293	0.45582	0.77014	-0.431
Mof_O 	O 	0.1735	0.43017	0.5801	-0.472
Mof_O 	O 	0.3501	0.29707	0.64398	-0.436
Mof_O 	O 	0.1331	0.11208	0.60231	-0.343
Mof_O 	O 	0.3358	0.07376	0.65742	-0.421
Mof_O 	O 	0.06363	0.25703	0.70356	-0.997
Mof_H 	H 	0.9864	0.2555	0.7403	0.399
Mof_H 	H 	0.071	0.2245	0.6587	0.385
Mof_O 	O 	0.1888	0.0839	0.84151	-0.492
Mof_H 	H 	0.2693	0.0947	0.8327	0.129
Mof_H 	H 	0.1718	0.0818	0.7899	0.196
_end
