# CIF file generated by openbabel 3.1.0, see https://openbabel.org
data_I
_chemical_name_common 'FAVZEJ_clean'
_cell_length_a 6.5647
_cell_length_b 6.5647
_cell_length_c 11.347
_cell_angle_alpha 99.8167
_cell_angle_beta 99.8167
_cell_angle_gamma 102.913
_space_group_name_H-M_alt 'P 1'
_space_group_name_Hall 'P 1'
loop_
    _symmetry_equiv_pos_as_xyz
    x,y,z
loop_
    _atom_site_label
    _atom_site_type_symbol
    _atom_site_fract_x
    _atom_site_fract_y
    _atom_site_fract_z
    _atom_site_occupancy
    Ag1      Ag       0.73801    0.01231    0.74605    1.000
    Ag2      Ag       0.01231    0.73801    0.24605    1.000
    H1       H        0.66520    0.68120    0.51870    1.000
    H2       H        0.72630    0.66110    0.39760    1.000
    H3       H        0.18590    0.99910    0.88070    1.000
    H4       H        0.41480    0.05900    0.87230    1.000
    H5       H        0.41470    0.98610    0.37410    1.000
    H6       H        0.58460    0.07140    0.48840    1.000
    H7       H        0.68120    0.66520    0.01870    1.000
    H8       H        0.66110    0.72630    0.89760    1.000
    H9       H        0.99910    0.18590    0.38070    1.000
    H10      H        0.05900    0.41480    0.37230    1.000
    H11      H        0.98610    0.41470    0.87410    1.000
    H12      H        0.07140    0.58460    0.98840    1.000
    C1       C        0.96310    0.80790    0.53130    1.000
    C2       C        0.21740    0.94720    0.70420    1.000
    C3       C        0.30810    0.94790    0.51950    1.000
    C4       C        0.80790    0.96310    0.03130    1.000
    C5       C        0.94720    0.21740    0.20420    1.000
    C6       C        0.94790    0.30810    0.01950    1.000
    N1       N        0.01170    0.87290    0.65230    1.000
    N2       N        0.37620    0.98400    0.64250    1.000
    N3       N        0.10810    0.85270    0.46070    1.000
    N4       N        0.76080    0.70440    0.47600    1.000
    N5       N        0.28150    0.01050    0.83720    1.000
    N6       N        0.45340    0.00920    0.45250    1.000
    N7       N        0.87290    0.01170    0.15230    1.000
    N8       N        0.98400    0.37620    0.14250    1.000
    N9       N        0.85270    0.10810    0.96070    1.000
    N10      N        0.70440    0.76080    0.97600    1.000
    N11      N        0.01050    0.28150    0.33720    1.000
    N12      N        0.00920    0.45340    0.95250    1.000
