# CIF file generated by openbabel 3.1.0, see https://openbabel.org
data_I
_chemical_name_common 'image0'
_cell_length_a 6.8061
_cell_length_b 8.2468
_cell_length_c 9.0956
_cell_angle_alpha 103.824
_cell_angle_beta 94.823
_cell_angle_gamma 102.719
_space_group_name_H-M_alt 'P 1'
_space_group_name_Hall 'P 1'
loop_
    _symmetry_equiv_pos_as_xyz
    x,y,z
loop_
    _atom_site_label
    _atom_site_type_symbol
    _atom_site_fract_x
    _atom_site_fract_y
    _atom_site_fract_z
    _atom_site_occupancy
    O1       O        0.07600    0.79640    0.09370    1.000
    O2       O        0.24440    0.52690    0.13770    1.000
    O3       O        0.79660    0.80680    0.30990    1.000
    O4       O        0.78570    0.95300    0.62400    1.000
    O5       O        0.48450    0.83910    0.30820    1.000
    O6       O        0.88260    0.81990    0.79440    1.000
    C1       C        0.77890    0.82200    0.67500    1.000
    O7       O        0.46020    0.36080    0.08630    1.000
    C2       C        0.61990    0.77070    0.34750    1.000
    C3       C        0.63460    0.65680    0.58410    1.000
    C4       C        0.56420    0.63180    0.42910    1.000
    C5       C        0.43220    0.47500    0.34520    1.000
    C6       C        0.37350    0.44860    0.17550    1.000
    U1       U        0.11287    0.74819    0.27496    1.000
    O8       O        0.92400    0.20360    0.90630    1.000
    O9       O        0.75560    0.47310    0.86230    1.000
    O10      O        0.20340    0.19320    0.69010    1.000
    O11      O        0.21430    0.04700    0.37600    1.000
    O12      O        0.51550    0.16090    0.69180    1.000
    O13      O        0.11740    0.18010    0.20560    1.000
    C7       C        0.22110    0.17800    0.32500    1.000
    O14      O        0.53980    0.63920    0.91370    1.000
    C8       C        0.38010    0.22930    0.65250    1.000
    C9       C        0.36540    0.34320    0.41590    1.000
    C10      C        0.43580    0.36820    0.57090    1.000
    C11      C        0.56780    0.52500    0.65480    1.000
    C12      C        0.62650    0.55140    0.82450    1.000
    U2       U        0.88713    0.25181    0.72504    1.000
    Co1      Co       0.00000    0.00000    0.00000    1.000
