# CIF file generated by openbabel 3.1.0, see https://openbabel.org
data_I
_chemical_name_common 'image0'
_cell_length_a 35.1845
_cell_length_b 14.8561
_cell_length_c 31.0855
_cell_angle_alpha 90
_cell_angle_beta 101.739
_cell_angle_gamma 90
_space_group_name_H-M_alt 'P 1'
_space_group_name_Hall 'P 1'
loop_
    _symmetry_equiv_pos_as_xyz
    x,y,z
loop_
    _atom_site_label
    _atom_site_type_symbol
    _atom_site_fract_x
    _atom_site_fract_y
    _atom_site_fract_z
    _atom_site_occupancy
    Zn1      Zn       0.62600    0.40290    0.31140    1.000
    I1       I        0.64790    0.41580    0.23900    1.000
    I2       I        0.60390    0.26310    0.35230    1.000
    Zn2      Zn       0.32630    0.64000    0.47620    1.000
    I3       I        0.26440    0.72250    0.44810    1.000
    I4       I        0.37644    0.65720    0.55327    1.000
    Zn3      Zn       0.42030    0.87220    0.65610    1.000
    I5       I        0.47880    0.85500    0.62060    1.000
    I6       I        0.38090    0.76210    0.69330    1.000
    Zn4      Zn       0.32730    0.35730    0.97490    1.000
    I7       I        0.27042    0.26080    0.95749    1.000
    I8       I        0.37120    0.33200    0.05060    1.000
    Zn5      Zn       0.41610    0.11410    0.15770    1.000
    I9       I        0.47582    0.14900    0.12021    1.000
    I10      I        0.38422    0.23920    0.19310    1.000
    Zn6      Zn       0.12580    0.08620    0.80790    1.000
    I11      I        0.14390    0.10040    0.74280    1.000
    I12      I        0.10500    0.23820    0.85640    1.000
    N1       N        0.58000    0.48690    0.30880    1.000
    N2       N        0.43100    0.01160    0.20150    1.000
    N3       N        0.36080    0.65550    0.42890    1.000
    N4       N        0.47640    0.72580    0.27810    1.000
    N5       N        0.42470    0.77240    0.31110    1.000
    N6       N        0.46150    0.64300    0.33740    1.000
    N7       N        0.31510    0.50230    0.47370    1.000
    N8       N        0.16730    0.96330    0.35850    1.000
    N9       N        0.38010    0.94030    0.60820    1.000
    N10      N        0.26520    0.18490    0.44130    1.000
    N11      N        0.27860    0.04560    0.47880    1.000
    N12      N        0.31790    0.17240    0.50140    1.000
    N13      N        0.43230    0.97830    0.70130    1.000
    N14      N        0.57900    0.50710    0.80930    1.000
    N15      N        0.36030    0.34030    0.93070    1.000
    N16      N        0.47620    0.27110    0.77750    1.000
    N17      N        0.46090    0.35500    0.83640    1.000
    N18      N        0.42510    0.22330    0.81110    1.000
    N19      N        0.31640    0.49270    0.97270    1.000
    N20      N        0.37760    0.05250    0.10950    1.000
    N21      N        0.16840    0.02760    0.85770    1.000
    N22      N        0.31840    0.82010    0.00120    1.000
    N23      N        0.27950    0.94950    0.97830    1.000
    N24      N        0.26480    0.81030    0.94040    1.000
    C1       C        0.56370    0.49640    0.34290    1.000
    H1       H        0.57230    0.45840    0.36670    1.000
    C2       C        0.53490    0.55790    0.34670    1.000
    H2       H        0.52840    0.57160    0.37350    1.000
    C3       C        0.51590    0.59860    0.30660    1.000
    C4       C        0.53220    0.58660    0.27000    1.000
    H3       H        0.52240    0.61640    0.24380    1.000
    C5       C        0.56310    0.52940    0.27390    1.000
    H4       H        0.57300    0.52010    0.24870    1.000
    C6       C        0.46070    0.96080    0.20280    1.000
    H5       H        0.47770    0.97380    0.18430    1.000
    C7       C        0.46820    0.88740    0.23060    1.000
    H6       H        0.49140    0.85600    0.23310    1.000
    C8       C        0.44220    0.86170    0.25360    1.000
    C9       C        0.41130    0.92110    0.25160    1.000
    H7       H        0.39310    0.90990    0.26890    1.000
    C10      C        0.40690    0.99340    0.22580    1.000
    H8       H        0.38580    0.03140    0.22550    1.000
    C11      C        0.39300    0.60700    0.42740    1.000
    H9       H        0.39770    0.55690    0.44540    1.000
    C12      C        0.41740    0.62400    0.40360    1.000
    H10      H        0.44160    0.59640    0.40890    1.000
    C13      C        0.40760    0.68460    0.36980    1.000
    C14      C        0.37490    0.73410    0.36610    1.000
    H11      H        0.36680    0.77550    0.34370    1.000
    C15      C        0.35380    0.71630    0.40060    1.000
    H12      H        0.33290    0.75390    0.40180    1.000
    C16      C        0.48160    0.65830    0.30710    1.000
    C17      C        0.44770    0.78240    0.28280    1.000
    C18      C        0.43160    0.70180    0.33740    1.000
    C19      C        0.34090    0.44470    0.49570    1.000
    H13      H        0.36400    0.46790    0.51180    1.000
    C20      C        0.33570    0.35450    0.49620    1.000
    H14      H        0.35390    0.31710    0.51340    1.000
    C21      C        0.30150    0.31920    0.46940    1.000
    C22      C        0.27740    0.37590    0.44550    1.000
    H15      H        0.25480    0.35520    0.42720    1.000
    C23      C        0.28630    0.46830    0.44800    1.000
    H16      H        0.26970    0.50710    0.42950    1.000
    C24      C        0.17350    0.04840    0.35410    1.000
    H17      H        0.15750    0.07960    0.33150    1.000
    C25      C        0.20450    0.09760    0.38320    1.000
    H18      H        0.20870    0.15850    0.37910    1.000
    C26      C        0.22650    0.05120    0.41590    1.000
    C27      C        0.21900    0.96130    0.42260    1.000
    H19      H        0.23420    0.92940    0.44550    1.000
    C28      C        0.18790    0.91930    0.39380    1.000
    H20      H        0.18150    0.86020    0.39910    1.000
    C29      C        0.35180    0.90050    0.58280    1.000
    H21      H        0.34770    0.83980    0.58740    1.000
    C30      C        0.32680    0.94430    0.54820    1.000
    H22      H        0.30660    0.91340    0.53020    1.000
    C31      C        0.33300    0.03460    0.54170    1.000
    C32      C        0.36410    0.07430    0.56760    1.000
    H23      H        0.37130    0.13290    0.56230    1.000
    C33      C        0.38440    0.02590    0.60170    1.000
    H24      H        0.40290    0.05650    0.62210    1.000
    C34      C        0.29510    0.21900    0.47140    1.000
    C35      C        0.25980    0.09600    0.44770    1.000
    C36      C        0.30820    0.08690    0.50580    1.000
    C37      C        0.40430    0.00530    0.72510    1.000
    H25      H        0.38160    0.97190    0.72220    1.000
    C38      C        0.40900    0.08100    0.75350    1.000
    H26      H        0.39080    0.09630    0.77010    1.000
    C39      C        0.44240    0.13070    0.75480    1.000
    C40      C        0.47020    0.10910    0.72850    1.000
    H27      H        0.49140    0.14620    0.72790    1.000
    C41      C        0.46410    0.03140    0.70410    1.000
    H28      H        0.48300    0.01420    0.68860    1.000
    C42      C        0.56420    0.46100    0.77120    1.000
    H29      H        0.57510    0.46590    0.74640    1.000
    C43      C        0.53140    0.40550    0.77170    1.000
    H30      H        0.52050    0.37380    0.74640    1.000
    C44      C        0.51550    0.39700    0.80710    1.000
    C45      C        0.53160    0.44310    0.84440    1.000
    H31      H        0.51970    0.44280    0.86850    1.000
    C46      C        0.56490    0.48910    0.84560    1.000
    H32      H        0.57870    0.50930    0.87260    1.000
    C47      C        0.34810    0.28310    0.89450    1.000
    H33      H        0.32400    0.25510    0.89010    1.000
    C48      C        0.37170    0.26990    0.86680    1.000
    H34      H        0.36370    0.22810    0.84460    1.000
    C49      C        0.40680    0.31180    0.86760    1.000
    C50      C        0.41390    0.37860    0.89870    1.000
    H35      H        0.43420    0.41870    0.89880    1.000
    C51      C        0.38970    0.38740    0.93200    1.000
    H36      H        0.39660    0.42930    0.95440    1.000
    C52      C        0.44820    0.21470    0.78240    1.000
    C53      C        0.48290    0.33850    0.80690    1.000
    C54      C        0.43290    0.29790    0.83670    1.000
    C55      C        0.34050    0.54920    0.99780    1.000
    H37      H        0.36240    0.52690    0.01670    1.000
    C56      C        0.33320    0.64310    0.99630    1.000
    H38      H        0.35030    0.68140    0.01440    1.000
    C57      C        0.30240    0.67730    0.96960    1.000
    C58      C        0.27610    0.61750    0.94370    1.000
    H39      H        0.25420    0.63890    0.92430    1.000
    C59      C        0.28380    0.52450    0.94800    1.000
    H40      H        0.26550    0.48410    0.93320    1.000
    C60      C        0.38540    0.96670    0.10270    1.000
    H41      H        0.40730    0.93990    0.11960    1.000
    C61      C        0.36100    0.91640    0.07050    1.000
    H42      H        0.36360    0.85420    0.06980    1.000
    C62      C        0.33280    0.95980    0.03940    1.000
    C63      C        0.32600    0.04810    0.04740    1.000
    H43      H        0.30600    0.07830    0.02880    1.000
    C64      C        0.34820    0.09350    0.08250    1.000
    H44      H        0.34260    0.15340    0.08750    1.000
    C65      C        0.17710    0.94050    0.85220    1.000
    H45      H        0.16360    0.91020    0.82760    1.000
    C66      C        0.20360    0.89690    0.87950    1.000
    H46      H        0.20690    0.83560    0.87540    1.000
    C67      C        0.22750    0.94140    0.91570    1.000
    C68      C        0.21910    0.03220    0.91920    1.000
    H47      H        0.23260    0.06550    0.94280    1.000
    C69      C        0.19210    0.07160    0.88940    1.000
    H48      H        0.18950    0.13380    0.89080    1.000
    C70      C        0.29400    0.77550    0.96800    1.000
    C71      C        0.30900    0.90690    0.00280    1.000
    C72      C        0.25800    0.89700    0.94570    1.000
    Zn7      Zn       0.62700    0.39780    0.31490    1.000
    I13      I        0.64830    0.38600    0.24340    1.000
    I14      I        0.61630    0.25220    0.34000    1.000
    Zn8      Zn       0.33340    0.63510    0.48030    1.000
    I15      I        0.27100    0.73780    0.46040    1.000
    I16      I        0.36590    0.67410    0.54220    1.000
    Zn9      Zn       0.41690    0.87620    0.65820    1.000
    I17      I        0.47430    0.84180    0.62460    1.000
    I18      I        0.38710    0.75220    0.69460    1.000
    Zn10     Zn       0.33020    0.35430    0.98110    1.000
    I19      I        0.25910    0.27250    0.94390    1.000
    I20      I        0.38090    0.33820    0.05320    1.000
    Zn11     Zn       0.42080    0.13200    0.15610    1.000
    I21      I        0.47630    0.14410    0.12860    1.000
    I22      I        0.37400    0.22230    0.19420    1.000
    Zn12     Zn       0.12470    0.10040    0.81720    1.000
    I23      I        0.15060    0.07810    0.73720    1.000
    I24      I        0.11070    0.23140    0.84170    1.000
    Zn13     Zn       0.12600    0.90290    0.31140    1.000
    I25      I        0.14790    0.91580    0.23900    1.000
    I26      I        0.10390    0.76310    0.35230    1.000
    Zn14     Zn       0.82630    0.14000    0.47620    1.000
    I27      I        0.76440    0.22250    0.44810    1.000
    I28      I        0.87644    0.15720    0.55327    1.000
    Zn15     Zn       0.92030    0.37220    0.65610    1.000
    I29      I        0.97880    0.35500    0.62060    1.000
    I30      I        0.88090    0.26210    0.69330    1.000
    Zn16     Zn       0.82730    0.85730    0.97490    1.000
    I31      I        0.77042    0.76080    0.95749    1.000
    I32      I        0.87120    0.83200    0.05060    1.000
    Zn17     Zn       0.91610    0.61410    0.15770    1.000
    I33      I        0.97582    0.64900    0.12021    1.000
    I34      I        0.88422    0.73920    0.19310    1.000
    Zn18     Zn       0.62580    0.58620    0.80790    1.000
    I35      I        0.64390    0.60040    0.74280    1.000
    I36      I        0.60500    0.73820    0.85640    1.000
    N25      N        0.08000    0.98690    0.30880    1.000
    N26      N        0.93100    0.51160    0.20150    1.000
    N27      N        0.86080    0.15550    0.42890    1.000
    N28      N        0.97640    0.22580    0.27810    1.000
    N29      N        0.92470    0.27240    0.31110    1.000
    N30      N        0.96150    0.14300    0.33740    1.000
    N31      N        0.81510    0.00230    0.47370    1.000
    N32      N        0.66730    0.46330    0.35850    1.000
    N33      N        0.88010    0.44030    0.60820    1.000
    N34      N        0.76520    0.68490    0.44130    1.000
    N35      N        0.77860    0.54560    0.47880    1.000
    N36      N        0.81790    0.67240    0.50140    1.000
    N37      N        0.93230    0.47830    0.70130    1.000
    N38      N        0.07900    0.00710    0.80930    1.000
    N39      N        0.86030    0.84030    0.93070    1.000
    N40      N        0.97620    0.77110    0.77750    1.000
    N41      N        0.96090    0.85500    0.83640    1.000
    N42      N        0.92510    0.72330    0.81110    1.000
    N43      N        0.81640    0.99270    0.97270    1.000
    N44      N        0.87760    0.55250    0.10950    1.000
    N45      N        0.66840    0.52760    0.85770    1.000
    N46      N        0.81840    0.32010    0.00120    1.000
    N47      N        0.77950    0.44950    0.97830    1.000
    N48      N        0.76480    0.31030    0.94040    1.000
    C73      C        0.06370    0.99640    0.34290    1.000
    H49      H        0.07230    0.95840    0.36670    1.000
    C74      C        0.03490    0.05790    0.34670    1.000
    H50      H        0.02840    0.07160    0.37350    1.000
    C75      C        0.01590    0.09860    0.30660    1.000
    C76      C        0.03220    0.08660    0.27000    1.000
    H51      H        0.02240    0.11640    0.24380    1.000
    C77      C        0.06310    0.02940    0.27390    1.000
    H52      H        0.07300    0.02010    0.24870    1.000
    C78      C        0.96070    0.46080    0.20280    1.000
    H53      H        0.97770    0.47380    0.18430    1.000
    C79      C        0.96820    0.38740    0.23060    1.000
    H54      H        0.99140    0.35600    0.23310    1.000
    C80      C        0.94220    0.36170    0.25360    1.000
    C81      C        0.91130    0.42110    0.25160    1.000
    H55      H        0.89310    0.40990    0.26890    1.000
    C82      C        0.90690    0.49340    0.22580    1.000
    H56      H        0.88580    0.53140    0.22550    1.000
    C83      C        0.89300    0.10700    0.42740    1.000
    H57      H        0.89770    0.05690    0.44540    1.000
    C84      C        0.91740    0.12400    0.40360    1.000
    H58      H        0.94160    0.09640    0.40890    1.000
    C85      C        0.90760    0.18460    0.36980    1.000
    C86      C        0.87490    0.23410    0.36610    1.000
    H59      H        0.86680    0.27550    0.34370    1.000
    C87      C        0.85380    0.21630    0.40060    1.000
    H60      H        0.83290    0.25390    0.40180    1.000
    C88      C        0.98160    0.15830    0.30710    1.000
    C89      C        0.94770    0.28240    0.28280    1.000
    C90      C        0.93160    0.20180    0.33740    1.000
    C91      C        0.84090    0.94470    0.49570    1.000
    H61      H        0.86400    0.96790    0.51180    1.000
    C92      C        0.83570    0.85450    0.49620    1.000
    H62      H        0.85390    0.81710    0.51340    1.000
    C93      C        0.80150    0.81920    0.46940    1.000
    C94      C        0.77740    0.87590    0.44550    1.000
    H63      H        0.75480    0.85520    0.42720    1.000
    C95      C        0.78630    0.96830    0.44800    1.000
    H64      H        0.76970    0.00710    0.42950    1.000
    C96      C        0.67350    0.54840    0.35410    1.000
    H65      H        0.65750    0.57960    0.33150    1.000
    C97      C        0.70450    0.59760    0.38320    1.000
    H66      H        0.70870    0.65850    0.37910    1.000
    C98      C        0.72650    0.55120    0.41590    1.000
    C99      C        0.71900    0.46130    0.42260    1.000
    H67      H        0.73420    0.42940    0.44550    1.000
    C100     C        0.68790    0.41930    0.39380    1.000
    H68      H        0.68150    0.36020    0.39910    1.000
    C101     C        0.85180    0.40050    0.58280    1.000
    H69      H        0.84770    0.33980    0.58740    1.000
    C102     C        0.82680    0.44430    0.54820    1.000
    H70      H        0.80660    0.41340    0.53020    1.000
    C103     C        0.83300    0.53460    0.54170    1.000
    C104     C        0.86410    0.57430    0.56760    1.000
    H71      H        0.87130    0.63290    0.56230    1.000
    C105     C        0.88440    0.52590    0.60170    1.000
    H72      H        0.90290    0.55650    0.62210    1.000
    C106     C        0.79510    0.71900    0.47140    1.000
    C107     C        0.75980    0.59600    0.44770    1.000
    C108     C        0.80820    0.58690    0.50580    1.000
    C109     C        0.90430    0.50530    0.72510    1.000
    H73      H        0.88160    0.47190    0.72220    1.000
    C110     C        0.90900    0.58100    0.75350    1.000
    H74      H        0.89080    0.59630    0.77010    1.000
    C111     C        0.94240    0.63070    0.75480    1.000
    C112     C        0.97020    0.60910    0.72850    1.000
    H75      H        0.99140    0.64620    0.72790    1.000
    C113     C        0.96410    0.53140    0.70410    1.000
    H76      H        0.98300    0.51420    0.68860    1.000
    C114     C        0.06420    0.96100    0.77120    1.000
    H77      H        0.07510    0.96590    0.74640    1.000
    C115     C        0.03140    0.90550    0.77170    1.000
    H78      H        0.02050    0.87380    0.74640    1.000
    C116     C        0.01550    0.89700    0.80710    1.000
    C117     C        0.03160    0.94310    0.84440    1.000
    H79      H        0.01970    0.94280    0.86850    1.000
    C118     C        0.06490    0.98910    0.84560    1.000
    H80      H        0.07870    0.00930    0.87260    1.000
    C119     C        0.84810    0.78310    0.89450    1.000
    H81      H        0.82400    0.75510    0.89010    1.000
    C120     C        0.87170    0.76990    0.86680    1.000
    H82      H        0.86370    0.72810    0.84460    1.000
    C121     C        0.90680    0.81180    0.86760    1.000
    C122     C        0.91390    0.87860    0.89870    1.000
    H83      H        0.93420    0.91870    0.89880    1.000
    C123     C        0.88970    0.88740    0.93200    1.000
    H84      H        0.89660    0.92930    0.95440    1.000
    C124     C        0.94820    0.71470    0.78240    1.000
    C125     C        0.98290    0.83850    0.80690    1.000
    C126     C        0.93290    0.79790    0.83670    1.000
    C127     C        0.84050    0.04920    0.99780    1.000
    H85      H        0.86240    0.02690    0.01670    1.000
    C128     C        0.83320    0.14310    0.99630    1.000
    H86      H        0.85030    0.18140    0.01440    1.000
    C129     C        0.80240    0.17730    0.96960    1.000
    C130     C        0.77610    0.11750    0.94370    1.000
    H87      H        0.75420    0.13890    0.92430    1.000
    C131     C        0.78380    0.02450    0.94800    1.000
    H88      H        0.76550    0.98410    0.93320    1.000
    C132     C        0.88540    0.46670    0.10270    1.000
    H89      H        0.90730    0.43990    0.11960    1.000
    C133     C        0.86100    0.41640    0.07050    1.000
    H90      H        0.86360    0.35420    0.06980    1.000
    C134     C        0.83280    0.45980    0.03940    1.000
    C135     C        0.82600    0.54810    0.04740    1.000
    H91      H        0.80600    0.57830    0.02880    1.000
    C136     C        0.84820    0.59350    0.08250    1.000
    H92      H        0.84260    0.65340    0.08750    1.000
    C137     C        0.67710    0.44050    0.85220    1.000
    H93      H        0.66360    0.41020    0.82760    1.000
    C138     C        0.70360    0.39690    0.87950    1.000
    H94      H        0.70690    0.33560    0.87540    1.000
    C139     C        0.72750    0.44140    0.91570    1.000
    C140     C        0.71910    0.53220    0.91920    1.000
    H95      H        0.73260    0.56550    0.94280    1.000
    C141     C        0.69210    0.57160    0.88940    1.000
    H96      H        0.68950    0.63380    0.89080    1.000
    C142     C        0.79400    0.27550    0.96800    1.000
    C143     C        0.80900    0.40690    0.00280    1.000
    C144     C        0.75800    0.39700    0.94570    1.000
    Zn19     Zn       0.12700    0.89780    0.31490    1.000
    I37      I        0.14830    0.88600    0.24340    1.000
    I38      I        0.11630    0.75220    0.34000    1.000
    Zn20     Zn       0.83340    0.13510    0.48030    1.000
    I39      I        0.77100    0.23780    0.46040    1.000
    I40      I        0.86590    0.17410    0.54220    1.000
    Zn21     Zn       0.91690    0.37620    0.65820    1.000
    I41      I        0.97430    0.34180    0.62460    1.000
    I42      I        0.88710    0.25220    0.69460    1.000
    Zn22     Zn       0.83020    0.85430    0.98110    1.000
    I43      I        0.75910    0.77250    0.94390    1.000
    I44      I        0.88090    0.83820    0.05320    1.000
    Zn23     Zn       0.92080    0.63200    0.15610    1.000
    I45      I        0.97630    0.64410    0.12860    1.000
    I46      I        0.87400    0.72230    0.19420    1.000
    Zn24     Zn       0.62470    0.60040    0.81720    1.000
    I47      I        0.65060    0.57810    0.73720    1.000
    I48      I        0.61070    0.73140    0.84170    1.000
    Zn25     Zn       0.37400    0.40290    0.68860    1.000
    I49      I        0.35210    0.41580    0.76100    1.000
    I50      I        0.39610    0.26310    0.64770    1.000
    Zn26     Zn       0.67370    0.64000    0.52380    1.000
    I51      I        0.73560    0.72250    0.55190    1.000
    I52      I        0.62356    0.65720    0.44673    1.000
    Zn27     Zn       0.57970    0.87220    0.34390    1.000
    I53      I        0.52120    0.85500    0.37940    1.000
    I54      I        0.61910    0.76210    0.30670    1.000
    Zn28     Zn       0.67270    0.35730    0.02510    1.000
    I55      I        0.72958    0.26080    0.04251    1.000
    I56      I        0.62880    0.33200    0.94940    1.000
    Zn29     Zn       0.58390    0.11410    0.84230    1.000
    I57      I        0.52418    0.14900    0.87979    1.000
    I58      I        0.61578    0.23920    0.80690    1.000
    Zn30     Zn       0.87420    0.08620    0.19210    1.000
    I59      I        0.85610    0.10040    0.25720    1.000
    I60      I        0.89500    0.23820    0.14360    1.000
    N49      N        0.42000    0.48690    0.69120    1.000
    N50      N        0.56900    0.01160    0.79850    1.000
    N51      N        0.63920    0.65550    0.57110    1.000
    N52      N        0.52360    0.72580    0.72190    1.000
    N53      N        0.57530    0.77240    0.68890    1.000
    N54      N        0.53850    0.64300    0.66260    1.000
    N55      N        0.68490    0.50230    0.52630    1.000
    N56      N        0.83270    0.96330    0.64150    1.000
    N57      N        0.61990    0.94030    0.39180    1.000
    N58      N        0.73480    0.18490    0.55870    1.000
    N59      N        0.72140    0.04560    0.52120    1.000
    N60      N        0.68210    0.17240    0.49860    1.000
    N61      N        0.56770    0.97830    0.29870    1.000
    N62      N        0.42100    0.50710    0.19070    1.000
    N63      N        0.63970    0.34030    0.06930    1.000
    N64      N        0.52380    0.27110    0.22250    1.000
    N65      N        0.53910    0.35500    0.16360    1.000
    N66      N        0.57490    0.22330    0.18890    1.000
    N67      N        0.68360    0.49270    0.02730    1.000
    N68      N        0.62240    0.05250    0.89050    1.000
    N69      N        0.83160    0.02760    0.14230    1.000
    N70      N        0.68160    0.82010    0.99880    1.000
    N71      N        0.72050    0.94950    0.02170    1.000
    N72      N        0.73520    0.81030    0.05960    1.000
    C145     C        0.43630    0.49640    0.65710    1.000
    H97      H        0.42770    0.45840    0.63330    1.000
    C146     C        0.46510    0.55790    0.65330    1.000
    H98      H        0.47160    0.57160    0.62650    1.000
    C147     C        0.48410    0.59860    0.69340    1.000
    C148     C        0.46780    0.58660    0.73000    1.000
    H99      H        0.47760    0.61640    0.75620    1.000
    C149     C        0.43690    0.52940    0.72610    1.000
    H100     H        0.42700    0.52010    0.75130    1.000
    C150     C        0.53930    0.96080    0.79720    1.000
    H101     H        0.52230    0.97380    0.81570    1.000
    C151     C        0.53180    0.88740    0.76940    1.000
    H102     H        0.50860    0.85600    0.76690    1.000
    C152     C        0.55780    0.86170    0.74640    1.000
    C153     C        0.58870    0.92110    0.74840    1.000
    H103     H        0.60690    0.90990    0.73110    1.000
    C154     C        0.59310    0.99340    0.77420    1.000
    H104     H        0.61420    0.03140    0.77450    1.000
    C155     C        0.60700    0.60700    0.57260    1.000
    H105     H        0.60230    0.55690    0.55460    1.000
    C156     C        0.58260    0.62400    0.59640    1.000
    H106     H        0.55840    0.59640    0.59110    1.000
    C157     C        0.59240    0.68460    0.63020    1.000
    C158     C        0.62510    0.73410    0.63390    1.000
    H107     H        0.63320    0.77550    0.65630    1.000
    C159     C        0.64620    0.71630    0.59940    1.000
    H108     H        0.66710    0.75390    0.59820    1.000
    C160     C        0.51840    0.65830    0.69290    1.000
    C161     C        0.55230    0.78240    0.71720    1.000
    C162     C        0.56840    0.70180    0.66260    1.000
    C163     C        0.65910    0.44470    0.50430    1.000
    H109     H        0.63600    0.46790    0.48820    1.000
    C164     C        0.66430    0.35450    0.50380    1.000
    H110     H        0.64610    0.31710    0.48660    1.000
    C165     C        0.69850    0.31920    0.53060    1.000
    C166     C        0.72260    0.37590    0.55450    1.000
    H111     H        0.74520    0.35520    0.57280    1.000
    C167     C        0.71370    0.46830    0.55200    1.000
    H112     H        0.73030    0.50710    0.57050    1.000
    C168     C        0.82650    0.04840    0.64590    1.000
    H113     H        0.84250    0.07960    0.66850    1.000
    C169     C        0.79550    0.09760    0.61680    1.000
    H114     H        0.79130    0.15850    0.62090    1.000
    C170     C        0.77350    0.05120    0.58410    1.000
    C171     C        0.78100    0.96130    0.57740    1.000
    H115     H        0.76580    0.92940    0.55450    1.000
    C172     C        0.81210    0.91930    0.60620    1.000
    H116     H        0.81850    0.86020    0.60090    1.000
    C173     C        0.64820    0.90050    0.41720    1.000
    H117     H        0.65230    0.83980    0.41260    1.000
    C174     C        0.67320    0.94430    0.45180    1.000
    H118     H        0.69340    0.91340    0.46980    1.000
    C175     C        0.66700    0.03460    0.45830    1.000
    C176     C        0.63590    0.07430    0.43240    1.000
    H119     H        0.62870    0.13290    0.43770    1.000
    C177     C        0.61560    0.02590    0.39830    1.000
    H120     H        0.59710    0.05650    0.37790    1.000
    C178     C        0.70490    0.21900    0.52860    1.000
    C179     C        0.74020    0.09600    0.55230    1.000
    C180     C        0.69180    0.08690    0.49420    1.000
    C181     C        0.59570    0.00530    0.27490    1.000
    H121     H        0.61840    0.97190    0.27780    1.000
    C182     C        0.59100    0.08100    0.24650    1.000
    H122     H        0.60920    0.09630    0.22990    1.000
    C183     C        0.55760    0.13070    0.24520    1.000
    C184     C        0.52980    0.10910    0.27150    1.000
    H123     H        0.50860    0.14620    0.27210    1.000
    C185     C        0.53590    0.03140    0.29590    1.000
    H124     H        0.51700    0.01420    0.31140    1.000
    C186     C        0.43580    0.46100    0.22880    1.000
    H125     H        0.42490    0.46590    0.25360    1.000
    C187     C        0.46860    0.40550    0.22830    1.000
    H126     H        0.47950    0.37380    0.25360    1.000
    C188     C        0.48450    0.39700    0.19290    1.000
    C189     C        0.46840    0.44310    0.15560    1.000
    H127     H        0.48030    0.44280    0.13150    1.000
    C190     C        0.43510    0.48910    0.15440    1.000
    H128     H        0.42130    0.50930    0.12740    1.000
    C191     C        0.65190    0.28310    0.10550    1.000
    H129     H        0.67600    0.25510    0.10990    1.000
    C192     C        0.62830    0.26990    0.13320    1.000
    H130     H        0.63630    0.22810    0.15540    1.000
    C193     C        0.59320    0.31180    0.13240    1.000
    C194     C        0.58610    0.37860    0.10130    1.000
    H131     H        0.56580    0.41870    0.10120    1.000
    C195     C        0.61030    0.38740    0.06800    1.000
    H132     H        0.60340    0.42930    0.04560    1.000
    C196     C        0.55180    0.21470    0.21760    1.000
    C197     C        0.51710    0.33850    0.19310    1.000
    C198     C        0.56710    0.29790    0.16330    1.000
    C199     C        0.65950    0.54920    0.00220    1.000
    H133     H        0.63760    0.52690    0.98330    1.000
    C200     C        0.66680    0.64310    0.00370    1.000
    H134     H        0.64970    0.68140    0.98560    1.000
    C201     C        0.69760    0.67730    0.03040    1.000
    C202     C        0.72390    0.61750    0.05630    1.000
    H135     H        0.74580    0.63890    0.07570    1.000
    C203     C        0.71620    0.52450    0.05200    1.000
    H136     H        0.73450    0.48410    0.06680    1.000
    C204     C        0.61460    0.96670    0.89730    1.000
    H137     H        0.59270    0.93990    0.88040    1.000
    C205     C        0.63900    0.91640    0.92950    1.000
    H138     H        0.63640    0.85420    0.93020    1.000
    C206     C        0.66720    0.95980    0.96060    1.000
    C207     C        0.67400    0.04810    0.95260    1.000
    H139     H        0.69400    0.07830    0.97120    1.000
    C208     C        0.65180    0.09350    0.91750    1.000
    H140     H        0.65740    0.15340    0.91250    1.000
    C209     C        0.82290    0.94050    0.14780    1.000
    H141     H        0.83640    0.91020    0.17240    1.000
    C210     C        0.79640    0.89690    0.12050    1.000
    H142     H        0.79310    0.83560    0.12460    1.000
    C211     C        0.77250    0.94140    0.08430    1.000
    C212     C        0.78090    0.03220    0.08080    1.000
    H143     H        0.76740    0.06550    0.05720    1.000
    C213     C        0.80790    0.07160    0.11060    1.000
    H144     H        0.81050    0.13380    0.10920    1.000
    C214     C        0.70600    0.77550    0.03200    1.000
    C215     C        0.69100    0.90690    0.99720    1.000
    C216     C        0.74200    0.89700    0.05430    1.000
    Zn31     Zn       0.37300    0.39780    0.68510    1.000
    I61      I        0.35170    0.38600    0.75660    1.000
    I62      I        0.38370    0.25220    0.66000    1.000
    Zn32     Zn       0.66660    0.63510    0.51970    1.000
    I63      I        0.72900    0.73780    0.53960    1.000
    I64      I        0.63410    0.67410    0.45780    1.000
    Zn33     Zn       0.58310    0.87620    0.34180    1.000
    I65      I        0.52570    0.84180    0.37540    1.000
    I66      I        0.61290    0.75220    0.30540    1.000
    Zn34     Zn       0.66980    0.35430    0.01890    1.000
    I67      I        0.74090    0.27250    0.05610    1.000
    I68      I        0.61910    0.33820    0.94680    1.000
    Zn35     Zn       0.57920    0.13200    0.84390    1.000
    I69      I        0.52370    0.14410    0.87140    1.000
    I70      I        0.62600    0.22230    0.80580    1.000
    Zn36     Zn       0.87530    0.10040    0.18280    1.000
    I71      I        0.84940    0.07810    0.26280    1.000
    I72      I        0.88930    0.23140    0.15830    1.000
    Zn37     Zn       0.87400    0.90290    0.68860    1.000
    I73      I        0.85210    0.91580    0.76100    1.000
    I74      I        0.89610    0.76310    0.64770    1.000
    Zn38     Zn       0.17370    0.14000    0.52380    1.000
    I75      I        0.23560    0.22250    0.55190    1.000
    I76      I        0.12356    0.15720    0.44673    1.000
    Zn39     Zn       0.07970    0.37220    0.34390    1.000
    I77      I        0.02120    0.35500    0.37940    1.000
    I78      I        0.11910    0.26210    0.30670    1.000
    Zn40     Zn       0.17270    0.85730    0.02510    1.000
    I79      I        0.22958    0.76080    0.04251    1.000
    I80      I        0.12880    0.83200    0.94940    1.000
    Zn41     Zn       0.08390    0.61410    0.84230    1.000
    I81      I        0.02418    0.64900    0.87979    1.000
    I82      I        0.11578    0.73920    0.80690    1.000
    Zn42     Zn       0.37420    0.58620    0.19210    1.000
    I83      I        0.35610    0.60040    0.25720    1.000
    I84      I        0.39500    0.73820    0.14360    1.000
    N73      N        0.92000    0.98690    0.69120    1.000
    N74      N        0.06900    0.51160    0.79850    1.000
    N75      N        0.13920    0.15550    0.57110    1.000
    N76      N        0.02360    0.22580    0.72190    1.000
    N77      N        0.07530    0.27240    0.68890    1.000
    N78      N        0.03850    0.14300    0.66260    1.000
    N79      N        0.18490    0.00230    0.52630    1.000
    N80      N        0.33270    0.46330    0.64150    1.000
    N81      N        0.11990    0.44030    0.39180    1.000
    N82      N        0.23480    0.68490    0.55870    1.000
    N83      N        0.22140    0.54560    0.52120    1.000
    N84      N        0.18210    0.67240    0.49860    1.000
    N85      N        0.06770    0.47830    0.29870    1.000
    N86      N        0.92100    0.00710    0.19070    1.000
    N87      N        0.13970    0.84030    0.06930    1.000
    N88      N        0.02380    0.77110    0.22250    1.000
    N89      N        0.03910    0.85500    0.16360    1.000
    N90      N        0.07490    0.72330    0.18890    1.000
    N91      N        0.18360    0.99270    0.02730    1.000
    N92      N        0.12240    0.55250    0.89050    1.000
    N93      N        0.33160    0.52760    0.14230    1.000
    N94      N        0.18160    0.32010    0.99880    1.000
    N95      N        0.22050    0.44950    0.02170    1.000
    N96      N        0.23520    0.31030    0.05960    1.000
    C217     C        0.93630    0.99640    0.65710    1.000
    H145     H        0.92770    0.95840    0.63330    1.000
    C218     C        0.96510    0.05790    0.65330    1.000
    H146     H        0.97160    0.07160    0.62650    1.000
    C219     C        0.98410    0.09860    0.69340    1.000
    C220     C        0.96780    0.08660    0.73000    1.000
    H147     H        0.97760    0.11640    0.75620    1.000
    C221     C        0.93690    0.02940    0.72610    1.000
    H148     H        0.92700    0.02010    0.75130    1.000
    C222     C        0.03930    0.46080    0.79720    1.000
    H149     H        0.02230    0.47380    0.81570    1.000
    C223     C        0.03180    0.38740    0.76940    1.000
    H150     H        0.00860    0.35600    0.76690    1.000
    C224     C        0.05780    0.36170    0.74640    1.000
    C225     C        0.08870    0.42110    0.74840    1.000
    H151     H        0.10690    0.40990    0.73110    1.000
    C226     C        0.09310    0.49340    0.77420    1.000
    H152     H        0.11420    0.53140    0.77450    1.000
    C227     C        0.10700    0.10700    0.57260    1.000
    H153     H        0.10230    0.05690    0.55460    1.000
    C228     C        0.08260    0.12400    0.59640    1.000
    H154     H        0.05840    0.09640    0.59110    1.000
    C229     C        0.09240    0.18460    0.63020    1.000
    C230     C        0.12510    0.23410    0.63390    1.000
    H155     H        0.13320    0.27550    0.65630    1.000
    C231     C        0.14620    0.21630    0.59940    1.000
    H156     H        0.16710    0.25390    0.59820    1.000
    C232     C        0.01840    0.15830    0.69290    1.000
    C233     C        0.05230    0.28240    0.71720    1.000
    C234     C        0.06840    0.20180    0.66260    1.000
    C235     C        0.15910    0.94470    0.50430    1.000
    H157     H        0.13600    0.96790    0.48820    1.000
    C236     C        0.16430    0.85450    0.50380    1.000
    H158     H        0.14610    0.81710    0.48660    1.000
    C237     C        0.19850    0.81920    0.53060    1.000
    C238     C        0.22260    0.87590    0.55450    1.000
    H159     H        0.24520    0.85520    0.57280    1.000
    C239     C        0.21370    0.96830    0.55200    1.000
    H160     H        0.23030    0.00710    0.57050    1.000
    C240     C        0.32650    0.54840    0.64590    1.000
    H161     H        0.34250    0.57960    0.66850    1.000
    C241     C        0.29550    0.59760    0.61680    1.000
    H162     H        0.29130    0.65850    0.62090    1.000
    C242     C        0.27350    0.55120    0.58410    1.000
    C243     C        0.28100    0.46130    0.57740    1.000
    H163     H        0.26580    0.42940    0.55450    1.000
    C244     C        0.31210    0.41930    0.60620    1.000
    H164     H        0.31850    0.36020    0.60090    1.000
    C245     C        0.14820    0.40050    0.41720    1.000
    H165     H        0.15230    0.33980    0.41260    1.000
    C246     C        0.17320    0.44430    0.45180    1.000
    H166     H        0.19340    0.41340    0.46980    1.000
    C247     C        0.16700    0.53460    0.45830    1.000
    C248     C        0.13590    0.57430    0.43240    1.000
    H167     H        0.12870    0.63290    0.43770    1.000
    C249     C        0.11560    0.52590    0.39830    1.000
    H168     H        0.09710    0.55650    0.37790    1.000
    C250     C        0.20490    0.71900    0.52860    1.000
    C251     C        0.24020    0.59600    0.55230    1.000
    C252     C        0.19180    0.58690    0.49420    1.000
    C253     C        0.09570    0.50530    0.27490    1.000
    H169     H        0.11840    0.47190    0.27780    1.000
    C254     C        0.09100    0.58100    0.24650    1.000
    H170     H        0.10920    0.59630    0.22990    1.000
    C255     C        0.05760    0.63070    0.24520    1.000
    C256     C        0.02980    0.60910    0.27150    1.000
    H171     H        0.00860    0.64620    0.27210    1.000
    C257     C        0.03590    0.53140    0.29590    1.000
    H172     H        0.01700    0.51420    0.31140    1.000
    C258     C        0.93580    0.96100    0.22880    1.000
    H173     H        0.92490    0.96590    0.25360    1.000
    C259     C        0.96860    0.90550    0.22830    1.000
    H174     H        0.97950    0.87380    0.25360    1.000
    C260     C        0.98450    0.89700    0.19290    1.000
    C261     C        0.96840    0.94310    0.15560    1.000
    H175     H        0.98030    0.94280    0.13150    1.000
    C262     C        0.93510    0.98910    0.15440    1.000
    H176     H        0.92130    0.00930    0.12740    1.000
    C263     C        0.15190    0.78310    0.10550    1.000
    H177     H        0.17600    0.75510    0.10990    1.000
    C264     C        0.12830    0.76990    0.13320    1.000
    H178     H        0.13630    0.72810    0.15540    1.000
    C265     C        0.09320    0.81180    0.13240    1.000
    C266     C        0.08610    0.87860    0.10130    1.000
    H179     H        0.06580    0.91870    0.10120    1.000
    C267     C        0.11030    0.88740    0.06800    1.000
    H180     H        0.10340    0.92930    0.04560    1.000
    C268     C        0.05180    0.71470    0.21760    1.000
    C269     C        0.01710    0.83850    0.19310    1.000
    C270     C        0.06710    0.79790    0.16330    1.000
    C271     C        0.15950    0.04920    0.00220    1.000
    H181     H        0.13760    0.02690    0.98330    1.000
    C272     C        0.16680    0.14310    0.00370    1.000
    H182     H        0.14970    0.18140    0.98560    1.000
    C273     C        0.19760    0.17730    0.03040    1.000
    C274     C        0.22390    0.11750    0.05630    1.000
    H183     H        0.24580    0.13890    0.07570    1.000
    C275     C        0.21620    0.02450    0.05200    1.000
    H184     H        0.23450    0.98410    0.06680    1.000
    C276     C        0.11460    0.46670    0.89730    1.000
    H185     H        0.09270    0.43990    0.88040    1.000
    C277     C        0.13900    0.41640    0.92950    1.000
    H186     H        0.13640    0.35420    0.93020    1.000
    C278     C        0.16720    0.45980    0.96060    1.000
    C279     C        0.17400    0.54810    0.95260    1.000
    H187     H        0.19400    0.57830    0.97120    1.000
    C280     C        0.15180    0.59350    0.91750    1.000
    H188     H        0.15740    0.65340    0.91250    1.000
    C281     C        0.32290    0.44050    0.14780    1.000
    H189     H        0.33640    0.41020    0.17240    1.000
    C282     C        0.29640    0.39690    0.12050    1.000
    H190     H        0.29310    0.33560    0.12460    1.000
    C283     C        0.27250    0.44140    0.08430    1.000
    C284     C        0.28090    0.53220    0.08080    1.000
    H191     H        0.26740    0.56550    0.05720    1.000
    C285     C        0.30790    0.57160    0.11060    1.000
    H192     H        0.31050    0.63380    0.10920    1.000
    C286     C        0.20600    0.27550    0.03200    1.000
    C287     C        0.19100    0.40690    0.99720    1.000
    C288     C        0.24200    0.39700    0.05430    1.000
    Zn43     Zn       0.87300    0.89780    0.68510    1.000
    I85      I        0.85170    0.88600    0.75660    1.000
    I86      I        0.88370    0.75220    0.66000    1.000
    Zn44     Zn       0.16660    0.13510    0.51970    1.000
    I87      I        0.22900    0.23780    0.53960    1.000
    I88      I        0.13410    0.17410    0.45780    1.000
    Zn45     Zn       0.08310    0.37620    0.34180    1.000
    I89      I        0.02570    0.34180    0.37540    1.000
    I90      I        0.11290    0.25220    0.30540    1.000
    Zn46     Zn       0.16980    0.85430    0.01890    1.000
    I91      I        0.24090    0.77250    0.05610    1.000
    I92      I        0.11910    0.83820    0.94680    1.000
    Zn47     Zn       0.07920    0.63200    0.84390    1.000
    I93      I        0.02370    0.64410    0.87140    1.000
    I94      I        0.12600    0.72230    0.80580    1.000
    Zn48     Zn       0.37530    0.60040    0.18280    1.000
    I95      I        0.34940    0.57810    0.26280    1.000
    I96      I        0.38930    0.73140    0.15830    1.000
    C289     C        0.43100    0.20800    0.33300    1.000
    H193     H        0.45350    0.22140    0.35640    1.000
    H194     H        0.43110    0.25100    0.30960    1.000
    C290     C        0.43650    0.11200    0.31530    1.000
    H195     H        0.41750    0.10270    0.28840    1.000
    H196     H        0.46210    0.10690    0.30850    1.000
    C291     C        0.43200    0.03900    0.34800    1.000
    H197     H        0.45520    0.03590    0.37080    1.000
    H198     H        0.42830    0.98150    0.33330    1.000
    C292     C        0.39700    0.05600    0.37000    1.000
    H199     H        0.39710    0.01100    0.39260    1.000
    H200     H        0.37330    0.04980    0.34830    1.000
    C293     C        0.39900    0.15100    0.39100    1.000
    H201     H        0.42320    0.16070    0.41100    1.000
    H202     H        0.37770    0.15860    0.40670    1.000
    C294     C        0.39400    0.21700    0.35100    1.000
    H203     H        0.37140    0.20040    0.32840    1.000
    H204     H        0.39050    0.27830    0.36000    1.000
    C295     C        0.24700    0.72100    0.18400    1.000
    H205     H        0.24110    0.69630    0.15460    1.000
    H206     H        0.23710    0.68100    0.20380    1.000
    C296     C        0.29170    0.73500    0.20000    1.000
    H207     H        0.29730    0.76120    0.22880    1.000
    H208     H        0.30500    0.67730    0.20080    1.000
    C297     C        0.30520    0.79700    0.16700    1.000
    H209     H        0.33320    0.80340    0.17480    1.000
    H210     H        0.29910    0.76940    0.13790    1.000
    C298     C        0.28700    0.89100    0.16400    1.000
    H211     H        0.29620    0.92690    0.14190    1.000
    H212     H        0.29350    0.92130    0.19180    1.000
    C299     C        0.24220    0.87600    0.15000    1.000
    H213     H        0.22870    0.93340    0.14810    1.000
    H214     H        0.23570    0.84690    0.12150    1.000
    C300     C        0.23000    0.81700    0.18500    1.000
    H215     H        0.20190    0.81310    0.17990    1.000
    H216     H        0.23910    0.84320    0.21390    1.000
    Cl1      Cl       0.54370    0.40000    0.64840    1.000
    C301     C        0.50400    0.37200    0.60600    1.000
    H217     H        0.50470    0.30730    0.60210    1.000
    H218     H        0.48060    0.38480    0.61720    1.000
    Cl2      Cl       0.46100    0.48600    0.53560    1.000
    C302     C        0.49800    0.41400    0.56000    1.000
    H219     H        0.49750    0.36430    0.54000    1.000
    H220     H        0.52200    0.44680    0.55960    1.000
    H221     H        0.45630    0.89190    0.47890    1.000
    C303     C        0.39870    0.89500    0.48560    1.000
    H222     H        0.40800    0.93650    0.50980    1.000
    H223     H        0.38840    0.84210    0.49710    1.000
    C304     C        0.36710    0.94200    0.45000    1.000
    H224     H        0.36450    0.91110    0.42190    1.000
    H225     H        0.34210    0.94140    0.45860    1.000
    C305     C        0.38200    0.03900    0.44700    1.000
    H226     H        0.36330    0.07640    0.42800    1.000
    H227     H        0.38900    0.06680    0.47590    1.000
    C306     C        0.41800    0.02100    0.42700    1.000
    H228     H        0.44140    0.03970    0.44790    1.000
    H229     H        0.41650    0.05540    0.40050    1.000
    C307     C        0.42000    0.91900    0.41800    1.000
    H230     H        0.43900    0.90770    0.39990    1.000
    H231     H        0.39480    0.89820    0.40200    1.000
    C308     C        0.46100    0.11500    0.37980    1.000
    H232     H        0.45140    0.16890    0.39170    1.000
    H233     H        0.44940    0.06300    0.39080    1.000
    C309     C        0.50590    0.11100    0.39400    1.000
    H234     H        0.51510    0.04900    0.39420    1.000
    H235     H        0.51480    0.13700    0.42270    1.000
    C310     C        0.51970    0.16700    0.35800    1.000
    H236     H        0.51860    0.13030    0.33180    1.000
    H237     H        0.54640    0.18560    0.36830    1.000
    C311     C        0.49300    0.25100    0.34700    1.000
    H238     H        0.48610    0.27500    0.37280    1.000
    H239     H        0.50630    0.29730    0.33320    1.000
    C312     C        0.45700    0.21700    0.31400    1.000
    H240     H        0.46100    0.21780    0.28400    1.000
    H241     H        0.43440    0.25350    0.31540    1.000
    C313     C        0.45050    0.11700    0.32850    1.000
    H242     H        0.42370    0.09910    0.31810    1.000
    H243     H        0.46700    0.07600    0.31640    1.000
    C314     C        0.26940    0.96400    0.31200    1.000
    H244     H        0.26560    0.02820    0.31620    1.000
    H245     H        0.24490    0.93850    0.29720    1.000
    C315     C        0.28500    0.91700    0.35600    1.000
    H246     H        0.26420    0.91640    0.37300    1.000
    H247     H        0.29120    0.85540    0.35090    1.000
    C316     C        0.32000    0.96500    0.38290    1.000
    H248     H        0.33220    0.92890    0.40800    1.000
    H249     H        0.31310    0.02290    0.39350    1.000
    C317     C        0.34900    0.97800    0.35200    1.000
    H250     H        0.37000    0.01690    0.36620    1.000
    H251     H        0.36020    0.92040    0.34710    1.000
    C318     C        0.33200    0.01900    0.30600    1.000
    H252     H        0.35170    0.02830    0.28940    1.000
    H253     H        0.31950    0.07690    0.30950    1.000
    C319     C        0.30100    0.95000    0.28300    1.000
    H254     H        0.31120    0.88880    0.28600    1.000
    H255     H        0.29140    0.96410    0.25270    1.000
    C320     C        0.26300    0.82600    0.19300    1.000
    H256     H        0.27020    0.78320    0.17240    1.000
    H257     H        0.25100    0.79370    0.21350    1.000
    C321     C        0.23480    0.89600    0.16800    1.000
    H258     H        0.21260    0.90150    0.18190    1.000
    H259     H        0.22560    0.87590    0.13800    1.000
    C322     C        0.25450    0.99000    0.16800    1.000
    H260     H        0.23780    0.02790    0.14650    1.000
    H261     H        0.25680    0.01700    0.19630    1.000
    C323     C        0.29460    0.98600    0.15610    1.000
    H262     H        0.29200    0.97930    0.12460    1.000
    H263     H        0.30830    0.04230    0.16470    1.000
    C324     C        0.31780    0.90800    0.18000    1.000
    H264     H        0.34440    0.92720    0.19040    1.000
    H265     H        0.31800    0.85930    0.15900    1.000
    C325     C        0.30100    0.87400    0.21800    1.000
    H266     H        0.29440    0.92360    0.23620    1.000
    H267     H        0.31790    0.83260    0.23680    1.000
    C326     C        0.42700    0.38900    0.51200    1.000
    H268     H        0.43790    0.44880    0.51300    1.000
    H269     H        0.39940    0.39560    0.51250    1.000
    C327     C        0.44600    0.33800    0.55200    1.000
    H270     H        0.43150    0.34550    0.57520    1.000
    H271     H        0.47200    0.36270    0.56310    1.000
    C328     C        0.45000    0.23700    0.54400    1.000
    H272     H        0.47470    0.22550    0.53500    1.000
    H273     H        0.45060    0.20360    0.57100    1.000
    C329     C        0.41700    0.20400    0.50800    1.000
    H274     H        0.39230    0.21760    0.51680    1.000
    H275     H        0.41840    0.13880    0.50560    1.000
    C330     C        0.41700    0.24700    0.46400    1.000
    H276     H        0.39150    0.24320    0.44540    1.000
    H277     H        0.43490    0.21390    0.44950    1.000
    C331     C        0.43000    0.34600    0.46800    1.000
    H278     H        0.45640    0.35050    0.46400    1.000
    H279     H        0.41370    0.38000    0.44410    1.000
    C332     C        0.52000    0.72600    0.49400    1.000
    H280     H        0.54500    0.69780    0.49820    1.000
    H281     H        0.50990    0.73310    0.46270    1.000
    C333     C        0.49200    0.66500    0.51300    1.000
    H282     H        0.50500    0.64130    0.54160    1.000
    H283     H        0.48310    0.61560    0.49380    1.000
    C334     C        0.45800    0.72600    0.51900    1.000
    H284     H        0.43390    0.69080    0.51400    1.000
    H285     H        0.46210    0.74980    0.54850    1.000
    C335     C        0.45300    0.80400    0.48600    1.000
    H286     H        0.45500    0.78190    0.45680    1.000
    H287     H        0.42800    0.83260    0.48340    1.000
    C336     C        0.48600    0.87300    0.50100    1.000
    H288     H        0.48000    0.90790    0.52600    1.000
    H289     H        0.48780    0.91470    0.47790    1.000
    C337     C        0.52400    0.81900    0.51600    1.000
    H290     H        0.54510    0.85150    0.50770    1.000
    H291     H        0.52950    0.81220    0.54770    1.000
    C338     C        0.43150    0.87100    0.46300    1.000
    H292     H        0.43280    0.80600    0.45870    1.000
    C339     C        0.56900    0.20800    0.66700    1.000
    H293     H        0.54650    0.22140    0.64360    1.000
    H294     H        0.56890    0.25100    0.69040    1.000
    C340     C        0.56350    0.11200    0.68470    1.000
    H295     H        0.58250    0.10270    0.71160    1.000
    H296     H        0.53790    0.10690    0.69150    1.000
    C341     C        0.56800    0.03900    0.65200    1.000
    H297     H        0.54480    0.03590    0.62920    1.000
    H298     H        0.57170    0.98150    0.66670    1.000
    C342     C        0.60300    0.05600    0.63000    1.000
    H299     H        0.60290    0.01100    0.60740    1.000
    H300     H        0.62670    0.04980    0.65170    1.000
    C343     C        0.60100    0.15100    0.60900    1.000
    H301     H        0.57680    0.16070    0.58900    1.000
    H302     H        0.62230    0.15860    0.59330    1.000
    C344     C        0.60600    0.21700    0.64900    1.000
    H303     H        0.62860    0.20040    0.67160    1.000
    H304     H        0.60950    0.27830    0.64000    1.000
    C345     C        0.75300    0.72100    0.81600    1.000
    H305     H        0.75890    0.69630    0.84540    1.000
    H306     H        0.76290    0.68100    0.79620    1.000
    C346     C        0.70830    0.73500    0.80000    1.000
    H307     H        0.70270    0.76120    0.77120    1.000
    H308     H        0.69500    0.67730    0.79920    1.000
    C347     C        0.69480    0.79700    0.83300    1.000
    H309     H        0.66680    0.80340    0.82520    1.000
    H310     H        0.70090    0.76940    0.86210    1.000
    C348     C        0.71300    0.89100    0.83600    1.000
    H311     H        0.70380    0.92690    0.85810    1.000
    H312     H        0.70650    0.92130    0.80820    1.000
    C349     C        0.75780    0.87600    0.85000    1.000
    H313     H        0.77130    0.93340    0.85190    1.000
    H314     H        0.76430    0.84690    0.87850    1.000
    C350     C        0.77000    0.81700    0.81500    1.000
    H315     H        0.79810    0.81310    0.82010    1.000
    H316     H        0.76090    0.84320    0.78610    1.000
    Cl3      Cl       0.45630    0.40000    0.35160    1.000
    C351     C        0.49600    0.37200    0.39400    1.000
    H317     H        0.49530    0.30730    0.39790    1.000
    H318     H        0.51940    0.38480    0.38280    1.000
    Cl4      Cl       0.53900    0.48600    0.46440    1.000
    C352     C        0.50200    0.41400    0.44000    1.000
    H319     H        0.50250    0.36430    0.46000    1.000
    H320     H        0.47800    0.44680    0.44040    1.000
    H321     H        0.54370    0.89190    0.52110    1.000
    C353     C        0.60130    0.89500    0.51440    1.000
    H322     H        0.59200    0.93650    0.49020    1.000
    H323     H        0.61160    0.84210    0.50290    1.000
    C354     C        0.63290    0.94200    0.55000    1.000
    H324     H        0.63550    0.91110    0.57810    1.000
    H325     H        0.65790    0.94140    0.54140    1.000
    C355     C        0.61800    0.03900    0.55300    1.000
    H326     H        0.63670    0.07640    0.57200    1.000
    H327     H        0.61100    0.06680    0.52410    1.000
    C356     C        0.58200    0.02100    0.57300    1.000
    H328     H        0.55860    0.03970    0.55210    1.000
    H329     H        0.58350    0.05540    0.59950    1.000
    C357     C        0.58000    0.91900    0.58200    1.000
    H330     H        0.56100    0.90770    0.60010    1.000
    H331     H        0.60520    0.89820    0.59800    1.000
    C358     C        0.53900    0.11500    0.62020    1.000
    H332     H        0.54860    0.16890    0.60830    1.000
    H333     H        0.55060    0.06300    0.60920    1.000
    C359     C        0.49410    0.11100    0.60600    1.000
    H334     H        0.48490    0.04900    0.60580    1.000
    H335     H        0.48520    0.13700    0.57730    1.000
    C360     C        0.48030    0.16700    0.64200    1.000
    H336     H        0.48140    0.13030    0.66820    1.000
    H337     H        0.45360    0.18560    0.63170    1.000
    C361     C        0.50700    0.25100    0.65300    1.000
    H338     H        0.51390    0.27500    0.62720    1.000
    H339     H        0.49370    0.29730    0.66680    1.000
    C362     C        0.54300    0.21700    0.68600    1.000
    H340     H        0.53900    0.21780    0.71600    1.000
    H341     H        0.56560    0.25350    0.68460    1.000
    C363     C        0.54950    0.11700    0.67150    1.000
    H342     H        0.57630    0.09910    0.68190    1.000
    H343     H        0.53300    0.07600    0.68360    1.000
    C364     C        0.73060    0.96400    0.68800    1.000
    H344     H        0.73440    0.02820    0.68380    1.000
    H345     H        0.75510    0.93850    0.70280    1.000
    C365     C        0.71500    0.91700    0.64400    1.000
    H346     H        0.73580    0.91640    0.62700    1.000
    H347     H        0.70880    0.85540    0.64910    1.000
    C366     C        0.68000    0.96500    0.61710    1.000
    H348     H        0.66780    0.92890    0.59200    1.000
    H349     H        0.68690    0.02290    0.60650    1.000
    C367     C        0.65100    0.97800    0.64800    1.000
    H350     H        0.63000    0.01690    0.63380    1.000
    H351     H        0.63980    0.92040    0.65290    1.000
    C368     C        0.66800    0.01900    0.69400    1.000
    H352     H        0.64830    0.02830    0.71060    1.000
    H353     H        0.68050    0.07690    0.69050    1.000
    C369     C        0.69900    0.95000    0.71700    1.000
    H354     H        0.68880    0.88880    0.71400    1.000
    H355     H        0.70860    0.96410    0.74730    1.000
    C370     C        0.73700    0.82600    0.80700    1.000
    H356     H        0.72980    0.78320    0.82760    1.000
    H357     H        0.74900    0.79370    0.78650    1.000
    C371     C        0.76520    0.89600    0.83200    1.000
    H358     H        0.78740    0.90150    0.81810    1.000
    H359     H        0.77440    0.87590    0.86200    1.000
    C372     C        0.74550    0.99000    0.83200    1.000
    H360     H        0.76220    0.02790    0.85350    1.000
    H361     H        0.74320    0.01700    0.80370    1.000
    C373     C        0.70540    0.98600    0.84390    1.000
    H362     H        0.70800    0.97930    0.87540    1.000
    H363     H        0.69170    0.04230    0.83530    1.000
    C374     C        0.68220    0.90800    0.82000    1.000
    H364     H        0.65560    0.92720    0.80960    1.000
    H365     H        0.68200    0.85930    0.84100    1.000
    C375     C        0.69900    0.87400    0.78200    1.000
    H366     H        0.70560    0.92360    0.76380    1.000
    H367     H        0.68210    0.83260    0.76320    1.000
    C376     C        0.57300    0.38900    0.48800    1.000
    H368     H        0.56210    0.44880    0.48700    1.000
    H369     H        0.60060    0.39560    0.48750    1.000
    C377     C        0.55400    0.33800    0.44800    1.000
    H370     H        0.56850    0.34550    0.42480    1.000
    H371     H        0.52800    0.36270    0.43690    1.000
    C378     C        0.55000    0.23700    0.45600    1.000
    H372     H        0.52530    0.22550    0.46500    1.000
    H373     H        0.54940    0.20360    0.42900    1.000
    C379     C        0.58300    0.20400    0.49200    1.000
    H374     H        0.60770    0.21760    0.48320    1.000
    H375     H        0.58160    0.13880    0.49440    1.000
    C380     C        0.58300    0.24700    0.53600    1.000
    H376     H        0.60850    0.24320    0.55460    1.000
    H377     H        0.56510    0.21390    0.55050    1.000
    C381     C        0.57000    0.34600    0.53200    1.000
    H378     H        0.54360    0.35050    0.53600    1.000
    H379     H        0.58630    0.38000    0.55590    1.000
    C382     C        0.48000    0.72600    0.50600    1.000
    H380     H        0.45500    0.69780    0.50180    1.000
    H381     H        0.49010    0.73310    0.53730    1.000
    C383     C        0.50800    0.66500    0.48700    1.000
    H382     H        0.49500    0.64130    0.45840    1.000
    H383     H        0.51690    0.61560    0.50620    1.000
    C384     C        0.54200    0.72600    0.48100    1.000
    H384     H        0.56610    0.69080    0.48600    1.000
    H385     H        0.53790    0.74980    0.45150    1.000
    C385     C        0.54700    0.80400    0.51400    1.000
    H386     H        0.54500    0.78190    0.54320    1.000
    H387     H        0.57200    0.83260    0.51660    1.000
    C386     C        0.51400    0.87300    0.49900    1.000
    H388     H        0.52000    0.90790    0.47400    1.000
    H389     H        0.51220    0.91470    0.52210    1.000
    C387     C        0.47600    0.81900    0.48400    1.000
    H390     H        0.45490    0.85150    0.49230    1.000
    H391     H        0.47050    0.81220    0.45230    1.000
    C388     C        0.56850    0.87100    0.53700    1.000
    H392     H        0.56720    0.80600    0.54130    1.000
    C389     C        0.93100    0.70800    0.33300    1.000
    H393     H        0.95350    0.72140    0.35640    1.000
    H394     H        0.93110    0.75100    0.30960    1.000
    C390     C        0.93650    0.61200    0.31530    1.000
    H395     H        0.91750    0.60270    0.28840    1.000
    H396     H        0.96210    0.60690    0.30850    1.000
    C391     C        0.93200    0.53900    0.34800    1.000
    H397     H        0.95520    0.53590    0.37080    1.000
    H398     H        0.92830    0.48150    0.33330    1.000
    C392     C        0.89700    0.55600    0.37000    1.000
    H399     H        0.89710    0.51100    0.39260    1.000
    H400     H        0.87330    0.54980    0.34830    1.000
    C393     C        0.89900    0.65100    0.39100    1.000
    H401     H        0.92320    0.66070    0.41100    1.000
    H402     H        0.87770    0.65860    0.40670    1.000
    C394     C        0.89400    0.71700    0.35100    1.000
    H403     H        0.87140    0.70040    0.32840    1.000
    H404     H        0.89050    0.77830    0.36000    1.000
    C395     C        0.74700    0.22100    0.18400    1.000
    H405     H        0.74110    0.19630    0.15460    1.000
    H406     H        0.73710    0.18100    0.20380    1.000
    C396     C        0.79170    0.23500    0.20000    1.000
    H407     H        0.79730    0.26120    0.22880    1.000
    H408     H        0.80500    0.17730    0.20080    1.000
    C397     C        0.80520    0.29700    0.16700    1.000
    H409     H        0.83320    0.30340    0.17480    1.000
    H410     H        0.79910    0.26940    0.13790    1.000
    C398     C        0.78700    0.39100    0.16400    1.000
    H411     H        0.79620    0.42690    0.14190    1.000
    H412     H        0.79350    0.42130    0.19180    1.000
    C399     C        0.74220    0.37600    0.15000    1.000
    H413     H        0.72870    0.43340    0.14810    1.000
    H414     H        0.73570    0.34690    0.12150    1.000
    C400     C        0.73000    0.31700    0.18500    1.000
    H415     H        0.70190    0.31310    0.17990    1.000
    H416     H        0.73910    0.34320    0.21390    1.000
    Cl5      Cl       0.04370    0.90000    0.64840    1.000
    C401     C        0.00400    0.87200    0.60600    1.000
    H417     H        0.00470    0.80730    0.60210    1.000
    H418     H        0.98060    0.88480    0.61720    1.000
    Cl6      Cl       0.96100    0.98600    0.53560    1.000
    C402     C        0.99800    0.91400    0.56000    1.000
    H419     H        0.99750    0.86430    0.54000    1.000
    H420     H        0.02200    0.94680    0.55960    1.000
    H421     H        0.95630    0.39190    0.47890    1.000
    C403     C        0.89870    0.39500    0.48560    1.000
    H422     H        0.90800    0.43650    0.50980    1.000
    H423     H        0.88840    0.34210    0.49710    1.000
    C404     C        0.86710    0.44200    0.45000    1.000
    H424     H        0.86450    0.41110    0.42190    1.000
    H425     H        0.84210    0.44140    0.45860    1.000
    C405     C        0.88200    0.53900    0.44700    1.000
    H426     H        0.86330    0.57640    0.42800    1.000
    H427     H        0.88900    0.56680    0.47590    1.000
    C406     C        0.91800    0.52100    0.42700    1.000
    H428     H        0.94140    0.53970    0.44790    1.000
    H429     H        0.91650    0.55540    0.40050    1.000
    C407     C        0.92000    0.41900    0.41800    1.000
    H430     H        0.93900    0.40770    0.39990    1.000
    H431     H        0.89480    0.39820    0.40200    1.000
    C408     C        0.96100    0.61500    0.37980    1.000
    H432     H        0.95140    0.66890    0.39170    1.000
    H433     H        0.94940    0.56300    0.39080    1.000
    C409     C        0.00590    0.61100    0.39400    1.000
    H434     H        0.01510    0.54900    0.39420    1.000
    H435     H        0.01480    0.63700    0.42270    1.000
    C410     C        0.01970    0.66700    0.35800    1.000
    H436     H        0.01860    0.63030    0.33180    1.000
    H437     H        0.04640    0.68560    0.36830    1.000
    C411     C        0.99300    0.75100    0.34700    1.000
    H438     H        0.98610    0.77500    0.37280    1.000
    H439     H        0.00630    0.79730    0.33320    1.000
    C412     C        0.95700    0.71700    0.31400    1.000
    H440     H        0.96100    0.71780    0.28400    1.000
    H441     H        0.93440    0.75350    0.31540    1.000
    C413     C        0.95050    0.61700    0.32850    1.000
    H442     H        0.92370    0.59910    0.31810    1.000
    H443     H        0.96700    0.57600    0.31640    1.000
    C414     C        0.76940    0.46400    0.31200    1.000
    H444     H        0.76560    0.52820    0.31620    1.000
    H445     H        0.74490    0.43850    0.29720    1.000
    C415     C        0.78500    0.41700    0.35600    1.000
    H446     H        0.76420    0.41640    0.37300    1.000
    H447     H        0.79120    0.35540    0.35090    1.000
    C416     C        0.82000    0.46500    0.38290    1.000
    H448     H        0.83220    0.42890    0.40800    1.000
    H449     H        0.81310    0.52290    0.39350    1.000
    C417     C        0.84900    0.47800    0.35200    1.000
    H450     H        0.87000    0.51690    0.36620    1.000
    H451     H        0.86020    0.42040    0.34710    1.000
    C418     C        0.83200    0.51900    0.30600    1.000
    H452     H        0.85170    0.52830    0.28940    1.000
    H453     H        0.81950    0.57690    0.30950    1.000
    C419     C        0.80100    0.45000    0.28300    1.000
    H454     H        0.81120    0.38880    0.28600    1.000
    H455     H        0.79140    0.46410    0.25270    1.000
    C420     C        0.76300    0.32600    0.19300    1.000
    H456     H        0.77020    0.28320    0.17240    1.000
    H457     H        0.75100    0.29370    0.21350    1.000
    C421     C        0.73480    0.39600    0.16800    1.000
    H458     H        0.71260    0.40150    0.18190    1.000
    H459     H        0.72560    0.37590    0.13800    1.000
    C422     C        0.75450    0.49000    0.16800    1.000
    H460     H        0.73780    0.52790    0.14650    1.000
    H461     H        0.75680    0.51700    0.19630    1.000
    C423     C        0.79460    0.48600    0.15610    1.000
    H462     H        0.79200    0.47930    0.12460    1.000
    H463     H        0.80830    0.54230    0.16470    1.000
    C424     C        0.81780    0.40800    0.18000    1.000
    H464     H        0.84440    0.42720    0.19040    1.000
    H465     H        0.81800    0.35930    0.15900    1.000
    C425     C        0.80100    0.37400    0.21800    1.000
    H466     H        0.79440    0.42360    0.23620    1.000
    H467     H        0.81790    0.33260    0.23680    1.000
    C426     C        0.92700    0.88900    0.51200    1.000
    H468     H        0.93790    0.94880    0.51300    1.000
    H469     H        0.89940    0.89560    0.51250    1.000
    C427     C        0.94600    0.83800    0.55200    1.000
    H470     H        0.93150    0.84550    0.57520    1.000
    H471     H        0.97200    0.86270    0.56310    1.000
    C428     C        0.95000    0.73700    0.54400    1.000
    H472     H        0.97470    0.72550    0.53500    1.000
    H473     H        0.95060    0.70360    0.57100    1.000
    C429     C        0.91700    0.70400    0.50800    1.000
    H474     H        0.89230    0.71760    0.51680    1.000
    H475     H        0.91840    0.63880    0.50560    1.000
    C430     C        0.91700    0.74700    0.46400    1.000
    H476     H        0.89150    0.74320    0.44540    1.000
    H477     H        0.93490    0.71390    0.44950    1.000
    C431     C        0.93000    0.84600    0.46800    1.000
    H478     H        0.95640    0.85050    0.46400    1.000
    H479     H        0.91370    0.88000    0.44410    1.000
    C432     C        0.02000    0.22600    0.49400    1.000
    H480     H        0.04500    0.19780    0.49820    1.000
    H481     H        0.00990    0.23310    0.46270    1.000
    C433     C        0.99200    0.16500    0.51300    1.000
    H482     H        0.00500    0.14130    0.54160    1.000
    H483     H        0.98310    0.11560    0.49380    1.000
    C434     C        0.95800    0.22600    0.51900    1.000
    H484     H        0.93390    0.19080    0.51400    1.000
    H485     H        0.96210    0.24980    0.54850    1.000
    C435     C        0.95300    0.30400    0.48600    1.000
    H486     H        0.95500    0.28190    0.45680    1.000
    H487     H        0.92800    0.33260    0.48340    1.000
    C436     C        0.98600    0.37300    0.50100    1.000
    H488     H        0.98000    0.40790    0.52600    1.000
    H489     H        0.98780    0.41470    0.47790    1.000
    C437     C        0.02400    0.31900    0.51600    1.000
    H490     H        0.04510    0.35150    0.50770    1.000
    H491     H        0.02950    0.31220    0.54770    1.000
    C438     C        0.93150    0.37100    0.46300    1.000
    H492     H        0.93280    0.30600    0.45870    1.000
    C439     C        0.06900    0.70800    0.66700    1.000
    H493     H        0.04650    0.72140    0.64360    1.000
    H494     H        0.06890    0.75100    0.69040    1.000
    C440     C        0.06350    0.61200    0.68470    1.000
    H495     H        0.08250    0.60270    0.71160    1.000
    H496     H        0.03790    0.60690    0.69150    1.000
    C441     C        0.06800    0.53900    0.65200    1.000
    H497     H        0.04480    0.53590    0.62920    1.000
    H498     H        0.07170    0.48150    0.66670    1.000
    C442     C        0.10300    0.55600    0.63000    1.000
    H499     H        0.10290    0.51100    0.60740    1.000
    H500     H        0.12670    0.54980    0.65170    1.000
    C443     C        0.10100    0.65100    0.60900    1.000
    H501     H        0.07680    0.66070    0.58900    1.000
    H502     H        0.12230    0.65860    0.59330    1.000
    C444     C        0.10600    0.71700    0.64900    1.000
    H503     H        0.12860    0.70040    0.67160    1.000
    H504     H        0.10950    0.77830    0.64000    1.000
    C445     C        0.25300    0.22100    0.81600    1.000
    H505     H        0.25890    0.19630    0.84540    1.000
    H506     H        0.26290    0.18100    0.79620    1.000
    C446     C        0.20830    0.23500    0.80000    1.000
    H507     H        0.20270    0.26120    0.77120    1.000
    H508     H        0.19500    0.17730    0.79920    1.000
    C447     C        0.19480    0.29700    0.83300    1.000
    H509     H        0.16680    0.30340    0.82520    1.000
    H510     H        0.20090    0.26940    0.86210    1.000
    C448     C        0.21300    0.39100    0.83600    1.000
    H511     H        0.20380    0.42690    0.85810    1.000
    H512     H        0.20650    0.42130    0.80820    1.000
    C449     C        0.25780    0.37600    0.85000    1.000
    H513     H        0.27130    0.43340    0.85190    1.000
    H514     H        0.26430    0.34690    0.87850    1.000
    C450     C        0.27000    0.31700    0.81500    1.000
    H515     H        0.29810    0.31310    0.82010    1.000
    H516     H        0.26090    0.34320    0.78610    1.000
    Cl7      Cl       0.95630    0.90000    0.35160    1.000
    C451     C        0.99600    0.87200    0.39400    1.000
    H517     H        0.99530    0.80730    0.39790    1.000
    H518     H        0.01940    0.88480    0.38280    1.000
    Cl8      Cl       0.03900    0.98600    0.46440    1.000
    C452     C        0.00200    0.91400    0.44000    1.000
    H519     H        0.00250    0.86430    0.46000    1.000
    H520     H        0.97800    0.94680    0.44040    1.000
    H521     H        0.04370    0.39190    0.52110    1.000
    C453     C        0.10130    0.39500    0.51440    1.000
    H522     H        0.09200    0.43650    0.49020    1.000
    H523     H        0.11160    0.34210    0.50290    1.000
    C454     C        0.13290    0.44200    0.55000    1.000
    H524     H        0.13550    0.41110    0.57810    1.000
    H525     H        0.15790    0.44140    0.54140    1.000
    C455     C        0.11800    0.53900    0.55300    1.000
    H526     H        0.13670    0.57640    0.57200    1.000
    H527     H        0.11100    0.56680    0.52410    1.000
    C456     C        0.08200    0.52100    0.57300    1.000
    H528     H        0.05860    0.53970    0.55210    1.000
    H529     H        0.08350    0.55540    0.59950    1.000
    C457     C        0.08000    0.41900    0.58200    1.000
    H530     H        0.06100    0.40770    0.60010    1.000
    H531     H        0.10520    0.39820    0.59800    1.000
    C458     C        0.03900    0.61500    0.62020    1.000
    H532     H        0.04860    0.66890    0.60830    1.000
    H533     H        0.05060    0.56300    0.60920    1.000
    C459     C        0.99410    0.61100    0.60600    1.000
    H534     H        0.98490    0.54900    0.60580    1.000
    H535     H        0.98520    0.63700    0.57730    1.000
    C460     C        0.98030    0.66700    0.64200    1.000
    H536     H        0.98140    0.63030    0.66820    1.000
    H537     H        0.95360    0.68560    0.63170    1.000
    C461     C        0.00700    0.75100    0.65300    1.000
    H538     H        0.01390    0.77500    0.62720    1.000
    H539     H        0.99370    0.79730    0.66680    1.000
    C462     C        0.04300    0.71700    0.68600    1.000
    H540     H        0.03900    0.71780    0.71600    1.000
    H541     H        0.06560    0.75350    0.68460    1.000
    C463     C        0.04950    0.61700    0.67150    1.000
    H542     H        0.07630    0.59910    0.68190    1.000
    H543     H        0.03300    0.57600    0.68360    1.000
    C464     C        0.23060    0.46400    0.68800    1.000
    H544     H        0.23440    0.52820    0.68380    1.000
    H545     H        0.25510    0.43850    0.70280    1.000
    C465     C        0.21500    0.41700    0.64400    1.000
    H546     H        0.23580    0.41640    0.62700    1.000
    H547     H        0.20880    0.35540    0.64910    1.000
    C466     C        0.18000    0.46500    0.61710    1.000
    H548     H        0.16780    0.42890    0.59200    1.000
    H549     H        0.18690    0.52290    0.60650    1.000
    C467     C        0.15100    0.47800    0.64800    1.000
    H550     H        0.13000    0.51690    0.63380    1.000
    H551     H        0.13980    0.42040    0.65290    1.000
    C468     C        0.16800    0.51900    0.69400    1.000
    H552     H        0.14830    0.52830    0.71060    1.000
    H553     H        0.18050    0.57690    0.69050    1.000
    C469     C        0.19900    0.45000    0.71700    1.000
    H554     H        0.18880    0.38880    0.71400    1.000
    H555     H        0.20860    0.46410    0.74730    1.000
    C470     C        0.23700    0.32600    0.80700    1.000
    H556     H        0.22980    0.28320    0.82760    1.000
    H557     H        0.24900    0.29370    0.78650    1.000
    C471     C        0.26520    0.39600    0.83200    1.000
    H558     H        0.28740    0.40150    0.81810    1.000
    H559     H        0.27440    0.37590    0.86200    1.000
    C472     C        0.24550    0.49000    0.83200    1.000
    H560     H        0.26220    0.52790    0.85350    1.000
    H561     H        0.24320    0.51700    0.80370    1.000
    C473     C        0.20540    0.48600    0.84390    1.000
    H562     H        0.20800    0.47930    0.87540    1.000
    H563     H        0.19170    0.54230    0.83530    1.000
    C474     C        0.18220    0.40800    0.82000    1.000
    H564     H        0.15560    0.42720    0.80960    1.000
    H565     H        0.18200    0.35930    0.84100    1.000
    C475     C        0.19900    0.37400    0.78200    1.000
    H566     H        0.20560    0.42360    0.76380    1.000
    H567     H        0.18210    0.33260    0.76320    1.000
    C476     C        0.07300    0.88900    0.48800    1.000
    H568     H        0.06210    0.94880    0.48700    1.000
    H569     H        0.10060    0.89560    0.48750    1.000
    C477     C        0.05400    0.83800    0.44800    1.000
    H570     H        0.06850    0.84550    0.42480    1.000
    H571     H        0.02800    0.86270    0.43690    1.000
    C478     C        0.05000    0.73700    0.45600    1.000
    H572     H        0.02530    0.72550    0.46500    1.000
    H573     H        0.04940    0.70360    0.42900    1.000
    C479     C        0.08300    0.70400    0.49200    1.000
    H574     H        0.10770    0.71760    0.48320    1.000
    H575     H        0.08160    0.63880    0.49440    1.000
    C480     C        0.08300    0.74700    0.53600    1.000
    H576     H        0.10850    0.74320    0.55460    1.000
    H577     H        0.06510    0.71390    0.55050    1.000
    C481     C        0.07000    0.84600    0.53200    1.000
    H578     H        0.04360    0.85050    0.53600    1.000
    H579     H        0.08630    0.88000    0.55590    1.000
    C482     C        0.98000    0.22600    0.50600    1.000
    H580     H        0.95500    0.19780    0.50180    1.000
    H581     H        0.99010    0.23310    0.53730    1.000
    C483     C        0.00800    0.16500    0.48700    1.000
    H582     H        0.99500    0.14130    0.45840    1.000
    H583     H        0.01690    0.11560    0.50620    1.000
    C484     C        0.04200    0.22600    0.48100    1.000
    H584     H        0.06610    0.19080    0.48600    1.000
    H585     H        0.03790    0.24980    0.45150    1.000
    C485     C        0.04700    0.30400    0.51400    1.000
    H586     H        0.04500    0.28190    0.54320    1.000
    H587     H        0.07200    0.33260    0.51660    1.000
    C486     C        0.01400    0.37300    0.49900    1.000
    H588     H        0.02000    0.40790    0.47400    1.000
    H589     H        0.01220    0.41470    0.52210    1.000
    C487     C        0.97600    0.31900    0.48400    1.000
    H590     H        0.95490    0.35150    0.49230    1.000
    H591     H        0.97050    0.31220    0.45230    1.000
    C488     C        0.06850    0.37100    0.53700    1.000
    H592     H        0.06720    0.30600    0.54130    1.000
