# CIF file generated by openbabel 3.1.0, see https://openbabel.org
data_I
_chemical_name_common 'image0'
_cell_length_a 15.8022
_cell_length_b 24.029
_cell_length_c 21.3108
_cell_angle_alpha 90
_cell_angle_beta 90
_cell_angle_gamma 90
_space_group_name_H-M_alt 'P 1'
_space_group_name_Hall 'P 1'
loop_
    _symmetry_equiv_pos_as_xyz
    x,y,z
loop_
    _atom_site_label
    _atom_site_type_symbol
    _atom_site_fract_x
    _atom_site_fract_y
    _atom_site_fract_z
    _atom_site_occupancy
    Cu1      Cu       0.40677    0.20975    0.57925    1.000
    N1       N        0.26153    0.13809    0.59180    1.000
    N2       N        0.32340    0.16535    0.62457    1.000
    N3       N        0.24320    0.12172    0.69080    1.000
    C1       C        0.21360    0.11280    0.63234    1.000
    H1       H        0.16610    0.09170    0.62250    1.000
    C2       C        0.31170    0.15490    0.68405    1.000
    H2       H        0.34530    0.16810    0.71670    1.000
    C3       C        0.20680    0.10126    0.74865    1.000
    C4       C        0.25300    0.06650    0.78655    1.000
    H3       H        0.30820    0.05700    0.77610    1.000
    C5       C        0.21620    0.04593    0.84044    1.000
    H4       H        0.24630    0.02180    0.86630    1.000
    C6       C        0.13440    0.06116    0.85612    1.000
    C7       C        0.12620    0.11800    0.76420    1.000
    H5       H        0.09650    0.14240    0.73850    1.000
    C8       C        0.09030    0.09780    0.81850    1.000
    H6       H        0.03600    0.10890    0.82980    1.000
    C9       C        0.09180    0.03810    0.91296    1.000
    O1       O        0.11860    0.99316    0.93525    1.000
    O2       O        0.02976    0.06547    0.93381    1.000
    N4       N        0.49350    0.24993    0.53182    1.000
    C10      C        0.56100    0.27657    0.54990    1.000
    H7       H        0.57640    0.28280    0.59150    1.000
    Cl1      Cl       0.42380    0.26706    0.66317    1.000
    C11      C        0.68820    0.31930    0.48020    1.000
    C12      C        0.84780    0.36160    0.46680    1.000
    C13      C        0.73090    0.31100    0.42450    1.000
    H8       H        0.70570    0.29150    0.39170    1.000
    C14      C        0.81140    0.33210    0.41840    1.000
    H9       H        0.84140    0.32640    0.38150    1.000
    O3       O        0.97970    0.36780    0.41100    1.000
    C15      C        0.94120    0.37860    0.46180    1.000
    C16      C        0.72200    0.34840    0.47080    1.000
    H10      H        0.69160    0.35360    0.43390    1.000
    C17      C        0.80320    0.37020    0.47760    1.000
    H11      H        0.82760    0.39040    0.44500    1.000
    O4       O        0.98640    0.35150    0.37520    1.000
    Cu2      Cu       0.90677    0.70975    0.57925    1.000
    N5       N        0.76153    0.63809    0.59180    1.000
    N6       N        0.82340    0.66535    0.62457    1.000
    N7       N        0.74320    0.62172    0.69080    1.000
    C18      C        0.71360    0.61280    0.63234    1.000
    H12      H        0.66610    0.59170    0.62250    1.000
    C19      C        0.81170    0.65490    0.68405    1.000
    H13      H        0.84530    0.66810    0.71670    1.000
    C20      C        0.70680    0.60126    0.74865    1.000
    C21      C        0.75300    0.56650    0.78655    1.000
    H14      H        0.80820    0.55700    0.77610    1.000
    C22      C        0.71620    0.54593    0.84044    1.000
    H15      H        0.74630    0.52180    0.86630    1.000
    C23      C        0.63440    0.56116    0.85612    1.000
    C24      C        0.62620    0.61800    0.76420    1.000
    H16      H        0.59650    0.64240    0.73850    1.000
    C25      C        0.59030    0.59780    0.81850    1.000
    H17      H        0.53600    0.60890    0.82980    1.000
    C26      C        0.59180    0.53810    0.91296    1.000
    O5       O        0.61860    0.49316    0.93525    1.000
    O6       O        0.52976    0.56547    0.93381    1.000
    N8       N        0.99350    0.74993    0.53182    1.000
    C27      C        0.06100    0.77657    0.54990    1.000
    H18      H        0.07640    0.78280    0.59150    1.000
    Cl2      Cl       0.92380    0.76706    0.66317    1.000
    C28      C        0.18820    0.81930    0.48020    1.000
    C29      C        0.34780    0.86160    0.46680    1.000
    C30      C        0.23090    0.81100    0.42450    1.000
    H19      H        0.20570    0.79150    0.39170    1.000
    C31      C        0.31140    0.83210    0.41840    1.000
    H20      H        0.34140    0.82640    0.38150    1.000
    O7       O        0.47970    0.86780    0.41100    1.000
    C32      C        0.44120    0.87860    0.46180    1.000
    C33      C        0.22200    0.84840    0.47080    1.000
    H21      H        0.19160    0.85360    0.43390    1.000
    C34      C        0.30320    0.87020    0.47760    1.000
    H22      H        0.32760    0.89040    0.44500    1.000
    O8       O        0.48640    0.85150    0.37520    1.000
    Cu3      Cu       0.59323    0.79025    0.57925    1.000
    N9       N        0.73847    0.86191    0.59180    1.000
    N10      N        0.67660    0.83465    0.62457    1.000
    N11      N        0.75680    0.87828    0.69080    1.000
    C35      C        0.78640    0.88720    0.63234    1.000
    H23      H        0.83390    0.90830    0.62250    1.000
    C36      C        0.68830    0.84510    0.68405    1.000
    H24      H        0.65470    0.83190    0.71670    1.000
    C37      C        0.79320    0.89874    0.74865    1.000
    C38      C        0.74700    0.93350    0.78655    1.000
    H25      H        0.69180    0.94300    0.77610    1.000
    C39      C        0.78380    0.95407    0.84044    1.000
    H26      H        0.75370    0.97820    0.86630    1.000
    C40      C        0.86560    0.93884    0.85612    1.000
    C41      C        0.87380    0.88200    0.76420    1.000
    H27      H        0.90350    0.85760    0.73850    1.000
    C42      C        0.90970    0.90220    0.81850    1.000
    H28      H        0.96400    0.89110    0.82980    1.000
    C43      C        0.90820    0.96190    0.91296    1.000
    O9       O        0.88140    0.00684    0.93525    1.000
    O10      O        0.97024    0.93453    0.93381    1.000
    N12      N        0.50650    0.75007    0.53182    1.000
    C44      C        0.43900    0.72343    0.54990    1.000
    H29      H        0.42360    0.71720    0.59150    1.000
    Cl3      Cl       0.57620    0.73294    0.66317    1.000
    C45      C        0.31180    0.68070    0.48020    1.000
    C46      C        0.15220    0.63840    0.46680    1.000
    C47      C        0.26910    0.68900    0.42450    1.000
    H30      H        0.29430    0.70850    0.39170    1.000
    C48      C        0.18860    0.66790    0.41840    1.000
    H31      H        0.15860    0.67360    0.38150    1.000
    O11      O        0.02030    0.63220    0.41100    1.000
    C49      C        0.05880    0.62140    0.46180    1.000
    C50      C        0.27800    0.65160    0.47080    1.000
    H32      H        0.30840    0.64640    0.43390    1.000
    C51      C        0.19680    0.62980    0.47760    1.000
    H33      H        0.17240    0.60960    0.44500    1.000
    O12      O        0.01360    0.64850    0.37520    1.000
    Cu4      Cu       0.09323    0.29025    0.57925    1.000
    N13      N        0.23847    0.36191    0.59180    1.000
    N14      N        0.17660    0.33465    0.62457    1.000
    N15      N        0.25680    0.37828    0.69080    1.000
    C52      C        0.28640    0.38720    0.63234    1.000
    H34      H        0.33390    0.40830    0.62250    1.000
    C53      C        0.18830    0.34510    0.68405    1.000
    H35      H        0.15470    0.33190    0.71670    1.000
    C54      C        0.29320    0.39874    0.74865    1.000
    C55      C        0.24700    0.43350    0.78655    1.000
    H36      H        0.19180    0.44300    0.77610    1.000
    C56      C        0.28380    0.45407    0.84044    1.000
    H37      H        0.25370    0.47820    0.86630    1.000
    C57      C        0.36560    0.43884    0.85612    1.000
    C58      C        0.37380    0.38200    0.76420    1.000
    H38      H        0.40350    0.35760    0.73850    1.000
    C59      C        0.40970    0.40220    0.81850    1.000
    H39      H        0.46400    0.39110    0.82980    1.000
    C60      C        0.40820    0.46190    0.91296    1.000
    O13      O        0.38140    0.50684    0.93525    1.000
    O14      O        0.47024    0.43453    0.93381    1.000
    N16      N        0.00650    0.25007    0.53182    1.000
    C61      C        0.93900    0.22343    0.54990    1.000
    H40      H        0.92360    0.21720    0.59150    1.000
    Cl4      Cl       0.07620    0.23294    0.66317    1.000
    C62      C        0.81180    0.18070    0.48020    1.000
    C63      C        0.65220    0.13840    0.46680    1.000
    C64      C        0.76910    0.18900    0.42450    1.000
    H41      H        0.79430    0.20850    0.39170    1.000
    C65      C        0.68860    0.16790    0.41840    1.000
    H42      H        0.65860    0.17360    0.38150    1.000
    O15      O        0.52030    0.13220    0.41100    1.000
    C66      C        0.55880    0.12140    0.46180    1.000
    C67      C        0.77800    0.15160    0.47080    1.000
    H43      H        0.80840    0.14640    0.43390    1.000
    C68      C        0.69680    0.12980    0.47760    1.000
    H44      H        0.67240    0.10960    0.44500    1.000
    O16      O        0.51360    0.14850    0.37520    1.000
    Cu5      Cu       0.59323    0.20975    0.92075    1.000
    N17      N        0.73847    0.13809    0.90820    1.000
    N18      N        0.67660    0.16535    0.87543    1.000
    N19      N        0.75680    0.12172    0.80920    1.000
    C69      C        0.78640    0.11280    0.86766    1.000
    H45      H        0.83390    0.09170    0.87750    1.000
    C70      C        0.68830    0.15490    0.81595    1.000
    H46      H        0.65470    0.16810    0.78330    1.000
    C71      C        0.79320    0.10126    0.75135    1.000
    C72      C        0.74700    0.06650    0.71345    1.000
    H47      H        0.69180    0.05700    0.72390    1.000
    C73      C        0.78380    0.04593    0.65956    1.000
    H48      H        0.75370    0.02180    0.63370    1.000
    C74      C        0.86560    0.06116    0.64388    1.000
    C75      C        0.87380    0.11800    0.73580    1.000
    H49      H        0.90350    0.14240    0.76150    1.000
    C76      C        0.90970    0.09780    0.68150    1.000
    H50      H        0.96400    0.10890    0.67020    1.000
    C77      C        0.90820    0.03810    0.58704    1.000
    O17      O        0.88140    0.99316    0.56475    1.000
    O18      O        0.97024    0.06547    0.56619    1.000
    N20      N        0.50650    0.24993    0.96818    1.000
    C78      C        0.43900    0.27657    0.95010    1.000
    H51      H        0.42360    0.28280    0.90850    1.000
    Cl5      Cl       0.57620    0.26706    0.83683    1.000
    C79      C        0.31180    0.31930    0.01980    1.000
    C80      C        0.15220    0.36160    0.03320    1.000
    C81      C        0.26910    0.31100    0.07550    1.000
    H52      H        0.29430    0.29150    0.10830    1.000
    C82      C        0.18860    0.33210    0.08160    1.000
    H53      H        0.15860    0.32640    0.11850    1.000
    O19      O        0.02030    0.36780    0.08900    1.000
    C83      C        0.05880    0.37860    0.03820    1.000
    C84      C        0.27800    0.34840    0.02920    1.000
    H54      H        0.30840    0.35360    0.06610    1.000
    C85      C        0.19680    0.37020    0.02240    1.000
    H55      H        0.17240    0.39040    0.05500    1.000
    O20      O        0.01360    0.35150    0.12480    1.000
    Cu6      Cu       0.09323    0.70975    0.92075    1.000
    N21      N        0.23847    0.63809    0.90820    1.000
    N22      N        0.17660    0.66535    0.87543    1.000
    N23      N        0.25680    0.62172    0.80920    1.000
    C86      C        0.28640    0.61280    0.86766    1.000
    H56      H        0.33390    0.59170    0.87750    1.000
    C87      C        0.18830    0.65490    0.81595    1.000
    H57      H        0.15470    0.66810    0.78330    1.000
    C88      C        0.29320    0.60126    0.75135    1.000
    C89      C        0.24700    0.56650    0.71345    1.000
    H58      H        0.19180    0.55700    0.72390    1.000
    C90      C        0.28380    0.54593    0.65956    1.000
    H59      H        0.25370    0.52180    0.63370    1.000
    C91      C        0.36560    0.56116    0.64388    1.000
    C92      C        0.37380    0.61800    0.73580    1.000
    H60      H        0.40350    0.64240    0.76150    1.000
    C93      C        0.40970    0.59780    0.68150    1.000
    H61      H        0.46400    0.60890    0.67020    1.000
    C94      C        0.40820    0.53810    0.58704    1.000
    O21      O        0.38140    0.49316    0.56475    1.000
    O22      O        0.47024    0.56547    0.56619    1.000
    N24      N        0.00650    0.74993    0.96818    1.000
    C95      C        0.93900    0.77657    0.95010    1.000
    H62      H        0.92360    0.78280    0.90850    1.000
    Cl6      Cl       0.07620    0.76706    0.83683    1.000
    C96      C        0.81180    0.81930    0.01980    1.000
    C97      C        0.65220    0.86160    0.03320    1.000
    C98      C        0.76910    0.81100    0.07550    1.000
    H63      H        0.79430    0.79150    0.10830    1.000
    C99      C        0.68860    0.83210    0.08160    1.000
    H64      H        0.65860    0.82640    0.11850    1.000
    O23      O        0.52030    0.86780    0.08900    1.000
    C100     C        0.55880    0.87860    0.03820    1.000
    C101     C        0.77800    0.84840    0.02920    1.000
    H65      H        0.80840    0.85360    0.06610    1.000
    C102     C        0.69680    0.87020    0.02240    1.000
    H66      H        0.67240    0.89040    0.05500    1.000
    O24      O        0.51360    0.85150    0.12480    1.000
    Cu7      Cu       0.40677    0.79025    0.92075    1.000
    N25      N        0.26153    0.86191    0.90820    1.000
    N26      N        0.32340    0.83465    0.87543    1.000
    N27      N        0.24320    0.87828    0.80920    1.000
    C103     C        0.21360    0.88720    0.86766    1.000
    H67      H        0.16610    0.90830    0.87750    1.000
    C104     C        0.31170    0.84510    0.81595    1.000
    H68      H        0.34530    0.83190    0.78330    1.000
    C105     C        0.20680    0.89874    0.75135    1.000
    C106     C        0.25300    0.93350    0.71345    1.000
    H69      H        0.30820    0.94300    0.72390    1.000
    C107     C        0.21620    0.95407    0.65956    1.000
    H70      H        0.24630    0.97820    0.63370    1.000
    C108     C        0.13440    0.93884    0.64388    1.000
    C109     C        0.12620    0.88200    0.73580    1.000
    H71      H        0.09650    0.85760    0.76150    1.000
    C110     C        0.09030    0.90220    0.68150    1.000
    H72      H        0.03600    0.89110    0.67020    1.000
    C111     C        0.09180    0.96190    0.58704    1.000
    O25      O        0.11860    0.00684    0.56475    1.000
    O26      O        0.02976    0.93453    0.56619    1.000
    N28      N        0.49350    0.75007    0.96818    1.000
    C112     C        0.56100    0.72343    0.95010    1.000
    H73      H        0.57640    0.71720    0.90850    1.000
    Cl7      Cl       0.42380    0.73294    0.83683    1.000
    C113     C        0.68820    0.68070    0.01980    1.000
    C114     C        0.84780    0.63840    0.03320    1.000
    C115     C        0.73090    0.68900    0.07550    1.000
    H74      H        0.70570    0.70850    0.10830    1.000
    C116     C        0.81140    0.66790    0.08160    1.000
    H75      H        0.84140    0.67360    0.11850    1.000
    O27      O        0.97970    0.63220    0.08900    1.000
    C117     C        0.94120    0.62140    0.03820    1.000
    C118     C        0.72200    0.65160    0.02920    1.000
    H76      H        0.69160    0.64640    0.06610    1.000
    C119     C        0.80320    0.62980    0.02240    1.000
    H77      H        0.82760    0.60960    0.05500    1.000
    O28      O        0.98640    0.64850    0.12480    1.000
    Cu8      Cu       0.90677    0.29025    0.92075    1.000
    N29      N        0.76153    0.36191    0.90820    1.000
    N30      N        0.82340    0.33465    0.87543    1.000
    N31      N        0.74320    0.37828    0.80920    1.000
    C120     C        0.71360    0.38720    0.86766    1.000
    H78      H        0.66610    0.40830    0.87750    1.000
    C121     C        0.81170    0.34510    0.81595    1.000
    H79      H        0.84530    0.33190    0.78330    1.000
    C122     C        0.70680    0.39874    0.75135    1.000
    C123     C        0.75300    0.43350    0.71345    1.000
    H80      H        0.80820    0.44300    0.72390    1.000
    C124     C        0.71620    0.45407    0.65956    1.000
    H81      H        0.74630    0.47820    0.63370    1.000
    C125     C        0.63440    0.43884    0.64388    1.000
    C126     C        0.62620    0.38200    0.73580    1.000
    H82      H        0.59650    0.35760    0.76150    1.000
    C127     C        0.59030    0.40220    0.68150    1.000
    H83      H        0.53600    0.39110    0.67020    1.000
    C128     C        0.59180    0.46190    0.58704    1.000
    O29      O        0.61860    0.50684    0.56475    1.000
    O30      O        0.52976    0.43453    0.56619    1.000
    N32      N        0.99350    0.25007    0.96818    1.000
    C129     C        0.06100    0.22343    0.95010    1.000
    H84      H        0.07640    0.21720    0.90850    1.000
    Cl8      Cl       0.92380    0.23294    0.83683    1.000
    C130     C        0.18820    0.18070    0.01980    1.000
    C131     C        0.34780    0.13840    0.03320    1.000
    C132     C        0.23090    0.18900    0.07550    1.000
    H85      H        0.20570    0.20850    0.10830    1.000
    C133     C        0.31140    0.16790    0.08160    1.000
    H86      H        0.34140    0.17360    0.11850    1.000
    O31      O        0.47970    0.13220    0.08900    1.000
    C134     C        0.44120    0.12140    0.03820    1.000
    C135     C        0.22200    0.15160    0.02920    1.000
    H87      H        0.19160    0.14640    0.06610    1.000
    C136     C        0.30320    0.12980    0.02240    1.000
    H88      H        0.32760    0.10960    0.05500    1.000
    O32      O        0.48640    0.14850    0.12480    1.000
    Cu9      Cu       0.59323    0.79025    0.42075    1.000
    N33      N        0.73847    0.86191    0.40820    1.000
    N34      N        0.67660    0.83465    0.37543    1.000
    N35      N        0.75680    0.87828    0.30920    1.000
    C137     C        0.78640    0.88720    0.36766    1.000
    H89      H        0.83390    0.90830    0.37750    1.000
    C138     C        0.68830    0.84510    0.31595    1.000
    H90      H        0.65470    0.83190    0.28330    1.000
    C139     C        0.79320    0.89874    0.25135    1.000
    C140     C        0.74700    0.93350    0.21345    1.000
    H91      H        0.69180    0.94300    0.22390    1.000
    C141     C        0.78380    0.95407    0.15956    1.000
    H92      H        0.75370    0.97820    0.13370    1.000
    C142     C        0.86560    0.93884    0.14388    1.000
    C143     C        0.87380    0.88200    0.23580    1.000
    H93      H        0.90350    0.85760    0.26150    1.000
    C144     C        0.90970    0.90220    0.18150    1.000
    H94      H        0.96400    0.89110    0.17020    1.000
    C145     C        0.90820    0.96190    0.08704    1.000
    O33      O        0.88140    0.00684    0.06475    1.000
    O34      O        0.97024    0.93453    0.06619    1.000
    N36      N        0.50650    0.75007    0.46818    1.000
    C146     C        0.43900    0.72343    0.45010    1.000
    H95      H        0.42360    0.71720    0.40850    1.000
    Cl9      Cl       0.57620    0.73294    0.33683    1.000
    C147     C        0.31180    0.68070    0.51980    1.000
    C148     C        0.15220    0.63840    0.53320    1.000
    C149     C        0.26910    0.68900    0.57550    1.000
    H96      H        0.29430    0.70850    0.60830    1.000
    C150     C        0.18860    0.66790    0.58160    1.000
    H97      H        0.15860    0.67360    0.61850    1.000
    O35      O        0.02030    0.63220    0.58900    1.000
    C151     C        0.05880    0.62140    0.53820    1.000
    C152     C        0.27800    0.65160    0.52920    1.000
    H98      H        0.30840    0.64640    0.56610    1.000
    C153     C        0.19680    0.62980    0.52240    1.000
    H99      H        0.17240    0.60960    0.55500    1.000
    O36      O        0.01360    0.64850    0.62480    1.000
    Cu10     Cu       0.09323    0.29025    0.42075    1.000
    N37      N        0.23847    0.36191    0.40820    1.000
    N38      N        0.17660    0.33465    0.37543    1.000
    N39      N        0.25680    0.37828    0.30920    1.000
    C154     C        0.28640    0.38720    0.36766    1.000
    H100     H        0.33390    0.40830    0.37750    1.000
    C155     C        0.18830    0.34510    0.31595    1.000
    H101     H        0.15470    0.33190    0.28330    1.000
    C156     C        0.29320    0.39874    0.25135    1.000
    C157     C        0.24700    0.43350    0.21345    1.000
    H102     H        0.19180    0.44300    0.22390    1.000
    C158     C        0.28380    0.45407    0.15956    1.000
    H103     H        0.25370    0.47820    0.13370    1.000
    C159     C        0.36560    0.43884    0.14388    1.000
    C160     C        0.37380    0.38200    0.23580    1.000
    H104     H        0.40350    0.35760    0.26150    1.000
    C161     C        0.40970    0.40220    0.18150    1.000
    H105     H        0.46400    0.39110    0.17020    1.000
    C162     C        0.40820    0.46190    0.08704    1.000
    O37      O        0.38140    0.50684    0.06475    1.000
    O38      O        0.47024    0.43453    0.06619    1.000
    N40      N        0.00650    0.25007    0.46818    1.000
    C163     C        0.93900    0.22343    0.45010    1.000
    H106     H        0.92360    0.21720    0.40850    1.000
    Cl10     Cl       0.07620    0.23294    0.33683    1.000
    C164     C        0.81180    0.18070    0.51980    1.000
    C165     C        0.65220    0.13840    0.53320    1.000
    C166     C        0.76910    0.18900    0.57550    1.000
    H107     H        0.79430    0.20850    0.60830    1.000
    C167     C        0.68860    0.16790    0.58160    1.000
    H108     H        0.65860    0.17360    0.61850    1.000
    O39      O        0.52030    0.13220    0.58900    1.000
    C168     C        0.55880    0.12140    0.53820    1.000
    C169     C        0.77800    0.15160    0.52920    1.000
    H109     H        0.80840    0.14640    0.56610    1.000
    C170     C        0.69680    0.12980    0.52240    1.000
    H110     H        0.67240    0.10960    0.55500    1.000
    O40      O        0.51360    0.14850    0.62480    1.000
    Cu11     Cu       0.40677    0.20975    0.42075    1.000
    N41      N        0.26153    0.13809    0.40820    1.000
    N42      N        0.32340    0.16535    0.37543    1.000
    N43      N        0.24320    0.12172    0.30920    1.000
    C171     C        0.21360    0.11280    0.36766    1.000
    H111     H        0.16610    0.09170    0.37750    1.000
    C172     C        0.31170    0.15490    0.31595    1.000
    H112     H        0.34530    0.16810    0.28330    1.000
    C173     C        0.20680    0.10126    0.25135    1.000
    C174     C        0.25300    0.06650    0.21345    1.000
    H113     H        0.30820    0.05700    0.22390    1.000
    C175     C        0.21620    0.04593    0.15956    1.000
    H114     H        0.24630    0.02180    0.13370    1.000
    C176     C        0.13440    0.06116    0.14388    1.000
    C177     C        0.12620    0.11800    0.23580    1.000
    H115     H        0.09650    0.14240    0.26150    1.000
    C178     C        0.09030    0.09780    0.18150    1.000
    H116     H        0.03600    0.10890    0.17020    1.000
    C179     C        0.09180    0.03810    0.08704    1.000
    O41      O        0.11860    0.99316    0.06475    1.000
    O42      O        0.02976    0.06547    0.06619    1.000
    N44      N        0.49350    0.24993    0.46818    1.000
    C180     C        0.56100    0.27657    0.45010    1.000
    H117     H        0.57640    0.28280    0.40850    1.000
    Cl11     Cl       0.42380    0.26706    0.33683    1.000
    C181     C        0.68820    0.31930    0.51980    1.000
    C182     C        0.84780    0.36160    0.53320    1.000
    C183     C        0.73090    0.31100    0.57550    1.000
    H118     H        0.70570    0.29150    0.60830    1.000
    C184     C        0.81140    0.33210    0.58160    1.000
    H119     H        0.84140    0.32640    0.61850    1.000
    O43      O        0.97970    0.36780    0.58900    1.000
    C185     C        0.94120    0.37860    0.53820    1.000
    C186     C        0.72200    0.34840    0.52920    1.000
    H120     H        0.69160    0.35360    0.56610    1.000
    C187     C        0.80320    0.37020    0.52240    1.000
    H121     H        0.82760    0.39040    0.55500    1.000
    O44      O        0.98640    0.35150    0.62480    1.000
    Cu12     Cu       0.90677    0.70975    0.42075    1.000
    N45      N        0.76153    0.63809    0.40820    1.000
    N46      N        0.82340    0.66535    0.37543    1.000
    N47      N        0.74320    0.62172    0.30920    1.000
    C188     C        0.71360    0.61280    0.36766    1.000
    H122     H        0.66610    0.59170    0.37750    1.000
    C189     C        0.81170    0.65490    0.31595    1.000
    H123     H        0.84530    0.66810    0.28330    1.000
    C190     C        0.70680    0.60126    0.25135    1.000
    C191     C        0.75300    0.56650    0.21345    1.000
    H124     H        0.80820    0.55700    0.22390    1.000
    C192     C        0.71620    0.54593    0.15956    1.000
    H125     H        0.74630    0.52180    0.13370    1.000
    C193     C        0.63440    0.56116    0.14388    1.000
    C194     C        0.62620    0.61800    0.23580    1.000
    H126     H        0.59650    0.64240    0.26150    1.000
    C195     C        0.59030    0.59780    0.18150    1.000
    H127     H        0.53600    0.60890    0.17020    1.000
    C196     C        0.59180    0.53810    0.08704    1.000
    O45      O        0.61860    0.49316    0.06475    1.000
    O46      O        0.52976    0.56547    0.06619    1.000
    N48      N        0.99350    0.74993    0.46818    1.000
    C197     C        0.06100    0.77657    0.45010    1.000
    H128     H        0.07640    0.78280    0.40850    1.000
    Cl12     Cl       0.92380    0.76706    0.33683    1.000
    C198     C        0.18820    0.81930    0.51980    1.000
    C199     C        0.34780    0.86160    0.53320    1.000
    C200     C        0.23090    0.81100    0.57550    1.000
    H129     H        0.20570    0.79150    0.60830    1.000
    C201     C        0.31140    0.83210    0.58160    1.000
    H130     H        0.34140    0.82640    0.61850    1.000
    O47      O        0.47970    0.86780    0.58900    1.000
    C202     C        0.44120    0.87860    0.53820    1.000
    C203     C        0.22200    0.84840    0.52920    1.000
    H131     H        0.19160    0.85360    0.56610    1.000
    C204     C        0.30320    0.87020    0.52240    1.000
    H132     H        0.32760    0.89040    0.55500    1.000
    O48      O        0.48640    0.85150    0.62480    1.000
    Cu13     Cu       0.40677    0.79025    0.07925    1.000
    N49      N        0.26153    0.86191    0.09180    1.000
    N50      N        0.32340    0.83465    0.12457    1.000
    N51      N        0.24320    0.87828    0.19080    1.000
    C205     C        0.21360    0.88720    0.13234    1.000
    H133     H        0.16610    0.90830    0.12250    1.000
    C206     C        0.31170    0.84510    0.18405    1.000
    H134     H        0.34530    0.83190    0.21670    1.000
    C207     C        0.20680    0.89874    0.24865    1.000
    C208     C        0.25300    0.93350    0.28655    1.000
    H135     H        0.30820    0.94300    0.27610    1.000
    C209     C        0.21620    0.95407    0.34044    1.000
    H136     H        0.24630    0.97820    0.36630    1.000
    C210     C        0.13440    0.93884    0.35612    1.000
    C211     C        0.12620    0.88200    0.26420    1.000
    H137     H        0.09650    0.85760    0.23850    1.000
    C212     C        0.09030    0.90220    0.31850    1.000
    H138     H        0.03600    0.89110    0.32980    1.000
    C213     C        0.09180    0.96190    0.41296    1.000
    O49      O        0.11860    0.00684    0.43525    1.000
    O50      O        0.02976    0.93453    0.43381    1.000
    N52      N        0.49350    0.75007    0.03182    1.000
    C214     C        0.56100    0.72343    0.04990    1.000
    H139     H        0.57640    0.71720    0.09150    1.000
    Cl13     Cl       0.42380    0.73294    0.16317    1.000
    C215     C        0.68820    0.68070    0.98020    1.000
    C216     C        0.84780    0.63840    0.96680    1.000
    C217     C        0.73090    0.68900    0.92450    1.000
    H140     H        0.70570    0.70850    0.89170    1.000
    C218     C        0.81140    0.66790    0.91840    1.000
    H141     H        0.84140    0.67360    0.88150    1.000
    O51      O        0.97970    0.63220    0.91100    1.000
    C219     C        0.94120    0.62140    0.96180    1.000
    C220     C        0.72200    0.65160    0.97080    1.000
    H142     H        0.69160    0.64640    0.93390    1.000
    C221     C        0.80320    0.62980    0.97760    1.000
    H143     H        0.82760    0.60960    0.94500    1.000
    O52      O        0.98640    0.64850    0.87520    1.000
    Cu14     Cu       0.90677    0.29025    0.07925    1.000
    N53      N        0.76153    0.36191    0.09180    1.000
    N54      N        0.82340    0.33465    0.12457    1.000
    N55      N        0.74320    0.37828    0.19080    1.000
    C222     C        0.71360    0.38720    0.13234    1.000
    H144     H        0.66610    0.40830    0.12250    1.000
    C223     C        0.81170    0.34510    0.18405    1.000
    H145     H        0.84530    0.33190    0.21670    1.000
    C224     C        0.70680    0.39874    0.24865    1.000
    C225     C        0.75300    0.43350    0.28655    1.000
    H146     H        0.80820    0.44300    0.27610    1.000
    C226     C        0.71620    0.45407    0.34044    1.000
    H147     H        0.74630    0.47820    0.36630    1.000
    C227     C        0.63440    0.43884    0.35612    1.000
    C228     C        0.62620    0.38200    0.26420    1.000
    H148     H        0.59650    0.35760    0.23850    1.000
    C229     C        0.59030    0.40220    0.31850    1.000
    H149     H        0.53600    0.39110    0.32980    1.000
    C230     C        0.59180    0.46190    0.41296    1.000
    O53      O        0.61860    0.50684    0.43525    1.000
    O54      O        0.52976    0.43453    0.43381    1.000
    N56      N        0.99350    0.25007    0.03182    1.000
    C231     C        0.06100    0.22343    0.04990    1.000
    H150     H        0.07640    0.21720    0.09150    1.000
    Cl14     Cl       0.92380    0.23294    0.16317    1.000
    C232     C        0.18820    0.18070    0.98020    1.000
    C233     C        0.34780    0.13840    0.96680    1.000
    C234     C        0.23090    0.18900    0.92450    1.000
    H151     H        0.20570    0.20850    0.89170    1.000
    C235     C        0.31140    0.16790    0.91840    1.000
    H152     H        0.34140    0.17360    0.88150    1.000
    O55      O        0.47970    0.13220    0.91100    1.000
    C236     C        0.44120    0.12140    0.96180    1.000
    C237     C        0.22200    0.15160    0.97080    1.000
    H153     H        0.19160    0.14640    0.93390    1.000
    C238     C        0.30320    0.12980    0.97760    1.000
    H154     H        0.32760    0.10960    0.94500    1.000
    O56      O        0.48640    0.14850    0.87520    1.000
    Cu15     Cu       0.59323    0.20975    0.07925    1.000
    N57      N        0.73847    0.13809    0.09180    1.000
    N58      N        0.67660    0.16535    0.12457    1.000
    N59      N        0.75680    0.12172    0.19080    1.000
    C239     C        0.78640    0.11280    0.13234    1.000
    H155     H        0.83390    0.09170    0.12250    1.000
    C240     C        0.68830    0.15490    0.18405    1.000
    H156     H        0.65470    0.16810    0.21670    1.000
    C241     C        0.79320    0.10126    0.24865    1.000
    C242     C        0.74700    0.06650    0.28655    1.000
    H157     H        0.69180    0.05700    0.27610    1.000
    C243     C        0.78380    0.04593    0.34044    1.000
    H158     H        0.75370    0.02180    0.36630    1.000
    C244     C        0.86560    0.06116    0.35612    1.000
    C245     C        0.87380    0.11800    0.26420    1.000
    H159     H        0.90350    0.14240    0.23850    1.000
    C246     C        0.90970    0.09780    0.31850    1.000
    H160     H        0.96400    0.10890    0.32980    1.000
    C247     C        0.90820    0.03810    0.41296    1.000
    O57      O        0.88140    0.99316    0.43525    1.000
    O58      O        0.97024    0.06547    0.43381    1.000
    N60      N        0.50650    0.24993    0.03182    1.000
    C248     C        0.43900    0.27657    0.04990    1.000
    H161     H        0.42360    0.28280    0.09150    1.000
    Cl15     Cl       0.57620    0.26706    0.16317    1.000
    C249     C        0.31180    0.31930    0.98020    1.000
    C250     C        0.15220    0.36160    0.96680    1.000
    C251     C        0.26910    0.31100    0.92450    1.000
    H162     H        0.29430    0.29150    0.89170    1.000
    C252     C        0.18860    0.33210    0.91840    1.000
    H163     H        0.15860    0.32640    0.88150    1.000
    O59      O        0.02030    0.36780    0.91100    1.000
    C253     C        0.05880    0.37860    0.96180    1.000
    C254     C        0.27800    0.34840    0.97080    1.000
    H164     H        0.30840    0.35360    0.93390    1.000
    C255     C        0.19680    0.37020    0.97760    1.000
    H165     H        0.17240    0.39040    0.94500    1.000
    O60      O        0.01360    0.35150    0.87520    1.000
    Cu16     Cu       0.09323    0.70975    0.07925    1.000
    N61      N        0.23847    0.63809    0.09180    1.000
    N62      N        0.17660    0.66535    0.12457    1.000
    N63      N        0.25680    0.62172    0.19080    1.000
    C256     C        0.28640    0.61280    0.13234    1.000
    H166     H        0.33390    0.59170    0.12250    1.000
    C257     C        0.18830    0.65490    0.18405    1.000
    H167     H        0.15470    0.66810    0.21670    1.000
    C258     C        0.29320    0.60126    0.24865    1.000
    C259     C        0.24700    0.56650    0.28655    1.000
    H168     H        0.19180    0.55700    0.27610    1.000
    C260     C        0.28380    0.54593    0.34044    1.000
    H169     H        0.25370    0.52180    0.36630    1.000
    C261     C        0.36560    0.56116    0.35612    1.000
    C262     C        0.37380    0.61800    0.26420    1.000
    H170     H        0.40350    0.64240    0.23850    1.000
    C263     C        0.40970    0.59780    0.31850    1.000
    H171     H        0.46400    0.60890    0.32980    1.000
    C264     C        0.40820    0.53810    0.41296    1.000
    O61      O        0.38140    0.49316    0.43525    1.000
    O62      O        0.47024    0.56547    0.43381    1.000
    N64      N        0.00650    0.74993    0.03182    1.000
    C265     C        0.93900    0.77657    0.04990    1.000
    H172     H        0.92360    0.78280    0.09150    1.000
    Cl16     Cl       0.07620    0.76706    0.16317    1.000
    C266     C        0.81180    0.81930    0.98020    1.000
    C267     C        0.65220    0.86160    0.96680    1.000
    C268     C        0.76910    0.81100    0.92450    1.000
    H173     H        0.79430    0.79150    0.89170    1.000
    C269     C        0.68860    0.83210    0.91840    1.000
    H174     H        0.65860    0.82640    0.88150    1.000
    O63      O        0.52030    0.86780    0.91100    1.000
    C270     C        0.55880    0.87860    0.96180    1.000
    C271     C        0.77800    0.84840    0.97080    1.000
    H175     H        0.80840    0.85360    0.93390    1.000
    C272     C        0.69680    0.87020    0.97760    1.000
    H176     H        0.67240    0.89040    0.94500    1.000
    O64      O        0.51360    0.85150    0.87520    1.000
    Cu17     Cu       0.05001    0.04399    0.50000    1.000
    Cu18     Cu       0.25872    0.14218    0.50000    1.000
    Cl17     Cl       0.11491    0.13375    0.50000    1.000
    O65      O        0.38220    0.16586    0.50000    1.000
    N65      N        0.60490    0.29360    0.50000    1.000
    O66      O        0.97510    0.40120    0.50000    1.000
    H177     H        0.41500    0.13800    0.50000    1.000
    Cu19     Cu       0.55001    0.54399    0.50000    1.000
    Cu20     Cu       0.75872    0.64218    0.50000    1.000
    Cl18     Cl       0.61491    0.63375    0.50000    1.000
    O67      O        0.88220    0.66586    0.50000    1.000
    N66      N        0.10490    0.79360    0.50000    1.000
    O68      O        0.47510    0.90120    0.50000    1.000
    H178     H        0.91500    0.63800    0.50000    1.000
    Cu21     Cu       0.94999    0.95601    0.50000    1.000
    Cu22     Cu       0.74128    0.85782    0.50000    1.000
    Cl19     Cl       0.88509    0.86625    0.50000    1.000
    O69      O        0.61780    0.83414    0.50000    1.000
    N67      N        0.39510    0.70640    0.50000    1.000
    O70      O        0.02490    0.59880    0.50000    1.000
    H179     H        0.58500    0.86200    0.50000    1.000
    Cu23     Cu       0.44999    0.45601    0.50000    1.000
    Cu24     Cu       0.24128    0.35782    0.50000    1.000
    Cl20     Cl       0.38509    0.36625    0.50000    1.000
    O71      O        0.11780    0.33414    0.50000    1.000
    N68      N        0.89510    0.20640    0.50000    1.000
    O72      O        0.52490    0.09880    0.50000    1.000
    H180     H        0.08500    0.36200    0.50000    1.000
    Cu25     Cu       0.94999    0.04399    0.00000    1.000
    Cu26     Cu       0.74128    0.14218    0.00000    1.000
    Cl21     Cl       0.88509    0.13375    0.00000    1.000
    O73      O        0.61780    0.16586    0.00000    1.000
    N69      N        0.39510    0.29360    0.00000    1.000
    O74      O        0.02490    0.40120    0.00000    1.000
    H181     H        0.58500    0.13800    0.00000    1.000
    Cu27     Cu       0.44999    0.54399    0.00000    1.000
    Cu28     Cu       0.24128    0.64218    0.00000    1.000
    Cl22     Cl       0.38509    0.63375    0.00000    1.000
    O75      O        0.11780    0.66586    0.00000    1.000
    N70      N        0.89510    0.79360    0.00000    1.000
    O76      O        0.52490    0.90120    0.00000    1.000
    H182     H        0.08500    0.63800    0.00000    1.000
    Cu29     Cu       0.05001    0.95601    0.00000    1.000
    Cu30     Cu       0.25872    0.85782    0.00000    1.000
    Cl23     Cl       0.11491    0.86625    0.00000    1.000
    O77      O        0.38220    0.83414    0.00000    1.000
    N71      N        0.60490    0.70640    0.00000    1.000
    O78      O        0.97510    0.59880    0.00000    1.000
    H183     H        0.41500    0.86200    0.00000    1.000
    Cu31     Cu       0.55001    0.45601    0.00000    1.000
    Cu32     Cu       0.75872    0.35782    0.00000    1.000
    Cl24     Cl       0.61491    0.36625    0.00000    1.000
    O79      O        0.88220    0.33414    0.00000    1.000
    N72      N        0.10490    0.20640    0.00000    1.000
    O80      O        0.47510    0.09880    0.00000    1.000
    H184     H        0.91500    0.36200    0.00000    1.000
    Cl25     Cl       0.25000    0.25000    0.50000    1.000
    Cl26     Cl       0.75000    0.75000    0.50000    1.000
    Cl27     Cl       0.75000    0.25000    0.00000    1.000
    Cl28     Cl       0.25000    0.75000    0.00000    1.000
