data_functionalizedCrystal
_audit_creation_method	'EQeq! by Chris Wilmer'
_symmetry_space_group_name_H-M	'P1'
_symmetry_Int_Tables_number	1
_symmetry_cell_setting	triclinic
loop_
_symmetry_equiv_pos_as_xyz
  x,y,z
_cell_length_a	20.319
_cell_length_b	20.319
_cell_length_c	18.2339
_cell_angle_alpha	90
_cell_angle_beta	90
_cell_angle_gamma	90
loop_
_atom_site_label
_atom_site_type_symbol
_atom_site_fract_x
_atom_site_fract_y
_atom_site_fract_z
_atom_site_charge
Mof_Mo	Mo	0.51343	0.00161	0.79039	1.576
Mof_Mo	Mo	0.62981	0.98657	0.85007	1.745
Mof_Mo	Mo	0.67263	0.07359	0.00559	1.603
Mof_Mo	Mo	0.58778	0.15487	0.06254	1.65
Mof_Mo	Mo	0.43035	0.17642	0.98691	1.719
Mof_Mo	Mo	0.40269	0.11229	0.86789	1.648
Mof_Mn	Mn	0.50553	0.28786	0.8432	0.99
Mof_P 	P 	0.5641	0.14373	0.87755	0.617
Mof_P 	P 	0.41947	0.10167	0.68433	0.577
Mof_P 	P 	0.77926	0.05377	0.86932	0.556
Mof_P 	P 	0.52723	0.30341	0.01963	0.558
Mof_C 	C 	0.3639	0.8211	0.3539	0.009
Mof_H 	H 	0.3572	0.8429	0.4006	0.056
Mof_H 	H 	0.3701	0.7745	0.3635	0.054
Mof_C 	C 	0.3037	0.83	0.3075	-0.003
Mof_H 	H 	0.3112	0.809	0.2605	0.05
Mof_H 	H 	0.2672	0.8075	0.331	0.044
Mof_C 	C 	0.213	0.7494	0.1285	-0.019
Mof_H 	H 	0.1979	0.7041	0.128	0.067
Mof_H 	H 	0.1969	0.7699	0.1731	0.065
Mof_C 	C 	0.9645	0.9986	0.9874	0.275
Mof_H 	H 	0.936	0.0138	0.0265	-0.039
Mof_H 	H 	0.9529	0.9534	0.9762	0.022
Mof_N 	N 	0.4206	0.846	0.3212	-0.297
Mof_H 	H 	0.4184	0.8642	0.2787	0.192
Mof_H 	H 	0.4577	0.8433	0.3436	0.21
Mof_N 	N 	0.285	0.898	0.2948	-0.302
Mof_H 	H 	0.308	0.9294	0.3135	0.208
Mof_H 	H 	0.2509	0.9069	0.2687	0.215
Mof_N 	N 	0.1856	0.7846	0.0641	-0.279
Mof_H 	H 	0.2115	0.8024	0.0326	0.185
Mof_H 	H 	0.1436	0.7871	0.0583	0.185
Mof_N 	N 	0.9544	0.04	0.9214	-0.342
Mof_H 	H 	0.9869	0.0615	0.9029	0.203
Mof_H 	H 	0.9161	0.0426	0.9016	0.221
Mof_O 	O 	0.54069	0.98009	0.89174	-0.692
Mof_O 	O 	0.43459	0.08147	0.96429	-0.696
Mof_O 	O 	0.64328	0.90867	0.8252	-0.469
Mof_O 	O 	0.80802	0.10541	0.81914	-0.22
Mof_O 	O 	0.62198	0.09714	0.88979	-0.504
Mof_O 	O 	0.5806	0.06113	0.03506	-0.726
Mof_O 	O 	0.60119	0.03012	0.75857	-0.602
Mof_O 	O 	0.66347	0.98551	0.95381	-0.508
Mof_O 	O 	0.426	0.20468	0.88422	-0.655
Mof_O 	O 	0.3538	0.18536	0.02084	-0.476
Mof_O 	O 	0.5038	0.92648	0.75376	-0.44
Mof_O 	O 	0.47553	0.05136	0.70049	-0.431
Mof_O 	O 	0.71289	0.04693	0.08023	-0.48
Mof_O 	O 	0.608	0.15041	0.15151	-0.481
Mof_O 	O 	0.67152	0.16908	0.01404	-0.626
Mof_O 	O 	0.7516	0.08928	0.93943	-0.416
Mof_O 	O 	0.5533	0.32016	0.94272	-0.346
Mof_O 	O 	0.50876	0.1031	0.83976	-0.565
Mof_O 	O 	0.4173	0.01369	0.83358	-0.469
Mof_O 	O 	0.39865	0.13457	0.75757	-0.405
Mof_O 	O 	0.57831	0.20373	0.8313	-0.356
Mof_O 	O 	0.4478	0.15537	0.63549	-0.205
Mof_O 	O 	0.36094	0.0685	0.64921	-0.354
Mof_O 	O 	0.46059	0.26865	0.01152	-0.459
Mof_O 	O 	0.82923	0.00195	0.8946	-0.213
Mof_O 	O 	0.53884	0.16642	0.9539	-0.565
Mof_O 	O 	0.48351	0.15292	0.08061	-0.484
Mof_O 	O 	0.5772	0.25541	0.05781	-0.436
Mof_O 	O 	0.5206	0.36389	0.0663	-0.232
Mof_O 	O 	0.72244	0.01953	0.8275	-0.437
Mof_O 	O 	0.32083	0.10903	0.879	-0.452
Mof_O 	O 	0.57354	0.35241	0.78435	-0.186
Mof_O 	O 	0.4726	0.26059	0.73281	-0.173
Mof_Mo	Mo	0.98657	0.49839	0.79039	1.677
Mof_Mo	Mo	0.87019	0.51343	0.85007	1.68
Mof_Mo	Mo	0.82737	0.42641	0.00559	1.617
Mof_Mo	Mo	0.91222	0.34513	0.06254	1.656
Mof_Mo	Mo	0.06965	0.32358	0.98691	1.686
Mof_Mo	Mo	0.09731	0.38771	0.86789	1.636
Mof_Mn	Mn	0.99447	0.21214	0.8432	1.025
Mof_P 	P 	0.9359	0.35627	0.87755	0.616
Mof_P 	P 	0.08053	0.39833	0.68433	0.578
Mof_P 	P 	0.72074	0.44623	0.86932	0.554
Mof_P 	P 	0.97277	0.19659	0.01963	0.561
Mof_C 	C 	0.1361	0.6789	0.3539	0.006
Mof_H 	H 	0.1428	0.6571	0.4006	0.057
Mof_H 	H 	0.1299	0.7255	0.3635	0.054
Mof_C 	C 	0.1963	0.67	0.3075	-0.002
Mof_H 	H 	0.1888	0.691	0.2605	0.05
Mof_H 	H 	0.2328	0.6925	0.331	0.044
Mof_C 	C 	0.287	0.7506	0.1285	-0.019
Mof_H 	H 	0.3021	0.7959	0.128	0.067
Mof_H 	H 	0.3031	0.7301	0.1731	0.065
Mof_C 	C 	0.5355	0.5014	0.9874	0.076
Mof_H 	H 	0.564	0.4862	0.0265	0.037
Mof_H 	H 	0.5471	0.5466	0.9762	0.065
Mof_N 	N 	0.0794	0.654	0.3212	-0.294
Mof_H 	H 	0.0816	0.6358	0.2787	0.189
Mof_H 	H 	0.0423	0.6567	0.3436	0.201
Mof_N 	N 	0.215	0.602	0.2948	-0.301
Mof_H 	H 	0.192	0.5706	0.3135	0.205
Mof_H 	H 	0.2491	0.5931	0.2687	0.213
Mof_N 	N 	0.3144	0.7154	0.0641	-0.279
Mof_H 	H 	0.2885	0.6976	0.0326	0.184
Mof_H 	H 	0.3564	0.7129	0.0583	0.183
Mof_N 	N 	0.5456	0.46	0.9214	-0.301
Mof_H 	H 	0.5131	0.4385	0.9029	0.187
Mof_H 	H 	0.5839	0.4574	0.9016	0.212
Mof_O 	O 	0.95931	0.51991	0.89174	-0.7
Mof_O 	O 	0.06541	0.41853	0.96429	-0.7
Mof_O 	O 	0.85672	0.59133	0.8252	-0.46
Mof_O 	O 	0.69198	0.39459	0.81914	-0.218
Mof_O 	O 	0.87802	0.40286	0.88979	-0.496
Mof_O 	O 	0.9194	0.43887	0.03506	-0.717
Mof_O 	O 	0.89881	0.46988	0.75857	-0.596
Mof_O 	O 	0.83653	0.51449	0.95381	-0.514
Mof_O 	O 	0.074	0.29532	0.88422	-0.662
Mof_O 	O 	0.1462	0.31464	0.02084	-0.467
Mof_O 	O 	0.9962	0.57352	0.75376	-0.453
Mof_O 	O 	0.02447	0.44864	0.70049	-0.454
Mof_O 	O 	0.78711	0.45307	0.08023	-0.474
Mof_O 	O 	0.892	0.34959	0.15151	-0.477
Mof_O 	O 	0.82848	0.33092	0.01404	-0.63
Mof_O 	O 	0.7484	0.41072	0.93943	-0.415
Mof_O 	O 	0.9467	0.17984	0.94272	-0.344
Mof_O 	O 	0.99124	0.3969	0.83976	-0.556
Mof_O 	O 	0.0827	0.48631	0.83358	-0.48
Mof_O 	O 	0.10135	0.36543	0.75757	-0.408
Mof_O 	O 	0.92169	0.29627	0.8313	-0.355
Mof_O 	O 	0.0522	0.34463	0.63549	-0.216
Mof_O 	O 	0.13906	0.4315	0.64921	-0.346
Mof_O 	O 	0.03941	0.23135	0.01152	-0.466
Mof_O 	O 	0.67077	0.49805	0.8946	-0.204
Mof_O 	O 	0.96116	0.33358	0.9539	-0.551
Mof_O 	O 	0.01649	0.34708	0.08061	-0.488
Mof_O 	O 	0.9228	0.24459	0.05781	-0.436
Mof_O 	O 	0.9794	0.13611	0.0663	-0.231
Mof_O 	O 	0.77756	0.48047	0.8275	-0.419
Mof_O 	O 	0.17917	0.39097	0.879	-0.447
Mof_O 	O 	0.92646	0.14759	0.78435	-0.185
Mof_O 	O 	0.0274	0.23941	0.73281	-0.19
Mof_Mo	Mo	0.99839	0.01343	0.29039	1.638
Mof_Mo	Mo	0.01343	0.12981	0.35007	1.646
Mof_Mo	Mo	0.92641	0.17263	0.50559	1.691
Mof_Mo	Mo	0.84513	0.08778	0.56254	1.632
Mof_Mo	Mo	0.82358	0.93035	0.48691	1.667
Mof_Mo	Mo	0.88771	0.90269	0.36789	1.672
Mof_Mn	Mn	0.71214	0.00553	0.3432	0.954
Mof_P 	P 	0.85627	0.0641	0.37755	0.617
Mof_P 	P 	0.89833	0.91947	0.18433	0.578
Mof_P 	P 	0.94623	0.27926	0.36932	0.556
Mof_P 	P 	0.69659	0.02723	0.51963	0.554
Mof_C 	C 	0.1789	0.8639	0.8539	0.01
Mof_H 	H 	0.1571	0.8572	0.9006	0.058
Mof_H 	H 	0.2255	0.8701	0.8635	0.055
Mof_C 	C 	0.17	0.8037	0.8075	-0.005
Mof_H 	H 	0.191	0.8112	0.7605	0.051
Mof_H 	H 	0.1925	0.7672	0.831	0.045
Mof_C 	C 	0.2506	0.713	0.6285	-0.017
Mof_H 	H 	0.2959	0.6979	0.628	0.068
Mof_H 	H 	0.2301	0.6969	0.6731	0.065
Mof_C 	C 	0.0014	0.4645	0.4874	-0.196
Mof_H 	H 	0.9862	0.436	0.5265	0.146
Mof_H 	H 	0.0466	0.4529	0.4762	0.134
Mof_N 	N 	0.154	0.9206	0.8212	-0.299
Mof_H 	H 	0.1358	0.9184	0.7787	0.195
Mof_H 	H 	0.1567	0.9577	0.8436	0.215
Mof_N 	N 	0.102	0.785	0.7948	-0.299
Mof_H 	H 	0.0706	0.808	0.8135	0.202
Mof_H 	H 	0.0931	0.7509	0.7687	0.211
Mof_N 	N 	0.2154	0.6856	0.5641	-0.281
Mof_H 	H 	0.1976	0.7115	0.5326	0.19
Mof_H 	H 	0.2129	0.6436	0.5583	0.187
Mof_N 	N 	0.96	0.4544	0.4214	-0.248
Mof_H 	H 	0.9385	0.4869	0.4029	0.176
Mof_H 	H 	0.9574	0.4161	0.4016	0.199
Mof_O 	O 	0.01991	0.04069	0.39174	-0.719
Mof_O 	O 	0.91853	0.93459	0.46429	-0.686
Mof_O 	O 	0.09133	0.14328	0.3252	-0.463
Mof_O 	O 	0.89459	0.30802	0.31914	-0.217
Mof_O 	O 	0.90286	0.12198	0.38979	-0.5
Mof_O 	O 	0.93887	0.0806	0.53506	-0.715
Mof_O 	O 	0.96988	0.10119	0.25857	-0.584
Mof_O 	O 	0.01449	0.16347	0.45381	-0.545
Mof_O 	O 	0.79532	0.926	0.38422	-0.644
Mof_O 	O 	0.81464	0.8538	0.52084	-0.452
Mof_O 	O 	0.07352	0.0038	0.25376	-0.481
Mof_O 	O 	0.94864	0.97553	0.20049	-0.408
Mof_O 	O 	0.95307	0.21289	0.58023	-0.474
Mof_O 	O 	0.84959	0.108	0.65151	-0.479
Mof_O 	O 	0.83092	0.17152	0.51404	-0.623
Mof_O 	O 	0.91072	0.2516	0.43943	-0.432
Mof_O 	O 	0.67984	0.0533	0.44272	-0.356
Mof_O 	O 	0.8969	0.00876	0.33976	-0.583
Mof_O 	O 	0.98631	0.9173	0.33358	-0.447
Mof_O 	O 	0.86543	0.89865	0.25757	-0.404
Mof_O 	O 	0.79627	0.07831	0.3313	-0.358
Mof_O 	O 	0.84463	0.9478	0.13549	-0.193
Mof_O 	O 	0.9315	0.86094	0.14921	-0.332
Mof_O 	O 	0.73135	0.96059	0.51152	-0.426
Mof_O 	O 	0.99805	0.32923	0.3946	-0.198
Mof_O 	O 	0.83358	0.03884	0.4539	-0.581
Mof_O 	O 	0.84708	0.98351	0.58061	-0.455
Mof_O 	O 	0.74459	0.0772	0.55781	-0.431
Mof_O 	O 	0.63611	0.0206	0.5663	-0.235
Mof_O 	O 	0.98047	0.22244	0.3275	-0.408
Mof_O 	O 	0.89097	0.82083	0.379	-0.455
Mof_O 	O 	0.64759	0.07354	0.28435	-0.19
Mof_O 	O 	0.73941	0.9726	0.23281	-0.157
Mof_Mo	Mo	0.50161	0.48657	0.29039	1.634
Mof_Mo	Mo	0.48657	0.37019	0.35007	1.687
Mof_Mo	Mo	0.57359	0.32737	0.50559	1.672
Mof_Mo	Mo	0.65487	0.41222	0.56254	1.656
Mof_Mo	Mo	0.67642	0.56965	0.48691	1.658
Mof_Mo	Mo	0.61229	0.59731	0.36789	1.657
Mof_Mn	Mn	0.78786	0.49447	0.3432	0.988
Mof_P 	P 	0.64373	0.4359	0.37755	0.616
Mof_P 	P 	0.60167	0.58053	0.18433	0.578
Mof_P 	P 	0.55377	0.22074	0.36932	0.556
Mof_P 	P 	0.80341	0.47277	0.51963	0.571
Mof_C 	C 	0.3211	0.6361	0.8539	0.007
Mof_H 	H 	0.3429	0.6428	0.9006	0.059
Mof_H 	H 	0.2745	0.6299	0.8635	0.056
Mof_C 	C 	0.33	0.6963	0.8075	-0.003
Mof_H 	H 	0.309	0.6888	0.7605	0.05
Mof_H 	H 	0.3075	0.7328	0.831	0.044
Mof_C 	C 	0.2494	0.787	0.6285	-0.018
Mof_H 	H 	0.2041	0.8021	0.628	0.068
Mof_H 	H 	0.2699	0.8031	0.6731	0.065
Mof_C 	C 	0.4986	0.0355	0.4874	-0.066
Mof_H 	H 	0.5138	0.064	0.5265	0.089
Mof_H 	H 	0.4534	0.0471	0.4762	0.094
Mof_N 	N 	0.346	0.5794	0.8212	-0.297
Mof_H 	H 	0.3642	0.5816	0.7787	0.192
Mof_H 	H 	0.3433	0.5423	0.8436	0.21
Mof_N 	N 	0.398	0.715	0.7948	-0.301
Mof_H 	H 	0.4294	0.692	0.8135	0.205
Mof_H 	H 	0.4069	0.7491	0.7687	0.213
Mof_N 	N 	0.2846	0.8144	0.5641	-0.281
Mof_H 	H 	0.3024	0.7885	0.5326	0.189
Mof_H 	H 	0.2871	0.8564	0.5583	0.186
Mof_N 	N 	0.54	0.0456	0.4214	-0.278
Mof_H 	H 	0.5615	0.0131	0.4029	0.171
Mof_H 	H 	0.5426	0.0839	0.4016	0.202
Mof_O 	O 	0.48009	0.45931	0.39174	-0.717
Mof_O 	O 	0.58147	0.56541	0.46429	-0.703
Mof_O 	O 	0.40867	0.35672	0.3252	-0.467
Mof_O 	O 	0.60541	0.19198	0.31914	-0.219
Mof_O 	O 	0.59714	0.37802	0.38979	-0.507
Mof_O 	O 	0.56113	0.4194	0.53506	-0.726
Mof_O 	O 	0.53012	0.39881	0.25857	-0.593
Mof_O 	O 	0.48551	0.33653	0.45381	-0.537
Mof_O 	O 	0.70468	0.574	0.38422	-0.651
Mof_O 	O 	0.68536	0.6462	0.52084	-0.45
Mof_O 	O 	0.42648	0.4962	0.25376	-0.462
Mof_O 	O 	0.55136	0.52447	0.20049	-0.431
Mof_O 	O 	0.54693	0.28711	0.58023	-0.48
Mof_O 	O 	0.65041	0.392	0.65151	-0.481
Mof_O 	O 	0.66908	0.32848	0.51404	-0.624
Mof_O 	O 	0.58928	0.2484	0.43943	-0.432
Mof_O 	O 	0.82016	0.4467	0.44272	-0.357
Mof_O 	O 	0.6031	0.49124	0.33976	-0.57
Mof_O 	O 	0.51369	0.5827	0.33358	-0.468
Mof_O 	O 	0.63457	0.60135	0.25757	-0.407
Mof_O 	O 	0.70373	0.42169	0.3313	-0.357
Mof_O 	O 	0.65537	0.5522	0.13549	-0.207
Mof_O 	O 	0.5685	0.63906	0.14921	-0.346
Mof_O 	O 	0.76865	0.53941	0.51152	-0.442
Mof_O 	O 	0.50195	0.17077	0.3946	-0.209
Mof_O 	O 	0.66642	0.46116	0.4539	-0.574
Mof_O 	O 	0.65292	0.51649	0.58061	-0.471
Mof_O 	O 	0.75541	0.4228	0.55781	-0.432
Mof_O 	O 	0.86389	0.4794	0.5663	-0.225
Mof_O 	O 	0.51953	0.27756	0.3275	-0.422
Mof_O 	O 	0.60903	0.67917	0.379	-0.455
Mof_O 	O 	0.85241	0.42646	0.28435	-0.184
Mof_O 	O 	0.76059	0.5274	0.23281	-0.174
Mof_Mo	Mo	0.48657	0.99839	0.20961	1.696
Mof_Mo	Mo	0.37019	0.01343	0.14993	1.63
Mof_Mo	Mo	0.32737	0.92641	0.99441	1.723
Mof_Mo	Mo	0.41222	0.84513	0.93746	1.659
Mof_Mo	Mo	0.56965	0.82358	0.01309	1.595
Mof_Mo	Mo	0.59731	0.88771	0.13211	1.664
Mof_Mn	Mn	0.49447	0.71214	0.1568	0.985
Mof_P 	P 	0.4359	0.85627	0.12245	0.617
Mof_P 	P 	0.58053	0.89833	0.31567	0.578
Mof_P 	P 	0.22074	0.94623	0.13068	0.557
Mof_P 	P 	0.47277	0.69659	0.98037	0.583
Mof_C 	C 	0.6361	0.1789	0.6461	0.009
Mof_H 	H 	0.6428	0.1571	0.5994	0.056
Mof_H 	H 	0.6299	0.2255	0.6365	0.054
Mof_C 	C 	0.6963	0.17	0.6925	-0.005
Mof_H 	H 	0.6888	0.191	0.7395	0.051
Mof_H 	H 	0.7328	0.1925	0.669	0.044
Mof_C 	C 	0.787	0.2506	0.8715	-0.015
Mof_H 	H 	0.8021	0.2959	0.872	0.069
Mof_H 	H 	0.8031	0.2301	0.8269	0.064
Mof_C 	C 	0.0355	0.0014	0.0126	-0.296
Mof_H 	H 	0.064	0.9862	0.9735	0.173
Mof_H 	H 	0.0471	0.0466	0.0238	0.155
Mof_N 	N 	0.5794	0.154	0.6788	-0.297
Mof_H 	H 	0.5816	0.1358	0.7213	0.193
Mof_H 	H 	0.5423	0.1567	0.6564	0.209
Mof_N 	N 	0.715	0.102	0.7052	-0.3
Mof_H 	H 	0.692	0.0706	0.6865	0.202
Mof_H 	H 	0.7491	0.0931	0.7313	0.211
Mof_N 	N 	0.8144	0.2154	0.9359	-0.283
Mof_H 	H 	0.7885	0.1976	0.9674	0.199
Mof_H 	H 	0.8564	0.2129	0.9417	0.193
Mof_N 	N 	0.0456	0.96	0.0786	-0.233
Mof_H 	H 	0.0131	0.9385	0.0971	0.162
Mof_H 	H 	0.0839	0.9574	0.0984	0.192
Mof_O 	O 	0.45931	0.01991	0.10826	-0.725
Mof_O 	O 	0.56541	0.91853	0.03571	-0.692
Mof_O 	O 	0.35672	0.09133	0.1748	-0.461
Mof_O 	O 	0.19198	0.89459	0.18086	-0.217
Mof_O 	O 	0.37802	0.90286	0.11021	-0.504
Mof_O 	O 	0.4194	0.93887	0.96494	-0.708
Mof_O 	O 	0.39881	0.96988	0.24143	-0.585
Mof_O 	O 	0.33653	0.01449	0.04619	-0.556
Mof_O 	O 	0.574	0.79532	0.11578	-0.648
Mof_O 	O 	0.6462	0.81464	0.97916	-0.424
Mof_O 	O 	0.4962	0.07352	0.24624	-0.484
Mof_O 	O 	0.52447	0.94864	0.29951	-0.432
Mof_O 	O 	0.28711	0.95307	0.91977	-0.48
Mof_O 	O 	0.392	0.84959	0.84849	-0.481
Mof_O 	O 	0.32848	0.83092	0.98596	-0.622
Mof_O 	O 	0.2484	0.91072	0.06057	-0.442
Mof_O 	O 	0.4467	0.67984	0.05728	-0.369
Mof_O 	O 	0.49124	0.8969	0.16024	-0.573
Mof_O 	O 	0.5827	0.98631	0.16642	-0.462
Mof_O 	O 	0.60135	0.86543	0.24243	-0.408
Mof_O 	O 	0.42169	0.79627	0.1687	-0.357
Mof_O 	O 	0.5522	0.84463	0.36451	-0.203
Mof_O 	O 	0.63906	0.9315	0.35079	-0.331
Mof_O 	O 	0.53941	0.73135	0.98848	-0.426
Mof_O 	O 	0.17077	0.99805	0.1054	-0.201
Mof_O 	O 	0.46116	0.83358	0.0461	-0.577
Mof_O 	O 	0.51649	0.84708	0.91939	-0.457
Mof_O 	O 	0.4228	0.74459	0.94219	-0.429
Mof_O 	O 	0.4794	0.63611	0.9337	-0.227
Mof_O 	O 	0.27756	0.98047	0.1725	-0.406
Mof_O 	O 	0.67917	0.89097	0.121	-0.457
Mof_O 	O 	0.42646	0.64759	0.21565	-0.186
Mof_O 	O 	0.5274	0.73941	0.26719	-0.173
Mof_Mo	Mo	0.01343	0.50161	0.20961	1.602
Mof_Mo	Mo	0.12981	0.48657	0.14993	1.691
Mof_Mo	Mo	0.17263	0.57359	0.99441	1.709
Mof_Mo	Mo	0.08778	0.65487	0.93746	1.632
Mof_Mo	Mo	0.93035	0.67642	0.01309	1.587
Mof_Mo	Mo	0.90269	0.61229	0.13211	1.675
Mof_Mn	Mn	0.00553	0.78786	0.1568	0.955
Mof_P 	P 	0.0641	0.64373	0.12245	0.616
Mof_P 	P 	0.91947	0.60167	0.31567	0.577
Mof_P 	P 	0.27926	0.55377	0.13068	0.558
Mof_P 	P 	0.02723	0.80341	0.98037	0.554
Mof_C 	C 	0.8639	0.3211	0.6461	0.012
Mof_H 	H 	0.8572	0.3429	0.5994	0.056
Mof_H 	H 	0.8701	0.2745	0.6365	0.054
Mof_C 	C 	0.8037	0.33	0.6925	-0.005
Mof_H 	H 	0.8112	0.309	0.7395	0.051
Mof_H 	H 	0.7672	0.3075	0.669	0.044
Mof_C 	C 	0.713	0.2494	0.8715	-0.016
Mof_H 	H 	0.6979	0.2041	0.872	0.07
Mof_H 	H 	0.6969	0.2699	0.8269	0.064
Mof_C 	C 	0.4645	0.4986	0.0126	-0.133
Mof_H 	H 	0.436	0.5138	0.9735	0.123
Mof_H 	H 	0.4529	0.4534	0.0238	0.116
Mof_N 	N 	0.9206	0.346	0.6788	-0.3
Mof_H 	H 	0.9184	0.3642	0.7213	0.196
Mof_H 	H 	0.9577	0.3433	0.6564	0.218
Mof_N 	N 	0.785	0.398	0.7052	-0.301
Mof_H 	H 	0.808	0.4294	0.6865	0.206
Mof_H 	H 	0.7509	0.4069	0.7313	0.213
Mof_N 	N 	0.6856	0.2846	0.9359	-0.283
Mof_H 	H 	0.7115	0.3024	0.9674	0.199
Mof_H 	H 	0.6436	0.2871	0.9417	0.193
Mof_N 	N 	0.4544	0.54	0.0786	-0.268
Mof_H 	H 	0.4869	0.5615	0.0971	0.175
Mof_H 	H 	0.4161	0.5426	0.0984	0.199
Mof_O 	O 	0.04069	0.48009	0.10826	-0.714
Mof_O 	O 	0.93459	0.58147	0.03571	-0.694
Mof_O 	O 	0.14328	0.40867	0.1748	-0.469
Mof_O 	O 	0.30802	0.60541	0.18086	-0.219
Mof_O 	O 	0.12198	0.59714	0.11021	-0.511
Mof_O 	O 	0.0806	0.56113	0.96494	-0.722
Mof_O 	O 	0.10119	0.53012	0.24143	-0.592
Mof_O 	O 	0.16347	0.48551	0.04619	-0.548
Mof_O 	O 	0.926	0.70468	0.11578	-0.64
Mof_O 	O 	0.8538	0.68536	0.97916	-0.42
Mof_O 	O 	0.0038	0.42648	0.24624	-0.466
Mof_O 	O 	0.97553	0.55136	0.29951	-0.413
Mof_O 	O 	0.21289	0.54693	0.91977	-0.484
Mof_O 	O 	0.108	0.65041	0.84849	-0.483
Mof_O 	O 	0.17152	0.66908	0.98596	-0.617
Mof_O 	O 	0.2516	0.58928	0.06057	-0.443
Mof_O 	O 	0.0533	0.82016	0.05728	-0.361
Mof_O 	O 	0.00876	0.6031	0.16024	-0.578
Mof_O 	O 	0.9173	0.51369	0.16642	-0.459
Mof_O 	O 	0.89865	0.63457	0.24243	-0.406
Mof_O 	O 	0.07831	0.70373	0.1687	-0.358
Mof_O 	O 	0.9478	0.65537	0.36451	-0.192
Mof_O 	O 	0.86094	0.5685	0.35079	-0.341
Mof_O 	O 	0.96059	0.76865	0.98848	-0.397
Mof_O 	O 	0.32923	0.50195	0.1054	-0.211
Mof_O 	O 	0.03884	0.66642	0.0461	-0.581
Mof_O 	O 	0.98351	0.65292	0.91939	-0.436
Mof_O 	O 	0.0772	0.75541	0.94219	-0.428
Mof_O 	O 	0.0206	0.86389	0.9337	-0.232
Mof_O 	O 	0.22244	0.51953	0.1725	-0.423
Mof_O 	O 	0.82083	0.60903	0.121	-0.464
Mof_O 	O 	0.07354	0.85241	0.21565	-0.188
Mof_O 	O 	0.9726	0.76059	0.26719	-0.158
Mof_Mo	Mo	0.00161	0.98657	0.70961	1.571
Mof_Mo	Mo	0.98657	0.87019	0.64993	1.765
Mof_Mo	Mo	0.07359	0.82737	0.49441	1.645
Mof_Mo	Mo	0.15487	0.91222	0.43746	1.672
Mof_Mo	Mo	0.17642	0.06965	0.51309	1.648
Mof_Mo	Mo	0.11229	0.09731	0.63211	1.645
Mof_Mn	Mn	0.28786	0.99447	0.6568	1.014
Mof_P 	P 	0.14373	0.9359	0.62245	0.616
Mof_P 	P 	0.10167	0.08053	0.81567	0.576
Mof_P 	P 	0.05377	0.72074	0.63068	0.557
Mof_P 	P 	0.30341	0.97277	0.48037	0.585
Mof_C 	C 	0.8211	0.1361	0.1461	0.008
Mof_H 	H 	0.8429	0.1428	0.0994	0.053
Mof_H 	H 	0.7745	0.1299	0.1365	0.052
Mof_C 	C 	0.83	0.1963	0.1925	-0.003
Mof_H 	H 	0.809	0.1888	0.2395	0.05
Mof_H 	H 	0.8075	0.2328	0.169	0.043
Mof_C 	C 	0.7494	0.287	0.3715	-0.018
Mof_H 	H 	0.7041	0.3021	0.372	0.068
Mof_H 	H 	0.7699	0.3031	0.3269	0.065
Mof_C 	C 	0.9986	0.5355	0.5126	0.139
Mof_H 	H 	0.0138	0.564	0.4735	0.016
Mof_H 	H 	0.9534	0.5471	0.5238	0.047
Mof_N 	N 	0.846	0.0794	0.1788	-0.294
Mof_H 	H 	0.8642	0.0816	0.2213	0.188
Mof_H 	H 	0.8433	0.0423	0.1564	0.2
Mof_N 	N 	0.898	0.215	0.2052	-0.302
Mof_H 	H 	0.9294	0.192	0.1865	0.207
Mof_H 	H 	0.9069	0.2491	0.2313	0.215
Mof_N 	N 	0.7846	0.3144	0.4359	-0.281
Mof_H 	H 	0.8024	0.2885	0.4674	0.19
Mof_H 	H 	0.7871	0.3564	0.4417	0.187
Mof_N 	N 	0.04	0.5456	0.5786	-0.321
Mof_H 	H 	0.0615	0.5131	0.5971	0.185
Mof_H 	H 	0.0426	0.5839	0.5984	0.211
Mof_O 	O 	0.98009	0.95931	0.60826	-0.687
Mof_O 	O 	0.08147	0.06541	0.53571	-0.702
Mof_O 	O 	0.90867	0.85672	0.6748	-0.472
Mof_O 	O 	0.10541	0.69198	0.68086	-0.221
Mof_O 	O 	0.09714	0.87802	0.61021	-0.515
Mof_O 	O 	0.06113	0.9194	0.46494	-0.722
Mof_O 	O 	0.03012	0.89881	0.74143	-0.606
Mof_O 	O 	0.98551	0.83653	0.54619	-0.525
Mof_O 	O 	0.20468	0.074	0.61578	-0.656
Mof_O 	O 	0.18536	0.1462	0.47916	-0.451
Mof_O 	O 	0.92648	0.9962	0.74624	-0.421
Mof_O 	O 	0.05136	0.02447	0.79951	-0.444
Mof_O 	O 	0.04693	0.78711	0.41977	-0.484
Mof_O 	O 	0.15041	0.892	0.34849	-0.483
Mof_O 	O 	0.16908	0.82848	0.48596	-0.622
Mof_O 	O 	0.08928	0.7484	0.56057	-0.433
Mof_O 	O 	0.32016	0.9467	0.55728	-0.359
Mof_O 	O 	0.1031	0.99124	0.66024	-0.557
Mof_O 	O 	0.01369	0.0827	0.66642	-0.477
Mof_O 	O 	0.13457	0.10135	0.74243	-0.407
Mof_O 	O 	0.20373	0.92169	0.6687	-0.356
Mof_O 	O 	0.15537	0.0522	0.86451	-0.211
Mof_O 	O 	0.0685	0.13906	0.85079	-0.358
Mof_O 	O 	0.26865	0.03941	0.48848	-0.457
Mof_O 	O 	0.00195	0.67077	0.6054	-0.221
Mof_O 	O 	0.16642	0.96116	0.5461	-0.567
Mof_O 	O 	0.15292	0.01649	0.41939	-0.481
Mof_O 	O 	0.25541	0.9228	0.44219	-0.433
Mof_O 	O 	0.36389	0.9794	0.4337	-0.224
Mof_O 	O 	0.01953	0.77756	0.6725	-0.444
Mof_O 	O 	0.10903	0.17917	0.621	-0.455
Mof_O 	O 	0.35241	0.92646	0.71565	-0.183
Mof_O 	O 	0.26059	0.0274	0.76719	-0.185
Mof_Mo	Mo	0.49839	0.51343	0.70961	1.634
Mof_Mo	Mo	0.51343	0.62981	0.64993	1.687
Mof_Mo	Mo	0.42641	0.67263	0.49441	1.673
Mof_Mo	Mo	0.34513	0.58778	0.43746	1.655
Mof_Mo	Mo	0.32358	0.43035	0.51309	1.657
Mof_Mo	Mo	0.38771	0.40269	0.63211	1.657
Mof_Mn	Mn	0.21214	0.50553	0.6568	0.986
Mof_P 	P 	0.35627	0.5641	0.62245	0.616
Mof_P 	P 	0.39833	0.41947	0.81567	0.577
Mof_P 	P 	0.44623	0.77926	0.63068	0.556
Mof_P 	P 	0.19659	0.52723	0.48037	0.571
Mof_C 	C 	0.6789	0.3639	0.1461	0.011
Mof_H 	H 	0.6571	0.3572	0.0994	0.052
Mof_H 	H 	0.7255	0.3701	0.1365	0.052
Mof_C 	C 	0.67	0.3037	0.1925	-0.005
Mof_H 	H 	0.691	0.3112	0.2395	0.051
Mof_H 	H 	0.6925	0.2672	0.169	0.044
Mof_C 	C 	0.7506	0.213	0.3715	-0.017
Mof_H 	H 	0.7959	0.1979	0.372	0.068
Mof_H 	H 	0.7301	0.1969	0.3269	0.065
Mof_C 	C 	0.5014	0.9645	0.5126	0.007
Mof_H 	H 	0.4862	0.936	0.4735	0.074
Mof_H 	H 	0.5466	0.9529	0.5238	0.087
Mof_N 	N 	0.654	0.4206	0.1788	-0.298
Mof_H 	H 	0.6358	0.4184	0.2213	0.193
Mof_H 	H 	0.6567	0.4577	0.1564	0.209
Mof_N 	N 	0.602	0.285	0.2052	-0.301
Mof_H 	H 	0.5706	0.308	0.1865	0.205
Mof_H 	H 	0.5931	0.2509	0.2313	0.213
Mof_N 	N 	0.7154	0.1856	0.4359	-0.281
Mof_H 	H 	0.6976	0.2115	0.4674	0.19
Mof_H 	H 	0.7129	0.1436	0.4417	0.188
Mof_N 	N 	0.46	0.9544	0.5786	-0.291
Mof_H 	H 	0.4385	0.9869	0.5971	0.19
Mof_H 	H 	0.4574	0.9161	0.5984	0.208
Mof_O 	O 	0.51991	0.54069	0.60826	-0.717
Mof_O 	O 	0.41853	0.43459	0.53571	-0.703
Mof_O 	O 	0.59133	0.64328	0.6748	-0.464
Mof_O 	O 	0.39459	0.80802	0.68086	-0.219
Mof_O 	O 	0.40286	0.62198	0.61021	-0.507
Mof_O 	O 	0.43887	0.5806	0.46494	-0.726
Mof_O 	O 	0.46988	0.60119	0.74143	-0.593
Mof_O 	O 	0.51449	0.66347	0.54619	-0.536
Mof_O 	O 	0.29532	0.426	0.61578	-0.652
Mof_O 	O 	0.31464	0.3538	0.47916	-0.452
Mof_O 	O 	0.57352	0.5038	0.74624	-0.462
Mof_O 	O 	0.44864	0.47553	0.79951	-0.432
Mof_O 	O 	0.45307	0.71289	0.41977	-0.48
Mof_O 	O 	0.34959	0.608	0.34849	-0.481
Mof_O 	O 	0.33092	0.67152	0.48596	-0.624
Mof_O 	O 	0.41072	0.7516	0.56057	-0.432
Mof_O 	O 	0.17984	0.5533	0.55728	-0.359
Mof_O 	O 	0.3969	0.50876	0.66024	-0.57
Mof_O 	O 	0.48631	0.4173	0.66642	-0.468
Mof_O 	O 	0.36543	0.39865	0.74243	-0.406
Mof_O 	O 	0.29627	0.57831	0.6687	-0.357
Mof_O 	O 	0.34463	0.4478	0.86451	-0.202
Mof_O 	O 	0.4315	0.36094	0.85079	-0.342
Mof_O 	O 	0.23135	0.46059	0.48848	-0.445
Mof_O 	O 	0.49805	0.82923	0.6054	-0.207
Mof_O 	O 	0.33358	0.53884	0.5461	-0.574
Mof_O 	O 	0.34708	0.48351	0.41939	-0.472
Mof_O 	O 	0.24459	0.5772	0.44219	-0.432
Mof_O 	O 	0.13611	0.5206	0.4337	-0.233
Mof_O 	O 	0.48047	0.72244	0.6725	-0.421
Mof_O 	O 	0.39097	0.32083	0.621	-0.455
Mof_O 	O 	0.14759	0.57354	0.71565	-0.189
Mof_O 	O 	0.23941	0.4726	0.76719	-0.172
Mof_Mn	Mn	0.5	0	-0	1.173
Mof_Mn	Mn	6.7065e-33	0.5	-0	1.183
Mof_Mn	Mn	1.68232e-33	3.35325e-33	0.5	1.174
Mof_Mn	Mn	0.5	0.5	0.5	1.234
_end
