# CIF file generated by openbabel 3.1.0, see https://openbabel.org
data_I
_chemical_name_common 'image0'
_cell_length_a 15.916
_cell_length_b 15.74
_cell_length_c 5.471
_cell_angle_alpha 90
_cell_angle_beta 90
_cell_angle_gamma 90
_space_group_name_H-M_alt 'P 1'
_space_group_name_Hall 'P 1'
loop_
    _symmetry_equiv_pos_as_xyz
    x,y,z
loop_
    _atom_site_label
    _atom_site_type_symbol
    _atom_site_fract_x
    _atom_site_fract_y
    _atom_site_fract_z
    _atom_site_occupancy
    N1       N        0.25620    0.11300    0.87890    1.000
    N2       N        0.13680    0.00590    0.36670    1.000
    C1       C        0.24960    0.15120    0.05800    1.000
    C2       C        0.24540    0.20210    0.27900    1.000
    H1       H        0.29320    0.18880    0.38240    1.000
    H2       H        0.19470    0.18780    0.36850    1.000
    C3       C        0.25300    0.17980    0.96800    1.000
    C4       C        0.25110    0.25750    0.11300    1.000
    H3       H        0.20110    0.28930    0.06940    1.000
    H4       H        0.29940    0.29210    0.07070    1.000
    C5       C        0.09860    0.99900    0.18800    1.000
    C6       C        0.04640    0.98740    0.97300    1.000
    H5       H        0.04870    0.92850    0.92140    1.000
    H6       H        0.06780    0.02220    0.84020    1.000
    C7       C        0.07220    0.01100    0.27100    1.000
    C8       C        0.99460    0.01200    0.13300    1.000
    H7       H        0.97020    0.06840    0.14190    1.000
    H8       H        0.95540    0.97280    0.20820    1.000
    N3       N        0.24380    0.88700    0.87890    1.000
    N4       N        0.36320    0.99410    0.36670    1.000
    C9       C        0.25040    0.84880    0.05800    1.000
    C10      C        0.25460    0.79790    0.27900    1.000
    H9       H        0.20680    0.81120    0.38240    1.000
    H10      H        0.30530    0.81220    0.36850    1.000
    C11      C        0.24700    0.82020    0.96800    1.000
    C12      C        0.24890    0.74250    0.11300    1.000
    H11      H        0.29890    0.71070    0.06940    1.000
    H12      H        0.20060    0.70790    0.07070    1.000
    C13      C        0.40140    0.00100    0.18800    1.000
    C14      C        0.45360    0.01260    0.97300    1.000
    H13      H        0.45130    0.07150    0.92140    1.000
    H14      H        0.43220    0.97780    0.84020    1.000
    C15      C        0.42780    0.98900    0.27100    1.000
    C16      C        0.50540    0.98800    0.13300    1.000
    H15      H        0.52980    0.93160    0.14190    1.000
    H16      H        0.54460    0.02720    0.20820    1.000
    N5       N        0.24380    0.61300    0.62110    1.000
    N6       N        0.36320    0.50590    0.13330    1.000
    C17      C        0.25040    0.65120    0.44200    1.000
    C18      C        0.25460    0.70210    0.22100    1.000
    H17      H        0.20680    0.68880    0.11760    1.000
    H18      H        0.30530    0.68780    0.13150    1.000
    C19      C        0.24700    0.67980    0.53200    1.000
    C20      C        0.24890    0.75750    0.38700    1.000
    H19      H        0.29890    0.78930    0.43060    1.000
    H20      H        0.20060    0.79210    0.42930    1.000
    C21      C        0.40140    0.49900    0.31200    1.000
    C22      C        0.45360    0.48740    0.52700    1.000
    H21      H        0.45130    0.42850    0.57860    1.000
    H22      H        0.43220    0.52220    0.65980    1.000
    C23      C        0.42780    0.51100    0.22900    1.000
    C24      C        0.50540    0.51200    0.36700    1.000
    H23      H        0.52980    0.56840    0.35810    1.000
    H24      H        0.54460    0.47280    0.29180    1.000
    N7       N        0.25620    0.38700    0.62110    1.000
    N8       N        0.13680    0.49410    0.13330    1.000
    C25      C        0.24960    0.34880    0.44200    1.000
    C26      C        0.24540    0.29790    0.22100    1.000
    H25      H        0.29320    0.31120    0.11760    1.000
    H26      H        0.19470    0.31220    0.13150    1.000
    C27      C        0.25300    0.32020    0.53200    1.000
    C28      C        0.25110    0.24250    0.38700    1.000
    H27      H        0.20110    0.21070    0.43060    1.000
    H28      H        0.29940    0.20790    0.42930    1.000
    C29      C        0.09860    0.50100    0.31200    1.000
    C30      C        0.04640    0.51260    0.52700    1.000
    H29      H        0.04870    0.57150    0.57860    1.000
    H30      H        0.06780    0.47780    0.65980    1.000
    C31      C        0.07220    0.48900    0.22900    1.000
    C32      C        0.99460    0.48800    0.36700    1.000
    H31      H        0.97020    0.43160    0.35810    1.000
    H32      H        0.95540    0.52720    0.29180    1.000
    N9       N        0.74380    0.88700    0.12110    1.000
    N10      N        0.86320    0.99410    0.63330    1.000
    C33      C        0.75040    0.84880    0.94200    1.000
    C34      C        0.75460    0.79790    0.72100    1.000
    H33      H        0.70680    0.81120    0.61760    1.000
    H34      H        0.80530    0.81220    0.63150    1.000
    C35      C        0.74700    0.82020    0.03200    1.000
    C36      C        0.74890    0.74250    0.88700    1.000
    H35      H        0.79890    0.71070    0.93060    1.000
    H36      H        0.70060    0.70790    0.92930    1.000
    C37      C        0.90140    0.00100    0.81200    1.000
    C38      C        0.95360    0.01260    0.02700    1.000
    H37      H        0.95130    0.07150    0.07860    1.000
    H38      H        0.93220    0.97780    0.15980    1.000
    C39      C        0.92780    0.98900    0.72900    1.000
    C40      C        0.00540    0.98800    0.86700    1.000
    H39      H        0.02980    0.93160    0.85810    1.000
    H40      H        0.04460    0.02720    0.79180    1.000
    N11      N        0.75620    0.11300    0.12110    1.000
    N12      N        0.63680    0.00590    0.63330    1.000
    C41      C        0.74960    0.15120    0.94200    1.000
    C42      C        0.74540    0.20210    0.72100    1.000
    H41      H        0.79320    0.18880    0.61760    1.000
    H42      H        0.69470    0.18780    0.63150    1.000
    C43      C        0.75300    0.17980    0.03200    1.000
    C44      C        0.75110    0.25750    0.88700    1.000
    H43      H        0.70110    0.28930    0.93060    1.000
    H44      H        0.79940    0.29210    0.92930    1.000
    C45      C        0.59860    0.99900    0.81200    1.000
    C46      C        0.54640    0.98740    0.02700    1.000
    H45      H        0.54870    0.92850    0.07860    1.000
    H46      H        0.56780    0.02220    0.15980    1.000
    C47      C        0.57220    0.01100    0.72900    1.000
    C48      C        0.49460    0.01200    0.86700    1.000
    H47      H        0.47020    0.06840    0.85810    1.000
    H48      H        0.45540    0.97280    0.79180    1.000
    N13      N        0.75620    0.38700    0.37890    1.000
    N14      N        0.63680    0.49410    0.86670    1.000
    C49      C        0.74960    0.34880    0.55800    1.000
    C50      C        0.74540    0.29790    0.77900    1.000
    H49      H        0.79320    0.31120    0.88240    1.000
    H50      H        0.69470    0.31220    0.86850    1.000
    C51      C        0.75300    0.32020    0.46800    1.000
    C52      C        0.75110    0.24250    0.61300    1.000
    H51      H        0.70110    0.21070    0.56940    1.000
    H52      H        0.79940    0.20790    0.57070    1.000
    C53      C        0.59860    0.50100    0.68800    1.000
    C54      C        0.54640    0.51260    0.47300    1.000
    H53      H        0.54870    0.57150    0.42140    1.000
    H54      H        0.56780    0.47780    0.34020    1.000
    C55      C        0.57220    0.48900    0.77100    1.000
    C56      C        0.49460    0.48800    0.63300    1.000
    H55      H        0.47020    0.43160    0.64190    1.000
    H56      H        0.45540    0.52720    0.70820    1.000
    N15      N        0.74380    0.61300    0.37890    1.000
    N16      N        0.86320    0.50590    0.86670    1.000
    C57      C        0.75040    0.65120    0.55800    1.000
    C58      C        0.75460    0.70210    0.77900    1.000
    H57      H        0.70680    0.68880    0.88240    1.000
    H58      H        0.80530    0.68780    0.86850    1.000
    C59      C        0.74700    0.67980    0.46800    1.000
    C60      C        0.74890    0.75750    0.61300    1.000
    H59      H        0.79890    0.78930    0.56940    1.000
    H60      H        0.70060    0.79210    0.57070    1.000
    C61      C        0.90140    0.49900    0.68800    1.000
    C62      C        0.95360    0.48740    0.47300    1.000
    H61      H        0.95130    0.42850    0.42140    1.000
    H62      H        0.93220    0.52220    0.34020    1.000
    C63      C        0.92780    0.51100    0.77100    1.000
    C64      C        0.00540    0.51200    0.63300    1.000
    H63      H        0.02980    0.56840    0.64190    1.000
    H64      H        0.04460    0.47280    0.70820    1.000
    Ag1      Ag       0.25000    0.00000    0.62102    1.000
    Ag2      Ag       0.25000    0.50000    0.87898    1.000
    Ag3      Ag       0.75000    0.00000    0.37898    1.000
    Ag4      Ag       0.75000    0.50000    0.12102    1.000
