data_functionalizedCrystal
_audit_creation_method	'EQeq! by Chris Wilmer'
_symmetry_space_group_name_H-M	'P1'
_symmetry_Int_Tables_number	1
_symmetry_cell_setting	triclinic
loop_
_symmetry_equiv_pos_as_xyz
  x,y,z
_cell_length_a	15.1085
_cell_length_b	8.8403
_cell_length_c	17.2628
_cell_angle_alpha	90
_cell_angle_beta	114.537
_cell_angle_gamma	90
loop_
_atom_site_label
_atom_site_type_symbol
_atom_site_fract_x
_atom_site_fract_y
_atom_site_fract_z
_atom_site_charge
Mof_Zn	Zn	0.19028	0.11151	0.54451	1.24
Mof_Zn	Zn	0.01457	0.91976	0.77667	1.223
Mof_Zn	Zn	0.28325	0.15857	0.81074	1.24
Mof_P 	P 	0.28723	0.3807	0.66538	0.583
Mof_P 	P 	0.0166	0.3189	0.41565	0.523
Mof_P 	P 	0.15288	0.8667	0.41213	0.534
Mof_P 	P 	0.17099	0.8863	0.69112	0.552
Mof_O 	O 	0.2885	0.2524	0.6061	-0.461
Mof_O 	O 	0.0625	0.213	0.4902	-0.432
Mof_O 	O 	0.2136	0.0044	0.4549	-0.452
Mof_O 	O 	0.161	0.9427	0.6038	-0.411
Mof_O 	O 	0.0791	0.9352	0.701	-0.465
Mof_O 	O 	0.0481	0.9084	0.3543	-0.472
Mof_O 	O 	0.3817	0.4666	0.6996	-0.426
Mof_O 	O 	0.0257	0.2715	0.3349	-0.498
Mof_O 	O 	0.2606	0.9591	0.7624	-0.452
Mof_O 	O 	0.912	0.3496	0.4005	-0.374
Mof_O 	O 	0.2588	0.3271	0.7347	-0.473
Mof_O 	O 	0.1977	0.7742	0.3629	-0.428
Mof_O 	O 	0.2067	0.4957	0.6072	-0.436
Mof_H 	H 	0.2044	0.5683	0.6359	0.326
Mof_O 	O 	0.0737	0.4741	0.4388	-0.419
Mof_H 	H 	0.0496	0.5331	0.3988	0.24
Mof_O 	O 	0.1485	0.7598	0.4839	-0.432
Mof_H 	H 	0.1159	0.6847	0.4619	0.296
Mof_O 	O 	0.1842	0.7167	0.6959	-0.249
Mof_Zn	Zn	0.69028	0.61151	0.54451	1.241
Mof_Zn	Zn	0.51457	0.41976	0.77667	1.238
Mof_Zn	Zn	0.78325	0.65857	0.81074	1.243
Mof_P 	P 	0.78723	0.8807	0.66538	0.584
Mof_P 	P 	0.5166	0.8189	0.41565	0.584
Mof_P 	P 	0.65288	0.3667	0.41213	0.536
Mof_P 	P 	0.67099	0.3863	0.69112	0.552
Mof_O 	O 	0.7885	0.7524	0.6061	-0.445
Mof_O 	O 	0.5625	0.713	0.4902	-0.423
Mof_O 	O 	0.7136	0.5044	0.4549	-0.445
Mof_O 	O 	0.661	0.4427	0.6038	-0.398
Mof_O 	O 	0.5791	0.4352	0.701	-0.444
Mof_O 	O 	0.5481	0.4084	0.3543	-0.447
Mof_O 	O 	0.8817	0.9666	0.6996	-0.387
Mof_O 	O 	0.5257	0.7715	0.3349	-0.484
Mof_O 	O 	0.7606	0.4591	0.7624	-0.438
Mof_O 	O 	0.412	0.8496	0.4005	-0.441
Mof_O 	O 	0.7588	0.8271	0.7347	-0.46
Mof_O 	O 	0.6977	0.2742	0.3629	-0.418
Mof_O 	O 	0.7067	0.9957	0.6072	-0.432
Mof_H 	H 	0.7044	0.0683	0.6359	0.332
Mof_O 	O 	0.5737	0.9741	0.4388	-0.428
Mof_H 	H 	0.5496	0.0331	0.3988	0.262
Mof_O 	O 	0.6485	0.2598	0.4839	-0.424
Mof_H 	H 	0.6159	0.1847	0.4619	0.302
Mof_O 	O 	0.6842	0.2167	0.6959	-0.236
Mof_Zn	Zn	0.19028	0.88849	0.04451	1.2
Mof_Zn	Zn	0.01457	0.08024	0.27667	1.221
Mof_Zn	Zn	0.28325	0.84143	0.31074	1.236
Mof_P 	P 	0.28723	0.6193	0.16538	0.584
Mof_P 	P 	0.0166	0.6811	0.91565	0.522
Mof_P 	P 	0.15288	0.1333	0.91213	0.535
Mof_P 	P 	0.17099	0.1137	0.19112	0.552
Mof_O 	O 	0.2885	0.7476	0.1061	-0.504
Mof_O 	O 	0.0625	0.787	0.9902	-0.369
Mof_O 	O 	0.2136	0.9956	0.9549	-0.407
Mof_O 	O 	0.161	0.0573	0.1038	-0.458
Mof_O 	O 	0.0791	0.0648	0.201	-0.481
Mof_O 	O 	0.0481	0.0916	0.8543	-0.457
Mof_O 	O 	0.3817	0.5334	0.1996	-0.444
Mof_O 	O 	0.0257	0.7285	0.8349	-0.488
Mof_O 	O 	0.2606	0.0409	0.2624	-0.459
Mof_O 	O 	0.912	0.6504	0.9005	-0.356
Mof_O 	O 	0.2588	0.6729	0.2347	-0.485
Mof_O 	O 	0.1977	0.2258	0.8629	-0.414
Mof_O 	O 	0.2067	0.5043	0.1072	-0.488
Mof_H 	H 	0.2044	0.4317	0.1359	0.327
Mof_O 	O 	0.0737	0.5259	0.9388	-0.378
Mof_H 	H 	0.0496	0.4669	0.8988	0.236
Mof_O 	O 	0.1485	0.2402	0.9839	-0.377
Mof_H 	H 	0.1159	0.3153	0.9619	0.298
Mof_O 	O 	0.1842	0.2833	0.1959	-0.27
Mof_Zn	Zn	0.69028	0.38849	0.04451	1.204
Mof_Zn	Zn	0.51457	0.58024	0.27667	1.235
Mof_Zn	Zn	0.78325	0.34143	0.31074	1.24
Mof_P 	P 	0.78723	0.1193	0.16538	0.584
Mof_P 	P 	0.5166	0.1811	0.91565	0.582
Mof_P 	P 	0.65288	0.6333	0.91213	0.535
Mof_P 	P 	0.67099	0.6137	0.19112	0.552
Mof_O 	O 	0.7885	0.2476	0.1061	-0.485
Mof_O 	O 	0.5625	0.287	0.9902	-0.36
Mof_O 	O 	0.7136	0.4956	0.9549	-0.398
Mof_O 	O 	0.661	0.5573	0.1038	-0.451
Mof_O 	O 	0.5791	0.5648	0.201	-0.463
Mof_O 	O 	0.5481	0.5916	0.8543	-0.434
Mof_O 	O 	0.8817	0.0334	0.1996	-0.4
Mof_O 	O 	0.5257	0.2285	0.8349	-0.472
Mof_O 	O 	0.7606	0.5409	0.2624	-0.448
Mof_O 	O 	0.412	0.1504	0.9005	-0.42
Mof_O 	O 	0.7588	0.1729	0.2347	-0.469
Mof_O 	O 	0.6977	0.7258	0.8629	-0.405
Mof_O 	O 	0.7067	0.0043	0.1072	-0.471
Mof_H 	H 	0.7044	0.9317	0.1359	0.322
Mof_O 	O 	0.5737	0.0259	0.9388	-0.383
Mof_H 	H 	0.5496	0.9669	0.8988	0.253
Mof_O 	O 	0.6485	0.7402	0.9839	-0.369
Mof_H 	H 	0.6159	0.8153	0.9619	0.302
Mof_O 	O 	0.6842	0.7833	0.1959	-0.258
_end
