data_functionalizedCrystal
_audit_creation_method	'EQeq! by Chris Wilmer'
_symmetry_space_group_name_H-M	'P1'
_symmetry_Int_Tables_number	1
_symmetry_cell_setting	triclinic
loop_
_symmetry_equiv_pos_as_xyz
  x,y,z
_cell_length_a	15.456
_cell_length_b	33.898
_cell_length_c	17.976
_cell_angle_alpha	90
_cell_angle_beta	96.038
_cell_angle_gamma	90
loop_
_atom_site_label
_atom_site_type_symbol
_atom_site_fract_x
_atom_site_fract_y
_atom_site_fract_z
_atom_site_charge
Mof_C 	C 	0.695	0.1451	0.652	0.123
Mof_C 	C 	0.6681	0.1067	0.617	-0.043
Mof_C 	C 	0.6772	0.0909	0.5469	0.045
Mof_C 	C 	0.658	0.0514	0.5325	-0.121
Mof_H 	H 	0.6641	0.0409	0.4855	0.074
Mof_C 	C 	0.6298	0.0277	0.5882	0.061
Mof_C 	C 	0.621	0.0434	0.6583	-0.102
Mof_H 	H 	0.6019	0.0276	0.6956	0.062
Mof_C 	C 	0.6399	0.0829	0.6727	-0.008
Mof_H 	H 	0.6338	0.0935	0.7196	0.045
Mof_C 	C 	0.8973	0.2412	0.6294	0.325
Mof_C 	C 	0.9845	0.2465	0.6021	-0.116
Mof_C 	C 	0.0492	0.2229	0.6264	0.061
Mof_H 	H 	0.0413	0.2044	0.6633	0.034
Mof_C 	C 	0.1296	0.2253	0.5973	-0.131
Mof_H 	H 	0.1752	0.2091	0.6165	0.092
Mof_C 	C 	0.1421	0.2514	0.5402	0.093
Mof_C 	C 	0.0744	0.2767	0.5172	-0.132
Mof_H 	H 	0.0812	0.2955	0.4805	0.088
Mof_C 	C 	0.9957	0.2742	0.5488	0.06
Mof_H 	H 	0.9506	0.2915	0.5333	0.035
Mof_C 	C 	0.2209	0.2553	0.4998	-0.019
Mof_C 	C 	0.5606	0.2743	0.6151	0.102
Mof_H 	H 	0.5299	0.2595	0.6472	0.018
Mof_C 	C 	0.66	0.2922	0.5503	0.1
Mof_H 	H 	0.7108	0.2937	0.527	0.037
Mof_C 	C 	0.5851	0.3512	0.4957	-0.002
Mof_H 	H 	0.5364	0.3474	0.4577	0.061
Mof_H 	H 	0.6369	0.3547	0.4703	0.061
Mof_C 	C 	0.5699	0.3878	0.5385	-0.128
Mof_C 	C 	0.6358	0.4042	0.5848	0.211
Mof_C 	C 	0.6287	0.4399	0.624	-0.198
Mof_C 	C 	0.5463	0.457	0.6166	0.102
Mof_H 	H 	0.5376	0.4797	0.6441	-0.02
Mof_C 	C 	0.4777	0.4421	0.5709	-0.193
Mof_C 	C 	0.4914	0.407	0.5335	0.203
Mof_C 	C 	0.3891	0.4605	0.5648	0.284
Mof_H 	H 	0.3598	0.4533	0.5157	-0.039
Mof_C 	C 	0.3642	0.3669	0.5203	0.189
Mof_H 	H 	0.3926	0.3559	0.5664	0.004
Mof_H 	H 	0.3451	0.3452	0.4874	0.002
Mof_C 	C 	0.337	0.4414	0.6241	-0.179
Mof_C 	C 	0.3369	0.4574	0.6937	0.108
Mof_H 	H 	0.3656	0.4812	0.7046	-0.019
Mof_C 	C 	0.295	0.4389	0.7483	-0.188
Mof_C 	C 	0.2534	0.4037	0.7314	0.22
Mof_C 	C 	0.2507	0.3871	0.6618	-0.118
Mof_C 	C 	0.2941	0.4066	0.6075	0.205
Mof_C 	C 	0.7023	0.4569	0.6724	0.31
Mof_H 	H 	0.7551	0.4477	0.6521	-0.041
Mof_C 	C 	0.2619	0.3637	0.8405	0.216
Mof_H 	H 	0.3149	0.3551	0.8209	-0.007
Mof_H 	H 	0.2303	0.3402	0.8527	0.005
Mof_N 	N 	0.5952	0.3169	0.5409	-0.091
Mof_N 	N 	0.5294	0.3062	0.5819	-0.087
Mof_N 	N 	0.6414	0.2645	0.5989	-0.145
Mof_O 	O 	0.701	0.1659	0.7135	-0.203
Mof_O 	O 	0.714	0.1664	0.596	0.041
Mof_O 	O 	0.8392	0.2655	0.6089	-0.273
Mof_O 	O 	0.8834	0.2113	0.6659	-0.284
Mof_O 	O 	0.7152	0.3851	0.5928	-0.249
Mof_O 	O 	0.4239	0.39062	0.4859	-0.248
Mof_O 	O 	0.2893	0.38998	0.5366	-0.245
Mof_O 	O 	0.2114	0.3844	0.7844	-0.255
Mof_Cd	Cd	0.73753	0.22121	0.6619	0.464
Mof_C 	C 	0.1989	0.3504	0.6416	-0.009
Mof_H 	H 	0.1415	0.353	0.6585	0.054
Mof_H 	H 	0.1916	0.3474	0.5877	0.059
Mof_C 	C 	0.3344	0.272	0.7014	0.104
Mof_H 	H 	0.3856	0.2575	0.7028	0.013
Mof_C 	C 	0.2092	0.2891	0.7202	0.096
Mof_H 	H 	0.1541	0.2898	0.7365	0.017
Mof_N 	N 	0.2409	0.3159	0.675	-0.089
Mof_N 	N 	0.3212	0.3051	0.6623	-0.087
Mof_N 	N 	0.2686	0.2617	0.7379	-0.156
Mof_C 	C 	0.592	0.9867	0.583	-0.027
Mof_C 	C 	0.584	0.9635	0.522	-0.03
Mof_C 	C 	0.527	0.9273	0.5221	0.085
Mof_C 	C 	0.4451	0.9184	0.5427	-0.135
Mof_H 	H 	0.4235	0.932	0.5816	0.088
Mof_C 	C 	0.4275	0.8685	0.4468	-0.086
Mof_C 	C 	0.5094	0.8775	0.4263	0.031
Mof_H 	H 	0.531	0.8638	0.3873	0.038
Mof_C 	C 	0.5592	0.9068	0.4639	-0.121
Mof_H 	H 	0.6141	0.9128	0.4501	0.084
Mof_C 	C 	0.3953	0.889	0.505	0.08
Mof_C 	C 	0.706	0.5016	0.6704	-0.809
Mof_H 	H 	0.7554	0.5106	0.7028	0.271
Mof_H 	H 	0.6538	0.5123	0.687	0.268
Mof_H 	H 	0.7112	0.5102	0.6202	0.273
Mof_C 	C 	0.3765	0.8348	0.4095	0.239
Mof_O 	O 	0.4011	0.818	0.3542	-0.234
Mof_C 	C 	0.3907	0.5059	0.5688	-0.785
Mof_H 	H 	0.3322	0.5157	0.5652	0.267
Mof_H 	H 	0.4196	0.5161	0.5282	0.264
Mof_H 	H 	0.4214	0.514	0.6154	0.262
Mof_O 	O 	0.294	0.8286	0.4293	-0.282
Mof_C 	C 	0.195	0.6451	0.652	0.124
Mof_C 	C 	0.1681	0.6067	0.617	-0.042
Mof_C 	C 	0.1772	0.5909	0.5469	0.045
Mof_C 	C 	0.158	0.5514	0.5325	-0.121
Mof_H 	H 	0.1641	0.5409	0.4855	0.074
Mof_C 	C 	0.1298	0.5277	0.5882	0.061
Mof_C 	C 	0.121	0.5434	0.6583	-0.102
Mof_H 	H 	0.1019	0.5276	0.6956	0.062
Mof_C 	C 	0.1399	0.5829	0.6727	-0.008
Mof_H 	H 	0.1338	0.5935	0.7196	0.045
Mof_C 	C 	0.3973	0.7412	0.6294	0.325
Mof_C 	C 	0.4845	0.7465	0.6021	-0.117
Mof_C 	C 	0.5492	0.7229	0.6264	0.062
Mof_H 	H 	0.5413	0.7044	0.6633	0.034
Mof_C 	C 	0.6296	0.7253	0.5973	-0.132
Mof_H 	H 	0.6752	0.7091	0.6165	0.092
Mof_C 	C 	0.6421	0.7514	0.5402	0.093
Mof_C 	C 	0.5744	0.7767	0.5172	-0.132
Mof_H 	H 	0.5812	0.7955	0.4805	0.088
Mof_C 	C 	0.4957	0.7742	0.5488	0.06
Mof_H 	H 	0.4506	0.7915	0.5333	0.035
Mof_C 	C 	0.7209	0.7553	0.4998	-0.02
Mof_C 	C 	0.0606	0.7743	0.6151	0.102
Mof_H 	H 	0.0299	0.7595	0.6472	0.018
Mof_C 	C 	0.16	0.7922	0.5503	0.1
Mof_H 	H 	0.2108	0.7937	0.527	0.037
Mof_C 	C 	0.0851	0.8512	0.4957	-0.002
Mof_H 	H 	0.0364	0.8474	0.4577	0.061
Mof_H 	H 	0.1369	0.8547	0.4703	0.061
Mof_C 	C 	0.0699	0.8878	0.5385	-0.128
Mof_C 	C 	0.1358	0.9042	0.5848	0.211
Mof_C 	C 	0.1287	0.9399	0.624	-0.197
Mof_C 	C 	0.0463	0.957	0.6166	0.102
Mof_H 	H 	0.0376	0.9797	0.6441	-0.02
Mof_C 	C 	0.9777	0.9421	0.5709	-0.192
Mof_C 	C 	0.9914	0.907	0.5335	0.203
Mof_C 	C 	0.8891	0.9605	0.5648	0.284
Mof_H 	H 	0.8598	0.9533	0.5157	-0.039
Mof_C 	C 	0.8642	0.8669	0.5203	0.189
Mof_H 	H 	0.8926	0.8559	0.5664	0.004
Mof_H 	H 	0.8451	0.8452	0.4874	0.002
Mof_C 	C 	0.837	0.9414	0.6241	-0.179
Mof_C 	C 	0.8369	0.9574	0.6937	0.108
Mof_H 	H 	0.8656	0.9812	0.7046	-0.019
Mof_C 	C 	0.795	0.9389	0.7483	-0.188
Mof_C 	C 	0.7534	0.9037	0.7314	0.22
Mof_C 	C 	0.7507	0.8871	0.6618	-0.118
Mof_C 	C 	0.7941	0.9066	0.6075	0.205
Mof_C 	C 	0.2023	0.9569	0.6724	0.31
Mof_H 	H 	0.2551	0.9477	0.6521	-0.041
Mof_C 	C 	0.7619	0.8637	0.8405	0.216
Mof_H 	H 	0.8149	0.8551	0.8209	-0.007
Mof_H 	H 	0.7303	0.8402	0.8527	0.005
Mof_N 	N 	0.0952	0.8169	0.5409	-0.091
Mof_N 	N 	0.0294	0.8062	0.5819	-0.087
Mof_N 	N 	0.1414	0.7645	0.5989	-0.145
Mof_O 	O 	0.201	0.6659	0.7135	-0.203
Mof_O 	O 	0.214	0.6664	0.596	0.041
Mof_O 	O 	0.3392	0.7655	0.6089	-0.273
Mof_O 	O 	0.3834	0.7113	0.6659	-0.285
Mof_O 	O 	0.2152	0.8851	0.5928	-0.249
Mof_O 	O 	0.9239	0.89062	0.4859	-0.248
Mof_O 	O 	0.7893	0.88998	0.5366	-0.245
Mof_O 	O 	0.7114	0.8844	0.7844	-0.254
Mof_Cd	Cd	0.23753	0.72121	0.6619	0.464
Mof_C 	C 	0.6989	0.8504	0.6416	-0.009
Mof_H 	H 	0.6415	0.853	0.6585	0.054
Mof_H 	H 	0.6916	0.8474	0.5877	0.059
Mof_C 	C 	0.8344	0.772	0.7014	0.104
Mof_H 	H 	0.8856	0.7575	0.7028	0.013
Mof_C 	C 	0.7092	0.7891	0.7202	0.096
Mof_H 	H 	0.6541	0.7898	0.7365	0.017
Mof_N 	N 	0.7409	0.8159	0.675	-0.089
Mof_N 	N 	0.8212	0.8051	0.6623	-0.087
Mof_N 	N 	0.7686	0.7617	0.7379	-0.156
Mof_C 	C 	0.092	0.4867	0.583	-0.027
Mof_C 	C 	0.084	0.4635	0.522	-0.03
Mof_C 	C 	0.027	0.4273	0.5221	0.085
Mof_C 	C 	0.9451	0.4184	0.5427	-0.135
Mof_H 	H 	0.9235	0.432	0.5816	0.088
Mof_C 	C 	0.9275	0.3685	0.4468	-0.086
Mof_C 	C 	0.0094	0.3775	0.4263	0.031
Mof_H 	H 	0.031	0.3638	0.3873	0.038
Mof_C 	C 	0.0592	0.4068	0.4639	-0.121
Mof_H 	H 	0.1141	0.4128	0.4501	0.084
Mof_C 	C 	0.8953	0.389	0.505	0.08
Mof_C 	C 	0.206	0.0016	0.6704	-0.808
Mof_H 	H 	0.2554	0.0106	0.7028	0.271
Mof_H 	H 	0.1538	0.0123	0.687	0.268
Mof_H 	H 	0.2112	0.0102	0.6202	0.272
Mof_C 	C 	0.8765	0.3348	0.4095	0.239
Mof_O 	O 	0.9011	0.318	0.3542	-0.234
Mof_C 	C 	0.8907	0.0059	0.5688	-0.785
Mof_H 	H 	0.8322	0.0157	0.5652	0.267
Mof_H 	H 	0.9196	0.0161	0.5282	0.264
Mof_H 	H 	0.9214	0.014	0.6154	0.262
Mof_O 	O 	0.794	0.3286	0.4293	-0.282
Mof_C 	C 	0.305	0.1451	0.848	0.124
Mof_C 	C 	0.3319	0.1067	0.883	-0.042
Mof_C 	C 	0.3228	0.0909	0.9531	0.045
Mof_C 	C 	0.342	0.0514	0.9675	-0.121
Mof_H 	H 	0.3359	0.0409	0.0145	0.074
Mof_C 	C 	0.3702	0.0277	0.9118	0.061
Mof_C 	C 	0.379	0.0434	0.8417	-0.103
Mof_H 	H 	0.3981	0.0276	0.8044	0.062
Mof_C 	C 	0.3601	0.0829	0.8273	-0.008
Mof_H 	H 	0.3662	0.0935	0.7804	0.045
Mof_C 	C 	0.1027	0.2412	0.8706	0.326
Mof_C 	C 	0.0155	0.2465	0.8979	-0.117
Mof_C 	C 	0.9508	0.2229	0.8736	0.064
Mof_H 	H 	0.9587	0.2044	0.8367	0.034
Mof_C 	C 	0.8704	0.2253	0.9027	-0.133
Mof_H 	H 	0.8248	0.2091	0.8835	0.092
Mof_C 	C 	0.8579	0.2514	0.9598	0.095
Mof_C 	C 	0.9256	0.2767	0.9828	-0.129
Mof_H 	H 	0.9188	0.2955	0.0195	0.086
Mof_C 	C 	0.0043	0.2742	0.9512	0.058
Mof_H 	H 	0.0494	0.2915	0.9667	0.036
Mof_C 	C 	0.7791	0.2553	0.0002	-0.025
Mof_C 	C 	0.4394	0.2743	0.8849	0.102
Mof_H 	H 	0.4701	0.2595	0.8528	0.018
Mof_C 	C 	0.34	0.2922	0.9497	0.1
Mof_H 	H 	0.2892	0.2937	0.973	0.036
Mof_C 	C 	0.4149	0.3512	0.0043	-0.002
Mof_H 	H 	0.4636	0.3474	0.0423	0.061
Mof_H 	H 	0.3631	0.3547	0.0297	0.061
Mof_C 	C 	0.4301	0.3878	0.9615	-0.129
Mof_C 	C 	0.3642	0.4042	0.9152	0.211
Mof_C 	C 	0.3713	0.4399	0.876	-0.198
Mof_C 	C 	0.4537	0.457	0.8834	0.102
Mof_H 	H 	0.4624	0.4797	0.8559	-0.02
Mof_C 	C 	0.5223	0.4421	0.9291	-0.193
Mof_C 	C 	0.5086	0.407	0.9665	0.203
Mof_C 	C 	0.6109	0.4605	0.9352	0.284
Mof_H 	H 	0.6402	0.4533	0.9843	-0.039
Mof_C 	C 	0.6358	0.3669	0.9797	0.19
Mof_H 	H 	0.6074	0.3559	0.9336	0.004
Mof_H 	H 	0.6549	0.3452	0.0126	0.001
Mof_C 	C 	0.663	0.4414	0.8759	-0.179
Mof_C 	C 	0.6631	0.4574	0.8063	0.108
Mof_H 	H 	0.6344	0.4812	0.7954	-0.019
Mof_C 	C 	0.705	0.4389	0.7517	-0.188
Mof_C 	C 	0.7466	0.4037	0.7686	0.22
Mof_C 	C 	0.7493	0.3871	0.8382	-0.118
Mof_C 	C 	0.7059	0.4066	0.8925	0.205
Mof_C 	C 	0.2977	0.4569	0.8276	0.31
Mof_H 	H 	0.2449	0.4477	0.8479	-0.041
Mof_C 	C 	0.7381	0.3637	0.6595	0.216
Mof_H 	H 	0.6851	0.3551	0.6791	-0.007
Mof_H 	H 	0.7697	0.3402	0.6473	0.005
Mof_N 	N 	0.4048	0.3169	0.9591	-0.091
Mof_N 	N 	0.4706	0.3062	0.9181	-0.087
Mof_N 	N 	0.3586	0.2645	0.9011	-0.145
Mof_O 	O 	0.299	0.1659	0.7865	-0.203
Mof_O 	O 	0.286	0.1664	0.904	0.041
Mof_O 	O 	0.1608	0.2655	0.8911	-0.273
Mof_O 	O 	0.1166	0.2113	0.8341	-0.285
Mof_O 	O 	0.2848	0.3851	0.9072	-0.249
Mof_O 	O 	0.5761	0.39062	0.0141	-0.249
Mof_O 	O 	0.7107	0.38998	0.9634	-0.245
Mof_O 	O 	0.7886	0.3844	0.7156	-0.254
Mof_Cd	Cd	0.26247	0.22121	0.8381	0.464
Mof_C 	C 	0.8011	0.3504	0.8584	-0.009
Mof_H 	H 	0.8585	0.353	0.8415	0.054
Mof_H 	H 	0.8084	0.3474	0.9123	0.059
Mof_C 	C 	0.6656	0.272	0.7986	0.104
Mof_H 	H 	0.6144	0.2575	0.7972	0.013
Mof_C 	C 	0.7908	0.2891	0.7798	0.096
Mof_H 	H 	0.8459	0.2898	0.7635	0.017
Mof_N 	N 	0.7591	0.3159	0.825	-0.089
Mof_N 	N 	0.6788	0.3051	0.8377	-0.087
Mof_N 	N 	0.7314	0.2617	0.7621	-0.156
Mof_C 	C 	0.408	0.9867	0.917	-0.027
Mof_C 	C 	0.416	0.9635	0.978	-0.03
Mof_C 	C 	0.473	0.9273	0.9779	0.085
Mof_C 	C 	0.5549	0.9184	0.9573	-0.135
Mof_H 	H 	0.5765	0.932	0.9184	0.088
Mof_C 	C 	0.5725	0.8685	0.0532	-0.086
Mof_C 	C 	0.4906	0.8775	0.0737	0.031
Mof_H 	H 	0.469	0.8638	0.1127	0.038
Mof_C 	C 	0.4408	0.9068	0.0361	-0.12
Mof_H 	H 	0.3859	0.9128	0.0499	0.084
Mof_C 	C 	0.6047	0.889	0.995	0.08
Mof_C 	C 	0.294	0.5016	0.8296	-0.808
Mof_H 	H 	0.2446	0.5106	0.7972	0.271
Mof_H 	H 	0.3462	0.5123	0.813	0.268
Mof_H 	H 	0.2888	0.5102	0.8798	0.272
Mof_C 	C 	0.6235	0.8348	0.0905	0.239
Mof_O 	O 	0.5989	0.818	0.1458	-0.234
Mof_C 	C 	0.6093	0.5059	0.9312	-0.785
Mof_H 	H 	0.6678	0.5157	0.9348	0.267
Mof_H 	H 	0.5804	0.5161	0.9718	0.265
Mof_H 	H 	0.5786	0.514	0.8846	0.262
Mof_O 	O 	0.706	0.8286	0.0707	-0.282
Mof_C 	C 	0.805	0.6451	0.848	0.124
Mof_C 	C 	0.8319	0.6067	0.883	-0.042
Mof_C 	C 	0.8228	0.5909	0.9531	0.045
Mof_C 	C 	0.842	0.5514	0.9675	-0.119
Mof_H 	H 	0.8359	0.5409	0.0145	0.072
Mof_C 	C 	0.8702	0.5277	0.9118	0.06
Mof_C 	C 	0.879	0.5434	0.8417	-0.102
Mof_H 	H 	0.8981	0.5276	0.8044	0.062
Mof_C 	C 	0.8601	0.5829	0.8273	-0.008
Mof_H 	H 	0.8662	0.5935	0.7804	0.045
Mof_C 	C 	0.6027	0.7412	0.8706	0.325
Mof_C 	C 	0.5155	0.7465	0.8979	-0.115
Mof_C 	C 	0.4508	0.7229	0.8736	0.06
Mof_H 	H 	0.4587	0.7044	0.8367	0.035
Mof_C 	C 	0.3704	0.7253	0.9027	-0.13
Mof_H 	H 	0.3248	0.7091	0.8835	0.091
Mof_C 	C 	0.3579	0.7514	0.9598	0.09
Mof_C 	C 	0.4256	0.7767	0.9828	-0.131
Mof_H 	H 	0.4188	0.7955	0.0195	0.087
Mof_C 	C 	0.5043	0.7742	0.9512	0.059
Mof_H 	H 	0.5494	0.7915	0.9667	0.035
Mof_C 	C 	0.2791	0.7553	0.0002	-0.014
Mof_C 	C 	0.9394	0.7743	0.8849	0.102
Mof_H 	H 	0.9701	0.7595	0.8528	0.018
Mof_C 	C 	0.84	0.7922	0.9497	0.1
Mof_H 	H 	0.7892	0.7937	0.973	0.037
Mof_C 	C 	0.9149	0.8512	0.0043	-0.006
Mof_H 	H 	0.9636	0.8474	0.0423	0.061
Mof_H 	H 	0.8631	0.8547	0.0297	0.062
Mof_C 	C 	0.9301	0.8878	0.9615	-0.125
Mof_C 	C 	0.8642	0.9042	0.9152	0.21
Mof_C 	C 	0.8713	0.9399	0.876	-0.197
Mof_C 	C 	0.9537	0.957	0.8834	0.103
Mof_H 	H 	0.9624	0.9797	0.8559	-0.02
Mof_C 	C 	0.0223	0.9421	0.9291	-0.192
Mof_C 	C 	0.0086	0.907	0.9665	0.199
Mof_C 	C 	0.1109	0.9605	0.9352	0.283
Mof_H 	H 	0.1402	0.9533	0.9843	-0.039
Mof_C 	C 	0.1358	0.8669	0.9797	0.184
Mof_H 	H 	0.1074	0.8559	0.9336	0.005
Mof_H 	H 	0.1549	0.8452	0.0126	0.004
Mof_C 	C 	0.163	0.9414	0.8759	-0.179
Mof_C 	C 	0.1631	0.9574	0.8063	0.107
Mof_H 	H 	0.1344	0.9812	0.7954	-0.019
Mof_C 	C 	0.205	0.9389	0.7517	-0.188
Mof_C 	C 	0.2466	0.9037	0.7686	0.22
Mof_C 	C 	0.2493	0.8871	0.8382	-0.118
Mof_C 	C 	0.2059	0.9066	0.8925	0.204
Mof_C 	C 	0.7977	0.9569	0.8276	0.31
Mof_H 	H 	0.7449	0.9477	0.8479	-0.041
Mof_C 	C 	0.2381	0.8637	0.6595	0.216
Mof_H 	H 	0.1851	0.8551	0.6791	-0.007
Mof_H 	H 	0.2697	0.8402	0.6473	0.005
Mof_N 	N 	0.9048	0.8169	0.9591	-0.09
Mof_N 	N 	0.9706	0.8062	0.9181	-0.087
Mof_N 	N 	0.8586	0.7645	0.9011	-0.145
Mof_O 	O 	0.799	0.6659	0.7865	-0.203
Mof_O 	O 	0.786	0.6664	0.904	0.041
Mof_O 	O 	0.6608	0.7655	0.8911	-0.273
Mof_O 	O 	0.6166	0.7113	0.8341	-0.285
Mof_O 	O 	0.7848	0.8851	0.9072	-0.249
Mof_O 	O 	0.0761	0.89062	0.0141	-0.245
Mof_O 	O 	0.2107	0.88998	0.9634	-0.244
Mof_O 	O 	0.2886	0.8844	0.7156	-0.254
Mof_Cd	Cd	0.76247	0.72121	0.8381	0.464
Mof_C 	C 	0.3011	0.8504	0.8584	-0.009
Mof_H 	H 	0.3585	0.853	0.8415	0.054
Mof_H 	H 	0.3084	0.8474	0.9123	0.058
Mof_C 	C 	0.1656	0.772	0.7986	0.104
Mof_H 	H 	0.1144	0.7575	0.7972	0.013
Mof_C 	C 	0.2908	0.7891	0.7798	0.096
Mof_H 	H 	0.3459	0.7898	0.7635	0.017
Mof_N 	N 	0.2591	0.8159	0.825	-0.089
Mof_N 	N 	0.1788	0.8051	0.8377	-0.087
Mof_N 	N 	0.2314	0.7617	0.7621	-0.156
Mof_C 	C 	0.908	0.4867	0.917	-0.026
Mof_C 	C 	0.916	0.4635	0.978	-0.031
Mof_C 	C 	0.973	0.4273	0.9779	0.088
Mof_C 	C 	0.0549	0.4184	0.9573	-0.137
Mof_H 	H 	0.0765	0.432	0.9184	0.089
Mof_C 	C 	0.0725	0.3685	0.0532	-0.084
Mof_C 	C 	0.9906	0.3775	0.0737	0.03
Mof_H 	H 	0.969	0.3638	0.1127	0.038
Mof_C 	C 	0.9408	0.4068	0.0361	-0.123
Mof_H 	H 	0.8859	0.4128	0.0499	0.084
Mof_C 	C 	0.1047	0.389	0.995	0.079
Mof_C 	C 	0.794	0.0016	0.8296	-0.808
Mof_H 	H 	0.7446	0.0106	0.7972	0.271
Mof_H 	H 	0.8462	0.0123	0.813	0.268
Mof_H 	H 	0.7888	0.0102	0.8798	0.273
Mof_C 	C 	0.1235	0.3348	0.0905	0.239
Mof_O 	O 	0.0989	0.318	0.1458	-0.233
Mof_C 	C 	0.1093	0.0059	0.9312	-0.784
Mof_H 	H 	0.1678	0.0157	0.9348	0.266
Mof_H 	H 	0.0804	0.0161	0.9718	0.264
Mof_H 	H 	0.0786	0.014	0.8846	0.261
Mof_O 	O 	0.206	0.3286	0.0707	-0.283
Mof_C 	C 	0.305	0.8549	0.348	0.124
Mof_C 	C 	0.3319	0.8933	0.383	-0.042
Mof_C 	C 	0.3228	0.9091	0.4531	0.045
Mof_C 	C 	0.342	0.9486	0.4675	-0.121
Mof_H 	H 	0.3359	0.9591	0.5145	0.074
Mof_C 	C 	0.3702	0.9723	0.4118	0.061
Mof_C 	C 	0.379	0.9566	0.3417	-0.102
Mof_H 	H 	0.3981	0.9724	0.3044	0.062
Mof_C 	C 	0.3601	0.9171	0.3273	-0.008
Mof_H 	H 	0.3662	0.9065	0.2804	0.045
Mof_C 	C 	0.1027	0.7588	0.3706	0.325
Mof_C 	C 	0.0155	0.7535	0.3979	-0.116
Mof_C 	C 	0.9508	0.7771	0.3736	0.061
Mof_H 	H 	0.9587	0.7956	0.3367	0.034
Mof_C 	C 	0.8704	0.7747	0.4027	-0.131
Mof_H 	H 	0.8248	0.7909	0.3835	0.092
Mof_C 	C 	0.8579	0.7486	0.4598	0.093
Mof_C 	C 	0.9256	0.7233	0.4828	-0.132
Mof_H 	H 	0.9188	0.7045	0.5195	0.088
Mof_C 	C 	0.0043	0.7258	0.4512	0.06
Mof_H 	H 	0.0494	0.7085	0.4667	0.035
Mof_C 	C 	0.7791	0.7447	0.5002	-0.019
Mof_C 	C 	0.4394	0.7257	0.3849	0.102
Mof_H 	H 	0.4701	0.7405	0.3528	0.018
Mof_C 	C 	0.34	0.7078	0.4497	0.1
Mof_H 	H 	0.2892	0.7063	0.473	0.037
Mof_C 	C 	0.4149	0.6488	0.5043	-0.002
Mof_H 	H 	0.4636	0.6526	0.5423	0.061
Mof_H 	H 	0.3631	0.6453	0.5297	0.061
Mof_C 	C 	0.4301	0.6122	0.4615	-0.128
Mof_C 	C 	0.3642	0.5958	0.4152	0.211
Mof_C 	C 	0.3713	0.5601	0.376	-0.198
Mof_C 	C 	0.4537	0.543	0.3834	0.102
Mof_H 	H 	0.4624	0.5203	0.3559	-0.02
Mof_C 	C 	0.5223	0.5579	0.4291	-0.193
Mof_C 	C 	0.5086	0.593	0.4665	0.203
Mof_C 	C 	0.6109	0.5395	0.4352	0.284
Mof_H 	H 	0.6402	0.5467	0.4843	-0.039
Mof_C 	C 	0.6358	0.6331	0.4797	0.189
Mof_H 	H 	0.6074	0.6441	0.4336	0.004
Mof_H 	H 	0.6549	0.6548	0.5126	0.002
Mof_C 	C 	0.663	0.5586	0.3759	-0.179
Mof_C 	C 	0.6631	0.5426	0.3063	0.108
Mof_H 	H 	0.6344	0.5188	0.2954	-0.019
Mof_C 	C 	0.705	0.5611	0.2517	-0.188
Mof_C 	C 	0.7466	0.5963	0.2686	0.22
Mof_C 	C 	0.7493	0.6129	0.3382	-0.118
Mof_C 	C 	0.7059	0.5934	0.3925	0.205
Mof_C 	C 	0.2977	0.5431	0.3276	0.31
Mof_H 	H 	0.2449	0.5523	0.3479	-0.041
Mof_C 	C 	0.7381	0.6363	0.1595	0.216
Mof_H 	H 	0.6851	0.6449	0.1791	-0.007
Mof_H 	H 	0.7697	0.6598	0.1473	0.005
Mof_N 	N 	0.4048	0.6831	0.4591	-0.091
Mof_N 	N 	0.4706	0.6938	0.4181	-0.087
Mof_N 	N 	0.3586	0.7355	0.4011	-0.145
Mof_O 	O 	0.299	0.8341	0.2865	-0.203
Mof_O 	O 	0.286	0.8336	0.404	0.041
Mof_O 	O 	0.1608	0.7345	0.3911	-0.273
Mof_O 	O 	0.1166	0.7887	0.3341	-0.284
Mof_O 	O 	0.2848	0.6149	0.4072	-0.249
Mof_O 	O 	0.5761	0.60938	0.5141	-0.248
Mof_O 	O 	0.7107	0.61002	0.4634	-0.245
Mof_O 	O 	0.7886	0.6156	0.2156	-0.255
Mof_Cd	Cd	0.26247	0.77879	0.3381	0.464
Mof_C 	C 	0.8011	0.6496	0.3584	-0.009
Mof_H 	H 	0.8585	0.647	0.3415	0.054
Mof_H 	H 	0.8084	0.6526	0.4123	0.059
Mof_C 	C 	0.6656	0.728	0.2986	0.104
Mof_H 	H 	0.6144	0.7425	0.2972	0.013
Mof_C 	C 	0.7908	0.7109	0.2798	0.096
Mof_H 	H 	0.8459	0.7102	0.2635	0.017
Mof_N 	N 	0.7591	0.6841	0.325	-0.089
Mof_N 	N 	0.6788	0.6949	0.3377	-0.087
Mof_N 	N 	0.7314	0.7383	0.2621	-0.156
Mof_C 	C 	0.408	0.0133	0.417	-0.027
Mof_C 	C 	0.416	0.0365	0.478	-0.03
Mof_C 	C 	0.473	0.0727	0.4779	0.085
Mof_C 	C 	0.5549	0.0816	0.4573	-0.135
Mof_H 	H 	0.5765	0.068	0.4184	0.088
Mof_C 	C 	0.5725	0.1315	0.5532	-0.086
Mof_C 	C 	0.4906	0.1225	0.5737	0.031
Mof_H 	H 	0.469	0.1362	0.6127	0.038
Mof_C 	C 	0.4408	0.0932	0.5361	-0.121
Mof_H 	H 	0.3859	0.0872	0.5499	0.084
Mof_C 	C 	0.6047	0.111	0.495	0.08
Mof_C 	C 	0.294	0.4984	0.3296	-0.809
Mof_H 	H 	0.2446	0.4894	0.2972	0.271
Mof_H 	H 	0.3462	0.4877	0.313	0.268
Mof_H 	H 	0.2888	0.4898	0.3798	0.273
Mof_C 	C 	0.6235	0.1652	0.5905	0.239
Mof_O 	O 	0.5989	0.182	0.6458	-0.234
Mof_C 	C 	0.6093	0.4941	0.4312	-0.785
Mof_H 	H 	0.6678	0.4843	0.4348	0.267
Mof_H 	H 	0.5804	0.4839	0.4718	0.264
Mof_H 	H 	0.5786	0.486	0.3846	0.262
Mof_O 	O 	0.706	0.1714	0.5707	-0.282
Mof_C 	C 	0.805	0.3549	0.348	0.124
Mof_C 	C 	0.8319	0.3933	0.383	-0.042
Mof_C 	C 	0.8228	0.4091	0.4531	0.045
Mof_C 	C 	0.842	0.4486	0.4675	-0.121
Mof_H 	H 	0.8359	0.4591	0.5145	0.074
Mof_C 	C 	0.8702	0.4723	0.4118	0.061
Mof_C 	C 	0.879	0.4566	0.3417	-0.102
Mof_H 	H 	0.8981	0.4724	0.3044	0.062
Mof_C 	C 	0.8601	0.4171	0.3273	-0.008
Mof_H 	H 	0.8662	0.4065	0.2804	0.045
Mof_C 	C 	0.6027	0.2588	0.3706	0.325
Mof_C 	C 	0.5155	0.2535	0.3979	-0.117
Mof_C 	C 	0.4508	0.2771	0.3736	0.062
Mof_H 	H 	0.4587	0.2956	0.3367	0.034
Mof_C 	C 	0.3704	0.2747	0.4027	-0.132
Mof_H 	H 	0.3248	0.2909	0.3835	0.092
Mof_C 	C 	0.3579	0.2486	0.4598	0.093
Mof_C 	C 	0.4256	0.2233	0.4828	-0.132
Mof_H 	H 	0.4188	0.2045	0.5195	0.088
Mof_C 	C 	0.5043	0.2258	0.4512	0.06
Mof_H 	H 	0.5494	0.2085	0.4667	0.035
Mof_C 	C 	0.2791	0.2447	0.5002	-0.02
Mof_C 	C 	0.9394	0.2257	0.3849	0.102
Mof_H 	H 	0.9701	0.2405	0.3528	0.018
Mof_C 	C 	0.84	0.2078	0.4497	0.1
Mof_H 	H 	0.7892	0.2063	0.473	0.037
Mof_C 	C 	0.9149	0.1488	0.5043	-0.002
Mof_H 	H 	0.9636	0.1526	0.5423	0.061
Mof_H 	H 	0.8631	0.1453	0.5297	0.061
Mof_C 	C 	0.9301	0.1122	0.4615	-0.128
Mof_C 	C 	0.8642	0.0958	0.4152	0.211
Mof_C 	C 	0.8713	0.0601	0.376	-0.197
Mof_C 	C 	0.9537	0.043	0.3834	0.102
Mof_H 	H 	0.9624	0.0203	0.3559	-0.02
Mof_C 	C 	0.0223	0.0579	0.4291	-0.192
Mof_C 	C 	0.0086	0.093	0.4665	0.203
Mof_C 	C 	0.1109	0.0395	0.4352	0.284
Mof_H 	H 	0.1402	0.0467	0.4843	-0.039
Mof_C 	C 	0.1358	0.1331	0.4797	0.189
Mof_H 	H 	0.1074	0.1441	0.4336	0.004
Mof_H 	H 	0.1549	0.1548	0.5126	0.002
Mof_C 	C 	0.163	0.0586	0.3759	-0.179
Mof_C 	C 	0.1631	0.0426	0.3063	0.108
Mof_H 	H 	0.1344	0.0188	0.2954	-0.019
Mof_C 	C 	0.205	0.0611	0.2517	-0.188
Mof_C 	C 	0.2466	0.0963	0.2686	0.22
Mof_C 	C 	0.2493	0.1129	0.3382	-0.118
Mof_C 	C 	0.2059	0.0934	0.3925	0.205
Mof_C 	C 	0.7977	0.0431	0.3276	0.31
Mof_H 	H 	0.7449	0.0523	0.3479	-0.041
Mof_C 	C 	0.2381	0.1363	0.1595	0.216
Mof_H 	H 	0.1851	0.1449	0.1791	-0.007
Mof_H 	H 	0.2697	0.1598	0.1473	0.005
Mof_N 	N 	0.9048	0.1831	0.4591	-0.091
Mof_N 	N 	0.9706	0.1938	0.4181	-0.087
Mof_N 	N 	0.8586	0.2355	0.4011	-0.145
Mof_O 	O 	0.799	0.3341	0.2865	-0.203
Mof_O 	O 	0.786	0.3336	0.404	0.041
Mof_O 	O 	0.6608	0.2345	0.3911	-0.273
Mof_O 	O 	0.6166	0.2887	0.3341	-0.285
Mof_O 	O 	0.7848	0.1149	0.4072	-0.249
Mof_O 	O 	0.0761	0.10938	0.5141	-0.248
Mof_O 	O 	0.2107	0.11002	0.4634	-0.245
Mof_O 	O 	0.2886	0.1156	0.2156	-0.254
Mof_Cd	Cd	0.76247	0.27879	0.3381	0.464
Mof_C 	C 	0.3011	0.1496	0.3584	-0.009
Mof_H 	H 	0.3585	0.147	0.3415	0.054
Mof_H 	H 	0.3084	0.1526	0.4123	0.059
Mof_C 	C 	0.1656	0.228	0.2986	0.104
Mof_H 	H 	0.1144	0.2425	0.2972	0.013
Mof_C 	C 	0.2908	0.2109	0.2798	0.096
Mof_H 	H 	0.3459	0.2102	0.2635	0.017
Mof_N 	N 	0.2591	0.1841	0.325	-0.089
Mof_N 	N 	0.1788	0.1949	0.3377	-0.087
Mof_N 	N 	0.2314	0.2383	0.2621	-0.156
Mof_C 	C 	0.908	0.5133	0.417	-0.027
Mof_C 	C 	0.916	0.5365	0.478	-0.03
Mof_C 	C 	0.973	0.5727	0.4779	0.085
Mof_C 	C 	0.0549	0.5816	0.4573	-0.135
Mof_H 	H 	0.0765	0.568	0.4184	0.088
Mof_C 	C 	0.0725	0.6315	0.5532	-0.086
Mof_C 	C 	0.9906	0.6225	0.5737	0.031
Mof_H 	H 	0.969	0.6362	0.6127	0.038
Mof_C 	C 	0.9408	0.5932	0.5361	-0.121
Mof_H 	H 	0.8859	0.5872	0.5499	0.084
Mof_C 	C 	0.1047	0.611	0.495	0.08
Mof_C 	C 	0.794	0.9984	0.3296	-0.808
Mof_H 	H 	0.7446	0.9894	0.2972	0.271
Mof_H 	H 	0.8462	0.9877	0.313	0.268
Mof_H 	H 	0.7888	0.9898	0.3798	0.272
Mof_C 	C 	0.1235	0.6652	0.5905	0.239
Mof_O 	O 	0.0989	0.682	0.6458	-0.234
Mof_C 	C 	0.1093	0.9941	0.4312	-0.785
Mof_H 	H 	0.1678	0.9843	0.4348	0.267
Mof_H 	H 	0.0804	0.9839	0.4718	0.264
Mof_H 	H 	0.0786	0.986	0.3846	0.262
Mof_O 	O 	0.206	0.6714	0.5707	-0.282
Mof_C 	C 	0.695	0.8549	0.152	0.124
Mof_C 	C 	0.6681	0.8933	0.117	-0.042
Mof_C 	C 	0.6772	0.9091	0.0469	0.045
Mof_C 	C 	0.658	0.9486	0.0325	-0.121
Mof_H 	H 	0.6641	0.9591	0.9855	0.074
Mof_C 	C 	0.6298	0.9723	0.0882	0.061
Mof_C 	C 	0.621	0.9566	0.1583	-0.103
Mof_H 	H 	0.6019	0.9724	0.1956	0.062
Mof_C 	C 	0.6399	0.9171	0.1727	-0.008
Mof_H 	H 	0.6338	0.9065	0.2196	0.045
Mof_C 	C 	0.8973	0.7588	0.1294	0.326
Mof_C 	C 	0.9845	0.7535	0.1021	-0.117
Mof_C 	C 	0.0492	0.7771	0.1264	0.064
Mof_H 	H 	0.0413	0.7956	0.1633	0.034
Mof_C 	C 	0.1296	0.7747	0.0973	-0.133
Mof_H 	H 	0.1752	0.7909	0.1165	0.092
Mof_C 	C 	0.1421	0.7486	0.0402	0.095
Mof_C 	C 	0.0744	0.7233	0.0172	-0.129
Mof_H 	H 	0.0812	0.7045	0.9805	0.086
Mof_C 	C 	0.9957	0.7258	0.0488	0.058
Mof_H 	H 	0.9506	0.7085	0.0333	0.036
Mof_C 	C 	0.2209	0.7447	0.9998	-0.025
Mof_C 	C 	0.5606	0.7257	0.1151	0.102
Mof_H 	H 	0.5299	0.7405	0.1472	0.018
Mof_C 	C 	0.66	0.7078	0.0503	0.1
Mof_H 	H 	0.7108	0.7063	0.027	0.036
Mof_C 	C 	0.5851	0.6488	0.9957	-0.002
Mof_H 	H 	0.5364	0.6526	0.9577	0.061
Mof_H 	H 	0.6369	0.6453	0.9703	0.061
Mof_C 	C 	0.5699	0.6122	0.0385	-0.129
Mof_C 	C 	0.6358	0.5958	0.0848	0.211
Mof_C 	C 	0.6287	0.5601	0.124	-0.198
Mof_C 	C 	0.5463	0.543	0.1166	0.102
Mof_H 	H 	0.5376	0.5203	0.1441	-0.02
Mof_C 	C 	0.4777	0.5579	0.0709	-0.193
Mof_C 	C 	0.4914	0.593	0.0335	0.203
Mof_C 	C 	0.3891	0.5395	0.0648	0.284
Mof_H 	H 	0.3598	0.5467	0.0157	-0.039
Mof_C 	C 	0.3642	0.6331	0.0203	0.19
Mof_H 	H 	0.3926	0.6441	0.0664	0.004
Mof_H 	H 	0.3451	0.6548	0.9874	0.001
Mof_C 	C 	0.337	0.5586	0.1241	-0.179
Mof_C 	C 	0.3369	0.5426	0.1937	0.108
Mof_H 	H 	0.3656	0.5188	0.2046	-0.019
Mof_C 	C 	0.295	0.5611	0.2483	-0.188
Mof_C 	C 	0.2534	0.5963	0.2314	0.22
Mof_C 	C 	0.2507	0.6129	0.1618	-0.118
Mof_C 	C 	0.2941	0.5934	0.1075	0.205
Mof_C 	C 	0.7023	0.5431	0.1724	0.31
Mof_H 	H 	0.7551	0.5523	0.1521	-0.041
Mof_C 	C 	0.2619	0.6363	0.3405	0.216
Mof_H 	H 	0.3149	0.6449	0.3209	-0.007
Mof_H 	H 	0.2303	0.6598	0.3527	0.005
Mof_N 	N 	0.5952	0.6831	0.0409	-0.091
Mof_N 	N 	0.5294	0.6938	0.0819	-0.087
Mof_N 	N 	0.6414	0.7355	0.0989	-0.145
Mof_O 	O 	0.701	0.8341	0.2135	-0.203
Mof_O 	O 	0.714	0.8336	0.096	0.041
Mof_O 	O 	0.8392	0.7345	0.1089	-0.273
Mof_O 	O 	0.8834	0.7887	0.1659	-0.285
Mof_O 	O 	0.7152	0.6149	0.0928	-0.249
Mof_O 	O 	0.4239	0.60938	0.9859	-0.249
Mof_O 	O 	0.2893	0.61002	0.0366	-0.245
Mof_O 	O 	0.2114	0.6156	0.2844	-0.254
Mof_Cd	Cd	0.73753	0.77879	0.1619	0.464
Mof_C 	C 	0.1989	0.6496	0.1416	-0.009
Mof_H 	H 	0.1415	0.647	0.1585	0.054
Mof_H 	H 	0.1916	0.6526	0.0877	0.059
Mof_C 	C 	0.3344	0.728	0.2014	0.104
Mof_H 	H 	0.3856	0.7425	0.2028	0.013
Mof_C 	C 	0.2092	0.7109	0.2202	0.096
Mof_H 	H 	0.1541	0.7102	0.2365	0.017
Mof_N 	N 	0.2409	0.6841	0.175	-0.089
Mof_N 	N 	0.3212	0.6949	0.1623	-0.087
Mof_N 	N 	0.2686	0.7383	0.2379	-0.156
Mof_C 	C 	0.592	0.0133	0.083	-0.027
Mof_C 	C 	0.584	0.0365	0.022	-0.03
Mof_C 	C 	0.527	0.0727	0.0221	0.085
Mof_C 	C 	0.4451	0.0816	0.0427	-0.135
Mof_H 	H 	0.4235	0.068	0.0816	0.088
Mof_C 	C 	0.4275	0.1315	0.9468	-0.086
Mof_C 	C 	0.5094	0.1225	0.9263	0.031
Mof_H 	H 	0.531	0.1362	0.8873	0.038
Mof_C 	C 	0.5592	0.0932	0.9639	-0.12
Mof_H 	H 	0.6141	0.0872	0.9501	0.084
Mof_C 	C 	0.3953	0.111	0.005	0.08
Mof_C 	C 	0.706	0.4984	0.1704	-0.808
Mof_H 	H 	0.7554	0.4894	0.2028	0.271
Mof_H 	H 	0.6538	0.4877	0.187	0.268
Mof_H 	H 	0.7112	0.4898	0.1202	0.272
Mof_C 	C 	0.3765	0.1652	0.9095	0.239
Mof_O 	O 	0.4011	0.182	0.8542	-0.234
Mof_C 	C 	0.3907	0.4941	0.0688	-0.785
Mof_H 	H 	0.3322	0.4843	0.0652	0.267
Mof_H 	H 	0.4196	0.4839	0.0282	0.265
Mof_H 	H 	0.4214	0.486	0.1154	0.262
Mof_O 	O 	0.294	0.1714	0.9293	-0.282
Mof_C 	C 	0.195	0.3549	0.152	0.124
Mof_C 	C 	0.1681	0.3933	0.117	-0.042
Mof_C 	C 	0.1772	0.4091	0.0469	0.045
Mof_C 	C 	0.158	0.4486	0.0325	-0.119
Mof_H 	H 	0.1641	0.4591	0.9855	0.072
Mof_C 	C 	0.1298	0.4723	0.0882	0.06
Mof_C 	C 	0.121	0.4566	0.1583	-0.102
Mof_H 	H 	0.1019	0.4724	0.1956	0.062
Mof_C 	C 	0.1399	0.4171	0.1727	-0.008
Mof_H 	H 	0.1338	0.4065	0.2196	0.045
Mof_C 	C 	0.3973	0.2588	0.1294	0.325
Mof_C 	C 	0.4845	0.2535	0.1021	-0.115
Mof_C 	C 	0.5492	0.2771	0.1264	0.06
Mof_H 	H 	0.5413	0.2956	0.1633	0.035
Mof_C 	C 	0.6296	0.2747	0.0973	-0.13
Mof_H 	H 	0.6752	0.2909	0.1165	0.091
Mof_C 	C 	0.6421	0.2486	0.0402	0.09
Mof_C 	C 	0.5744	0.2233	0.0172	-0.131
Mof_H 	H 	0.5812	0.2045	0.9805	0.087
Mof_C 	C 	0.4957	0.2258	0.0488	0.059
Mof_H 	H 	0.4506	0.2085	0.0333	0.035
Mof_C 	C 	0.7209	0.2447	0.9998	-0.014
Mof_C 	C 	0.0606	0.2257	0.1151	0.102
Mof_H 	H 	0.0299	0.2405	0.1472	0.018
Mof_C 	C 	0.16	0.2078	0.0503	0.1
Mof_H 	H 	0.2108	0.2063	0.027	0.037
Mof_C 	C 	0.0851	0.1488	0.9957	-0.006
Mof_H 	H 	0.0364	0.1526	0.9577	0.061
Mof_H 	H 	0.1369	0.1453	0.9703	0.062
Mof_C 	C 	0.0699	0.1122	0.0385	-0.125
Mof_C 	C 	0.1358	0.0958	0.0848	0.21
Mof_C 	C 	0.1287	0.0601	0.124	-0.197
Mof_C 	C 	0.0463	0.043	0.1166	0.103
Mof_H 	H 	0.0376	0.0203	0.1441	-0.02
Mof_C 	C 	0.9777	0.0579	0.0709	-0.192
Mof_C 	C 	0.9914	0.093	0.0335	0.199
Mof_C 	C 	0.8891	0.0395	0.0648	0.283
Mof_H 	H 	0.8598	0.0467	0.0157	-0.039
Mof_C 	C 	0.8642	0.1331	0.0203	0.184
Mof_H 	H 	0.8926	0.1441	0.0664	0.005
Mof_H 	H 	0.8451	0.1548	0.9874	0.004
Mof_C 	C 	0.837	0.0586	0.1241	-0.179
Mof_C 	C 	0.8369	0.0426	0.1937	0.107
Mof_H 	H 	0.8656	0.0188	0.2046	-0.019
Mof_C 	C 	0.795	0.0611	0.2483	-0.188
Mof_C 	C 	0.7534	0.0963	0.2314	0.22
Mof_C 	C 	0.7507	0.1129	0.1618	-0.118
Mof_C 	C 	0.7941	0.0934	0.1075	0.204
Mof_C 	C 	0.2023	0.0431	0.1724	0.31
Mof_H 	H 	0.2551	0.0523	0.1521	-0.041
Mof_C 	C 	0.7619	0.1363	0.3405	0.216
Mof_H 	H 	0.8149	0.1449	0.3209	-0.007
Mof_H 	H 	0.7303	0.1598	0.3527	0.005
Mof_N 	N 	0.0952	0.1831	0.0409	-0.09
Mof_N 	N 	0.0294	0.1938	0.0819	-0.087
Mof_N 	N 	0.1414	0.2355	0.0989	-0.145
Mof_O 	O 	0.201	0.3341	0.2135	-0.203
Mof_O 	O 	0.214	0.3336	0.096	0.041
Mof_O 	O 	0.3392	0.2345	0.1089	-0.273
Mof_O 	O 	0.3834	0.2887	0.1659	-0.285
Mof_O 	O 	0.2152	0.1149	0.0928	-0.249
Mof_O 	O 	0.9239	0.10938	0.9859	-0.245
Mof_O 	O 	0.7893	0.11002	0.0366	-0.244
Mof_O 	O 	0.7114	0.1156	0.2844	-0.254
Mof_Cd	Cd	0.23753	0.27879	0.1619	0.464
Mof_C 	C 	0.6989	0.1496	0.1416	-0.009
Mof_H 	H 	0.6415	0.147	0.1585	0.054
Mof_H 	H 	0.6916	0.1526	0.0877	0.058
Mof_C 	C 	0.8344	0.228	0.2014	0.104
Mof_H 	H 	0.8856	0.2425	0.2028	0.013
Mof_C 	C 	0.7092	0.2109	0.2202	0.096
Mof_H 	H 	0.6541	0.2102	0.2365	0.017
Mof_N 	N 	0.7409	0.1841	0.175	-0.089
Mof_N 	N 	0.8212	0.1949	0.1623	-0.087
Mof_N 	N 	0.7686	0.2383	0.2379	-0.156
Mof_C 	C 	0.092	0.5133	0.083	-0.026
Mof_C 	C 	0.084	0.5365	0.022	-0.031
Mof_C 	C 	0.027	0.5727	0.0221	0.088
Mof_C 	C 	0.9451	0.5816	0.0427	-0.137
Mof_H 	H 	0.9235	0.568	0.0816	0.089
Mof_C 	C 	0.9275	0.6315	0.9468	-0.084
Mof_C 	C 	0.0094	0.6225	0.9263	0.03
Mof_H 	H 	0.031	0.6362	0.8873	0.038
Mof_C 	C 	0.0592	0.5932	0.9639	-0.123
Mof_H 	H 	0.1141	0.5872	0.9501	0.084
Mof_C 	C 	0.8953	0.611	0.005	0.079
Mof_C 	C 	0.206	0.9984	0.1704	-0.808
Mof_H 	H 	0.2554	0.9894	0.2028	0.271
Mof_H 	H 	0.1538	0.9877	0.187	0.268
Mof_H 	H 	0.2112	0.9898	0.1202	0.273
Mof_C 	C 	0.8765	0.6652	0.9095	0.239
Mof_O 	O 	0.9011	0.682	0.8542	-0.233
Mof_C 	C 	0.8907	0.9941	0.0688	-0.784
Mof_H 	H 	0.8322	0.9843	0.0652	0.266
Mof_H 	H 	0.9196	0.9839	0.0282	0.264
Mof_H 	H 	0.9214	0.986	0.1154	0.261
Mof_O 	O 	0.794	0.6714	0.9293	-0.283
_end
