# CIF file generated by openbabel 3.1.0, see https://openbabel.org
data_I
_chemical_name_common 'CODSAR_clean'
_cell_length_a 8.7519
_cell_length_b 12.028
_cell_length_c 16.7363
_cell_angle_alpha 90
_cell_angle_beta 90
_cell_angle_gamma 108.932
_space_group_name_H-M_alt 'P 1'
_space_group_name_Hall 'P 1'
loop_
    _symmetry_equiv_pos_as_xyz
    x,y,z
loop_
    _atom_site_label
    _atom_site_type_symbol
    _atom_site_fract_x
    _atom_site_fract_y
    _atom_site_fract_z
    _atom_site_occupancy
    Tb1      Tb       0.57129    0.04760    0.88099    1.000
    Tb2      Tb       0.92871    0.95240    0.38099    1.000
    Tb3      Tb       0.07129    0.04760    0.61901    1.000
    Tb4      Tb       0.42871    0.95240    0.11901    1.000
    H1       H        0.31940    0.82110    0.32710    1.000
    H2       H        0.97450    0.32980    0.42880    1.000
    H3       H        0.22400    0.21050    0.06330    1.000
    H4       H        0.39960    0.47020    0.22800    1.000
    H5       H        0.13290    0.64270    0.96720    1.000
    H6       H        0.89960    0.47020    0.27200    1.000
    H7       H        0.87780    0.53630    0.93610    1.000
    H8       H        0.39430    0.85530    0.49560    1.000
    H9       H        0.02550    0.67020    0.57120    1.000
    H10      H        0.90680    0.35150    0.69630    1.000
    H11      H        0.18340    0.35930    0.59580    1.000
    H12      H        0.40220    0.72320    0.32080    1.000
    H13      H        0.36710    0.35730    0.46720    1.000
    H14      H        0.80890    0.50250    0.59410    1.000
    H15      H        0.37780    0.53630    0.56390    1.000
    H16      H        0.09780    0.27680    0.82080    1.000
    H17      H        0.59780    0.27680    0.67920    1.000
    H18      H        0.19110    0.49750    0.40590    1.000
    H19      H        0.10040    0.52980    0.72800    1.000
    H20      H        0.81940    0.82110    0.17290    1.000
    H21      H        0.46830    0.28030    0.43550    1.000
    H22      H        0.03170    0.71970    0.93550    1.000
    H23      H        0.72400    0.21050    0.43670    1.000
    H24      H        0.10570    0.14470    0.99560    1.000
    H25      H        0.68340    0.35930    0.90420    1.000
    H26      H        0.27600    0.78950    0.56330    1.000
    H27      H        0.77600    0.78950    0.93670    1.000
    H28      H        0.40680    0.35150    0.80370    1.000
    H29      H        0.18060    0.17890    0.82710    1.000
    H30      H        0.60040    0.52980    0.77200    1.000
    H31      H        0.69110    0.49750    0.09410    1.000
    H32      H        0.31660    0.64070    0.09580    1.000
    H33      H        0.52550    0.67020    0.92880    1.000
    H34      H        0.53170    0.71970    0.56450    1.000
    H35      H        0.09320    0.64850    0.30370    1.000
    H36      H        0.59320    0.64850    0.19630    1.000
    H37      H        0.62220    0.46370    0.43610    1.000
    H38      H        0.81660    0.64070    0.40420    1.000
    H39      H        0.68060    0.17890    0.67290    1.000
    H40      H        0.12220    0.46370    0.06390    1.000
    H41      H        0.90220    0.72320    0.17920    1.000
    H42      H        0.86710    0.35730    0.03280    1.000
    H43      H        0.96830    0.28030    0.06450    1.000
    H44      H        0.60570    0.14470    0.50440    1.000
    H45      H        0.47450    0.32980    0.07120    1.000
    H46      H        0.63290    0.64270    0.53280    1.000
    H47      H        0.30890    0.50250    0.90590    1.000
    H48      H        0.89430    0.85530    0.00440    1.000
    C1       C        0.73180    0.60690    0.36907    1.000
    C2       C        0.88410    0.49910    0.88806    1.000
    C3       C        0.98270    0.50490    0.23630    1.000
    C4       C        0.27830    0.33770    0.70155    1.000
    C5       C        0.77830    0.33770    0.79845    1.000
    C6       C        0.86890    0.29830    0.07194    1.000
    C7       C        0.51730    0.49510    0.73630    1.000
    C8       C        0.49040    0.45040    0.33535    1.000
    C9       C        0.61590    0.50090    0.38806    1.000
    C10      C        0.78600    0.80250    0.99400    1.000
    C11      C        0.16670    0.86160    0.48020    1.000
    C12      C        0.86860    0.39970    0.51380    1.000
    C13      C        0.39440    0.79420    0.29622    1.000
    C14      C        0.26820    0.39310    0.63093    1.000
    C15      C        0.51570    0.60190    0.95740    1.000
    C16      C        0.88580    0.50140    0.55600    1.000
    C17      C        0.77300    0.81170    0.55718    1.000
    C18      C        0.59840    0.61160    0.24461    1.000
    C19      C        0.05780    0.88760    0.20589    1.000
    C20      C        0.44220    0.11240    0.70589    1.000
    C21      C        0.55780    0.88760    0.29411    1.000
    C22      C        0.50960    0.54960    0.66465    1.000
    C23      C        0.48430    0.39810    0.04260    1.000
    C24      C        0.72170    0.66230    0.29845    1.000
    C25      C        0.98430    0.39810    0.45740    1.000
    C26      C        0.28600    0.80250    0.50600    1.000
    C27      C        0.11420    0.49860    0.44400    1.000
    C28      C        0.13110    0.70170    0.92806    1.000
    C29      C        0.33330    0.13840    0.98020    1.000
    C30      C        0.90160    0.38840    0.74461    1.000
    C31      C        0.36860    0.39970    0.98620    1.000
    C32      C        0.63110    0.70170    0.57194    1.000
    C33      C        0.40160    0.38840    0.75539    1.000
    C34      C        0.01730    0.49510    0.76370    1.000
    C35      C        0.38580    0.50140    0.94400    1.000
    C36      C        0.27300    0.81170    0.94282    1.000
    C37      C        0.61420    0.49860    0.05600    1.000
    C38      C        0.23180    0.60690    0.13093    1.000
    C39      C        0.94220    0.11240    0.79411    1.000
    C40      C        0.48270    0.50490    0.26370    1.000
    C41      C        0.22700    0.18830    0.44282    1.000
    C42      C        0.71400    0.19750    0.49400    1.000
    C43      C        0.22170    0.66230    0.20155    1.000
    C44      C        0.10560    0.20580    0.79622    1.000
    C45      C        0.21400    0.19750    0.00600    1.000
    C46      C        0.00960    0.54960    0.83535    1.000
    C47      C        0.99040    0.45040    0.16465    1.000
    C48      C        0.76820    0.39310    0.86907    1.000
    C49      C        0.89440    0.79420    0.20378    1.000
    C50      C        0.38410    0.49910    0.61194    1.000
    C51      C        0.66670    0.86160    0.01980    1.000
    C52      C        0.09840    0.61160    0.25539    1.000
    C53      C        0.72700    0.18830    0.05718    1.000
    C54      C        0.83330    0.13840    0.51980    1.000
    C55      C        0.13140    0.60030    0.48620    1.000
    C56      C        0.63140    0.60030    0.01380    1.000
    C57      C        0.36890    0.29830    0.42806    1.000
    C58      C        0.11590    0.50090    0.11194    1.000
    C59      C        0.01570    0.60190    0.54260    1.000
    C60      C        0.60560    0.20580    0.70378    1.000
    O1       O        0.73290    0.30630    0.53220    1.000
    O2       O        0.14220    0.93410    0.52630    1.000
    O3       O        0.86830    0.34513    0.14954    1.000
    O4       O        0.69500    0.17180    0.98436    1.000
    O5       O        0.89640    0.16020    0.58661    1.000
    O6       O        0.35780    0.06590    0.02630    1.000
    O7       O        0.10360    0.83980    0.41339    1.000
    O8       O        0.15840    0.12470    0.38593    1.000
    O9       O        0.85780    0.06590    0.47370    1.000
    O10      O        0.26710    0.69370    0.46780    1.000
    O11      O        0.85470    0.10266    0.85418    1.000
    O12      O        0.13170    0.65487    0.85046    1.000
    O13      O        0.36830    0.34513    0.35046    1.000
    O14      O        0.80500    0.82820    0.48436    1.000
    O15      O        0.30500    0.82820    0.01564    1.000
    O16      O        0.64530    0.89734    0.35418    1.000
    O17      O        0.60360    0.83980    0.08661    1.000
    O18      O        0.65840    0.12470    0.11407    1.000
    O19      O        0.14530    0.89734    0.14582    1.000
    O20      O        0.84160    0.87530    0.61407    1.000
    O21      O        0.76710    0.69370    0.03220    1.000
    O22      O        0.40560    0.05010    0.76750    1.000
    O23      O        0.90560    0.05010    0.73250    1.000
    O24      O        0.83900    0.77103    0.28508    1.000
    O25      O        0.59440    0.94990    0.23250    1.000
    O26      O        0.23290    0.30630    0.96780    1.000
    O27      O        0.63170    0.65487    0.64954    1.000
    O28      O        0.39640    0.16020    0.91339    1.000
    O29      O        0.34160    0.87530    0.88593    1.000
    O30      O        0.66100    0.22897    0.78508    1.000
    O31      O        0.64220    0.93410    0.97370    1.000
    O32      O        0.09440    0.94990    0.26750    1.000
    O33      O        0.35470    0.10266    0.64582    1.000
    O34      O        0.33900    0.77103    0.21492    1.000
    O35      O        0.19500    0.17180    0.51564    1.000
    O36      O        0.16100    0.22897    0.71492    1.000
