data_functionalizedCrystal
_audit_creation_method	'EQeq! by Chris Wilmer'
_symmetry_space_group_name_H-M	'P1'
_symmetry_Int_Tables_number	1
_symmetry_cell_setting	triclinic
loop_
_symmetry_equiv_pos_as_xyz
  x,y,z
_cell_length_a	14.6315
_cell_length_b	24.776
_cell_length_c	33.169
_cell_angle_alpha	90
_cell_angle_beta	90
_cell_angle_gamma	90
loop_
_atom_site_label
_atom_site_type_symbol
_atom_site_fract_x
_atom_site_fract_y
_atom_site_fract_z
_atom_site_charge
Mof_Cu	Cu	0.56113	0.17568	0.59036	0.896
Mof_C 	C 	0.5078	0.0799	0.54442	0.41
Mof_C 	C 	0.4293	0.0528	0.5215	-0.286
Mof_H 	H 	0.4539	0.0336	0.4985	0.132
Mof_H 	H 	0.4001	0.0266	0.539	0.121
Mof_C 	C 	0.3596	0.1057	0.4685	0.056
Mof_H 	H 	0.4023	0.0904	0.4512	0.024
Mof_C 	C 	0.3005	0.114	0.5329	0.062
Mof_H 	H 	0.3023	0.1046	0.56	0.015
Mof_C 	C 	0.2969	0.142	0.4537	-0.113
Mof_H 	H 	0.2974	0.1512	0.4266	0.071
Mof_C 	C 	0.2369	0.1498	0.51971	-0.116
Mof_H 	H 	0.1953	0.1646	0.5379	0.066
Mof_C 	C 	0.2333	0.1647	0.4793	0.042
Mof_C 	C 	0.1612	0.2016	0.4636	0.068
Mof_C 	C 	0.1437	0.2044	0.4227	-0.144
Mof_H 	H 	0.1773	0.1834	0.4048	0.078
Mof_C 	C 	0.1078	0.2335	0.48844	-0.14
Mof_H 	H 	0.1169	0.2326	0.5162	0.078
Mof_C 	C 	0.0766	0.2382	0.40847	0.085
Mof_H 	H 	0.0657	0.2394	0.3809	-0.014
Mof_C 	C 	0.0417	0.2663	0.47258	0.094
Mof_H 	H 	0.0063	0.287	0.49	0.003
Mof_N 	N 	0.36	0.0922	0.50743	-0.088
Mof_N 	N 	0.0261	0.26955	0.43273	-0.217
Mof_O 	O 	0.4861	0.1222	0.5627	-0.441
Mof_O 	O 	0.5818	0.05592	0.54412	-0.402
Mof_Cu	Cu	0.56113	0.67568	0.09036	0.897
Mof_C 	C 	0.5078	0.5799	0.04442	0.411
Mof_C 	C 	0.4293	0.5528	0.0215	-0.285
Mof_H 	H 	0.4539	0.5336	0.9985	0.133
Mof_H 	H 	0.4001	0.5266	0.039	0.122
Mof_C 	C 	0.3596	0.6057	0.9685	0.058
Mof_H 	H 	0.4023	0.5904	0.9512	0.025
Mof_C 	C 	0.3005	0.614	0.0329	0.064
Mof_H 	H 	0.3023	0.6046	0.06	0.016
Mof_C 	C 	0.2969	0.642	0.9537	-0.113
Mof_H 	H 	0.2974	0.6512	0.9266	0.073
Mof_C 	C 	0.2369	0.6498	0.01971	-0.117
Mof_H 	H 	0.1953	0.6646	0.0379	0.067
Mof_C 	C 	0.2333	0.6647	0.9793	0.044
Mof_C 	C 	0.1612	0.7016	0.9636	0.068
Mof_C 	C 	0.1437	0.7044	0.9227	-0.142
Mof_H 	H 	0.1773	0.6834	0.9048	0.079
Mof_C 	C 	0.1078	0.7335	0.98844	-0.137
Mof_H 	H 	0.1169	0.7326	0.0162	0.078
Mof_C 	C 	0.0766	0.7382	0.90847	0.086
Mof_H 	H 	0.0657	0.7394	0.8809	-0.012
Mof_C 	C 	0.0417	0.7663	0.97258	0.094
Mof_H 	H 	0.0063	0.787	0.99	0.005
Mof_N 	N 	0.36	0.5922	0.00743	-0.088
Mof_N 	N 	0.0261	0.76955	0.93273	-0.216
Mof_O 	O 	0.4861	0.6222	0.0627	-0.441
Mof_O 	O 	0.5818	0.55592	0.04412	-0.402
Mof_Cu	Cu	0.06113	0.17568	0.09036	0.897
Mof_C 	C 	0.0078	0.0799	0.04442	0.407
Mof_C 	C 	0.9293	0.0528	0.0215	-0.281
Mof_H 	H 	0.9539	0.0336	0.9985	0.132
Mof_H 	H 	0.9001	0.0266	0.039	0.122
Mof_C 	C 	0.8596	0.1057	0.9685	0.056
Mof_H 	H 	0.9023	0.0904	0.9512	0.026
Mof_C 	C 	0.8005	0.114	0.0329	0.063
Mof_H 	H 	0.8023	0.1046	0.06	0.016
Mof_C 	C 	0.7969	0.142	0.9537	-0.111
Mof_H 	H 	0.7974	0.1512	0.9266	0.072
Mof_C 	C 	0.7369	0.1498	0.01971	-0.114
Mof_H 	H 	0.6953	0.1646	0.0379	0.067
Mof_C 	C 	0.7333	0.1647	0.9793	0.041
Mof_C 	C 	0.6612	0.2016	0.9636	0.07
Mof_C 	C 	0.6437	0.2044	0.9227	-0.144
Mof_H 	H 	0.6773	0.1834	0.9048	0.079
Mof_C 	C 	0.6078	0.2335	0.98844	-0.14
Mof_H 	H 	0.6169	0.2326	0.0162	0.08
Mof_C 	C 	0.5766	0.2382	0.90847	0.086
Mof_H 	H 	0.5657	0.2394	0.8809	-0.013
Mof_C 	C 	0.5417	0.2663	0.97258	0.095
Mof_H 	H 	0.5063	0.287	0.99	0.004
Mof_N 	N 	0.86	0.0922	0.00743	-0.087
Mof_N 	N 	0.5261	0.26955	0.93273	-0.217
Mof_O 	O 	0.9861	0.1222	0.0627	-0.438
Mof_O 	O 	0.0818	0.05592	0.04412	-0.402
Mof_Cu	Cu	0.06113	0.67568	0.59036	0.898
Mof_C 	C 	0.0078	0.5799	0.54442	0.412
Mof_C 	C 	0.9293	0.5528	0.5215	-0.286
Mof_H 	H 	0.9539	0.5336	0.4985	0.133
Mof_H 	H 	0.9001	0.5266	0.539	0.123
Mof_C 	C 	0.8596	0.6057	0.4685	0.057
Mof_H 	H 	0.9023	0.5904	0.4512	0.026
Mof_C 	C 	0.8005	0.614	0.5329	0.063
Mof_H 	H 	0.8023	0.6046	0.56	0.016
Mof_C 	C 	0.7969	0.642	0.4537	-0.112
Mof_H 	H 	0.7974	0.6512	0.4266	0.072
Mof_C 	C 	0.7369	0.6498	0.51971	-0.115
Mof_H 	H 	0.6953	0.6646	0.5379	0.067
Mof_C 	C 	0.7333	0.6647	0.4793	0.043
Mof_C 	C 	0.6612	0.7016	0.4636	0.069
Mof_C 	C 	0.6437	0.7044	0.4227	-0.143
Mof_H 	H 	0.6773	0.6834	0.4048	0.079
Mof_C 	C 	0.6078	0.7335	0.48844	-0.139
Mof_H 	H 	0.6169	0.7326	0.5162	0.079
Mof_C 	C 	0.5766	0.7382	0.40847	0.086
Mof_H 	H 	0.5657	0.7394	0.3809	-0.013
Mof_C 	C 	0.5417	0.7663	0.47258	0.095
Mof_H 	H 	0.5063	0.787	0.49	0.005
Mof_N 	N 	0.86	0.5922	0.50743	-0.087
Mof_N 	N 	0.5261	0.76955	0.43273	-0.217
Mof_O 	O 	0.9861	0.6222	0.5627	-0.441
Mof_O 	O 	0.0818	0.55592	0.54412	-0.402
Mof_Cu	Cu	0.18887	0.57432	0.59036	0.897
Mof_C 	C 	0.2422	0.6701	0.54442	0.411
Mof_C 	C 	0.3207	0.6972	0.5215	-0.285
Mof_H 	H 	0.2961	0.7164	0.4985	0.133
Mof_H 	H 	0.3499	0.7234	0.539	0.122
Mof_C 	C 	0.3904	0.6443	0.4685	0.057
Mof_H 	H 	0.3477	0.6596	0.4512	0.026
Mof_C 	C 	0.4495	0.636	0.5329	0.063
Mof_H 	H 	0.4477	0.6454	0.56	0.016
Mof_C 	C 	0.4531	0.608	0.4537	-0.112
Mof_H 	H 	0.4526	0.5988	0.4266	0.072
Mof_C 	C 	0.5131	0.6002	0.51971	-0.115
Mof_H 	H 	0.5547	0.5854	0.5379	0.067
Mof_C 	C 	0.5167	0.5853	0.4793	0.043
Mof_C 	C 	0.5888	0.5484	0.4636	0.069
Mof_C 	C 	0.6063	0.5456	0.4227	-0.143
Mof_H 	H 	0.5727	0.5666	0.4048	0.079
Mof_C 	C 	0.6422	0.5165	0.48844	-0.139
Mof_H 	H 	0.6331	0.5174	0.5162	0.079
Mof_C 	C 	0.6734	0.5118	0.40847	0.086
Mof_H 	H 	0.6843	0.5106	0.3809	-0.013
Mof_C 	C 	0.7083	0.4837	0.47258	0.095
Mof_H 	H 	0.7437	0.463	0.49	0.005
Mof_N 	N 	0.39	0.6578	0.50743	-0.087
Mof_N 	N 	0.7239	0.48045	0.43273	-0.217
Mof_O 	O 	0.2639	0.6278	0.5627	-0.441
Mof_O 	O 	0.1682	0.69408	0.54412	-0.402
Mof_Cu	Cu	0.18887	0.07432	0.09036	0.897
Mof_C 	C 	0.2422	0.1701	0.04442	0.412
Mof_C 	C 	0.3207	0.1972	0.0215	-0.286
Mof_H 	H 	0.2961	0.2164	0.9985	0.133
Mof_H 	H 	0.3499	0.2234	0.039	0.123
Mof_C 	C 	0.3904	0.1443	0.9685	0.057
Mof_H 	H 	0.3477	0.1596	0.9512	0.026
Mof_C 	C 	0.4495	0.136	0.0329	0.063
Mof_H 	H 	0.4477	0.1454	0.06	0.016
Mof_C 	C 	0.4531	0.108	0.9537	-0.112
Mof_H 	H 	0.4526	0.0988	0.9266	0.072
Mof_C 	C 	0.5131	0.1002	0.01971	-0.115
Mof_H 	H 	0.5547	0.0854	0.0379	0.067
Mof_C 	C 	0.5167	0.0853	0.9793	0.042
Mof_C 	C 	0.5888	0.0484	0.9636	0.069
Mof_C 	C 	0.6063	0.0456	0.9227	-0.144
Mof_H 	H 	0.5727	0.0666	0.9048	0.079
Mof_C 	C 	0.6422	0.0165	0.98844	-0.14
Mof_H 	H 	0.6331	0.0174	0.0162	0.08
Mof_C 	C 	0.6734	0.0118	0.90847	0.087
Mof_H 	H 	0.6843	0.0106	0.8809	-0.013
Mof_C 	C 	0.7083	0.9837	0.97258	0.095
Mof_H 	H 	0.7437	0.963	0.99	0.004
Mof_N 	N 	0.39	0.1578	0.00743	-0.087
Mof_N 	N 	0.7239	0.98045	0.93273	-0.217
Mof_O 	O 	0.2639	0.1278	0.0627	-0.441
Mof_O 	O 	0.1682	0.19408	0.04412	-0.403
Mof_Cu	Cu	0.68887	0.57432	0.09036	0.897
Mof_C 	C 	0.7422	0.6701	0.04442	0.411
Mof_C 	C 	0.8207	0.6972	0.0215	-0.284
Mof_H 	H 	0.7961	0.7164	0.9985	0.132
Mof_H 	H 	0.8499	0.7234	0.039	0.122
Mof_C 	C 	0.8904	0.6443	0.9685	0.058
Mof_H 	H 	0.8477	0.6596	0.9512	0.025
Mof_C 	C 	0.9495	0.636	0.0329	0.066
Mof_H 	H 	0.9477	0.6454	0.06	0.015
Mof_C 	C 	0.9531	0.608	0.9537	-0.116
Mof_H 	H 	0.9526	0.5988	0.9266	0.073
Mof_C 	C 	0.0131	0.6002	0.01971	-0.119
Mof_H 	H 	0.0547	0.5854	0.0379	0.068
Mof_C 	C 	0.0167	0.5853	0.9793	0.047
Mof_C 	C 	0.0888	0.5484	0.9636	0.067
Mof_C 	C 	0.1063	0.5456	0.9227	-0.142
Mof_H 	H 	0.0727	0.5666	0.9048	0.079
Mof_C 	C 	0.1422	0.5165	0.98844	-0.137
Mof_H 	H 	0.1331	0.5174	0.0162	0.078
Mof_C 	C 	0.1734	0.5118	0.90847	0.085
Mof_H 	H 	0.1843	0.5106	0.8809	-0.012
Mof_C 	C 	0.2083	0.4837	0.97258	0.094
Mof_H 	H 	0.2437	0.463	0.99	0.005
Mof_N 	N 	0.89	0.6578	0.00743	-0.088
Mof_N 	N 	0.2239	0.48045	0.93273	-0.217
Mof_O 	O 	0.7639	0.6278	0.0627	-0.441
Mof_O 	O 	0.6682	0.69408	0.04412	-0.402
Mof_Cu	Cu	0.68887	0.07432	0.59036	0.897
Mof_C 	C 	0.7422	0.1701	0.54442	0.411
Mof_C 	C 	0.8207	0.1972	0.5215	-0.285
Mof_H 	H 	0.7961	0.2164	0.4985	0.133
Mof_H 	H 	0.8499	0.2234	0.539	0.123
Mof_C 	C 	0.8904	0.1443	0.4685	0.056
Mof_H 	H 	0.8477	0.1596	0.4512	0.026
Mof_C 	C 	0.9495	0.136	0.5329	0.065
Mof_H 	H 	0.9477	0.1454	0.56	0.016
Mof_C 	C 	0.9531	0.108	0.4537	-0.11
Mof_H 	H 	0.9526	0.0988	0.4266	0.072
Mof_C 	C 	0.0131	0.1002	0.51971	-0.116
Mof_H 	H 	0.0547	0.0854	0.5379	0.067
Mof_C 	C 	0.0167	0.0853	0.4793	0.041
Mof_C 	C 	0.0888	0.0484	0.4636	0.07
Mof_C 	C 	0.1063	0.0456	0.4227	-0.144
Mof_H 	H 	0.0727	0.0666	0.4048	0.079
Mof_C 	C 	0.1422	0.0165	0.48844	-0.141
Mof_H 	H 	0.1331	0.0174	0.5162	0.08
Mof_C 	C 	0.1734	0.0118	0.40847	0.086
Mof_H 	H 	0.1843	0.0106	0.3809	-0.013
Mof_C 	C 	0.2083	0.9837	0.47258	0.097
Mof_H 	H 	0.2437	0.963	0.49	0.004
Mof_N 	N 	0.89	0.1578	0.50743	-0.087
Mof_N 	N 	0.2239	0.98045	0.43273	-0.217
Mof_O 	O 	0.7639	0.1278	0.5627	-0.441
Mof_O 	O 	0.6682	0.19408	0.54412	-0.402
Mof_Cu	Cu	0.18887	0.17568	0.15964	0.897
Mof_C 	C 	0.2422	0.0799	0.20558	0.411
Mof_C 	C 	0.3207	0.0528	0.2285	-0.285
Mof_H 	H 	0.2961	0.0336	0.2515	0.133
Mof_H 	H 	0.3499	0.0266	0.211	0.122
Mof_C 	C 	0.3904	0.1057	0.2815	0.057
Mof_H 	H 	0.3477	0.0904	0.2988	0.025
Mof_C 	C 	0.4495	0.114	0.2171	0.063
Mof_H 	H 	0.4477	0.1046	0.19	0.016
Mof_C 	C 	0.4531	0.142	0.2963	-0.112
Mof_H 	H 	0.4526	0.1512	0.3234	0.072
Mof_C 	C 	0.5131	0.1498	0.23029	-0.115
Mof_H 	H 	0.5547	0.1646	0.2121	0.067
Mof_C 	C 	0.5167	0.1647	0.2707	0.043
Mof_C 	C 	0.5888	0.2016	0.2864	0.069
Mof_C 	C 	0.6063	0.2044	0.3273	-0.143
Mof_H 	H 	0.5727	0.1834	0.3452	0.079
Mof_C 	C 	0.6422	0.2335	0.26156	-0.139
Mof_H 	H 	0.6331	0.2326	0.2338	0.079
Mof_C 	C 	0.6734	0.2382	0.34153	0.086
Mof_H 	H 	0.6843	0.2394	0.3691	-0.013
Mof_C 	C 	0.7083	0.2663	0.27742	0.095
Mof_H 	H 	0.7437	0.287	0.26	0.005
Mof_N 	N 	0.39	0.0922	0.24257	-0.087
Mof_N 	N 	0.7239	0.26955	0.31727	-0.217
Mof_O 	O 	0.2639	0.1222	0.1873	-0.441
Mof_O 	O 	0.1682	0.05592	0.20588	-0.403
Mof_Cu	Cu	0.18887	0.67568	0.65964	0.897
Mof_C 	C 	0.2422	0.5799	0.70558	0.411
Mof_C 	C 	0.3207	0.5528	0.7285	-0.285
Mof_H 	H 	0.2961	0.5336	0.7515	0.133
Mof_H 	H 	0.3499	0.5266	0.711	0.122
Mof_C 	C 	0.3904	0.6057	0.7815	0.057
Mof_H 	H 	0.3477	0.5904	0.7988	0.026
Mof_C 	C 	0.4495	0.614	0.7171	0.063
Mof_H 	H 	0.4477	0.6046	0.69	0.016
Mof_C 	C 	0.4531	0.642	0.7963	-0.112
Mof_H 	H 	0.4526	0.6512	0.8234	0.072
Mof_C 	C 	0.5131	0.6498	0.73029	-0.115
Mof_H 	H 	0.5547	0.6646	0.7121	0.067
Mof_C 	C 	0.5167	0.6647	0.7707	0.043
Mof_C 	C 	0.5888	0.7016	0.7864	0.069
Mof_C 	C 	0.6063	0.7044	0.8273	-0.143
Mof_H 	H 	0.5727	0.6834	0.8452	0.079
Mof_C 	C 	0.6422	0.7335	0.76156	-0.139
Mof_H 	H 	0.6331	0.7326	0.7338	0.079
Mof_C 	C 	0.6734	0.7382	0.84153	0.086
Mof_H 	H 	0.6843	0.7394	0.8691	-0.013
Mof_C 	C 	0.7083	0.7663	0.77742	0.095
Mof_H 	H 	0.7437	0.787	0.76	0.004
Mof_N 	N 	0.39	0.5922	0.74257	-0.087
Mof_N 	N 	0.7239	0.76955	0.81727	-0.217
Mof_O 	O 	0.2639	0.6222	0.6873	-0.441
Mof_O 	O 	0.1682	0.55592	0.70588	-0.402
Mof_Cu	Cu	0.68887	0.17568	0.65964	0.897
Mof_C 	C 	0.7422	0.0799	0.70558	0.411
Mof_C 	C 	0.8207	0.0528	0.7285	-0.285
Mof_H 	H 	0.7961	0.0336	0.7515	0.133
Mof_H 	H 	0.8499	0.0266	0.711	0.123
Mof_C 	C 	0.8904	0.1057	0.7815	0.057
Mof_H 	H 	0.8477	0.0904	0.7988	0.026
Mof_C 	C 	0.9495	0.114	0.7171	0.065
Mof_H 	H 	0.9477	0.1046	0.69	0.016
Mof_C 	C 	0.9531	0.142	0.7963	-0.111
Mof_H 	H 	0.9526	0.1512	0.8234	0.072
Mof_C 	C 	0.0131	0.1498	0.73029	-0.116
Mof_H 	H 	0.0547	0.1646	0.7121	0.067
Mof_C 	C 	0.0167	0.1647	0.7707	0.042
Mof_C 	C 	0.0888	0.2016	0.7864	0.069
Mof_C 	C 	0.1063	0.2044	0.8273	-0.143
Mof_H 	H 	0.0727	0.1834	0.8452	0.079
Mof_C 	C 	0.1422	0.2335	0.76156	-0.139
Mof_H 	H 	0.1331	0.2326	0.7338	0.079
Mof_C 	C 	0.1734	0.2382	0.84153	0.086
Mof_H 	H 	0.1843	0.2394	0.8691	-0.013
Mof_C 	C 	0.2083	0.2663	0.77742	0.095
Mof_H 	H 	0.2437	0.287	0.76	0.004
Mof_N 	N 	0.89	0.0922	0.74257	-0.088
Mof_N 	N 	0.2239	0.26955	0.81727	-0.217
Mof_O 	O 	0.7639	0.1222	0.6873	-0.441
Mof_O 	O 	0.6682	0.05592	0.70588	-0.402
Mof_Cu	Cu	0.68887	0.67568	0.15964	0.897
Mof_C 	C 	0.7422	0.5799	0.20558	0.411
Mof_C 	C 	0.8207	0.5528	0.2285	-0.285
Mof_H 	H 	0.7961	0.5336	0.2515	0.133
Mof_H 	H 	0.8499	0.5266	0.211	0.123
Mof_C 	C 	0.8904	0.6057	0.2815	0.057
Mof_H 	H 	0.8477	0.5904	0.2988	0.025
Mof_C 	C 	0.9495	0.614	0.2171	0.063
Mof_H 	H 	0.9477	0.6046	0.19	0.016
Mof_C 	C 	0.9531	0.642	0.2963	-0.113
Mof_H 	H 	0.9526	0.6512	0.3234	0.072
Mof_C 	C 	0.0131	0.6498	0.23029	-0.115
Mof_H 	H 	0.0547	0.6646	0.2121	0.067
Mof_C 	C 	0.0167	0.6647	0.2707	0.043
Mof_C 	C 	0.0888	0.7016	0.2864	0.069
Mof_C 	C 	0.1063	0.7044	0.3273	-0.143
Mof_H 	H 	0.0727	0.6834	0.3452	0.079
Mof_C 	C 	0.1422	0.7335	0.26156	-0.139
Mof_H 	H 	0.1331	0.7326	0.2338	0.079
Mof_C 	C 	0.1734	0.7382	0.34153	0.086
Mof_H 	H 	0.1843	0.7394	0.3691	-0.013
Mof_C 	C 	0.2083	0.7663	0.27742	0.095
Mof_H 	H 	0.2437	0.787	0.26	0.005
Mof_N 	N 	0.89	0.5922	0.24257	-0.087
Mof_N 	N 	0.2239	0.76955	0.31727	-0.217
Mof_O 	O 	0.7639	0.6222	0.1873	-0.441
Mof_O 	O 	0.6682	0.55592	0.20588	-0.402
Mof_Cu	Cu	0.56113	0.57432	0.15964	0.897
Mof_C 	C 	0.5078	0.6701	0.20558	0.411
Mof_C 	C 	0.4293	0.6972	0.2285	-0.285
Mof_H 	H 	0.4539	0.7164	0.2515	0.133
Mof_H 	H 	0.4001	0.7234	0.211	0.122
Mof_C 	C 	0.3596	0.6443	0.2815	0.057
Mof_H 	H 	0.4023	0.6596	0.2988	0.026
Mof_C 	C 	0.3005	0.636	0.2171	0.063
Mof_H 	H 	0.3023	0.6454	0.19	0.016
Mof_C 	C 	0.2969	0.608	0.2963	-0.112
Mof_H 	H 	0.2974	0.5988	0.3234	0.072
Mof_C 	C 	0.2369	0.6002	0.23029	-0.115
Mof_H 	H 	0.1953	0.5854	0.2121	0.067
Mof_C 	C 	0.2333	0.5853	0.2707	0.043
Mof_C 	C 	0.1612	0.5484	0.2864	0.069
Mof_C 	C 	0.1437	0.5456	0.3273	-0.143
Mof_H 	H 	0.1773	0.5666	0.3452	0.079
Mof_C 	C 	0.1078	0.5165	0.26156	-0.139
Mof_H 	H 	0.1169	0.5174	0.2338	0.079
Mof_C 	C 	0.0766	0.5118	0.34153	0.086
Mof_H 	H 	0.0657	0.5106	0.3691	-0.013
Mof_C 	C 	0.0417	0.4837	0.27742	0.095
Mof_H 	H 	0.0063	0.463	0.26	0.004
Mof_N 	N 	0.36	0.6578	0.24257	-0.087
Mof_N 	N 	0.0261	0.48045	0.31727	-0.217
Mof_O 	O 	0.4861	0.6278	0.1873	-0.441
Mof_O 	O 	0.5818	0.69408	0.20588	-0.402
Mof_Cu	Cu	0.56113	0.07432	0.65964	0.897
Mof_C 	C 	0.5078	0.1701	0.70558	0.411
Mof_C 	C 	0.4293	0.1972	0.7285	-0.285
Mof_H 	H 	0.4539	0.2164	0.7515	0.133
Mof_H 	H 	0.4001	0.2234	0.711	0.122
Mof_C 	C 	0.3596	0.1443	0.7815	0.057
Mof_H 	H 	0.4023	0.1596	0.7988	0.026
Mof_C 	C 	0.3005	0.136	0.7171	0.063
Mof_H 	H 	0.3023	0.1454	0.69	0.016
Mof_C 	C 	0.2969	0.108	0.7963	-0.112
Mof_H 	H 	0.2974	0.0988	0.8234	0.072
Mof_C 	C 	0.2369	0.1002	0.73029	-0.115
Mof_H 	H 	0.1953	0.0854	0.7121	0.067
Mof_C 	C 	0.2333	0.0853	0.7707	0.042
Mof_C 	C 	0.1612	0.0484	0.7864	0.069
Mof_C 	C 	0.1437	0.0456	0.8273	-0.143
Mof_H 	H 	0.1773	0.0666	0.8452	0.079
Mof_C 	C 	0.1078	0.0165	0.76156	-0.142
Mof_H 	H 	0.1169	0.0174	0.7338	0.08
Mof_C 	C 	0.0766	0.0118	0.84153	0.085
Mof_H 	H 	0.0657	0.0106	0.8691	-0.013
Mof_C 	C 	0.0417	0.9837	0.77742	0.097
Mof_H 	H 	0.0063	0.963	0.76	0.004
Mof_N 	N 	0.36	0.1578	0.74257	-0.087
Mof_N 	N 	0.0261	0.98045	0.81727	-0.216
Mof_O 	O 	0.4861	0.1278	0.6873	-0.441
Mof_O 	O 	0.5818	0.19408	0.70588	-0.402
Mof_Cu	Cu	0.06113	0.57432	0.65964	0.898
Mof_C 	C 	0.0078	0.6701	0.70558	0.413
Mof_C 	C 	0.9293	0.6972	0.7285	-0.286
Mof_H 	H 	0.9539	0.7164	0.7515	0.133
Mof_H 	H 	0.9001	0.7234	0.711	0.123
Mof_C 	C 	0.8596	0.6443	0.7815	0.057
Mof_H 	H 	0.9023	0.6596	0.7988	0.025
Mof_C 	C 	0.8005	0.636	0.7171	0.063
Mof_H 	H 	0.8023	0.6454	0.69	0.016
Mof_C 	C 	0.7969	0.608	0.7963	-0.112
Mof_H 	H 	0.7974	0.5988	0.8234	0.072
Mof_C 	C 	0.7369	0.6002	0.73029	-0.115
Mof_H 	H 	0.6953	0.5854	0.7121	0.067
Mof_C 	C 	0.7333	0.5853	0.7707	0.043
Mof_C 	C 	0.6612	0.5484	0.7864	0.069
Mof_C 	C 	0.6437	0.5456	0.8273	-0.143
Mof_H 	H 	0.6773	0.5666	0.8452	0.079
Mof_C 	C 	0.6078	0.5165	0.76156	-0.139
Mof_H 	H 	0.6169	0.5174	0.7338	0.079
Mof_C 	C 	0.5766	0.5118	0.84153	0.086
Mof_H 	H 	0.5657	0.5106	0.8691	-0.013
Mof_C 	C 	0.5417	0.4837	0.77742	0.095
Mof_H 	H 	0.5063	0.463	0.76	0.004
Mof_N 	N 	0.86	0.6578	0.74257	-0.087
Mof_N 	N 	0.5261	0.48045	0.81727	-0.217
Mof_O 	O 	0.9861	0.6278	0.6873	-0.442
Mof_O 	O 	0.0818	0.69408	0.70588	-0.403
Mof_Cu	Cu	0.06113	0.07432	0.15964	0.897
Mof_C 	C 	0.0078	0.1701	0.20558	0.408
Mof_C 	C 	0.9293	0.1972	0.2285	-0.283
Mof_H 	H 	0.9539	0.2164	0.2515	0.133
Mof_H 	H 	0.9001	0.2234	0.211	0.122
Mof_C 	C 	0.8596	0.1443	0.2815	0.057
Mof_H 	H 	0.9023	0.1596	0.2988	0.026
Mof_C 	C 	0.8005	0.136	0.2171	0.064
Mof_H 	H 	0.8023	0.1454	0.19	0.016
Mof_C 	C 	0.7969	0.108	0.2963	-0.112
Mof_H 	H 	0.7974	0.0988	0.3234	0.073
Mof_C 	C 	0.7369	0.1002	0.23029	-0.115
Mof_H 	H 	0.6953	0.0854	0.2121	0.067
Mof_C 	C 	0.7333	0.0853	0.2707	0.043
Mof_C 	C 	0.6612	0.0484	0.2864	0.069
Mof_C 	C 	0.6437	0.0456	0.3273	-0.143
Mof_H 	H 	0.6773	0.0666	0.3452	0.079
Mof_C 	C 	0.6078	0.0165	0.26156	-0.139
Mof_H 	H 	0.6169	0.0174	0.2338	0.079
Mof_C 	C 	0.5766	0.0118	0.34153	0.086
Mof_H 	H 	0.5657	0.0106	0.3691	-0.013
Mof_C 	C 	0.5417	0.9837	0.27742	0.094
Mof_H 	H 	0.5063	0.963	0.26	0.005
Mof_N 	N 	0.86	0.1578	0.24257	-0.088
Mof_N 	N 	0.5261	0.98045	0.31727	-0.217
Mof_O 	O 	0.9861	0.1278	0.1873	-0.439
Mof_O 	O 	0.0818	0.19408	0.20588	-0.402
Mof_Cu	Cu	0.43887	0.82432	0.40964	0.897
Mof_C 	C 	0.4922	0.9201	0.45558	0.411
Mof_C 	C 	0.5707	0.9472	0.4785	-0.285
Mof_H 	H 	0.5461	0.9664	0.5015	0.133
Mof_H 	H 	0.5999	0.9734	0.461	0.122
Mof_C 	C 	0.6404	0.8943	0.5315	0.057
Mof_H 	H 	0.5977	0.9096	0.5488	0.025
Mof_C 	C 	0.6995	0.886	0.4671	0.063
Mof_H 	H 	0.6977	0.8954	0.44	0.016
Mof_C 	C 	0.7031	0.858	0.5463	-0.112
Mof_H 	H 	0.7026	0.8488	0.5734	0.072
Mof_C 	C 	0.7631	0.8502	0.48029	-0.115
Mof_H 	H 	0.8047	0.8354	0.4621	0.067
Mof_C 	C 	0.7667	0.8353	0.5207	0.043
Mof_C 	C 	0.8388	0.7984	0.5364	0.069
Mof_C 	C 	0.8563	0.7956	0.5773	-0.143
Mof_H 	H 	0.8227	0.8166	0.5952	0.079
Mof_C 	C 	0.8922	0.7665	0.51156	-0.139
Mof_H 	H 	0.8831	0.7674	0.4838	0.079
Mof_C 	C 	0.9234	0.7618	0.59153	0.086
Mof_H 	H 	0.9343	0.7606	0.6191	-0.013
Mof_C 	C 	0.9583	0.7337	0.52742	0.095
Mof_H 	H 	0.9937	0.713	0.51	0.004
Mof_N 	N 	0.64	0.9078	0.49257	-0.087
Mof_N 	N 	0.9739	0.73045	0.56727	-0.217
Mof_O 	O 	0.5139	0.8778	0.4373	-0.441
Mof_O 	O 	0.4182	0.94408	0.45588	-0.402
Mof_Cu	Cu	0.43887	0.32432	0.90964	0.897
Mof_C 	C 	0.4922	0.4201	0.95558	0.411
Mof_C 	C 	0.5707	0.4472	0.9785	-0.285
Mof_H 	H 	0.5461	0.4664	0.0015	0.133
Mof_H 	H 	0.5999	0.4734	0.961	0.122
Mof_C 	C 	0.6404	0.3943	0.0315	0.058
Mof_H 	H 	0.5977	0.4096	0.0488	0.025
Mof_C 	C 	0.6995	0.386	0.9671	0.064
Mof_H 	H 	0.6977	0.3954	0.94	0.016
Mof_C 	C 	0.7031	0.358	0.0463	-0.113
Mof_H 	H 	0.7026	0.3488	0.0734	0.073
Mof_C 	C 	0.7631	0.3502	0.98029	-0.117
Mof_H 	H 	0.8047	0.3354	0.9621	0.067
Mof_C 	C 	0.7667	0.3353	0.0207	0.044
Mof_C 	C 	0.8388	0.2984	0.0364	0.068
Mof_C 	C 	0.8563	0.2956	0.0773	-0.142
Mof_H 	H 	0.8227	0.3166	0.0952	0.079
Mof_C 	C 	0.8922	0.2665	0.01156	-0.137
Mof_H 	H 	0.8831	0.2674	0.9838	0.078
Mof_C 	C 	0.9234	0.2618	0.09153	0.086
Mof_H 	H 	0.9343	0.2606	0.1191	-0.012
Mof_C 	C 	0.9583	0.2337	0.02742	0.094
Mof_H 	H 	0.9937	0.213	0.01	0.005
Mof_N 	N 	0.64	0.4078	0.99257	-0.088
Mof_N 	N 	0.9739	0.23045	0.06727	-0.216
Mof_O 	O 	0.5139	0.3778	0.9373	-0.441
Mof_O 	O 	0.4182	0.44408	0.95588	-0.402
Mof_Cu	Cu	0.93887	0.82432	0.90964	0.897
Mof_C 	C 	0.9922	0.9201	0.95558	0.407
Mof_C 	C 	0.0707	0.9472	0.9785	-0.281
Mof_H 	H 	0.0461	0.9664	0.0015	0.132
Mof_H 	H 	0.0999	0.9734	0.961	0.122
Mof_C 	C 	0.1404	0.8943	0.0315	0.056
Mof_H 	H 	0.0977	0.9096	0.0488	0.026
Mof_C 	C 	0.1995	0.886	0.9671	0.063
Mof_H 	H 	0.1977	0.8954	0.94	0.016
Mof_C 	C 	0.2031	0.858	0.0463	-0.111
Mof_H 	H 	0.2026	0.8488	0.0734	0.072
Mof_C 	C 	0.2631	0.8502	0.98029	-0.114
Mof_H 	H 	0.3047	0.8354	0.9621	0.067
Mof_C 	C 	0.2667	0.8353	0.0207	0.041
Mof_C 	C 	0.3388	0.7984	0.0364	0.07
Mof_C 	C 	0.3563	0.7956	0.0773	-0.144
Mof_H 	H 	0.3227	0.8166	0.0952	0.079
Mof_C 	C 	0.3922	0.7665	0.01156	-0.14
Mof_H 	H 	0.3831	0.7674	0.9838	0.08
Mof_C 	C 	0.4234	0.7618	0.09153	0.086
Mof_H 	H 	0.4343	0.7606	0.1191	-0.013
Mof_C 	C 	0.4583	0.7337	0.02742	0.095
Mof_H 	H 	0.4937	0.713	0.01	0.004
Mof_N 	N 	0.14	0.9078	0.99257	-0.087
Mof_N 	N 	0.4739	0.73045	0.06727	-0.217
Mof_O 	O 	0.0139	0.8778	0.9373	-0.438
Mof_O 	O 	0.9182	0.94408	0.95588	-0.402
Mof_Cu	Cu	0.93887	0.32432	0.40964	0.898
Mof_C 	C 	0.9922	0.4201	0.45558	0.412
Mof_C 	C 	0.0707	0.4472	0.4785	-0.286
Mof_H 	H 	0.0461	0.4664	0.5015	0.133
Mof_H 	H 	0.0999	0.4734	0.461	0.123
Mof_C 	C 	0.1404	0.3943	0.5315	0.057
Mof_H 	H 	0.0977	0.4096	0.5488	0.026
Mof_C 	C 	0.1995	0.386	0.4671	0.063
Mof_H 	H 	0.1977	0.3954	0.44	0.016
Mof_C 	C 	0.2031	0.358	0.5463	-0.112
Mof_H 	H 	0.2026	0.3488	0.5734	0.072
Mof_C 	C 	0.2631	0.3502	0.48029	-0.115
Mof_H 	H 	0.3047	0.3354	0.4621	0.067
Mof_C 	C 	0.2667	0.3353	0.5207	0.043
Mof_C 	C 	0.3388	0.2984	0.5364	0.069
Mof_C 	C 	0.3563	0.2956	0.5773	-0.143
Mof_H 	H 	0.3227	0.3166	0.5952	0.079
Mof_C 	C 	0.3922	0.2665	0.51156	-0.139
Mof_H 	H 	0.3831	0.2674	0.4838	0.079
Mof_C 	C 	0.4234	0.2618	0.59153	0.086
Mof_H 	H 	0.4343	0.2606	0.6191	-0.013
Mof_C 	C 	0.4583	0.2337	0.52742	0.095
Mof_H 	H 	0.4937	0.213	0.51	0.005
Mof_N 	N 	0.14	0.4078	0.49257	-0.087
Mof_N 	N 	0.4739	0.23045	0.56727	-0.217
Mof_O 	O 	0.0139	0.3778	0.4373	-0.441
Mof_O 	O 	0.9182	0.44408	0.45588	-0.402
Mof_Cu	Cu	0.81113	0.42568	0.40964	0.897
Mof_C 	C 	0.7578	0.3299	0.45558	0.411
Mof_C 	C 	0.6793	0.3028	0.4785	-0.285
Mof_H 	H 	0.7039	0.2836	0.5015	0.133
Mof_H 	H 	0.6501	0.2766	0.461	0.122
Mof_C 	C 	0.6096	0.3557	0.5315	0.057
Mof_H 	H 	0.6523	0.3404	0.5488	0.026
Mof_C 	C 	0.5505	0.364	0.4671	0.063
Mof_H 	H 	0.5523	0.3546	0.44	0.016
Mof_C 	C 	0.5469	0.392	0.5463	-0.112
Mof_H 	H 	0.5474	0.4012	0.5734	0.072
Mof_C 	C 	0.4869	0.3998	0.48029	-0.115
Mof_H 	H 	0.4453	0.4146	0.4621	0.067
Mof_C 	C 	0.4833	0.4147	0.5207	0.043
Mof_C 	C 	0.4112	0.4516	0.5364	0.069
Mof_C 	C 	0.3937	0.4544	0.5773	-0.143
Mof_H 	H 	0.4273	0.4334	0.5952	0.079
Mof_C 	C 	0.3578	0.4835	0.51156	-0.139
Mof_H 	H 	0.3669	0.4826	0.4838	0.079
Mof_C 	C 	0.3266	0.4882	0.59153	0.086
Mof_H 	H 	0.3157	0.4894	0.6191	-0.013
Mof_C 	C 	0.2917	0.5163	0.52742	0.095
Mof_H 	H 	0.2563	0.537	0.51	0.005
Mof_N 	N 	0.61	0.3422	0.49257	-0.087
Mof_N 	N 	0.2761	0.51955	0.56727	-0.217
Mof_O 	O 	0.7361	0.3722	0.4373	-0.441
Mof_O 	O 	0.8318	0.30592	0.45588	-0.402
Mof_Cu	Cu	0.81113	0.92568	0.90964	0.897
Mof_C 	C 	0.7578	0.8299	0.95558	0.412
Mof_C 	C 	0.6793	0.8028	0.9785	-0.286
Mof_H 	H 	0.7039	0.7836	0.0015	0.133
Mof_H 	H 	0.6501	0.7766	0.961	0.123
Mof_C 	C 	0.6096	0.8557	0.0315	0.057
Mof_H 	H 	0.6523	0.8404	0.0488	0.026
Mof_C 	C 	0.5505	0.864	0.9671	0.063
Mof_H 	H 	0.5523	0.8546	0.94	0.016
Mof_C 	C 	0.5469	0.892	0.0463	-0.112
Mof_H 	H 	0.5474	0.9012	0.0734	0.072
Mof_C 	C 	0.4869	0.8998	0.98029	-0.115
Mof_H 	H 	0.4453	0.9146	0.9621	0.067
Mof_C 	C 	0.4833	0.9147	0.0207	0.042
Mof_C 	C 	0.4112	0.9516	0.0364	0.069
Mof_C 	C 	0.3937	0.9544	0.0773	-0.144
Mof_H 	H 	0.4273	0.9334	0.0952	0.079
Mof_C 	C 	0.3578	0.9835	0.01156	-0.14
Mof_H 	H 	0.3669	0.9826	0.9838	0.08
Mof_C 	C 	0.3266	0.9882	0.09153	0.087
Mof_H 	H 	0.3157	0.9894	0.1191	-0.013
Mof_C 	C 	0.2917	0.0163	0.02742	0.095
Mof_H 	H 	0.2563	0.037	0.01	0.004
Mof_N 	N 	0.61	0.8422	0.99257	-0.087
Mof_N 	N 	0.2761	0.01955	0.06727	-0.217
Mof_O 	O 	0.7361	0.8722	0.9373	-0.441
Mof_O 	O 	0.8318	0.80592	0.95588	-0.403
Mof_Cu	Cu	0.31113	0.42568	0.90964	0.897
Mof_C 	C 	0.2578	0.3299	0.95558	0.411
Mof_C 	C 	0.1793	0.3028	0.9785	-0.284
Mof_H 	H 	0.2039	0.2836	0.0015	0.132
Mof_H 	H 	0.1501	0.2766	0.961	0.122
Mof_C 	C 	0.1096	0.3557	0.0315	0.058
Mof_H 	H 	0.1523	0.3404	0.0488	0.025
Mof_C 	C 	0.0505	0.364	0.9671	0.066
Mof_H 	H 	0.0523	0.3546	0.94	0.015
Mof_C 	C 	0.0469	0.392	0.0463	-0.116
Mof_H 	H 	0.0474	0.4012	0.0734	0.073
Mof_C 	C 	0.9869	0.3998	0.98029	-0.119
Mof_H 	H 	0.9453	0.4146	0.9621	0.068
Mof_C 	C 	0.9833	0.4147	0.0207	0.047
Mof_C 	C 	0.9112	0.4516	0.0364	0.067
Mof_C 	C 	0.8937	0.4544	0.0773	-0.142
Mof_H 	H 	0.9273	0.4334	0.0952	0.079
Mof_C 	C 	0.8578	0.4835	0.01156	-0.137
Mof_H 	H 	0.8669	0.4826	0.9838	0.078
Mof_C 	C 	0.8266	0.4882	0.09153	0.085
Mof_H 	H 	0.8157	0.4894	0.1191	-0.012
Mof_C 	C 	0.7917	0.5163	0.02742	0.094
Mof_H 	H 	0.7563	0.537	0.01	0.005
Mof_N 	N 	0.11	0.3422	0.99257	-0.088
Mof_N 	N 	0.7761	0.51955	0.06727	-0.217
Mof_O 	O 	0.2361	0.3722	0.9373	-0.441
Mof_O 	O 	0.3318	0.30592	0.95588	-0.402
Mof_Cu	Cu	0.31113	0.92568	0.40964	0.897
Mof_C 	C 	0.2578	0.8299	0.45558	0.411
Mof_C 	C 	0.1793	0.8028	0.4785	-0.285
Mof_H 	H 	0.2039	0.7836	0.5015	0.133
Mof_H 	H 	0.1501	0.7766	0.461	0.123
Mof_C 	C 	0.1096	0.8557	0.5315	0.056
Mof_H 	H 	0.1523	0.8404	0.5488	0.026
Mof_C 	C 	0.0505	0.864	0.4671	0.065
Mof_H 	H 	0.0523	0.8546	0.44	0.016
Mof_C 	C 	0.0469	0.892	0.5463	-0.11
Mof_H 	H 	0.0474	0.9012	0.5734	0.072
Mof_C 	C 	0.9869	0.8998	0.48029	-0.116
Mof_H 	H 	0.9453	0.9146	0.4621	0.067
Mof_C 	C 	0.9833	0.9147	0.5207	0.041
Mof_C 	C 	0.9112	0.9516	0.5364	0.07
Mof_C 	C 	0.8937	0.9544	0.5773	-0.144
Mof_H 	H 	0.9273	0.9334	0.5952	0.079
Mof_C 	C 	0.8578	0.9835	0.51156	-0.141
Mof_H 	H 	0.8669	0.9826	0.4838	0.08
Mof_C 	C 	0.8266	0.9882	0.59153	0.086
Mof_H 	H 	0.8157	0.9894	0.6191	-0.013
Mof_C 	C 	0.7917	0.0163	0.52742	0.097
Mof_H 	H 	0.7563	0.037	0.51	0.004
Mof_N 	N 	0.11	0.8422	0.49257	-0.087
Mof_N 	N 	0.7761	0.01955	0.56727	-0.217
Mof_O 	O 	0.2361	0.8722	0.4373	-0.441
Mof_O 	O 	0.3318	0.80592	0.45588	-0.402
Mof_Cu	Cu	0.81113	0.82432	0.84036	0.897
Mof_C 	C 	0.7578	0.9201	0.79442	0.411
Mof_C 	C 	0.6793	0.9472	0.7715	-0.285
Mof_H 	H 	0.7039	0.9664	0.7485	0.133
Mof_H 	H 	0.6501	0.9734	0.789	0.122
Mof_C 	C 	0.6096	0.8943	0.7185	0.057
Mof_H 	H 	0.6523	0.9096	0.7012	0.025
Mof_C 	C 	0.5505	0.886	0.7829	0.063
Mof_H 	H 	0.5523	0.8954	0.81	0.016
Mof_C 	C 	0.5469	0.858	0.7037	-0.112
Mof_H 	H 	0.5474	0.8488	0.6766	0.072
Mof_C 	C 	0.4869	0.8502	0.76971	-0.115
Mof_H 	H 	0.4453	0.8354	0.7879	0.067
Mof_C 	C 	0.4833	0.8353	0.7293	0.043
Mof_C 	C 	0.4112	0.7984	0.7136	0.069
Mof_C 	C 	0.3937	0.7956	0.6727	-0.143
Mof_H 	H 	0.4273	0.8166	0.6548	0.079
Mof_C 	C 	0.3578	0.7665	0.73844	-0.139
Mof_H 	H 	0.3669	0.7674	0.7662	0.079
Mof_C 	C 	0.3266	0.7618	0.65847	0.086
Mof_H 	H 	0.3157	0.7606	0.6309	-0.013
Mof_C 	C 	0.2917	0.7337	0.72258	0.095
Mof_H 	H 	0.2563	0.713	0.74	0.005
Mof_N 	N 	0.61	0.9078	0.75743	-0.087
Mof_N 	N 	0.2761	0.73045	0.68273	-0.217
Mof_O 	O 	0.7361	0.8778	0.8127	-0.441
Mof_O 	O 	0.8318	0.94408	0.79412	-0.403
Mof_Cu	Cu	0.81113	0.32432	0.34036	0.897
Mof_C 	C 	0.7578	0.4201	0.29442	0.411
Mof_C 	C 	0.6793	0.4472	0.2715	-0.285
Mof_H 	H 	0.7039	0.4664	0.2485	0.133
Mof_H 	H 	0.6501	0.4734	0.289	0.122
Mof_C 	C 	0.6096	0.3943	0.2185	0.057
Mof_H 	H 	0.6523	0.4096	0.2012	0.026
Mof_C 	C 	0.5505	0.386	0.2829	0.063
Mof_H 	H 	0.5523	0.3954	0.31	0.016
Mof_C 	C 	0.5469	0.358	0.2037	-0.112
Mof_H 	H 	0.5474	0.3488	0.1766	0.072
Mof_C 	C 	0.4869	0.3502	0.26971	-0.115
Mof_H 	H 	0.4453	0.3354	0.2879	0.067
Mof_C 	C 	0.4833	0.3353	0.2293	0.043
Mof_C 	C 	0.4112	0.2984	0.2136	0.069
Mof_C 	C 	0.3937	0.2956	0.1727	-0.143
Mof_H 	H 	0.4273	0.3166	0.1548	0.079
Mof_C 	C 	0.3578	0.2665	0.23844	-0.139
Mof_H 	H 	0.3669	0.2674	0.2662	0.079
Mof_C 	C 	0.3266	0.2618	0.15847	0.086
Mof_H 	H 	0.3157	0.2606	0.1309	-0.013
Mof_C 	C 	0.2917	0.2337	0.22258	0.095
Mof_H 	H 	0.2563	0.213	0.24	0.004
Mof_N 	N 	0.61	0.4078	0.25743	-0.087
Mof_N 	N 	0.2761	0.23045	0.18273	-0.217
Mof_O 	O 	0.7361	0.3778	0.3127	-0.441
Mof_O 	O 	0.8318	0.44408	0.29412	-0.402
Mof_Cu	Cu	0.31113	0.82432	0.34036	0.897
Mof_C 	C 	0.2578	0.9201	0.29442	0.411
Mof_C 	C 	0.1793	0.9472	0.2715	-0.285
Mof_H 	H 	0.2039	0.9664	0.2485	0.133
Mof_H 	H 	0.1501	0.9734	0.289	0.123
Mof_C 	C 	0.1096	0.8943	0.2185	0.057
Mof_H 	H 	0.1523	0.9096	0.2012	0.026
Mof_C 	C 	0.0505	0.886	0.2829	0.065
Mof_H 	H 	0.0523	0.8954	0.31	0.016
Mof_C 	C 	0.0469	0.858	0.2037	-0.111
Mof_H 	H 	0.0474	0.8488	0.1766	0.072
Mof_C 	C 	0.9869	0.8502	0.26971	-0.116
Mof_H 	H 	0.9453	0.8354	0.2879	0.067
Mof_C 	C 	0.9833	0.8353	0.2293	0.042
Mof_C 	C 	0.9112	0.7984	0.2136	0.069
Mof_C 	C 	0.8937	0.7956	0.1727	-0.143
Mof_H 	H 	0.9273	0.8166	0.1548	0.079
Mof_C 	C 	0.8578	0.7665	0.23844	-0.139
Mof_H 	H 	0.8669	0.7674	0.2662	0.079
Mof_C 	C 	0.8266	0.7618	0.15847	0.086
Mof_H 	H 	0.8157	0.7606	0.1309	-0.013
Mof_C 	C 	0.7917	0.7337	0.22258	0.095
Mof_H 	H 	0.7563	0.713	0.24	0.004
Mof_N 	N 	0.11	0.9078	0.25743	-0.088
Mof_N 	N 	0.7761	0.73045	0.18273	-0.217
Mof_O 	O 	0.2361	0.8778	0.3127	-0.441
Mof_O 	O 	0.3318	0.94408	0.29412	-0.402
Mof_Cu	Cu	0.31113	0.32432	0.84036	0.897
Mof_C 	C 	0.2578	0.4201	0.79442	0.411
Mof_C 	C 	0.1793	0.4472	0.7715	-0.285
Mof_H 	H 	0.2039	0.4664	0.7485	0.133
Mof_H 	H 	0.1501	0.4734	0.789	0.123
Mof_C 	C 	0.1096	0.3943	0.7185	0.057
Mof_H 	H 	0.1523	0.4096	0.7012	0.025
Mof_C 	C 	0.0505	0.386	0.7829	0.063
Mof_H 	H 	0.0523	0.3954	0.81	0.016
Mof_C 	C 	0.0469	0.358	0.7037	-0.113
Mof_H 	H 	0.0474	0.3488	0.6766	0.072
Mof_C 	C 	0.9869	0.3502	0.76971	-0.115
Mof_H 	H 	0.9453	0.3354	0.7879	0.067
Mof_C 	C 	0.9833	0.3353	0.7293	0.043
Mof_C 	C 	0.9112	0.2984	0.7136	0.069
Mof_C 	C 	0.8937	0.2956	0.6727	-0.143
Mof_H 	H 	0.9273	0.3166	0.6548	0.079
Mof_C 	C 	0.8578	0.2665	0.73844	-0.139
Mof_H 	H 	0.8669	0.2674	0.7662	0.079
Mof_C 	C 	0.8266	0.2618	0.65847	0.086
Mof_H 	H 	0.8157	0.2606	0.6309	-0.013
Mof_C 	C 	0.7917	0.2337	0.72258	0.095
Mof_H 	H 	0.7563	0.213	0.74	0.005
Mof_N 	N 	0.11	0.4078	0.75743	-0.087
Mof_N 	N 	0.7761	0.23045	0.68273	-0.217
Mof_O 	O 	0.2361	0.3778	0.8127	-0.441
Mof_O 	O 	0.3318	0.44408	0.79412	-0.402
Mof_Cu	Cu	0.43887	0.42568	0.84036	0.897
Mof_C 	C 	0.4922	0.3299	0.79442	0.411
Mof_C 	C 	0.5707	0.3028	0.7715	-0.285
Mof_H 	H 	0.5461	0.2836	0.7485	0.133
Mof_H 	H 	0.5999	0.2766	0.789	0.122
Mof_C 	C 	0.6404	0.3557	0.7185	0.057
Mof_H 	H 	0.5977	0.3404	0.7012	0.026
Mof_C 	C 	0.6995	0.364	0.7829	0.063
Mof_H 	H 	0.6977	0.3546	0.81	0.016
Mof_C 	C 	0.7031	0.392	0.7037	-0.112
Mof_H 	H 	0.7026	0.4012	0.6766	0.072
Mof_C 	C 	0.7631	0.3998	0.76971	-0.115
Mof_H 	H 	0.8047	0.4146	0.7879	0.067
Mof_C 	C 	0.7667	0.4147	0.7293	0.043
Mof_C 	C 	0.8388	0.4516	0.7136	0.069
Mof_C 	C 	0.8563	0.4544	0.6727	-0.143
Mof_H 	H 	0.8227	0.4334	0.6548	0.079
Mof_C 	C 	0.8922	0.4835	0.73844	-0.139
Mof_H 	H 	0.8831	0.4826	0.7662	0.079
Mof_C 	C 	0.9234	0.4882	0.65847	0.086
Mof_H 	H 	0.9343	0.4894	0.6309	-0.013
Mof_C 	C 	0.9583	0.5163	0.72258	0.095
Mof_H 	H 	0.9937	0.537	0.74	0.004
Mof_N 	N 	0.64	0.3422	0.75743	-0.087
Mof_N 	N 	0.9739	0.51955	0.68273	-0.217
Mof_O 	O 	0.5139	0.3722	0.8127	-0.441
Mof_O 	O 	0.4182	0.30592	0.79412	-0.402
Mof_Cu	Cu	0.43887	0.92568	0.34036	0.897
Mof_C 	C 	0.4922	0.8299	0.29442	0.411
Mof_C 	C 	0.5707	0.8028	0.2715	-0.285
Mof_H 	H 	0.5461	0.7836	0.2485	0.133
Mof_H 	H 	0.5999	0.7766	0.289	0.122
Mof_C 	C 	0.6404	0.8557	0.2185	0.057
Mof_H 	H 	0.5977	0.8404	0.2012	0.026
Mof_C 	C 	0.6995	0.864	0.2829	0.063
Mof_H 	H 	0.6977	0.8546	0.31	0.016
Mof_C 	C 	0.7031	0.892	0.2037	-0.112
Mof_H 	H 	0.7026	0.9012	0.1766	0.072
Mof_C 	C 	0.7631	0.8998	0.26971	-0.115
Mof_H 	H 	0.8047	0.9146	0.2879	0.067
Mof_C 	C 	0.7667	0.9147	0.2293	0.042
Mof_C 	C 	0.8388	0.9516	0.2136	0.069
Mof_C 	C 	0.8563	0.9544	0.1727	-0.143
Mof_H 	H 	0.8227	0.9334	0.1548	0.079
Mof_C 	C 	0.8922	0.9835	0.23844	-0.142
Mof_H 	H 	0.8831	0.9826	0.2662	0.08
Mof_C 	C 	0.9234	0.9882	0.15847	0.085
Mof_H 	H 	0.9343	0.9894	0.1309	-0.013
Mof_C 	C 	0.9583	0.0163	0.22258	0.097
Mof_H 	H 	0.9937	0.037	0.24	0.004
Mof_N 	N 	0.64	0.8422	0.25743	-0.087
Mof_N 	N 	0.9739	0.01955	0.18273	-0.216
Mof_O 	O 	0.5139	0.8722	0.3127	-0.441
Mof_O 	O 	0.4182	0.80592	0.29412	-0.402
Mof_Cu	Cu	0.93887	0.42568	0.34036	0.898
Mof_C 	C 	0.9922	0.3299	0.29442	0.413
Mof_C 	C 	0.0707	0.3028	0.2715	-0.286
Mof_H 	H 	0.0461	0.2836	0.2485	0.133
Mof_H 	H 	0.0999	0.2766	0.289	0.123
Mof_C 	C 	0.1404	0.3557	0.2185	0.057
Mof_H 	H 	0.0977	0.3404	0.2012	0.025
Mof_C 	C 	0.1995	0.364	0.2829	0.063
Mof_H 	H 	0.1977	0.3546	0.31	0.016
Mof_C 	C 	0.2031	0.392	0.2037	-0.112
Mof_H 	H 	0.2026	0.4012	0.1766	0.072
Mof_C 	C 	0.2631	0.3998	0.26971	-0.115
Mof_H 	H 	0.3047	0.4146	0.2879	0.067
Mof_C 	C 	0.2667	0.4147	0.2293	0.043
Mof_C 	C 	0.3388	0.4516	0.2136	0.069
Mof_C 	C 	0.3563	0.4544	0.1727	-0.143
Mof_H 	H 	0.3227	0.4334	0.1548	0.079
Mof_C 	C 	0.3922	0.4835	0.23844	-0.139
Mof_H 	H 	0.3831	0.4826	0.2662	0.079
Mof_C 	C 	0.4234	0.4882	0.15847	0.086
Mof_H 	H 	0.4343	0.4894	0.1309	-0.013
Mof_C 	C 	0.4583	0.5163	0.22258	0.095
Mof_H 	H 	0.4937	0.537	0.24	0.004
Mof_N 	N 	0.14	0.3422	0.25743	-0.087
Mof_N 	N 	0.4739	0.51955	0.18273	-0.217
Mof_O 	O 	0.0139	0.3722	0.3127	-0.442
Mof_O 	O 	0.9182	0.30592	0.29412	-0.403
Mof_Cu	Cu	0.93887	0.92568	0.84036	0.897
Mof_C 	C 	0.9922	0.8299	0.79442	0.408
Mof_C 	C 	0.0707	0.8028	0.7715	-0.283
Mof_H 	H 	0.0461	0.7836	0.7485	0.133
Mof_H 	H 	0.0999	0.7766	0.789	0.122
Mof_C 	C 	0.1404	0.8557	0.7185	0.057
Mof_H 	H 	0.0977	0.8404	0.7012	0.026
Mof_C 	C 	0.1995	0.864	0.7829	0.064
Mof_H 	H 	0.1977	0.8546	0.81	0.016
Mof_C 	C 	0.2031	0.892	0.7037	-0.112
Mof_H 	H 	0.2026	0.9012	0.6766	0.073
Mof_C 	C 	0.2631	0.8998	0.76971	-0.115
Mof_H 	H 	0.3047	0.9146	0.7879	0.067
Mof_C 	C 	0.2667	0.9147	0.7293	0.043
Mof_C 	C 	0.3388	0.9516	0.7136	0.069
Mof_C 	C 	0.3563	0.9544	0.6727	-0.143
Mof_H 	H 	0.3227	0.9334	0.6548	0.079
Mof_C 	C 	0.3922	0.9835	0.73844	-0.139
Mof_H 	H 	0.3831	0.9826	0.7662	0.079
Mof_C 	C 	0.4234	0.9882	0.65847	0.086
Mof_H 	H 	0.4343	0.9894	0.6309	-0.013
Mof_C 	C 	0.4583	0.0163	0.72258	0.094
Mof_H 	H 	0.4937	0.037	0.74	0.005
Mof_N 	N 	0.14	0.8422	0.75743	-0.088
Mof_N 	N 	0.4739	0.01955	0.68273	-0.217
Mof_O 	O 	0.0139	0.8722	0.8127	-0.439
Mof_O 	O 	0.9182	0.80592	0.79412	-0.402
Mof_N 	N 	0.625	0.2289	0.625	-0.266
Mof_N 	N 	0.625	0.2767	0.625	-0.035
Mof_N 	N 	0.625	0.3228	0.625	-0.086
Mof_N 	N 	0.625	0.7289	0.125	-0.266
Mof_N 	N 	0.625	0.7767	0.125	-0.035
Mof_N 	N 	0.625	0.8228	0.125	-0.086
Mof_N 	N 	0.125	0.5211	0.625	-0.266
Mof_N 	N 	0.125	0.4733	0.625	-0.035
Mof_N 	N 	0.125	0.4272	0.625	-0.086
Mof_N 	N 	0.125	0.0211	0.125	-0.266
Mof_N 	N 	0.125	0.9733	0.125	-0.034
Mof_N 	N 	0.125	0.9272	0.125	-0.085
Mof_N 	N 	0.625	0.0211	0.625	-0.265
Mof_N 	N 	0.625	0.9733	0.625	-0.035
Mof_N 	N 	0.625	0.9272	0.625	-0.086
Mof_N 	N 	0.125	0.2289	0.125	-0.266
Mof_N 	N 	0.125	0.2767	0.125	-0.035
Mof_N 	N 	0.125	0.3228	0.125	-0.086
Mof_N 	N 	0.125	0.7289	0.625	-0.265
Mof_N 	N 	0.125	0.7767	0.625	-0.035
Mof_N 	N 	0.125	0.8228	0.625	-0.085
Mof_N 	N 	0.625	0.5211	0.125	-0.266
Mof_N 	N 	0.625	0.4733	0.125	-0.035
Mof_N 	N 	0.625	0.4272	0.125	-0.086
Mof_N 	N 	0.375	0.7711	0.375	-0.266
Mof_N 	N 	0.375	0.7233	0.375	-0.035
Mof_N 	N 	0.375	0.6772	0.375	-0.086
Mof_N 	N 	0.375	0.2711	0.875	-0.266
Mof_N 	N 	0.375	0.2233	0.875	-0.035
Mof_N 	N 	0.375	0.1772	0.875	-0.086
Mof_N 	N 	0.875	0.4789	0.375	-0.266
Mof_N 	N 	0.875	0.5267	0.375	-0.035
Mof_N 	N 	0.875	0.5728	0.375	-0.086
Mof_N 	N 	0.875	0.9789	0.875	-0.266
Mof_N 	N 	0.875	0.0267	0.875	-0.034
Mof_N 	N 	0.875	0.0728	0.875	-0.085
Mof_N 	N 	0.875	0.7711	0.875	-0.266
Mof_N 	N 	0.875	0.7233	0.875	-0.035
Mof_N 	N 	0.875	0.6772	0.875	-0.086
Mof_N 	N 	0.875	0.2711	0.375	-0.265
Mof_N 	N 	0.875	0.2233	0.375	-0.035
Mof_N 	N 	0.875	0.1772	0.375	-0.085
Mof_N 	N 	0.375	0.4789	0.875	-0.266
Mof_N 	N 	0.375	0.5267	0.875	-0.035
Mof_N 	N 	0.375	0.5728	0.875	-0.086
Mof_N 	N 	0.375	0.9789	0.375	-0.265
Mof_N 	N 	0.375	0.0267	0.375	-0.035
Mof_N 	N 	0.375	0.0728	0.375	-0.086
Mof_O 	O 	0.625	0.125	0.625	-0.686
Mof_O 	O 	0.125	0.625	0.625	-0.686
Mof_O 	O 	0.125	0.125	0.125	-0.686
Mof_O 	O 	0.625	0.625	0.125	-0.686
Mof_O 	O 	0.375	0.875	0.375	-0.686
Mof_O 	O 	0.875	0.375	0.375	-0.686
Mof_O 	O 	0.875	0.875	0.875	-0.686
Mof_O 	O 	0.375	0.375	0.875	-0.686
_end
