# CIF file generated by openbabel 3.1.0, see https://openbabel.org
data_I
_chemical_name_common 'image0'
_cell_length_a 16.673
_cell_length_b 9.5861
_cell_length_c 22.518
_cell_angle_alpha 90
_cell_angle_beta 103.956
_cell_angle_gamma 90
_space_group_name_H-M_alt 'P 1'
_space_group_name_Hall 'P 1'
loop_
    _symmetry_equiv_pos_as_xyz
    x,y,z
loop_
    _atom_site_label
    _atom_site_type_symbol
    _atom_site_fract_x
    _atom_site_fract_y
    _atom_site_fract_z
    _atom_site_occupancy
    Ce1      Ce       0.07400    0.27212    0.18224    1.000
    Ce2      Ce       0.23681    0.76501    0.04563    1.000
    Ce3      Ce       0.33226    0.20132    0.12975    1.000
    Ce4      Ce       0.46739    0.24150    0.41552    1.000
    S1       S        0.15950    0.03367    0.10531    1.000
    S2       S        0.41057    0.83510    0.17018    1.000
    S3       S        0.01109    0.03416    0.25951    1.000
    S4       S        0.18159    0.50797    0.11420    1.000
    S5       S        0.37232    0.47437    0.01547    1.000
    S6       S        0.37821    0.98881    0.99786    1.000
    S7       S        0.91322    0.25056    0.07294    1.000
    S8       S        0.29804    0.29115    0.28031    1.000
    O1       O        0.05910    0.01840    0.21277    1.000
    O2       O        0.98540    0.33930    0.07647    1.000
    O3       O        0.14120    0.56400    0.05371    1.000
    O4       O        0.40550    0.75600    0.22376    1.000
    O5       O        0.92840    0.17030    0.13047    1.000
    O6       O        0.49610    0.87880    0.17227    1.000
    O7       O        0.38560    0.74920    0.11384    1.000
    O8       O        0.21110    0.06250    0.06072    1.000
    O9       O        0.83640    0.33380    0.06471    1.000
    O10      O        0.16220    0.88160    0.11515    1.000
    O11      O        0.00850    0.18710    0.26966    1.000
    O12      O        0.37690    0.41560    0.95619    1.000
    O13      O        0.29860    0.91440    0.98314    1.000
    O14      O        0.89790    0.15600    0.01964    1.000
    O15      O        0.30670    0.57750    0.00494    1.000
    O16      O        0.35520    0.95450    0.16380    1.000
    O17      O        0.33700    0.20410    0.24053    1.000
    O18      O        0.32880    0.24160    0.34341    1.000
    O19      O        0.19940    0.10780    0.16220    1.000
    O20      O        0.25230    0.60170    0.13895    1.000
    O21      O        0.07580    0.08500    0.08541    1.000
    O22      O        0.20750    0.27600    0.26304    1.000
    O23      O        0.04930    0.95980    0.31593    1.000
    O24      O        0.38570    0.06940    0.94533    1.000
    O25      O        0.12480    0.50470    0.15427    1.000
    O26      O        0.92770    0.97450    0.23753    1.000
    O27      O        0.20880    0.36410    0.10850    1.000
    O28      O        0.44990    0.53570    0.04590    1.000
    O29      O        0.32180    0.43520    0.27470    1.000
    O30      O        0.38740    0.06940    0.05180    1.000
    O31      O        0.44260    0.87790    0.00640    1.000
    O32      O        0.34950    0.36380    0.05200    1.000
    Ce5      Ce       0.92600    0.77212    0.31776    1.000
    Ce6      Ce       0.76319    0.26501    0.45437    1.000
    Ce7      Ce       0.66774    0.70132    0.37025    1.000
    Ce8      Ce       0.53261    0.74150    0.08448    1.000
    S9       S        0.84050    0.53367    0.39469    1.000
    S10      S        0.58943    0.33510    0.32982    1.000
    S11      S        0.98891    0.53416    0.24049    1.000
    S12      S        0.81841    0.00797    0.38580    1.000
    S13      S        0.62768    0.97437    0.48453    1.000
    S14      S        0.62179    0.48881    0.50214    1.000
    S15      S        0.08678    0.75056    0.42706    1.000
    S16      S        0.70196    0.79115    0.21969    1.000
    O33      O        0.94090    0.51840    0.28723    1.000
    O34      O        0.01460    0.83930    0.42353    1.000
    O35      O        0.85880    0.06400    0.44629    1.000
    O36      O        0.59450    0.25600    0.27624    1.000
    O37      O        0.07160    0.67030    0.36953    1.000
    O38      O        0.50390    0.37880    0.32773    1.000
    O39      O        0.61440    0.24920    0.38616    1.000
    O40      O        0.78890    0.56250    0.43928    1.000
    O41      O        0.16360    0.83380    0.43529    1.000
    O42      O        0.83780    0.38160    0.38485    1.000
    O43      O        0.99150    0.68710    0.23034    1.000
    O44      O        0.62310    0.91560    0.54381    1.000
    O45      O        0.70140    0.41440    0.51686    1.000
    O46      O        0.10210    0.65600    0.48036    1.000
    O47      O        0.69330    0.07750    0.49506    1.000
    O48      O        0.64480    0.45450    0.33620    1.000
    O49      O        0.66300    0.70410    0.25947    1.000
    O50      O        0.67120    0.74160    0.15659    1.000
    O51      O        0.80060    0.60780    0.33780    1.000
    O52      O        0.74770    0.10170    0.36105    1.000
    O53      O        0.92420    0.58500    0.41459    1.000
    O54      O        0.79250    0.77600    0.23696    1.000
    O55      O        0.95070    0.45980    0.18407    1.000
    O56      O        0.61430    0.56940    0.55467    1.000
    O57      O        0.87520    0.00470    0.34573    1.000
    O58      O        0.07230    0.47450    0.26247    1.000
    O59      O        0.79120    0.86410    0.39150    1.000
    O60      O        0.55010    0.03570    0.45410    1.000
    O61      O        0.67820    0.93520    0.22530    1.000
    O62      O        0.61260    0.56940    0.44820    1.000
    O63      O        0.55740    0.37790    0.49360    1.000
    O64      O        0.65050    0.86380    0.44800    1.000
    Ce9      Ce       0.92600    0.72788    0.81776    1.000
    Ce10     Ce       0.76319    0.23499    0.95437    1.000
    Ce11     Ce       0.66774    0.79868    0.87025    1.000
    Ce12     Ce       0.53261    0.75850    0.58448    1.000
    S17      S        0.84050    0.96633    0.89469    1.000
    S18      S        0.58943    0.16490    0.82982    1.000
    S19      S        0.98891    0.96584    0.74049    1.000
    S20      S        0.81841    0.49203    0.88580    1.000
    S21      S        0.62768    0.52563    0.98453    1.000
    S22      S        0.62179    0.01119    0.00214    1.000
    S23      S        0.08678    0.74944    0.92706    1.000
    S24      S        0.70196    0.70885    0.71969    1.000
    O65      O        0.94090    0.98160    0.78723    1.000
    O66      O        0.01460    0.66070    0.92353    1.000
    O67      O        0.85880    0.43600    0.94629    1.000
    O68      O        0.59450    0.24400    0.77624    1.000
    O69      O        0.07160    0.82970    0.86953    1.000
    O70      O        0.50390    0.12120    0.82773    1.000
    O71      O        0.61440    0.25080    0.88616    1.000
    O72      O        0.78890    0.93750    0.93928    1.000
    O73      O        0.16360    0.66620    0.93529    1.000
    O74      O        0.83780    0.11840    0.88485    1.000
    O75      O        0.99150    0.81290    0.73034    1.000
    O76      O        0.62310    0.58440    0.04381    1.000
    O77      O        0.70140    0.08560    0.01686    1.000
    O78      O        0.10210    0.84400    0.98036    1.000
    O79      O        0.69330    0.42250    0.99506    1.000
    O80      O        0.64480    0.04550    0.83620    1.000
    O81      O        0.66300    0.79590    0.75947    1.000
    O82      O        0.67120    0.75840    0.65659    1.000
    O83      O        0.80060    0.89220    0.83780    1.000
    O84      O        0.74770    0.39830    0.86105    1.000
    O85      O        0.92420    0.91500    0.91459    1.000
    O86      O        0.79250    0.72400    0.73696    1.000
    O87      O        0.95070    0.04020    0.68407    1.000
    O88      O        0.61430    0.93060    0.05467    1.000
    O89      O        0.87520    0.49530    0.84573    1.000
    O90      O        0.07230    0.02550    0.76247    1.000
    O91      O        0.79120    0.63590    0.89150    1.000
    O92      O        0.55010    0.46430    0.95410    1.000
    O93      O        0.67820    0.56480    0.72530    1.000
    O94      O        0.61260    0.93060    0.94820    1.000
    O95      O        0.55740    0.12210    0.99360    1.000
    O96      O        0.65050    0.63620    0.94800    1.000
    Ce13     Ce       0.07400    0.22788    0.68224    1.000
    Ce14     Ce       0.23681    0.73499    0.54563    1.000
    Ce15     Ce       0.33226    0.29868    0.62975    1.000
    Ce16     Ce       0.46739    0.25850    0.91552    1.000
    S25      S        0.15950    0.46633    0.60531    1.000
    S26      S        0.41057    0.66490    0.67018    1.000
    S27      S        0.01109    0.46584    0.75951    1.000
    S28      S        0.18159    0.99203    0.61420    1.000
    S29      S        0.37232    0.02563    0.51547    1.000
    S30      S        0.37821    0.51119    0.49786    1.000
    S31      S        0.91322    0.24944    0.57294    1.000
    S32      S        0.29804    0.20885    0.78031    1.000
    O97      O        0.05910    0.48160    0.71277    1.000
    O98      O        0.98540    0.16070    0.57647    1.000
    O99      O        0.14120    0.93600    0.55371    1.000
    O100     O        0.40550    0.74400    0.72376    1.000
    O101     O        0.92840    0.32970    0.63047    1.000
    O102     O        0.49610    0.62120    0.67227    1.000
    O103     O        0.38560    0.75080    0.61384    1.000
    O104     O        0.21110    0.43750    0.56072    1.000
    O105     O        0.83640    0.16620    0.56471    1.000
    O106     O        0.16220    0.61840    0.61515    1.000
    O107     O        0.00850    0.31290    0.76966    1.000
    O108     O        0.37690    0.08440    0.45619    1.000
    O109     O        0.29860    0.58560    0.48314    1.000
    O110     O        0.89790    0.34400    0.51964    1.000
    O111     O        0.30670    0.92250    0.50494    1.000
    O112     O        0.35520    0.54550    0.66380    1.000
    O113     O        0.33700    0.29590    0.74053    1.000
    O114     O        0.32880    0.25840    0.84341    1.000
    O115     O        0.19940    0.39220    0.66220    1.000
    O116     O        0.25230    0.89830    0.63895    1.000
    O117     O        0.07580    0.41500    0.58541    1.000
    O118     O        0.20750    0.22400    0.76304    1.000
    O119     O        0.04930    0.54020    0.81593    1.000
    O120     O        0.38570    0.43060    0.44533    1.000
    O121     O        0.12480    0.99530    0.65427    1.000
    O122     O        0.92770    0.52550    0.73753    1.000
    O123     O        0.20880    0.13590    0.60850    1.000
    O124     O        0.44990    0.96430    0.54590    1.000
    O125     O        0.32180    0.06480    0.77470    1.000
    O126     O        0.38740    0.43060    0.55180    1.000
    O127     O        0.44260    0.62210    0.50640    1.000
    O128     O        0.34950    0.13620    0.55200    1.000
