data_functionalizedCrystal
_audit_creation_method	'EQeq! by Chris Wilmer'
_symmetry_space_group_name_H-M	'P1'
_symmetry_Int_Tables_number	1
_symmetry_cell_setting	triclinic
loop_
_symmetry_equiv_pos_as_xyz
  x,y,z
_cell_length_a	25.3323
_cell_length_b	25.9201
_cell_length_c	25.9201
_cell_angle_alpha	76.1849
_cell_angle_beta	60.7474
_cell_angle_gamma	60.7474
loop_
_atom_site_label
_atom_site_type_symbol
_atom_site_fract_x
_atom_site_fract_y
_atom_site_fract_z
_atom_site_charge
Mof_Co	Co	0.82904	0.77153	0.73945	1.165
Mof_Co	Co	0.33373	0.7699	0.7332	1.166
Mof_Co	Co	0.85041	0.72953	0.23701	1.159
Mof_Co	Co	0.31294	0.27107	0.76277	1.154
Mof_Co	Co	0.34002	0.22847	0.26055	1.166
Mof_Co	Co	0.83683	0.2301	0.2668	1.166
Mof_Co	Co	0.81695	0.27047	0.76299	1.159
Mof_Co	Co	0.34678	0.72893	0.23723	1.153
Mof_H 	H 	0.7259	0.1276	0.7868	0.082
Mof_H 	H 	0.0961	0.3951	0.8055	0.038
Mof_H 	H 	0.9301	0.8946	0.6834	0.05
Mof_H 	H 	0.424	0.0735	0.6677	0.085
Mof_H 	H 	0.4185	0.1536	0.6922	-0.011
Mof_H 	H 	0.4261	0.9853	0.6933	0.049
Mof_H 	H 	0.6947	0.2577	0.3087	0.023
Mof_H 	H 	0.0572	0.6342	0.733	0.087
Mof_H 	H 	0.4335	0.8939	0.6825	0.057
Mof_H 	H 	0.9177	0.0759	0.6697	0.081
Mof_H 	H 	0.9099	0.3685	0.2869	0.095
Mof_H 	H 	0.5952	0.2769	0.3953	0.081
Mof_H 	H 	0.921	0.9876	0.6974	0.053
Mof_H 	H 	0.9126	0.7663	0.3551	0.048
Mof_H 	H 	0.8241	0.3333	0.1859	0.004
Mof_H 	H 	0.916	0.5725	0.8339	0.063
Mof_H 	H 	0.5382	0.7803	0.1027	0.098
Mof_H 	H 	0.0024	0.481	0.8158	0.067
Mof_H 	H 	0.7679	0.7269	0.6951	0.026
Mof_H 	H 	0.7829	0.6932	0.4454	0.042
Mof_H 	H 	0.8088	0.5152	0.1828	0.058
Mof_H 	H 	0.8023	0.6027	0.1941	0.041
Mof_H 	H 	0.154	0.7285	0.8595	0.04
Mof_H 	H 	0.7844	0.2652	0.3926	-0.005
Mof_H 	H 	0.5536	0.7367	0.9433	0.052
Mof_H 	H 	0.9546	0.521	0.2396	0.033
Mof_H 	H 	0.7239	0.215	0.805	0.013
Mof_H 	H 	0.2234	0.2137	0.7949	0.009
Mof_H 	H 	0.9196	0.1505	0.6957	-0.014
Mof_H 	H 	0.8314	0.4238	0.1666	0.067
Mof_H 	H 	0.8356	0.6621	0.8143	0.011
Mof_H 	H 	0.9617	0.433	0.2304	0.07
Mof_H 	H 	0.2393	0.9781	0.7055	0.051
Mof_H 	H 	0.7323	0.9782	0.7212	0.044
Mof_H 	H 	0.7848	0.6949	0.5357	0.063
Mof_H 	H 	0.1732	0.8321	0.9363	0.035
Mof_H 	H 	0.1959	0.4818	0.7936	0.032
Mof_H 	H 	0.2347	0.069	0.7218	0.058
Mof_H 	H 	0.4483	0.773	0.019	0.085
Mof_H 	H 	0.5308	0.2285	0.6437	0.047
Mof_H 	H 	0.5847	0.8221	0.0277	0.056
Mof_H 	H 	0.7266	0.069	0.7366	0.068
Mof_H 	H 	0.0931	0.8148	0.0244	0.065
Mof_H 	H 	0.9081	0.7756	0.4484	0.053
Mof_H 	H 	0.6867	0.2954	0.479	0.07
Mof_H 	H 	0.8987	0.2866	0.298	-0.008
Mof_H 	H 	0.6714	0.8328	0.9382	0.046
Mof_H 	H 	0.0634	0.7253	0.9433	0.059
Mof_H 	H 	0.9603	0.7638	0.1894	0.003
Mof_H 	H 	0.8808	0.7406	0.1054	-0.01
Mof_H 	H 	0.623	0.2371	0.5549	0.059
Mof_H 	H 	0.9216	0.7688	0.6046	0.001
Mof_H 	H 	0.0459	0.7756	0.1028	0.096
Mof_H 	H 	0.9694	0.7498	0.015	0.079
Mof_H 	H 	0.9143	0.7742	0.519	0.072
Mof_H 	H 	0.4634	0.7504	0.1918	0.005
Mof_H 	H 	0.3657	0.761	0.1058	-0.016
Mof_H 	H 	0.4146	0.3351	0.5587	0.03
Mof_H 	H 	0.637	0.7486	0.8556	0.047
Mof_H 	H 	0.2269	0.1273	0.7747	0.088
Mof_H 	H 	0.1077	0.5708	0.795	0.073
Mof_H 	H 	0.5027	0.336	0.478	0.071
Mof_H 	H 	0.9767	0.7181	0.7205	0.005
Mof_H 	H 	0.7711	0.7196	0.6078	0.078
Mof_H 	H 	0.6403	0.8724	0.2132	0.082
Mof_H 	H 	0.2967	0.6049	0.1945	0.039
Mof_H 	H 	0.5081	0.1054	0.3166	0.051
Mof_H 	H 	0.1652	0.9265	0.3323	0.085
Mof_H 	H 	0.2643	0.8464	0.3078	-0.011
Mof_H 	H 	0.1047	0.0147	0.3067	0.049
Mof_H 	H 	0.2611	0.7423	0.6913	0.023
Mof_H 	H 	0.4244	0.3658	0.267	0.09
Mof_H 	H 	0.0099	0.1061	0.3175	0.056
Mof_H 	H 	0.6633	0.9241	0.3303	0.081
Mof_H 	H 	0.5653	0.6315	0.7131	0.095
Mof_H 	H 	0.2674	0.7231	0.6047	0.081
Mof_H 	H 	0.606	0.0124	0.3026	0.053
Mof_H 	H 	0.034	0.2337	0.6449	0.048
Mof_H 	H 	0.3433	0.6667	0.8141	0.004
Mof_H 	H 	0.3224	0.4275	0.1661	0.065
Mof_H 	H 	0.4212	0.2197	0.8973	0.098
Mof_H 	H 	0.2992	0.519	0.1842	0.065
Mof_H 	H 	0.1899	0.2731	0.3049	0.026
Mof_H 	H 	0.9215	0.3068	0.5546	0.042
Mof_H 	H 	0.5068	0.4848	0.8172	0.059
Mof_H 	H 	0.5991	0.3973	0.8059	0.041
Mof_H 	H 	0.742	0.2715	0.1405	0.04
Mof_H 	H 	0.4422	0.7348	0.6074	-0.005
Mof_H 	H 	0.2336	0.2633	0.0567	0.052
Mof_H 	H 	0.7152	0.479	0.7604	0.033
Mof_H 	H 	0.7439	0.785	0.195	0.013
Mof_H 	H 	0.232	0.7863	0.2051	0.009
Mof_H 	H 	0.7658	0.8495	0.3043	-0.014
Mof_H 	H 	0.4218	0.5762	0.8334	0.067
Mof_H 	H 	0.312	0.3379	0.1857	0.01
Mof_H 	H 	0.6251	0.567	0.7696	0.07
Mof_H 	H 	0.9229	0.0219	0.2945	0.051
Mof_H 	H 	0.4317	0.0218	0.2788	0.044
Mof_H 	H 	0.0154	0.3051	0.4643	0.062
Mof_H 	H 	0.9416	0.1679	0.0637	0.035
Mof_H 	H 	0.4713	0.5182	0.2064	0.033
Mof_H 	H 	0.0255	0.931	0.2782	0.058
Mof_H 	H 	0.2403	0.227	0.981	0.085
Mof_H 	H 	0.403	0.7715	0.3563	0.047
Mof_H 	H 	0.4345	0.1779	0.9723	0.056
Mof_H 	H 	0.5322	0.931	0.2634	0.068
Mof_H 	H 	0.9323	0.1852	0.9756	0.064
Mof_H 	H 	0.1321	0.2244	0.5516	0.053
Mof_H 	H 	0.4611	0.7046	0.521	0.071
Mof_H 	H 	0.4833	0.7134	0.702	-0.008
Mof_H 	H 	0.4424	0.1672	0.0618	0.046
Mof_H 	H 	0.732	0.2747	0.0567	0.059
Mof_H 	H 	0.9135	0.2362	0.8106	0.002
Mof_H 	H 	0.7268	0.2594	0.8946	-0.01
Mof_H 	H 	0.415	0.7629	0.4451	0.06
Mof_H 	H 	0.295	0.2312	0.3954	0.001
Mof_H 	H 	0.9243	0.2244	0.8972	0.096
Mof_H 	H 	0.7342	0.2502	0.985	0.079
Mof_H 	H 	0.2075	0.2258	0.481	0.072
Mof_H 	H 	0.4056	0.2496	0.8082	0.005
Mof_H 	H 	0.2325	0.239	0.8942	-0.016
Mof_H 	H 	0.3084	0.6649	0.4413	0.03
Mof_H 	H 	0.2412	0.2514	0.1444	0.047
Mof_H 	H 	0.1289	0.8727	0.2253	0.089
Mof_H 	H 	0.4735	0.4292	0.205	0.071
Mof_H 	H 	0.3167	0.664	0.522	0.071
Mof_H 	H 	0.4153	0.2819	0.2795	0.003
Mof_H 	H 	0.0985	0.2804	0.3922	0.078
Mof_C 	C 	0.8506	0.7255	0.3921	-0.085
Mof_C 	C 	0.8454	0.7296	0.334	0.358
Mof_C 	C 	0.233	0.7791	0.8349	0.265
Mof_C 	C 	0.8281	0.9275	0.7091	-0.084
Mof_C 	C 	0.6682	0.7809	0.8899	-0.067
Mof_C 	C 	0.765	0.1342	0.7652	-0.122
Mof_C 	C 	0.4038	0.2787	0.6713	0.375
Mof_C 	C 	0.0974	0.4314	0.804	0.04
Mof_C 	C 	0.6304	0.28	0.4532	0.04
Mof_C 	C 	0.7289	0.7805	0.8373	0.252
Mof_C 	C 	0.5029	0.7747	0.0545	0.108
Mof_C 	C 	0.4621	0.2843	0.6099	-0.093
Mof_C 	C 	0.8882	0.9289	0.6957	0.005
Mof_C 	C 	0.3335	0.9256	0.7	-0.06
Mof_C 	C 	0.1776	0.7784	0.8862	-0.1
Mof_C 	C 	0.382	0.1019	0.6937	-0.164
Mof_C 	C 	0.1551	0.429	0.7996	-0.111
Mof_C 	C 	0.3776	0.1504	0.7072	0.105
Mof_C 	C 	0.9955	0.5914	0.787	0.044
Mof_C 	C 	0.3878	0.9843	0.6961	-0.061
Mof_C 	C 	0.2165	0.3695	0.7909	0.361
Mof_C 	C 	0.3313	0.0363	0.7045	0.004
Mof_C 	C 	0.6942	0.2624	0.3442	0.05
Mof_C 	C 	0.0125	0.6384	0.75	-0.123
Mof_C 	C 	0.3921	0.9287	0.6913	-0.011
Mof_C 	C 	0.0153	0.7645	0.0505	0.094
Mof_C 	C 	0.3249	0.0926	0.7178	0.086
Mof_C 	C 	0.8774	0.1036	0.6982	-0.159
Mof_C 	C 	0.8902	0.3641	0.2661	-0.154
Mof_C 	C 	0.6336	0.2736	0.3966	-0.101
Mof_C 	C 	0.8827	0.9853	0.7019	-0.077
Mof_C 	C 	0.8734	0.4654	0.219	0.024
Mof_C 	C 	0.8875	0.7515	0.3909	0.002
Mof_C 	C 	0.8247	0.873	0.7148	0.282
Mof_C 	C 	0.8382	0.3432	0.2084	0.049
Mof_C 	C 	0.9298	0.6014	0.8092	-0.1
Mof_C 	C 	0.8528	0.7374	0.552	0.069
Mof_C 	C 	0.072	0.7712	0.9916	0.028
Mof_C 	C 	0.5056	0.7724	0.1022	-0.16
Mof_C 	C 	0.5587	0.7833	0.9939	0.006
Mof_C 	C 	0.8231	0.0362	0.714	0.025
Mof_C 	C 	0.0435	0.4812	0.8064	-0.107
Mof_C 	C 	0.8009	0.7343	0.6597	0.049
Mof_C 	C 	0.8113	0.7072	0.4454	0.012
Mof_C 	C 	0.8352	0.5161	0.1985	-0.09
Mof_C 	C 	0.8354	0.5668	0.2008	0.025
Mof_C 	C 	0.1402	0.7483	0.8935	0.023
Mof_C 	C 	0.7454	0.2683	0.3927	0.065
Mof_C 	C 	0.3294	0.8723	0.7037	0.243
Mof_C 	C 	0.5769	0.7567	0.9425	-0.071
Mof_C 	C 	0.9254	0.5192	0.228	0.035
Mof_C 	C 	0.7635	0.1865	0.7769	0.041
Mof_C 	C 	0.2644	0.1852	0.7676	0.052
Mof_C 	C 	0.8777	0.1491	0.7113	0.104
Mof_C 	C 	0.0502	0.5335	0.7941	0.041
Mof_C 	C 	0.8443	0.3971	0.1951	-0.115
Mof_C 	C 	0.8815	0.6547	0.7959	0.032
Mof_C 	C 	0.8698	0.4101	0.2253	0.062
Mof_C 	C 	0.9262	0.4686	0.2266	-0.092
Mof_C 	C 	0.573	0.2846	0.5078	0.041
Mof_C 	C 	0.2768	0.9779	0.7057	-0.01
Mof_C 	C 	0.7708	0.9788	0.7186	0.013
Mof_C 	C 	0.8114	0.7081	0.4997	-0.079
Mof_C 	C 	0.1548	0.8074	0.937	0.022
Mof_C 	C 	0.157	0.4824	0.7958	0.042
Mof_C 	C 	0.2756	0.0339	0.7121	-0.064
Mof_C 	C 	0.4506	0.7701	0.0551	-0.166
Mof_C 	C 	0.5247	0.2515	0.6107	0.007
Mof_C 	C 	0.5953	0.8071	0.9921	-0.065
Mof_C 	C 	0.7681	0.0343	0.7247	-0.086
Mof_C 	C 	0.1045	0.7992	0.9888	-0.091
Mof_C 	C 	0.8862	0.7553	0.4469	-0.075
Mof_C 	C 	0.8203	0.0945	0.7245	0.076
Mof_C 	C 	0.6875	0.2832	0.4468	-0.115
Mof_C 	C 	0.8811	0.3163	0.2735	0.111
Mof_C 	C 	0.6492	0.8112	0.94	-0.009
Mof_C 	C 	0.0875	0.7445	0.9425	-0.093
Mof_C 	C 	0.9618	0.7613	0.1527	0.094
Mof_C 	C 	0.5792	0.256	0.5564	-0.085
Mof_C 	C 	0.888	0.7602	0.607	0.063
Mof_C 	C 	0.0132	0.7684	0.1014	-0.154
Mof_C 	C 	0.9682	0.7531	0.0513	-0.155
Mof_C 	C 	0.8884	0.7592	0.5538	-0.131
Mof_C 	C 	0.4585	0.7577	0.1563	0.084
Mof_C 	C 	0.4028	0.7619	0.1055	0.101
Mof_C 	C 	0.4576	0.3142	0.5586	0.039
Mof_C 	C 	0.8548	0.7304	0.496	0.021
Mof_C 	C 	0.6289	0.7609	0.8915	0.004
Mof_C 	C 	0.2664	0.1333	0.7559	-0.135
Mof_C 	C 	0.1067	0.5346	0.795	-0.105
Mof_C 	C 	0.5089	0.3145	0.5115	-0.107
Mof_C 	C 	0.9651	0.6867	0.7403	0.076
Mof_C 	C 	0.8031	0.729	0.6074	-0.113
Mof_C 	C 	0.8819	0.5689	0.2125	-0.098
Mof_C 	C 	0.8757	0.6325	0.2149	0.373
Mof_C 	C 	0.918	0.7464	0.1042	0.093
Mof_C 	C 	0.9682	0.2745	0.6079	-0.087
Mof_C 	C 	0.909	0.2704	0.666	0.358
Mof_C 	C 	0.847	0.2209	0.1651	0.265
Mof_C 	C 	0.4647	0.0725	0.2909	-0.084
Mof_C 	C 	0.339	0.2191	0.1101	-0.067
Mof_C 	C 	0.6644	0.8658	0.2348	-0.122
Mof_C 	C 	0.3538	0.7213	0.3287	0.375
Mof_C 	C 	0.3328	0.5686	0.196	0.037
Mof_C 	C 	0.3636	0.72	0.5468	0.04
Mof_C 	C 	0.3467	0.2195	0.1627	0.252
Mof_C 	C 	0.3321	0.2253	0.9455	0.108
Mof_C 	C 	0.3563	0.7157	0.3901	-0.093
Mof_C 	C 	0.5128	0.0711	0.3043	0.005
Mof_C 	C 	0.9591	0.0744	0.3	-0.061
Mof_C 	C 	0.8422	0.2216	0.1138	-0.101
Mof_C 	C 	0.1776	0.8981	0.3063	-0.164
Mof_C 	C 	0.3837	0.571	0.2004	-0.109
Mof_C 	C 	0.2352	0.8496	0.2928	0.105
Mof_C 	C 	0.3739	0.4086	0.213	0.052
Mof_C 	C 	0.0682	0.0157	0.3039	-0.061
Mof_C 	C 	0.3769	0.6305	0.2091	0.361
Mof_C 	C 	0.0721	0.9637	0.2955	0.004
Mof_C 	C 	0.3008	0.7376	0.6558	0.05
Mof_C 	C 	0.4009	0.3616	0.25	-0.133
Mof_C 	C 	0.0121	0.0713	0.3087	-0.009
Mof_C 	C 	0.8303	0.2355	0.9495	0.092
Mof_C 	C 	0.1353	0.9074	0.2822	0.087
Mof_C 	C 	0.6792	0.8964	0.3018	-0.159
Mof_C 	C 	0.5204	0.6359	0.7339	-0.154
Mof_C 	C 	0.3038	0.7264	0.6034	-0.101
Mof_C 	C 	0.5699	0.0147	0.2981	-0.076
Mof_C 	C 	0.5578	0.5346	0.781	0.024
Mof_C 	C 	0.0299	0.2485	0.6091	0.005
Mof_C 	C 	0.4125	0.127	0.2852	0.282
Mof_C 	C 	0.3898	0.6568	0.7916	0.049
Mof_C 	C 	0.3404	0.3986	0.1908	-0.104
Mof_C 	C 	0.1422	0.2626	0.448	0.07
Mof_C 	C 	0.8348	0.2288	0.0084	0.028
Mof_C 	C 	0.3802	0.2276	0.8978	-0.16
Mof_C 	C 	0.3359	0.2167	0.0061	0.006
Mof_C 	C 	0.5733	0.9638	0.286	0.024
Mof_C 	C 	0.3311	0.5188	0.1936	-0.104
Mof_C 	C 	0.1949	0.2657	0.3403	0.05
Mof_C 	C 	0.9639	0.2928	0.5546	0.01
Mof_C 	C 	0.5498	0.4839	0.8015	-0.09
Mof_C 	C 	0.603	0.4332	0.7992	0.025
Mof_C 	C 	0.782	0.2517	0.1065	0.024
Mof_C 	C 	0.4064	0.7317	0.6073	0.065
Mof_C 	C 	0.9054	0.1277	0.2963	0.243
Mof_C 	C 	0.2761	0.2433	0.0575	-0.071
Mof_C 	C 	0.6726	0.4808	0.772	0.035
Mof_C 	C 	0.7269	0.8135	0.2231	0.041
Mof_C 	C 	0.2172	0.8148	0.2324	0.052
Mof_C 	C 	0.7381	0.8509	0.2887	0.104
Mof_C 	C 	0.3778	0.4665	0.2059	0.036
Mof_C 	C 	0.4365	0.6029	0.8049	-0.115
Mof_C 	C 	0.3321	0.3453	0.2041	0.034
Mof_C 	C 	0.5052	0.5899	0.7747	0.062
Mof_C 	C 	0.6214	0.5314	0.7734	-0.092
Mof_C 	C 	0.3654	0.7154	0.4922	0.041
Mof_C 	C 	0.9604	0.0221	0.2943	-0.012
Mof_C 	C 	0.4682	0.0212	0.2814	0.014
Mof_C 	C 	0.0192	0.2919	0.5003	-0.077
Mof_C 	C 	0.8992	0.1926	0.063	0.022
Mof_C 	C 	0.4352	0.5176	0.2042	0.039
Mof_C 	C 	0.0216	0.9661	0.2879	-0.061
Mof_C 	C 	0.2758	0.2299	0.9449	-0.166
Mof_C 	C 	0.3869	0.7485	0.3893	0.007
Mof_C 	C 	0.3945	0.1929	0.0079	-0.064
Mof_C 	C 	0.5271	0.9657	0.2753	-0.086
Mof_C 	C 	0.8925	0.2008	0.0112	-0.091
Mof_C 	C 	0.0884	0.2447	0.5531	-0.074
Mof_C 	C 	0.6393	0.9055	0.2755	0.076
Mof_C 	C 	0.4175	0.7168	0.5532	-0.115
Mof_C 	C 	0.4709	0.6837	0.7265	0.111
Mof_C 	C 	0.4004	0.1888	0.06	-0.009
Mof_C 	C 	0.7745	0.2555	0.0575	-0.094
Mof_C 	C 	0.8758	0.2387	0.8473	0.097
Mof_C 	C 	0.3916	0.744	0.4436	-0.085
Mof_C 	C 	0.2552	0.2398	0.393	0.063
Mof_C 	C 	0.883	0.2316	0.8986	-0.157
Mof_C 	C 	0.7726	0.2469	0.9487	-0.152
Mof_C 	C 	0.2014	0.2408	0.4462	-0.131
Mof_C 	C 	0.3725	0.2423	0.8437	0.084
Mof_C 	C 	0.2702	0.2381	0.8945	0.101
Mof_C 	C 	0.3304	0.6858	0.4414	0.039
Mof_C 	C 	0.0812	0.2696	0.504	0.02
Mof_C 	C 	0.2813	0.2391	0.1085	0.004
Mof_C 	C 	0.1556	0.8667	0.2441	-0.135
Mof_C 	C 	0.4363	0.4654	0.205	-0.101
Mof_C 	C 	0.3349	0.6855	0.4885	-0.107
Mof_C 	C 	0.3921	0.3133	0.2597	0.083
Mof_C 	C 	0.1395	0.271	0.3926	-0.113
Mof_C 	C 	0.6633	0.4311	0.7875	-0.097
Mof_C 	C 	0.7231	0.3675	0.7851	0.373
Mof_C 	C 	0.7686	0.2536	0.8958	0.092
Mof_N 	N 	0.3215	0.195	0.7396	-0.248
Mof_N 	N 	0.844	0.75	0.6648	-0.251
Mof_N 	N 	0.8226	0.1934	0.7452	-0.244
Mof_N 	N 	0.7521	0.2579	0.3403	-0.25
Mof_N 	N 	0.8516	0.3042	0.2524	-0.251
Mof_N 	N 	0.9019	0.6963	0.7555	-0.238
Mof_N 	N 	0.9158	0.7516	0.154	-0.248
Mof_N 	N 	0.4091	0.7548	0.1552	-0.245
Mof_N 	N 	0.2561	0.805	0.2604	-0.248
Mof_N 	N 	0.2588	0.25	0.3352	-0.251
Mof_N 	N 	0.7612	0.8066	0.2548	-0.244
Mof_N 	N 	0.3503	0.7421	0.6597	-0.25
Mof_N 	N 	0.4082	0.6958	0.7476	-0.251
Mof_N 	N 	0.3537	0.3037	0.2445	-0.239
Mof_N 	N 	0.8214	0.2484	0.846	-0.248
Mof_N 	N 	0.3191	0.2452	0.8448	-0.245
Mof_O 	O 	0.8069	0.7098	0.3378	-0.37
Mof_O 	O 	0.347	0.3027	0.6645	-0.358
Mof_O 	O 	0.7679	0.7984	0.834	-0.354
Mof_O 	O 	0.2737	0.7971	0.8299	-0.345
Mof_O 	O 	0.2108	0.326	0.7912	-0.427
Mof_O 	O 	0.3801	0.8215	0.7093	-0.377
Mof_O 	O 	0.7449	0.7549	0.7877	-0.362
Mof_O 	O 	0.4119	0.2552	0.709	-0.475
Mof_O 	O 	0.8767	0.8238	0.7142	-0.387
Mof_O 	O 	0.2502	0.7561	0.7829	-0.373
Mof_O 	O 	0.8779	0.7469	0.2913	-0.443
Mof_O 	O 	0.2677	0.3675	0.7869	-0.379
Mof_O 	O 	0.7722	0.8699	0.7239	-0.342
Mof_O 	O 	0.2759	0.8695	0.7125	-0.322
Mof_O 	O 	0.8314	0.6751	0.2093	-0.441
Mof_O 	O 	0.9187	0.6349	0.2225	-0.395
Mof_O 	O 	0.8545	0.2902	0.6622	-0.37
Mof_O 	O 	0.3142	0.6973	0.3355	-0.358
Mof_O 	O 	0.4003	0.2016	0.166	-0.354
Mof_O 	O 	0.9007	0.2029	0.1701	-0.346
Mof_O 	O 	0.328	0.674	0.2088	-0.427
Mof_O 	O 	0.9109	0.1785	0.2907	-0.378
Mof_O 	O 	0.2875	0.2451	0.2123	-0.362
Mof_O 	O 	0.3761	0.7448	0.291	-0.475
Mof_O 	O 	0.4147	0.1762	0.2858	-0.387
Mof_O 	O 	0.7892	0.2439	0.2171	-0.373
Mof_O 	O 	0.9161	0.2531	0.7087	-0.443
Mof_O 	O 	0.4221	0.6325	0.2131	-0.379
Mof_O 	O 	0.366	0.1301	0.2761	-0.342
Mof_O 	O 	0.8579	0.1305	0.2875	-0.322
Mof_O 	O 	0.7158	0.3249	0.7907	-0.441
Mof_O 	O 	0.7761	0.3651	0.7775	-0.394
Mof_Co	Co	0.56849	0.26055	0.77153	1.165
Mof_Co	Co	0.06693	0.2668	0.7699	1.165
Mof_Co	Co	0.08742	0.76299	0.72953	1.158
Mof_Co	Co	0.07571	0.23723	0.27107	1.153
Mof_Co	Co	0.60057	0.73945	0.22847	1.165
Mof_Co	Co	0.10363	0.7332	0.2301	1.165
Mof_Co	Co	0.57994	0.23701	0.27047	1.158
Mof_Co	Co	0.58401	0.76277	0.72893	1.153
Mof_H 	H 	0.5127	0.2132	0.1276	0.082
Mof_H 	H 	0.9016	0.1945	0.3951	0.038
Mof_H 	H 	0.6135	0.3166	0.8946	0.051
Mof_H 	H 	0.0917	0.3323	0.0735	0.085
Mof_H 	H 	0.1107	0.3078	0.1536	-0.011
Mof_H 	H 	0.1194	0.3067	0.9853	0.049
Mof_H 	H 	0.0034	0.6913	0.2577	0.025
Mof_H 	H 	0.7902	0.267	0.6342	0.09
Mof_H 	H 	0.116	0.3175	0.8939	0.056
Mof_H 	H 	0.5874	0.3303	0.0759	0.081
Mof_H 	H 	0.1968	0.7131	0.3685	0.095
Mof_H 	H 	0.9905	0.6047	0.2769	0.078
Mof_H 	H 	0.6184	0.3026	0.9876	0.053
Mof_H 	H 	0.2677	0.6449	0.7663	0.049
Mof_H 	H 	0.01	0.8141	0.3333	0.005
Mof_H 	H 	0.7499	0.1661	0.5725	0.065
Mof_H 	H 	0.6409	0.8973	0.7803	0.098
Mof_H 	H 	0.8182	0.1842	0.481	0.065
Mof_H 	H 	0.463	0.3049	0.7269	0.026
Mof_H 	H 	0.2283	0.5546	0.6932	0.042
Mof_H 	H 	0.9916	0.8172	0.5152	0.057
Mof_H 	H 	0.9964	0.8059	0.6027	0.039
Mof_H 	H 	0.0135	0.1405	0.7285	0.041
Mof_H 	H 	0.177	0.6074	0.2652	-0.004
Mof_H 	H 	0.4969	0.0567	0.7367	0.052
Mof_H 	H 	0.1942	0.7604	0.521	0.033
Mof_H 	H 	0.5289	0.195	0.215	0.013
Mof_H 	H 	0.0183	0.2051	0.2137	0.009
Mof_H 	H 	0.6153	0.3043	0.1505	-0.014
Mof_H 	H 	0.998	0.8334	0.4238	0.064
Mof_H 	H 	0.6499	0.1857	0.6621	0.01
Mof_H 	H 	0.1921	0.7696	0.433	0.07
Mof_H 	H 	0.9448	0.2945	0.9781	0.051
Mof_H 	H 	0.4535	0.2788	0.9782	0.044
Mof_H 	H 	0.3205	0.4643	0.6949	0.063
Mof_H 	H 	0.1095	0.0637	0.8321	0.035
Mof_H 	H 	0.9895	0.2064	0.4818	0.032
Mof_H 	H 	0.9565	0.2782	0.069	0.059
Mof_H 	H 	0.4673	0.981	0.773	0.085
Mof_H 	H 	0.1745	0.3563	0.2285	0.047
Mof_H 	H 	0.6124	0.9723	0.8221	0.056
Mof_H 	H 	0.4632	0.2634	0.069	0.068
Mof_H 	H 	0.1175	0.9756	0.8148	0.065
Mof_H 	H 	0.3565	0.5516	0.7756	0.053
Mof_H 	H 	0.1657	0.521	0.2954	0.07
Mof_H 	H 	0.1967	0.702	0.2866	-0.008
Mof_H 	H 	0.6096	0.0618	0.8328	0.046
Mof_H 	H 	0.0067	0.0567	0.7253	0.06
Mof_H 	H 	0.1497	0.8106	0.7638	0.003
Mof_H 	H 	0.9862	0.8946	0.7406	-0.011
Mof_H 	H 	0.1779	0.4451	0.2371	0.06
Mof_H 	H 	0.5262	0.3954	0.7688	0.002
Mof_H 	H 	0.1487	0.8972	0.7756	0.096
Mof_H 	H 	0.9844	0.985	0.7498	0.076
Mof_H 	H 	0.4333	0.481	0.7742	0.072
Mof_H 	H 	0.6552	0.8082	0.7504	0.006
Mof_H 	H 	0.4715	0.8942	0.761	-0.016
Mof_H 	H 	0.9733	0.4413	0.3351	0.028
Mof_H 	H 	0.4926	0.1444	0.7486	0.047
Mof_H 	H 	0.0016	0.2253	0.1273	0.089
Mof_H 	H 	0.9027	0.205	0.5708	0.072
Mof_H 	H 	0.9807	0.522	0.336	0.069
Mof_H 	H 	0.6972	0.2795	0.7181	0.003
Mof_H 	H 	0.3789	0.3922	0.7196	0.078
Mof_H 	H 	0.8535	0.7868	0.8724	0.082
Mof_H 	H 	0.4912	0.8055	0.6049	0.039
Mof_H 	H 	0.8247	0.6834	0.1054	0.051
Mof_H 	H 	0.4975	0.6677	0.9265	0.085
Mof_H 	H 	0.5721	0.6922	0.8464	-0.011
Mof_H 	H 	0.4114	0.6933	0.0147	0.049
Mof_H 	H 	0.9524	0.3087	0.7423	0.023
Mof_H 	H 	0.6914	0.733	0.3658	0.09
Mof_H 	H 	0.3274	0.6825	0.1061	0.057
Mof_H 	H 	0.9936	0.6697	0.9241	0.082
Mof_H 	H 	0.2784	0.2869	0.6315	0.095
Mof_H 	H 	0.8721	0.3953	0.7231	0.081
Mof_H 	H 	0.9086	0.6974	0.0124	0.053
Mof_H 	H 	0.6789	0.3551	0.2337	0.049
Mof_H 	H 	0.1574	0.1859	0.6667	0.004
Mof_H 	H 	0.4885	0.8339	0.4275	0.065
Mof_H 	H 	0.3185	0.1027	0.2197	0.098
Mof_H 	H 	0.4834	0.8158	0.519	0.065
Mof_H 	H 	0.4948	0.6951	0.2731	0.026
Mof_H 	H 	0.4761	0.4454	0.3068	0.042
Mof_H 	H 	0.324	0.1828	0.4848	0.059
Mof_H 	H 	0.405	0.1941	0.3973	0.041
Mof_H 	H 	0.8825	0.8595	0.2715	0.04
Mof_H 	H 	0.0496	0.3926	0.7348	-0.005
Mof_H 	H 	0.2903	0.9433	0.2633	0.052
Mof_H 	H 	0.4756	0.2396	0.479	0.033
Mof_H 	H 	0.9389	0.805	0.785	0.013
Mof_H 	H 	0.4371	0.7949	0.7863	0.009
Mof_H 	H 	0.0701	0.6957	0.8495	-0.015
Mof_H 	H 	0.2552	0.1666	0.5762	0.067
Mof_H 	H 	0.4977	0.8143	0.3379	0.01
Mof_H 	H 	0.3947	0.2304	0.567	0.07
Mof_H 	H 	0.2174	0.7055	0.0219	0.051
Mof_H 	H 	0.7105	0.7212	0.0218	0.044
Mof_H 	H 	0.4797	0.5357	0.3051	0.063
Mof_H 	H 	0.0053	0.9363	0.1679	0.038
Mof_H 	H 	0.6777	0.7936	0.5182	0.033
Mof_H 	H 	0.3037	0.7218	0.931	0.058
Mof_H 	H 	0.2213	0.019	0.227	0.085
Mof_H 	H 	0.7593	0.6437	0.7715	0.047
Mof_H 	H 	0.4068	0.0277	0.1779	0.056
Mof_H 	H 	0.7956	0.7366	0.931	0.068
Mof_H 	H 	0.9079	0.0244	0.1852	0.064
Mof_H 	H 	0.6837	0.4484	0.2244	0.053
Mof_H 	H 	0.9821	0.479	0.7046	0.071
Mof_H 	H 	0.1853	0.298	0.7134	-0.008
Mof_H 	H 	0.5042	0.9382	0.1672	0.046
Mof_H 	H 	0.7887	0.9433	0.2747	0.059
Mof_H 	H 	0.7241	0.1894	0.2362	0.003
Mof_H 	H 	0.6214	0.1054	0.2594	-0.01
Mof_H 	H 	0.8601	0.5549	0.7629	0.059
Mof_H 	H 	0.6904	0.6046	0.2312	0.002
Mof_H 	H 	0.8215	0.1028	0.2244	0.097
Mof_H 	H 	0.7192	0.015	0.2502	0.079
Mof_H 	H 	0.6885	0.519	0.2258	0.072
Mof_H 	H 	0.2138	0.1918	0.2496	0.006
Mof_H 	H 	0.1267	0.1058	0.239	-0.016
Mof_H 	H 	0.7497	0.5587	0.6649	0.03
Mof_H 	H 	0.3856	0.8556	0.2514	0.047
Mof_H 	H 	0.3542	0.7747	0.8727	0.088
Mof_H 	H 	0.6785	0.795	0.4292	0.071
Mof_H 	H 	0.8387	0.478	0.664	0.07
Mof_H 	H 	0.6948	0.7205	0.2819	0.003
Mof_H 	H 	0.4907	0.6078	0.2804	0.078
Mof_C 	C 	0.2427	0.6079	0.7255	-0.085
Mof_C 	C 	0.1794	0.666	0.7296	0.358
Mof_C 	C 	0.0679	0.1651	0.7791	0.265
Mof_C 	C 	0.5372	0.2909	0.9275	-0.084
Mof_C 	C 	0.5581	0.1101	0.7809	-0.067
Mof_C 	C 	0.5302	0.2348	0.1342	-0.122
Mof_C 	C 	0.0751	0.3287	0.2787	0.375
Mof_C 	C 	0.9014	0.196	0.4314	0.039
Mof_C 	C 	0.0836	0.5468	0.28	0.039
Mof_C 	C 	0.5662	0.1627	0.7805	0.252
Mof_C 	C 	0.5574	0.9455	0.7747	0.108
Mof_C 	C 	0.072	0.3901	0.2843	-0.093
Mof_C 	C 	0.5839	0.3043	0.9289	0.005
Mof_C 	C 	0.0335	0.3	0.9256	-0.058
Mof_C 	C 	0.0638	0.1138	0.7784	-0.101
Mof_C 	C 	0.0757	0.3063	0.1019	-0.164
Mof_C 	C 	0.9547	0.2004	0.429	-0.112
Mof_C 	C 	0.0848	0.2928	0.1504	0.105
Mof_C 	C 	0.7825	0.213	0.5914	0.052
Mof_C 	C 	0.0839	0.3039	0.9843	-0.061
Mof_C 	C 	0.0074	0.2091	0.3695	0.363
Mof_C 	C 	0.0358	0.2955	0.0363	0.007
Mof_C 	C 	0.0384	0.6558	0.2624	0.048
Mof_C 	C 	0.7625	0.25	0.6384	-0.133
Mof_C 	C 	0.0834	0.3087	0.9287	-0.011
Mof_C 	C 	0.0658	0.9495	0.7645	0.09
Mof_C 	C 	0.0427	0.2822	0.0926	0.086
Mof_C 	C 	0.5756	0.3018	0.1036	-0.159
Mof_C 	C 	0.1563	0.7339	0.3641	-0.153
Mof_C 	C 	0.0302	0.6034	0.2736	-0.096
Mof_C 	C 	0.5846	0.2981	0.9853	-0.076
Mof_C 	C 	0.0924	0.781	0.4654	0.025
Mof_C 	C 	0.2784	0.6091	0.7515	0.002
Mof_C 	C 	0.5395	0.2852	0.873	0.282
Mof_C 	C 	0.0466	0.7916	0.3432	0.047
Mof_C 	C 	0.739	0.1908	0.6014	-0.104
Mof_C 	C 	0.4048	0.448	0.7374	0.069
Mof_C 	C 	0.0636	0.0084	0.7712	0.029
Mof_C 	C 	0.6078	0.8978	0.7724	-0.16
Mof_C 	C 	0.5526	0.0061	0.7833	0.006
Mof_C 	C 	0.5371	0.286	0.0362	0.024
Mof_C 	C 	0.8499	0.1936	0.4812	-0.105
Mof_C 	C 	0.4606	0.3403	0.7343	0.049
Mof_C 	C 	0.2567	0.5546	0.7072	0.012
Mof_C 	C 	0.0337	0.8015	0.5161	-0.088
Mof_C 	C 	0.0362	0.7992	0.5668	0.028
Mof_C 	C 	0.0337	0.1065	0.7483	0.024
Mof_C 	C 	0.1381	0.6073	0.2683	0.064
Mof_C 	C 	0.0331	0.2963	0.8723	0.245
Mof_C 	C 	0.5194	0.0575	0.7567	-0.071
Mof_C 	C 	0.1534	0.772	0.5192	0.036
Mof_C 	C 	0.5404	0.2231	0.1865	0.041
Mof_C 	C 	0.032	0.2324	0.1852	0.052
Mof_C 	C 	0.589	0.2887	0.1491	0.104
Mof_C 	C 	0.8443	0.2059	0.5335	0.037
Mof_C 	C 	0.0394	0.8049	0.3971	-0.11
Mof_C 	C 	0.6774	0.2041	0.6547	0.034
Mof_C 	C 	0.0951	0.7747	0.4101	0.06
Mof_C 	C 	0.1528	0.7734	0.4686	-0.093
Mof_C 	C 	0.0808	0.4922	0.2846	0.041
Mof_C 	C 	0.9825	0.2943	0.9779	-0.011
Mof_C 	C 	0.4894	0.2814	0.9788	0.013
Mof_C 	C 	0.3111	0.5003	0.7081	-0.079
Mof_C 	C 	0.0918	0.063	0.8074	0.023
Mof_C 	C 	0.9528	0.2042	0.4824	0.041
Mof_C 	C 	0.9877	0.2879	0.0339	-0.066
Mof_C 	C 	0.5057	0.9449	0.7701	-0.166
Mof_C 	C 	0.1354	0.3893	0.2515	0.008
Mof_C 	C 	0.5874	0.0079	0.8071	-0.064
Mof_C 	C 	0.4928	0.2753	0.0343	-0.086
Mof_C 	C 	0.0933	0.0112	0.7992	-0.092
Mof_C 	C 	0.3331	0.5531	0.7553	-0.074
Mof_C 	C 	0.5448	0.2755	0.0945	0.076
Mof_C 	C 	0.1343	0.5532	0.2832	-0.114
Mof_C 	C 	0.1546	0.7265	0.3163	0.111
Mof_C 	C 	0.5892	0.06	0.8112	-0.009
Mof_C 	C 	0.03	0.0575	0.7445	-0.094
Mof_C 	C 	0.1145	0.8473	0.7613	0.096
Mof_C 	C 	0.1356	0.4436	0.256	-0.086
Mof_C 	C 	0.495	0.393	0.7602	0.063
Mof_C 	C 	0.1146	0.8986	0.7684	-0.156
Mof_C 	C 	0.0195	0.9487	0.7531	-0.148
Mof_C 	C 	0.4422	0.4462	0.7592	-0.131
Mof_C 	C 	0.6148	0.8437	0.7577	0.084
Mof_C 	C 	0.5083	0.8945	0.7619	0.101
Mof_C 	C 	0.0162	0.4414	0.3142	0.042
Mof_C 	C 	0.3508	0.504	0.7304	0.021
Mof_C 	C 	0.5204	0.1085	0.7609	0.004
Mof_C 	C 	0.0223	0.2441	0.1333	-0.134
Mof_C 	C 	0.9017	0.205	0.5346	-0.103
Mof_C 	C 	0.0204	0.4885	0.3145	-0.105
Mof_C 	C 	0.7054	0.2597	0.6867	0.083
Mof_C 	C 	0.4105	0.3926	0.729	-0.113
Mof_C 	C 	0.0944	0.7875	0.5689	-0.098
Mof_C 	C 	0.0906	0.7851	0.6325	0.373
Mof_C 	C 	0.0222	0.8958	0.7464	0.094
Mof_C 	C 	0.5761	0.3921	0.2745	-0.085
Mof_C 	C 	0.575	0.334	0.2704	0.358
Mof_C 	C 	0.0121	0.8349	0.2209	0.267
Mof_C 	C 	0.7556	0.7091	0.0725	-0.083
Mof_C 	C 	0.4491	0.8899	0.2191	-0.067
Mof_C 	C 	0.8992	0.7652	0.8658	-0.123
Mof_C 	C 	0.6825	0.6713	0.7213	0.375
Mof_C 	C 	0.5288	0.804	0.5686	0.037
Mof_C 	C 	0.9104	0.4532	0.72	0.041
Mof_C 	C 	0.5094	0.8373	0.2195	0.252
Mof_C 	C 	0.2776	0.0545	0.2253	0.108
Mof_C 	C 	0.7464	0.6099	0.7157	-0.092
Mof_C 	C 	0.8171	0.6957	0.0711	0.004
Mof_C 	C 	0.2591	0.7	0.0744	-0.06
Mof_C 	C 	0.956	0.8862	0.2216	-0.102
Mof_C 	C 	0.4839	0.6937	0.8981	-0.164
Mof_C 	C 	0.5841	0.7996	0.571	-0.109
Mof_C 	C 	0.528	0.7072	0.8496	0.105
Mof_C 	C 	0.5869	0.787	0.4086	0.052
Mof_C 	C 	0.3721	0.6961	0.0157	-0.06
Mof_C 	C 	0.586	0.7909	0.6305	0.361
Mof_C 	C 	0.3676	0.7045	0.9637	0.004
Mof_C 	C 	0.9566	0.3442	0.7376	0.048
Mof_C 	C 	0.6509	0.75	0.3616	-0.133
Mof_C 	C 	0.3208	0.6913	0.0713	-0.011
Mof_C 	C 	0.7798	0.0505	0.2355	0.093
Mof_C 	C 	0.4175	0.7178	0.9074	0.086
Mof_C 	C 	0.981	0.6982	0.8964	-0.164
Mof_C 	C 	0.2543	0.2661	0.6359	-0.154
Mof_C 	C 	0.9072	0.3966	0.7264	-0.101
Mof_C 	C 	0.868	0.7019	0.0147	-0.075
Mof_C 	C 	0.3388	0.219	0.5346	0.025
Mof_C 	C 	0.639	0.3909	0.2485	0.002
Mof_C 	C 	0.6977	0.7148	0.127	0.282
Mof_C 	C 	0.1814	0.2084	0.6568	0.049
Mof_C 	C 	0.5312	0.8092	0.3986	-0.104
Mof_C 	C 	0.5902	0.552	0.2626	0.069
Mof_C 	C 	0.8432	0.9916	0.2288	0.027
Mof_C 	C 	0.278	0.1022	0.2276	-0.16
Mof_C 	C 	0.342	0.9939	0.2167	0.006
Mof_C 	C 	0.8593	0.714	0.9638	0.023
Mof_C 	C 	0.5247	0.8064	0.5188	-0.104
Mof_C 	C 	0.5352	0.6597	0.2657	0.049
Mof_C 	C 	0.5185	0.4454	0.2928	0.012
Mof_C 	C 	0.3513	0.1985	0.4839	-0.09
Mof_C 	C 	0.4022	0.2008	0.4332	0.025
Mof_C 	C 	0.8885	0.8935	0.2517	0.023
Mof_C 	C 	0.0137	0.3927	0.7317	0.068
Mof_C 	C 	0.2017	0.7037	0.1277	0.243
Mof_C 	C 	0.3336	0.9425	0.2433	-0.071
Mof_C 	C 	0.4446	0.228	0.4808	0.035
Mof_C 	C 	0.95	0.7769	0.8135	0.04
Mof_C 	C 	0.4496	0.7676	0.8148	0.052
Mof_C 	C 	0.0268	0.7113	0.8509	0.109
Mof_C 	C 	0.5837	0.7941	0.4665	0.036
Mof_C 	C 	0.2414	0.1951	0.6029	-0.115
Mof_C 	C 	0.5362	0.7959	0.3453	0.034
Mof_C 	C 	0.2799	0.2253	0.5899	0.062
Mof_C 	C 	0.3948	0.2266	0.5314	-0.092
Mof_C 	C 	0.8576	0.5078	0.7154	0.04
Mof_C 	C 	0.2547	0.7057	0.0221	-0.01
Mof_C 	C 	0.7496	0.7186	0.0212	0.013
Mof_C 	C 	0.5195	0.4997	0.2919	-0.079
Mof_C 	C 	0.9622	0.937	0.1926	0.018
Mof_C 	C 	0.6394	0.7958	0.5176	0.039
Mof_C 	C 	0.3095	0.7121	0.9661	-0.064
Mof_C 	C 	0.2207	0.0551	0.2299	-0.166
Mof_C 	C 	0.7762	0.6107	0.7485	0.007
Mof_C 	C 	0.4024	0.9921	0.1929	-0.064
Mof_C 	C 	0.8024	0.7247	0.9657	-0.085
Mof_C 	C 	0.9037	0.9888	0.2008	-0.089
Mof_C 	C 	0.6415	0.4469	0.2447	-0.074
Mof_C 	C 	0.9148	0.7245	0.9055	0.078
Mof_C 	C 	0.9707	0.4468	0.7168	-0.118
Mof_C 	C 	0.1974	0.2735	0.6837	0.111
Mof_C 	C 	0.4604	0.94	0.1888	-0.009
Mof_C 	C 	0.832	0.9425	0.2555	-0.093
Mof_C 	C 	0.7231	0.1527	0.2387	0.097
Mof_C 	C 	0.8352	0.5564	0.744	-0.085
Mof_C 	C 	0.6482	0.607	0.2398	0.063
Mof_C 	C 	0.7816	0.1014	0.2316	-0.157
Mof_C 	C 	0.7213	0.0513	0.2469	-0.152
Mof_C 	C 	0.6476	0.5538	0.2408	-0.131
Mof_C 	C 	0.2162	0.1563	0.2423	0.084
Mof_C 	C 	0.1647	0.1055	0.2381	0.101
Mof_C 	C 	0.7718	0.5586	0.6858	0.039
Mof_C 	C 	0.5852	0.496	0.2696	0.021
Mof_C 	C 	0.3898	0.8915	0.2391	0.004
Mof_C 	C 	0.3997	0.7559	0.8667	-0.135
Mof_C 	C 	0.6413	0.795	0.4654	-0.101
Mof_C 	C 	0.8234	0.5115	0.6855	-0.107
Mof_C 	C 	0.6518	0.7403	0.3133	0.083
Mof_C 	C 	0.5321	0.6074	0.271	-0.113
Mof_C 	C 	0.4508	0.2125	0.4311	-0.097
Mof_C 	C 	0.5082	0.2149	0.3675	0.373
Mof_C 	C 	0.6644	0.1042	0.2536	0.092
Mof_N 	N 	0.0611	0.2604	0.195	-0.248
Mof_N 	N 	0.5088	0.3352	0.75	-0.251
Mof_N 	N 	0.5678	0.2548	0.1934	-0.244
Mof_N 	N 	0.0924	0.6597	0.2579	-0.25
Mof_N 	N 	0.104	0.7476	0.3042	-0.251
Mof_N 	N 	0.6574	0.2445	0.6963	-0.239
Mof_N 	N 	0.0698	0.846	0.7516	-0.248
Mof_N 	N 	0.5643	0.8448	0.7548	-0.245
Mof_N 	N 	0.5165	0.7396	0.805	-0.248
Mof_N 	N 	0.594	0.6648	0.25	-0.251
Mof_N 	N 	0.016	0.7452	0.8066	-0.243
Mof_N 	N 	0.01	0.3403	0.7421	-0.25
Mof_N 	N 	0.1558	0.2524	0.6958	-0.251
Mof_N 	N 	0.5982	0.7555	0.3037	-0.239
Mof_N 	N 	0.6674	0.154	0.2484	-0.248
Mof_N 	N 	0.1639	0.1552	0.2452	-0.245
Mof_O 	O 	0.1447	0.6622	0.7098	-0.369
Mof_O 	O 	0.0115	0.3355	0.3027	-0.357
Mof_O 	O 	0.6019	0.166	0.7984	-0.354
Mof_O 	O 	0.1036	0.1701	0.7971	-0.345
Mof_O 	O 	0.002	0.2088	0.326	-0.427
Mof_O 	O 	0.0894	0.2907	0.8215	-0.377
Mof_O 	O 	0.5326	0.2123	0.7549	-0.362
Mof_O 	O 	0.1209	0.291	0.2552	-0.475
Mof_O 	O 	0.5909	0.2858	0.8238	-0.387
Mof_O 	O 	0.0331	0.2171	0.7561	-0.372
Mof_O 	O 	0.1692	0.7087	0.7469	-0.443
Mof_O 	O 	0.0546	0.2131	0.3675	-0.379
Mof_O 	O 	0.4961	0.2761	0.8699	-0.342
Mof_O 	O 	0.9884	0.2875	0.8695	-0.324
Mof_O 	O 	0.0407	0.7907	0.6751	-0.44
Mof_O 	O 	0.1412	0.7775	0.6349	-0.394
Mof_O 	O 	0.5167	0.3378	0.2902	-0.37
Mof_O 	O 	0.6497	0.6645	0.6973	-0.358
Mof_O 	O 	0.5663	0.834	0.2016	-0.354
Mof_O 	O 	0.0708	0.8299	0.2029	-0.345
Mof_O 	O 	0.5368	0.7912	0.674	-0.427
Mof_O 	O 	0.2016	0.7093	0.1785	-0.377
Mof_O 	O 	0.4998	0.7877	0.2451	-0.362
Mof_O 	O 	0.6671	0.709	0.7448	-0.475
Mof_O 	O 	0.7005	0.7142	0.1762	-0.387
Mof_O 	O 	0.0063	0.7829	0.2439	-0.372
Mof_O 	O 	0.6248	0.2913	0.2531	-0.443
Mof_O 	O 	0.6352	0.7869	0.6325	-0.379
Mof_O 	O 	0.6421	0.7239	0.1301	-0.342
Mof_O 	O 	0.1454	0.7125	0.1305	-0.322
Mof_O 	O 	0.5065	0.2093	0.3249	-0.441
Mof_O 	O 	0.5536	0.2225	0.3651	-0.394
_end
