# CIF file generated by openbabel 3.1.0, see https://openbabel.org
data_I
_chemical_name_common 'YEYCUC_clean'
_cell_length_a 23.092
_cell_length_b 23.092
_cell_length_c 23.092
_cell_angle_alpha 60
_cell_angle_beta 60
_cell_angle_gamma 60
_space_group_name_H-M_alt 'P 1'
_space_group_name_Hall 'P 1'
loop_
    _symmetry_equiv_pos_as_xyz
    x,y,z
loop_
    _atom_site_label
    _atom_site_type_symbol
    _atom_site_fract_x
    _atom_site_fract_y
    _atom_site_fract_z
    _atom_site_occupancy
    H1       H        0.62650    0.85270    0.55990    1.000
    H2       H        0.44010    0.14730    0.37350    1.000
    H3       H        0.41230    0.76470    0.58770    1.000
    H4       H        0.41220    0.86700    0.58780    1.000
    C5       C        0.44789    0.78531    0.55211    1.000
    C6       C        0.44780    0.84620    0.55220    1.000
    O7       O        0.45047    0.66683    0.54953    1.000
    H8       H        0.85270    0.62650    0.96090    1.000
    H9       H        0.14730    0.44010    0.03910    1.000
    H10      H        0.76470    0.41230    0.23530    1.000
    H11      H        0.86700    0.41220    0.13300    1.000
    C12      C        0.78531    0.44789    0.21469    1.000
    C13      C        0.84620    0.44780    0.15380    1.000
    O14      O        0.66683    0.45047    0.33317    1.000
    H15      H        0.55990    0.96090    0.62650    1.000
    H16      H        0.37350    0.03910    0.44010    1.000
    H17      H        0.58770    0.23530    0.41230    1.000
    H18      H        0.58780    0.13300    0.41220    1.000
    C19      C        0.55211    0.21469    0.44789    1.000
    C20      C        0.55220    0.15380    0.44780    1.000
    O21      O        0.54953    0.33317    0.45047    1.000
    H22      H        0.96090    0.55990    0.85270    1.000
    H23      H        0.03910    0.37350    0.14730    1.000
    H24      H        0.23530    0.58770    0.76470    1.000
    H25      H        0.13300    0.58780    0.86700    1.000
    C26      C        0.21469    0.55211    0.78531    1.000
    C27      C        0.15380    0.55220    0.84620    1.000
    O28      O        0.33317    0.54953    0.66683    1.000
    H29      H        0.55990    0.62650    0.85270    1.000
    H30      H        0.37350    0.44010    0.14730    1.000
    H31      H        0.58770    0.41230    0.76470    1.000
    H32      H        0.58780    0.41220    0.86700    1.000
    C33      C        0.55211    0.44789    0.78531    1.000
    C34      C        0.55220    0.44780    0.84620    1.000
    O35      O        0.54953    0.45047    0.66683    1.000
    H36      H        0.96090    0.85270    0.62650    1.000
    H37      H        0.03910    0.14730    0.44010    1.000
    H38      H        0.23530    0.76470    0.41230    1.000
    H39      H        0.13300    0.86700    0.41220    1.000
    C40      C        0.21469    0.78531    0.44789    1.000
    C41      C        0.15380    0.84620    0.44780    1.000
    O42      O        0.33317    0.66683    0.45047    1.000
    H43      H        0.62650    0.55990    0.96090    1.000
    H44      H        0.44010    0.37350    0.03910    1.000
    H45      H        0.41230    0.58770    0.23530    1.000
    H46      H        0.41220    0.58780    0.13300    1.000
    C47      C        0.44789    0.55211    0.21469    1.000
    C48      C        0.44780    0.55220    0.15380    1.000
    O49      O        0.45047    0.54953    0.33317    1.000
    H50      H        0.85270    0.96090    0.55990    1.000
    H51      H        0.14730    0.03910    0.37350    1.000
    H52      H        0.76470    0.23530    0.58770    1.000
    H53      H        0.86700    0.13300    0.58780    1.000
    C54      C        0.78531    0.21469    0.55211    1.000
    C55      C        0.84620    0.15380    0.55220    1.000
    O56      O        0.66683    0.33317    0.54953    1.000
    H57      H        0.85270    0.55990    0.62650    1.000
    H58      H        0.14730    0.37350    0.44010    1.000
    H59      H        0.76470    0.58770    0.41230    1.000
    H60      H        0.86700    0.58780    0.41220    1.000
    C61      C        0.78531    0.55211    0.44789    1.000
    C62      C        0.84620    0.55220    0.44780    1.000
    O63      O        0.66683    0.54953    0.45047    1.000
    H64      H        0.62650    0.96090    0.85270    1.000
    H65      H        0.44010    0.03910    0.14730    1.000
    H66      H        0.41230    0.23530    0.76470    1.000
    H67      H        0.41220    0.13300    0.86700    1.000
    C68      C        0.44789    0.21469    0.78531    1.000
    C69      C        0.44780    0.15380    0.84620    1.000
    O70      O        0.45047    0.33317    0.66683    1.000
    H71      H        0.96090    0.62650    0.55990    1.000
    H72      H        0.03910    0.44010    0.37350    1.000
    H73      H        0.23530    0.41230    0.58770    1.000
    H74      H        0.13300    0.41220    0.58780    1.000
    C75      C        0.21469    0.44789    0.55211    1.000
    C76      C        0.15380    0.44780    0.55220    1.000
    O77      O        0.33317    0.45047    0.54953    1.000
    H78      H        0.55990    0.85270    0.96090    1.000
    H79      H        0.37350    0.14730    0.03910    1.000
    H80      H        0.58770    0.76470    0.23530    1.000
    H81      H        0.58780    0.86700    0.13300    1.000
    C82      C        0.55211    0.78531    0.21469    1.000
    C83      C        0.55220    0.84620    0.15380    1.000
    O84      O        0.54953    0.66683    0.33317    1.000
    H85      H        0.85270    0.62650    0.55990    1.000
    H86      H        0.14730    0.44010    0.37350    1.000
    H87      H        0.76470    0.41230    0.58770    1.000
    H88      H        0.86700    0.41220    0.58780    1.000
    C89      C        0.78531    0.44789    0.55211    1.000
    C90      C        0.84620    0.44780    0.55220    1.000
    O91      O        0.66683    0.45047    0.54953    1.000
    H92      H        0.62650    0.85270    0.96090    1.000
    H93      H        0.44010    0.14730    0.03910    1.000
    H94      H        0.41230    0.76470    0.23530    1.000
    H95      H        0.41220    0.86700    0.13300    1.000
    C96      C        0.44789    0.78531    0.21469    1.000
    C97      C        0.44780    0.84620    0.15380    1.000
    O98      O        0.45047    0.66683    0.33317    1.000
    H99      H        0.96090    0.55990    0.62650    1.000
    H100     H        0.03910    0.37350    0.44010    1.000
    H101     H        0.23530    0.58770    0.41230    1.000
    H102     H        0.13300    0.58780    0.41220    1.000
    C103     C        0.21469    0.55211    0.44789    1.000
    C104     C        0.15380    0.55220    0.44780    1.000
    O105     O        0.33317    0.54953    0.45047    1.000
    H106     H        0.55990    0.96090    0.85270    1.000
    H107     H        0.37350    0.03910    0.14730    1.000
    H108     H        0.58770    0.23530    0.76470    1.000
    H109     H        0.58780    0.13300    0.86700    1.000
    C110     C        0.55211    0.21469    0.78531    1.000
    C111     C        0.55220    0.15380    0.84620    1.000
    O112     O        0.54953    0.33317    0.66683    1.000
    H113     H        0.62650    0.55990    0.85270    1.000
    H114     H        0.44010    0.37350    0.14730    1.000
    H115     H        0.41230    0.58770    0.76470    1.000
    H116     H        0.41220    0.58780    0.86700    1.000
    C117     C        0.44789    0.55211    0.78531    1.000
    C118     C        0.44780    0.55220    0.84620    1.000
    O119     O        0.45047    0.54953    0.66683    1.000
    H120     H        0.85270    0.96090    0.62650    1.000
    H121     H        0.14730    0.03910    0.44010    1.000
    H122     H        0.76470    0.23530    0.41230    1.000
    H123     H        0.86700    0.13300    0.41220    1.000
    C124     C        0.78531    0.21469    0.44789    1.000
    C125     C        0.84620    0.15380    0.44780    1.000
    O126     O        0.66683    0.33317    0.45047    1.000
    H127     H        0.55990    0.62650    0.96090    1.000
    H128     H        0.37350    0.44010    0.03910    1.000
    H129     H        0.58770    0.41230    0.23530    1.000
    H130     H        0.58780    0.41220    0.13300    1.000
    C131     C        0.55211    0.44789    0.21469    1.000
    C132     C        0.55220    0.44780    0.15380    1.000
    O133     O        0.54953    0.45047    0.33317    1.000
    H134     H        0.96090    0.85270    0.55990    1.000
    H135     H        0.03910    0.14730    0.37350    1.000
    H136     H        0.23530    0.76470    0.58770    1.000
    H137     H        0.13300    0.86700    0.58780    1.000
    C138     C        0.21469    0.78531    0.55211    1.000
    C139     C        0.15380    0.84620    0.55220    1.000
    O140     O        0.33317    0.66683    0.54953    1.000
    H141     H        0.55990    0.85270    0.62650    1.000
    H142     H        0.37350    0.14730    0.44010    1.000
    H143     H        0.58770    0.76470    0.41230    1.000
    H144     H        0.58780    0.86700    0.41220    1.000
    C145     C        0.55211    0.78531    0.44789    1.000
    C146     C        0.55220    0.84620    0.44780    1.000
    O147     O        0.54953    0.66683    0.45047    1.000
    H148     H        0.96090    0.62650    0.85270    1.000
    H149     H        0.03910    0.44010    0.14730    1.000
    H150     H        0.23530    0.41230    0.76470    1.000
    H151     H        0.13300    0.41220    0.86700    1.000
    C152     C        0.21469    0.44789    0.78531    1.000
    C153     C        0.15380    0.44780    0.84620    1.000
    O154     O        0.33317    0.45047    0.66683    1.000
    H155     H        0.62650    0.96090    0.55990    1.000
    H156     H        0.44010    0.03910    0.37350    1.000
    H157     H        0.41230    0.23530    0.58770    1.000
    H158     H        0.41220    0.13300    0.58780    1.000
    C159     C        0.44789    0.21469    0.55211    1.000
    C160     C        0.44780    0.15380    0.55220    1.000
    O161     O        0.45047    0.33317    0.54953    1.000
    H162     H        0.85270    0.55990    0.96090    1.000
    H163     H        0.14730    0.37350    0.03910    1.000
    H164     H        0.76470    0.58770    0.23530    1.000
    H165     H        0.86700    0.58780    0.13300    1.000
    C166     C        0.78531    0.55211    0.21469    1.000
    C167     C        0.84620    0.55220    0.15380    1.000
    O168     O        0.66683    0.54953    0.33317    1.000
    Zr169    Zr       0.42465    0.57535    0.57535    1.000
    Zr170    Zr       0.57535    0.42465    0.42465    1.000
    Zr171    Zr       0.57535    0.42465    0.57535    1.000
    Zr172    Zr       0.42465    0.57535    0.42465    1.000
    Zr173    Zr       0.57535    0.57535    0.42465    1.000
    Zr174    Zr       0.42465    0.42465    0.57535    1.000
    H175     H        0.57190    0.82430    0.57190    1.000
    H176     H        0.42810    0.17570    0.42810    1.000
    C177     C        0.50000    0.68934    0.50000    1.000
    C178     C        0.50000    0.75520    0.50000    1.000
    C179     C        0.50000    0.87520    0.50000    1.000
    C180     C        0.50000    0.94066    0.50000    1.000
    C181     C        0.53718    0.93272    0.53718    1.000
    C182     C        0.57770    0.85910    0.57770    1.000
    C183     C        0.46282    0.06728    0.46282    1.000
    C184     C        0.42230    0.14090    0.42230    1.000
    H185     H        0.82430    0.57190    0.03190    1.000
    H186     H        0.17570    0.42810    0.96810    1.000
    C187     C        0.68934    0.50000    0.31066    1.000
    C188     C        0.75520    0.50000    0.24480    1.000
    C189     C        0.87520    0.50000    0.12480    1.000
    C190     C        0.94066    0.50000    0.05934    1.000
    C191     C        0.93272    0.53718    0.99292    1.000
    C192     C        0.85910    0.57770    0.98550    1.000
    C193     C        0.06728    0.46282    0.00708    1.000
    C194     C        0.14090    0.42230    0.01450    1.000
    H195     H        0.57190    0.03190    0.57190    1.000
    H196     H        0.42810    0.96810    0.42810    1.000
    C197     C        0.50000    0.31066    0.50000    1.000
    C198     C        0.50000    0.24480    0.50000    1.000
    C199     C        0.50000    0.12480    0.50000    1.000
    C200     C        0.50000    0.05934    0.50000    1.000
    C201     C        0.53718    0.99292    0.53718    1.000
    C202     C        0.57770    0.98550    0.57770    1.000
    C203     C        0.46282    0.00708    0.46282    1.000
    C204     C        0.42230    0.01450    0.42230    1.000
    H205     H        0.03190    0.57190    0.82430    1.000
    H206     H        0.96810    0.42810    0.17570    1.000
    C207     C        0.31066    0.50000    0.68934    1.000
    C208     C        0.24480    0.50000    0.75520    1.000
    C209     C        0.12480    0.50000    0.87520    1.000
    C210     C        0.05934    0.50000    0.94066    1.000
    C211     C        0.99292    0.53718    0.93272    1.000
    C212     C        0.98550    0.57770    0.85910    1.000
    C213     C        0.00708    0.46282    0.06728    1.000
    C214     C        0.01450    0.42230    0.14090    1.000
    H215     H        0.57190    0.57190    0.82430    1.000
    H216     H        0.42810    0.42810    0.17570    1.000
    C217     C        0.50000    0.50000    0.68934    1.000
    C218     C        0.50000    0.50000    0.75520    1.000
    C219     C        0.50000    0.50000    0.87520    1.000
    C220     C        0.50000    0.50000    0.94066    1.000
    C221     C        0.53718    0.53718    0.93272    1.000
    C222     C        0.57770    0.57770    0.85910    1.000
    C223     C        0.46282    0.46282    0.06728    1.000
    C224     C        0.42230    0.42230    0.14090    1.000
    H225     H        0.03190    0.82430    0.57190    1.000
    H226     H        0.96810    0.17570    0.42810    1.000
    C227     C        0.31066    0.68934    0.50000    1.000
    C228     C        0.24480    0.75520    0.50000    1.000
    C229     C        0.12480    0.87520    0.50000    1.000
    C230     C        0.05934    0.94066    0.50000    1.000
    C231     C        0.99292    0.93272    0.53718    1.000
    C232     C        0.98550    0.85910    0.57770    1.000
    C233     C        0.00708    0.06728    0.46282    1.000
    C234     C        0.01450    0.14090    0.42230    1.000
    H235     H        0.57190    0.57190    0.03190    1.000
    H236     H        0.42810    0.42810    0.96810    1.000
    C237     C        0.50000    0.50000    0.31066    1.000
    C238     C        0.50000    0.50000    0.24480    1.000
    C239     C        0.50000    0.50000    0.12480    1.000
    C240     C        0.50000    0.50000    0.05934    1.000
    C241     C        0.53718    0.53718    0.99292    1.000
    C242     C        0.57770    0.57770    0.98550    1.000
    C243     C        0.46282    0.46282    0.00708    1.000
    C244     C        0.42230    0.42230    0.01450    1.000
    H245     H        0.82430    0.03190    0.57190    1.000
    H246     H        0.17570    0.96810    0.42810    1.000
    C247     C        0.68934    0.31066    0.50000    1.000
    C248     C        0.75520    0.24480    0.50000    1.000
    C249     C        0.87520    0.12480    0.50000    1.000
    C250     C        0.94066    0.05934    0.50000    1.000
    C251     C        0.93272    0.99292    0.53718    1.000
    C252     C        0.85910    0.98550    0.57770    1.000
    C253     C        0.06728    0.00708    0.46282    1.000
    C254     C        0.14090    0.01450    0.42230    1.000
    H255     H        0.82430    0.57190    0.57190    1.000
    H256     H        0.17570    0.42810    0.42810    1.000
    C257     C        0.68934    0.50000    0.50000    1.000
    C258     C        0.75520    0.50000    0.50000    1.000
    C259     C        0.87520    0.50000    0.50000    1.000
    C260     C        0.94066    0.50000    0.50000    1.000
    C261     C        0.93272    0.53718    0.53718    1.000
    C262     C        0.85910    0.57770    0.57770    1.000
    C263     C        0.06728    0.46282    0.46282    1.000
    C264     C        0.14090    0.42230    0.42230    1.000
    H265     H        0.57190    0.03190    0.82430    1.000
    H266     H        0.42810    0.96810    0.17570    1.000
    C267     C        0.50000    0.31066    0.68934    1.000
    C268     C        0.50000    0.24480    0.75520    1.000
    C269     C        0.50000    0.12480    0.87520    1.000
    C270     C        0.50000    0.05934    0.94066    1.000
    C271     C        0.53718    0.99292    0.93272    1.000
    C272     C        0.57770    0.98550    0.85910    1.000
    C273     C        0.46282    0.00708    0.06728    1.000
    C274     C        0.42230    0.01450    0.14090    1.000
    H275     H        0.03190    0.57190    0.57190    1.000
    H276     H        0.96810    0.42810    0.42810    1.000
    C277     C        0.31066    0.50000    0.50000    1.000
    C278     C        0.24480    0.50000    0.50000    1.000
    C279     C        0.12480    0.50000    0.50000    1.000
    C280     C        0.05934    0.50000    0.50000    1.000
    C281     C        0.99292    0.53718    0.53718    1.000
    C282     C        0.98550    0.57770    0.57770    1.000
    C283     C        0.00708    0.46282    0.46282    1.000
    C284     C        0.01450    0.42230    0.42230    1.000
    H285     H        0.57190    0.82430    0.03190    1.000
    H286     H        0.42810    0.17570    0.96810    1.000
    C287     C        0.50000    0.68934    0.31066    1.000
    C288     C        0.50000    0.75520    0.24480    1.000
    C289     C        0.50000    0.87520    0.12480    1.000
    C290     C        0.50000    0.94066    0.05934    1.000
    C291     C        0.53718    0.93272    0.99292    1.000
    C292     C        0.57770    0.85910    0.98550    1.000
    C293     C        0.46282    0.06728    0.00708    1.000
    C294     C        0.42230    0.14090    0.01450    1.000
    O295     O        0.46293    0.61121    0.46293    1.000
    O296     O        0.53707    0.38879    0.53707    1.000
    O297     O        0.61121    0.46293    0.46293    1.000
    O298     O        0.38879    0.53707    0.53707    1.000
    O299     O        0.46293    0.46293    0.46293    1.000
    O300     O        0.53707    0.53707    0.53707    1.000
    O301     O        0.46293    0.46293    0.61121    1.000
    O302     O        0.53707    0.53707    0.38879    1.000
    H303     H        0.44119    0.44119    0.44119    1.000
    H304     H        0.44119    0.44119    0.67644    1.000
    H305     H        0.44119    0.67644    0.44119    1.000
    H306     H        0.67644    0.44119    0.44119    1.000
