# CIF file generated by openbabel 3.1.0, see https://openbabel.org
data_I
_chemical_name_common 'image0'
_cell_length_a 10.685
_cell_length_b 11.821
_cell_length_c 36.625
_cell_angle_alpha 90
_cell_angle_beta 90
_cell_angle_gamma 90
_space_group_name_H-M_alt 'P 1'
_space_group_name_Hall 'P 1'
loop_
    _symmetry_equiv_pos_as_xyz
    x,y,z
loop_
    _atom_site_label
    _atom_site_type_symbol
    _atom_site_fract_x
    _atom_site_fract_y
    _atom_site_fract_z
    _atom_site_occupancy
    Ag1      Ag       0.40318    0.43974    0.70989    1.000
    Ag2      Ag       0.36050    0.86199    0.55654    1.000
    C1       C        0.64480    0.27810    0.57820    1.000
    N1       N        0.62990    0.31450    0.61550    1.000
    N2       N        0.72240    0.29770    0.64080    1.000
    C2       C        0.67290    0.33890    0.67030    1.000
    N3       N        0.55630    0.38170    0.66690    1.000
    C3       C        0.53320    0.36470    0.63160    1.000
    N4       N        0.61200    0.15790    0.57470    1.000
    N5       N        0.69240    0.07740    0.58650    1.000
    C4       C        0.63150    0.98380    0.57970    1.000
    N6       N        0.51180    0.99970    0.56520    1.000
    C5       C        0.50900    0.10990    0.56260    1.000
    C6       C        0.15340    0.58780    0.67380    1.000
    N7       N        0.12730    0.46880    0.66950    1.000
    N8       N        0.21630    0.39110    0.67800    1.000
    C7       C        0.15890    0.29540    0.67070    1.000
    N9       N        0.04150    0.30760    0.65800    1.000
    C8       C        0.02370    0.41690    0.65830    1.000
    N10      N        0.23450    0.63210    0.64560    1.000
    N11      N        0.35620    0.59670    0.64340    1.000
    C9       C        0.39800    0.65730    0.61650    1.000
    N12      N        0.31730    0.72750    0.60150    1.000
    C10      C        0.21290    0.70960    0.61990    1.000
    H1       H        0.59136    0.32146    0.56284    1.000
    H2       H        0.72909    0.28836    0.57092    1.000
    H3       H        0.71670    0.33924    0.69301    1.000
    H4       H        0.45753    0.38589    0.61976    1.000
    H5       H        0.66523    0.91057    0.58444    1.000
    H6       H        0.43975    0.15075    0.55300    1.000
    H7       H        0.07584    0.62968    0.67371    1.000
    H8       H        0.19193    0.60043    0.69733    1.000
    H9       H        0.19692    0.22393    0.67425    1.000
    H10      H        0.94756    0.45354    0.65154    1.000
    H11      H        0.48181    0.64995    0.60812    1.000
    H12      H        0.13518    0.74628    0.61582    1.000
    Ag3      Ag       0.39405    0.32945    0.35967    1.000
    C11      C        0.28150    0.72850    0.27930    1.000
    N13      N        0.15760    0.77330    0.27330    1.000
    N14      N        0.09070    0.74680    0.24290    1.000
    C12      C        0.99820    0.81810    0.24410    1.000
    N15      N        0.00180    0.89040    0.27260    1.000
    C13      C        0.10140    0.86010    0.29060    1.000
    N16      N        0.28150    0.61050    0.28950    1.000
    N17      N        0.25650    0.52980    0.26380    1.000
    C14      C        0.28090    0.43710    0.28250    1.000
    N18      N        0.31910    0.45370    0.31770    1.000
    C15      C        0.31980    0.56350    0.32040    1.000
    C16      C        0.62660    0.49130    0.48960    1.000
    N19      N        0.60260    0.47050    0.45140    1.000
    N20      N        0.68970    0.49780    0.42580    1.000
    C17      C        0.63050    0.47520    0.39590    1.000
    N21      N        0.51340    0.43160    0.40030    1.000
    C18      C        0.49780    0.43190    0.43470    1.000
    N22      N        0.59420    0.60450    0.49870    1.000
    N23      N        0.66530    0.69280    0.48700    1.000
    C19      C        0.60790    0.78230    0.50060    1.000
    N24      N        0.50190    0.75640    0.51920    1.000
    C20      C        0.49700    0.64550    0.51750    1.000
    H13      H        0.32800    0.73644    0.25712    1.000
    H14      H        0.32033    0.77086    0.29793    1.000
    H15      H        0.93357    0.81941    0.22626    1.000
    H16      H        0.12961    0.89432    0.31284    1.000
    H17      H        0.27219    0.36335    0.27230    1.000
    H18      H        0.34466    0.60322    0.34182    1.000
    H19      H        0.57955    0.43883    0.50449    1.000
    H20      H        0.71422    0.47802    0.49496    1.000
    H21      H        0.66610    0.48864    0.37260    1.000
    H22      H        0.42410    0.40783    0.44702    1.000
    H23      H        0.63802    0.85709    0.49760    1.000
    H24      H        0.43331    0.59978    0.52809    1.000
    Ag4      Ag       0.89405    0.17055    0.64033    1.000
    C21      C        0.78150    0.77150    0.72070    1.000
    N25      N        0.65760    0.72670    0.72670    1.000
    N26      N        0.59070    0.75320    0.75710    1.000
    C22      C        0.49820    0.68190    0.75590    1.000
    N27      N        0.50180    0.60960    0.72740    1.000
    C23      C        0.60140    0.63990    0.70940    1.000
    N28      N        0.78150    0.88950    0.71050    1.000
    N29      N        0.75650    0.97020    0.73620    1.000
    C24      C        0.78090    0.06290    0.71750    1.000
    N30      N        0.81910    0.04630    0.68230    1.000
    C25      C        0.81980    0.93650    0.67960    1.000
    C26      C        0.12660    0.00870    0.51040    1.000
    N31      N        0.10260    0.02950    0.54860    1.000
    N32      N        0.18970    0.00220    0.57420    1.000
    C27      C        0.13050    0.02480    0.60410    1.000
    N33      N        0.01340    0.06840    0.59970    1.000
    C28      C        0.99780    0.06810    0.56530    1.000
    N34      N        0.09420    0.89550    0.50130    1.000
    N35      N        0.16530    0.80720    0.51300    1.000
    C29      C        0.10790    0.71770    0.49940    1.000
    N36      N        0.00190    0.74360    0.48080    1.000
    C30      C        0.99700    0.85450    0.48250    1.000
    H25      H        0.82800    0.76356    0.74288    1.000
    H26      H        0.82033    0.72914    0.70207    1.000
    H27      H        0.43357    0.68059    0.77374    1.000
    H28      H        0.62961    0.60568    0.68716    1.000
    H29      H        0.77219    0.13665    0.72770    1.000
    H30      H        0.84466    0.89678    0.65818    1.000
    H31      H        0.07955    0.06117    0.49551    1.000
    H32      H        0.21422    0.02198    0.50504    1.000
    H33      H        0.16610    0.01136    0.62740    1.000
    H34      H        0.92410    0.09217    0.55298    1.000
    H35      H        0.13802    0.64291    0.50240    1.000
    H36      H        0.93331    0.90022    0.47191    1.000
    Ag5      Ag       0.90318    0.06026    0.29011    1.000
    Ag6      Ag       0.86050    0.63801    0.44346    1.000
    C31      C        0.14480    0.22190    0.42180    1.000
    N37      N        0.12990    0.18550    0.38450    1.000
    N38      N        0.22240    0.20230    0.35920    1.000
    C32      C        0.17290    0.16110    0.32970    1.000
    N39      N        0.05630    0.11830    0.33310    1.000
    C33      C        0.03320    0.13530    0.36840    1.000
    N40      N        0.11200    0.34210    0.42530    1.000
    N41      N        0.19240    0.42260    0.41350    1.000
    C34      C        0.13150    0.51620    0.42030    1.000
    N42      N        0.01180    0.50030    0.43480    1.000
    C35      C        0.00900    0.39010    0.43740    1.000
    C36      C        0.65340    0.91220    0.32620    1.000
    N43      N        0.62730    0.03120    0.33050    1.000
    N44      N        0.71630    0.10890    0.32200    1.000
    C37      C        0.65890    0.20460    0.32930    1.000
    N45      N        0.54150    0.19240    0.34200    1.000
    C38      C        0.52370    0.08310    0.34170    1.000
    N46      N        0.73450    0.86790    0.35440    1.000
    N47      N        0.85620    0.90330    0.35660    1.000
    C39      C        0.89800    0.84270    0.38350    1.000
    N48      N        0.81730    0.77250    0.39850    1.000
    C40      C        0.71290    0.79040    0.38010    1.000
    H37      H        0.09136    0.17854    0.43716    1.000
    H38      H        0.22909    0.21164    0.42908    1.000
    H39      H        0.21670    0.16076    0.30699    1.000
    H40      H        0.95753    0.11411    0.38024    1.000
    H41      H        0.16523    0.58943    0.41556    1.000
    H42      H        0.93975    0.34925    0.44700    1.000
    H43      H        0.57584    0.87032    0.32629    1.000
    H44      H        0.69193    0.89957    0.30267    1.000
    H45      H        0.69692    0.27607    0.32575    1.000
    H46      H        0.44756    0.04646    0.34846    1.000
    H47      H        0.98181    0.85005    0.39188    1.000
    H48      H        0.63518    0.75372    0.38418    1.000
    Ag7      Ag       0.10595    0.67055    0.85967    1.000
    C41      C        0.21850    0.27150    0.77930    1.000
    N49      N        0.34240    0.22670    0.77330    1.000
    N50      N        0.40930    0.25320    0.74290    1.000
    C42      C        0.50180    0.18190    0.74410    1.000
    N51      N        0.49820    0.10960    0.77260    1.000
    C43      C        0.39860    0.13990    0.79060    1.000
    N52      N        0.21850    0.38950    0.78950    1.000
    N53      N        0.24350    0.47020    0.76380    1.000
    C44      C        0.21910    0.56290    0.78250    1.000
    N54      N        0.18090    0.54630    0.81770    1.000
    C45      C        0.18020    0.43650    0.82040    1.000
    C46      C        0.87340    0.50870    0.98960    1.000
    N55      N        0.89740    0.52950    0.95140    1.000
    N56      N        0.81030    0.50220    0.92580    1.000
    C47      C        0.86950    0.52480    0.89590    1.000
    N57      N        0.98660    0.56840    0.90030    1.000
    C48      C        0.00220    0.56810    0.93470    1.000
    N58      N        0.90580    0.39550    0.99870    1.000
    N59      N        0.83470    0.30720    0.98700    1.000
    C49      C        0.89210    0.21770    0.00060    1.000
    N60      N        0.99810    0.24360    0.01920    1.000
    C50      C        0.00300    0.35450    0.01750    1.000
    H49      H        0.17200    0.26356    0.75712    1.000
    H50      H        0.17967    0.22914    0.79793    1.000
    H51      H        0.56643    0.18059    0.72626    1.000
    H52      H        0.37039    0.10568    0.81284    1.000
    H53      H        0.22781    0.63665    0.77230    1.000
    H54      H        0.15534    0.39678    0.84182    1.000
    H55      H        0.92045    0.56117    0.00449    1.000
    H56      H        0.78578    0.52198    0.99496    1.000
    H57      H        0.83390    0.51136    0.87260    1.000
    H58      H        0.07590    0.59217    0.94702    1.000
    H59      H        0.86198    0.14291    0.99760    1.000
    H60      H        0.06669    0.40022    0.02809    1.000
    Ag8      Ag       0.09682    0.56026    0.20989    1.000
    Ag9      Ag       0.13950    0.13801    0.05654    1.000
    C51      C        0.85520    0.72190    0.07820    1.000
    N61      N        0.87010    0.68550    0.11550    1.000
    N62      N        0.77760    0.70230    0.14080    1.000
    C52      C        0.82710    0.66110    0.17030    1.000
    N63      N        0.94370    0.61830    0.16690    1.000
    C53      C        0.96680    0.63530    0.13160    1.000
    N64      N        0.88800    0.84210    0.07470    1.000
    N65      N        0.80760    0.92260    0.08650    1.000
    C54      C        0.86850    0.01620    0.07970    1.000
    N66      N        0.98820    0.00030    0.06520    1.000
    C55      C        0.99100    0.89010    0.06260    1.000
    C56      C        0.34660    0.41220    0.17380    1.000
    N67      N        0.37270    0.53120    0.16950    1.000
    N68      N        0.28370    0.60890    0.17800    1.000
    C57      C        0.34110    0.70460    0.17070    1.000
    N69      N        0.45850    0.69240    0.15800    1.000
    C58      C        0.47630    0.58310    0.15830    1.000
    N70      N        0.26550    0.36790    0.14560    1.000
    N71      N        0.14380    0.40330    0.14340    1.000
    C59      C        0.10200    0.34270    0.11650    1.000
    N72      N        0.18270    0.27250    0.10150    1.000
    C60      C        0.28710    0.29040    0.11990    1.000
    H61      H        0.90864    0.67854    0.06284    1.000
    H62      H        0.77091    0.71164    0.07092    1.000
    H63      H        0.78330    0.66076    0.19301    1.000
    H64      H        0.04247    0.61411    0.11976    1.000
    H65      H        0.83477    0.08943    0.08444    1.000
    H66      H        0.06025    0.84925    0.05300    1.000
    H67      H        0.42416    0.37032    0.17371    1.000
    H68      H        0.30807    0.39957    0.19733    1.000
    H69      H        0.30308    0.77607    0.17425    1.000
    H70      H        0.55244    0.54646    0.15154    1.000
    H71      H        0.01819    0.35005    0.10812    1.000
    H72      H        0.36482    0.25372    0.11582    1.000
    Ag10     Ag       0.59682    0.93974    0.79011    1.000
    Ag11     Ag       0.63950    0.36199    0.94346    1.000
    C61      C        0.35520    0.77810    0.92180    1.000
    N73      N        0.37010    0.81450    0.88450    1.000
    N74      N        0.27760    0.79770    0.85920    1.000
    C62      C        0.32710    0.83890    0.82970    1.000
    N75      N        0.44370    0.88170    0.83310    1.000
    C63      C        0.46680    0.86470    0.86840    1.000
    N76      N        0.38800    0.65790    0.92530    1.000
    N77      N        0.30760    0.57740    0.91350    1.000
    C64      C        0.36850    0.48380    0.92030    1.000
    N78      N        0.48820    0.49970    0.93480    1.000
    C65      C        0.49100    0.60990    0.93740    1.000
    C66      C        0.84660    0.08780    0.82620    1.000
    N79      N        0.87270    0.96880    0.83050    1.000
    N80      N        0.78370    0.89110    0.82200    1.000
    C67      C        0.84110    0.79540    0.82930    1.000
    N81      N        0.95850    0.80760    0.84200    1.000
    C68      C        0.97630    0.91690    0.84170    1.000
    N82      N        0.76550    0.13210    0.85440    1.000
    N83      N        0.64380    0.09670    0.85660    1.000
    C69      C        0.60200    0.15730    0.88350    1.000
    N84      N        0.68270    0.22750    0.89850    1.000
    C70      C        0.78710    0.20960    0.88010    1.000
    H73      H        0.40864    0.82146    0.93716    1.000
    H74      H        0.27091    0.78836    0.92908    1.000
    H75      H        0.28330    0.83924    0.80699    1.000
    H76      H        0.54247    0.88589    0.88024    1.000
    H77      H        0.33477    0.41057    0.91556    1.000
    H78      H        0.56025    0.65075    0.94700    1.000
    H79      H        0.92416    0.12968    0.82629    1.000
    H80      H        0.80807    0.10043    0.80267    1.000
    H81      H        0.80308    0.72393    0.82575    1.000
    H82      H        0.05244    0.95354    0.84846    1.000
    H83      H        0.51819    0.14995    0.89188    1.000
    H84      H        0.86482    0.24628    0.88418    1.000
    Ag12     Ag       0.60595    0.82945    0.14033    1.000
    C71      C        0.71850    0.22850    0.22070    1.000
    N85      N        0.84240    0.27330    0.22670    1.000
    N86      N        0.90930    0.24680    0.25710    1.000
    C72      C        0.00180    0.31810    0.25590    1.000
    N87      N        0.99820    0.39040    0.22740    1.000
    C73      C        0.89860    0.36010    0.20940    1.000
    N88      N        0.71850    0.11050    0.21050    1.000
    N89      N        0.74350    0.02980    0.23620    1.000
    C74      C        0.71910    0.93710    0.21750    1.000
    N90      N        0.68090    0.95370    0.18230    1.000
    C75      C        0.68020    0.06350    0.17960    1.000
    C76      C        0.37340    0.99130    0.01040    1.000
    N91      N        0.39740    0.97050    0.04860    1.000
    N92      N        0.31030    0.99780    0.07420    1.000
    C77      C        0.36950    0.97520    0.10410    1.000
    N93      N        0.48660    0.93160    0.09970    1.000
    C78      C        0.50220    0.93190    0.06530    1.000
    N94      N        0.40580    0.10450    0.00130    1.000
    N95      N        0.33470    0.19280    0.01300    1.000
    C79      C        0.39210    0.28230    0.99940    1.000
    N96      N        0.49810    0.25640    0.98080    1.000
    C80      C        0.50300    0.14550    0.98250    1.000
    H85      H        0.67200    0.23644    0.24288    1.000
    H86      H        0.67967    0.27086    0.20207    1.000
    H87      H        0.06643    0.31941    0.27374    1.000
    H88      H        0.87039    0.39432    0.18716    1.000
    H89      H        0.72781    0.86335    0.22770    1.000
    H90      H        0.65534    0.10322    0.15818    1.000
    H91      H        0.42045    0.93883    0.99551    1.000
    H92      H        0.28578    0.97802    0.00504    1.000
    H93      H        0.33390    0.98864    0.12740    1.000
    H94      H        0.57590    0.90783    0.05298    1.000
    H95      H        0.36198    0.35709    0.00240    1.000
    H96      H        0.56669    0.09978    0.97191    1.000
