# CIF file generated by openbabel 3.1.0, see https://openbabel.org
data_I
_chemical_name_common 'image0'
_cell_length_a 6.975
_cell_length_b 12.901
_cell_length_c 13.551
_cell_angle_alpha 90
_cell_angle_beta 100.729
_cell_angle_gamma 90
_space_group_name_H-M_alt 'P 1'
_space_group_name_Hall 'P 1'
loop_
    _symmetry_equiv_pos_as_xyz
    x,y,z
loop_
    _atom_site_label
    _atom_site_type_symbol
    _atom_site_fract_x
    _atom_site_fract_y
    _atom_site_fract_z
    _atom_site_occupancy
    Ce1      Ce       0.20663    0.96012    0.04123    1.000
    Ce2      Ce       0.41472    0.03765    0.55864    1.000
    S1       S        0.74170    0.94140    0.81170    1.000
    S2       S        0.36710    0.70820    0.20100    1.000
    S3       S        0.40310    0.69260    0.94770    1.000
    O1       O        0.34600    0.00430    0.89040    1.000
    O2       O        0.36030    0.00550    0.72990    1.000
    O3       O        0.07800    0.09280    0.57300    1.000
    O4       O        0.75700    0.08870    0.53530    1.000
    O5       O        0.25960    0.02890    0.21480    1.000
    O6       O        0.32900    0.02490    0.37990    1.000
    O7       O        0.58500    0.88800    0.50750    1.000
    O8       O        0.61500    0.71720    0.50940    1.000
    O9       O        0.57800    0.97270    0.09700    1.000
    O10      O        0.88740    0.94110    0.09180    1.000
    O11      O        0.07300    0.78010    0.00520    1.000
    O12      O        0.00000    0.61540    0.00890    1.000
    N1       N        0.97500    0.95250    0.84960    1.000
    N2       N        0.73100    0.98930    0.70020    1.000
    N3       N        0.31400    0.83210    0.19880    1.000
    N4       N        0.46300    0.70170    0.31540    1.000
    N5       N        0.45300    0.80630    0.99490    1.000
    N6       N        0.62500    0.65640    0.95380    1.000
    C1       C        0.04500    0.98690    0.77390    1.000
    C2       C        0.90900    0.01370    0.68930    1.000
    C3       C        0.26200    0.00200    0.79730    1.000
    C4       C        0.92800    0.06910    0.59280    1.000
    C5       C        0.37300    0.87150    0.28730    1.000
    C6       C        0.45900    0.79550    0.35780    1.000
    C7       C        0.32300    0.98060    0.29670    1.000
    C8       C        0.55700    0.80040    0.46590    1.000
    C9       C        0.64400    0.82010    0.01560    1.000
    C10      C        0.74600    0.73310    0.99240    1.000
    C11      C        0.71300    0.92010    0.07210    1.000
    C12      C        0.95900    0.71130    0.00580    1.000
    Ce3      Ce       0.79337    0.46012    0.95877    1.000
    Ce4      Ce       0.58528    0.53765    0.44136    1.000
    S4       S        0.25830    0.44140    0.18830    1.000
    S5       S        0.63290    0.20820    0.79900    1.000
    S6       S        0.59690    0.19260    0.05230    1.000
    O13      O        0.65400    0.50430    0.10960    1.000
    O14      O        0.63970    0.50550    0.27010    1.000
    O15      O        0.92200    0.59280    0.42700    1.000
    O16      O        0.24300    0.58870    0.46470    1.000
    O17      O        0.74040    0.52890    0.78520    1.000
    O18      O        0.67100    0.52490    0.62010    1.000
    O19      O        0.41500    0.38800    0.49250    1.000
    O20      O        0.38500    0.21720    0.49060    1.000
    O21      O        0.42200    0.47270    0.90300    1.000
    O22      O        0.11260    0.44110    0.90820    1.000
    O23      O        0.92700    0.28010    0.99480    1.000
    O24      O        0.00000    0.11540    0.99110    1.000
    N7       N        0.02500    0.45250    0.15040    1.000
    N8       N        0.26900    0.48930    0.29980    1.000
    N9       N        0.68600    0.33210    0.80120    1.000
    N10      N        0.53700    0.20170    0.68460    1.000
    N11      N        0.54700    0.30630    0.00510    1.000
    N12      N        0.37500    0.15640    0.04620    1.000
    C13      C        0.95500    0.48690    0.22610    1.000
    C14      C        0.09100    0.51370    0.31070    1.000
    C15      C        0.73800    0.50200    0.20270    1.000
    C16      C        0.07200    0.56910    0.40720    1.000
    C17      C        0.62700    0.37150    0.71270    1.000
    C18      C        0.54100    0.29550    0.64220    1.000
    C19      C        0.67700    0.48060    0.70330    1.000
    C20      C        0.44300    0.30040    0.53410    1.000
    C21      C        0.35600    0.32010    0.98440    1.000
    C22      C        0.25400    0.23310    0.00760    1.000
    C23      C        0.28700    0.42010    0.92790    1.000
    C24      C        0.04100    0.21130    0.99420    1.000
