# CIF file generated by openbabel 3.1.0, see https://openbabel.org
data_I
_chemical_name_common 'image0'
_cell_length_a 10.6545
_cell_length_b 14.0442
_cell_length_c 9.7302
_cell_angle_alpha 89.9956
_cell_angle_beta 89.9999
_cell_angle_gamma 88.8364
_space_group_name_H-M_alt 'P 1'
_space_group_name_Hall 'P 1'
loop_
    _symmetry_equiv_pos_as_xyz
    x,y,z
loop_
    _atom_site_label
    _atom_site_type_symbol
    _atom_site_fract_x
    _atom_site_fract_y
    _atom_site_fract_z
    _atom_site_occupancy
    O1       O        0.68123    0.13322    0.88575    1.000
    O2       O        0.31702    0.14592    0.88574    1.000
    O3       O        0.49366    0.00155    0.88575    1.000
    O4       O        0.50459    0.27759    0.88573    1.000
    O5       O        0.49365    0.00154    0.11433    1.000
    O6       O        0.31702    0.14591    0.11432    1.000
    O7       O        0.68122    0.13322    0.11433    1.000
    Zn1      Zn       0.49912    0.13956    0.15061    1.000
    Zn2      Zn       0.49912    0.13957    0.84945    1.000
    O8       O        0.50458    0.27759    0.11431    1.000
    C1       C        0.27013    0.14498    0.00002    1.000
    C2       C        0.13040    0.14219    0.00002    1.000
    C3       C        0.11978    0.31483    0.99999    1.000
    C4       C        0.04883    0.39983    0.99996    1.000
    C5       C        0.91755    0.39720    0.99996    1.000
    C6       C        0.85722    0.30957    0.99999    1.000
    C7       C        0.92817    0.22456    0.00001    1.000
    C8       C        0.05945    0.22720    0.00001    1.000
    C9       C        0.93879    0.05193    0.00005    1.000
    C10      C        0.07007    0.05456    0.00005    1.000
    C11      C        0.87846    0.96430    0.00008    1.000
    C12      C        0.94941    0.87929    0.00009    1.000
    C13      C        0.08070    0.88192    0.00009    1.000
    C14      C        0.14103    0.96956    0.00007    1.000
    C15      C        0.48887    0.96620    0.00005    1.000
    C16      C        0.47459    0.86088    0.00005    1.000
    C17      C        0.44849    0.66805    0.00003    1.000
    C18      C        0.54974    0.61108    0.00003    1.000
    C19      C        0.53522    0.50378    0.00001    1.000
    C20      C        0.46301    0.77536    0.00004    1.000
    C21      C        0.72811    0.13415    0.00004    1.000
    C22      C        0.86784    0.13694    0.00003    1.000
    C23      C        0.50937    0.31293    0.00001    1.000
    C24      C        0.52365    0.41825    0.00000    1.000
    N1       N        0.49912    0.13956    0.35615    1.000
    N2       N        0.49913    0.13956    0.64391    1.000
    C25      C        0.65561    0.01176    0.35616    1.000
    C26      C        0.73385    0.94786    0.42810    1.000
    C27      C        0.73387    0.94786    0.57198    1.000
    C28      C        0.65562    0.01177    0.64392    1.000
    C29      C        0.57737    0.07566    0.57198    1.000
    C30      C        0.57737    0.07566    0.42809    1.000
    C31      C        0.42088    0.20346    0.57197    1.000
    C32      C        0.42087    0.20347    0.42809    1.000
    C33      C        0.34263    0.26736    0.64391    1.000
    C34      C        0.26439    0.33126    0.57196    1.000
    C35      C        0.26438    0.33126    0.42808    1.000
    C36      C        0.34262    0.26736    0.35615    1.000
    H1       H        0.22668    0.31697    0.99996    1.000
    F1       F        0.88520    0.78604    0.00013    1.000
    F2       F        0.67730    0.65266    0.00004    1.000
    F3       F        0.18111    0.39926    0.64853    1.000
    H2       H        0.85978    0.46642    0.99995    1.000
    H3       H        0.20065    0.38329    0.36951    1.000
    H4       H        0.34263    0.26736    0.23899    1.000
    F4       F        0.73874    0.96151    0.00009    1.000
    F5       F        0.81714    0.87985    0.64855    1.000
    H5       H        0.35092    0.63624    0.00002    1.000
    F6       F        0.65561    0.01177    0.20303    1.000
    H6       H        0.09797    0.47118    0.99995    1.000
    H7       H        0.75032    0.30744    0.00000    1.000
    F7       F        0.28075    0.97236    0.00006    1.000
    F8       F        0.15620    0.79145    0.00013    1.000
    H8       H        0.65562    0.01175    0.76108    1.000
    F9       F        0.81713    0.87986    0.35153    1.000
    F10      F        0.34264    0.26736    0.79704    1.000
