data_functionalizedCrystal
_audit_creation_method	'EQeq! by Chris Wilmer'
_symmetry_space_group_name_H-M	'P1'
_symmetry_Int_Tables_number	1
_symmetry_cell_setting	triclinic
loop_
_symmetry_equiv_pos_as_xyz
  x,y,z
_cell_length_a	9.1768
_cell_length_b	10.9017
_cell_length_c	11.3961
_cell_angle_alpha	117.938
_cell_angle_beta	100.535
_cell_angle_gamma	98.517
loop_
_atom_site_label
_atom_site_type_symbol
_atom_site_fract_x
_atom_site_fract_y
_atom_site_fract_z
_atom_site_charge
Mof_Zn	Zn	0.30986	0.37463	0.37705	1.195
Mof_O 	O 	0.2034	0.3905	0.2252	-0.517
Mof_O 	O 	0.2415	0.2137	0.4036	-0.494
Mof_O 	O 	0.0398	0.5064	0.3269	-0.507
Mof_O 	O 	0.0316	0.291	0.4224	-0.514
Mof_N 	N 	0.3473	0.5555	0.5604	-0.218
Mof_C 	C 	0.9333	0.5491	0.1084	0.141
Mof_H 	H 	0.8884	0.5815	0.1805	0.006
Mof_N 	N 	0.2322	0.5967	0.6125	-0.206
Mof_N 	N 	0.4824	0.6407	0.6553	-0.231
Mof_C 	C 	0.1308	0.9981	0.4564	0.073
Mof_H 	H 	0.2197	0.9976	0.4282	0.006
Mof_C 	C 	0.112	0.2095	0.4279	0.41
Mof_C 	C 	0.923	0.1037	0.5099	0.147
Mof_H 	H 	0.872	0.1736	0.5178	0.005
Mof_C 	C 	0.1138	0.4294	0.0014	0.093
Mof_H 	H 	0.1897	0.3816	0.0021	0.003
Mof_C 	C 	0.2955	0.71	0.7414	0.011
Mof_H 	H 	0.2425	0.7607	0.8022	0.011
Mof_C 	C 	0.0535	0.1004	0.4644	-0.207
Mof_C 	C 	0.0983	0.4569	0.2306	0.432
Mof_C 	C 	0.0487	0.4784	0.111	-0.232
Mof_C 	C 	0.4513	0.7377	0.7674	0.011
Mof_H 	H 	0.5235	0.8112	0.849	0.012
Mof_Zn	Zn	0.69014	0.62537	0.62295	1.196
Mof_O 	O 	0.7966	0.6095	0.7748	-0.484
Mof_O 	O 	0.7585	0.7863	0.5964	-0.476
Mof_O 	O 	0.9602	0.4936	0.6731	-0.425
Mof_O 	O 	0.9684	0.709	0.5776	-0.437
Mof_N 	N 	0.6527	0.4445	0.4396	-0.216
Mof_C 	C 	0.0667	0.4509	0.8916	-0.18
Mof_H 	H 	0.1116	0.4185	0.8195	0.09
Mof_N 	N 	0.7678	0.4033	0.3875	-0.184
Mof_N 	N 	0.5176	0.3593	0.3447	-0.231
Mof_C 	C 	0.8692	0.0019	0.5436	-0.108
Mof_H 	H 	0.7803	0.0024	0.5718	0.092
Mof_C 	C 	0.888	0.7905	0.5721	0.332
Mof_C 	C 	0.077	0.8963	0.4901	-0.184
Mof_H 	H 	0.128	0.8264	0.4822	0.089
Mof_C 	C 	0.8862	0.5706	0.9986	-0.119
Mof_H 	H 	0.8103	0.6184	0.9979	0.09
Mof_C 	C 	0.7045	0.29	0.2586	0.019
Mof_H 	H 	0.7575	0.2393	0.1978	0.038
Mof_C 	C 	0.9465	0.8996	0.5356	0.04
Mof_C 	C 	0.9017	0.5431	0.7694	0.345
Mof_C 	C 	0.9513	0.5216	0.889	0.054
Mof_C 	C 	0.5487	0.2623	0.2326	0.016
Mof_H 	H 	0.4765	0.1888	0.151	0.011
Mof_Zn	Zn	-7.45032e-18	0.5	0.5	1.202
_end
