data_functionalizedCrystal
_audit_creation_method	'EQeq! by Chris Wilmer'
_symmetry_space_group_name_H-M	'P1'
_symmetry_Int_Tables_number	1
_symmetry_cell_setting	triclinic
loop_
_symmetry_equiv_pos_as_xyz
  x,y,z
_cell_length_a	7.1328
_cell_length_b	8.7207
_cell_length_c	9.6984
_cell_angle_alpha	116.718
_cell_angle_beta	111.576
_cell_angle_gamma	90
loop_
_atom_site_label
_atom_site_type_symbol
_atom_site_fract_x
_atom_site_fract_y
_atom_site_fract_z
_atom_site_charge
Mof_Cu	Cu	-0	0	-0	0.704
Mof_Cu	Cu	0.5	0	-0	0.716
Mof_C 	C 	0.92988	0.67207	0.66828	0.096
Mof_C 	C 	0.57012	0.00379	0.33172	-0.07
Mof_C 	C 	0.7616	0.32793	0.33172	-0.039
Mof_C 	C 	0.7384	0.99621	0.66828	0.08
Mof_C 	C 	0.07012	0.32793	0.33172	-0.085
Mof_C 	C 	0.42988	0.99621	0.66828	0.079
Mof_C 	C 	0.2384	0.67207	0.66828	0.059
Mof_C 	C 	0.2616	0.00379	0.33172	-0.074
Mof_C 	C 	0.03911	0.58516	0.57822	-0.119
Mof_C 	C 	0.46089	0.00694	0.42178	-0.055
Mof_C 	C 	0.96089	0.41484	0.42178	0.084
Mof_C 	C 	0.53911	0.99306	0.57822	0.022
Mof_N 	N 	0.06168	0.81272	0.81402	-0.163
Mof_N 	N 	0.43832	0.9987	0.18598	-0.162
Mof_N 	N 	0.74766	0.18728	0.18598	-0.229
Mof_N 	N 	0.75234	0.0013	0.81402	-0.199
Mof_N 	N 	0.93832	0.18728	0.18598	-0.206
Mof_N 	N 	0.56168	0.0013	0.81402	-0.205
Mof_N 	N 	0.25234	0.81272	0.81402	-0.148
Mof_N 	N 	0.24766	0.9987	0.18598	-0.162
Mof_H 	H 	0.75775	0.62164	0.61603	0.003
Mof_H 	H 	0.74225	0.00561	0.38397	-0.005
Mof_H 	H 	0.64172	0.37836	0.38397	0.008
Mof_H 	H 	0.85828	0.99439	0.61603	0.035
Mof_H 	H 	0.24225	0.37836	0.38397	0.016
Mof_H 	H 	0.25775	0.99439	0.61603	0.027
Mof_H 	H 	0.35828	0.62164	0.61603	0.009
Mof_H 	H 	0.14172	0.00561	0.38397	-0.017
_end
