data_functionalizedCrystal
_audit_creation_method	'EQeq! by Chris Wilmer'
_symmetry_space_group_name_H-M	'P1'
_symmetry_Int_Tables_number	1
_symmetry_cell_setting	triclinic
loop_
_symmetry_equiv_pos_as_xyz
  x,y,z
_cell_length_a	19.0983
_cell_length_b	14.4221
_cell_length_c	30.556
_cell_angle_alpha	90
_cell_angle_beta	90
_cell_angle_gamma	90
loop_
_atom_site_label
_atom_site_type_symbol
_atom_site_fract_x
_atom_site_fract_y
_atom_site_fract_z
_atom_site_charge
Mof_Er	Er	0.14126	0.4622	0.74751	1.732
Mof_O 	O 	0.12024	0.3404	0.699	-0.523
Mof_O 	O 	0.1678	0.6167	0.73385	-0.487
Mof_O 	O 	0.08212	0.5531	0.80315	-0.398
Mof_O 	O 	0.1906	0.5082	0.8164	-0.446
Mof_O 	O 	0.7366	0.0298	0.70156	-0.557
Mof_O 	O 	0.52714	0.0017	0.72169	-0.482
Mof_C 	C 	0.1355	0.3171	0.6602	0.476
Mof_C 	C 	0.1936	0.6706	0.7077	0.498
Mof_C 	C 	0.1351	0.5564	0.827	0.332
Mof_Er	Er	0.18785	0.52419	0.62327	1.765
Mof_O 	O 	0.1659	0.3689	0.6321	-0.475
Mof_C 	C 	0.1165	0.2199	0.6458	-0.223
Mof_O 	O 	0.2085	0.6503	0.66744	-0.526
Mof_C 	C 	0.2119	0.7677	0.723	-0.225
Mof_C 	C 	0.1385	0.617	0.8659	-0.164
Mof_O 	O 	0.339	0.967	0.05599	-0.51
Mof_O 	O 	0.8027	0.021	0.64316	-0.491
Mof_C 	C 	0.1184	0.1972	0.6021	0.051
Mof_C 	C 	0.0954	0.1506	0.6762	0.259
Mof_C 	C 	0.2035	0.7864	0.7664	0.056
Mof_C 	C 	0.2329	0.8394	0.6927	0.248
Mof_C 	C 	0.0818	0.6745	0.8738	0.002
Mof_C 	C 	0.199	0.6211	0.8942	0.224
Mof_C 	C 	0.3623	0.9952	0.0191	0.429
Mof_H 	H 	0.1302	0.2429	0.582	0.043
Mof_C 	C 	0.1034	0.11	0.5872	-0.038
Mof_O 	O 	0.0904	0.169	0.71935	-0.438
Mof_C 	C 	0.0797	0.062	0.6619	-0.085
Mof_H 	H 	0.1887	0.7399	0.7854	0.027
Mof_C 	C 	0.2175	0.8778	0.783	-0.043
Mof_O 	O 	0.2391	0.8222	0.64908	-0.432
Mof_C 	C 	0.2475	0.9282	0.7074	-0.08
Mof_H 	H 	0.0438	0.6747	0.8549	0.048
Mof_C 	C 	0.0823	0.7337	0.9116	-0.007
Mof_C 	C 	0.2036	0.6836	0.9281	-0.072
Mof_O 	O 	0.2522	0.5615	0.88661	-0.448
Mof_O 	O 	0.3889	0.0707	0.01329	-0.331
Mof_C 	C 	0.3524	0.9294	0.981	-0.213
Mof_C 	C 	0.1072	0.0892	0.5418	-0.027
Mof_C 	C 	0.0857	0.0391	0.6177	0.075
Mof_H 	H 	0.0975	0.2244	0.7236	0.256
Mof_C 	C 	0.0593	0.99	0.6969	-0.031
Mof_C 	C 	0.2078	0.8966	0.827	-0.018
Mof_C 	C 	0.2377	0.9486	0.7534	0.073
Mof_H 	H 	0.2506	0.7681	0.6453	0.257
Mof_C 	C 	0.2665	0.0005	0.6739	-0.032
Mof_C 	C 	0.1439	0.7386	0.9378	0.041
Mof_C 	C 	0.0238	0.787	0.922	-0.059
Mof_C 	C 	0.2704	0.6924	0.9548	-0.084
Mof_H 	H 	0.2417	0.527	0.8663	0.283
Mof_C 	C 	0.3791	0.9555	0.9413	0.049
Mof_C 	C 	0.3187	0.842	0.9852	0.238
Mof_H 	H 	0.1172	0.1364	0.522	0.047
Mof_C 	C 	0.0967	0.0032	0.527	-0.067
Mof_C 	C 	0.0757	0.9484	0.6004	-0.097
Mof_H 	H 	0.0602	0.9293	0.6832	0.051
Mof_H 	H 	0.0953	0.9903	0.7193	0.055
Mof_C 	C 	0.9893	0.0013	0.7192	-0.095
Mof_H 	H 	0.1953	0.849	0.846	0.043
Mof_C 	C 	0.2164	0.9849	0.8427	-0.076
Mof_C 	C 	0.2452	0.0392	0.7713	-0.106
Mof_H 	H 	0.2657	0.0603	0.6884	0.052
Mof_H 	H 	0.2297	0.0012	0.6521	0.055
Mof_C 	C 	0.3365	0.9924	0.6497	-0.097
Mof_C 	C 	0.141	0.7973	0.9751	-0.081
Mof_C 	C 	0.024	0.844	0.9577	-0.03
Mof_H 	H 	0.9841	0.7839	0.9044	0.056
Mof_C 	C 	0.3109	0.7834	0.9488	-0.087
Mof_H 	H 	0.2586	0.6859	0.9855	0.076
Mof_H 	H 	0.3012	0.6414	0.9472	0.074
Mof_H 	H 	0.401	0.0128	0.9387	0.024
Mof_C 	C 	0.3741	0.8971	0.904	-0.053
Mof_O 	O 	0.2926	0.8145	0.02424	-0.432
Mof_H 	H 	0.0986	0.9908	0.4971	0.05
Mof_C 	C 	0.0824	0.9303	0.5575	0.004
Mof_H 	H 	0.0642	0.9003	0.6193	0.074
Mof_C 	C 	0.9811	0.9942	0.7651	0.089
Mof_C 	C 	0.9291	0.0085	0.6925	0.28
Mof_H 	H 	0.2105	0.9978	0.8723	0.056
Mof_C 	C 	0.2343	0.0553	0.8132	0.018
Mof_H 	H 	0.258	0.088	0.7531	0.074
Mof_C 	C 	0.3421	0.9951	0.6042	0.088
Mof_C 	C 	0.3981	0.9917	0.674	0.274
Mof_C 	C 	0.0807	0.848	0.9843	-0.035
Mof_H 	H 	0.1797	0.8019	0.9934	0.072
Mof_H 	H 	0.9849	0.8802	0.9639	0.037
Mof_C 	C 	0.3397	0.8102	0.9087	0.079
Mof_C 	C 	0.4029	0.9226	0.8631	0.004
Mof_H 	H 	0.2838	0.8602	0.0392	0.268
Mof_H 	H 	0.0777	0.8698	0.5476	0.027
Mof_C 	C 	0.0381	0.9829	0.7939	-0.125
Mof_C 	C 	0.9129	0.9991	0.7834	-0.078
Mof_O 	O 	0.9361	0.0069	0.64921	-0.451
Mof_C 	C 	0.8605	0.0173	0.7123	-0.27
Mof_H 	H 	0.2387	0.1156	0.8236	0.015
Mof_C 	C 	0.2831	0.9985	0.5749	-0.121
Mof_C 	C 	0.4088	0.9988	0.5833	-0.07
Mof_O 	O 	0.39151	0.9941	0.7186	-0.441
Mof_C 	C 	0.4645	0.9904	0.6543	-0.266
Mof_H 	H 	0.0794	0.8853	0.0091	0.047
Mof_C 	C 	0.3399	0.7514	0.871	-0.137
Mof_H 	H 	0.4251	0.9797	0.8604	0.032
Mof_C 	C 	0.399	0.867	0.8282	-0.096
Mof_H 	H 	0.0835	0.9802	0.7831	0.084
Mof_C 	C 	0.0264	0.976	0.838	0.03
Mof_C 	C 	0.905	0.9916	0.8299	0.003
Mof_C 	C 	0.8541	0.0101	0.7557	0.109
Mof_H 	H 	0.8974	0.0107	0.6377	0.288
Mof_C 	C 	0.798	0.0248	0.6849	0.455
Mof_H 	H 	0.2383	0.9929	0.5866	0.085
Mof_C 	C 	0.2899	0.0093	0.5317	0.03
Mof_C 	C 	0.4144	0.0067	0.5382	0.001
Mof_C 	C 	0.4685	0.9941	0.6097	0.098
Mof_H 	H 	0.4304	0.9995	0.7297	0.285
Mof_C 	C 	0.5303	0.99	0.681	0.494
Mof_C 	C 	0.3683	0.7807	0.8329	0.043
Mof_H 	H 	0.3204	0.6924	0.8727	0.101
Mof_H 	H 	0.4166	0.8859	0.8012	0.08
Mof_H 	H 	0.0647	0.9687	0.8564	0.02
Mof_C 	C 	0.9602	0.9795	0.8563	-0.095
Mof_H 	H 	0.8604	0.9952	0.842	0.035
Mof_H 	H 	0.8096	0.0125	0.7681	-0.023
Mof_H 	H 	0.2497	0.0134	0.5146	0.023
Mof_C 	C 	0.3561	0.0146	0.5109	-0.088
Mof_H 	H 	0.4587	0.0069	0.5256	0.038
Mof_H 	H 	0.5123	0.9934	0.5965	-0.012
Mof_O 	O 	0.58852	0.9789	0.66244	-0.566
Mof_H 	H 	0.3671	0.7412	0.8088	0.022
Mof_H 	H 	0.9542	0.9735	0.8864	0.062
Mof_H 	H 	0.3604	0.0228	0.4808	0.066
Mof_Er	Er	0.85874	0.5378	0.24751	1.731
Mof_O 	O 	0.87976	0.6596	0.199	-0.523
Mof_O 	O 	0.8322	0.3833	0.23385	-0.488
Mof_O 	O 	0.91788	0.4469	0.30315	-0.399
Mof_O 	O 	0.8094	0.4918	0.3164	-0.447
Mof_O 	O 	0.2634	0.9702	0.20156	-0.558
Mof_O 	O 	0.47286	0.9983	0.22169	-0.483
Mof_C 	C 	0.8645	0.6829	0.1602	0.474
Mof_C 	C 	0.8064	0.3294	0.2077	0.498
Mof_C 	C 	0.8649	0.4436	0.327	0.333
Mof_Er	Er	0.81215	0.47581	0.12327	1.766
Mof_O 	O 	0.8341	0.6311	0.1321	-0.475
Mof_C 	C 	0.8835	0.7801	0.1458	-0.22
Mof_O 	O 	0.7915	0.3497	0.16744	-0.526
Mof_C 	C 	0.7881	0.2323	0.223	-0.224
Mof_C 	C 	0.8615	0.383	0.3659	-0.166
Mof_O 	O 	0.661	0.033	0.55599	-0.51
Mof_O 	O 	0.1973	0.979	0.14316	-0.491
Mof_C 	C 	0.8816	0.8028	0.1021	0.045
Mof_C 	C 	0.9046	0.8494	0.1762	0.256
Mof_C 	C 	0.7965	0.2136	0.2664	0.056
Mof_C 	C 	0.7671	0.1606	0.1927	0.247
Mof_C 	C 	0.9182	0.3255	0.3738	0.008
Mof_C 	C 	0.801	0.3789	0.3942	0.227
Mof_C 	C 	0.6377	0.0048	0.5191	0.423
Mof_H 	H 	0.8698	0.7571	0.082	0.046
Mof_C 	C 	0.8966	0.89	0.0872	-0.027
Mof_O 	O 	0.9096	0.831	0.21935	-0.437
Mof_C 	C 	0.9203	0.938	0.1619	-0.081
Mof_H 	H 	0.8113	0.2601	0.2854	0.027
Mof_C 	C 	0.7825	0.1222	0.283	-0.042
Mof_O 	O 	0.7609	0.1778	0.14908	-0.431
Mof_C 	C 	0.7525	0.0718	0.2074	-0.078
Mof_H 	H 	0.9562	0.3253	0.3549	0.046
Mof_C 	C 	0.9177	0.2663	0.4116	-0.016
Mof_C 	C 	0.7964	0.3164	0.4281	-0.076
Mof_O 	O 	0.7478	0.4385	0.38661	-0.448
Mof_O 	O 	0.6111	0.9293	0.51329	-0.332
Mof_C 	C 	0.6476	0.0706	0.481	-0.208
Mof_C 	C 	0.8928	0.9108	0.0418	-0.045
Mof_C 	C 	0.9143	0.9609	0.1177	0.066
Mof_H 	H 	0.9025	0.7756	0.2236	0.255
Mof_C 	C 	0.9407	0.01	0.1969	-0.033
Mof_C 	C 	0.7922	0.1034	0.327	-0.019
Mof_C 	C 	0.7623	0.0514	0.2534	0.072
Mof_H 	H 	0.7494	0.2319	0.1453	0.257
Mof_C 	C 	0.7335	0.9995	0.1739	-0.036
Mof_C 	C 	0.8561	0.2614	0.4378	0.051
Mof_C 	C 	0.9762	0.213	0.422	-0.043
Mof_C 	C 	0.7296	0.3076	0.4548	-0.082
Mof_H 	H 	0.7583	0.473	0.3663	0.283
Mof_C 	C 	0.6209	0.0445	0.4413	0.048
Mof_C 	C 	0.6813	0.158	0.4852	0.244
Mof_H 	H 	0.8828	0.8636	0.022	0.056
Mof_C 	C 	0.9033	0.9968	0.027	-0.041
Mof_C 	C 	0.9243	0.0516	0.1004	-0.084
Mof_H 	H 	0.9398	0.0707	0.1832	0.051
Mof_H 	H 	0.9047	0.0097	0.2193	0.055
Mof_C 	C 	0.0107	0.9987	0.2192	-0.094
Mof_H 	H 	0.8047	0.151	0.346	0.043
Mof_C 	C 	0.7836	0.0151	0.3427	-0.075
Mof_C 	C 	0.7548	0.9608	0.2713	-0.106
Mof_H 	H 	0.7343	0.9397	0.1884	0.053
Mof_H 	H 	0.7703	0.9988	0.1521	0.056
Mof_C 	C 	0.6635	0.0076	0.1497	-0.092
Mof_C 	C 	0.859	0.2027	0.4751	-0.098
Mof_C 	C 	0.976	0.156	0.4577	-0.051
Mof_H 	H 	0.0159	0.2161	0.4044	0.05
Mof_C 	C 	0.6891	0.2166	0.4488	-0.087
Mof_H 	H 	0.7414	0.3141	0.4855	0.078
Mof_H 	H 	0.6988	0.3586	0.4472	0.074
Mof_H 	H 	0.599	0.9872	0.4387	0.026
Mof_C 	C 	0.6259	0.1029	0.404	-0.053
Mof_O 	O 	0.7074	0.1855	0.52424	-0.438
Mof_H 	H 	0.9014	0.0092	0.9971	0.037
Mof_C 	C 	0.9176	0.0697	0.0575	-0.014
Mof_H 	H 	0.9358	0.0997	0.1193	0.07
Mof_C 	C 	0.0189	0.0058	0.2651	0.089
Mof_C 	C 	0.0709	0.9915	0.1925	0.28
Mof_H 	H 	0.7895	0.0022	0.3723	0.056
Mof_C 	C 	0.7657	0.9447	0.3132	0.017
Mof_H 	H 	0.742	0.912	0.2531	0.074
Mof_C 	C 	0.6579	0.0049	0.1042	0.079
Mof_C 	C 	0.6019	0.0083	0.174	0.271
Mof_C 	C 	0.9193	0.152	0.4843	-0.005
Mof_H 	H 	0.8203	0.1981	0.4934	0.08
Mof_H 	H 	0.0151	0.1198	0.4639	0.046
Mof_C 	C 	0.6603	0.1898	0.4087	0.079
Mof_C 	C 	0.5971	0.0774	0.3631	0.004
Mof_H 	H 	0.7162	0.1398	0.5392	0.269
Mof_H 	H 	0.9223	0.1302	0.0476	0.034
Mof_C 	C 	0.9619	0.0171	0.2939	-0.125
Mof_C 	C 	0.0871	0.0009	0.2834	-0.078
Mof_O 	O 	0.0639	0.9931	0.14921	-0.451
Mof_C 	C 	0.1395	0.9827	0.2123	-0.269
Mof_H 	H 	0.7613	0.8844	0.3236	0.016
Mof_C 	C 	0.7169	0.0015	0.0749	-0.107
Mof_C 	C 	0.5912	0.0012	0.0833	-0.059
Mof_O 	O 	0.60849	0.0059	0.2186	-0.44
Mof_C 	C 	0.5355	0.0096	0.1543	-0.262
Mof_H 	H 	0.9206	0.1147	0.5091	0.033
Mof_C 	C 	0.6601	0.2486	0.371	-0.137
Mof_H 	H 	0.5749	0.0203	0.3604	0.032
Mof_C 	C 	0.601	0.133	0.3282	-0.096
Mof_H 	H 	0.9165	0.0198	0.2831	0.084
Mof_C 	C 	0.9736	0.024	0.338	0.03
Mof_C 	C 	0.095	0.0084	0.3299	0.003
Mof_C 	C 	0.1459	0.9899	0.2557	0.108
Mof_H 	H 	0.1026	0.9893	0.1377	0.288
Mof_C 	C 	0.202	0.9752	0.1849	0.455
Mof_H 	H 	0.7617	0.0071	0.0866	0.081
Mof_C 	C 	0.7101	0.9907	0.0317	0.012
Mof_C 	C 	0.5856	0.9933	0.0382	-0.016
Mof_C 	C 	0.5315	0.0059	0.1097	0.091
Mof_H 	H 	0.5696	0.0005	0.2297	0.285
Mof_C 	C 	0.4697	0.01	0.181	0.493
Mof_C 	C 	0.6317	0.2193	0.3329	0.043
Mof_H 	H 	0.6796	0.3076	0.3727	0.101
Mof_H 	H 	0.5834	0.1141	0.3012	0.08
Mof_H 	H 	0.9353	0.0313	0.3564	0.021
Mof_C 	C 	0.0398	0.0205	0.3563	-0.094
Mof_H 	H 	0.1396	0.0048	0.342	0.035
Mof_H 	H 	0.1904	0.9875	0.2681	-0.022
Mof_H 	H 	0.7503	0.9866	0.0146	0.031
Mof_C 	C 	0.6439	0.9854	0.0109	-0.061
Mof_H 	H 	0.5413	0.9931	0.0256	0.046
Mof_H 	H 	0.4877	0.0066	0.0965	-0.01
Mof_O 	O 	0.41148	0.0211	0.16244	-0.566
Mof_H 	H 	0.6329	0.2588	0.3088	0.023
Mof_H 	H 	0.0458	0.0265	0.3864	0.062
Mof_H 	H 	0.6396	0.9772	0.9808	0.052
Mof_Er	Er	0.64126	0.0378	0.74751	1.732
Mof_O 	O 	0.62024	0.1596	0.699	-0.524
Mof_O 	O 	0.6678	0.8833	0.73385	-0.489
Mof_O 	O 	0.58212	0.9469	0.80315	-0.399
Mof_O 	O 	0.6906	0.9918	0.8164	-0.447
Mof_O 	O 	0.2366	0.4702	0.70156	-0.558
Mof_O 	O 	0.02714	0.4983	0.72169	-0.484
Mof_C 	C 	0.6355	0.1829	0.6602	0.475
Mof_C 	C 	0.6936	0.8294	0.7077	0.498
Mof_C 	C 	0.6351	0.9436	0.827	0.332
Mof_Er	Er	0.68785	0.97581	0.62327	1.763
Mof_O 	O 	0.6659	0.1311	0.6321	-0.475
Mof_C 	C 	0.6165	0.2801	0.6458	-0.223
Mof_O 	O 	0.7085	0.8497	0.66744	-0.526
Mof_C 	C 	0.7119	0.7323	0.723	-0.225
Mof_C 	C 	0.6385	0.883	0.8659	-0.164
Mof_O 	O 	0.839	0.533	0.05599	-0.51
Mof_O 	O 	0.3027	0.479	0.64316	-0.492
Mof_C 	C 	0.6184	0.3028	0.6021	0.052
Mof_C 	C 	0.5954	0.3494	0.6762	0.259
Mof_C 	C 	0.7035	0.7136	0.7664	0.056
Mof_C 	C 	0.7329	0.6606	0.6927	0.248
Mof_C 	C 	0.5818	0.8255	0.8738	0.002
Mof_C 	C 	0.699	0.8789	0.8942	0.224
Mof_C 	C 	0.8623	0.5048	0.0191	0.427
Mof_H 	H 	0.6302	0.2571	0.582	0.043
Mof_C 	C 	0.6034	0.39	0.5872	-0.038
Mof_O 	O 	0.5904	0.331	0.71935	-0.437
Mof_C 	C 	0.5797	0.438	0.6619	-0.085
Mof_H 	H 	0.6887	0.7601	0.7854	0.027
Mof_C 	C 	0.7175	0.6222	0.783	-0.043
Mof_O 	O 	0.7391	0.6778	0.64908	-0.432
Mof_C 	C 	0.7475	0.5718	0.7074	-0.08
Mof_H 	H 	0.5438	0.8253	0.8549	0.048
Mof_C 	C 	0.5823	0.7663	0.9116	-0.007
Mof_C 	C 	0.7036	0.8164	0.9281	-0.072
Mof_O 	O 	0.7522	0.9385	0.88661	-0.448
Mof_O 	O 	0.8889	0.4293	0.01329	-0.33
Mof_C 	C 	0.8524	0.5706	0.981	-0.212
Mof_C 	C 	0.6072	0.4108	0.5418	-0.026
Mof_C 	C 	0.5857	0.4609	0.6177	0.076
Mof_H 	H 	0.5975	0.2756	0.7236	0.256
Mof_C 	C 	0.5593	0.51	0.6969	-0.03
Mof_C 	C 	0.7078	0.6034	0.827	-0.017
Mof_C 	C 	0.7377	0.5514	0.7534	0.073
Mof_H 	H 	0.7506	0.7319	0.6453	0.257
Mof_C 	C 	0.7665	0.4995	0.6739	-0.033
Mof_C 	C 	0.6439	0.7614	0.9378	0.041
Mof_C 	C 	0.5238	0.713	0.922	-0.059
Mof_C 	C 	0.7704	0.8076	0.9548	-0.084
Mof_H 	H 	0.7417	0.973	0.8663	0.283
Mof_C 	C 	0.8791	0.5445	0.9413	0.047
Mof_C 	C 	0.8187	0.658	0.9852	0.238
Mof_H 	H 	0.6172	0.3636	0.522	0.047
Mof_C 	C 	0.5967	0.4968	0.527	-0.067
Mof_C 	C 	0.5757	0.5516	0.6004	-0.097
Mof_H 	H 	0.5602	0.5707	0.6832	0.05
Mof_H 	H 	0.5953	0.5097	0.7193	0.054
Mof_C 	C 	0.4893	0.4987	0.7192	-0.097
Mof_H 	H 	0.6953	0.651	0.846	0.043
Mof_C 	C 	0.7164	0.5151	0.8427	-0.077
Mof_C 	C 	0.7452	0.4608	0.7713	-0.107
Mof_H 	H 	0.7657	0.4397	0.6884	0.052
Mof_H 	H 	0.7297	0.4988	0.6521	0.055
Mof_C 	C 	0.8365	0.5076	0.6497	-0.097
Mof_C 	C 	0.641	0.7027	0.9751	-0.081
Mof_C 	C 	0.524	0.656	0.9577	-0.032
Mof_H 	H 	0.4841	0.7161	0.9044	0.056
Mof_C 	C 	0.8109	0.7166	0.9488	-0.086
Mof_H 	H 	0.7586	0.8141	0.9855	0.076
Mof_H 	H 	0.8012	0.8586	0.9472	0.074
Mof_H 	H 	0.901	0.4872	0.9387	0.025
Mof_C 	C 	0.8741	0.6029	0.904	-0.053
Mof_O 	O 	0.7926	0.6855	0.02424	-0.431
Mof_H 	H 	0.5986	0.5092	0.4971	0.05
Mof_C 	C 	0.5824	0.5697	0.5575	0.004
Mof_H 	H 	0.5642	0.5997	0.6193	0.075
Mof_C 	C 	0.4811	0.5058	0.7651	0.092
Mof_C 	C 	0.4291	0.4915	0.6925	0.281
Mof_H 	H 	0.7105	0.5022	0.8723	0.056
Mof_C 	C 	0.7343	0.4447	0.8132	0.019
Mof_H 	H 	0.758	0.412	0.7531	0.074
Mof_C 	C 	0.8421	0.5049	0.6042	0.087
Mof_C 	C 	0.8981	0.5083	0.674	0.274
Mof_C 	C 	0.5807	0.652	0.9843	-0.034
Mof_H 	H 	0.6797	0.6981	0.9934	0.072
Mof_H 	H 	0.4849	0.6198	0.9639	0.038
Mof_C 	C 	0.8397	0.6898	0.9087	0.078
Mof_C 	C 	0.9029	0.5774	0.8631	0.003
Mof_H 	H 	0.7838	0.6398	0.0392	0.268
Mof_H 	H 	0.5777	0.6302	0.5476	0.027
Mof_C 	C 	0.5381	0.5171	0.7939	-0.126
Mof_C 	C 	0.4129	0.5009	0.7834	-0.078
Mof_O 	O 	0.4361	0.4931	0.64921	-0.451
Mof_C 	C 	0.3605	0.4827	0.7123	-0.27
Mof_H 	H 	0.7387	0.3844	0.8236	0.015
Mof_C 	C 	0.7831	0.5015	0.5749	-0.119
Mof_C 	C 	0.9088	0.5012	0.5833	-0.069
Mof_O 	O 	0.89151	0.5059	0.7186	-0.441
Mof_C 	C 	0.9645	0.5096	0.6543	-0.265
Mof_H 	H 	0.5794	0.6147	0.0091	0.047
Mof_C 	C 	0.8399	0.7486	0.871	-0.137
Mof_H 	H 	0.9251	0.5203	0.8604	0.032
Mof_C 	C 	0.899	0.633	0.8282	-0.096
Mof_H 	H 	0.5835	0.5198	0.7831	0.084
Mof_C 	C 	0.5264	0.524	0.838	0.03
Mof_C 	C 	0.405	0.5084	0.8299	0.002
Mof_C 	C 	0.3541	0.4899	0.7557	0.107
Mof_H 	H 	0.3974	0.4893	0.6377	0.288
Mof_C 	C 	0.298	0.4752	0.6849	0.455
Mof_H 	H 	0.7383	0.5071	0.5866	0.085
Mof_C 	C 	0.7899	0.4907	0.5317	0.028
Mof_C 	C 	0.9144	0.4933	0.5382	-0.001
Mof_C 	C 	0.9685	0.5059	0.6097	0.097
Mof_H 	H 	0.9304	0.5005	0.7297	0.285
Mof_C 	C 	0.0303	0.51	0.681	0.494
Mof_C 	C 	0.8683	0.7193	0.8329	0.042
Mof_H 	H 	0.8204	0.8076	0.8727	0.1
Mof_H 	H 	0.9166	0.6141	0.8012	0.08
Mof_H 	H 	0.5647	0.5313	0.8564	0.02
Mof_C 	C 	0.4602	0.5205	0.8563	-0.093
Mof_H 	H 	0.3604	0.5048	0.842	0.035
Mof_H 	H 	0.3096	0.4875	0.7681	-0.023
Mof_H 	H 	0.7497	0.4866	0.5146	0.023
Mof_C 	C 	0.8561	0.4854	0.5109	-0.087
Mof_H 	H 	0.9587	0.4931	0.5256	0.039
Mof_H 	H 	0.0123	0.5066	0.5965	-0.012
Mof_O 	O 	0.08852	0.5211	0.66244	-0.566
Mof_H 	H 	0.8671	0.7588	0.8088	0.022
Mof_H 	H 	0.4542	0.5265	0.8864	0.062
Mof_H 	H 	0.8604	0.4772	0.4808	0.065
Mof_Er	Er	0.35874	0.9622	0.24751	1.732
Mof_O 	O 	0.37976	0.8404	0.199	-0.523
Mof_O 	O 	0.3322	0.1167	0.23385	-0.488
Mof_O 	O 	0.41788	0.0531	0.30315	-0.399
Mof_O 	O 	0.3094	0.0082	0.3164	-0.447
Mof_O 	O 	0.7634	0.5298	0.20156	-0.558
Mof_O 	O 	0.97286	0.5017	0.22169	-0.483
Mof_C 	C 	0.3645	0.8171	0.1602	0.474
Mof_C 	C 	0.3064	0.1706	0.2077	0.498
Mof_C 	C 	0.3649	0.0564	0.327	0.333
Mof_Er	Er	0.31215	0.02419	0.12327	1.765
Mof_O 	O 	0.3341	0.8689	0.1321	-0.474
Mof_C 	C 	0.3835	0.7199	0.1458	-0.219
Mof_O 	O 	0.2915	0.1503	0.16744	-0.526
Mof_C 	C 	0.2881	0.2677	0.223	-0.225
Mof_C 	C 	0.3615	0.117	0.3659	-0.166
Mof_O 	O 	0.161	0.467	0.55599	-0.51
Mof_O 	O 	0.6973	0.521	0.14316	-0.492
Mof_C 	C 	0.3816	0.6972	0.1021	0.044
Mof_C 	C 	0.4046	0.6506	0.1762	0.256
Mof_C 	C 	0.2965	0.2864	0.2664	0.056
Mof_C 	C 	0.2671	0.3394	0.1927	0.248
Mof_C 	C 	0.4182	0.1745	0.3738	0.008
Mof_C 	C 	0.301	0.1211	0.3942	0.227
Mof_C 	C 	0.1377	0.4952	0.5191	0.421
Mof_H 	H 	0.3698	0.7429	0.082	0.046
Mof_C 	C 	0.3966	0.61	0.0872	-0.026
Mof_O 	O 	0.4096	0.669	0.21935	-0.436
Mof_C 	C 	0.4203	0.562	0.1619	-0.08
Mof_H 	H 	0.3113	0.2399	0.2854	0.027
Mof_C 	C 	0.2825	0.3778	0.283	-0.043
Mof_O 	O 	0.2609	0.3222	0.14908	-0.431
Mof_C 	C 	0.2525	0.4282	0.2074	-0.079
Mof_H 	H 	0.4562	0.1747	0.3549	0.046
Mof_C 	C 	0.4177	0.2337	0.4116	-0.016
Mof_C 	C 	0.2964	0.1836	0.4281	-0.076
Mof_O 	O 	0.2478	0.0615	0.38661	-0.448
Mof_O 	O 	0.1111	0.5707	0.51329	-0.331
Mof_C 	C 	0.1476	0.4294	0.481	-0.207
Mof_C 	C 	0.3928	0.5892	0.0418	-0.046
Mof_C 	C 	0.4143	0.5391	0.1177	0.066
Mof_H 	H 	0.4025	0.7244	0.2236	0.255
Mof_C 	C 	0.4407	0.49	0.1969	-0.033
Mof_C 	C 	0.2922	0.3966	0.327	-0.018
Mof_C 	C 	0.2623	0.4486	0.2534	0.072
Mof_H 	H 	0.2494	0.2681	0.1453	0.257
Mof_C 	C 	0.2335	0.5005	0.1739	-0.035
Mof_C 	C 	0.3561	0.2386	0.4378	0.051
Mof_C 	C 	0.4762	0.287	0.422	-0.043
Mof_C 	C 	0.2296	0.1924	0.4548	-0.083
Mof_H 	H 	0.2583	0.027	0.3663	0.283
Mof_C 	C 	0.1209	0.4555	0.4413	0.045
Mof_C 	C 	0.1813	0.342	0.4852	0.243
Mof_H 	H 	0.3828	0.6364	0.022	0.056
Mof_C 	C 	0.4033	0.5032	0.027	-0.038
Mof_C 	C 	0.4243	0.4484	0.1004	-0.083
Mof_H 	H 	0.4398	0.4293	0.1832	0.051
Mof_H 	H 	0.4047	0.4903	0.2193	0.055
Mof_C 	C 	0.5107	0.5013	0.2192	-0.096
Mof_H 	H 	0.3047	0.349	0.346	0.043
Mof_C 	C 	0.2836	0.4849	0.3427	-0.077
Mof_C 	C 	0.2548	0.5392	0.2713	-0.107
Mof_H 	H 	0.2343	0.5603	0.1884	0.053
Mof_H 	H 	0.2703	0.5012	0.1521	0.056
Mof_C 	C 	0.1635	0.4924	0.1497	-0.093
Mof_C 	C 	0.359	0.2973	0.4751	-0.099
Mof_C 	C 	0.476	0.344	0.4577	-0.053
Mof_H 	H 	0.5159	0.2839	0.4044	0.051
Mof_C 	C 	0.1891	0.2834	0.4488	-0.087
Mof_H 	H 	0.2414	0.1859	0.4855	0.078
Mof_H 	H 	0.1988	0.1414	0.4472	0.075
Mof_H 	H 	0.099	0.5128	0.4387	0.027
Mof_C 	C 	0.1259	0.3971	0.404	-0.052
Mof_O 	O 	0.2074	0.3145	0.52424	-0.438
Mof_H 	H 	0.4014	0.4908	0.9971	0.036
Mof_C 	C 	0.4176	0.4303	0.0575	-0.015
Mof_H 	H 	0.4358	0.4003	0.1193	0.07
Mof_C 	C 	0.5189	0.4942	0.2651	0.091
Mof_C 	C 	0.5709	0.5085	0.1925	0.28
Mof_H 	H 	0.2895	0.4978	0.3723	0.056
Mof_C 	C 	0.2657	0.5553	0.3132	0.019
Mof_H 	H 	0.242	0.588	0.2531	0.074
Mof_C 	C 	0.1579	0.4951	0.1042	0.078
Mof_C 	C 	0.1019	0.4917	0.174	0.271
Mof_C 	C 	0.4193	0.348	0.4843	-0.004
Mof_H 	H 	0.3203	0.3019	0.4934	0.08
Mof_H 	H 	0.5151	0.3802	0.4639	0.047
Mof_C 	C 	0.1603	0.3102	0.4087	0.078
Mof_C 	C 	0.0971	0.4226	0.3631	0.003
Mof_H 	H 	0.2162	0.3602	0.5392	0.268
Mof_H 	H 	0.4223	0.3698	0.0476	0.035
Mof_C 	C 	0.4619	0.4829	0.2939	-0.126
Mof_C 	C 	0.5871	0.4991	0.2834	-0.077
Mof_O 	O 	0.5639	0.5069	0.14921	-0.451
Mof_C 	C 	0.6395	0.5173	0.2123	-0.269
Mof_H 	H 	0.2613	0.6156	0.3236	0.015
Mof_C 	C 	0.2169	0.4985	0.0749	-0.106
Mof_C 	C 	0.0912	0.4988	0.0833	-0.059
Mof_O 	O 	0.10849	0.4941	0.2186	-0.44
Mof_C 	C 	0.0355	0.4904	0.1543	-0.262
Mof_H 	H 	0.4206	0.3853	0.5091	0.032
Mof_C 	C 	0.1601	0.2514	0.371	-0.136
Mof_H 	H 	0.0749	0.4797	0.3604	0.032
Mof_C 	C 	0.101	0.367	0.3282	-0.095
Mof_H 	H 	0.4165	0.4802	0.2831	0.084
Mof_C 	C 	0.4736	0.476	0.338	0.029
Mof_C 	C 	0.595	0.4916	0.3299	0.002
Mof_C 	C 	0.6459	0.5101	0.2557	0.107
Mof_H 	H 	0.6026	0.5107	0.1377	0.288
Mof_C 	C 	0.702	0.5248	0.1849	0.455
Mof_H 	H 	0.2617	0.4929	0.0866	0.08
Mof_C 	C 	0.2101	0.5093	0.0317	0.011
Mof_C 	C 	0.0856	0.5067	0.0382	-0.017
Mof_C 	C 	0.0315	0.4941	0.1097	0.091
Mof_H 	H 	0.0696	0.4995	0.2297	0.285
Mof_C 	C 	0.9697	0.49	0.181	0.493
Mof_C 	C 	0.1317	0.2807	0.3329	0.042
Mof_H 	H 	0.1796	0.1924	0.3727	0.1
Mof_H 	H 	0.0834	0.3859	0.3012	0.08
Mof_H 	H 	0.4353	0.4687	0.3564	0.021
Mof_C 	C 	0.5398	0.4795	0.3563	-0.092
Mof_H 	H 	0.6396	0.4952	0.342	0.035
Mof_H 	H 	0.6904	0.5125	0.2681	-0.022
Mof_H 	H 	0.2503	0.5134	0.0146	0.031
Mof_C 	C 	0.1439	0.5146	0.0109	-0.061
Mof_H 	H 	0.0413	0.5069	0.0256	0.045
Mof_H 	H 	0.9877	0.4934	0.0965	-0.01
Mof_O 	O 	0.91148	0.4789	0.16244	-0.566
Mof_H 	H 	0.1329	0.2412	0.3088	0.023
Mof_H 	H 	0.5458	0.4735	0.3864	0.062
Mof_H 	H 	0.1396	0.5228	0.9808	0.052
_end
