data_functionalizedCrystal
_audit_creation_method	'EQeq! by Chris Wilmer'
_symmetry_space_group_name_H-M	'P1'
_symmetry_Int_Tables_number	1
_symmetry_cell_setting	triclinic
loop_
_symmetry_equiv_pos_as_xyz
  x,y,z
_cell_length_a	20.7465
_cell_length_b	20.7465
_cell_length_c	20.7465
_cell_angle_alpha	90
_cell_angle_beta	90
_cell_angle_gamma	90
loop_
_atom_site_label
_atom_site_type_symbol
_atom_site_fract_x
_atom_site_fract_y
_atom_site_fract_z
_atom_site_charge
Mof_O 	O 	0.83268	0.08866	0.00176	-0.89
Mof_O 	O 	0.16732	0.08866	0.99824	-0.552
Mof_O 	O 	0.99824	0.16732	0.08866	-0.552
Mof_O 	O 	0.00176	0.16732	0.91134	-0.679
Mof_O 	O 	0.00176	0.08866	0.83268	-0.89
Mof_O 	O 	0.99824	0.08866	0.16732	-0.552
Mof_O 	O 	0.08866	0.16732	0.99824	-0.551
Mof_O 	O 	0.91134	0.16732	0.00176	-0.678
Mof_Zr	Zr	-1.41347e-33	0.11466	-0	3.117
Mof_O 	O 	0.05863	0.05863	0.94137	-1.317
Mof_O 	O 	0.94137	0.05863	0.05863	-1.317
Mof_C 	C 	0.85113	0.14887	0.00249	0.439
Mof_C 	C 	0.14887	0.14887	0.9975	0.474
Mof_C 	C 	0.9975	0.14887	0.14887	0.474
Mof_C 	C 	0.0025	0.14887	0.85113	0.439
Mof_H 	H 	0.0857	0.0857	0.0857	0.121
Mof_O 	O 	0.0582	0.0582	0.0582	-1.926
Mof_H 	H 	0.9143	0.0857	0.9143	0.367
Mof_O 	O 	0.9418	0.0582	0.9418	-1.283
Mof_O 	O 	0.16732	0.91134	0.00176	-0.678
Mof_O 	O 	0.83268	0.91134	0.99824	-0.323
Mof_O 	O 	0.08866	0.99824	0.16732	-0.551
Mof_O 	O 	0.08866	0.00176	0.83268	-0.889
Mof_O 	O 	0.91134	0.99824	0.83268	-0.323
Mof_O 	O 	0.91134	0.00176	0.16732	-0.678
Mof_O 	O 	0.00176	0.83268	0.08866	-0.889
Mof_O 	O 	0.99824	0.83268	0.91134	-0.323
Mof_O 	O 	0.00176	0.91134	0.16732	-0.678
Mof_O 	O 	0.99824	0.91134	0.83268	-0.323
Mof_O 	O 	0.16732	0.99824	0.08866	-0.551
Mof_O 	O 	0.83268	0.00176	0.08866	-0.889
Mof_O 	O 	0.83268	0.99824	0.91134	-0.323
Mof_O 	O 	0.16732	0.00176	0.91134	-0.678
Mof_O 	O 	0.08866	0.83268	0.00176	-0.889
Mof_O 	O 	0.91134	0.83268	0.99824	-0.323
Mof_Zr	Zr	0.11466	0	-0	3.117
Mof_Zr	Zr	0.88534	0	-0	3.118
Mof_Zr	Zr	-9.83562e-34	-1.41347e-33	0.11466	3.117
Mof_Zr	Zr	-7.98825e-33	0	0.88534	3.118
Mof_Zr	Zr	-1.13077e-32	0.88534	-0	3.118
Mof_O 	O 	0.94137	0.94137	0.94137	-0.924
Mof_O 	O 	0.05863	0.94137	0.05863	-1.317
Mof_C 	C 	0.14887	0.85113	0.0025	0.439
Mof_C 	C 	0.85113	0.85113	0.9975	0.416
Mof_C 	C 	0.14887	0.99751	0.14887	0.474
Mof_C 	C 	0.14887	0.00249	0.85113	0.439
Mof_C 	C 	0.85113	0.9975	0.85113	0.416
Mof_C 	C 	0.85113	0.0025	0.14887	0.439
Mof_C 	C 	0.00249	0.85113	0.14887	0.439
Mof_C 	C 	0.99751	0.85113	0.85113	0.416
Mof_H 	H 	0.9143	0.9143	0.0857	0.367
Mof_O 	O 	0.9418	0.9418	0.0582	-1.283
Mof_H 	H 	0.0857	0.9143	0.9143	0.367
Mof_O 	O 	0.0582	0.9418	0.9418	-1.283
Mof_O 	O 	0.33268	0.58866	0.00176	-0.804
Mof_O 	O 	0.66732	0.58866	0.99824	-0.434
Mof_O 	O 	0.49824	0.66732	0.08866	-0.726
Mof_O 	O 	0.50176	0.66732	0.91134	-0.5
Mof_O 	O 	0.50176	0.58866	0.83268	-0.621
Mof_O 	O 	0.49824	0.58866	0.16732	-0.633
Mof_O 	O 	0.58866	0.66732	0.99824	-0.434
Mof_O 	O 	0.41134	0.66732	0.00176	-0.79
Mof_Zr	Zr	0.5	0.61466	-0	3.174
Mof_O 	O 	0.55863	0.55863	0.94137	-1.145
Mof_O 	O 	0.44137	0.55863	0.05863	-1.353
Mof_C 	C 	0.35113	0.64887	0.00249	0.443
Mof_C 	C 	0.64887	0.64887	0.9975	0.454
Mof_C 	C 	0.4975	0.64887	0.14887	0.467
Mof_C 	C 	0.5025	0.64887	0.85113	0.435
Mof_H 	H 	0.5857	0.5857	0.0857	0.256
Mof_O 	O 	0.5582	0.5582	0.0582	-1.639
Mof_H 	H 	0.4143	0.5857	0.9143	0.37
Mof_O 	O 	0.4418	0.5582	0.9418	-1.316
Mof_O 	O 	0.66732	0.41134	0.00176	-0.79
Mof_O 	O 	0.33268	0.41134	0.99824	-0.446
Mof_O 	O 	0.58866	0.49824	0.16732	-0.633
Mof_O 	O 	0.58866	0.50176	0.83268	-0.621
Mof_O 	O 	0.41134	0.49824	0.83268	-0.62
Mof_O 	O 	0.41134	0.50176	0.16732	-0.637
Mof_O 	O 	0.50176	0.33268	0.08866	-0.744
Mof_O 	O 	0.49824	0.33268	0.91134	-0.511
Mof_O 	O 	0.50176	0.41134	0.16732	-0.637
Mof_O 	O 	0.49824	0.41134	0.83268	-0.62
Mof_O 	O 	0.66732	0.49824	0.08866	-0.726
Mof_O 	O 	0.33268	0.50176	0.08866	-0.745
Mof_O 	O 	0.33268	0.49824	0.91134	-0.511
Mof_O 	O 	0.66732	0.50176	0.91134	-0.5
Mof_O 	O 	0.58866	0.33268	0.00176	-0.804
Mof_O 	O 	0.41134	0.33268	0.99824	-0.446
Mof_Zr	Zr	0.61466	0.5	-0	3.174
Mof_Zr	Zr	0.38534	0.5	-0	3.174
Mof_Zr	Zr	0.5	0.5	0.11466	3.234
Mof_Zr	Zr	0.5	0.5	0.88534	3.231
Mof_Zr	Zr	0.5	0.38534	-0	3.174
Mof_O 	O 	0.44137	0.44137	0.94137	-1.144
Mof_O 	O 	0.55863	0.44137	0.05863	-1.353
Mof_C 	C 	0.64887	0.35113	0.0025	0.443
Mof_C 	C 	0.35113	0.35113	0.9975	0.442
Mof_C 	C 	0.64887	0.49751	0.14887	0.467
Mof_C 	C 	0.64887	0.50249	0.85113	0.435
Mof_C 	C 	0.35113	0.4975	0.85113	0.431
Mof_C 	C 	0.35113	0.5025	0.14887	0.457
Mof_C 	C 	0.50249	0.35113	0.14887	0.457
Mof_C 	C 	0.49751	0.35113	0.85113	0.431
Mof_H 	H 	0.4143	0.4143	0.0857	0.242
Mof_O 	O 	0.4418	0.4418	0.0582	-1.637
Mof_H 	H 	0.5857	0.4143	0.9143	0.37
Mof_O 	O 	0.5582	0.4418	0.9418	-1.316
Mof_O 	O 	0.83268	0.58866	0.50176	-0.621
Mof_O 	O 	0.16732	0.58866	0.49824	-0.633
Mof_O 	O 	0.99824	0.66732	0.58866	-0.434
Mof_O 	O 	0.00176	0.66732	0.41134	-0.79
Mof_O 	O 	0.00176	0.58866	0.33268	-0.804
Mof_O 	O 	0.99824	0.58866	0.66732	-0.434
Mof_O 	O 	0.08866	0.66732	0.49824	-0.726
Mof_O 	O 	0.91134	0.66732	0.50176	-0.5
Mof_Zr	Zr	1.8747e-33	0.61466	0.5	3.174
Mof_O 	O 	0.05863	0.55863	0.44137	-1.353
Mof_O 	O 	0.94137	0.55863	0.55863	-1.145
Mof_C 	C 	0.85113	0.64887	0.5025	0.435
Mof_C 	C 	0.14887	0.64887	0.4975	0.467
Mof_C 	C 	0.99751	0.64887	0.64887	0.454
Mof_C 	C 	0.00249	0.64887	0.35113	0.443
Mof_H 	H 	0.0857	0.5857	0.5857	0.256
Mof_O 	O 	0.0582	0.5582	0.5582	-1.639
Mof_H 	H 	0.9143	0.5857	0.4143	0.37
Mof_O 	O 	0.9418	0.5582	0.4418	-1.316
Mof_O 	O 	0.16732	0.41134	0.50176	-0.637
Mof_O 	O 	0.83268	0.41134	0.49824	-0.62
Mof_O 	O 	0.08866	0.49824	0.66732	-0.726
Mof_O 	O 	0.08866	0.50176	0.33268	-0.745
Mof_O 	O 	0.91134	0.49824	0.33268	-0.511
Mof_O 	O 	0.91134	0.50176	0.66732	-0.5
Mof_O 	O 	0.00176	0.33268	0.58866	-0.804
Mof_O 	O 	0.99824	0.33268	0.41134	-0.446
Mof_O 	O 	0.00176	0.41134	0.66732	-0.79
Mof_O 	O 	0.99824	0.41134	0.33268	-0.446
Mof_O 	O 	0.16732	0.49824	0.58866	-0.633
Mof_O 	O 	0.83268	0.50176	0.58866	-0.621
Mof_O 	O 	0.83268	0.49824	0.41134	-0.62
Mof_O 	O 	0.16732	0.50176	0.41134	-0.637
Mof_O 	O 	0.08866	0.33268	0.50176	-0.744
Mof_O 	O 	0.91134	0.33268	0.49824	-0.511
Mof_Zr	Zr	0.11466	0.5	0.5	3.234
Mof_Zr	Zr	0.88534	0.5	0.5	3.231
Mof_Zr	Zr	2.30461e-33	0.5	0.61466	3.174
Mof_Zr	Zr	-7.03601e-33	0.5	0.38534	3.174
Mof_Zr	Zr	-9.43304e-33	0.38534	0.5	3.174
Mof_O 	O 	0.94137	0.44137	0.44137	-1.144
Mof_O 	O 	0.05863	0.44137	0.55863	-1.353
Mof_C 	C 	0.14887	0.35113	0.50249	0.457
Mof_C 	C 	0.85113	0.35113	0.4975	0.431
Mof_C 	C 	0.14887	0.4975	0.64887	0.467
Mof_C 	C 	0.14887	0.5025	0.35113	0.457
Mof_C 	C 	0.85113	0.49751	0.35113	0.431
Mof_C 	C 	0.85113	0.50249	0.64887	0.435
Mof_C 	C 	0.0025	0.35113	0.64887	0.443
Mof_C 	C 	0.9975	0.35113	0.35113	0.442
Mof_H 	H 	0.9143	0.4143	0.5857	0.37
Mof_O 	O 	0.9418	0.4418	0.5582	-1.316
Mof_H 	H 	0.0857	0.4143	0.4143	0.242
Mof_O 	O 	0.0582	0.4418	0.4418	-1.637
Mof_O 	O 	0.33268	0.08866	0.50176	-0.745
Mof_O 	O 	0.66732	0.08866	0.49824	-0.726
Mof_O 	O 	0.49824	0.16732	0.58866	-0.633
Mof_O 	O 	0.50176	0.16732	0.41134	-0.637
Mof_O 	O 	0.50176	0.08866	0.33268	-0.744
Mof_O 	O 	0.49824	0.08866	0.66732	-0.726
Mof_O 	O 	0.58866	0.16732	0.49824	-0.633
Mof_O 	O 	0.41134	0.16732	0.50176	-0.637
Mof_Zr	Zr	0.5	0.11466	0.5	3.234
Mof_O 	O 	0.55863	0.05863	0.44137	-1.353
Mof_O 	O 	0.44137	0.05863	0.55863	-1.353
Mof_C 	C 	0.35113	0.14887	0.5025	0.457
Mof_C 	C 	0.64887	0.14887	0.4975	0.467
Mof_C 	C 	0.49751	0.14887	0.64887	0.467
Mof_C 	C 	0.50249	0.14887	0.35113	0.457
Mof_H 	H 	0.5857	0.0857	0.5857	0.256
Mof_O 	O 	0.5582	0.0582	0.5582	-1.639
Mof_H 	H 	0.4143	0.0857	0.4143	0.242
Mof_O 	O 	0.4418	0.0582	0.4418	-1.637
Mof_O 	O 	0.66732	0.91134	0.50176	-0.5
Mof_O 	O 	0.33268	0.91134	0.49824	-0.511
Mof_O 	O 	0.58866	0.99824	0.66732	-0.434
Mof_O 	O 	0.58866	0.00176	0.33268	-0.804
Mof_O 	O 	0.41134	0.99824	0.33268	-0.447
Mof_O 	O 	0.41134	0.00176	0.66732	-0.79
Mof_O 	O 	0.50176	0.83268	0.58866	-0.621
Mof_O 	O 	0.49824	0.83268	0.41134	-0.62
Mof_O 	O 	0.50176	0.91134	0.66732	-0.5
Mof_O 	O 	0.49824	0.91134	0.33268	-0.511
Mof_O 	O 	0.66732	0.99824	0.58866	-0.434
Mof_O 	O 	0.33268	0.00176	0.58866	-0.804
Mof_O 	O 	0.33268	0.99824	0.41134	-0.447
Mof_O 	O 	0.66732	0.00176	0.41134	-0.79
Mof_O 	O 	0.58866	0.83268	0.50176	-0.621
Mof_O 	O 	0.41134	0.83268	0.49824	-0.62
Mof_Zr	Zr	0.61466	-5.65387e-33	0.5	3.174
Mof_Zr	Zr	0.38534	-5.65387e-33	0.5	3.174
Mof_Zr	Zr	0.5	-5.65387e-33	0.61466	3.174
Mof_Zr	Zr	0.5	0	0.38534	3.174
Mof_Zr	Zr	0.5	0.88534	0.5	3.231
Mof_O 	O 	0.44137	0.94137	0.44137	-1.144
Mof_O 	O 	0.55863	0.94137	0.55863	-1.145
Mof_C 	C 	0.64887	0.85113	0.50249	0.435
Mof_C 	C 	0.35113	0.85113	0.4975	0.431
Mof_C 	C 	0.64887	0.9975	0.64887	0.454
Mof_C 	C 	0.64887	0.0025	0.35113	0.443
Mof_C 	C 	0.35113	0.99751	0.35113	0.442
Mof_C 	C 	0.35113	0.00249	0.64887	0.443
Mof_C 	C 	0.5025	0.85113	0.64887	0.435
Mof_C 	C 	0.4975	0.85113	0.35113	0.431
Mof_H 	H 	0.4143	0.9143	0.5857	0.37
Mof_O 	O 	0.4418	0.9418	0.5582	-1.316
Mof_H 	H 	0.5857	0.9143	0.4143	0.37
Mof_O 	O 	0.5582	0.9418	0.4418	-1.316
Mof_C 	C 	0.26694	0.18485	0.99653	0.034
Mof_C 	C 	0.2007	0.2007	0.99668	-0.085
Mof_C 	C 	0.18485	0.26694	0.99653	0.034
Mof_C 	C 	0.23306	0.31515	0.99653	0.008
Mof_C 	C 	0.2993	0.2993	0.99668	-0.027
Mof_C 	C 	0.31515	0.23306	0.99653	0.008
Mof_H 	H 	0.28182	0.13483	0.99661	0.061
Mof_H 	H 	0.13483	0.28182	0.99661	0.061
Mof_H 	H 	0.21818	0.36517	0.99661	0.103
Mof_H 	H 	0.36517	0.21818	0.99661	0.103
Mof_C 	C 	0.26694	0.68485	0.49653	0.018
Mof_C 	C 	0.2007	0.7007	0.49668	-0.12
Mof_C 	C 	0.18485	0.76694	0.49653	0.019
Mof_C 	C 	0.23306	0.81515	0.49653	-0.01
Mof_C 	C 	0.2993	0.7993	0.49668	-0.061
Mof_C 	C 	0.31515	0.73306	0.49653	-0.009
Mof_H 	H 	0.28182	0.63483	0.49661	0.043
Mof_H 	H 	0.13483	0.78182	0.49661	0.012
Mof_H 	H 	0.21818	0.86517	0.49661	0.086
Mof_H 	H 	0.36517	0.71818	0.49661	0.053
Mof_C 	C 	0.81515	0.73306	0.99653	0.035
Mof_C 	C 	0.7993	0.7993	0.99668	0.035
Mof_C 	C 	0.73306	0.81515	0.99653	0.035
Mof_C 	C 	0.68485	0.76694	0.99653	0.062
Mof_C 	C 	0.7007	0.7007	0.99668	-0.023
Mof_C 	C 	0.76694	0.68485	0.99653	0.062
Mof_H 	H 	0.86517	0.71818	0.99661	0.189
Mof_H 	H 	0.71818	0.86517	0.99661	0.189
Mof_H 	H 	0.63483	0.78182	0.99661	0.149
Mof_H 	H 	0.78182	0.63483	0.99661	0.149
Mof_C 	C 	0.81515	0.23306	0.49653	-0.01
Mof_C 	C 	0.7993	0.2993	0.49668	-0.061
Mof_C 	C 	0.73306	0.31515	0.49653	-0.009
Mof_C 	C 	0.68485	0.26694	0.49653	0.018
Mof_C 	C 	0.7007	0.2007	0.49668	-0.12
Mof_C 	C 	0.76694	0.18485	0.49653	0.019
Mof_H 	H 	0.86517	0.21818	0.49661	0.086
Mof_H 	H 	0.71818	0.36517	0.49661	0.053
Mof_H 	H 	0.63483	0.28182	0.49661	0.043
Mof_H 	H 	0.78182	0.13483	0.49661	0.012
Mof_C 	C 	0.81515	0.26694	0.00347	-0.023
Mof_C 	C 	0.7993	0.2007	0.00332	-0.156
Mof_C 	C 	0.73306	0.18485	0.00347	-0.041
Mof_C 	C 	0.68485	0.23306	0.00347	-0.04
Mof_C 	C 	0.7007	0.2993	0.00332	-0.159
Mof_C 	C 	0.76694	0.31515	0.00347	-0.02
Mof_H 	H 	0.86517	0.28182	0.00339	0.027
Mof_H 	H 	0.71818	0.13483	0.00339	-0.085
Mof_H 	H 	0.63483	0.21818	0.00339	-0.056
Mof_H 	H 	0.78182	0.36517	0.00339	-0.006
Mof_C 	C 	0.81515	0.76694	0.50347	0.023
Mof_C 	C 	0.7993	0.7007	0.50332	-0.062
Mof_C 	C 	0.73306	0.68485	0.50347	0.005
Mof_C 	C 	0.68485	0.73306	0.50347	0.005
Mof_C 	C 	0.7007	0.7993	0.50332	-0.062
Mof_C 	C 	0.76694	0.81515	0.50347	0.023
Mof_H 	H 	0.86517	0.78182	0.50339	0.131
Mof_H 	H 	0.71818	0.63483	0.50339	0.05
Mof_H 	H 	0.63483	0.71818	0.50339	0.05
Mof_H 	H 	0.78182	0.86517	0.50339	0.131
Mof_C 	C 	0.18485	0.23306	0.50347	-0.025
Mof_C 	C 	0.2007	0.2993	0.50332	-0.128
Mof_C 	C 	0.26694	0.31515	0.50347	-0.006
Mof_C 	C 	0.31515	0.26694	0.50347	-0.006
Mof_C 	C 	0.2993	0.2007	0.50332	-0.128
Mof_C 	C 	0.23306	0.18485	0.50347	-0.025
Mof_H 	H 	0.13483	0.21818	0.50339	-0.041
Mof_H 	H 	0.28182	0.36517	0.50339	0.04
Mof_H 	H 	0.36517	0.28182	0.50339	0.04
Mof_H 	H 	0.21818	0.13483	0.50339	-0.041
Mof_C 	C 	0.18485	0.73306	0.00347	-0.041
Mof_C 	C 	0.2007	0.7993	0.00332	-0.156
Mof_C 	C 	0.26694	0.81515	0.00347	-0.023
Mof_C 	C 	0.31515	0.76694	0.00347	-0.02
Mof_C 	C 	0.2993	0.7007	0.00332	-0.159
Mof_C 	C 	0.23306	0.68485	0.00347	-0.04
Mof_H 	H 	0.13483	0.71818	0.00339	-0.085
Mof_H 	H 	0.28182	0.86517	0.00339	0.027
Mof_H 	H 	0.36517	0.78182	0.00339	-0.006
Mof_H 	H 	0.21818	0.63483	0.00339	-0.056
Mof_C 	C 	0.99655	0.26694	0.18485	0.034
Mof_C 	C 	0.99668	0.2007	0.2007	-0.085
Mof_C 	C 	0.99652	0.18485	0.26694	0.034
Mof_C 	C 	0.99652	0.23306	0.31515	0.008
Mof_C 	C 	0.99668	0.2993	0.2993	-0.027
Mof_C 	C 	0.99655	0.31515	0.23306	0.008
Mof_H 	H 	0.99664	0.28182	0.13483	0.061
Mof_H 	H 	0.99658	0.13483	0.28182	0.061
Mof_H 	H 	0.99658	0.21818	0.36517	0.103
Mof_H 	H 	0.99664	0.36517	0.21818	0.103
Mof_C 	C 	0.49653	0.31515	0.73306	-0.009
Mof_C 	C 	0.49668	0.2993	0.7993	-0.061
Mof_C 	C 	0.49654	0.23306	0.81515	-0.01
Mof_C 	C 	0.49654	0.18485	0.76694	0.019
Mof_C 	C 	0.49668	0.2007	0.7007	-0.12
Mof_C 	C 	0.49653	0.26694	0.68485	0.018
Mof_H 	H 	0.4966	0.36517	0.71818	0.053
Mof_H 	H 	0.49662	0.21818	0.86517	0.086
Mof_H 	H 	0.49662	0.13483	0.78182	0.012
Mof_H 	H 	0.4966	0.28182	0.63483	0.043
Mof_C 	C 	0.99653	0.81515	0.73306	0.035
Mof_C 	C 	0.99668	0.7993	0.7993	0.035
Mof_C 	C 	0.99654	0.73306	0.81515	0.035
Mof_C 	C 	0.99654	0.68485	0.76694	0.062
Mof_C 	C 	0.99668	0.7007	0.7007	-0.023
Mof_C 	C 	0.99653	0.76694	0.68485	0.062
Mof_H 	H 	0.9966	0.86517	0.71818	0.188
Mof_H 	H 	0.99662	0.71818	0.86517	0.189
Mof_H 	H 	0.99662	0.63483	0.78182	0.149
Mof_H 	H 	0.9966	0.78182	0.63483	0.149
Mof_C 	C 	0.49655	0.76694	0.18485	0.019
Mof_C 	C 	0.49668	0.7007	0.2007	-0.12
Mof_C 	C 	0.49652	0.68485	0.26694	0.018
Mof_C 	C 	0.49652	0.73306	0.31515	-0.009
Mof_C 	C 	0.49668	0.7993	0.2993	-0.061
Mof_C 	C 	0.49655	0.81515	0.23306	-0.01
Mof_H 	H 	0.49664	0.78182	0.13483	0.012
Mof_H 	H 	0.49658	0.63483	0.28182	0.043
Mof_H 	H 	0.49658	0.71818	0.36517	0.053
Mof_H 	H 	0.49664	0.86517	0.21818	0.086
Mof_C 	C 	0.00346	0.81515	0.26694	-0.023
Mof_C 	C 	0.00332	0.7993	0.2007	-0.156
Mof_C 	C 	0.00347	0.73306	0.18485	-0.041
Mof_C 	C 	0.00347	0.68485	0.23306	-0.04
Mof_C 	C 	0.00332	0.7007	0.2993	-0.159
Mof_C 	C 	0.00346	0.76694	0.31515	-0.02
Mof_H 	H 	0.00338	0.86517	0.28182	0.027
Mof_H 	H 	0.0034	0.71818	0.13483	-0.085
Mof_H 	H 	0.0034	0.63483	0.21818	-0.056
Mof_H 	H 	0.00338	0.78182	0.36517	-0.006
Mof_C 	C 	0.50348	0.76694	0.81515	0.023
Mof_C 	C 	0.50332	0.7007	0.7993	-0.062
Mof_C 	C 	0.50345	0.68485	0.73306	0.005
Mof_C 	C 	0.50345	0.73306	0.68485	0.005
Mof_C 	C 	0.50332	0.7993	0.7007	-0.062
Mof_C 	C 	0.50348	0.81515	0.76694	0.023
Mof_H 	H 	0.50342	0.78182	0.86517	0.131
Mof_H 	H 	0.50336	0.63483	0.71818	0.05
Mof_H 	H 	0.50336	0.71818	0.63483	0.05
Mof_H 	H 	0.50342	0.86517	0.78182	0.131
Mof_C 	C 	0.50346	0.31515	0.26694	-0.006
Mof_C 	C 	0.50332	0.2993	0.2007	-0.128
Mof_C 	C 	0.50347	0.23306	0.18485	-0.025
Mof_C 	C 	0.50347	0.18485	0.23306	-0.025
Mof_C 	C 	0.50332	0.2007	0.2993	-0.128
Mof_C 	C 	0.50346	0.26694	0.31515	-0.006
Mof_H 	H 	0.50338	0.36517	0.28182	0.04
Mof_H 	H 	0.5034	0.21818	0.13483	-0.041
Mof_H 	H 	0.5034	0.13483	0.21818	-0.041
Mof_H 	H 	0.50338	0.28182	0.36517	0.04
Mof_C 	C 	0.00348	0.26694	0.81515	-0.023
Mof_C 	C 	0.00332	0.2007	0.7993	-0.156
Mof_C 	C 	0.00345	0.18485	0.73306	-0.041
Mof_C 	C 	0.00345	0.23306	0.68485	-0.04
Mof_C 	C 	0.00332	0.2993	0.7007	-0.159
Mof_C 	C 	0.00348	0.31515	0.76694	-0.02
Mof_H 	H 	0.00342	0.28182	0.86517	0.027
Mof_H 	H 	0.00336	0.13483	0.71818	-0.085
Mof_H 	H 	0.00336	0.21818	0.63483	-0.056
Mof_H 	H 	0.00342	0.36517	0.78182	-0.006
Mof_C 	C 	0.18485	0.99654	0.26694	0.034
Mof_C 	C 	0.2007	0.99668	0.2007	-0.085
Mof_C 	C 	0.26694	0.99653	0.18485	0.034
Mof_C 	C 	0.31515	0.99653	0.23306	0.008
Mof_C 	C 	0.2993	0.99668	0.2993	-0.027
Mof_C 	C 	0.23306	0.99654	0.31515	0.008
Mof_H 	H 	0.13483	0.99661	0.28182	0.061
Mof_H 	H 	0.28182	0.99661	0.13483	0.061
Mof_H 	H 	0.36517	0.99661	0.21818	0.103
Mof_H 	H 	0.21818	0.99661	0.36517	0.103
Mof_C 	C 	0.31515	0.49653	0.73306	-0.009
Mof_C 	C 	0.2993	0.49668	0.7993	-0.061
Mof_C 	C 	0.23306	0.49654	0.81515	-0.01
Mof_C 	C 	0.18485	0.49654	0.76694	0.019
Mof_C 	C 	0.2007	0.49668	0.7007	-0.12
Mof_C 	C 	0.26694	0.49653	0.68485	0.018
Mof_H 	H 	0.36517	0.4966	0.71818	0.053
Mof_H 	H 	0.21818	0.49662	0.86517	0.086
Mof_H 	H 	0.13483	0.49662	0.78182	0.012
Mof_H 	H 	0.28182	0.4966	0.63483	0.043
Mof_C 	C 	0.81515	0.99653	0.73306	0.035
Mof_C 	C 	0.7993	0.99668	0.7993	0.035
Mof_C 	C 	0.73306	0.99654	0.81515	0.035
Mof_C 	C 	0.68485	0.99654	0.76694	0.062
Mof_C 	C 	0.7007	0.99668	0.7007	-0.023
Mof_C 	C 	0.76694	0.99653	0.68485	0.062
Mof_H 	H 	0.86517	0.9966	0.71818	0.188
Mof_H 	H 	0.71818	0.99662	0.86517	0.189
Mof_H 	H 	0.63483	0.99662	0.78182	0.149
Mof_H 	H 	0.78182	0.9966	0.63483	0.149
Mof_C 	C 	0.68485	0.49654	0.26694	0.018
Mof_C 	C 	0.7007	0.49668	0.2007	-0.12
Mof_C 	C 	0.76694	0.49653	0.18485	0.019
Mof_C 	C 	0.81515	0.49653	0.23306	-0.01
Mof_C 	C 	0.7993	0.49668	0.2993	-0.061
Mof_C 	C 	0.73306	0.49654	0.31515	-0.009
Mof_H 	H 	0.63483	0.49661	0.28182	0.043
Mof_H 	H 	0.78182	0.49661	0.13483	0.012
Mof_H 	H 	0.86517	0.49661	0.21818	0.086
Mof_H 	H 	0.71818	0.49661	0.36517	0.053
Mof_C 	C 	0.18485	0.00347	0.73306	-0.041
Mof_C 	C 	0.2007	0.00332	0.7993	-0.156
Mof_C 	C 	0.26694	0.00346	0.81515	-0.023
Mof_C 	C 	0.31515	0.00346	0.76694	-0.02
Mof_C 	C 	0.2993	0.00332	0.7007	-0.159
Mof_C 	C 	0.23306	0.00347	0.68485	-0.04
Mof_H 	H 	0.13483	0.00339	0.71818	-0.085
Mof_H 	H 	0.28182	0.00339	0.86517	0.027
Mof_H 	H 	0.36517	0.00339	0.78182	-0.006
Mof_H 	H 	0.21818	0.00339	0.63483	-0.056
Mof_C 	C 	0.31515	0.50346	0.26694	-0.006
Mof_C 	C 	0.2993	0.50332	0.2007	-0.128
Mof_C 	C 	0.23306	0.50347	0.18485	-0.025
Mof_C 	C 	0.18485	0.50347	0.23306	-0.025
Mof_C 	C 	0.2007	0.50332	0.2993	-0.128
Mof_C 	C 	0.26694	0.50346	0.31515	-0.006
Mof_H 	H 	0.36517	0.50338	0.28182	0.04
Mof_H 	H 	0.21818	0.5034	0.13483	-0.041
Mof_H 	H 	0.13483	0.5034	0.21818	-0.041
Mof_H 	H 	0.28182	0.50338	0.36517	0.04
Mof_C 	C 	0.81515	0.00346	0.26694	-0.023
Mof_C 	C 	0.7993	0.00332	0.2007	-0.156
Mof_C 	C 	0.73306	0.00347	0.18485	-0.041
Mof_C 	C 	0.68485	0.00347	0.23306	-0.04
Mof_C 	C 	0.7007	0.00332	0.2993	-0.159
Mof_C 	C 	0.76694	0.00346	0.31515	-0.02
Mof_H 	H 	0.86517	0.00338	0.28182	0.027
Mof_H 	H 	0.71818	0.0034	0.13483	-0.085
Mof_H 	H 	0.63483	0.0034	0.21818	-0.056
Mof_H 	H 	0.78182	0.00338	0.36517	-0.006
Mof_C 	C 	0.68485	0.50347	0.73306	0.005
Mof_C 	C 	0.7007	0.50332	0.7993	-0.062
Mof_C 	C 	0.76694	0.50346	0.81515	0.023
Mof_C 	C 	0.81515	0.50346	0.76694	0.023
Mof_C 	C 	0.7993	0.50332	0.7007	-0.062
Mof_C 	C 	0.73306	0.50347	0.68485	0.005
Mof_H 	H 	0.63483	0.50339	0.71818	0.05
Mof_H 	H 	0.78182	0.50339	0.86517	0.131
Mof_H 	H 	0.86517	0.50339	0.78182	0.131
Mof_H 	H 	0.71818	0.50339	0.63483	0.05
_end
