# CIF file generated by openbabel 3.1.0, see https://openbabel.org
data_I
_chemical_name_common 'image0'
_cell_length_a 8.5595
_cell_length_b 13.5759
_cell_length_c 9.3231
_cell_angle_alpha 90
_cell_angle_beta 96.024
_cell_angle_gamma 90
_space_group_name_H-M_alt 'P 1'
_space_group_name_Hall 'P 1'
loop_
    _symmetry_equiv_pos_as_xyz
    x,y,z
loop_
    _atom_site_label
    _atom_site_type_symbol
    _atom_site_fract_x
    _atom_site_fract_y
    _atom_site_fract_z
    _atom_site_occupancy
    Zn1      Zn       0.35885    0.01862    0.29844    1.000
    Zn2      Zn       0.59558    0.13969    0.90782    1.000
    Zn3      Zn       0.85052    0.75917    0.22691    1.000
    P1       P        0.64116    0.95541    0.12928    1.000
    P2       P        0.29432    0.20248    0.07469    1.000
    P3       P        0.21491    0.79988    0.25689    1.000
    P4       P        0.38997    0.12217    0.59978    1.000
    O1       O        0.69330    0.03550    0.02960    1.000
    O2       O        0.57050    0.99520    0.25900    1.000
    O3       O        0.78040    0.88990    0.17000    1.000
    O4       O        0.27300    0.13170    0.19760    1.000
    O5       O        0.15940    0.18840    0.95570    1.000
    O6       O        0.45280    0.20320    0.02000    1.000
    O7       O        0.06380    0.77500    0.32400    1.000
    O8       O        0.24220    0.73450    0.13030    1.000
    O9       O        0.22200    0.90970    0.22160    1.000
    O10      O        0.33320    0.03570    0.50270    1.000
    O11      O        0.50030    0.08810    0.72650    1.000
    O12      O        0.25440    0.18140    0.64110    1.000
    H1       H        0.53510    0.90770    0.06470    1.000
    H2       H        0.27230    0.28850    0.12340    1.000
    H3       H        0.34480    0.78350    0.34140    1.000
    H4       H        0.47190    0.18070    0.52790    1.000
    Zn4      Zn       0.64115    0.51862    0.70156    1.000
    Zn5      Zn       0.40442    0.63969    0.09218    1.000
    Zn6      Zn       0.14948    0.25917    0.77309    1.000
    P5       P        0.35884    0.45541    0.87072    1.000
    P6       P        0.70568    0.70248    0.92531    1.000
    P7       P        0.78509    0.29988    0.74311    1.000
    P8       P        0.61003    0.62217    0.40022    1.000
    O13      O        0.30670    0.53550    0.97040    1.000
    O14      O        0.42950    0.49520    0.74100    1.000
    O15      O        0.21960    0.38990    0.83000    1.000
    O16      O        0.72700    0.63170    0.80240    1.000
    O17      O        0.84060    0.68840    0.04430    1.000
    O18      O        0.54720    0.70320    0.98000    1.000
    O19      O        0.93620    0.27500    0.67600    1.000
    O20      O        0.75780    0.23450    0.86970    1.000
    O21      O        0.77800    0.40970    0.77840    1.000
    O22      O        0.66680    0.53570    0.49730    1.000
    O23      O        0.49970    0.58810    0.27350    1.000
    O24      O        0.74560    0.68140    0.35890    1.000
    H5       H        0.46490    0.40770    0.93530    1.000
    H6       H        0.72770    0.78850    0.87660    1.000
    H7       H        0.65520    0.28350    0.65860    1.000
    H8       H        0.52810    0.68070    0.47210    1.000
