# CIF file generated by openbabel 3.1.0, see https://openbabel.org
data_I
_chemical_name_common 'image0'
_cell_length_a 9.9435
_cell_length_b 13.3966
_cell_length_c 16.5649
_cell_angle_alpha 97.292
_cell_angle_beta 101.943
_cell_angle_gamma 100.463
_space_group_name_H-M_alt 'P 1'
_space_group_name_Hall 'P 1'
loop_
    _symmetry_equiv_pos_as_xyz
    x,y,z
loop_
    _atom_site_label
    _atom_site_type_symbol
    _atom_site_fract_x
    _atom_site_fract_y
    _atom_site_fract_z
    _atom_site_occupancy
    Co1      Co       0.61666    0.73918    0.03436    1.000
    Co2      Co       0.63631    0.71035    0.21763    1.000
    Co3      Co       0.62823    0.47616    0.06355    1.000
    O1       O        0.47550    0.70530    0.11281    1.000
    O2       O        0.28860    0.59680    0.02797    1.000
    O3       O        0.77270    0.71720    0.13508    1.000
    O4       O        0.83010    0.56480    0.10811    1.000
    O5       O        0.48790    0.32420    0.40500    1.000
    O6       O        0.31410    0.29310    0.46640    1.000
    H1       H        0.29740    0.35090    0.46710    1.000
    O7       O        0.66840    0.36560    0.13718    1.000
    O8       O        0.52620    0.22450    0.05530    1.000
    O9       O        0.65850    0.88950    0.09865    1.000
    O10      O        0.67160    0.86650    0.23282    1.000
    O11      O        0.19260    0.28130    0.68960    1.000
    O12      O        0.20870    0.44320    0.66580    1.000
    O13      O        0.58110    0.58630    0.98540    1.000
    C1       C        0.19880    0.86140    0.21570    1.000
    C2       C        0.29210    0.81320    0.18110    1.000
    H2       H        0.38640    0.84600    0.19220    1.000
    C3       C        0.24610    0.71660    0.13040    1.000
    C4       C        0.10620    0.66630    0.11530    1.000
    H3       H        0.07560    0.60150    0.08190    1.000
    C5       C        0.01110    0.71250    0.14980    1.000
    C6       C        0.05750    0.81010    0.19960    1.000
    H4       H        0.99420    0.84130    0.22220    1.000
    C7       C        0.34330    0.66820    0.08770    1.000
    C8       C        0.86000    0.65970    0.12970    1.000
    C9       C        0.24690    0.96630    0.26750    1.000
    C10      C        0.35640    0.03720    0.25260    1.000
    H5       H        0.40100    0.01810    0.21080    1.000
    C11      C        0.39940    0.13500    0.29880    1.000
    H6       H        0.47470    0.18050    0.28920    1.000
    C12      C        0.33140    0.16640    0.35960    1.000
    C13      C        0.22200    0.09650    0.37540    1.000
    H7       H        0.17710    0.11610    0.41690    1.000
    C14      C        0.18030    0.99840    0.32960    1.000
    H8       H        0.10630    0.95250    0.34010    1.000
    C15      C        0.37600    0.27350    0.40740    1.000
    C16      C        0.79330    0.18240    0.31650    1.000
    C17      C        0.74540    0.24560    0.26080    1.000
    H9       H        0.76160    0.31630    0.27890    1.000
    C18      C        0.67400    0.20390    0.17880    1.000
    C19      C        0.65220    0.09830    0.14960    1.000
    H10      H        0.60690    0.07100    0.09410    1.000
    C20      C        0.69900    0.03420    0.20460    1.000
    C21      C        0.76720    0.07650    0.28690    1.000
    H11      H        0.79650    0.03320    0.32350    1.000
    C22      C        0.61970    0.27200    0.11900    1.000
    C23      C        0.67440    0.92050    0.17590    1.000
    C24      C        0.87500    0.22530    0.40430    1.000
    C25      C        0.90950    0.32910    0.43530    1.000
    H12      H        0.87230    0.37390    0.40290    1.000
    C26      C        0.99900    0.36920    0.51410    1.000
    H13      H        0.02110    0.44000    0.53260    1.000
    C27      C        0.05470    0.30610    0.56450    1.000
    C28      C        0.01240    0.20160    0.53680    1.000
    H14      H        0.04380    0.15660    0.57110    1.000
    C29      C        0.92390    0.16220    0.45870    1.000
    H15      H        0.89630    0.09110    0.44220    1.000
    C30      C        0.15970    0.34810    0.64650    1.000
    H16      H        0.61300    0.58800    0.95500    1.000
    O14      O        0.44460    0.34710    0.37870    1.000
    Co4      Co       0.38334    0.26082    0.96564    1.000
    Co5      Co       0.36369    0.28965    0.78237    1.000
    Co6      Co       0.37177    0.52384    0.93645    1.000
    O15      O        0.52450    0.29470    0.88719    1.000
    O16      O        0.71140    0.40320    0.97203    1.000
    O17      O        0.22730    0.28280    0.86492    1.000
    O18      O        0.16990    0.43520    0.89189    1.000
    O19      O        0.51210    0.67580    0.59500    1.000
    O20      O        0.68590    0.70690    0.53360    1.000
    H17      H        0.70260    0.64910    0.53290    1.000
    O21      O        0.33160    0.63440    0.86282    1.000
    O22      O        0.47380    0.77550    0.94470    1.000
    O23      O        0.34150    0.11050    0.90135    1.000
    O24      O        0.32840    0.13350    0.76718    1.000
    O25      O        0.80740    0.71870    0.31040    1.000
    O26      O        0.79130    0.55680    0.33420    1.000
    O27      O        0.41890    0.41370    0.01460    1.000
    C31      C        0.80120    0.13860    0.78430    1.000
    C32      C        0.70790    0.18680    0.81890    1.000
    H18      H        0.61360    0.15400    0.80780    1.000
    C33      C        0.75390    0.28340    0.86960    1.000
    C34      C        0.89380    0.33370    0.88470    1.000
    H19      H        0.92440    0.39850    0.91810    1.000
    C35      C        0.98890    0.28750    0.85020    1.000
    C36      C        0.94250    0.18990    0.80040    1.000
    H20      H        0.00580    0.15870    0.77780    1.000
    C37      C        0.65670    0.33180    0.91230    1.000
    C38      C        0.14000    0.34030    0.87030    1.000
    C39      C        0.75310    0.03370    0.73250    1.000
    C40      C        0.64360    0.96280    0.74740    1.000
    H21      H        0.59900    0.98190    0.78920    1.000
    C41      C        0.60060    0.86500    0.70120    1.000
    H22      H        0.52530    0.81950    0.71080    1.000
    C42      C        0.66860    0.83360    0.64040    1.000
    C43      C        0.77800    0.90350    0.62460    1.000
    H23      H        0.82290    0.88390    0.58310    1.000
    C44      C        0.81970    0.00160    0.67040    1.000
    H24      H        0.89370    0.04750    0.65990    1.000
    C45      C        0.62400    0.72650    0.59260    1.000
    C46      C        0.20670    0.81760    0.68350    1.000
    C47      C        0.25460    0.75440    0.73920    1.000
    H25      H        0.23840    0.68370    0.72110    1.000
    C48      C        0.32600    0.79610    0.82120    1.000
    C49      C        0.34780    0.90170    0.85040    1.000
    H26      H        0.39310    0.92900    0.90590    1.000
    C50      C        0.30100    0.96580    0.79540    1.000
    C51      C        0.23280    0.92350    0.71310    1.000
    H27      H        0.20350    0.96680    0.67650    1.000
    C52      C        0.38030    0.72800    0.88100    1.000
    C53      C        0.32560    0.07950    0.82410    1.000
    C54      C        0.12500    0.77470    0.59570    1.000
    C55      C        0.09050    0.67090    0.56470    1.000
    H28      H        0.12770    0.62610    0.59710    1.000
    C56      C        0.00100    0.63080    0.48590    1.000
    H29      H        0.97890    0.56000    0.46740    1.000
    C57      C        0.94530    0.69390    0.43550    1.000
    C58      C        0.98760    0.79840    0.46320    1.000
    H30      H        0.95620    0.84340    0.42890    1.000
    C59      C        0.07610    0.83780    0.54130    1.000
    H31      H        0.10370    0.90890    0.55780    1.000
    C60      C        0.84030    0.65190    0.35350    1.000
    H32      H        0.38700    0.41200    0.04500    1.000
    O28      O        0.55540    0.65290    0.62130    1.000
