# CIF file generated by openbabel 3.1.0, see https://openbabel.org
data_I
_chemical_name_common 'KILJEV_clean'
_cell_length_a 7.4564
_cell_length_b 9.1845
_cell_length_c 11.582
_cell_angle_alpha 100.842
_cell_angle_beta 104.303
_cell_angle_gamma 94.774
_space_group_name_H-M_alt 'P 1'
_space_group_name_Hall 'P 1'
loop_
    _symmetry_equiv_pos_as_xyz
    x,y,z
loop_
    _atom_site_label
    _atom_site_type_symbol
    _atom_site_fract_x
    _atom_site_fract_y
    _atom_site_fract_z
    _atom_site_occupancy
    Cu1      Cu       0.16072    0.12101    0.01208    1.000
    Cu2      Cu       0.36183    0.91960    0.77591    1.000
    Cu3      Cu       0.83928    0.87899    0.98792    1.000
    Cu4      Cu       0.63817    0.08040    0.22409    1.000
    P1       P        0.35230    0.83722    0.02408    1.000
    P2       P        0.03370    0.08259    0.24017    1.000
    P3       P        0.64770    0.16278    0.97592    1.000
    P4       P        0.96630    0.91741    0.75983    1.000
    H1       H        0.15920    0.41500    0.17410    1.000
    H2       H        0.22580    0.66430    0.17890    1.000
    H3       H        0.31650    0.55670    0.84870    1.000
    H4       H        0.24930    0.30780    0.85050    1.000
    H5       H        0.19990    0.76600    0.52330    1.000
    H6       H        0.07450    0.81710    0.33620    1.000
    H7       H        0.28500    0.24800    0.47510    1.000
    H8       H        0.40750    0.18630    0.66030    1.000
    H9       H        0.84080    0.58500    0.82590    1.000
    H10      H        0.77420    0.33570    0.82110    1.000
    H11      H        0.68350    0.44330    0.15130    1.000
    H12      H        0.75070    0.69220    0.14950    1.000
    H13      H        0.80010    0.23400    0.47670    1.000
    H14      H        0.92550    0.18290    0.66380    1.000
    H15      H        0.71500    0.75200    0.52490    1.000
    H16      H        0.59250    0.81370    0.33970    1.000
    C1       C        0.19210    0.44370    0.10840    1.000
    C2       C        0.23250    0.59370    0.11160    1.000
    C3       C        0.28310    0.64080    0.01560    1.000
    C4       C        0.28650    0.53020    0.91590    1.000
    C5       C        0.24510    0.38050    0.91720    1.000
    C6       C        0.21460    0.86440    0.51400    1.000
    C7       C        0.13830    0.89470    0.40110    1.000
    C8       C        0.15630    0.04040    0.38390    1.000
    C9       C        0.26310    0.14980    0.48330    1.000
    C10      C        0.33690    0.11200    0.59490    1.000
    C11      C        0.80790    0.55630    0.89160    1.000
    C12      C        0.76750    0.40630    0.88840    1.000
    C13      C        0.71690    0.35920    0.98440    1.000
    C14      C        0.71350    0.46980    0.08410    1.000
    C15      C        0.75490    0.61950    0.08280    1.000
    C16      C        0.78540    0.13560    0.48600    1.000
    C17      C        0.86170    0.10530    0.59890    1.000
    C18      C        0.84370    0.95960    0.61610    1.000
    C19      C        0.73690    0.85020    0.51670    1.000
    C20      C        0.66310    0.88800    0.40510    1.000
    N1       N        0.19900    0.33730    0.01240    1.000
    N2       N        0.30930    0.97140    0.61110    1.000
    N3       N        0.80100    0.66270    0.98760    1.000
    N4       N        0.69070    0.02860    0.38890    1.000
    O1       O        0.18220    0.15330    0.18970    1.000
    O2       O        0.17420    0.90740    0.00560    1.000
    O3       O        0.92720    0.93180    0.16670    1.000
    O4       O        0.48380    0.89040    0.15150    1.000
    O5       O        0.45020    0.84500    0.92450    1.000
    O6       O        0.89920    0.19200    0.27050    1.000
    O7       O        0.81780    0.84670    0.81030    1.000
    O8       O        0.82580    0.09260    0.99440    1.000
    O9       O        0.07280    0.06820    0.83330    1.000
    O10      O        0.51620    0.10960    0.84850    1.000
    O11      O        0.54980    0.15500    0.07550    1.000
    O12      O        0.10080    0.80800    0.72950    1.000
