data_functionalizedCrystal
_audit_creation_method	'EQeq! by Chris Wilmer'
_symmetry_space_group_name_H-M	'P1'
_symmetry_Int_Tables_number	1
_symmetry_cell_setting	triclinic
loop_
_symmetry_equiv_pos_as_xyz
  x,y,z
_cell_length_a	8.8749
_cell_length_b	7.4104
_cell_length_c	15.2333
_cell_angle_alpha	90
_cell_angle_beta	102.172
_cell_angle_gamma	90
loop_
_atom_site_label
_atom_site_type_symbol
_atom_site_fract_x
_atom_site_fract_y
_atom_site_fract_z
_atom_site_charge
Mof_Co	Co	0.78969	0.52945	0.10589	1.199
Mof_P 	P 	0.87064	0.88556	0.23356	0.469
Mof_H 	H 	0.996	0.9454	0.2845	-0.016
Mof_O 	O 	0.8181	0.0285	0.15844	-0.407
Mof_H 	H 	0.7999	0.1242	0.1812	0.282
Mof_O 	O 	0.7534	0.8644	0.29171	-0.387
Mof_O 	O 	0.91137	0.7165	0.19059	-0.351
Mof_O 	O 	0.65498	0.3515	0.01205	-0.31
Mof_O 	O 	0.42537	0.3388	0.91894	-0.319
Mof_O 	O 	0.99412	0.3878	0.10056	-0.302
Mof_O 	O 	0.1516	0.3483	0.006	-0.307
Mof_C 	C 	0.523	0.4103	0.98032	0.224
Mof_C 	C 	0.0417	0.4245	0.0306	0.224
Mof_Co	Co	0.71031	0.02945	0.39411	1.2
Mof_P 	P 	0.62936	0.38556	0.26644	0.469
Mof_H 	H 	0.504	0.4454	0.2155	-0.016
Mof_O 	O 	0.6819	0.5285	0.34156	-0.408
Mof_H 	H 	0.7001	0.6242	0.3188	0.282
Mof_O 	O 	0.7466	0.3644	0.20829	-0.387
Mof_O 	O 	0.58863	0.2165	0.30941	-0.351
Mof_O 	O 	0.84502	0.8515	0.48795	-0.31
Mof_O 	O 	0.07463	0.8388	0.58106	-0.318
Mof_O 	O 	0.50588	0.8878	0.39944	-0.302
Mof_O 	O 	0.3484	0.8483	0.494	-0.307
Mof_C 	C 	0.977	0.9103	0.51968	0.224
Mof_C 	C 	0.4583	0.9245	0.4694	0.225
Mof_Co	Co	0.21031	0.47055	0.89411	1.199
Mof_P 	P 	0.12936	0.11444	0.76644	0.469
Mof_H 	H 	0.004	0.0546	0.7155	-0.016
Mof_O 	O 	0.1819	0.9715	0.84156	-0.407
Mof_H 	H 	0.2001	0.8758	0.8188	0.282
Mof_O 	O 	0.2466	0.1356	0.70829	-0.387
Mof_O 	O 	0.08863	0.2835	0.80941	-0.351
Mof_O 	O 	0.34502	0.6485	0.98795	-0.31
Mof_O 	O 	0.57463	0.6612	0.08106	-0.319
Mof_O 	O 	0.00588	0.6122	0.89944	-0.302
Mof_O 	O 	0.8484	0.6517	0.994	-0.307
Mof_C 	C 	0.477	0.5897	0.01968	0.224
Mof_C 	C 	0.9583	0.5755	0.9694	0.224
Mof_Co	Co	0.28969	0.97055	0.60589	1.2
Mof_P 	P 	0.37064	0.61444	0.73356	0.469
Mof_H 	H 	0.496	0.5546	0.7845	-0.016
Mof_O 	O 	0.3181	0.4715	0.65844	-0.408
Mof_H 	H 	0.2999	0.3758	0.6812	0.282
Mof_O 	O 	0.2534	0.6356	0.79171	-0.387
Mof_O 	O 	0.41137	0.7835	0.69059	-0.351
Mof_O 	O 	0.15498	0.1485	0.51205	-0.31
Mof_O 	O 	0.92537	0.1612	0.41894	-0.318
Mof_O 	O 	0.49412	0.1122	0.60056	-0.302
Mof_O 	O 	0.6516	0.1517	0.506	-0.307
Mof_C 	C 	0.023	0.0897	0.48032	0.224
Mof_C 	C 	0.5417	0.0755	0.5306	0.225
_end
