data_functionalizedCrystal
_audit_creation_method	'EQeq! by Chris Wilmer'
_symmetry_space_group_name_H-M	'P1'
_symmetry_Int_Tables_number	1
_symmetry_cell_setting	triclinic
loop_
_symmetry_equiv_pos_as_xyz
  x,y,z
_cell_length_a	26.405
_cell_length_b	26.405
_cell_length_c	36.631
_cell_angle_alpha	90
_cell_angle_beta	90
_cell_angle_gamma	90
loop_
_atom_site_label
_atom_site_type_symbol
_atom_site_fract_x
_atom_site_fract_y
_atom_site_fract_z
_atom_site_charge
Mof_Co	Co	0.70165	0.70165	0.23703	1.128
Mof_Co	Co	0.29835	0.29835	0.23703	1.128
Mof_Co	Co	0.79835	0.20165	0.73703	1.128
Mof_Co	Co	0.20165	0.79835	0.73703	1.128
Mof_Co	Co	0.79835	0.20165	0.26297	1.128
Mof_Co	Co	0.20165	0.79835	0.26297	1.128
Mof_Co	Co	0.70165	0.70165	0.76297	1.128
Mof_Co	Co	0.29835	0.29835	0.76297	1.128
Mof_Co	Co	-0	0.5	-0	1.118
Mof_Co	Co	-5.30641e-33	0.5	0.5	1.12
Mof_Co	Co	0.5	0	0.5	1.119
Mof_Co	Co	0.5	0	-0	1.117
Mof_H 	H 	0.7006	0.5852	0.747	-0.004
Mof_H 	H 	0.7283	0.5101	0.7711	0.08
Mof_H 	H 	0.7661	0.5819	0.8625	0.079
Mof_H 	H 	0.7392	0.657	0.8375	0.001
Mof_H 	H 	0.9728	0.4221	0.9404	-0.003
Mof_H 	H 	0.9178	0.4052	0.8932	0.085
Mof_H 	H 	0.9011	0.5446	0.968	-0.003
Mof_H 	H 	0.8454	0.5343	0.9189	0.079
Mof_H 	H 	0.8531	0.3262	0.8375	0.085
Mof_H 	H 	0.7746	0.3933	0.7586	0.082
Mof_H 	H 	0.7655	0.3108	0.7298	-0.008
Mof_H 	H 	0.8503	0.2527	0.8049	-0.006
Mof_H 	H 	0.2994	0.4148	0.747	-0.004
Mof_H 	H 	0.2717	0.4899	0.7711	0.08
Mof_H 	H 	0.2339	0.4181	0.8625	0.078
Mof_H 	H 	0.2608	0.343	0.8375	-0
Mof_H 	H 	0.0272	0.5779	0.9404	-0.012
Mof_H 	H 	0.0822	0.5948	0.8932	0.082
Mof_H 	H 	0.0989	0.4554	0.968	-0.004
Mof_H 	H 	0.1546	0.4657	0.9189	0.079
Mof_H 	H 	0.1469	0.6738	0.8375	0.083
Mof_H 	H 	0.2254	0.6067	0.7586	0.081
Mof_H 	H 	0.2345	0.6892	0.7298	-0.008
Mof_H 	H 	0.1497	0.7473	0.8049	-0.007
Mof_H 	H 	0.9148	0.2006	0.247	-0.006
Mof_H 	H 	0.9899	0.2283	0.2711	0.089
Mof_H 	H 	0.9181	0.2661	0.3625	0.084
Mof_H 	H 	0.843	0.2392	0.3375	-0.002
Mof_H 	H 	0.0779	0.4728	0.4404	-0.008
Mof_H 	H 	0.0948	0.4178	0.3932	0.08
Mof_H 	H 	0.9554	0.4011	0.468	-0.006
Mof_H 	H 	0.9657	0.3454	0.4189	0.075
Mof_H 	H 	0.1738	0.3531	0.3375	0.083
Mof_H 	H 	0.1067	0.2746	0.2586	0.078
Mof_H 	H 	0.1892	0.2655	0.2298	-0.009
Mof_H 	H 	0.2473	0.3503	0.3049	-0.007
Mof_H 	H 	0.0852	0.7994	0.247	-0.002
Mof_H 	H 	0.0101	0.7717	0.2711	0.071
Mof_H 	H 	0.0819	0.7339	0.3625	0.072
Mof_H 	H 	0.157	0.7608	0.3375	0.002
Mof_H 	H 	0.9221	0.5272	0.4404	-0.009
Mof_H 	H 	0.9052	0.5822	0.3932	0.086
Mof_H 	H 	0.0446	0.5989	0.468	-0.004
Mof_H 	H 	0.0343	0.6546	0.4189	0.082
Mof_H 	H 	0.8262	0.6469	0.3375	0.084
Mof_H 	H 	0.8933	0.7254	0.2586	0.084
Mof_H 	H 	0.8108	0.7345	0.2298	-0.007
Mof_H 	H 	0.7527	0.6497	0.3049	-0.007
Mof_H 	H 	0.7994	0.0852	0.753	-0.002
Mof_H 	H 	0.7717	0.0101	0.7289	0.071
Mof_H 	H 	0.7339	0.0819	0.6375	0.072
Mof_H 	H 	0.7608	0.157	0.6625	0.002
Mof_H 	H 	0.5272	0.9221	0.5596	-0.009
Mof_H 	H 	0.5822	0.9052	0.6068	0.086
Mof_H 	H 	0.5989	0.0446	0.532	-0.004
Mof_H 	H 	0.6546	0.0343	0.5811	0.082
Mof_H 	H 	0.6469	0.8262	0.6625	0.084
Mof_H 	H 	0.7254	0.8933	0.7414	0.084
Mof_H 	H 	0.7345	0.8108	0.7702	-0.007
Mof_H 	H 	0.6497	0.7527	0.6951	-0.007
Mof_H 	H 	0.2006	0.9148	0.753	-0.006
Mof_H 	H 	0.2283	0.9899	0.7289	0.089
Mof_H 	H 	0.2661	0.9181	0.6375	0.084
Mof_H 	H 	0.2392	0.843	0.6625	-0.002
Mof_H 	H 	0.4728	0.0779	0.5596	-0.008
Mof_H 	H 	0.4178	0.0948	0.6068	0.08
Mof_H 	H 	0.4011	0.9554	0.532	-0.006
Mof_H 	H 	0.3454	0.9657	0.5811	0.075
Mof_H 	H 	0.3531	0.1738	0.6625	0.083
Mof_H 	H 	0.2746	0.1067	0.7414	0.079
Mof_H 	H 	0.2655	0.1892	0.7702	-0.009
Mof_H 	H 	0.3503	0.2473	0.6951	-0.007
Mof_H 	H 	0.5852	0.7006	0.253	-0.004
Mof_H 	H 	0.5101	0.7283	0.2289	0.08
Mof_H 	H 	0.5819	0.7661	0.1375	0.078
Mof_H 	H 	0.657	0.7392	0.1625	0
Mof_H 	H 	0.4221	0.9728	0.0596	-0.004
Mof_H 	H 	0.4052	0.9178	0.1068	0.084
Mof_H 	H 	0.5446	0.9011	0.032	-0.005
Mof_H 	H 	0.5343	0.8454	0.0811	0.079
Mof_H 	H 	0.3262	0.8531	0.1625	0.084
Mof_H 	H 	0.3933	0.7746	0.2414	0.082
Mof_H 	H 	0.3108	0.7655	0.2702	-0.008
Mof_H 	H 	0.2527	0.8503	0.1951	-0.006
Mof_H 	H 	0.4148	0.2994	0.253	-0.004
Mof_H 	H 	0.4899	0.2717	0.2289	0.08
Mof_H 	H 	0.4181	0.2339	0.1375	0.077
Mof_H 	H 	0.343	0.2608	0.1625	-0
Mof_H 	H 	0.5779	0.0272	0.0596	-0.013
Mof_H 	H 	0.5948	0.0822	0.1068	0.082
Mof_H 	H 	0.4554	0.0989	0.032	-0.006
Mof_H 	H 	0.4657	0.1546	0.0811	0.078
Mof_H 	H 	0.6738	0.1469	0.1625	0.082
Mof_H 	H 	0.6067	0.2254	0.2414	0.081
Mof_H 	H 	0.6892	0.2345	0.2702	-0.008
Mof_H 	H 	0.7473	0.1497	0.1951	-0.007
Mof_H 	H 	0.2994	0.4148	0.253	-0.004
Mof_H 	H 	0.2717	0.4899	0.2289	0.08
Mof_H 	H 	0.2339	0.4181	0.1375	0.077
Mof_H 	H 	0.2608	0.343	0.1625	-0
Mof_H 	H 	0.0272	0.5779	0.0596	-0.013
Mof_H 	H 	0.0822	0.5948	0.1068	0.082
Mof_H 	H 	0.0989	0.4554	0.032	-0.006
Mof_H 	H 	0.1546	0.4657	0.0811	0.078
Mof_H 	H 	0.1469	0.6738	0.1625	0.082
Mof_H 	H 	0.2254	0.6067	0.2414	0.081
Mof_H 	H 	0.2345	0.6892	0.2702	-0.008
Mof_H 	H 	0.1497	0.7473	0.1951	-0.007
Mof_H 	H 	0.7006	0.5852	0.253	-0.004
Mof_H 	H 	0.7283	0.5101	0.2289	0.08
Mof_H 	H 	0.7661	0.5819	0.1375	0.078
Mof_H 	H 	0.7392	0.657	0.1625	0
Mof_H 	H 	0.9728	0.4221	0.0596	-0.004
Mof_H 	H 	0.9178	0.4052	0.1068	0.084
Mof_H 	H 	0.9011	0.5446	0.032	-0.005
Mof_H 	H 	0.8454	0.5343	0.0811	0.079
Mof_H 	H 	0.8531	0.3262	0.1625	0.084
Mof_H 	H 	0.7746	0.3933	0.2414	0.082
Mof_H 	H 	0.7655	0.3108	0.2702	-0.008
Mof_H 	H 	0.8503	0.2527	0.1951	-0.006
Mof_H 	H 	0.0852	0.7994	0.753	-0.002
Mof_H 	H 	0.0101	0.7717	0.7289	0.071
Mof_H 	H 	0.0819	0.7339	0.6375	0.072
Mof_H 	H 	0.157	0.7608	0.6625	0.002
Mof_H 	H 	0.9221	0.5272	0.5596	-0.009
Mof_H 	H 	0.9052	0.5822	0.6068	0.086
Mof_H 	H 	0.0446	0.5989	0.532	-0.004
Mof_H 	H 	0.0343	0.6546	0.5811	0.082
Mof_H 	H 	0.8262	0.6469	0.6625	0.084
Mof_H 	H 	0.8933	0.7254	0.7414	0.084
Mof_H 	H 	0.8108	0.7345	0.7702	-0.007
Mof_H 	H 	0.7527	0.6497	0.6951	-0.007
Mof_H 	H 	0.9148	0.2006	0.753	-0.006
Mof_H 	H 	0.9899	0.2283	0.7289	0.089
Mof_H 	H 	0.9181	0.2661	0.6375	0.084
Mof_H 	H 	0.843	0.2392	0.6625	-0.002
Mof_H 	H 	0.0779	0.4728	0.5596	-0.008
Mof_H 	H 	0.0948	0.4178	0.6068	0.08
Mof_H 	H 	0.9554	0.4011	0.532	-0.006
Mof_H 	H 	0.9657	0.3454	0.5811	0.075
Mof_H 	H 	0.1738	0.3531	0.6625	0.083
Mof_H 	H 	0.1067	0.2746	0.7414	0.079
Mof_H 	H 	0.1892	0.2655	0.7702	-0.009
Mof_H 	H 	0.2473	0.3503	0.6951	-0.007
Mof_H 	H 	0.2006	0.9148	0.247	-0.006
Mof_H 	H 	0.2283	0.9899	0.2711	0.089
Mof_H 	H 	0.2661	0.9181	0.3625	0.084
Mof_H 	H 	0.2392	0.843	0.3375	-0.002
Mof_H 	H 	0.4728	0.0779	0.4404	-0.008
Mof_H 	H 	0.4178	0.0948	0.3932	0.08
Mof_H 	H 	0.4011	0.9554	0.468	-0.006
Mof_H 	H 	0.3454	0.9657	0.4189	0.075
Mof_H 	H 	0.3531	0.1738	0.3375	0.083
Mof_H 	H 	0.2746	0.1067	0.2586	0.078
Mof_H 	H 	0.2655	0.1892	0.2298	-0.009
Mof_H 	H 	0.3503	0.2473	0.3049	-0.007
Mof_H 	H 	0.7994	0.0852	0.247	-0.002
Mof_H 	H 	0.7717	0.0101	0.2711	0.071
Mof_H 	H 	0.7339	0.0819	0.3625	0.072
Mof_H 	H 	0.7608	0.157	0.3375	0.002
Mof_H 	H 	0.5272	0.9221	0.4404	-0.009
Mof_H 	H 	0.5822	0.9052	0.3932	0.086
Mof_H 	H 	0.5989	0.0446	0.468	-0.004
Mof_H 	H 	0.6546	0.0343	0.4189	0.082
Mof_H 	H 	0.6469	0.8262	0.3375	0.084
Mof_H 	H 	0.7254	0.8933	0.2586	0.084
Mof_H 	H 	0.7345	0.8108	0.2298	-0.007
Mof_H 	H 	0.6497	0.7527	0.3049	-0.007
Mof_H 	H 	0.4148	0.2994	0.747	-0.004
Mof_H 	H 	0.4899	0.2717	0.7711	0.08
Mof_H 	H 	0.4181	0.2339	0.8625	0.078
Mof_H 	H 	0.343	0.2608	0.8375	-0
Mof_H 	H 	0.5779	0.0272	0.9404	-0.012
Mof_H 	H 	0.5948	0.0822	0.8932	0.082
Mof_H 	H 	0.4554	0.0989	0.968	-0.004
Mof_H 	H 	0.4657	0.1546	0.9189	0.079
Mof_H 	H 	0.6738	0.1469	0.8375	0.083
Mof_H 	H 	0.6067	0.2254	0.7586	0.081
Mof_H 	H 	0.6892	0.2345	0.7298	-0.008
Mof_H 	H 	0.7473	0.1497	0.8049	-0.007
Mof_H 	H 	0.5852	0.7006	0.747	-0.004
Mof_H 	H 	0.5101	0.7283	0.7711	0.08
Mof_H 	H 	0.5819	0.7661	0.8625	0.079
Mof_H 	H 	0.657	0.7392	0.8375	0.001
Mof_H 	H 	0.4221	0.9728	0.9404	-0.003
Mof_H 	H 	0.4052	0.9178	0.8932	0.085
Mof_H 	H 	0.5446	0.9011	0.968	-0.003
Mof_H 	H 	0.5343	0.8454	0.9189	0.079
Mof_H 	H 	0.3262	0.8531	0.8375	0.085
Mof_H 	H 	0.3933	0.7746	0.7586	0.082
Mof_H 	H 	0.3108	0.7655	0.7298	-0.008
Mof_H 	H 	0.2527	0.8503	0.8049	-0.006
Mof_C 	C 	0.7566	0.54015	0.81699	0.061
Mof_C 	C 	0.7865	0.49494	0.83017	0.1
Mof_C 	C 	0.87688	0.46904	0.90014	0.059
Mof_C 	C 	0.8119	0.41546	0.82243	0.101
Mof_C 	C 	0.84225	0.4628	0.86886	0.104
Mof_C 	C 	0.71478	0.5854	0.77083	0.07
Mof_C 	C 	0.73267	0.54067	0.78445	-0.126
Mof_C 	C 	0.75485	0.58284	0.83782	-0.12
Mof_C 	C 	0.737	0.62698	0.82326	0.061
Mof_C 	C 	0.9466	0.44595	0.93573	0.085
Mof_C 	C 	0.91415	0.43519	0.90726	-0.13
Mof_C 	C 	0.90599	0.51701	0.95171	0.07
Mof_C 	C 	0.8718	0.51046	0.9228	-0.12
Mof_C 	C 	0.80961	0.36667	0.8024	0.066
Mof_C 	C 	0.8345	0.32467	0.81535	-0.133
Mof_C 	C 	0.7878	0.3638	0.77	-0.126
Mof_C 	C 	0.7842	0.31365	0.75182	0.08
Mof_C 	C 	0.8319	0.28095	0.7959	0.08
Mof_C 	C 	0.2434	0.45985	0.81699	0.06
Mof_C 	C 	0.2135	0.50506	0.83017	0.099
Mof_C 	C 	0.12312	0.53096	0.90014	0.058
Mof_C 	C 	0.1881	0.58454	0.82243	0.1
Mof_C 	C 	0.15775	0.5372	0.86886	0.103
Mof_C 	C 	0.28522	0.4146	0.77083	0.07
Mof_C 	C 	0.26733	0.45933	0.78445	-0.127
Mof_C 	C 	0.24515	0.41716	0.83782	-0.121
Mof_C 	C 	0.263	0.37302	0.82326	0.061
Mof_C 	C 	0.0534	0.55405	0.93573	0.083
Mof_C 	C 	0.08585	0.56481	0.90726	-0.133
Mof_C 	C 	0.09401	0.48299	0.95171	0.068
Mof_C 	C 	0.1282	0.48954	0.9228	-0.121
Mof_C 	C 	0.19039	0.63333	0.8024	0.065
Mof_C 	C 	0.1655	0.67533	0.81535	-0.133
Mof_C 	C 	0.2122	0.6362	0.77	-0.126
Mof_C 	C 	0.2158	0.68635	0.75182	0.079
Mof_C 	C 	0.1681	0.71905	0.7959	0.08
Mof_C 	C 	0.95985	0.2566	0.31699	0.086
Mof_C 	C 	0.00506	0.2865	0.33017	0.071
Mof_C 	C 	0.03096	0.37688	0.40014	0.042
Mof_C 	C 	0.08454	0.3119	0.32243	0.097
Mof_C 	C 	0.0372	0.34225	0.36886	0.094
Mof_C 	C 	0.9146	0.21478	0.27083	0.078
Mof_C 	C 	0.95933	0.23267	0.28445	-0.141
Mof_C 	C 	0.91716	0.25485	0.33782	-0.135
Mof_C 	C 	0.87302	0.237	0.32326	0.069
Mof_C 	C 	0.05405	0.4466	0.43573	0.077
Mof_C 	C 	0.06481	0.41415	0.40726	-0.126
Mof_C 	C 	0.98299	0.40599	0.45171	0.077
Mof_C 	C 	0.98954	0.3718	0.4228	-0.103
Mof_C 	C 	0.13333	0.30961	0.3024	0.064
Mof_C 	C 	0.17533	0.3345	0.31535	-0.133
Mof_C 	C 	0.1362	0.2878	0.27	-0.126
Mof_C 	C 	0.18635	0.2842	0.25182	0.078
Mof_C 	C 	0.21905	0.3319	0.2959	0.079
Mof_C 	C 	0.04015	0.7434	0.31699	0.035
Mof_C 	C 	0.99494	0.7135	0.33017	0.128
Mof_C 	C 	0.96904	0.62312	0.40014	0.075
Mof_C 	C 	0.91546	0.6881	0.32243	0.103
Mof_C 	C 	0.9628	0.65775	0.36886	0.113
Mof_C 	C 	0.0854	0.78522	0.27083	0.062
Mof_C 	C 	0.04067	0.76733	0.28445	-0.112
Mof_C 	C 	0.08284	0.74515	0.33782	-0.106
Mof_C 	C 	0.12698	0.763	0.32326	0.053
Mof_C 	C 	0.94595	0.5534	0.43573	0.09
Mof_C 	C 	0.93519	0.58585	0.40726	-0.138
Mof_C 	C 	0.01701	0.59401	0.45171	0.06
Mof_C 	C 	0.01046	0.6282	0.4228	-0.139
Mof_C 	C 	0.86667	0.69039	0.3024	0.067
Mof_C 	C 	0.82467	0.6655	0.31535	-0.133
Mof_C 	C 	0.8638	0.7122	0.27	-0.126
Mof_C 	C 	0.81365	0.7158	0.25182	0.081
Mof_C 	C 	0.78095	0.6681	0.2959	0.081
Mof_C 	C 	0.7434	0.04015	0.68301	0.035
Mof_C 	C 	0.7135	0.99494	0.66983	0.128
Mof_C 	C 	0.62312	0.96904	0.59986	0.075
Mof_C 	C 	0.6881	0.91546	0.67757	0.103
Mof_C 	C 	0.65775	0.9628	0.63114	0.112
Mof_C 	C 	0.78522	0.0854	0.72917	0.062
Mof_C 	C 	0.76733	0.04067	0.71555	-0.112
Mof_C 	C 	0.74515	0.08284	0.66218	-0.106
Mof_C 	C 	0.763	0.12698	0.67674	0.053
Mof_C 	C 	0.5534	0.94595	0.56427	0.09
Mof_C 	C 	0.58585	0.93519	0.59274	-0.138
Mof_C 	C 	0.59401	0.01701	0.54829	0.06
Mof_C 	C 	0.6282	0.01046	0.5772	-0.139
Mof_C 	C 	0.69039	0.86667	0.6976	0.067
Mof_C 	C 	0.6655	0.82467	0.68465	-0.133
Mof_C 	C 	0.7122	0.8638	0.73	-0.126
Mof_C 	C 	0.7158	0.81365	0.74818	0.081
Mof_C 	C 	0.6681	0.78095	0.7041	0.081
Mof_C 	C 	0.2566	0.95985	0.68301	0.086
Mof_C 	C 	0.2865	0.00506	0.66983	0.071
Mof_C 	C 	0.37688	0.03096	0.59986	0.042
Mof_C 	C 	0.3119	0.08454	0.67757	0.097
Mof_C 	C 	0.34225	0.0372	0.63114	0.094
Mof_C 	C 	0.21478	0.9146	0.72917	0.078
Mof_C 	C 	0.23267	0.95933	0.71555	-0.141
Mof_C 	C 	0.25485	0.91716	0.66218	-0.135
Mof_C 	C 	0.237	0.87302	0.67674	0.069
Mof_C 	C 	0.4466	0.05405	0.56427	0.077
Mof_C 	C 	0.41415	0.06481	0.59274	-0.126
Mof_C 	C 	0.40599	0.98299	0.54829	0.077
Mof_C 	C 	0.3718	0.98954	0.5772	-0.103
Mof_C 	C 	0.30961	0.13333	0.6976	0.064
Mof_C 	C 	0.3345	0.17533	0.68465	-0.133
Mof_C 	C 	0.2878	0.1362	0.73	-0.126
Mof_C 	C 	0.2842	0.18635	0.74818	0.078
Mof_C 	C 	0.3319	0.21905	0.7041	0.079
Mof_C 	C 	0.54015	0.7566	0.18301	0.06
Mof_C 	C 	0.49494	0.7865	0.16983	0.1
Mof_C 	C 	0.46904	0.87688	0.09986	0.059
Mof_C 	C 	0.41546	0.8119	0.17757	0.1
Mof_C 	C 	0.4628	0.84225	0.13114	0.104
Mof_C 	C 	0.5854	0.71478	0.22917	0.07
Mof_C 	C 	0.54067	0.73267	0.21555	-0.126
Mof_C 	C 	0.58284	0.75485	0.16218	-0.12
Mof_C 	C 	0.62698	0.737	0.17674	0.061
Mof_C 	C 	0.44595	0.9466	0.06427	0.084
Mof_C 	C 	0.43519	0.91415	0.09274	-0.131
Mof_C 	C 	0.51701	0.90599	0.04829	0.07
Mof_C 	C 	0.51046	0.8718	0.0772	-0.12
Mof_C 	C 	0.36667	0.80961	0.1976	0.066
Mof_C 	C 	0.32467	0.8345	0.18465	-0.133
Mof_C 	C 	0.3638	0.7878	0.23	-0.126
Mof_C 	C 	0.31365	0.7842	0.24818	0.08
Mof_C 	C 	0.28095	0.8319	0.2041	0.08
Mof_C 	C 	0.45985	0.2434	0.18301	0.06
Mof_C 	C 	0.50506	0.2135	0.16983	0.099
Mof_C 	C 	0.53096	0.12312	0.09986	0.058
Mof_C 	C 	0.58454	0.1881	0.17757	0.099
Mof_C 	C 	0.5372	0.15775	0.13114	0.102
Mof_C 	C 	0.4146	0.28522	0.22917	0.07
Mof_C 	C 	0.45933	0.26733	0.21555	-0.127
Mof_C 	C 	0.41716	0.24515	0.16218	-0.121
Mof_C 	C 	0.37302	0.263	0.17674	0.06
Mof_C 	C 	0.55405	0.0534	0.06427	0.083
Mof_C 	C 	0.56481	0.08585	0.09274	-0.133
Mof_C 	C 	0.48299	0.09401	0.04829	0.067
Mof_C 	C 	0.48954	0.1282	0.0772	-0.122
Mof_C 	C 	0.63333	0.19039	0.1976	0.065
Mof_C 	C 	0.67533	0.1655	0.18465	-0.133
Mof_C 	C 	0.6362	0.2122	0.23	-0.126
Mof_C 	C 	0.68635	0.2158	0.24818	0.079
Mof_C 	C 	0.71905	0.1681	0.2041	0.079
Mof_C 	C 	0.2434	0.45985	0.18301	0.06
Mof_C 	C 	0.2135	0.50506	0.16983	0.099
Mof_C 	C 	0.12312	0.53096	0.09986	0.058
Mof_C 	C 	0.1881	0.58454	0.17757	0.099
Mof_C 	C 	0.15775	0.5372	0.13114	0.102
Mof_C 	C 	0.28522	0.4146	0.22917	0.07
Mof_C 	C 	0.26733	0.45933	0.21555	-0.127
Mof_C 	C 	0.24515	0.41716	0.16218	-0.121
Mof_C 	C 	0.263	0.37302	0.17674	0.06
Mof_C 	C 	0.0534	0.55405	0.06427	0.083
Mof_C 	C 	0.08585	0.56481	0.09274	-0.133
Mof_C 	C 	0.09401	0.48299	0.04829	0.067
Mof_C 	C 	0.1282	0.48954	0.0772	-0.122
Mof_C 	C 	0.19039	0.63333	0.1976	0.065
Mof_C 	C 	0.1655	0.67533	0.18465	-0.133
Mof_C 	C 	0.2122	0.6362	0.23	-0.126
Mof_C 	C 	0.2158	0.68635	0.24818	0.079
Mof_C 	C 	0.1681	0.71905	0.2041	0.079
Mof_C 	C 	0.7566	0.54015	0.18301	0.06
Mof_C 	C 	0.7865	0.49494	0.16983	0.1
Mof_C 	C 	0.87688	0.46904	0.09986	0.059
Mof_C 	C 	0.8119	0.41546	0.17757	0.1
Mof_C 	C 	0.84225	0.4628	0.13114	0.104
Mof_C 	C 	0.71478	0.5854	0.22917	0.07
Mof_C 	C 	0.73267	0.54067	0.21555	-0.126
Mof_C 	C 	0.75485	0.58284	0.16218	-0.12
Mof_C 	C 	0.737	0.62698	0.17674	0.061
Mof_C 	C 	0.9466	0.44595	0.06427	0.084
Mof_C 	C 	0.91415	0.43519	0.09274	-0.131
Mof_C 	C 	0.90599	0.51701	0.04829	0.07
Mof_C 	C 	0.8718	0.51046	0.0772	-0.12
Mof_C 	C 	0.80961	0.36667	0.1976	0.066
Mof_C 	C 	0.8345	0.32467	0.18465	-0.133
Mof_C 	C 	0.7878	0.3638	0.23	-0.126
Mof_C 	C 	0.7842	0.31365	0.24818	0.08
Mof_C 	C 	0.8319	0.28095	0.2041	0.08
Mof_C 	C 	0.04015	0.7434	0.68301	0.035
Mof_C 	C 	0.99494	0.7135	0.66983	0.128
Mof_C 	C 	0.96904	0.62312	0.59986	0.075
Mof_C 	C 	0.91546	0.6881	0.67757	0.103
Mof_C 	C 	0.9628	0.65775	0.63114	0.112
Mof_C 	C 	0.0854	0.78522	0.72917	0.062
Mof_C 	C 	0.04067	0.76733	0.71555	-0.112
Mof_C 	C 	0.08284	0.74515	0.66218	-0.106
Mof_C 	C 	0.12698	0.763	0.67674	0.053
Mof_C 	C 	0.94595	0.5534	0.56427	0.09
Mof_C 	C 	0.93519	0.58585	0.59274	-0.138
Mof_C 	C 	0.01701	0.59401	0.54829	0.06
Mof_C 	C 	0.01046	0.6282	0.5772	-0.139
Mof_C 	C 	0.86667	0.69039	0.6976	0.067
Mof_C 	C 	0.82467	0.6655	0.68465	-0.133
Mof_C 	C 	0.8638	0.7122	0.73	-0.126
Mof_C 	C 	0.81365	0.7158	0.74818	0.081
Mof_C 	C 	0.78095	0.6681	0.7041	0.081
Mof_C 	C 	0.95985	0.2566	0.68301	0.086
Mof_C 	C 	0.00506	0.2865	0.66983	0.071
Mof_C 	C 	0.03096	0.37688	0.59986	0.042
Mof_C 	C 	0.08454	0.3119	0.67757	0.097
Mof_C 	C 	0.0372	0.34225	0.63114	0.094
Mof_C 	C 	0.9146	0.21478	0.72917	0.078
Mof_C 	C 	0.95933	0.23267	0.71555	-0.141
Mof_C 	C 	0.91716	0.25485	0.66218	-0.135
Mof_C 	C 	0.87302	0.237	0.67674	0.069
Mof_C 	C 	0.05405	0.4466	0.56427	0.077
Mof_C 	C 	0.06481	0.41415	0.59274	-0.126
Mof_C 	C 	0.98299	0.40599	0.54829	0.077
Mof_C 	C 	0.98954	0.3718	0.5772	-0.103
Mof_C 	C 	0.13333	0.30961	0.6976	0.064
Mof_C 	C 	0.17533	0.3345	0.68465	-0.133
Mof_C 	C 	0.1362	0.2878	0.73	-0.126
Mof_C 	C 	0.18635	0.2842	0.74818	0.078
Mof_C 	C 	0.21905	0.3319	0.7041	0.079
Mof_C 	C 	0.2566	0.95985	0.31699	0.086
Mof_C 	C 	0.2865	0.00506	0.33017	0.071
Mof_C 	C 	0.37688	0.03096	0.40014	0.042
Mof_C 	C 	0.3119	0.08454	0.32243	0.097
Mof_C 	C 	0.34225	0.0372	0.36886	0.094
Mof_C 	C 	0.21478	0.9146	0.27083	0.078
Mof_C 	C 	0.23267	0.95933	0.28445	-0.141
Mof_C 	C 	0.25485	0.91716	0.33782	-0.135
Mof_C 	C 	0.237	0.87302	0.32326	0.069
Mof_C 	C 	0.4466	0.05405	0.43573	0.077
Mof_C 	C 	0.41415	0.06481	0.40726	-0.126
Mof_C 	C 	0.40599	0.98299	0.45171	0.077
Mof_C 	C 	0.3718	0.98954	0.4228	-0.103
Mof_C 	C 	0.30961	0.13333	0.3024	0.064
Mof_C 	C 	0.3345	0.17533	0.31535	-0.133
Mof_C 	C 	0.2878	0.1362	0.27	-0.126
Mof_C 	C 	0.2842	0.18635	0.25182	0.078
Mof_C 	C 	0.3319	0.21905	0.2959	0.079
Mof_C 	C 	0.7434	0.04015	0.31699	0.035
Mof_C 	C 	0.7135	0.99494	0.33017	0.128
Mof_C 	C 	0.62312	0.96904	0.40014	0.075
Mof_C 	C 	0.6881	0.91546	0.32243	0.103
Mof_C 	C 	0.65775	0.9628	0.36886	0.113
Mof_C 	C 	0.78522	0.0854	0.27083	0.062
Mof_C 	C 	0.76733	0.04067	0.28445	-0.112
Mof_C 	C 	0.74515	0.08284	0.33782	-0.106
Mof_C 	C 	0.763	0.12698	0.32326	0.053
Mof_C 	C 	0.5534	0.94595	0.43573	0.09
Mof_C 	C 	0.58585	0.93519	0.40726	-0.138
Mof_C 	C 	0.59401	0.01701	0.45171	0.06
Mof_C 	C 	0.6282	0.01046	0.4228	-0.139
Mof_C 	C 	0.69039	0.86667	0.3024	0.067
Mof_C 	C 	0.6655	0.82467	0.31535	-0.133
Mof_C 	C 	0.7122	0.8638	0.27	-0.126
Mof_C 	C 	0.7158	0.81365	0.25182	0.081
Mof_C 	C 	0.6681	0.78095	0.2959	0.081
Mof_C 	C 	0.45985	0.2434	0.81699	0.06
Mof_C 	C 	0.50506	0.2135	0.83017	0.099
Mof_C 	C 	0.53096	0.12312	0.90014	0.058
Mof_C 	C 	0.58454	0.1881	0.82243	0.1
Mof_C 	C 	0.5372	0.15775	0.86886	0.103
Mof_C 	C 	0.4146	0.28522	0.77083	0.07
Mof_C 	C 	0.45933	0.26733	0.78445	-0.127
Mof_C 	C 	0.41716	0.24515	0.83782	-0.121
Mof_C 	C 	0.37302	0.263	0.82326	0.061
Mof_C 	C 	0.55405	0.0534	0.93573	0.083
Mof_C 	C 	0.56481	0.08585	0.90726	-0.133
Mof_C 	C 	0.48299	0.09401	0.95171	0.068
Mof_C 	C 	0.48954	0.1282	0.9228	-0.121
Mof_C 	C 	0.63333	0.19039	0.8024	0.065
Mof_C 	C 	0.67533	0.1655	0.81535	-0.133
Mof_C 	C 	0.6362	0.2122	0.77	-0.126
Mof_C 	C 	0.68635	0.2158	0.75182	0.079
Mof_C 	C 	0.71905	0.1681	0.7959	0.08
Mof_C 	C 	0.54015	0.7566	0.81699	0.061
Mof_C 	C 	0.49494	0.7865	0.83017	0.1
Mof_C 	C 	0.46904	0.87688	0.90014	0.059
Mof_C 	C 	0.41546	0.8119	0.82243	0.101
Mof_C 	C 	0.4628	0.84225	0.86886	0.104
Mof_C 	C 	0.5854	0.71478	0.77083	0.07
Mof_C 	C 	0.54067	0.73267	0.78445	-0.126
Mof_C 	C 	0.58284	0.75485	0.83782	-0.12
Mof_C 	C 	0.62698	0.737	0.82326	0.061
Mof_C 	C 	0.44595	0.9466	0.93573	0.085
Mof_C 	C 	0.43519	0.91415	0.90726	-0.13
Mof_C 	C 	0.51701	0.90599	0.95171	0.07
Mof_C 	C 	0.51046	0.8718	0.9228	-0.12
Mof_C 	C 	0.36667	0.80961	0.8024	0.066
Mof_C 	C 	0.32467	0.8345	0.81535	-0.133
Mof_C 	C 	0.3638	0.7878	0.77	-0.126
Mof_C 	C 	0.31365	0.7842	0.75182	0.08
Mof_C 	C 	0.28095	0.8319	0.7959	0.08
Mof_C 	C 	0.7603	0.7603	0.1731	0.099
Mof_C 	C 	0.6486	0.6486	0.3038	0.118
Mof_C 	C 	0.2397	0.2397	0.1731	0.099
Mof_C 	C 	0.3514	0.3514	0.3038	0.117
Mof_C 	C 	0.7397	0.2603	0.6731	0.099
Mof_C 	C 	0.8514	0.1486	0.8038	0.117
Mof_C 	C 	0.2603	0.7397	0.6731	0.099
Mof_C 	C 	0.1486	0.8514	0.8038	0.117
Mof_C 	C 	0.7397	0.2603	0.3269	0.099
Mof_C 	C 	0.8514	0.1486	0.1962	0.118
Mof_C 	C 	0.2603	0.7397	0.3269	0.099
Mof_C 	C 	0.1486	0.8514	0.1962	0.118
Mof_C 	C 	0.7603	0.7603	0.8269	0.099
Mof_C 	C 	0.6486	0.6486	0.6962	0.118
Mof_C 	C 	0.2397	0.2397	0.8269	0.099
Mof_C 	C 	0.3514	0.3514	0.6962	0.117
Mof_C 	C 	0.9774	0.6201	-0	0.096
Mof_C 	C 	0.0226	0.3799	-0	0.09
Mof_C 	C 	0.8799	0.4774	0.5	0.094
Mof_C 	C 	0.1201	0.5226	0.5	0.094
Mof_C 	C 	0.5226	0.1201	0.5	0.094
Mof_C 	C 	0.4774	0.8799	0.5	0.094
Mof_C 	C 	0.6201	0.9774	-0	0.096
Mof_C 	C 	0.3799	0.0226	-0	0.09
Mof_S 	S 	0.79229	0.79229	0.14329	-0.048
Mof_S 	S 	0.6223	0.6223	0.33768	-0.062
Mof_S 	S 	0.20771	0.20771	0.14329	-0.061
Mof_S 	S 	0.3777	0.3777	0.33768	-0.063
Mof_S 	S 	0.70771	0.29229	0.64329	-0.054
Mof_S 	S 	0.8777	0.1223	0.83768	-0.061
Mof_S 	S 	0.29229	0.70771	0.64329	-0.054
Mof_S 	S 	0.1223	0.8777	0.83768	-0.061
Mof_S 	S 	0.70771	0.29229	0.35671	-0.054
Mof_S 	S 	0.8777	0.1223	0.16232	-0.063
Mof_S 	S 	0.29229	0.70771	0.35671	-0.054
Mof_S 	S 	0.1223	0.8777	0.16232	-0.063
Mof_S 	S 	0.79229	0.79229	0.85671	-0.046
Mof_S 	S 	0.6223	0.6223	0.66232	-0.062
Mof_S 	S 	0.20771	0.20771	0.85671	-0.059
Mof_S 	S 	0.3777	0.3777	0.66232	-0.063
Mof_S 	S 	0.9724	0.68007	-0	-0.044
Mof_S 	S 	0.0276	0.31993	-0	-0.065
Mof_S 	S 	0.81993	0.4724	0.5	-0.051
Mof_S 	S 	0.18007	0.5276	0.5	-0.053
Mof_S 	S 	0.5276	0.18007	0.5	-0.053
Mof_S 	S 	0.4724	0.81993	0.5	-0.051
Mof_S 	S 	0.68007	0.9724	-0	-0.044
Mof_S 	S 	0.31993	0.0276	-0	-0.065
Mof_N 	N 	0.84337	0.41809	0.85127	-0.139
Mof_N 	N 	0.71583	0.63007	0.78902	-0.236
Mof_N 	N 	0.81328	0.50076	0.86033	-0.143
Mof_N 	N 	0.94503	0.48599	0.95711	-0.236
Mof_N 	N 	0.78374	0.45221	0.80992	-0.141
Mof_N 	N 	0.8054	0.27451	0.76488	-0.239
Mof_N 	N 	0.15663	0.58191	0.85127	-0.14
Mof_N 	N 	0.28417	0.36993	0.78902	-0.236
Mof_N 	N 	0.18672	0.49924	0.86033	-0.143
Mof_N 	N 	0.05497	0.51401	0.95711	-0.241
Mof_N 	N 	0.21626	0.54779	0.80992	-0.141
Mof_N 	N 	0.1946	0.72549	0.76488	-0.239
Mof_N 	N 	0.08191	0.34337	0.35127	-0.138
Mof_N 	N 	0.86993	0.21583	0.28902	-0.239
Mof_N 	N 	0.99924	0.31328	0.36033	-0.126
Mof_N 	N 	0.01401	0.44503	0.45711	-0.247
Mof_N 	N 	0.04779	0.28374	0.30992	-0.139
Mof_N 	N 	0.22549	0.3054	0.26488	-0.239
Mof_N 	N 	0.91809	0.65663	0.35127	-0.141
Mof_N 	N 	0.13007	0.78417	0.28902	-0.233
Mof_N 	N 	0.00076	0.68672	0.36033	-0.16
Mof_N 	N 	0.98599	0.55497	0.45711	-0.231
Mof_N 	N 	0.95221	0.71626	0.30992	-0.142
Mof_N 	N 	0.77451	0.6946	0.26488	-0.239
Mof_N 	N 	0.65663	0.91809	0.64873	-0.141
Mof_N 	N 	0.78417	0.13007	0.71098	-0.233
Mof_N 	N 	0.68672	0.00076	0.63967	-0.16
Mof_N 	N 	0.55497	0.98599	0.54289	-0.231
Mof_N 	N 	0.71626	0.95221	0.69008	-0.142
Mof_N 	N 	0.6946	0.77451	0.73512	-0.239
Mof_N 	N 	0.34337	0.08191	0.64873	-0.138
Mof_N 	N 	0.21583	0.86993	0.71098	-0.239
Mof_N 	N 	0.31328	0.99924	0.63967	-0.126
Mof_N 	N 	0.44503	0.01401	0.54289	-0.247
Mof_N 	N 	0.28374	0.04779	0.69008	-0.139
Mof_N 	N 	0.3054	0.22549	0.73512	-0.239
Mof_N 	N 	0.41809	0.84337	0.14873	-0.139
Mof_N 	N 	0.63007	0.71583	0.21098	-0.236
Mof_N 	N 	0.50076	0.81328	0.13967	-0.143
Mof_N 	N 	0.48599	0.94503	0.04289	-0.237
Mof_N 	N 	0.45221	0.78374	0.19008	-0.141
Mof_N 	N 	0.27451	0.8054	0.23512	-0.239
Mof_N 	N 	0.58191	0.15663	0.14873	-0.14
Mof_N 	N 	0.36993	0.28417	0.21098	-0.236
Mof_N 	N 	0.49924	0.18672	0.13967	-0.144
Mof_N 	N 	0.51401	0.05497	0.04289	-0.242
Mof_N 	N 	0.54779	0.21626	0.19008	-0.141
Mof_N 	N 	0.72549	0.1946	0.23512	-0.239
Mof_N 	N 	0.15663	0.58191	0.14873	-0.14
Mof_N 	N 	0.28417	0.36993	0.21098	-0.236
Mof_N 	N 	0.18672	0.49924	0.13967	-0.144
Mof_N 	N 	0.05497	0.51401	0.04289	-0.242
Mof_N 	N 	0.21626	0.54779	0.19008	-0.141
Mof_N 	N 	0.1946	0.72549	0.23512	-0.239
Mof_N 	N 	0.84337	0.41809	0.14873	-0.139
Mof_N 	N 	0.71583	0.63007	0.21098	-0.236
Mof_N 	N 	0.81328	0.50076	0.13967	-0.143
Mof_N 	N 	0.94503	0.48599	0.04289	-0.237
Mof_N 	N 	0.78374	0.45221	0.19008	-0.141
Mof_N 	N 	0.8054	0.27451	0.23512	-0.239
Mof_N 	N 	0.91809	0.65663	0.64873	-0.141
Mof_N 	N 	0.13007	0.78417	0.71098	-0.233
Mof_N 	N 	0.00076	0.68672	0.63967	-0.16
Mof_N 	N 	0.98599	0.55497	0.54289	-0.231
Mof_N 	N 	0.95221	0.71626	0.69008	-0.142
Mof_N 	N 	0.77451	0.6946	0.73512	-0.239
Mof_N 	N 	0.08191	0.34337	0.64873	-0.138
Mof_N 	N 	0.86993	0.21583	0.71098	-0.239
Mof_N 	N 	0.99924	0.31328	0.63967	-0.126
Mof_N 	N 	0.01401	0.44503	0.54289	-0.247
Mof_N 	N 	0.04779	0.28374	0.69008	-0.139
Mof_N 	N 	0.22549	0.3054	0.73512	-0.239
Mof_N 	N 	0.34337	0.08191	0.35127	-0.138
Mof_N 	N 	0.21583	0.86993	0.28902	-0.239
Mof_N 	N 	0.31328	0.99924	0.36033	-0.126
Mof_N 	N 	0.44503	0.01401	0.45711	-0.247
Mof_N 	N 	0.28374	0.04779	0.30992	-0.139
Mof_N 	N 	0.3054	0.22549	0.26488	-0.239
Mof_N 	N 	0.65663	0.91809	0.35127	-0.141
Mof_N 	N 	0.78417	0.13007	0.28902	-0.233
Mof_N 	N 	0.68672	0.00076	0.36033	-0.16
Mof_N 	N 	0.55497	0.98599	0.45711	-0.231
Mof_N 	N 	0.71626	0.95221	0.30992	-0.142
Mof_N 	N 	0.6946	0.77451	0.26488	-0.239
Mof_N 	N 	0.58191	0.15663	0.85127	-0.14
Mof_N 	N 	0.36993	0.28417	0.78902	-0.236
Mof_N 	N 	0.49924	0.18672	0.86033	-0.143
Mof_N 	N 	0.51401	0.05497	0.95711	-0.241
Mof_N 	N 	0.54779	0.21626	0.80992	-0.141
Mof_N 	N 	0.72549	0.1946	0.76488	-0.239
Mof_N 	N 	0.41809	0.84337	0.85127	-0.139
Mof_N 	N 	0.63007	0.71583	0.78902	-0.236
Mof_N 	N 	0.50076	0.81328	0.86033	-0.143
Mof_N 	N 	0.48599	0.94503	0.95711	-0.236
Mof_N 	N 	0.45221	0.78374	0.80992	-0.141
Mof_N 	N 	0.27451	0.8054	0.76488	-0.239
Mof_N 	N 	0.6664	0.6664	0.27938	-0.277
Mof_N 	N 	0.7377	0.7377	0.1948	-0.264
Mof_N 	N 	0.3336	0.3336	0.27938	-0.277
Mof_N 	N 	0.2623	0.2623	0.1948	-0.265
Mof_N 	N 	0.8336	0.1664	0.77938	-0.277
Mof_N 	N 	0.7623	0.2377	0.6948	-0.264
Mof_N 	N 	0.1664	0.8336	0.77938	-0.277
Mof_N 	N 	0.2377	0.7623	0.6948	-0.264
Mof_N 	N 	0.8336	0.1664	0.22062	-0.277
Mof_N 	N 	0.7623	0.2377	0.3052	-0.264
Mof_N 	N 	0.1664	0.8336	0.22062	-0.277
Mof_N 	N 	0.2377	0.7623	0.3052	-0.264
Mof_N 	N 	0.6664	0.6664	0.72062	-0.277
Mof_N 	N 	0.7377	0.7377	0.8052	-0.264
Mof_N 	N 	0.3336	0.3336	0.72062	-0.277
Mof_N 	N 	0.2623	0.2623	0.8052	-0.265
Mof_N 	N 	0.98027	0.57557	-0	-0.256
Mof_N 	N 	0.01973	0.42443	-0	-0.265
Mof_N 	N 	0.92443	0.48027	0.5	-0.257
Mof_N 	N 	0.07557	0.51973	0.5	-0.261
Mof_N 	N 	0.51973	0.07557	0.5	-0.261
Mof_N 	N 	0.48027	0.92443	0.5	-0.257
Mof_N 	N 	0.57557	0.98027	-0	-0.256
Mof_N 	N 	0.42443	0.01973	-0	-0.265
_end
