# CIF file generated by openbabel 3.1.0, see https://openbabel.org
data_I
_chemical_name_common 'image0'
_cell_length_a 24.494
_cell_length_b 24.494
_cell_length_c 24.494
_cell_angle_alpha 90
_cell_angle_beta 90
_cell_angle_gamma 90
_space_group_name_H-M_alt 'P 1'
_space_group_name_Hall 'P 1'
loop_
    _symmetry_equiv_pos_as_xyz
    x,y,z
loop_
    _atom_site_label
    _atom_site_type_symbol
    _atom_site_fract_x
    _atom_site_fract_y
    _atom_site_fract_z
    _atom_site_occupancy
    Cu1      Cu       0.20266    0.48410    0.14612    1.000
    Cu2      Cu       0.21402    0.38305    0.05631    1.000
    N1       N        0.22397    0.41168    0.17034    1.000
    N2       N        0.22575    0.36941    0.13500    1.000
    O1       O        0.19413    0.39076    0.97885    1.000
    O2       O        0.05523    0.37149    0.82798    1.000
    O3       O        0.18256    0.45166    0.07731    1.000
    O4       O        0.32260    0.46008    0.76522    1.000
    O5       O        0.25486    0.48298    0.70783    1.000
    O6       O        0.27609    0.42498    0.95763    1.000
    O7       O        0.06857    0.41850    0.75214    1.000
    C1       C        0.21007    0.41754    0.88660    1.000
    C2       C        0.15677    0.40590    0.87064    1.000
    C3       C        0.27274    0.46477    0.75230    1.000
    C4       C        0.14101    0.41467    0.81660    1.000
    C5       C        0.23157    0.44588    0.79401    1.000
    C6       C        0.17841    0.43580    0.77866    1.000
    C7       C        0.24760    0.43662    0.84776    1.000
    C8       C        0.22918    0.41054    0.94509    1.000
    C9       C        0.23030    0.32320    0.16400    1.000
    H1       H        0.23230    0.28830    0.14940    1.000
    C10      C        0.08406    0.40111    0.79695    1.000
    C11      C        0.23130    0.33560    0.21910    1.000
    H2       H        0.23410    0.31140    0.24820    1.000
    C12      C        0.22730    0.39140    0.22122    1.000
    H3       H        0.22700    0.41210    0.25310    1.000
    C13      C        0.14260    0.47780    0.04240    1.000
    H4       H        0.13730    0.45630    0.01010    1.000
    H5       H        0.15540    0.51350    0.03240    1.000
    H6       H        0.10860    0.48110    0.06160    1.000
    H7       H        0.13400    0.39210    0.89360    1.000
    H8       H        0.28560    0.44090    0.85740    1.000
    H9       H        0.16700    0.44400    0.74200    1.000
    Cu3      Cu       0.29734    0.51590    0.64612    1.000
    Cu4      Cu       0.28598    0.61695    0.55631    1.000
    N3       N        0.27603    0.58832    0.67034    1.000
    N4       N        0.27425    0.63059    0.63500    1.000
    O8       O        0.30587    0.60924    0.47885    1.000
    O9       O        0.44477    0.62851    0.32798    1.000
    O10      O        0.31744    0.54834    0.57731    1.000
    O11      O        0.17740    0.53992    0.26522    1.000
    O12      O        0.24514    0.51702    0.20783    1.000
    O13      O        0.22391    0.57502    0.45763    1.000
    O14      O        0.43143    0.58150    0.25214    1.000
    C14      C        0.28993    0.58246    0.38660    1.000
    C15      C        0.34323    0.59410    0.37064    1.000
    C16      C        0.22726    0.53523    0.25230    1.000
    C17      C        0.35899    0.58533    0.31660    1.000
    C18      C        0.26843    0.55412    0.29401    1.000
    C19      C        0.32159    0.56420    0.27866    1.000
    C20      C        0.25240    0.56338    0.34776    1.000
    C21      C        0.27082    0.58946    0.44509    1.000
    C22      C        0.26970    0.67680    0.66400    1.000
    H10      H        0.26770    0.71170    0.64940    1.000
    C23      C        0.41594    0.59889    0.29695    1.000
    C24      C        0.26870    0.66440    0.71910    1.000
    H11      H        0.26590    0.68860    0.74820    1.000
    C25      C        0.27270    0.60860    0.72122    1.000
    H12      H        0.27300    0.58790    0.75310    1.000
    C26      C        0.35740    0.52220    0.54240    1.000
    H13      H        0.36270    0.54370    0.51010    1.000
    H14      H        0.34460    0.48650    0.53240    1.000
    H15      H        0.39140    0.51890    0.56160    1.000
    H16      H        0.36600    0.60790    0.39360    1.000
    H17      H        0.21440    0.55910    0.35740    1.000
    H18      H        0.33300    0.55600    0.24200    1.000
    Cu5      Cu       0.79734    0.98410    0.35388    1.000
    Cu6      Cu       0.78598    0.88305    0.44369    1.000
    N5       N        0.77603    0.91168    0.32966    1.000
    N6       N        0.77425    0.86941    0.36500    1.000
    O15      O        0.80587    0.89076    0.52115    1.000
    O16      O        0.94477    0.87149    0.67202    1.000
    O17      O        0.81744    0.95166    0.42269    1.000
    O18      O        0.67740    0.96008    0.73478    1.000
    O19      O        0.74514    0.98298    0.79217    1.000
    O20      O        0.72391    0.92498    0.54237    1.000
    O21      O        0.93143    0.91850    0.74786    1.000
    C27      C        0.78993    0.91754    0.61340    1.000
    C28      C        0.84323    0.90590    0.62936    1.000
    C29      C        0.72726    0.96477    0.74770    1.000
    C30      C        0.85899    0.91467    0.68340    1.000
    C31      C        0.76843    0.94588    0.70599    1.000
    C32      C        0.82159    0.93580    0.72134    1.000
    C33      C        0.75240    0.93662    0.65224    1.000
    C34      C        0.77082    0.91054    0.55491    1.000
    C35      C        0.76970    0.82320    0.33600    1.000
    H19      H        0.76770    0.78830    0.35060    1.000
    C36      C        0.91594    0.90111    0.70305    1.000
    C37      C        0.76870    0.83560    0.28090    1.000
    H20      H        0.76590    0.81140    0.25180    1.000
    C38      C        0.77270    0.89140    0.27878    1.000
    H21      H        0.77300    0.91210    0.24690    1.000
    C39      C        0.85740    0.97780    0.45760    1.000
    H22      H        0.86270    0.95630    0.48990    1.000
    H23      H        0.84460    0.01350    0.46760    1.000
    H24      H        0.89140    0.98110    0.43840    1.000
    H25      H        0.86600    0.89210    0.60640    1.000
    H26      H        0.71440    0.94090    0.64260    1.000
    H27      H        0.83300    0.94400    0.75800    1.000
    Cu7      Cu       0.70266    0.01590    0.85388    1.000
    Cu8      Cu       0.71402    0.11695    0.94369    1.000
    N7       N        0.72397    0.08832    0.82966    1.000
    N8       N        0.72575    0.13059    0.86500    1.000
    O22      O        0.69413    0.10924    0.02115    1.000
    O23      O        0.55523    0.12851    0.17202    1.000
    O24      O        0.68256    0.04834    0.92269    1.000
    O25      O        0.82260    0.03992    0.23478    1.000
    O26      O        0.75486    0.01702    0.29217    1.000
    O27      O        0.77609    0.07502    0.04237    1.000
    O28      O        0.56857    0.08150    0.24786    1.000
    C40      C        0.71007    0.08246    0.11340    1.000
    C41      C        0.65677    0.09410    0.12936    1.000
    C42      C        0.77274    0.03523    0.24770    1.000
    C43      C        0.64101    0.08533    0.18340    1.000
    C44      C        0.73157    0.05412    0.20599    1.000
    C45      C        0.67841    0.06420    0.22134    1.000
    C46      C        0.74760    0.06338    0.15224    1.000
    C47      C        0.72918    0.08946    0.05491    1.000
    C48      C        0.73030    0.17680    0.83600    1.000
    H28      H        0.73230    0.21170    0.85060    1.000
    C49      C        0.58406    0.09889    0.20305    1.000
    C50      C        0.73130    0.16440    0.78090    1.000
    H29      H        0.73410    0.18860    0.75180    1.000
    C51      C        0.72730    0.10860    0.77878    1.000
    H30      H        0.72700    0.08790    0.74690    1.000
    C52      C        0.64260    0.02220    0.95760    1.000
    H31      H        0.63730    0.04370    0.98990    1.000
    H32      H        0.65540    0.98650    0.96760    1.000
    H33      H        0.60860    0.01890    0.93840    1.000
    H34      H        0.63400    0.10790    0.10640    1.000
    H35      H        0.78560    0.05910    0.14260    1.000
    H36      H        0.66700    0.05600    0.25800    1.000
    Cu9      Cu       0.14612    0.20266    0.48410    1.000
    Cu10     Cu       0.05631    0.21402    0.38305    1.000
    N9       N        0.17034    0.22397    0.41168    1.000
    N10      N        0.13500    0.22575    0.36941    1.000
    O29      O        0.97885    0.19413    0.39076    1.000
    O30      O        0.82798    0.05523    0.37149    1.000
    O31      O        0.07731    0.18256    0.45166    1.000
    O32      O        0.76522    0.32260    0.46008    1.000
    O33      O        0.70783    0.25486    0.48298    1.000
    O34      O        0.95763    0.27609    0.42498    1.000
    O35      O        0.75214    0.06857    0.41850    1.000
    C53      C        0.88660    0.21007    0.41754    1.000
    C54      C        0.87064    0.15677    0.40590    1.000
    C55      C        0.75230    0.27274    0.46477    1.000
    C56      C        0.81660    0.14101    0.41467    1.000
    C57      C        0.79401    0.23157    0.44588    1.000
    C58      C        0.77866    0.17841    0.43580    1.000
    C59      C        0.84776    0.24760    0.43662    1.000
    C60      C        0.94509    0.22918    0.41054    1.000
    C61      C        0.16400    0.23030    0.32320    1.000
    H37      H        0.14940    0.23230    0.28830    1.000
    C62      C        0.79695    0.08406    0.40111    1.000
    C63      C        0.21910    0.23130    0.33560    1.000
    H38      H        0.24820    0.23410    0.31140    1.000
    C64      C        0.22122    0.22730    0.39140    1.000
    H39      H        0.25310    0.22700    0.41210    1.000
    C65      C        0.04240    0.14260    0.47780    1.000
    H40      H        0.01010    0.13730    0.45630    1.000
    H41      H        0.03240    0.15540    0.51350    1.000
    H42      H        0.06160    0.10860    0.48110    1.000
    H43      H        0.89360    0.13400    0.39210    1.000
    H44      H        0.85740    0.28560    0.44090    1.000
    H45      H        0.74200    0.16700    0.44400    1.000
    Cu11     Cu       0.64612    0.29734    0.51590    1.000
    Cu12     Cu       0.55631    0.28598    0.61695    1.000
    N11      N        0.67034    0.27603    0.58832    1.000
    N12      N        0.63500    0.27425    0.63059    1.000
    O36      O        0.47885    0.30587    0.60924    1.000
    O37      O        0.32798    0.44477    0.62851    1.000
    O38      O        0.57731    0.31744    0.54834    1.000
    O39      O        0.26522    0.17740    0.53992    1.000
    O40      O        0.20783    0.24514    0.51702    1.000
    O41      O        0.45763    0.22391    0.57502    1.000
    O42      O        0.25214    0.43143    0.58150    1.000
    C66      C        0.38660    0.28993    0.58246    1.000
    C67      C        0.37064    0.34323    0.59410    1.000
    C68      C        0.25230    0.22726    0.53523    1.000
    C69      C        0.31660    0.35899    0.58533    1.000
    C70      C        0.29401    0.26843    0.55412    1.000
    C71      C        0.27866    0.32159    0.56420    1.000
    C72      C        0.34776    0.25240    0.56338    1.000
    C73      C        0.44509    0.27082    0.58946    1.000
    C74      C        0.66400    0.26970    0.67680    1.000
    H46      H        0.64940    0.26770    0.71170    1.000
    C75      C        0.29695    0.41594    0.59889    1.000
    C76      C        0.71910    0.26870    0.66440    1.000
    H47      H        0.74820    0.26590    0.68860    1.000
    C77      C        0.72122    0.27270    0.60860    1.000
    H48      H        0.75310    0.27300    0.58790    1.000
    C78      C        0.54240    0.35740    0.52220    1.000
    H49      H        0.51010    0.36270    0.54370    1.000
    H50      H        0.53240    0.34460    0.48650    1.000
    H51      H        0.56160    0.39140    0.51890    1.000
    H52      H        0.39360    0.36600    0.60790    1.000
    H53      H        0.35740    0.21440    0.55910    1.000
    H54      H        0.24200    0.33300    0.55600    1.000
    Cu13     Cu       0.35388    0.79734    0.98410    1.000
    Cu14     Cu       0.44369    0.78598    0.88305    1.000
    N13      N        0.32966    0.77603    0.91168    1.000
    N14      N        0.36500    0.77425    0.86941    1.000
    O43      O        0.52115    0.80587    0.89076    1.000
    O44      O        0.67202    0.94477    0.87149    1.000
    O45      O        0.42269    0.81744    0.95166    1.000
    O46      O        0.73478    0.67740    0.96008    1.000
    O47      O        0.79217    0.74514    0.98298    1.000
    O48      O        0.54237    0.72391    0.92498    1.000
    O49      O        0.74786    0.93143    0.91850    1.000
    C79      C        0.61340    0.78993    0.91754    1.000
    C80      C        0.62936    0.84323    0.90590    1.000
    C81      C        0.74770    0.72726    0.96477    1.000
    C82      C        0.68340    0.85899    0.91467    1.000
    C83      C        0.70599    0.76843    0.94588    1.000
    C84      C        0.72134    0.82159    0.93580    1.000
    C85      C        0.65224    0.75240    0.93662    1.000
    C86      C        0.55491    0.77082    0.91054    1.000
    C87      C        0.33600    0.76970    0.82320    1.000
    H55      H        0.35060    0.76770    0.78830    1.000
    C88      C        0.70305    0.91594    0.90111    1.000
    C89      C        0.28090    0.76870    0.83560    1.000
    H56      H        0.25180    0.76590    0.81140    1.000
    C90      C        0.27878    0.77270    0.89140    1.000
    H57      H        0.24690    0.77300    0.91210    1.000
    C91      C        0.45760    0.85740    0.97780    1.000
    H58      H        0.48990    0.86270    0.95630    1.000
    H59      H        0.46760    0.84460    0.01350    1.000
    H60      H        0.43840    0.89140    0.98110    1.000
    H61      H        0.60640    0.86600    0.89210    1.000
    H62      H        0.64260    0.71440    0.94090    1.000
    H63      H        0.75800    0.83300    0.94400    1.000
    Cu15     Cu       0.85388    0.70266    0.01590    1.000
    Cu16     Cu       0.94369    0.71402    0.11695    1.000
    N15      N        0.82966    0.72397    0.08832    1.000
    N16      N        0.86500    0.72575    0.13059    1.000
    O50      O        0.02115    0.69413    0.10924    1.000
    O51      O        0.17202    0.55523    0.12851    1.000
    O52      O        0.92269    0.68256    0.04834    1.000
    O53      O        0.23478    0.82260    0.03992    1.000
    O54      O        0.29217    0.75486    0.01702    1.000
    O55      O        0.04237    0.77609    0.07502    1.000
    O56      O        0.24786    0.56857    0.08150    1.000
    C92      C        0.11340    0.71007    0.08246    1.000
    C93      C        0.12936    0.65677    0.09410    1.000
    C94      C        0.24770    0.77274    0.03523    1.000
    C95      C        0.18340    0.64101    0.08533    1.000
    C96      C        0.20599    0.73157    0.05412    1.000
    C97      C        0.22134    0.67841    0.06420    1.000
    C98      C        0.15224    0.74760    0.06338    1.000
    C99      C        0.05491    0.72918    0.08946    1.000
    C100     C        0.83600    0.73030    0.17680    1.000
    H64      H        0.85060    0.73230    0.21170    1.000
    C101     C        0.20305    0.58406    0.09889    1.000
    C102     C        0.78090    0.73130    0.16440    1.000
    H65      H        0.75180    0.73410    0.18860    1.000
    C103     C        0.77878    0.72730    0.10860    1.000
    H66      H        0.74690    0.72700    0.08790    1.000
    C104     C        0.95760    0.64260    0.02220    1.000
    H67      H        0.98990    0.63730    0.04370    1.000
    H68      H        0.96760    0.65540    0.98650    1.000
    H69      H        0.93840    0.60860    0.01890    1.000
    H70      H        0.10640    0.63400    0.10790    1.000
    H71      H        0.14260    0.78560    0.05910    1.000
    H72      H        0.25800    0.66700    0.05600    1.000
    Cu17     Cu       0.48410    0.14612    0.20266    1.000
    Cu18     Cu       0.38305    0.05631    0.21402    1.000
    N17      N        0.41168    0.17034    0.22397    1.000
    N18      N        0.36941    0.13500    0.22575    1.000
    O57      O        0.39076    0.97885    0.19413    1.000
    O58      O        0.37149    0.82798    0.05523    1.000
    O59      O        0.45166    0.07731    0.18256    1.000
    O60      O        0.46008    0.76522    0.32260    1.000
    O61      O        0.48298    0.70783    0.25486    1.000
    O62      O        0.42498    0.95763    0.27609    1.000
    O63      O        0.41850    0.75214    0.06857    1.000
    C105     C        0.41754    0.88660    0.21007    1.000
    C106     C        0.40590    0.87064    0.15677    1.000
    C107     C        0.46477    0.75230    0.27274    1.000
    C108     C        0.41467    0.81660    0.14101    1.000
    C109     C        0.44588    0.79401    0.23157    1.000
    C110     C        0.43580    0.77866    0.17841    1.000
    C111     C        0.43662    0.84776    0.24760    1.000
    C112     C        0.41054    0.94509    0.22918    1.000
    C113     C        0.32320    0.16400    0.23030    1.000
    H73      H        0.28830    0.14940    0.23230    1.000
    C114     C        0.40111    0.79695    0.08406    1.000
    C115     C        0.33560    0.21910    0.23130    1.000
    H74      H        0.31140    0.24820    0.23410    1.000
    C116     C        0.39140    0.22122    0.22730    1.000
    H75      H        0.41210    0.25310    0.22700    1.000
    C117     C        0.47780    0.04240    0.14260    1.000
    H76      H        0.45630    0.01010    0.13730    1.000
    H77      H        0.51350    0.03240    0.15540    1.000
    H78      H        0.48110    0.06160    0.10860    1.000
    H79      H        0.39210    0.89360    0.13400    1.000
    H80      H        0.44090    0.85740    0.28560    1.000
    H81      H        0.44400    0.74200    0.16700    1.000
    Cu19     Cu       0.51590    0.64612    0.29734    1.000
    Cu20     Cu       0.61695    0.55631    0.28598    1.000
    N19      N        0.58832    0.67034    0.27603    1.000
    N20      N        0.63059    0.63500    0.27425    1.000
    O64      O        0.60924    0.47885    0.30587    1.000
    O65      O        0.62851    0.32798    0.44477    1.000
    O66      O        0.54834    0.57731    0.31744    1.000
    O67      O        0.53992    0.26522    0.17740    1.000
    O68      O        0.51702    0.20783    0.24514    1.000
    O69      O        0.57502    0.45763    0.22391    1.000
    O70      O        0.58150    0.25214    0.43143    1.000
    C118     C        0.58246    0.38660    0.28993    1.000
    C119     C        0.59410    0.37064    0.34323    1.000
    C120     C        0.53523    0.25230    0.22726    1.000
    C121     C        0.58533    0.31660    0.35899    1.000
    C122     C        0.55412    0.29401    0.26843    1.000
    C123     C        0.56420    0.27866    0.32159    1.000
    C124     C        0.56338    0.34776    0.25240    1.000
    C125     C        0.58946    0.44509    0.27082    1.000
    C126     C        0.67680    0.66400    0.26970    1.000
    H82      H        0.71170    0.64940    0.26770    1.000
    C127     C        0.59889    0.29695    0.41594    1.000
    C128     C        0.66440    0.71910    0.26870    1.000
    H83      H        0.68860    0.74820    0.26590    1.000
    C129     C        0.60860    0.72122    0.27270    1.000
    H84      H        0.58790    0.75310    0.27300    1.000
    C130     C        0.52220    0.54240    0.35740    1.000
    H85      H        0.54370    0.51010    0.36270    1.000
    H86      H        0.48650    0.53240    0.34460    1.000
    H87      H        0.51890    0.56160    0.39140    1.000
    H88      H        0.60790    0.39360    0.36600    1.000
    H89      H        0.55910    0.35740    0.21440    1.000
    H90      H        0.55600    0.24200    0.33300    1.000
    Cu21     Cu       0.98410    0.35388    0.79734    1.000
    Cu22     Cu       0.88305    0.44369    0.78598    1.000
    N21      N        0.91168    0.32966    0.77603    1.000
    N22      N        0.86941    0.36500    0.77425    1.000
    O71      O        0.89076    0.52115    0.80587    1.000
    O72      O        0.87149    0.67202    0.94477    1.000
    O73      O        0.95166    0.42269    0.81744    1.000
    O74      O        0.96008    0.73478    0.67740    1.000
    O75      O        0.98298    0.79217    0.74514    1.000
    O76      O        0.92498    0.54237    0.72391    1.000
    O77      O        0.91850    0.74786    0.93143    1.000
    C131     C        0.91754    0.61340    0.78993    1.000
    C132     C        0.90590    0.62936    0.84323    1.000
    C133     C        0.96477    0.74770    0.72726    1.000
    C134     C        0.91467    0.68340    0.85899    1.000
    C135     C        0.94588    0.70599    0.76843    1.000
    C136     C        0.93580    0.72134    0.82159    1.000
    C137     C        0.93662    0.65224    0.75240    1.000
    C138     C        0.91054    0.55491    0.77082    1.000
    C139     C        0.82320    0.33600    0.76970    1.000
    H91      H        0.78830    0.35060    0.76770    1.000
    C140     C        0.90111    0.70305    0.91594    1.000
    C141     C        0.83560    0.28090    0.76870    1.000
    H92      H        0.81140    0.25180    0.76590    1.000
    C142     C        0.89140    0.27878    0.77270    1.000
    H93      H        0.91210    0.24690    0.77300    1.000
    C143     C        0.97780    0.45760    0.85740    1.000
    H94      H        0.95630    0.48990    0.86270    1.000
    H95      H        0.01350    0.46760    0.84460    1.000
    H96      H        0.98110    0.43840    0.89140    1.000
    H97      H        0.89210    0.60640    0.86600    1.000
    H98      H        0.94090    0.64260    0.71440    1.000
    H99      H        0.94400    0.75800    0.83300    1.000
    Cu23     Cu       0.01590    0.85388    0.70266    1.000
    Cu24     Cu       0.11695    0.94369    0.71402    1.000
    N23      N        0.08832    0.82966    0.72397    1.000
    N24      N        0.13059    0.86500    0.72575    1.000
    O78      O        0.10924    0.02115    0.69413    1.000
    O79      O        0.12851    0.17202    0.55523    1.000
    O80      O        0.04834    0.92269    0.68256    1.000
    O81      O        0.03992    0.23478    0.82260    1.000
    O82      O        0.01702    0.29217    0.75486    1.000
    O83      O        0.07502    0.04237    0.77609    1.000
    O84      O        0.08150    0.24786    0.56857    1.000
    C144     C        0.08246    0.11340    0.71007    1.000
    C145     C        0.09410    0.12936    0.65677    1.000
    C146     C        0.03523    0.24770    0.77274    1.000
    C147     C        0.08533    0.18340    0.64101    1.000
    C148     C        0.05412    0.20599    0.73157    1.000
    C149     C        0.06420    0.22134    0.67841    1.000
    C150     C        0.06338    0.15224    0.74760    1.000
    C151     C        0.08946    0.05491    0.72918    1.000
    C152     C        0.17680    0.83600    0.73030    1.000
    H100     H        0.21170    0.85060    0.73230    1.000
    C153     C        0.09889    0.20305    0.58406    1.000
    C154     C        0.16440    0.78090    0.73130    1.000
    H101     H        0.18860    0.75180    0.73410    1.000
    C155     C        0.10860    0.77878    0.72730    1.000
    H102     H        0.08790    0.74690    0.72700    1.000
    C156     C        0.02220    0.95760    0.64260    1.000
    H103     H        0.04370    0.98990    0.63730    1.000
    H104     H        0.98650    0.96760    0.65540    1.000
    H105     H        0.01890    0.93840    0.60860    1.000
    H106     H        0.10790    0.10640    0.63400    1.000
    H107     H        0.05910    0.14260    0.78560    1.000
    H108     H        0.05600    0.25800    0.66700    1.000
    Cu25     Cu       0.79734    0.51590    0.85388    1.000
    Cu26     Cu       0.78598    0.61695    0.94369    1.000
    N25      N        0.77603    0.58832    0.82966    1.000
    N26      N        0.77425    0.63059    0.86500    1.000
    O85      O        0.80587    0.60924    0.02115    1.000
    O86      O        0.94477    0.62851    0.17202    1.000
    O87      O        0.81744    0.54834    0.92269    1.000
    O88      O        0.67740    0.53992    0.23478    1.000
    O89      O        0.74514    0.51702    0.29217    1.000
    O90      O        0.72391    0.57502    0.04237    1.000
    O91      O        0.93143    0.58150    0.24786    1.000
    C157     C        0.78993    0.58246    0.11340    1.000
    C158     C        0.84323    0.59410    0.12936    1.000
    C159     C        0.72726    0.53523    0.24770    1.000
    C160     C        0.85899    0.58533    0.18340    1.000
    C161     C        0.76843    0.55412    0.20599    1.000
    C162     C        0.82159    0.56420    0.22134    1.000
    C163     C        0.75240    0.56338    0.15224    1.000
    C164     C        0.77082    0.58946    0.05491    1.000
    C165     C        0.76970    0.67680    0.83600    1.000
    H109     H        0.76770    0.71170    0.85060    1.000
    C166     C        0.91594    0.59889    0.20305    1.000
    C167     C        0.76870    0.66440    0.78090    1.000
    H110     H        0.76590    0.68860    0.75180    1.000
    C168     C        0.77270    0.60860    0.77878    1.000
    H111     H        0.77300    0.58790    0.74690    1.000
    C169     C        0.85740    0.52220    0.95760    1.000
    H112     H        0.86270    0.54370    0.98990    1.000
    H113     H        0.84460    0.48650    0.96760    1.000
    H114     H        0.89140    0.51890    0.93840    1.000
    H115     H        0.86600    0.60790    0.10640    1.000
    H116     H        0.71440    0.55910    0.14260    1.000
    H117     H        0.83300    0.55600    0.25800    1.000
    Cu27     Cu       0.70266    0.48410    0.35388    1.000
    Cu28     Cu       0.71402    0.38305    0.44369    1.000
    N27      N        0.72397    0.41168    0.32966    1.000
    N28      N        0.72575    0.36941    0.36500    1.000
    O92      O        0.69413    0.39076    0.52115    1.000
    O93      O        0.55523    0.37149    0.67202    1.000
    O94      O        0.68256    0.45166    0.42269    1.000
    O95      O        0.82260    0.46008    0.73478    1.000
    O96      O        0.75486    0.48298    0.79217    1.000
    O97      O        0.77609    0.42498    0.54237    1.000
    O98      O        0.56857    0.41850    0.74786    1.000
    C170     C        0.71007    0.41754    0.61340    1.000
    C171     C        0.65677    0.40590    0.62936    1.000
    C172     C        0.77274    0.46477    0.74770    1.000
    C173     C        0.64101    0.41467    0.68340    1.000
    C174     C        0.73157    0.44588    0.70599    1.000
    C175     C        0.67841    0.43580    0.72134    1.000
    C176     C        0.74760    0.43662    0.65224    1.000
    C177     C        0.72918    0.41054    0.55491    1.000
    C178     C        0.73030    0.32320    0.33600    1.000
    H118     H        0.73230    0.28830    0.35060    1.000
    C179     C        0.58406    0.40111    0.70305    1.000
    C180     C        0.73130    0.33560    0.28090    1.000
    H119     H        0.73410    0.31140    0.25180    1.000
    C181     C        0.72730    0.39140    0.27878    1.000
    H120     H        0.72700    0.41210    0.24690    1.000
    C182     C        0.64260    0.47780    0.45760    1.000
    H121     H        0.63730    0.45630    0.48990    1.000
    H122     H        0.65540    0.51350    0.46760    1.000
    H123     H        0.60860    0.48110    0.43840    1.000
    H124     H        0.63400    0.39210    0.60640    1.000
    H125     H        0.78560    0.44090    0.64260    1.000
    H126     H        0.66700    0.44400    0.75800    1.000
    Cu29     Cu       0.20266    0.01590    0.64612    1.000
    Cu30     Cu       0.21402    0.11695    0.55631    1.000
    N29      N        0.22397    0.08832    0.67034    1.000
    N30      N        0.22575    0.13059    0.63500    1.000
    O99      O        0.19413    0.10924    0.47885    1.000
    O100     O        0.05523    0.12851    0.32798    1.000
    O101     O        0.18256    0.04834    0.57731    1.000
    O102     O        0.32260    0.03992    0.26522    1.000
    O103     O        0.25486    0.01702    0.20783    1.000
    O104     O        0.27609    0.07502    0.45763    1.000
    O105     O        0.06857    0.08150    0.25214    1.000
    C183     C        0.21007    0.08246    0.38660    1.000
    C184     C        0.15677    0.09410    0.37064    1.000
    C185     C        0.27274    0.03523    0.25230    1.000
    C186     C        0.14101    0.08533    0.31660    1.000
    C187     C        0.23157    0.05412    0.29401    1.000
    C188     C        0.17841    0.06420    0.27866    1.000
    C189     C        0.24760    0.06338    0.34776    1.000
    C190     C        0.22918    0.08946    0.44509    1.000
    C191     C        0.23030    0.17680    0.66400    1.000
    H127     H        0.23230    0.21170    0.64940    1.000
    C192     C        0.08406    0.09889    0.29695    1.000
    C193     C        0.23130    0.16440    0.71910    1.000
    H128     H        0.23410    0.18860    0.74820    1.000
    C194     C        0.22730    0.10860    0.72122    1.000
    H129     H        0.22700    0.08790    0.75310    1.000
    C195     C        0.14260    0.02220    0.54240    1.000
    H130     H        0.13730    0.04370    0.51010    1.000
    H131     H        0.15540    0.98650    0.53240    1.000
    H132     H        0.10860    0.01890    0.56160    1.000
    H133     H        0.13400    0.10790    0.39360    1.000
    H134     H        0.28560    0.05910    0.35740    1.000
    H135     H        0.16700    0.05600    0.24200    1.000
    Cu31     Cu       0.29734    0.98410    0.14612    1.000
    Cu32     Cu       0.28598    0.88305    0.05631    1.000
    N31      N        0.27603    0.91168    0.17034    1.000
    N32      N        0.27425    0.86941    0.13500    1.000
    O106     O        0.30587    0.89076    0.97885    1.000
    O107     O        0.44477    0.87149    0.82798    1.000
    O108     O        0.31744    0.95166    0.07731    1.000
    O109     O        0.17740    0.96008    0.76522    1.000
    O110     O        0.24514    0.98298    0.70783    1.000
    O111     O        0.22391    0.92498    0.95763    1.000
    O112     O        0.43143    0.91850    0.75214    1.000
    C196     C        0.28993    0.91754    0.88660    1.000
    C197     C        0.34323    0.90590    0.87064    1.000
    C198     C        0.22726    0.96477    0.75230    1.000
    C199     C        0.35899    0.91467    0.81660    1.000
    C200     C        0.26843    0.94588    0.79401    1.000
    C201     C        0.32159    0.93580    0.77866    1.000
    C202     C        0.25240    0.93662    0.84776    1.000
    C203     C        0.27082    0.91054    0.94509    1.000
    C204     C        0.26970    0.82320    0.16400    1.000
    H136     H        0.26770    0.78830    0.14940    1.000
    C205     C        0.41594    0.90111    0.79695    1.000
    C206     C        0.26870    0.83560    0.21910    1.000
    H137     H        0.26590    0.81140    0.24820    1.000
    C207     C        0.27270    0.89140    0.22122    1.000
    H138     H        0.27300    0.91210    0.25310    1.000
    C208     C        0.35740    0.97780    0.04240    1.000
    H139     H        0.36270    0.95630    0.01010    1.000
    H140     H        0.34460    0.01350    0.03240    1.000
    H141     H        0.39140    0.98110    0.06160    1.000
    H142     H        0.36600    0.89210    0.89360    1.000
    H143     H        0.21440    0.94090    0.85740    1.000
    H144     H        0.33300    0.94400    0.74200    1.000
    Cu33     Cu       0.85388    0.79734    0.51590    1.000
    Cu34     Cu       0.94369    0.78598    0.61695    1.000
    N33      N        0.82966    0.77603    0.58832    1.000
    N34      N        0.86500    0.77425    0.63059    1.000
    O113     O        0.02115    0.80587    0.60924    1.000
    O114     O        0.17202    0.94477    0.62851    1.000
    O115     O        0.92269    0.81744    0.54834    1.000
    O116     O        0.23478    0.67740    0.53992    1.000
    O117     O        0.29217    0.74514    0.51702    1.000
    O118     O        0.04237    0.72391    0.57502    1.000
    O119     O        0.24786    0.93143    0.58150    1.000
    C209     C        0.11340    0.78993    0.58246    1.000
    C210     C        0.12936    0.84323    0.59410    1.000
    C211     C        0.24770    0.72726    0.53523    1.000
    C212     C        0.18340    0.85899    0.58533    1.000
    C213     C        0.20599    0.76843    0.55412    1.000
    C214     C        0.22134    0.82159    0.56420    1.000
    C215     C        0.15224    0.75240    0.56338    1.000
    C216     C        0.05491    0.77082    0.58946    1.000
    C217     C        0.83600    0.76970    0.67680    1.000
    H145     H        0.85060    0.76770    0.71170    1.000
    C218     C        0.20305    0.91594    0.59889    1.000
    C219     C        0.78090    0.76870    0.66440    1.000
    H146     H        0.75180    0.76590    0.68860    1.000
    C220     C        0.77878    0.77270    0.60860    1.000
    H147     H        0.74690    0.77300    0.58790    1.000
    C221     C        0.95760    0.85740    0.52220    1.000
    H148     H        0.98990    0.86270    0.54370    1.000
    H149     H        0.96760    0.84460    0.48650    1.000
    H150     H        0.93840    0.89140    0.51890    1.000
    H151     H        0.10640    0.86600    0.60790    1.000
    H152     H        0.14260    0.71440    0.55910    1.000
    H153     H        0.25800    0.83300    0.55600    1.000
    Cu35     Cu       0.35388    0.70266    0.48410    1.000
    Cu36     Cu       0.44369    0.71402    0.38305    1.000
    N35      N        0.32966    0.72397    0.41168    1.000
    N36      N        0.36500    0.72575    0.36941    1.000
    O120     O        0.52115    0.69413    0.39076    1.000
    O121     O        0.67202    0.55523    0.37149    1.000
    O122     O        0.42269    0.68256    0.45166    1.000
    O123     O        0.73478    0.82260    0.46008    1.000
    O124     O        0.79217    0.75486    0.48298    1.000
    O125     O        0.54237    0.77609    0.42498    1.000
    O126     O        0.74786    0.56857    0.41850    1.000
    C222     C        0.61340    0.71007    0.41754    1.000
    C223     C        0.62936    0.65677    0.40590    1.000
    C224     C        0.74770    0.77274    0.46477    1.000
    C225     C        0.68340    0.64101    0.41467    1.000
    C226     C        0.70599    0.73157    0.44588    1.000
    C227     C        0.72134    0.67841    0.43580    1.000
    C228     C        0.65224    0.74760    0.43662    1.000
    C229     C        0.55491    0.72918    0.41054    1.000
    C230     C        0.33600    0.73030    0.32320    1.000
    H154     H        0.35060    0.73230    0.28830    1.000
    C231     C        0.70305    0.58406    0.40111    1.000
    C232     C        0.28090    0.73130    0.33560    1.000
    H155     H        0.25180    0.73410    0.31140    1.000
    C233     C        0.27878    0.72730    0.39140    1.000
    H156     H        0.24690    0.72700    0.41210    1.000
    C234     C        0.45760    0.64260    0.47780    1.000
    H157     H        0.48990    0.63730    0.45630    1.000
    H158     H        0.46760    0.65540    0.51350    1.000
    H159     H        0.43840    0.60860    0.48110    1.000
    H160     H        0.60640    0.63400    0.39210    1.000
    H161     H        0.64260    0.78560    0.44090    1.000
    H162     H        0.75800    0.66700    0.44400    1.000
    Cu37     Cu       0.64612    0.20266    0.01590    1.000
    Cu38     Cu       0.55631    0.21402    0.11695    1.000
    N37      N        0.67034    0.22397    0.08832    1.000
    N38      N        0.63500    0.22575    0.13059    1.000
    O127     O        0.47885    0.19413    0.10924    1.000
    O128     O        0.32798    0.05523    0.12851    1.000
    O129     O        0.57731    0.18256    0.04834    1.000
    O130     O        0.26522    0.32260    0.03992    1.000
    O131     O        0.20783    0.25486    0.01702    1.000
    O132     O        0.45763    0.27609    0.07502    1.000
    O133     O        0.25214    0.06857    0.08150    1.000
    C235     C        0.38660    0.21007    0.08246    1.000
    C236     C        0.37064    0.15677    0.09410    1.000
    C237     C        0.25230    0.27274    0.03523    1.000
    C238     C        0.31660    0.14101    0.08533    1.000
    C239     C        0.29401    0.23157    0.05412    1.000
    C240     C        0.27866    0.17841    0.06420    1.000
    C241     C        0.34776    0.24760    0.06338    1.000
    C242     C        0.44509    0.22918    0.08946    1.000
    C243     C        0.66400    0.23030    0.17680    1.000
    H163     H        0.64940    0.23230    0.21170    1.000
    C244     C        0.29695    0.08406    0.09889    1.000
    C245     C        0.71910    0.23130    0.16440    1.000
    H164     H        0.74820    0.23410    0.18860    1.000
    C246     C        0.72122    0.22730    0.10860    1.000
    H165     H        0.75310    0.22700    0.08790    1.000
    C247     C        0.54240    0.14260    0.02220    1.000
    H166     H        0.51010    0.13730    0.04370    1.000
    H167     H        0.53240    0.15540    0.98650    1.000
    H168     H        0.56160    0.10860    0.01890    1.000
    H169     H        0.39360    0.13400    0.10790    1.000
    H170     H        0.35740    0.28560    0.05910    1.000
    H171     H        0.24200    0.16700    0.05600    1.000
    Cu39     Cu       0.14612    0.29734    0.98410    1.000
    Cu40     Cu       0.05631    0.28598    0.88305    1.000
    N39      N        0.17034    0.27603    0.91168    1.000
    N40      N        0.13500    0.27425    0.86941    1.000
    O134     O        0.97885    0.30587    0.89076    1.000
    O135     O        0.82798    0.44477    0.87149    1.000
    O136     O        0.07731    0.31744    0.95166    1.000
    O137     O        0.76522    0.17740    0.96008    1.000
    O138     O        0.70783    0.24514    0.98298    1.000
    O139     O        0.95763    0.22391    0.92498    1.000
    O140     O        0.75214    0.43143    0.91850    1.000
    C248     C        0.88660    0.28993    0.91754    1.000
    C249     C        0.87064    0.34323    0.90590    1.000
    C250     C        0.75230    0.22726    0.96477    1.000
    C251     C        0.81660    0.35899    0.91467    1.000
    C252     C        0.79401    0.26843    0.94588    1.000
    C253     C        0.77866    0.32159    0.93580    1.000
    C254     C        0.84776    0.25240    0.93662    1.000
    C255     C        0.94509    0.27082    0.91054    1.000
    C256     C        0.16400    0.26970    0.82320    1.000
    H172     H        0.14940    0.26770    0.78830    1.000
    C257     C        0.79695    0.41594    0.90111    1.000
    C258     C        0.21910    0.26870    0.83560    1.000
    H173     H        0.24820    0.26590    0.81140    1.000
    C259     C        0.22122    0.27270    0.89140    1.000
    H174     H        0.25310    0.27300    0.91210    1.000
    C260     C        0.04240    0.35740    0.97780    1.000
    H175     H        0.01010    0.36270    0.95630    1.000
    H176     H        0.03240    0.34460    0.01350    1.000
    H177     H        0.06160    0.39140    0.98110    1.000
    H178     H        0.89360    0.36600    0.89210    1.000
    H179     H        0.85740    0.21440    0.94090    1.000
    H180     H        0.74200    0.33300    0.94400    1.000
    Cu41     Cu       0.51590    0.85388    0.79734    1.000
    Cu42     Cu       0.61695    0.94369    0.78598    1.000
    N41      N        0.58832    0.82966    0.77603    1.000
    N42      N        0.63059    0.86500    0.77425    1.000
    O141     O        0.60924    0.02115    0.80587    1.000
    O142     O        0.62851    0.17202    0.94477    1.000
    O143     O        0.54834    0.92269    0.81744    1.000
    O144     O        0.53992    0.23478    0.67740    1.000
    O145     O        0.51702    0.29217    0.74514    1.000
    O146     O        0.57502    0.04237    0.72391    1.000
    O147     O        0.58150    0.24786    0.93143    1.000
    C261     C        0.58246    0.11340    0.78993    1.000
    C262     C        0.59410    0.12936    0.84323    1.000
    C263     C        0.53523    0.24770    0.72726    1.000
    C264     C        0.58533    0.18340    0.85899    1.000
    C265     C        0.55412    0.20599    0.76843    1.000
    C266     C        0.56420    0.22134    0.82159    1.000
    C267     C        0.56338    0.15224    0.75240    1.000
    C268     C        0.58946    0.05491    0.77082    1.000
    C269     C        0.67680    0.83600    0.76970    1.000
    H181     H        0.71170    0.85060    0.76770    1.000
    C270     C        0.59889    0.20305    0.91594    1.000
    C271     C        0.66440    0.78090    0.76870    1.000
    H182     H        0.68860    0.75180    0.76590    1.000
    C272     C        0.60860    0.77878    0.77270    1.000
    H183     H        0.58790    0.74690    0.77300    1.000
    C273     C        0.52220    0.95760    0.85740    1.000
    H184     H        0.54370    0.98990    0.86270    1.000
    H185     H        0.48650    0.96760    0.84460    1.000
    H186     H        0.51890    0.93840    0.89140    1.000
    H187     H        0.60790    0.10640    0.86600    1.000
    H188     H        0.55910    0.14260    0.71440    1.000
    H189     H        0.55600    0.25800    0.83300    1.000
    Cu43     Cu       0.48410    0.35388    0.70266    1.000
    Cu44     Cu       0.38305    0.44369    0.71402    1.000
    N43      N        0.41168    0.32966    0.72397    1.000
    N44      N        0.36941    0.36500    0.72575    1.000
    O148     O        0.39076    0.52115    0.69413    1.000
    O149     O        0.37149    0.67202    0.55523    1.000
    O150     O        0.45166    0.42269    0.68256    1.000
    O151     O        0.46008    0.73478    0.82260    1.000
    O152     O        0.48298    0.79217    0.75486    1.000
    O153     O        0.42498    0.54237    0.77609    1.000
    O154     O        0.41850    0.74786    0.56857    1.000
    C274     C        0.41754    0.61340    0.71007    1.000
    C275     C        0.40590    0.62936    0.65677    1.000
    C276     C        0.46477    0.74770    0.77274    1.000
    C277     C        0.41467    0.68340    0.64101    1.000
    C278     C        0.44588    0.70599    0.73157    1.000
    C279     C        0.43580    0.72134    0.67841    1.000
    C280     C        0.43662    0.65224    0.74760    1.000
    C281     C        0.41054    0.55491    0.72918    1.000
    C282     C        0.32320    0.33600    0.73030    1.000
    H190     H        0.28830    0.35060    0.73230    1.000
    C283     C        0.40111    0.70305    0.58406    1.000
    C284     C        0.33560    0.28090    0.73130    1.000
    H191     H        0.31140    0.25180    0.73410    1.000
    C285     C        0.39140    0.27878    0.72730    1.000
    H192     H        0.41210    0.24690    0.72700    1.000
    C286     C        0.47780    0.45760    0.64260    1.000
    H193     H        0.45630    0.48990    0.63730    1.000
    H194     H        0.51350    0.46760    0.65540    1.000
    H195     H        0.48110    0.43840    0.60860    1.000
    H196     H        0.39210    0.60640    0.63400    1.000
    H197     H        0.44090    0.64260    0.78560    1.000
    H198     H        0.44400    0.75800    0.66700    1.000
    Cu45     Cu       0.01590    0.64612    0.20266    1.000
    Cu46     Cu       0.11695    0.55631    0.21402    1.000
    N45      N        0.08832    0.67034    0.22397    1.000
    N46      N        0.13059    0.63500    0.22575    1.000
    O155     O        0.10924    0.47885    0.19413    1.000
    O156     O        0.12851    0.32798    0.05523    1.000
    O157     O        0.04834    0.57731    0.18256    1.000
    O158     O        0.03992    0.26522    0.32260    1.000
    O159     O        0.01702    0.20783    0.25486    1.000
    O160     O        0.07502    0.45763    0.27609    1.000
    O161     O        0.08150    0.25214    0.06857    1.000
    C287     C        0.08246    0.38660    0.21007    1.000
    C288     C        0.09410    0.37064    0.15677    1.000
    C289     C        0.03523    0.25230    0.27274    1.000
    C290     C        0.08533    0.31660    0.14101    1.000
    C291     C        0.05412    0.29401    0.23157    1.000
    C292     C        0.06420    0.27866    0.17841    1.000
    C293     C        0.06338    0.34776    0.24760    1.000
    C294     C        0.08946    0.44509    0.22918    1.000
    C295     C        0.17680    0.66400    0.23030    1.000
    H199     H        0.21170    0.64940    0.23230    1.000
    C296     C        0.09889    0.29695    0.08406    1.000
    C297     C        0.16440    0.71910    0.23130    1.000
    H200     H        0.18860    0.74820    0.23410    1.000
    C298     C        0.10860    0.72122    0.22730    1.000
    H201     H        0.08790    0.75310    0.22700    1.000
    C299     C        0.02220    0.54240    0.14260    1.000
    H202     H        0.04370    0.51010    0.13730    1.000
    H203     H        0.98650    0.53240    0.15540    1.000
    H204     H        0.01890    0.56160    0.10860    1.000
    H205     H        0.10790    0.39360    0.13400    1.000
    H206     H        0.05910    0.35740    0.28560    1.000
    H207     H        0.05600    0.24200    0.16700    1.000
    Cu47     Cu       0.98410    0.14612    0.29734    1.000
    Cu48     Cu       0.88305    0.05631    0.28598    1.000
    N47      N        0.91168    0.17034    0.27603    1.000
    N48      N        0.86941    0.13500    0.27425    1.000
    O162     O        0.89076    0.97885    0.30587    1.000
    O163     O        0.87149    0.82798    0.44477    1.000
    O164     O        0.95166    0.07731    0.31744    1.000
    O165     O        0.96008    0.76522    0.17740    1.000
    O166     O        0.98298    0.70783    0.24514    1.000
    O167     O        0.92498    0.95763    0.22391    1.000
    O168     O        0.91850    0.75214    0.43143    1.000
    C300     C        0.91754    0.88660    0.28993    1.000
    C301     C        0.90590    0.87064    0.34323    1.000
    C302     C        0.96477    0.75230    0.22726    1.000
    C303     C        0.91467    0.81660    0.35899    1.000
    C304     C        0.94588    0.79401    0.26843    1.000
    C305     C        0.93580    0.77866    0.32159    1.000
    C306     C        0.93662    0.84776    0.25240    1.000
    C307     C        0.91054    0.94509    0.27082    1.000
    C308     C        0.82320    0.16400    0.26970    1.000
    H208     H        0.78830    0.14940    0.26770    1.000
    C309     C        0.90111    0.79695    0.41594    1.000
    C310     C        0.83560    0.21910    0.26870    1.000
    H209     H        0.81140    0.24820    0.26590    1.000
    C311     C        0.89140    0.22122    0.27270    1.000
    H210     H        0.91210    0.25310    0.27300    1.000
    C312     C        0.97780    0.04240    0.35740    1.000
    H211     H        0.95630    0.01010    0.36270    1.000
    H212     H        0.01350    0.03240    0.34460    1.000
    H213     H        0.98110    0.06160    0.39140    1.000
    H214     H        0.89210    0.89360    0.36600    1.000
    H215     H        0.94090    0.85740    0.21440    1.000
    H216     H        0.94400    0.74200    0.33300    1.000
