data_functionalizedCrystal
_audit_creation_method	'EQeq! by Chris Wilmer'
_symmetry_space_group_name_H-M	'P1'
_symmetry_Int_Tables_number	1
_symmetry_cell_setting	triclinic
loop_
_symmetry_equiv_pos_as_xyz
  x,y,z
_cell_length_a	11.3972
_cell_length_b	11.8255
_cell_length_c	18.9914
_cell_angle_alpha	90
_cell_angle_beta	90
_cell_angle_gamma	118.038
loop_
_atom_site_label
_atom_site_type_symbol
_atom_site_fract_x
_atom_site_fract_y
_atom_site_fract_z
_atom_site_charge
Mof_Co	Co	0.31629	0.16796	0.50568	1.138
Mof_Co	Co	0.18371	0.33204	0.00568	1.134
Mof_Co	Co	0.68371	0.83204	0.49432	1.151
Mof_Co	Co	0.81629	0.66796	0.99432	1.154
Mof_Co	Co	0.5	0.5	0.5	1.2
Mof_Co	Co	-0	0	-0	1.165
Mof_H 	H 	0.5383	0.1115	0.3354	0.041
Mof_H 	H 	0.839	0.4948	0.2335	0.07
Mof_H 	H 	0.7046	0.4926	0.3212	0.039
Mof_H 	H 	0.9183	0.3731	0.153	0.053
Mof_H 	H 	0.7414	0.9918	0.1631	0.068
Mof_H 	H 	0.6127	0.9907	0.2525	0.098
Mof_H 	H 	0.2077	0.4913	0.5528	0.086
Mof_H 	H 	0.1445	0.6491	0.6042	0.105
Mof_H 	H 	0.9921	0.2579	0.3964	0.107
Mof_H 	H 	0.1613	0.9355	0.5307	0.063
Mof_H 	H 	0.3538	0.9383	0.5491	0.117
Mof_H 	H 	0.2723	0.8228	0.4959	0.131
Mof_H 	H 	0.3842	0.956	0.4652	0.132
Mof_H 	H 	0.0721	0.9459	0.428	0.112
Mof_H 	H 	0.1086	0.8305	0.4249	0.128
Mof_H 	H 	0.2089	0.9644	0.3886	0.128
Mof_H 	H 	0.9617	0.3885	0.8354	0.055
Mof_H 	H 	0.661	0.0052	0.7335	0.057
Mof_H 	H 	0.7954	0.0074	0.8212	0.031
Mof_H 	H 	0.5817	0.1269	0.653	0.04
Mof_H 	H 	0.7586	0.5082	0.6631	0.04
Mof_H 	H 	0.8873	0.5093	0.7525	0.072
Mof_H 	H 	0.2923	0.0087	0.0528	0.098
Mof_H 	H 	0.3555	0.8509	0.1042	0.103
Mof_H 	H 	0.5079	0.2421	0.8964	0.062
Mof_H 	H 	0.3387	0.5645	0.0307	0.042
Mof_H 	H 	0.1462	0.5617	0.0491	0.148
Mof_H 	H 	0.2277	0.6772	0.9959	0.191
Mof_H 	H 	0.1158	0.544	0.9652	0.178
Mof_H 	H 	0.4279	0.5541	0.928	0.121
Mof_H 	H 	0.3914	0.6695	0.9249	0.144
Mof_H 	H 	0.2911	0.5356	0.8886	0.129
Mof_H 	H 	0.4617	0.8885	0.6646	0.054
Mof_H 	H 	0.161	0.5052	0.7665	0.058
Mof_H 	H 	0.2954	0.5074	0.6788	0.033
Mof_H 	H 	0.0817	0.6269	0.847	0.039
Mof_H 	H 	0.2586	0.0082	0.8369	0.006
Mof_H 	H 	0.3873	0.0093	0.7475	0.032
Mof_H 	H 	0.7923	0.5087	0.4472	0.039
Mof_H 	H 	0.8555	0.3509	0.3958	0.023
Mof_H 	H 	0.0079	0.7421	0.6036	-0.03
Mof_H 	H 	0.8387	0.0645	0.4693	0.064
Mof_H 	H 	0.6462	0.0617	0.4509	0.097
Mof_H 	H 	0.7277	0.1772	0.5041	0.127
Mof_H 	H 	0.6158	0.044	0.5348	0.11
Mof_H 	H 	0.9279	0.0541	0.572	0.113
Mof_H 	H 	0.8914	0.1695	0.5751	0.14
Mof_H 	H 	0.7911	0.0356	0.6114	0.12
Mof_H 	H 	0.0383	0.6115	0.1646	0.039
Mof_H 	H 	0.339	0.9948	0.2665	0.072
Mof_H 	H 	0.2046	0.9926	0.1788	0.044
Mof_H 	H 	0.4183	0.8731	0.347	0.052
Mof_H 	H 	0.2414	0.4918	0.3369	0.038
Mof_H 	H 	0.1127	0.4907	0.2475	0.056
Mof_H 	H 	0.7077	0.9913	0.9472	0.028
Mof_H 	H 	0.6445	0.1491	0.8958	0.03
Mof_H 	H 	0.4921	0.7579	0.1036	0.006
Mof_H 	H 	0.6613	0.4355	0.9693	0.082
Mof_H 	H 	0.8538	0.4383	0.9509	0.069
Mof_H 	H 	0.7723	0.3228	0.0041	0.074
Mof_H 	H 	0.8842	0.456	0.0348	0.071
Mof_H 	H 	0.5721	0.4459	0.072	0.101
Mof_H 	H 	0.6086	0.3305	0.0751	0.121
Mof_H 	H 	0.7089	0.4644	0.1114	0.117
Mof_C 	C 	0.5176	0.3012	0.3957	0.368
Mof_C 	C 	0.606	0.2998	0.33722	-0.089
Mof_C 	C 	0.5986	0.1869	0.31442	-0.051
Mof_C 	C 	0.6804	0.1837	0.25911	0.035
Mof_C 	C 	0.7738	0.3006	0.22827	0.018
Mof_C 	C 	0.7804	0.4165	0.25327	-0.096
Mof_C 	C 	0.6994	0.4161	0.30565	0.013
Mof_C 	C 	0.8564	0.2973	0.17371	-0.034
Mof_C 	C 	0.8469	0.184	0.14934	-0.091
Mof_C 	C 	0.9384	0.1817	0.0928	0.401
Mof_C 	C 	0.7513	0.068	0.17971	-0.009
Mof_C 	C 	0.6716	0.0672	0.23295	-0.144
Mof_C 	C 	0.1957	0.2963	0.47957	0.289
Mof_C 	C 	0.1149	0.3659	0.47643	-0.006
Mof_C 	C 	0.1381	0.4628	0.52197	-0.124
Mof_C 	C 	0.054	0.5219	0.52389	0.083
Mof_C 	C 	0.0743	0.6212	0.57205	-0.216
Mof_C 	C 	0.0066	0.3232	0.42839	-0.156
Mof_C 	C 	0.3171	0.9171	0.50142	-0.333
Mof_C 	C 	0.1446	0.9226	0.42689	-0.32
Mof_C 	C 	0.9824	0.1988	0.8957	0.399
Mof_C 	C 	0.894	0.2002	0.83722	-0.094
Mof_C 	C 	0.9014	0.3131	0.81442	-0.039
Mof_C 	C 	0.8196	0.3163	0.75911	0.028
Mof_C 	C 	0.7262	0.1994	0.72827	0.017
Mof_C 	C 	0.7196	0.0835	0.75327	-0.098
Mof_C 	C 	0.8006	0.0839	0.80565	0.016
Mof_C 	C 	0.6436	0.2027	0.67371	-0.034
Mof_C 	C 	0.6531	0.316	0.64934	-0.094
Mof_C 	C 	0.5616	0.3183	0.5928	0.372
Mof_C 	C 	0.7487	0.432	0.67971	0.024
Mof_C 	C 	0.8284	0.4328	0.73295	-0.104
Mof_C 	C 	0.3043	0.2037	0.97957	0.31
Mof_C 	C 	0.3851	0.1341	0.97643	0.014
Mof_C 	C 	0.3619	0.0372	0.02197	-0.206
Mof_C 	C 	0.446	0.9781	0.02389	0.162
Mof_C 	C 	0.4257	0.8788	0.07205	-0.199
Mof_C 	C 	0.4934	0.1768	0.92839	-0.079
Mof_C 	C 	0.1829	0.5829	0.00142	-0.489
Mof_C 	C 	0.3554	0.5774	0.92689	-0.34
Mof_C 	C 	0.4824	0.6988	0.6043	0.367
Mof_C 	C 	0.394	0.7002	0.66278	-0.091
Mof_C 	C 	0.4014	0.8131	0.68558	-0.037
Mof_C 	C 	0.3196	0.8163	0.74089	0.013
Mof_C 	C 	0.2262	0.6994	0.77173	0.021
Mof_C 	C 	0.2196	0.5835	0.74673	-0.101
Mof_C 	C 	0.3006	0.5839	0.69435	0.012
Mof_C 	C 	0.1436	0.7027	0.82629	-0.04
Mof_C 	C 	0.1531	0.816	0.85066	-0.093
Mof_C 	C 	0.0616	0.8183	0.9072	0.346
Mof_C 	C 	0.2487	0.932	0.82029	0.054
Mof_C 	C 	0.3284	0.9328	0.76705	-0.063
Mof_C 	C 	0.8043	0.7037	0.52043	0.342
Mof_C 	C 	0.8851	0.6341	0.52357	-0.141
Mof_C 	C 	0.8619	0.5372	0.47803	0.016
Mof_C 	C 	0.946	0.4781	0.47611	-0.032
Mof_C 	C 	0.9257	0.3788	0.42795	0.036
Mof_C 	C 	0.9934	0.6768	0.57161	0.152
Mof_C 	C 	0.6829	0.0829	0.49858	-0.313
Mof_C 	C 	0.8554	0.0774	0.57311	-0.324
Mof_C 	C 	0.0176	0.8012	0.1043	0.332
Mof_C 	C 	0.106	0.7998	0.16278	-0.084
Mof_C 	C 	0.0986	0.6869	0.18558	-0.049
Mof_C 	C 	0.1804	0.6837	0.24089	0.018
Mof_C 	C 	0.2738	0.8006	0.27173	0.023
Mof_C 	C 	0.2804	0.9165	0.24673	-0.099
Mof_C 	C 	0.1994	0.9161	0.19435	0.009
Mof_C 	C 	0.3564	0.7973	0.32629	-0.044
Mof_C 	C 	0.3469	0.684	0.35066	-0.086
Mof_C 	C 	0.4384	0.6817	0.4072	0.368
Mof_C 	C 	0.2513	0.568	0.32029	0.013
Mof_C 	C 	0.1716	0.5672	0.26705	-0.099
Mof_C 	C 	0.6957	0.7963	0.02043	0.325
Mof_C 	C 	0.6149	0.8659	0.02357	-0.16
Mof_C 	C 	0.6381	0.9628	0.97803	0.089
Mof_C 	C 	0.554	0.0219	0.97611	-0.102
Mof_C 	C 	0.5743	0.1212	0.92795	0.005
Mof_C 	C 	0.5066	0.8232	0.07161	0.092
Mof_C 	C 	0.8171	0.4171	0.99858	-0.173
Mof_C 	C 	0.6446	0.4226	0.07311	-0.301
Mof_N 	N 	0.2204	0.9673	0.49339	-0.176
Mof_N 	N 	0.2796	0.5327	0.99339	-0.139
Mof_N 	N 	0.7796	0.0327	0.50661	-0.189
Mof_N 	N 	0.7204	0.4673	0.00661	-0.223
Mof_O 	O 	0.30498	0.34341	0.51437	-0.503
Mof_O 	O 	0.42543	0.195	0.41612	-0.446
Mof_O 	O 	0.54306	0.40985	0.41925	-0.426
Mof_O 	O 	0.02188	0.28912	0.06774	-0.493
Mof_O 	O 	0.9269	0.07452	0.07673	-0.433
Mof_O 	O 	0.15305	0.18885	0.45113	-0.401
Mof_O 	O 	0.19502	0.15659	0.01437	-0.53
Mof_O 	O 	0.07457	0.305	0.91612	-0.457
Mof_O 	O 	0.95694	0.09015	0.91925	-0.421
Mof_O 	O 	0.47812	0.21088	0.56774	-0.463
Mof_O 	O 	0.5731	0.42548	0.57673	-0.424
Mof_O 	O 	0.34695	0.31115	0.95113	-0.384
Mof_O 	O 	0.69502	0.65659	0.48563	-0.51
Mof_O 	O 	0.57457	0.805	0.58388	-0.429
Mof_O 	O 	0.45694	0.59015	0.58075	-0.427
Mof_O 	O 	0.97812	0.71088	0.93226	-0.427
Mof_O 	O 	0.0731	0.92548	0.92327	-0.399
Mof_O 	O 	0.84695	0.81115	0.54887	-0.383
Mof_O 	O 	0.80498	0.84341	0.98563	-0.478
Mof_O 	O 	0.92543	0.695	0.08388	-0.415
Mof_O 	O 	0.04306	0.90985	0.08075	-0.416
Mof_O 	O 	0.52188	0.78912	0.43226	-0.45
Mof_O 	O 	0.4269	0.57452	0.42327	-0.423
Mof_O 	O 	0.65305	0.68885	0.04887	-0.396
_end
