data_functionalizedCrystal
_audit_creation_method	'EQeq! by Chris Wilmer'
_symmetry_space_group_name_H-M	'P1'
_symmetry_Int_Tables_number	1
_symmetry_cell_setting	triclinic
loop_
_symmetry_equiv_pos_as_xyz
  x,y,z
_cell_length_a	32.0208
_cell_length_b	32.0208
_cell_length_c	32.0208
_cell_angle_alpha	109.471
_cell_angle_beta	109.471
_cell_angle_gamma	109.471
loop_
_atom_site_label
_atom_site_type_symbol
_atom_site_fract_x
_atom_site_fract_y
_atom_site_fract_z
_atom_site_charge
Mof_Cd	Cd	-0	0.5	0.37166	0.313
Mof_Cd	Cd	-5.39776e-17	0.5	0.87166	0.311
Mof_Cd	Cd	0.5	0.87166	0.5	0.325
Mof_Cd	Cd	0.5	0	-0	0.38
Mof_Cd	Cd	0.37166	0.37166	0.87166	0.325
Mof_Cd	Cd	0.5	0.12834	0.5	0.321
Mof_Cd	Cd	-1.79925e-17	3.5985e-17	0.5	0.378
Mof_Cd	Cd	1.79925e-17	0.5	0.62834	0.31
Mof_Cd	Cd	0.5	0.5	0.5	0.405
Mof_Cd	Cd	0.62834	0.62834	0.12834	0.323
Mof_Cd	Cd	0.87166	0.87166	0.37166	0.328
Mof_Cd	Cd	0.37166	0	-0	0.3
Mof_Cd	Cd	0.12834	0.12834	0.62834	0.32
Mof_Cd	Cd	0.5	0.5	-0	0.392
Mof_Cd	Cd	0.12834	0	-0	0.299
Mof_Cd	Cd	0.5	3.5985e-17	0.5	0.391
Mof_Cd	Cd	0.62834	0	-0	0.302
Mof_Cd	Cd	-0	0.5	-0	0.38
Mof_Cd	Cd	-1.79925e-17	0.5	0.5	0.392
Mof_Cd	Cd	0.87166	0	-0	0.304
Mof_Cd	Cd	0.5	0.37166	0.5	0.323
Mof_Cd	Cd	4.49813e-18	0.5	0.12834	0.313
Mof_Cd	Cd	-0	0	-0	0.368
Mof_Cd	Cd	0.5	0.62834	0.5	0.324
Mof_Si	Si	0.25	0.375	0.125	0.886
Mof_Si	Si	0.625	0.375	0.25	0.88
Mof_Si	Si	0.875	0.125	0.75	0.881
Mof_Si	Si	0.125	0.875	0.25	0.879
Mof_Si	Si	0.375	0.625	0.75	0.881
Mof_Si	Si	0.625	0.25	0.875	0.874
Mof_Si	Si	0.75	0.625	0.875	0.875
Mof_Si	Si	0.75	0.125	0.375	0.888
Mof_Si	Si	0.875	0.75	0.625	0.875
Mof_Si	Si	0.375	0.75	0.125	0.887
Mof_Si	Si	0.125	0.25	0.375	0.886
Mof_Si	Si	0.25	0.875	0.625	0.873
Mof_H 	H 	0.9563	0.6651	0.5532	0.108
Mof_H 	H 	0.4031	0.4468	0.1119	0.111
Mof_H 	H 	0.2087	0.616	0.9781	0.124
Mof_H 	H 	0.5219	0.7306	0.1379	0.1
Mof_H 	H 	0.7912	0.4563	0.4031	0.106
Mof_H 	H 	0.6412	0.5692	0.846	-0.031
Mof_H 	H 	0.8881	0.8349	0.7912	0.101
Mof_H 	H 	0.1205	0.7948	0.2739	-0.041
Mof_H 	H 	0.3349	0.9468	0.5437	0.107
Mof_H 	H 	0.1379	0.9073	0.116	0.099
Mof_H 	H 	0.8466	0.7261	0.5209	-0.04
Mof_H 	H 	0.154	0.2232	0.2952	-0.042
Mof_H 	H 	0.2087	0.5927	0.7306	0.1
Mof_H 	H 	0.0969	0.8881	0.5532	0.096
Mof_H 	H 	0.3881	0.7912	0.8349	0.107
Mof_H 	H 	0.9308	0.8588	0.654	-0.033
Mof_H 	H 	0.0219	0.1379	0.7306	0.073
Mof_H 	H 	0.3466	0.8257	0.1205	-0.041
Mof_H 	H 	0.6651	0.6119	0.7088	0.105
Mof_H 	H 	0.7694	0.7913	0.9073	0.102
Mof_H 	H 	0.2261	0.3466	0.0209	-0.053
Mof_H 	H 	0.154	0.9308	0.3588	-0.04
Mof_H 	H 	0.5692	0.346	0.1412	-0.037
Mof_H 	H 	0.1534	0.8795	0.1743	-0.04
Mof_H 	H 	0.384	0.8621	0.5927	0.1
Mof_H 	H 	0.2048	0.3588	0.428	-0.037
Mof_H 	H 	0.2232	0.7952	0.654	-0.035
Mof_H 	H 	0.928	0.7232	0.5692	-0.034
Mof_H 	H 	0.4468	0.6119	0.9031	0.108
Mof_H 	H 	0.5209	0.2261	0.8466	-0.041
Mof_H 	H 	0.7088	0.5969	0.5437	0.105
Mof_H 	H 	0.2948	0.6205	0.7739	-0.04
Mof_H 	H 	0.5692	0.2232	0.928	-0.034
Mof_H 	H 	0.1412	0.2952	0.072	-0.039
Mof_H 	H 	0.1743	0.7948	0.5209	-0.04
Mof_H 	H 	0.2768	0.9308	0.572	-0.035
Mof_H 	H 	0.7087	0.7306	0.5927	0.1
Mof_H 	H 	0.428	0.8588	0.2048	-0.035
Mof_H 	H 	0.9308	0.072	0.7768	-0.036
Mof_H 	H 	0.2694	0.9073	0.7913	0.101
Mof_H 	H 	0.9073	0.2913	0.7694	0.102
Mof_H 	H 	0.2052	0.2261	0.3795	-0.042
Mof_H 	H 	0.2052	0.9791	0.3257	-0.028
Mof_H 	H 	0.1119	0.9468	0.4031	0.113
Mof_H 	H 	0.0437	0.7088	0.0969	0.1
Mof_H 	H 	0.3588	0.4308	0.154	-0.041
Mof_H 	H 	0.072	0.2768	0.4308	-0.038
Mof_H 	H 	0.6379	0.5219	0.2306	0.1
Mof_H 	H 	0.846	0.0692	0.6412	-0.032
Mof_H 	H 	0.4781	0.2694	0.8621	0.099
Mof_H 	H 	0.7739	0.1205	0.2948	-0.04
Mof_H 	H 	0.2306	0.2087	0.0927	0.098
Mof_H 	H 	0.5532	0.1651	0.9563	0.106
Mof_H 	H 	0.572	0.4308	0.2768	-0.036
Mof_H 	H 	0.1743	0.3795	0.1534	-0.041
Mof_H 	H 	0.3621	0.4781	0.7694	0.1
Mof_H 	H 	0.4031	0.9563	0.7912	0.108
Mof_H 	H 	0.0927	0.384	0.3621	0.099
Mof_H 	H 	0.616	0.1379	0.4073	0.099
Mof_H 	H 	0.1379	0.2306	0.5219	0.099
Mof_H 	H 	0.7052	0.3257	0.9791	-0.028
Mof_H 	H 	0.1205	0.3257	0.3466	-0.041
Mof_H 	H 	0.6651	0.0532	0.4563	0.104
Mof_H 	H 	0.6119	0.4031	0.9468	0.107
Mof_H 	H 	0.6205	0.2739	0.7948	-0.04
Mof_H 	H 	0.0437	0.3349	0.4468	0.103
Mof_H 	H 	0.7087	0.9781	0.616	0.126
Mof_H 	H 	0.3621	0.884	0.0927	0.101
Mof_H 	H 	0.0209	0.8466	0.2261	-0.052
Mof_H 	H 	0.4468	0.8349	0.0437	0.105
Mof_H 	H 	0.2912	0.4031	0.4563	0.105
Mof_H 	H 	0.3257	0.8466	0.6205	-0.039
Mof_H 	H 	0.0219	0.884	0.7913	0.076
Mof_H 	H 	0.8466	0.1205	0.8257	-0.04
Mof_H 	H 	0.1651	0.7088	0.6119	0.104
Mof_H 	H 	0.5219	0.7913	0.884	0.103
Mof_H 	H 	0.3588	0.928	0.7048	-0.034
Mof_H 	H 	0.2306	0.0219	0.6379	0.073
Mof_H 	H 	0.654	0.2952	0.2232	-0.036
Mof_H 	H 	0.8795	0.2052	0.7261	-0.04
Mof_H 	H 	0.346	0.7048	0.7768	-0.036
Mof_H 	H 	0.8588	0.7048	0.928	-0.033
Mof_H 	H 	0.4073	0.7694	0.2913	0.1
Mof_H 	H 	0.8881	0.0532	0.5969	0.098
Mof_H 	H 	0.8588	0.154	0.4308	-0.04
Mof_H 	H 	0.2739	0.9791	0.6534	-0.028
Mof_H 	H 	0.2913	0.0219	0.384	0.072
Mof_H 	H 	0.2948	0.6743	0.0209	-0.052
Mof_H 	H 	0.654	0.3588	0.9308	-0.034
Mof_H 	H 	0.9563	0.2912	0.9031	0.11
Mof_H 	H 	0.5969	0.0437	0.2088	0.103
Mof_H 	H 	0.346	0.6412	0.0692	-0.038
Mof_H 	H 	0.9073	0.616	0.6379	0.101
Mof_H 	H 	0.5532	0.3881	0.0969	0.102
Mof_H 	H 	0.616	0.4781	0.7087	0.099
Mof_H 	H 	0.4781	0.2087	0.116	0.097
Mof_H 	H 	0.4308	0.7768	0.072	-0.038
Mof_H 	H 	0.6743	0.5209	0.7948	-0.04
Mof_H 	H 	0.8257	0.6205	0.8466	-0.039
Mof_H 	H 	0.2912	0.8881	0.3349	0.099
Mof_H 	H 	0.5209	0.2948	0.1743	-0.041
Mof_H 	H 	0.2768	0.346	0.2048	-0.037
Mof_H 	H 	0.072	0.7952	0.1412	-0.038
Mof_H 	H 	0.572	0.1412	0.7952	-0.036
Mof_H 	H 	0.4563	0.5532	0.6651	0.105
Mof_H 	H 	0.7088	0.1119	0.6651	0.111
Mof_H 	H 	0.0969	0.2088	0.0437	0.101
Mof_H 	H 	0.0532	0.9563	0.1651	0.105
Mof_H 	H 	0.5437	0.4468	0.3349	0.105
Mof_H 	H 	0.7948	0.0209	0.6743	-0.052
Mof_H 	H 	0.6534	0.1743	0.8795	-0.04
Mof_H 	H 	0.884	0.5927	0.8621	0.102
Mof_H 	H 	0.0692	0.928	0.2232	-0.036
Mof_H 	H 	0.3795	0.7261	0.2052	-0.041
Mof_H 	H 	0.1534	0.2739	0.4791	-0.041
Mof_H 	H 	0.0927	0.7087	0.2306	0.098
Mof_H 	H 	0.6412	0.072	0.2952	-0.038
Mof_H 	H 	0.8795	0.6743	0.6534	-0.039
Mof_H 	H 	0.7912	0.3349	0.8881	0.1
Mof_H 	H 	0.5927	0.3621	0.384	0.099
Mof_H 	H 	0.7768	0.2048	0.346	-0.037
Mof_H 	H 	0.7739	0.6534	0.9791	-0.027
Mof_H 	H 	0.8349	0.2912	0.3881	0.107
Mof_H 	H 	0.846	0.7768	0.7048	-0.03
Mof_H 	H 	0.2739	0.2948	0.1205	-0.041
Mof_H 	H 	0.7261	0.0209	0.3466	-0.053
Mof_H 	H 	0.4563	0.9031	0.2912	0.108
Mof_H 	H 	0.3881	0.5969	0.0532	0.103
Mof_H 	H 	0.7261	0.7052	0.8795	-0.039
Mof_H 	H 	0.4791	0.7739	0.1534	-0.04
Mof_H 	H 	0.7306	0.6379	0.0219	0.075
Mof_H 	H 	0.2952	0.7232	0.154	-0.041
Mof_H 	H 	0.7913	0.4073	0.2694	0.1
Mof_H 	H 	0.7232	0.654	0.7952	-0.035
Mof_H 	H 	0.2088	0.6651	0.1119	0.111
Mof_H 	H 	0.7913	0.384	0.0219	0.075
Mof_H 	H 	0.5437	0.0969	0.7088	0.102
Mof_H 	H 	0.7768	0.572	0.9308	-0.034
Mof_H 	H 	0.4791	0.7052	0.8257	-0.04
Mof_H 	H 	0.384	0.5219	0.2913	0.1
Mof_H 	H 	0.7948	0.7739	0.6205	-0.039
Mof_H 	H 	0.6119	0.2088	0.1651	0.104
Mof_H 	H 	0.2913	0.2694	0.4073	0.099
Mof_H 	H 	0.8349	0.5437	0.9468	0.108
Mof_H 	H 	0.9031	0.7912	0.9563	0.11
Mof_H 	H 	0.1651	0.4563	0.0532	0.103
Mof_H 	H 	0.6205	0.3466	0.3257	-0.04
Mof_H 	H 	0.8257	0.2052	0.4791	-0.041
Mof_H 	H 	0.8621	0.7694	0.4781	0.101
Mof_H 	H 	0.1412	0.846	0.5692	-0.032
Mof_H 	H 	0.9781	0.116	0.2087	0.125
Mof_H 	H 	0.4073	0.6379	0.616	0.1
Mof_H 	H 	0.4308	0.654	0.8588	-0.035
Mof_H 	H 	0.2232	0.428	0.0692	-0.038
Mof_H 	H 	0.9031	0.1119	0.4468	0.114
Mof_H 	H 	0.7048	0.2768	0.846	-0.031
Mof_H 	H 	0.428	0.5692	0.7232	-0.036
Mof_H 	H 	0.3257	0.4791	0.2052	-0.041
Mof_H 	H 	0.6534	0.4791	0.2739	-0.04
Mof_H 	H 	0.7952	0.6412	0.572	-0.035
Mof_H 	H 	0.2088	0.5437	0.5969	0.105
Mof_H 	H 	0.7052	0.3795	0.2261	-0.041
Mof_H 	H 	0.7952	0.154	0.7232	-0.041
Mof_H 	H 	0.2952	0.572	0.6412	-0.036
Mof_H 	H 	0.1119	0.1651	0.2088	0.11
Mof_H 	H 	0.2048	0.846	0.2768	-0.031
Mof_H 	H 	0.0692	0.1412	0.346	-0.039
Mof_H 	H 	0.5969	0.5532	0.8881	0.099
Mof_H 	H 	0.9468	0.9031	0.6119	0.11
Mof_H 	H 	0.116	0.4073	0.1379	0.098
Mof_H 	H 	0.2694	0.3621	0.9781	0.125
Mof_H 	H 	0.7232	0.0692	0.428	-0.037
Mof_H 	H 	0.9791	0.8257	0.7052	-0.027
Mof_H 	H 	0.116	0.7087	0.4781	0.098
Mof_H 	H 	0.3466	0.5209	0.7261	-0.041
Mof_H 	H 	0.8621	0.0927	0.884	0.102
Mof_H 	H 	0.3795	0.6534	0.6743	-0.04
Mof_H 	H 	0.9791	0.1534	0.7739	-0.028
Mof_H 	H 	0.9781	0.8621	0.2694	0.126
Mof_H 	H 	0.6743	0.1534	0.3795	-0.041
Mof_H 	H 	0.884	0.2913	0.5219	0.102
Mof_H 	H 	0.7694	0.9781	0.3621	0.127
Mof_H 	H 	0.5927	0.2306	0.7087	0.099
Mof_H 	H 	0.0532	0.0969	0.3881	0.101
Mof_H 	H 	0.7306	0.0927	0.2087	0.099
Mof_H 	H 	0.2261	0.8795	0.7052	-0.04
Mof_H 	H 	0.7048	0.428	0.3588	-0.036
Mof_H 	H 	0.0209	0.1743	0.2948	-0.053
Mof_H 	H 	0.3349	0.3881	0.2912	0.105
Mof_H 	H 	0.928	0.2048	0.8588	-0.034
Mof_H 	H 	0.6379	0.116	0.9073	0.1
Mof_H 	H 	0.9468	0.0437	0.8349	0.106
Mof_C 	C 	0.09298	0.92605	0.36691	-0.211
Mof_C 	C 	0.03974	0.86716	0.26234	0.199
Mof_C 	C 	0.77766	0.65961	0.57627	0.171
Mof_C 	C 	0.67258	0.13284	0.39518	0.174
Mof_C 	C 	0.63309	0.05914	0.22607	-0.195
Mof_C 	C 	0.56433	0.40559	0.3647	0.103
Mof_C 	C 	0.67258	0.53974	0.7774	0.172
Mof_C 	C 	0.08334	0.92373	0.20139	0.171
Mof_C 	C 	0.1353	0.69963	0.54089	0.102
Mof_C 	C 	0.40038	0.61293	0.70501	-0.351
Mof_C 	C 	0.59862	0.08519	0.45371	0.077
Mof_C 	C 	0.48585	0.77382	0.86193	-0.192
Mof_C 	C 	0.45911	0.65874	0.09441	0.103
Mof_C 	C 	0.01343	0.09862	0.14491	0.056
Mof_C 	C 	0.38707	0.59208	0.78745	-0.351
Mof_C 	C 	0.30037	0.34126	0.43567	0.104
Mof_C 	C 	0.27766	0.70139	0.11805	0.187
Mof_C 	C 	0.33307	0.92605	0.55914	-0.192
Mof_C 	C 	0.6353	0.09441	0.43567	0.103
Mof_C 	C 	0.98585	0.12392	0.71203	-0.144
Mof_C 	C 	0.92373	0.70139	0.58334	0.172
Mof_C 	C 	0.22618	0.58811	0.71203	-0.192
Mof_C 	C 	0.88707	0.78745	0.59208	-0.349
Mof_C 	C 	0.42373	0.84039	0.22234	0.174
Mof_C 	C 	0.8647	0.56433	0.90559	0.106
Mof_C 	C 	0.39518	0.76234	0.2226	0.175
Mof_C 	C 	0.27382	0.28797	0.41189	-0.193
Mof_C 	C 	0.90792	0.79499	0.69537	-0.336
Mof_C 	C 	0.07395	0.13309	0.40702	-0.195
Mof_C 	C 	0.16693	0.72607	0.59298	-0.193
Mof_C 	C 	0.90038	0.70501	0.61293	-0.349
Mof_C 	C 	0.91481	0.86852	0.51343	0.08
Mof_C 	C 	0.35509	0.98657	0.40138	0.1
Mof_C 	C 	0.12392	0.91189	0.13807	-0.192
Mof_C 	C 	0.2774	0.67258	0.03974	0.199
Mof_C 	C 	0.08811	0.36193	0.37608	-0.193
Mof_C 	C 	0.51415	0.22618	0.13807	-0.192
Mof_C 	C 	0.89518	0.67258	0.63284	0.173
Mof_C 	C 	0.77393	0.44086	0.36691	-0.194
Mof_C 	C 	0.13148	0.98657	0.58519	0.099
Mof_C 	C 	0.05914	0.33307	0.42605	-0.195
Mof_C 	C 	0.04629	0.40138	0.41481	0.077
Mof_C 	C 	0.16693	0.44086	0.07395	-0.195
Mof_C 	C 	0.37608	0.86193	0.08811	-0.193
Mof_C 	C 	0.40702	0.63309	0.07395	-0.195
Mof_C 	C 	0.61293	0.20501	0.90038	-0.348
Mof_C 	C 	0.08519	0.13148	0.48657	0.076
Mof_C 	C 	0.40138	0.91481	0.54629	0.08
Mof_C 	C 	0.04089	0.90559	0.34126	0.127
Mof_C 	C 	0.63148	0.04629	0.14491	0.077
Mof_C 	C 	0.32742	0.46026	0.2226	0.174
Mof_C 	C 	0.15961	0.27766	0.07627	0.171
Mof_C 	C 	0.86691	0.09298	0.42605	-0.214
Mof_C 	C 	0.72618	0.01415	0.63807	-0.238
Mof_C 	C 	0.62392	0.48585	0.21203	-0.191
Mof_C 	C 	0.15874	0.95911	0.59441	0.078
Mof_C 	C 	0.36716	0.82742	0.10482	0.175
Mof_C 	C 	0.80037	0.43567	0.34126	0.104
Mof_C 	C 	0.90702	0.83307	0.77393	-0.175
Mof_C 	C 	0.22607	0.66693	0.09298	-0.212
Mof_C 	C 	0.40038	0.78745	0.19537	-0.353
Mof_C 	C 	0.27393	0.90702	0.33307	-0.175
Mof_C 	C 	0.64491	0.01343	0.59862	0.057
Mof_C 	C 	0.14491	0.54629	0.63148	0.078
Mof_C 	C 	0.70139	0.08334	0.42373	0.173
Mof_C 	C 	0.1353	0.43567	0.09441	0.102
Mof_C 	C 	0.29499	0.88707	0.59962	-0.348
Mof_C 	C 	0.59208	0.28745	0.88707	-0.348
Mof_C 	C 	0.72607	0.63309	0.55914	-0.193
Mof_C 	C 	0.35509	0.36852	0.45371	0.078
Mof_C 	C 	0.44086	0.57395	0.66693	-0.194
Mof_C 	C 	0.13309	0.22607	0.05914	-0.195
Mof_C 	C 	0.84126	0.04089	0.40559	0.129
Mof_C 	C 	0.01343	0.91481	0.36852	0.059
Mof_C 	C 	0.08519	0.95371	0.09862	0.078
Mof_C 	C 	0.72234	0.42373	0.34039	0.172
Mof_C 	C 	0.65874	0.06433	0.19963	0.103
Mof_C 	C 	0.59208	0.30463	0.20501	-0.351
Mof_C 	C 	0.91189	0.63807	0.62392	-0.191
Mof_C 	C 	0.20501	0.80463	0.59208	-0.348
Mof_C 	C 	0.69537	0.29499	0.90792	-0.335
Mof_C 	C 	0.59441	0.45911	0.15874	0.102
Mof_C 	C 	0.2774	0.60482	0.73766	0.173
Mof_C 	C 	0.09862	0.64491	0.51343	0.078
Mof_C 	C 	0.66693	0.59298	0.72607	-0.193
Mof_C 	C 	0.11293	0.90038	0.20501	-0.351
Mof_C 	C 	0.71255	0.61293	0.90792	-0.336
Mof_C 	C 	0.58334	0.20139	0.92373	0.171
Mof_C 	C 	0.08811	0.72618	0.21203	-0.191
Mof_C 	C 	0.72607	0.09298	0.66693	-0.212
Mof_C 	C 	0.58519	0.48657	0.13148	0.078
Mof_C 	C 	0.13309	0.90702	0.57395	-0.174
Mof_C 	C 	0.70501	0.11293	0.40038	-0.354
Mof_C 	C 	0.26234	0.36716	0.03974	0.2
Mof_C 	C 	0.59962	0.38707	0.29499	-0.351
Mof_C 	C 	0.51343	0.36852	0.91481	0.079
Mof_C 	C 	0.09441	0.93567	0.1353	0.103
Mof_C 	C 	0.6353	0.54089	0.69963	0.103
Mof_C 	C 	0.27393	0.36691	0.44086	-0.195
Mof_C 	C 	0.73766	0.10482	0.2774	0.174
Mof_C 	C 	0.51343	0.14491	0.09862	0.077
Mof_C 	C 	0.13148	0.14491	0.04629	0.076
Mof_C 	C 	0.11805	0.91666	0.34039	0.186
Mof_C 	C 	0.26234	0.89518	0.7226	0.173
Mof_C 	C 	0.86716	0.10482	0.82742	0.174
Mof_C 	C 	0.09298	0.16693	0.22607	-0.214
Mof_C 	C 	0.41666	0.79861	0.07627	0.173
Mof_C 	C 	0.17258	0.7774	0.53974	0.17
Mof_C 	C 	0.41666	0.61805	0.84039	0.173
Mof_C 	C 	0.87608	0.78797	0.51415	-0.191
Mof_C 	C 	0.13807	0.72618	0.51415	-0.191
Mof_C 	C 	0.41189	0.62392	0.63807	-0.192
Mof_C 	C 	0.15961	0.88195	0.58334	0.155
Mof_C 	C 	0.27766	0.57627	0.65961	0.172
Mof_C 	C 	0.32742	0.86716	0.60482	0.172
Mof_C 	C 	0.46026	0.7226	0.82742	0.175
Mof_C 	C 	0.15874	0.19963	0.06433	0.101
Mof_C 	C 	0.2226	0.96026	0.32742	0.146
Mof_C 	C 	0.57395	0.40702	0.13309	-0.194
Mof_C 	C 	0.29861	0.91666	0.57627	0.171
Mof_C 	C 	0.01415	0.87608	0.28797	-0.237
Mof_C 	C 	0.54629	0.41481	0.40138	0.078
Mof_C 	C 	0.63309	0.57395	0.90702	-0.175
Mof_C 	C 	0.40792	0.71255	0.11293	-0.353
Mof_C 	C 	0.77382	0.41189	0.28797	-0.192
Mof_C 	C 	0.42605	0.59298	0.86691	-0.194
Mof_C 	C 	0.79861	0.57627	0.91666	0.172
Mof_C 	C 	0.34126	0.40559	0.04089	0.127
Mof_C 	C 	0.43567	0.59441	0.6353	0.104
Mof_C 	C 	0.77393	0.33307	0.90702	-0.175
Mof_C 	C 	0.58811	0.21203	0.72618	-0.19
Mof_C 	C 	0.63148	0.58519	0.98657	0.099
Mof_C 	C 	0.22234	0.34039	0.42373	0.173
Mof_C 	C 	0.07627	0.77766	0.15961	0.17
Mof_C 	C 	0.98585	0.86193	0.77382	-0.145
Mof_C 	C 	0.63807	0.51415	0.72618	-0.191
Mof_C 	C 	0.11805	0.20139	0.27766	0.187
Mof_C 	C 	0.28745	0.38707	0.09208	-0.366
Mof_C 	C 	0.95911	0.09441	0.65874	0.079
Mof_C 	C 	0.76234	0.7226	0.89518	0.174
Mof_C 	C 	0.58334	0.38195	0.15961	0.171
Mof_C 	C 	0.57395	0.16693	0.94086	-0.193
Mof_C 	C 	0.22234	0.88195	0.29861	0.157
Mof_C 	C 	0.59298	0.22607	0.16693	-0.194
Mof_C 	C 	0.82742	0.60482	0.86716	0.173
Mof_C 	C 	0.85509	0.40138	0.98657	0.1
Mof_C 	C 	0.94086	0.27393	0.86691	-0.194
Mof_C 	C 	0.88195	0.79861	0.72234	0.158
Mof_C 	C 	0.78797	0.01415	0.37608	-0.24
Mof_C 	C 	0.43567	0.84126	0.30037	0.106
Mof_C 	C 	0.01415	0.13807	0.22618	-0.24
Mof_C 	C 	0.63284	0.46026	0.23766	0.172
Mof_C 	C 	0.38195	0.65961	0.08334	0.173
Mof_C 	C 	0.65961	0.07627	0.27766	0.172
Mof_C 	C 	0.93567	0.30037	0.84126	0.107
Mof_C 	C 	0.17258	0.39518	0.13284	0.173
Mof_C 	C 	0.13284	0.89518	0.17258	0.173
Mof_C 	C 	0.45371	0.86852	0.35509	0.079
Mof_C 	C 	0.27382	0.98585	0.36193	-0.143
Mof_C 	C 	0.79861	0.22234	0.38195	0.174
Mof_C 	C 	0.40702	0.77393	0.83307	-0.194
Mof_C 	C 	0.87608	0.08811	0.86193	-0.192
Mof_C 	C 	0.90138	0.54629	0.91481	0.081
Mof_C 	C 	0.71203	0.08811	0.22618	-0.193
Mof_C 	C 	0.30037	0.95911	0.3647	0.079
Mof_C 	C 	0.58519	0.09862	0.95371	0.079
Mof_C 	C 	0.7774	0.03974	0.67258	0.199
Mof_C 	C 	0.19963	0.6353	0.04089	0.126
Mof_C 	C 	0.28797	0.91189	0.77382	-0.191
Mof_C 	C 	0.51415	0.28797	0.87608	-0.191
Mof_C 	C 	0.41481	0.51343	0.86852	0.079
Mof_C 	C 	0.65961	0.58334	0.88195	0.157
Mof_C 	C 	0.95371	0.59862	0.58519	0.08
Mof_C 	C 	0.80037	0.3647	0.95911	0.081
Mof_C 	C 	0.03974	0.17258	0.2774	0.2
Mof_C 	C 	0.94086	0.66693	0.57395	-0.193
Mof_C 	C 	0.08334	0.15961	0.38195	0.171
Mof_C 	C 	0.13284	0.23766	0.46026	0.173
Mof_C 	C 	0.19537	0.90792	0.29499	-0.336
Mof_C 	C 	0.84039	0.72234	0.92373	0.173
Mof_C 	C 	0.91666	0.84039	0.61805	0.172
Mof_C 	C 	0.53974	0.26234	0.86716	0.172
Mof_C 	C 	0.21203	0.98585	0.62392	-0.143
Mof_C 	C 	0.20139	0.77766	0.61805	0.169
Mof_C 	C 	0.7226	0.32742	0.96026	0.146
Mof_C 	C 	0.78745	0.09208	0.38707	-0.367
Mof_C 	C 	0.40559	0.54089	0.84126	0.105
Mof_C 	C 	0.09962	0.29499	0.38707	-0.353
Mof_C 	C 	0.60482	0.36716	0.32742	0.173
Mof_C 	C 	0.3647	0.90559	0.56433	0.104
Mof_C 	C 	0.38195	0.72234	0.79861	0.173
Mof_C 	C 	0.90559	0.06433	0.8647	0.105
Mof_C 	C 	0.21203	0.22618	0.08811	-0.193
Mof_C 	C 	0.7774	0.73766	0.60482	0.172
Mof_C 	C 	0.62392	0.13807	0.91189	-0.191
Mof_C 	C 	0.48657	0.63148	0.08519	0.077
Mof_C 	C 	0.57627	0.15961	0.77766	0.169
Mof_C 	C 	0.34126	0.93567	0.80037	0.105
Mof_C 	C 	0.41189	0.78797	0.27382	-0.193
Mof_C 	C 	0.61805	0.27766	0.20139	0.171
Mof_C 	C 	0.46026	0.73766	0.13284	0.174
Mof_C 	C 	0.36716	0.53974	0.76234	0.174
Mof_C 	C 	0.56433	0.15874	0.69963	0.102
Mof_C 	C 	0.85509	0.45371	0.36852	0.079
Mof_C 	C 	0.06433	0.3647	0.40559	0.103
Mof_C 	C 	0.91481	0.04629	0.90138	0.079
Mof_C 	C 	0.12392	0.21203	0.48585	-0.193
Mof_C 	C 	0.77766	0.11805	0.70139	0.186
Mof_C 	C 	0.77382	0.36193	0.98585	-0.145
Mof_C 	C 	0.92605	0.86691	0.59298	-0.193
Mof_C 	C 	0.98657	0.90138	0.85509	0.101
Mof_C 	C 	0.76234	0.03974	0.36716	0.202
Mof_C 	C 	0.40559	0.8647	0.06433	0.105
Mof_C 	C 	0.09441	0.15874	0.45911	0.102
Mof_C 	C 	0.07395	0.94086	0.16693	-0.194
Mof_C 	C 	0.36852	0.41481	0.01343	0.058
Mof_C 	C 	0.29861	0.38195	0.22234	0.173
Mof_C 	C 	0.3647	0.45911	0.30037	0.104
Mof_C 	C 	0.72618	0.71203	0.58811	-0.19
Mof_C 	C 	0.28797	0.37608	0.01415	-0.238
Mof_C 	C 	0.80463	0.09208	0.70501	-0.365
Mof_C 	C 	0.84126	0.80037	0.93567	0.107
Mof_C 	C 	0.95371	0.35509	0.86852	0.08
Mof_C 	C 	0.22607	0.55914	0.63309	-0.194
Mof_C 	C 	0.71203	0.62392	0.98585	-0.145
Mof_C 	C 	0.38707	0.79499	0.09962	-0.354
Mof_C 	C 	0.82742	0.2226	0.46026	0.176
Mof_C 	C 	0.19963	0.56433	0.65874	0.103
Mof_C 	C 	0.79499	0.59962	0.88707	-0.349
Mof_C 	C 	0.93567	0.6353	0.59441	0.105
Mof_C 	C 	0.36691	0.42605	0.09298	-0.213
Mof_C 	C 	0.63807	0.12392	0.41189	-0.193
Mof_C 	C 	0.91666	0.07627	0.79861	0.173
Mof_C 	C 	0.09208	0.20501	0.30463	-0.367
Mof_C 	C 	0.55914	0.42605	0.33307	-0.194
Mof_C 	C 	0.48585	0.71203	0.12392	-0.193
Mof_C 	C 	0.55914	0.13309	0.72607	-0.193
Mof_C 	C 	0.57627	0.41666	0.29861	0.172
Mof_C 	C 	0.54629	0.13148	0.64491	0.078
Mof_C 	C 	0.80463	0.71255	0.59962	-0.349
Mof_C 	C 	0.10482	0.7774	0.23766	0.171
Mof_C 	C 	0.59298	0.36691	0.92605	-0.192
Mof_C 	C 	0.29499	0.40792	0.19537	-0.353
Mof_C 	C 	0.91189	0.27382	0.78797	-0.192
Mof_C 	C 	0.86852	0.85509	0.95371	0.081
Mof_C 	C 	0.34039	0.92373	0.72234	0.172
Mof_C 	C 	0.86193	0.58811	0.87608	-0.191
Mof_C 	C 	0.92373	0.22234	0.84039	0.174
Mof_C 	C 	0.8647	0.30037	0.45911	0.106
Mof_C 	C 	0.83307	0.55914	0.92605	-0.193
Mof_C 	C 	0.69537	0.40038	0.28745	-0.351
Mof_C 	C 	0.86716	0.76234	0.53974	0.173
Mof_C 	C 	0.63284	0.17258	0.89518	0.172
Mof_C 	C 	0.42373	0.58334	0.70139	0.172
Mof_C 	C 	0.69963	0.04089	0.6353	0.127
Mof_C 	C 	0.59441	0.1353	0.93567	0.104
Mof_C 	C 	0.30463	0.70501	0.09208	-0.366
Mof_C 	C 	0.36852	0.95371	0.85509	0.08
Mof_C 	C 	0.06433	0.69963	0.15874	0.101
Mof_C 	C 	0.86193	0.27382	0.48585	-0.193
Mof_C 	C 	0.88195	0.08334	0.65961	0.157
Mof_C 	C 	0.09962	0.80463	0.21255	-0.351
Mof_C 	C 	0.66693	0.07395	0.44086	-0.195
Mof_C 	C 	0.88707	0.09962	0.79499	-0.351
Mof_C 	C 	0.36193	0.87608	0.58811	-0.191
Mof_C 	C 	0.58811	0.37608	0.36193	-0.192
Mof_C 	C 	0.40792	0.69537	0.79499	-0.351
Mof_C 	C 	0.22618	0.63807	0.01415	-0.237
Mof_C 	C 	0.60482	0.23766	0.7774	0.171
Mof_C 	C 	0.78745	0.69537	0.90038	-0.349
Mof_C 	C 	0.96026	0.13284	0.73766	0.146
Mof_C 	C 	0.05914	0.72607	0.13309	-0.194
Mof_C 	C 	0.86852	0.01343	0.41481	0.058
Mof_C 	C 	0.23766	0.2774	0.10482	0.173
Mof_C 	C 	0.07627	0.29861	0.41666	0.172
Mof_C 	C 	0.21255	0.30463	0.09962	-0.353
Mof_C 	C 	0.20501	0.40038	0.11293	-0.353
Mof_C 	C 	0.59962	0.21255	0.80463	-0.349
Mof_C 	C 	0.86691	0.77393	0.94086	-0.193
Mof_C 	C 	0.45371	0.58519	0.59862	0.079
Mof_C 	C 	0.30463	0.59962	0.71255	-0.351
Mof_C 	C 	0.90702	0.07395	0.63309	-0.175
Mof_C 	C 	0.90792	0.11293	0.71255	-0.337
Mof_C 	C 	0.41481	0.90138	0.04629	0.078
Mof_C 	C 	0.98657	0.08519	0.63148	0.099
Mof_C 	C 	0.84039	0.11805	0.41666	0.189
Mof_C 	C 	0.09862	0.45371	0.08519	0.076
Mof_C 	C 	0.95911	0.8647	0.80037	0.082
Mof_C 	C 	0.59862	0.51343	0.64491	0.079
Mof_C 	C 	0.79499	0.19537	0.40792	-0.354
Mof_C 	C 	0.70501	0.59208	0.80463	-0.349
Mof_C 	C 	0.37608	0.51415	0.78797	-0.192
Mof_C 	C 	0.13807	0.41189	0.12392	-0.193
Mof_C 	C 	0.28745	0.90038	0.69537	-0.348
Mof_C 	C 	0.70139	0.61805	0.77766	0.171
Mof_C 	C 	0.44086	0.86691	0.27393	-0.195
Mof_C 	C 	0.89518	0.2226	0.76234	0.175
Mof_C 	C 	0.54089	0.19963	0.1353	0.102
Mof_C 	C 	0.96026	0.82742	0.7226	0.147
Mof_C 	C 	0.2226	0.26234	0.39518	0.175
Mof_C 	C 	0.64491	0.63148	0.54629	0.079
Mof_C 	C 	0.73766	0.63284	0.96026	0.146
Mof_C 	C 	0.39518	0.63284	0.67258	0.173
Mof_C 	C 	0.10482	0.32742	0.36716	0.174
Mof_C 	C 	0.04629	0.64491	0.13148	0.077
Mof_C 	C 	0.72234	0.29861	0.88195	0.157
Mof_C 	C 	0.33307	0.40702	0.27393	-0.195
Mof_C 	C 	0.23766	0.96026	0.63284	0.144
Mof_C 	C 	0.83307	0.27393	0.40702	-0.195
Mof_C 	C 	0.45911	0.80037	0.8647	0.106
Mof_C 	C 	0.90138	0.35509	0.48657	0.079
Mof_C 	C 	0.90038	0.19537	0.78745	-0.351
Mof_C 	C 	0.65874	0.59441	0.95911	0.081
Mof_C 	C 	0.04089	0.1353	0.19963	0.126
Mof_C 	C 	0.69963	0.65874	0.56433	0.103
Mof_C 	C 	0.71255	0.09962	0.30463	-0.354
Mof_C 	C 	0.34039	0.41666	0.11805	0.187
Mof_C 	C 	0.54089	0.34126	0.90559	0.104
Mof_C 	C 	0.21255	0.90792	0.61293	-0.335
Mof_C 	C 	0.42605	0.83307	0.05914	-0.195
Mof_C 	C 	0.40138	0.48657	0.35509	0.078
Mof_C 	C 	0.48657	0.85509	0.90138	0.08
Mof_C 	C 	0.61805	0.34039	0.91666	0.171
Mof_C 	C 	0.61293	0.40792	0.21255	-0.351
Mof_C 	C 	0.36193	0.48585	0.27382	-0.193
Mof_C 	C 	0.19537	0.28745	0.40038	-0.353
Mof_C 	C 	0.53974	0.2774	0.17258	0.172
Mof_C 	C 	0.11293	0.21255	0.40792	-0.353
Mof_C 	C 	0.78797	0.77382	0.91189	-0.191
Mof_C 	C 	0.36691	0.94086	0.77393	-0.193
Mof_C 	C 	0.20139	0.42373	0.08334	0.172
Mof_C 	C 	0.7226	0.39518	0.26234	0.173
Mof_C 	C 	0.92605	0.05914	0.83307	-0.194
Mof_C 	C 	0.14491	0.59862	0.01343	0.058
Mof_C 	C 	0.90559	0.84126	0.54089	0.106
Mof_C 	C 	0.09208	0.88707	0.28745	-0.364
Mof_N 	N 	0.03523	0.08245	0.1184	-0.085
Mof_N 	N 	0.07463	0.00386	0.55391	-0.073
Mof_N 	N 	0.07762	0.61555	0.46303	-0.095
Mof_N 	N 	0.52176	0.40603	0.45273	-0.074
Mof_N 	N 	0.47928	0.92537	0.42923	-0.061
Mof_N 	N 	0.8816	0.41755	0.96477	-0.077
Mof_N 	N 	0.56903	0.9533	0.54727	-0.072
Mof_N 	N 	0.58317	0.03595	0.1184	-0.083
Mof_N 	N 	0.42238	0.88541	0.53793	-0.093
Mof_N 	N 	0.61573	0.02176	0.06903	-0.077
Mof_N 	N 	0.54722	0.08245	0.96405	-0.08
Mof_N 	N 	0.11555	0.57762	0.96303	-0.085
Mof_N 	N 	0.44609	0.94995	0.02072	-0.062
Mof_N 	N 	0.41683	0.45278	0.03523	-0.084
Mof_N 	N 	0.53793	0.38541	0.42238	-0.094
Mof_N 	N 	0.1184	0.58245	0.03523	-0.083
Mof_N 	N 	0.93097	0.47824	0.38427	-0.069
Mof_N 	N 	0.95278	0.91683	0.53523	-0.076
Mof_N 	N 	0.04722	0.08317	0.46477	-0.085
Mof_N 	N 	0.88427	0.9533	0.40603	-0.072
Mof_N 	N 	0.49614	0.07077	0.05005	-0.067
Mof_N 	N 	0.15252	0.11555	0.03793	-0.096
Mof_N 	N 	0.11555	0.53793	0.65252	-0.094
Mof_N 	N 	0.44995	0.94609	0.52072	-0.061
Mof_N 	N 	0.90603	0.02176	0.95273	-0.07
Mof_N 	N 	0.09397	0.11573	0.5467	-0.075
Mof_N 	N 	0.88445	0.42238	0.03697	-0.102
Mof_N 	N 	0.61459	0.07762	0.96207	-0.092
Mof_N 	N 	0.03793	0.42238	0.38541	-0.095
Mof_N 	N 	0.08317	0.96477	0.54722	-0.08
Mof_N 	N 	0.07762	0.46207	0.11459	-0.095
Mof_N 	N 	0.55005	0.05391	0.47928	-0.066
Mof_N 	N 	0.44995	0.50386	0.42923	-0.065
Mof_N 	N 	0.55391	0.50386	0.07463	-0.066
Mof_N 	N 	0.88427	0.93097	0.97824	-0.064
Mof_N 	N 	0.53793	0.15252	0.61555	-0.094
Mof_N 	N 	0.53595	0.45278	0.41755	-0.081
Mof_N 	N 	0.52072	0.44609	0.44995	-0.065
Mof_N 	N 	0.02176	0.56903	0.11573	-0.076
Mof_N 	N 	0.08317	0.1184	0.03595	-0.085
Mof_N 	N 	0.38541	0.46303	0.84748	-0.094
Mof_N 	N 	0.97824	0.43097	0.88427	-0.069
Mof_N 	N 	0.96405	0.58245	0.54722	-0.079
Mof_N 	N 	0.58245	0.53523	0.6184	-0.081
Mof_N 	N 	0.52072	0.07463	0.57077	-0.066
Mof_N 	N 	0.53523	0.1184	0.08245	-0.083
Mof_N 	N 	0.88541	0.03793	0.92238	-0.092
Mof_N 	N 	0.92537	0.99614	0.44609	-0.051
Mof_N 	N 	0.44609	0.49614	0.92537	-0.061
Mof_N 	N 	0.02176	0.45273	0.40603	-0.075
Mof_N 	N 	0.8816	0.46405	0.41683	-0.08
Mof_N 	N 	0.45278	0.53523	0.91683	-0.078
Mof_N 	N 	0.53595	0.08317	0.6184	-0.083
Mof_N 	N 	0.95278	0.03595	0.91755	-0.078
Mof_N 	N 	0.84748	0.88445	0.96207	-0.089
Mof_N 	N 	0.96303	0.07762	0.11555	-0.085
Mof_N 	N 	0.50386	0.57463	0.05391	-0.066
Mof_N 	N 	0.9533	0.04727	0.06903	-0.075
Mof_N 	N 	0.92923	0.47928	0.42537	-0.06
Mof_N 	N 	0.59397	0.04727	0.97824	-0.071
Mof_N 	N 	0.08245	0.6184	0.53523	-0.082
Mof_N 	N 	0.53697	0.88445	0.92238	-0.09
Mof_N 	N 	0.9533	0.90603	0.38427	-0.071
Mof_N 	N 	0.0467	0.09397	0.61573	-0.076
Mof_N 	N 	0.42923	0.42537	0.47928	-0.065
Mof_N 	N 	0.38427	0.40603	0.9533	-0.073
Mof_N 	N 	0.11573	0.0467	0.59397	-0.076
Mof_N 	N 	0.45273	0.5467	0.43097	-0.074
Mof_N 	N 	0.95273	0.43097	0.5467	-0.069
Mof_N 	N 	0.05391	0.07463	0.50386	-0.067
Mof_N 	N 	0.00386	0.05391	0.57463	-0.073
Mof_N 	N 	0.3816	0.96477	0.41755	-0.078
Mof_N 	N 	0.61573	0.59397	0.0467	-0.075
Mof_N 	N 	0.03697	0.92238	0.88445	-0.1
Mof_N 	N 	0.11573	0.06903	0.02176	-0.077
Mof_N 	N 	0.92537	0.92923	0.97928	-0.053
Mof_N 	N 	0.57077	0.57463	0.52072	-0.065
Mof_N 	N 	0.91683	0.03523	0.45278	-0.081
Mof_N 	N 	0.56903	0.61573	0.52176	-0.074
Mof_N 	N 	0.15252	0.03697	0.61459	-0.104
Mof_N 	N 	0.5467	0.93097	0.95273	-0.065
Mof_N 	N 	0.65252	0.03793	0.11555	-0.095
Mof_N 	N 	0.93097	0.45273	0.0467	-0.07
Mof_N 	N 	0.91755	0.3816	0.46477	-0.079
Mof_N 	N 	0.91755	0.53595	0.95278	-0.076
Mof_N 	N 	0.97928	0.42923	0.92537	-0.056
Mof_N 	N 	0.4533	0.06903	0.04727	-0.077
Mof_N 	N 	0.46477	0.8816	0.91755	-0.078
Mof_N 	N 	0.92238	0.53793	0.88541	-0.091
Mof_N 	N 	0.53697	0.65252	0.11459	-0.094
Mof_N 	N 	0.99614	0.05005	0.07077	-0.057
Mof_N 	N 	0.42238	0.53697	0.38445	-0.094
Mof_N 	N 	0.40603	0.95273	0.02176	-0.071
Mof_N 	N 	0.05391	0.97928	0.05005	-0.062
Mof_N 	N 	0.99614	0.94609	0.42537	-0.051
Mof_N 	N 	0.46207	0.61459	0.57762	-0.093
Mof_N 	N 	0.04727	0.56903	0.4533	-0.075
Mof_N 	N 	0.42923	0.00386	0.44995	-0.072
Mof_N 	N 	0.04727	0.47824	0.09397	-0.076
Mof_N 	N 	0.53523	0.41683	0.95278	-0.078
Mof_N 	N 	0.57762	0.46303	0.61555	-0.094
Mof_N 	N 	0.90603	0.88427	0.4533	-0.072
Mof_N 	N 	0.92238	0.38445	0.53697	-0.091
Mof_N 	N 	0.52176	0.11573	0.56903	-0.075
Mof_N 	N 	0.5467	0.61573	0.09397	-0.074
Mof_N 	N 	0.05005	0.47928	0.05391	-0.067
Mof_N 	N 	0.03793	0.61555	0.15252	-0.095
Mof_N 	N 	0.61555	0.65252	0.53793	-0.093
Mof_N 	N 	0.97824	0.54727	0.59397	-0.069
Mof_N 	N 	0.08245	0.46405	0.04722	-0.085
Mof_N 	N 	0.49614	0.42537	0.94609	-0.061
Mof_N 	N 	0.43097	0.38427	0.47824	-0.074
Mof_N 	N 	0.1184	0.53595	0.58317	-0.081
Mof_N 	N 	0.57463	0.55391	0.00386	-0.072
Mof_N 	N 	0.96303	0.88541	0.34748	-0.083
Mof_N 	N 	0.88445	0.46207	0.34748	-0.092
Mof_N 	N 	0.95273	0.52176	0.90603	-0.069
Mof_N 	N 	0.96207	0.38445	0.84748	-0.091
Mof_N 	N 	0.96405	0.3816	0.91683	-0.076
Mof_N 	N 	0.00386	0.94995	0.92923	-0.064
Mof_N 	N 	0.34748	0.96207	0.88445	-0.09
Mof_N 	N 	0.54722	0.46477	0.08317	-0.083
Mof_N 	N 	0.47824	0.88427	0.43097	-0.073
Mof_N 	N 	0.84748	0.96303	0.38541	-0.083
Mof_N 	N 	0.3816	0.41683	0.46405	-0.081
Mof_N 	N 	0.11459	0.15252	0.53697	-0.095
Mof_N 	N 	0.47928	0.55391	0.55005	-0.065
Mof_N 	N 	0.96207	0.57762	0.61459	-0.091
Mof_N 	N 	0.94609	0.92537	0.49614	-0.057
Mof_N 	N 	0.03595	0.41755	0.45278	-0.083
Mof_N 	N 	0.6184	0.03523	0.58245	-0.084
Mof_N 	N 	0.88541	0.84748	0.46303	-0.093
Mof_N 	N 	0.92923	0.44995	0.00386	-0.067
Mof_N 	N 	0.91683	0.8816	0.96405	-0.076
Mof_N 	N 	0.58245	0.04722	0.46405	-0.083
Mof_N 	N 	0.94609	0.02072	0.94995	-0.058
Mof_N 	N 	0.96477	0.04722	0.58317	-0.08
Mof_N 	N 	0.03595	0.6184	0.08317	-0.084
Mof_N 	N 	0.46477	0.58317	0.04722	-0.083
Mof_N 	N 	0.07463	0.07077	0.02072	-0.069
Mof_N 	N 	0.4533	0.38427	0.90603	-0.073
Mof_N 	N 	0.34748	0.38541	0.96303	-0.084
Mof_N 	N 	0.11459	0.96207	0.07762	-0.093
Mof_N 	N 	0.41755	0.46477	0.3816	-0.081
Mof_N 	N 	0.57463	0.02072	0.07077	-0.067
Mof_N 	N 	0.97928	0.55005	0.55391	-0.06
Mof_N 	N 	0.46207	0.84748	0.38445	-0.093
Mof_N 	N 	0.54727	0.4533	0.56903	-0.074
Mof_N 	N 	0.43097	0.0467	0.45273	-0.076
Mof_N 	N 	0.38445	0.34748	0.46207	-0.094
Mof_N 	N 	0.46405	0.91683	0.3816	-0.078
Mof_N 	N 	0.04722	0.96405	0.08245	-0.082
Mof_N 	N 	0.06903	0.54727	0.9533	-0.074
Mof_N 	N 	0.58317	0.54722	0.96477	-0.078
Mof_N 	N 	0.61555	0.96303	0.57762	-0.083
Mof_N 	N 	0.03697	0.11459	0.65252	-0.104
Mof_N 	N 	0.50386	0.92923	0.94995	-0.056
Mof_N 	N 	0.38427	0.97824	0.93097	-0.065
Mof_N 	N 	0.57762	0.11459	0.46207	-0.094
Mof_N 	N 	0.05005	0.57077	0.49614	-0.066
Mof_N 	N 	0.42537	0.44609	0.99614	-0.055
Mof_N 	N 	0.41755	0.95278	0.53595	-0.078
Mof_N 	N 	0.0467	0.95273	0.93097	-0.066
Mof_N 	N 	0.6184	0.58317	0.53595	-0.081
Mof_N 	N 	0.94995	0.52072	0.94609	-0.057
Mof_N 	N 	0.55391	0.05005	0.97928	-0.061
Mof_N 	N 	0.59397	0.5467	0.11573	-0.074
Mof_N 	N 	0.54727	0.09397	0.47824	-0.075
Mof_N 	N 	0.45273	0.90603	0.52176	-0.073
Mof_N 	N 	0.46303	0.11555	0.07762	-0.096
Mof_N 	N 	0.46303	0.34748	0.88541	-0.094
Mof_N 	N 	0.57077	0.99614	0.55005	-0.055
Mof_N 	N 	0.06903	0.52176	0.61573	-0.076
Mof_N 	N 	0.07077	0.55005	0.99614	-0.057
Mof_N 	N 	0.47824	0.59397	0.54727	-0.074
Mof_N 	N 	0.46405	0.54722	0.58245	-0.081
Mof_N 	N 	0.45278	0.91755	0.03595	-0.08
Mof_N 	N 	0.02072	0.57077	0.07463	-0.067
Mof_N 	N 	0.07077	0.52072	0.57463	-0.066
Mof_N 	N 	0.38541	0.92238	0.03793	-0.093
Mof_N 	N 	0.40603	0.4533	0.88427	-0.073
Mof_N 	N 	0.02072	0.44995	0.44609	-0.066
Mof_N 	N 	0.65252	0.61459	0.03697	-0.103
Mof_N 	N 	0.38445	0.03697	0.42238	-0.104
Mof_N 	N 	0.94995	0.42923	0.50386	-0.06
Mof_N 	N 	0.96477	0.91755	0.8816	-0.075
Mof_N 	N 	0.61459	0.53697	0.15252	-0.094
Mof_N 	N 	0.03523	0.95278	0.41683	-0.081
Mof_N 	N 	0.42537	0.97928	0.92923	-0.056
Mof_N 	N 	0.41683	0.96405	0.8816	-0.078
Mof_N 	N 	0.09397	0.97824	0.04727	-0.071
Mof_N 	N 	0.55005	0.49614	0.57077	-0.065
_end
