# CIF file generated by openbabel 3.1.0, see https://openbabel.org
data_I
_chemical_name_common 'image0'
_cell_length_a 23.9792
_cell_length_b 13.3721
_cell_length_c 24.2227
_cell_angle_alpha 90
_cell_angle_beta 112.706
_cell_angle_gamma 90
_space_group_name_H-M_alt 'P 1'
_space_group_name_Hall 'P 1'
loop_
    _symmetry_equiv_pos_as_xyz
    x,y,z
loop_
    _atom_site_label
    _atom_site_type_symbol
    _atom_site_fract_x
    _atom_site_fract_y
    _atom_site_fract_z
    _atom_site_occupancy
    Co1      Co       0.38388    0.64867    0.45159    1.000
    N1       N        0.47050    0.89662    0.29765    1.000
    N2       N        0.43073    0.03028    0.32051    1.000
    N3       N        0.41212    0.51671    0.42087    1.000
    N4       N        0.40792    0.37280    0.37504    1.000
    N5       N        0.16367    0.19137    0.13697    1.000
    N6       N        0.23904    0.20641    0.22457    1.000
    O1       O        0.44414    0.70887    0.19066    1.000
    O2       O        0.37583    0.82878    0.16850    1.000
    O3       O        0.39666    0.42418    0.03586    1.000
    O4       O        0.30849    0.43519    0.96120    1.000
    O5       O        0.96518    0.78801    0.96439    1.000
    O6       O        0.96022    0.64231    0.00699    1.000
    C1       C        0.33422    0.11590    0.27375    1.000
    H1       H        0.31770    0.05910    0.25120    1.000
    C2       C        0.39372    0.11755    0.31365    1.000
    C3       C        0.41920    0.20081    0.34805    1.000
    H2       H        0.45950    0.20060    0.37450    1.000
    C4       C        0.38330    0.28437    0.34217    1.000
    C5       C        0.32345    0.28562    0.30232    1.000
    H3       H        0.29970    0.34220    0.29870    1.000
    C6       C        0.29968    0.20209    0.26823    1.000
    C7       C        0.42866    0.96595    0.27700    1.000
    H4       H        0.40120    0.97000    0.23750    1.000
    C8       C        0.50085    0.91780    0.35732    1.000
    H5       H        0.53310    0.88100    0.38360    1.000
    C9       C        0.47693    0.99970    0.37197    1.000
    H6       H        0.48920    0.02950    0.40950    1.000
    C10      C        0.37708    0.44363    0.39144    1.000
    H7       H        0.33580    0.44070    0.38280    1.000
    C11      C        0.46883    0.49191    0.42383    1.000
    H8       H        0.50330    0.53060    0.44220    1.000
    C12      C        0.46742    0.40390    0.39652    1.000
    H9       H        0.49990    0.37080    0.39280    1.000
    C13      C        0.22033    0.16775    0.16938    1.000
    H10      H        0.24440    0.12890    0.15560    1.000
    C14      C        0.14554    0.24870    0.17434    1.000
    H11      H        0.10730    0.27650    0.16390    1.000
    C15      C        0.19116    0.25880    0.22820    1.000
    H12      H        0.19040    0.29400    0.26110    1.000
    C16      C        0.39153    0.74319    0.16138    1.000
    C17      C        0.34723    0.67476    0.11603    1.000
    C18      C        0.36636    0.59334    0.09194    1.000
    H13      H        0.40720    0.57720    0.10590    1.000
    C19      C        0.32454    0.53617    0.04707    1.000
    C20      C        0.26290    0.55638    0.02923    1.000
    H14      H        0.23490    0.51700    0.99990    1.000
    C21      C        0.24269    0.63437    0.05466    1.000
    C22      C        0.28549    0.69508    0.09675    1.000
    H15      H        0.27270    0.75010    0.11230    1.000
    C23      C        0.34461    0.45956    0.01356    1.000
    C24      C        0.17700    0.65291    0.03624    1.000
    C25      C        0.15367    0.74961    0.02439    1.000
    H16      H        0.17960    0.80340    0.02850    1.000
    C26      C        0.09241    0.76618    0.00654    1.000
    H17      H        0.07720    0.83060    0.99660    1.000
    C27      C        0.05325    0.68785    0.00331    1.000
    C28      C        0.07662    0.59157    0.01530    1.000
    H18      H        0.05100    0.53820    0.01300    1.000
    C29      C        0.13748    0.57426    0.03058    1.000
    H19      H        0.15220    0.50910    0.03720    1.000
    C30      C        0.98760    0.70702    0.99016    1.000
    Co2      Co       0.88388    0.14867    0.45159    1.000
    N7       N        0.97050    0.39662    0.29765    1.000
    N8       N        0.93073    0.53028    0.32051    1.000
    N9       N        0.91212    0.01671    0.42087    1.000
    N10      N        0.90792    0.87280    0.37504    1.000
    N11      N        0.66367    0.69137    0.13697    1.000
    N12      N        0.73904    0.70641    0.22457    1.000
    O7       O        0.94414    0.20887    0.19066    1.000
    O8       O        0.87583    0.32878    0.16850    1.000
    O9       O        0.89666    0.92418    0.03586    1.000
    O10      O        0.80849    0.93519    0.96120    1.000
    O11      O        0.46518    0.28801    0.96439    1.000
    O12      O        0.46022    0.14231    0.00699    1.000
    C31      C        0.83422    0.61590    0.27375    1.000
    H20      H        0.81770    0.55910    0.25120    1.000
    C32      C        0.89372    0.61755    0.31365    1.000
    C33      C        0.91920    0.70081    0.34805    1.000
    H21      H        0.95950    0.70060    0.37450    1.000
    C34      C        0.88330    0.78437    0.34217    1.000
    C35      C        0.82345    0.78562    0.30232    1.000
    H22      H        0.79970    0.84220    0.29870    1.000
    C36      C        0.79968    0.70209    0.26823    1.000
    C37      C        0.92866    0.46595    0.27700    1.000
    H23      H        0.90120    0.47000    0.23750    1.000
    C38      C        0.00085    0.41780    0.35732    1.000
    H24      H        0.03310    0.38100    0.38360    1.000
    C39      C        0.97693    0.49970    0.37197    1.000
    H25      H        0.98920    0.52950    0.40950    1.000
    C40      C        0.87708    0.94363    0.39144    1.000
    H26      H        0.83580    0.94070    0.38280    1.000
    C41      C        0.96883    0.99191    0.42383    1.000
    H27      H        0.00330    0.03060    0.44220    1.000
    C42      C        0.96742    0.90390    0.39652    1.000
    H28      H        0.99990    0.87080    0.39280    1.000
    C43      C        0.72033    0.66775    0.16938    1.000
    H29      H        0.74440    0.62890    0.15560    1.000
    C44      C        0.64554    0.74870    0.17434    1.000
    H30      H        0.60730    0.77650    0.16390    1.000
    C45      C        0.69116    0.75880    0.22820    1.000
    H31      H        0.69040    0.79400    0.26110    1.000
    C46      C        0.89153    0.24319    0.16138    1.000
    C47      C        0.84723    0.17476    0.11603    1.000
    C48      C        0.86636    0.09334    0.09194    1.000
    H32      H        0.90720    0.07720    0.10590    1.000
    C49      C        0.82454    0.03617    0.04707    1.000
    C50      C        0.76290    0.05638    0.02923    1.000
    H33      H        0.73490    0.01700    0.99990    1.000
    C51      C        0.74269    0.13437    0.05466    1.000
    C52      C        0.78549    0.19508    0.09675    1.000
    H34      H        0.77270    0.25010    0.11230    1.000
    C53      C        0.84461    0.95956    0.01356    1.000
    C54      C        0.67700    0.15291    0.03624    1.000
    C55      C        0.65367    0.24961    0.02439    1.000
    H35      H        0.67960    0.30340    0.02850    1.000
    C56      C        0.59241    0.26618    0.00654    1.000
    H36      H        0.57720    0.33060    0.99660    1.000
    C57      C        0.55325    0.18785    0.00331    1.000
    C58      C        0.57662    0.09157    0.01530    1.000
    H37      H        0.55100    0.03820    0.01300    1.000
    C59      C        0.63748    0.07426    0.03058    1.000
    H38      H        0.65220    0.00910    0.03720    1.000
    C60      C        0.48760    0.20702    0.99016    1.000
    Co3      Co       0.61612    0.64867    0.04841    1.000
    N13      N        0.52950    0.89662    0.20235    1.000
    N14      N        0.56927    0.03028    0.17949    1.000
    N15      N        0.58788    0.51671    0.07913    1.000
    N16      N        0.59208    0.37280    0.12496    1.000
    N17      N        0.83633    0.19137    0.36303    1.000
    N18      N        0.76096    0.20641    0.27543    1.000
    O13      O        0.55586    0.70887    0.30934    1.000
    O14      O        0.62417    0.82878    0.33150    1.000
    O15      O        0.60334    0.42418    0.46414    1.000
    O16      O        0.69151    0.43519    0.53880    1.000
    O17      O        0.03482    0.78801    0.53561    1.000
    O18      O        0.03978    0.64231    0.49301    1.000
    C61      C        0.66578    0.11590    0.22625    1.000
    H39      H        0.68230    0.05910    0.24880    1.000
    C62      C        0.60628    0.11755    0.18635    1.000
    C63      C        0.58080    0.20081    0.15195    1.000
    H40      H        0.54050    0.20060    0.12550    1.000
    C64      C        0.61670    0.28437    0.15783    1.000
    C65      C        0.67655    0.28562    0.19768    1.000
    H41      H        0.70030    0.34220    0.20130    1.000
    C66      C        0.70032    0.20209    0.23177    1.000
    C67      C        0.57134    0.96595    0.22300    1.000
    H42      H        0.59880    0.97000    0.26250    1.000
    C68      C        0.49915    0.91780    0.14268    1.000
    H43      H        0.46690    0.88100    0.11640    1.000
    C69      C        0.52307    0.99970    0.12803    1.000
    H44      H        0.51080    0.02950    0.09050    1.000
    C70      C        0.62292    0.44363    0.10856    1.000
    H45      H        0.66420    0.44070    0.11720    1.000
    C71      C        0.53117    0.49191    0.07617    1.000
    H46      H        0.49670    0.53060    0.05780    1.000
    C72      C        0.53258    0.40390    0.10348    1.000
    H47      H        0.50010    0.37080    0.10720    1.000
    C73      C        0.77967    0.16775    0.33062    1.000
    H48      H        0.75560    0.12890    0.34440    1.000
    C74      C        0.85446    0.24870    0.32566    1.000
    H49      H        0.89270    0.27650    0.33610    1.000
    C75      C        0.80884    0.25880    0.27180    1.000
    H50      H        0.80960    0.29400    0.23890    1.000
    C76      C        0.60847    0.74319    0.33862    1.000
    C77      C        0.65277    0.67476    0.38397    1.000
    C78      C        0.63364    0.59334    0.40806    1.000
    H51      H        0.59280    0.57720    0.39410    1.000
    C79      C        0.67546    0.53617    0.45293    1.000
    C80      C        0.73710    0.55638    0.47077    1.000
    H52      H        0.76510    0.51700    0.50010    1.000
    C81      C        0.75731    0.63437    0.44534    1.000
    C82      C        0.71451    0.69508    0.40325    1.000
    H53      H        0.72730    0.75010    0.38770    1.000
    C83      C        0.65539    0.45956    0.48644    1.000
    C84      C        0.82300    0.65291    0.46376    1.000
    C85      C        0.84633    0.74961    0.47561    1.000
    H54      H        0.82040    0.80340    0.47150    1.000
    C86      C        0.90759    0.76618    0.49346    1.000
    H55      H        0.92280    0.83060    0.50340    1.000
    C87      C        0.94675    0.68785    0.49669    1.000
    C88      C        0.92338    0.59157    0.48470    1.000
    H56      H        0.94900    0.53820    0.48700    1.000
    C89      C        0.86252    0.57426    0.46942    1.000
    H57      H        0.84780    0.50910    0.46280    1.000
    C90      C        0.01240    0.70702    0.50984    1.000
    Co4      Co       0.11612    0.14867    0.04841    1.000
    N19      N        0.02950    0.39662    0.20235    1.000
    N20      N        0.06927    0.53028    0.17949    1.000
    N21      N        0.08788    0.01671    0.07913    1.000
    N22      N        0.09208    0.87280    0.12496    1.000
    N23      N        0.33633    0.69137    0.36303    1.000
    N24      N        0.26096    0.70641    0.27543    1.000
    O19      O        0.05586    0.20887    0.30934    1.000
    O20      O        0.12417    0.32878    0.33150    1.000
    O21      O        0.10334    0.92418    0.46414    1.000
    O22      O        0.19151    0.93519    0.53880    1.000
    O23      O        0.53482    0.28801    0.53561    1.000
    O24      O        0.53978    0.14231    0.49301    1.000
    C91      C        0.16578    0.61590    0.22625    1.000
    H58      H        0.18230    0.55910    0.24880    1.000
    C92      C        0.10628    0.61755    0.18635    1.000
    C93      C        0.08080    0.70081    0.15195    1.000
    H59      H        0.04050    0.70060    0.12550    1.000
    C94      C        0.11670    0.78437    0.15783    1.000
    C95      C        0.17655    0.78562    0.19768    1.000
    H60      H        0.20030    0.84220    0.20130    1.000
    C96      C        0.20032    0.70209    0.23177    1.000
    C97      C        0.07134    0.46595    0.22300    1.000
    H61      H        0.09880    0.47000    0.26250    1.000
    C98      C        0.99915    0.41780    0.14268    1.000
    H62      H        0.96690    0.38100    0.11640    1.000
    C99      C        0.02307    0.49970    0.12803    1.000
    H63      H        0.01080    0.52950    0.09050    1.000
    C100     C        0.12292    0.94363    0.10856    1.000
    H64      H        0.16420    0.94070    0.11720    1.000
    C101     C        0.03117    0.99191    0.07617    1.000
    H65      H        0.99670    0.03060    0.05780    1.000
    C102     C        0.03258    0.90390    0.10348    1.000
    H66      H        0.00010    0.87080    0.10720    1.000
    C103     C        0.27967    0.66775    0.33062    1.000
    H67      H        0.25560    0.62890    0.34440    1.000
    C104     C        0.35446    0.74870    0.32566    1.000
    H68      H        0.39270    0.77650    0.33610    1.000
    C105     C        0.30884    0.75880    0.27180    1.000
    H69      H        0.30960    0.79400    0.23890    1.000
    C106     C        0.10847    0.24319    0.33862    1.000
    C107     C        0.15277    0.17476    0.38397    1.000
    C108     C        0.13364    0.09334    0.40806    1.000
    H70      H        0.09280    0.07720    0.39410    1.000
    C109     C        0.17546    0.03617    0.45293    1.000
    C110     C        0.23710    0.05638    0.47077    1.000
    H71      H        0.26510    0.01700    0.50010    1.000
    C111     C        0.25731    0.13437    0.44534    1.000
    C112     C        0.21451    0.19508    0.40325    1.000
    H72      H        0.22730    0.25010    0.38770    1.000
    C113     C        0.15539    0.95956    0.48644    1.000
    C114     C        0.32300    0.15291    0.46376    1.000
    C115     C        0.34633    0.24961    0.47561    1.000
    H73      H        0.32040    0.30340    0.47150    1.000
    C116     C        0.40759    0.26618    0.49346    1.000
    H74      H        0.42280    0.33060    0.50340    1.000
    C117     C        0.44675    0.18785    0.49669    1.000
    C118     C        0.42338    0.09157    0.48470    1.000
    H75      H        0.44900    0.03820    0.48700    1.000
    C119     C        0.36252    0.07426    0.46942    1.000
    H76      H        0.34780    0.00910    0.46280    1.000
    C120     C        0.51240    0.20702    0.50984    1.000
    Co5      Co       0.61612    0.35133    0.54841    1.000
    N25      N        0.52950    0.10338    0.70235    1.000
    N26      N        0.56927    0.96972    0.67949    1.000
    N27      N        0.58788    0.48329    0.57913    1.000
    N28      N        0.59208    0.62720    0.62496    1.000
    N29      N        0.83633    0.80863    0.86303    1.000
    N30      N        0.76096    0.79359    0.77543    1.000
    O25      O        0.55586    0.29113    0.80934    1.000
    O26      O        0.62417    0.17122    0.83150    1.000
    O27      O        0.60334    0.57582    0.96414    1.000
    O28      O        0.69151    0.56481    0.03880    1.000
    O29      O        0.03482    0.21199    0.03561    1.000
    O30      O        0.03978    0.35769    0.99301    1.000
    C121     C        0.66578    0.88410    0.72625    1.000
    H77      H        0.68230    0.94090    0.74880    1.000
    C122     C        0.60628    0.88245    0.68635    1.000
    C123     C        0.58080    0.79919    0.65195    1.000
    H78      H        0.54050    0.79940    0.62550    1.000
    C124     C        0.61670    0.71563    0.65783    1.000
    C125     C        0.67655    0.71438    0.69768    1.000
    H79      H        0.70030    0.65780    0.70130    1.000
    C126     C        0.70032    0.79791    0.73177    1.000
    C127     C        0.57134    0.03405    0.72300    1.000
    H80      H        0.59880    0.03000    0.76250    1.000
    C128     C        0.49915    0.08220    0.64268    1.000
    H81      H        0.46690    0.11900    0.61640    1.000
    C129     C        0.52307    0.00030    0.62803    1.000
    H82      H        0.51080    0.97050    0.59050    1.000
    C130     C        0.62292    0.55637    0.60856    1.000
    H83      H        0.66420    0.55930    0.61720    1.000
    C131     C        0.53117    0.50809    0.57617    1.000
    H84      H        0.49670    0.46940    0.55780    1.000
    C132     C        0.53258    0.59610    0.60348    1.000
    H85      H        0.50010    0.62920    0.60720    1.000
    C133     C        0.77967    0.83225    0.83062    1.000
    H86      H        0.75560    0.87110    0.84440    1.000
    C134     C        0.85446    0.75130    0.82566    1.000
    H87      H        0.89270    0.72350    0.83610    1.000
    C135     C        0.80884    0.74120    0.77180    1.000
    H88      H        0.80960    0.70600    0.73890    1.000
    C136     C        0.60847    0.25681    0.83862    1.000
    C137     C        0.65277    0.32524    0.88397    1.000
    C138     C        0.63364    0.40666    0.90806    1.000
    H89      H        0.59280    0.42280    0.89410    1.000
    C139     C        0.67546    0.46383    0.95293    1.000
    C140     C        0.73710    0.44362    0.97077    1.000
    H90      H        0.76510    0.48300    0.00010    1.000
    C141     C        0.75731    0.36563    0.94534    1.000
    C142     C        0.71451    0.30492    0.90325    1.000
    H91      H        0.72730    0.24990    0.88770    1.000
    C143     C        0.65539    0.54044    0.98644    1.000
    C144     C        0.82300    0.34709    0.96376    1.000
    C145     C        0.84633    0.25039    0.97561    1.000
    H92      H        0.82040    0.19660    0.97150    1.000
    C146     C        0.90759    0.23382    0.99346    1.000
    H93      H        0.92280    0.16940    0.00340    1.000
    C147     C        0.94675    0.31215    0.99669    1.000
    C148     C        0.92338    0.40843    0.98470    1.000
    H94      H        0.94900    0.46180    0.98700    1.000
    C149     C        0.86252    0.42574    0.96942    1.000
    H95      H        0.84780    0.49090    0.96280    1.000
    C150     C        0.01240    0.29298    0.00984    1.000
    Co6      Co       0.11612    0.85133    0.54841    1.000
    N31      N        0.02950    0.60338    0.70235    1.000
    N32      N        0.06927    0.46972    0.67949    1.000
    N33      N        0.08788    0.98329    0.57913    1.000
    N34      N        0.09208    0.12720    0.62496    1.000
    N35      N        0.33633    0.30863    0.86303    1.000
    N36      N        0.26096    0.29359    0.77543    1.000
    O31      O        0.05586    0.79113    0.80934    1.000
    O32      O        0.12417    0.67122    0.83150    1.000
    O33      O        0.10334    0.07582    0.96414    1.000
    O34      O        0.19151    0.06481    0.03880    1.000
    O35      O        0.53482    0.71199    0.03561    1.000
    O36      O        0.53978    0.85769    0.99301    1.000
    C151     C        0.16578    0.38410    0.72625    1.000
    H96      H        0.18230    0.44090    0.74880    1.000
    C152     C        0.10628    0.38245    0.68635    1.000
    C153     C        0.08080    0.29919    0.65195    1.000
    H97      H        0.04050    0.29940    0.62550    1.000
    C154     C        0.11670    0.21563    0.65783    1.000
    C155     C        0.17655    0.21438    0.69768    1.000
    H98      H        0.20030    0.15780    0.70130    1.000
    C156     C        0.20032    0.29791    0.73177    1.000
    C157     C        0.07134    0.53405    0.72300    1.000
    H99      H        0.09880    0.53000    0.76250    1.000
    C158     C        0.99915    0.58220    0.64268    1.000
    H100     H        0.96690    0.61900    0.61640    1.000
    C159     C        0.02307    0.50030    0.62803    1.000
    H101     H        0.01080    0.47050    0.59050    1.000
    C160     C        0.12292    0.05637    0.60856    1.000
    H102     H        0.16420    0.05930    0.61720    1.000
    C161     C        0.03117    0.00809    0.57617    1.000
    H103     H        0.99670    0.96940    0.55780    1.000
    C162     C        0.03258    0.09610    0.60348    1.000
    H104     H        0.00010    0.12920    0.60720    1.000
    C163     C        0.27967    0.33225    0.83062    1.000
    H105     H        0.25560    0.37110    0.84440    1.000
    C164     C        0.35446    0.25130    0.82566    1.000
    H106     H        0.39270    0.22350    0.83610    1.000
    C165     C        0.30884    0.24120    0.77180    1.000
    H107     H        0.30960    0.20600    0.73890    1.000
    C166     C        0.10847    0.75681    0.83862    1.000
    C167     C        0.15277    0.82524    0.88397    1.000
    C168     C        0.13364    0.90666    0.90806    1.000
    H108     H        0.09280    0.92280    0.89410    1.000
    C169     C        0.17546    0.96383    0.95293    1.000
    C170     C        0.23710    0.94362    0.97077    1.000
    H109     H        0.26510    0.98300    0.00010    1.000
    C171     C        0.25731    0.86563    0.94534    1.000
    C172     C        0.21451    0.80492    0.90325    1.000
    H110     H        0.22730    0.74990    0.88770    1.000
    C173     C        0.15539    0.04044    0.98644    1.000
    C174     C        0.32300    0.84709    0.96376    1.000
    C175     C        0.34633    0.75039    0.97561    1.000
    H111     H        0.32040    0.69660    0.97150    1.000
    C176     C        0.40759    0.73382    0.99346    1.000
    H112     H        0.42280    0.66940    0.00340    1.000
    C177     C        0.44675    0.81215    0.99669    1.000
    C178     C        0.42338    0.90843    0.98470    1.000
    H113     H        0.44900    0.96180    0.98700    1.000
    C179     C        0.36252    0.92574    0.96942    1.000
    H114     H        0.34780    0.99090    0.96280    1.000
    C180     C        0.51240    0.79298    0.00984    1.000
    Co7      Co       0.38388    0.35133    0.95159    1.000
    N37      N        0.47050    0.10338    0.79765    1.000
    N38      N        0.43073    0.96972    0.82051    1.000
    N39      N        0.41212    0.48329    0.92087    1.000
    N40      N        0.40792    0.62720    0.87504    1.000
    N41      N        0.16367    0.80863    0.63697    1.000
    N42      N        0.23904    0.79359    0.72457    1.000
    O37      O        0.44414    0.29113    0.69066    1.000
    O38      O        0.37583    0.17122    0.66850    1.000
    O39      O        0.39666    0.57582    0.53586    1.000
    O40      O        0.30849    0.56481    0.46120    1.000
    O41      O        0.96518    0.21199    0.46439    1.000
    O42      O        0.96022    0.35769    0.50699    1.000
    C181     C        0.33422    0.88410    0.77375    1.000
    H115     H        0.31770    0.94090    0.75120    1.000
    C182     C        0.39372    0.88245    0.81365    1.000
    C183     C        0.41920    0.79919    0.84805    1.000
    H116     H        0.45950    0.79940    0.87450    1.000
    C184     C        0.38330    0.71563    0.84217    1.000
    C185     C        0.32345    0.71438    0.80232    1.000
    H117     H        0.29970    0.65780    0.79870    1.000
    C186     C        0.29968    0.79791    0.76823    1.000
    C187     C        0.42866    0.03405    0.77700    1.000
    H118     H        0.40120    0.03000    0.73750    1.000
    C188     C        0.50085    0.08220    0.85732    1.000
    H119     H        0.53310    0.11900    0.88360    1.000
    C189     C        0.47693    0.00030    0.87197    1.000
    H120     H        0.48920    0.97050    0.90950    1.000
    C190     C        0.37708    0.55637    0.89144    1.000
    H121     H        0.33580    0.55930    0.88280    1.000
    C191     C        0.46883    0.50809    0.92383    1.000
    H122     H        0.50330    0.46940    0.94220    1.000
    C192     C        0.46742    0.59610    0.89652    1.000
    H123     H        0.49990    0.62920    0.89280    1.000
    C193     C        0.22033    0.83225    0.66938    1.000
    H124     H        0.24440    0.87110    0.65560    1.000
    C194     C        0.14554    0.75130    0.67434    1.000
    H125     H        0.10730    0.72350    0.66390    1.000
    C195     C        0.19116    0.74120    0.72820    1.000
    H126     H        0.19040    0.70600    0.76110    1.000
    C196     C        0.39153    0.25681    0.66138    1.000
    C197     C        0.34723    0.32524    0.61603    1.000
    C198     C        0.36636    0.40666    0.59194    1.000
    H127     H        0.40720    0.42280    0.60590    1.000
    C199     C        0.32454    0.46383    0.54707    1.000
    C200     C        0.26290    0.44362    0.52923    1.000
    H128     H        0.23490    0.48300    0.49990    1.000
    C201     C        0.24269    0.36563    0.55466    1.000
    C202     C        0.28549    0.30492    0.59675    1.000
    H129     H        0.27270    0.24990    0.61230    1.000
    C203     C        0.34461    0.54044    0.51356    1.000
    C204     C        0.17700    0.34709    0.53624    1.000
    C205     C        0.15367    0.25039    0.52439    1.000
    H130     H        0.17960    0.19660    0.52850    1.000
    C206     C        0.09241    0.23382    0.50654    1.000
    H131     H        0.07720    0.16940    0.49660    1.000
    C207     C        0.05325    0.31215    0.50331    1.000
    C208     C        0.07662    0.40843    0.51530    1.000
    H132     H        0.05100    0.46180    0.51300    1.000
    C209     C        0.13748    0.42574    0.53058    1.000
    H133     H        0.15220    0.49090    0.53720    1.000
    C210     C        0.98760    0.29298    0.49016    1.000
    Co8      Co       0.88388    0.85133    0.95159    1.000
    N43      N        0.97050    0.60338    0.79765    1.000
    N44      N        0.93073    0.46972    0.82051    1.000
    N45      N        0.91212    0.98329    0.92087    1.000
    N46      N        0.90792    0.12720    0.87504    1.000
    N47      N        0.66367    0.30863    0.63697    1.000
    N48      N        0.73904    0.29359    0.72457    1.000
    O43      O        0.94414    0.79113    0.69066    1.000
    O44      O        0.87583    0.67122    0.66850    1.000
    O45      O        0.89666    0.07582    0.53586    1.000
    O46      O        0.80849    0.06481    0.46120    1.000
    O47      O        0.46518    0.71199    0.46439    1.000
    O48      O        0.46022    0.85769    0.50699    1.000
    C211     C        0.83422    0.38410    0.77375    1.000
    H134     H        0.81770    0.44090    0.75120    1.000
    C212     C        0.89372    0.38245    0.81365    1.000
    C213     C        0.91920    0.29919    0.84805    1.000
    H135     H        0.95950    0.29940    0.87450    1.000
    C214     C        0.88330    0.21563    0.84217    1.000
    C215     C        0.82345    0.21438    0.80232    1.000
    H136     H        0.79970    0.15780    0.79870    1.000
    C216     C        0.79968    0.29791    0.76823    1.000
    C217     C        0.92866    0.53405    0.77700    1.000
    H137     H        0.90120    0.53000    0.73750    1.000
    C218     C        0.00085    0.58220    0.85732    1.000
    H138     H        0.03310    0.61900    0.88360    1.000
    C219     C        0.97693    0.50030    0.87197    1.000
    H139     H        0.98920    0.47050    0.90950    1.000
    C220     C        0.87708    0.05637    0.89144    1.000
    H140     H        0.83580    0.05930    0.88280    1.000
    C221     C        0.96883    0.00809    0.92383    1.000
    H141     H        0.00330    0.96940    0.94220    1.000
    C222     C        0.96742    0.09610    0.89652    1.000
    H142     H        0.99990    0.12920    0.89280    1.000
    C223     C        0.72033    0.33225    0.66938    1.000
    H143     H        0.74440    0.37110    0.65560    1.000
    C224     C        0.64554    0.25130    0.67434    1.000
    H144     H        0.60730    0.22350    0.66390    1.000
    C225     C        0.69116    0.24120    0.72820    1.000
    H145     H        0.69040    0.20600    0.76110    1.000
    C226     C        0.89153    0.75681    0.66138    1.000
    C227     C        0.84723    0.82524    0.61603    1.000
    C228     C        0.86636    0.90666    0.59194    1.000
    H146     H        0.90720    0.92280    0.60590    1.000
    C229     C        0.82454    0.96383    0.54707    1.000
    C230     C        0.76290    0.94362    0.52923    1.000
    H147     H        0.73490    0.98300    0.49990    1.000
    C231     C        0.74269    0.86563    0.55466    1.000
    C232     C        0.78549    0.80492    0.59675    1.000
    H148     H        0.77270    0.74990    0.61230    1.000
    C233     C        0.84461    0.04044    0.51356    1.000
    C234     C        0.67700    0.84709    0.53624    1.000
    C235     C        0.65367    0.75039    0.52439    1.000
    H149     H        0.67960    0.69660    0.52850    1.000
    C236     C        0.59241    0.73382    0.50654    1.000
    H150     H        0.57720    0.66940    0.49660    1.000
    C237     C        0.55325    0.81215    0.50331    1.000
    C238     C        0.57662    0.90843    0.51530    1.000
    H151     H        0.55100    0.96180    0.51300    1.000
    C239     C        0.63748    0.92574    0.53058    1.000
    H152     H        0.65220    0.99090    0.53720    1.000
    C240     C        0.48760    0.79298    0.49016    1.000
    Co9      Co       0.50000    0.80023    0.25000    1.000
    Co10     Co       0.00000    0.30023    0.25000    1.000
    Co11     Co       0.50000    0.19977    0.75000    1.000
    Co12     Co       0.00000    0.69977    0.75000    1.000
