data_functionalizedCrystal
_audit_creation_method	'EQeq! by Chris Wilmer'
_symmetry_space_group_name_H-M	'P1'
_symmetry_Int_Tables_number	1
_symmetry_cell_setting	triclinic
loop_
_symmetry_equiv_pos_as_xyz
  x,y,z
_cell_length_a	9.5522
_cell_length_b	12.933
_cell_length_c	18.7637
_cell_angle_alpha	106.972
_cell_angle_beta	98.249
_cell_angle_gamma	97.794
loop_
_atom_site_label
_atom_site_type_symbol
_atom_site_fract_x
_atom_site_fract_y
_atom_site_fract_z
_atom_site_charge
Mof_Gd	Gd	0.23407	0.01044	0.5025	1.733
Mof_O 	O 	0.448	0.0388	0.58799	-0.539
Mof_O 	O 	0.6822	0.0452	0.6145	-0.495
Mof_O 	O 	0.8572	0.0516	0.40078	-0.464
Mof_O 	O 	0.7927	0.8296	0.39834	-0.456
Mof_O 	O 	0.098	0.0952	0.4295	-0.482
Mof_O 	O 	0.0296	0.881	0.42938	-0.502
Mof_N 	N 	0.5644	0.1766	0.86957	-0.123
Mof_N 	N 	0.99	0.1338	0.175	-0.123
Mof_C 	C 	0.5633	0.0569	0.6323	0.467
Mof_N 	N 	0.9571	0.5934	0.1802	-0.126
Mof_C 	C 	0.5628	0.0972	0.7169	-0.114
Mof_C 	C 	0.9307	0.736	0.3159	-0.107
Mof_C 	C 	0.9802	0.1015	0.3121	-0.094
Mof_C 	C 	0.9085	0.2226	0.077	-0.265
Mof_C 	C 	0.689	0.1189	0.7689	-0.023
Mof_H 	H 	0.7741	0.1054	0.7525	0.047
Mof_C 	C 	0.9178	0.8221	0.3883	0.441
Mof_C 	C 	0.9774	0.0807	0.3874	0.444
Mof_C 	C 	0.7743	0.1835	0.0284	0.334
Mof_C 	C 	0.6885	0.1611	0.8459	0.003
Mof_H 	H 	0.7741	0.1786	0.8811	0.032
Mof_C 	C 	0.9001	0.4089	0.0793	-0.253
Mof_C 	C 	0.8584	0.1142	0.2689	-0.033
Mof_H 	H 	0.7717	0.1112	0.2859	0.042
Mof_C 	C 	0.4362	0.1136	0.7428	-0.021
Mof_H 	H 	0.3494	0.0972	0.7086	0.049
Mof_C 	C 	0.9693	0.3346	0.1043	0.332
Mof_C 	C 	0.7041	0.2594	0.0041	-0.262
Mof_C 	C 	0.1082	0.107	0.2857	-0.034
Mof_H 	H 	0.1926	0.1017	0.3149	0.042
Mof_C 	C 	0.7661	0.3716	0.0275	0.315
Mof_C 	C 	0.8113	0.6693	0.2647	-0.032
Mof_H 	H 	0.7196	0.6712	0.2757	0.043
Mof_C 	C 	0.0653	0.7247	0.2988	-0.015
Mof_H 	H 	0.148	0.7651	0.3336	0.03
Mof_C 	C 	0.8304	0.5998	0.197	0.021
Mof_H 	H 	0.7498	0.556	0.162	0.016
Mof_C 	C 	0.44	0.1543	0.8194	0.003
Mof_H 	H 	0.3555	0.1665	0.8369	0.023
Mof_C 	C 	0.8656	0.1313	0.2007	0.013
Mof_H 	H 	0.7838	0.1413	0.172	0.018
Mof_C 	C 	0.1088	0.1202	0.2154	0.007
Mof_H 	H 	0.193	0.1197	0.196	0.014
Mof_C 	C 	0.9928	0.1406	0.0966	0.049
Mof_H 	H 	0.954	0.0685	0.0599	0.003
Mof_H 	H 	0.0921	0.1608	0.0923	-0.001
Mof_C 	C 	0.559	0.2184	0.9524	0.053
Mof_H 	H 	0.5072	0.1595	0.9663	-0.007
Mof_H 	H 	0.5049	0.2777	0.9606	0
Mof_C 	C 	0.9755	0.5273	0.1037	0.037
Mof_H 	H 	0.0775	0.5296	0.1039	0.004
Mof_H 	H 	0.9387	0.5609	0.0667	0.008
Mof_C 	C 	0.0763	0.6537	0.2304	0.005
Mof_H 	H 	0.1666	0.6472	0.2186	0.015
Mof_C 	C 	0.1113	0.3745	0.16	-0.822
Mof_H 	H 	0.0999	0.3606	0.2066	0.274
Mof_H 	H 	0.1414	0.4521	0.1699	0.27
Mof_H 	H 	0.1826	0.3361	0.1389	0.262
Mof_C 	C 	0.7094	0.0636	0.9999	-0.829
Mof_H 	H 	0.7706	0.0237	0.9705	0.272
Mof_H 	H 	0.6163	0.0526	0.9687	0.27
Mof_H 	H 	0.6997	0.0376	0.0422	0.264
Mof_C 	C 	0.6889	0.4503	0.9993	-0.787
Mof_H 	H 	0.7388	0.5244	0.0256	0.254
Mof_H 	H 	0.5923	0.4422	0.0084	0.246
Mof_H 	H 	0.6863	0.4343	0.9458	0.255
Mof_Gd	Gd	0.76593	0.98956	0.4975	1.732
Mof_O 	O 	0.552	0.9612	0.41201	-0.54
Mof_O 	O 	0.3178	0.9548	0.3855	-0.495
Mof_O 	O 	0.1428	0.9484	0.59922	-0.464
Mof_O 	O 	0.2073	0.1704	0.60166	-0.456
Mof_O 	O 	0.902	0.9048	0.5705	-0.482
Mof_O 	O 	0.9704	0.119	0.57062	-0.502
Mof_N 	N 	0.4356	0.8234	0.13043	-0.123
Mof_N 	N 	0.01	0.8662	0.825	-0.123
Mof_C 	C 	0.4367	0.9431	0.3677	0.467
Mof_N 	N 	0.0429	0.4066	0.8198	-0.126
Mof_C 	C 	0.4372	0.9028	0.2831	-0.114
Mof_C 	C 	0.0693	0.264	0.6841	-0.107
Mof_C 	C 	0.0198	0.8985	0.6879	-0.094
Mof_C 	C 	0.0915	0.7774	0.923	-0.265
Mof_C 	C 	0.311	0.8811	0.2311	-0.023
Mof_H 	H 	0.2259	0.8946	0.2475	0.047
Mof_C 	C 	0.0822	0.1779	0.6117	0.441
Mof_C 	C 	0.0226	0.9193	0.6126	0.444
Mof_C 	C 	0.2257	0.8165	0.9716	0.334
Mof_C 	C 	0.3115	0.8389	0.1541	0.003
Mof_H 	H 	0.2259	0.8214	0.1189	0.032
Mof_C 	C 	0.0999	0.5911	0.9207	-0.253
Mof_C 	C 	0.1416	0.8858	0.7311	-0.033
Mof_H 	H 	0.2283	0.8888	0.7141	0.042
Mof_C 	C 	0.5638	0.8864	0.2572	-0.021
Mof_H 	H 	0.6506	0.9028	0.2914	0.049
Mof_C 	C 	0.0307	0.6654	0.8957	0.332
Mof_C 	C 	0.2959	0.7406	0.9959	-0.262
Mof_C 	C 	0.8918	0.893	0.7143	-0.034
Mof_H 	H 	0.8074	0.8983	0.6851	0.042
Mof_C 	C 	0.2339	0.6284	0.9725	0.315
Mof_C 	C 	0.1887	0.3307	0.7353	-0.032
Mof_H 	H 	0.2804	0.3288	0.7243	0.043
Mof_C 	C 	0.9347	0.2753	0.7012	-0.015
Mof_H 	H 	0.852	0.2349	0.6664	0.03
Mof_C 	C 	0.1696	0.4002	0.803	0.021
Mof_H 	H 	0.2502	0.444	0.838	0.016
Mof_C 	C 	0.56	0.8457	0.1806	0.003
Mof_H 	H 	0.6445	0.8335	0.1631	0.023
Mof_C 	C 	0.1344	0.8687	0.7993	0.013
Mof_H 	H 	0.2162	0.8587	0.828	0.018
Mof_C 	C 	0.8912	0.8798	0.7846	0.007
Mof_H 	H 	0.807	0.8803	0.804	0.014
Mof_C 	C 	0.0072	0.8594	0.9034	0.049
Mof_H 	H 	0.046	0.9315	0.9401	0.003
Mof_H 	H 	0.9079	0.8392	0.9077	-0.001
Mof_C 	C 	0.441	0.7816	0.0476	0.053
Mof_H 	H 	0.4928	0.8405	0.0337	-0.007
Mof_H 	H 	0.4951	0.7223	0.0394	0
Mof_C 	C 	0.0245	0.4727	0.8963	0.037
Mof_H 	H 	0.9225	0.4704	0.8961	0.004
Mof_H 	H 	0.0613	0.4391	0.9333	0.008
Mof_C 	C 	0.9237	0.3463	0.7696	0.005
Mof_H 	H 	0.8334	0.3528	0.7814	0.015
Mof_C 	C 	0.8887	0.6255	0.84	-0.822
Mof_H 	H 	0.9001	0.6394	0.7934	0.274
Mof_H 	H 	0.8586	0.5479	0.8301	0.27
Mof_H 	H 	0.8174	0.6639	0.8611	0.262
Mof_C 	C 	0.2906	0.9364	0.0001	-0.829
Mof_H 	H 	0.2294	0.9763	0.0295	0.272
Mof_H 	H 	0.3837	0.9474	0.0313	0.27
Mof_H 	H 	0.3003	0.9624	0.9578	0.264
Mof_C 	C 	0.3111	0.5497	0.0007	-0.787
Mof_H 	H 	0.2612	0.4756	0.9744	0.254
Mof_H 	H 	0.4077	0.5578	0.9916	0.246
Mof_H 	H 	0.3137	0.5657	0.0542	0.255
_end
