data_functionalizedCrystal
_audit_creation_method	'EQeq! by Chris Wilmer'
_symmetry_space_group_name_H-M	'P1'
_symmetry_Int_Tables_number	1
_symmetry_cell_setting	triclinic
loop_
_symmetry_equiv_pos_as_xyz
  x,y,z
_cell_length_a	12.5669
_cell_length_b	12.5669
_cell_length_c	13.5483
_cell_angle_alpha	65.7086
_cell_angle_beta	62.3975
_cell_angle_gamma	93.2666
loop_
_atom_site_label
_atom_site_type_symbol
_atom_site_fract_x
_atom_site_fract_y
_atom_site_fract_z
_atom_site_charge
Mof_Mg	Mg	0.55532	0.80532	0.25	1.477
Mof_Mg	Mg	0.44468	0.19468	0.75	1.476
Mof_Mg	Mg	0.5	0	-0	1.469
Mof_Mg	Mg	0.5	0.5	0.5	1.475
Mof_H 	H 	0.3573	0.0243	0.597	0.093
Mof_H 	H 	0.1072	0.7543	0.2337	0.046
Mof_H 	H 	0.9092	0.8494	0.0032	0.059
Mof_H 	H 	0.3254	0.6965	0.1391	0.059
Mof_H 	H 	0.9533	0.3626	0.4473	0.063
Mof_H 	H 	0.6644	0.5355	0.6391	0.045
Mof_H 	H 	0.6901	0.5994	0.9473	0.019
Mof_H 	H 	0.1213	0.9543	0.903	0.049
Mof_H 	H 	0.6852	0.462	0.9056	0.091
Mof_H 	H 	0.4771	0.2285	0.1682	0.01
Mof_H 	H 	0.0908	0.1506	0.9968	0.022
Mof_H 	H 	0.512	0.6591	0.7337	0.027
Mof_H 	H 	0.3356	0.4645	0.3609	0.045
Mof_H 	H 	0.6427	0.9757	0.403	0.019
Mof_H 	H 	0.3148	0.538	0.0944	0.028
Mof_H 	H 	0.6746	0.3035	0.8609	0.029
Mof_H 	H 	0.8967	0.6453	0.3318	0.059
Mof_H 	H 	0.3099	0.4006	0.0527	0.108
Mof_H 	H 	0.1033	0.3547	0.6682	0.04
Mof_H 	H 	0.5229	0.7715	0.8318	0.095
Mof_H 	H 	0.488	0.3409	0.2663	0.079
Mof_H 	H 	0.0467	0.6374	0.5527	0.054
Mof_H 	H 	0.2533	0.6907	0.5018	0.052
Mof_H 	H 	0.8928	0.2457	0.7663	0.076
Mof_H 	H 	0.3526	0.9124	0.4968	-0.01
Mof_H 	H 	0.7467	0.3093	0.4982	0.041
Mof_H 	H 	0.6474	0.0876	0.5032	0.101
Mof_H 	H 	0.8787	0.0457	0.097	0.084
Mof_H 	H 	0.8676	0.5908	0.5944	0.067
Mof_H 	H 	0.1324	0.4092	0.4056	0.05
Mof_H 	H 	0.3075	0.2449	0.0018	-0.024
Mof_H 	H 	0.6925	0.7551	0.9982	0.098
Mof_C 	C 	0.07537	0.89265	0.9908	0.03
Mof_C 	C 	0.84473	0.53275	0.5742	-0.095
Mof_C 	C 	0.77206	0.36586	0.5187	0.026
Mof_C 	C 	0.2689	0.94226	0.99498	0.472
Mof_C 	C 	0.05077	0.17039	0.9497	0.079
Mof_C 	C 	0.74183	0.67683	0.24556	0.388
Mof_C 	C 	0.38345	0.06617	0.5092	-0.165
Mof_C 	C 	0.60081	0.32569	0.898	0.076
Mof_C 	C 	0.41607	0.05947	0.32204	-0.256
Mof_C 	C 	0.10496	0.60192	0.512	-0.068
Mof_C 	C 	0.49825	0.45041	0.98382	0.168
Mof_C 	C 	0.56276	0.73612	0.49498	0.439
Mof_C 	C 	0.22794	0.63414	0.4813	0.016
Mof_C 	C 	0.61655	0.93383	0.4908	0.121
Mof_C 	C 	0.92463	0.10735	0.0092	-0.16
Mof_C 	C 	0.11849	0.26189	0.82204	-0.13
Mof_C 	C 	0.42239	0.98739	0.25444	0.521
Mof_C 	C 	0.86545	0.13397	0.94082	0.049
Mof_C 	C 	0.94923	0.82961	0.0503	-0.035
Mof_C 	C 	0.05839	0.29057	0.7549	0.027
Mof_C 	C 	0.57479	0.80627	0.55918	-0.157
Mof_C 	C 	0.27631	0.50119	0.398	0.017
Mof_C 	C 	0.53987	0.74617	0.6864	0.072
Mof_C 	C 	0.06743	0.77373	0.1864	0.001
Mof_C 	C 	0.62009	0.00047	0.5503	-0.189
Mof_C 	C 	0.61392	0.61696	0.988	0.055
Mof_C 	C 	0.72369	0.49881	0.602	0.027
Mof_C 	C 	0.88151	0.73811	0.17796	-0.069
Mof_C 	C 	0.50175	0.54959	0.01618	-0.1
Mof_C 	C 	0.25817	0.32317	0.75444	0.408
Mof_C 	C 	0.37991	0.99953	0.4497	0.186
Mof_C 	C 	0.93257	0.22627	0.8136	-0.078
Mof_C 	C 	0.39919	0.67431	0.102	-0.024
Mof_C 	C 	0.57761	0.01261	0.74556	0.296
Mof_C 	C 	0.89504	0.39808	0.488	-0.09
Mof_C 	C 	0.39305	0.58107	0.0742	-0.012
Mof_C 	C 	0.94161	0.70943	0.2451	-0.019
Mof_C 	C 	0.93423	0.48207	0.51618	0.047
Mof_C 	C 	0.38456	0.29076	0.9813	0.164
Mof_C 	C 	0.61544	0.70924	0.0187	-0.087
Mof_C 	C 	0.15527	0.46725	0.4258	-0.075
Mof_C 	C 	0.7311	0.05774	0.00502	0.262
Mof_C 	C 	0.60695	0.41893	0.9258	-0.164
Mof_C 	C 	0.06577	0.51793	0.48382	0.009
Mof_C 	C 	0.13455	0.86603	0.05918	-0.125
Mof_C 	C 	0.46013	0.25383	0.3136	-0.106
Mof_C 	C 	0.42521	0.19373	0.44082	-0.007
Mof_C 	C 	0.54547	0.81329	0.7451	-0.112
Mof_C 	C 	0.45453	0.18671	0.2549	0.097
Mof_C 	C 	0.58393	0.94053	0.67796	0.065
Mof_C 	C 	0.38608	0.38304	0.012	-0.242
Mof_C 	C 	0.43724	0.26388	0.50502	0.382
Mof_N 	N 	0.50823	0.73411	0.07736	-0.017
Mof_N 	N 	0.49177	0.26589	0.92264	-0.074
Mof_N 	N 	0.68853	0.41441	0.57736	-0.045
Mof_N 	N 	0.31147	0.58559	0.42264	-0.04
Mof_O 	O 	0.48091	0.37932	0.43785	-0.464
Mof_O 	O 	0.68283	0.08124	0.93785	-0.419
Mof_O 	O 	0.31717	0.91876	0.06215	-0.48
Mof_O 	O 	0.43117	0.62053	0.38916	-0.44
Mof_O 	O 	0.55983	0.95663	0.85542	-0.413
Mof_O 	O 	0.31058	0.2744	0.81414	-0.477
Mof_O 	O 	0.68795	0.58475	0.35542	-0.463
Mof_O 	O 	0.44017	0.04337	0.14458	-0.535
Mof_O 	O 	0.58854	0.12472	0.68586	-0.456
Mof_O 	O 	0.32047	0.02396	0.88025	-0.526
Mof_O 	O 	0.40421	0.20072	0.61975	-0.491
Mof_O 	O 	0.41146	0.87528	0.31414	-0.504
Mof_O 	O 	0.59579	0.79928	0.38025	-0.5
Mof_O 	O 	0.49031	0.17967	0.88916	-0.434
Mof_O 	O 	0.50969	0.82033	0.11084	-0.44
Mof_O 	O 	0.56883	0.37947	0.61084	-0.441
Mof_O 	O 	0.67953	0.97604	0.11975	-0.429
Mof_O 	O 	0.68942	0.7256	0.18586	-0.477
Mof_O 	O 	0.31205	0.41525	0.64458	-0.466
Mof_O 	O 	0.51909	0.62068	0.56215	-0.475
_end
