# CIF file generated by openbabel 3.1.0, see https://openbabel.org
data_I
_chemical_name_common 'image0'
_cell_length_a 16.2538
_cell_length_b 8.7093
_cell_length_c 20.8595
_cell_angle_alpha 90
_cell_angle_beta 94.891
_cell_angle_gamma 90
_space_group_name_H-M_alt 'P 1'
_space_group_name_Hall 'P 1'
loop_
    _symmetry_equiv_pos_as_xyz
    x,y,z
loop_
    _atom_site_label
    _atom_site_type_symbol
    _atom_site_fract_x
    _atom_site_fract_y
    _atom_site_fract_z
    _atom_site_occupancy
    Tb1      Tb       0.24239    0.22123    0.71242    1.000
    O1       O        0.12590    0.35730    0.66220    1.000
    O2       O        0.36930    0.32010    0.74840    1.000
    O3       O        0.17920    0.53840    0.83950    1.000
    O4       O        0.17840    0.29970    0.80160    1.000
    O5       O        0.36320    0.54390    0.79890    1.000
    O6       O        0.21200    0.53300    0.70467    1.000
    N1       N        0.98520    0.93410    0.49910    1.000
    N2       N        0.75480    0.45780    0.84020    1.000
    N3       N        0.78560    0.36050    0.81210    1.000
    C1       C        0.15170    0.49250    0.66570    1.000
    C2       C        0.11060    0.60890    0.62050    1.000
    C3       C        0.14870    0.74900    0.61040    1.000
    H1       H        0.20060    0.76970    0.63090    1.000
    C4       C        0.10960    0.85760    0.56980    1.000
    H2       H        0.13540    0.95080    0.56320    1.000
    C5       C        0.03210    0.82770    0.53910    1.000
    C6       C        0.99610    0.68450    0.54680    1.000
    H3       H        0.94540    0.66230    0.52470    1.000
    C7       C        0.03440    0.57550    0.58670    1.000
    H4       H        0.00990    0.48000    0.59110    1.000
    C8       C        0.40140    0.43120    0.77980    1.000
    C9       C        0.49310    0.42630    0.79660    1.000
    C10      C        0.53190    0.53790    0.83670    1.000
    H5       H        0.49990    0.61260    0.85450    1.000
    C11      C        0.61600    0.54030    0.85060    1.000
    H6       H        0.64070    0.61550    0.87740    1.000
    C12      C        0.66260    0.42980    0.82410    1.000
    C13      C        0.62600    0.31220    0.78580    1.000
    H7       H        0.65820    0.23600    0.76920    1.000
    C14      C        0.53970    0.31150    0.77290    1.000
    H8       H        0.51420    0.23320    0.74830    1.000
    C15      C        0.14330    0.41490    0.82240    1.000
    C16      C        0.05090    0.40710    0.82620    1.000
    C17      C        0.00920    0.51610    0.85880    1.000
    H9       H        0.03780    0.59430    0.88150    1.000
    C18      C        0.92230    0.50690    0.85730    1.000
    H10      H        0.89360    0.57900    0.87960    1.000
    C19      C        0.88000    0.39400    0.82370    1.000
    C20      C        0.92180    0.28600    0.79270    1.000
    H11      H        0.89250    0.20820    0.77040    1.000
    C21      C        0.00740    0.28880    0.79350    1.000
    H12      H        0.03530    0.21300    0.77250    1.000
    Tb2      Tb       0.25761    0.72123    0.78758    1.000
    O7       O        0.37410    0.85730    0.83780    1.000
    O8       O        0.13070    0.82010    0.75160    1.000
    O9       O        0.32080    0.03840    0.66050    1.000
    O10      O        0.32160    0.79970    0.69840    1.000
    O11      O        0.13680    0.04390    0.70110    1.000
    O12      O        0.28800    0.03300    0.79533    1.000
    N4       N        0.51480    0.43410    0.00090    1.000
    N5       N        0.74520    0.95780    0.65980    1.000
    N6       N        0.71440    0.86050    0.68790    1.000
    C22      C        0.34830    0.99250    0.83430    1.000
    C23      C        0.38940    0.10890    0.87950    1.000
    C24      C        0.35130    0.24900    0.88960    1.000
    H13      H        0.29940    0.26970    0.86910    1.000
    C25      C        0.39040    0.35760    0.93020    1.000
    H14      H        0.36460    0.45080    0.93680    1.000
    C26      C        0.46790    0.32770    0.96090    1.000
    C27      C        0.50390    0.18450    0.95320    1.000
    H15      H        0.55460    0.16230    0.97530    1.000
    C28      C        0.46560    0.07550    0.91330    1.000
    H16      H        0.49010    0.98000    0.90890    1.000
    C29      C        0.09860    0.93120    0.72020    1.000
    C30      C        0.00690    0.92630    0.70340    1.000
    C31      C        0.96810    0.03790    0.66330    1.000
    H17      H        0.00010    0.11260    0.64550    1.000
    C32      C        0.88400    0.04030    0.64940    1.000
    H18      H        0.85930    0.11550    0.62260    1.000
    C33      C        0.83740    0.92980    0.67590    1.000
    C34      C        0.87400    0.81220    0.71420    1.000
    H19      H        0.84180    0.73600    0.73080    1.000
    C35      C        0.96030    0.81150    0.72710    1.000
    H20      H        0.98580    0.73320    0.75170    1.000
    C36      C        0.35670    0.91490    0.67760    1.000
    C37      C        0.44910    0.90710    0.67380    1.000
    C38      C        0.49080    0.01610    0.64120    1.000
    H21      H        0.46220    0.09430    0.61850    1.000
    C39      C        0.57770    0.00690    0.64270    1.000
    H22      H        0.60640    0.07900    0.62040    1.000
    C40      C        0.62000    0.89400    0.67630    1.000
    C41      C        0.57820    0.78600    0.70730    1.000
    H23      H        0.60750    0.70820    0.72960    1.000
    C42      C        0.49260    0.78880    0.70650    1.000
    H24      H        0.46470    0.71300    0.72750    1.000
    Tb3      Tb       0.75761    0.77877    0.28758    1.000
    O13      O        0.87410    0.64270    0.33780    1.000
    O14      O        0.63070    0.67990    0.25160    1.000
    O15      O        0.82080    0.46160    0.16050    1.000
    O16      O        0.82160    0.70030    0.19840    1.000
    O17      O        0.63680    0.45610    0.20110    1.000
    O18      O        0.78800    0.46700    0.29533    1.000
    N7       N        0.01480    0.06590    0.50090    1.000
    N8       N        0.24520    0.54220    0.15980    1.000
    N9       N        0.21440    0.63950    0.18790    1.000
    C43      C        0.84830    0.50750    0.33430    1.000
    C44      C        0.88940    0.39110    0.37950    1.000
    C45      C        0.85130    0.25100    0.38960    1.000
    H25      H        0.79940    0.23030    0.36910    1.000
    C46      C        0.89040    0.14240    0.43020    1.000
    H26      H        0.86460    0.04920    0.43680    1.000
    C47      C        0.96790    0.17230    0.46090    1.000
    C48      C        0.00390    0.31550    0.45320    1.000
    H27      H        0.05460    0.33770    0.47530    1.000
    C49      C        0.96560    0.42450    0.41330    1.000
    H28      H        0.99010    0.52000    0.40890    1.000
    C50      C        0.59860    0.56880    0.22020    1.000
    C51      C        0.50690    0.57370    0.20340    1.000
    C52      C        0.46810    0.46210    0.16330    1.000
    H29      H        0.50010    0.38740    0.14550    1.000
    C53      C        0.38400    0.45970    0.14940    1.000
    H30      H        0.35930    0.38450    0.12260    1.000
    C54      C        0.33740    0.57020    0.17590    1.000
    C55      C        0.37400    0.68780    0.21420    1.000
    H31      H        0.34180    0.76400    0.23080    1.000
    C56      C        0.46030    0.68850    0.22710    1.000
    H32      H        0.48580    0.76680    0.25170    1.000
    C57      C        0.85670    0.58510    0.17760    1.000
    C58      C        0.94910    0.59290    0.17380    1.000
    C59      C        0.99080    0.48390    0.14120    1.000
    H33      H        0.96220    0.40570    0.11850    1.000
    C60      C        0.07770    0.49310    0.14270    1.000
    H34      H        0.10640    0.42100    0.12040    1.000
    C61      C        0.12000    0.60600    0.17630    1.000
    C62      C        0.07820    0.71400    0.20730    1.000
    H35      H        0.10750    0.79180    0.22960    1.000
    C63      C        0.99260    0.71120    0.20650    1.000
    H36      H        0.96470    0.78700    0.22750    1.000
    Tb4      Tb       0.74239    0.27877    0.21242    1.000
    O19      O        0.62590    0.14270    0.16220    1.000
    O20      O        0.86930    0.17990    0.24840    1.000
    O21      O        0.67920    0.96160    0.33950    1.000
    O22      O        0.67840    0.20030    0.30160    1.000
    O23      O        0.86320    0.95610    0.29890    1.000
    O24      O        0.71200    0.96700    0.20467    1.000
    N10      N        0.48520    0.56590    0.99910    1.000
    N11      N        0.25480    0.04220    0.34020    1.000
    N12      N        0.28560    0.13950    0.31210    1.000
    C64      C        0.65170    0.00750    0.16570    1.000
    C65      C        0.61060    0.89110    0.12050    1.000
    C66      C        0.64870    0.75100    0.11040    1.000
    H37      H        0.70060    0.73030    0.13090    1.000
    C67      C        0.60960    0.64240    0.06980    1.000
    H38      H        0.63540    0.54920    0.06320    1.000
    C68      C        0.53210    0.67230    0.03910    1.000
    C69      C        0.49610    0.81550    0.04680    1.000
    H39      H        0.44540    0.83770    0.02470    1.000
    C70      C        0.53440    0.92450    0.08670    1.000
    H40      H        0.50990    0.02000    0.09110    1.000
    C71      C        0.90140    0.06880    0.27980    1.000
    C72      C        0.99310    0.07370    0.29660    1.000
    C73      C        0.03190    0.96210    0.33670    1.000
    H41      H        0.99990    0.88740    0.35450    1.000
    C74      C        0.11600    0.95970    0.35060    1.000
    H42      H        0.14070    0.88450    0.37740    1.000
    C75      C        0.16260    0.07020    0.32410    1.000
    C76      C        0.12600    0.18780    0.28580    1.000
    H43      H        0.15820    0.26400    0.26920    1.000
    C77      C        0.03970    0.18850    0.27290    1.000
    H44      H        0.01420    0.26680    0.24830    1.000
    C78      C        0.64330    0.08510    0.32240    1.000
    C79      C        0.55090    0.09290    0.32620    1.000
    C80      C        0.50920    0.98390    0.35880    1.000
    H45      H        0.53780    0.90570    0.38150    1.000
    C81      C        0.42230    0.99310    0.35730    1.000
    H46      H        0.39360    0.92100    0.37960    1.000
    C82      C        0.38000    0.10600    0.32370    1.000
    C83      C        0.42180    0.21400    0.29270    1.000
    H47      H        0.39250    0.29180    0.27040    1.000
    C84      C        0.50740    0.21120    0.29350    1.000
    H48      H        0.53530    0.28700    0.27250    1.000
