data_functionalizedCrystal
_audit_creation_method	'EQeq! by Chris Wilmer'
_symmetry_space_group_name_H-M	'P1'
_symmetry_Int_Tables_number	1
_symmetry_cell_setting	triclinic
loop_
_symmetry_equiv_pos_as_xyz
  x,y,z
_cell_length_a	8.8056
_cell_length_b	17.5516
_cell_length_c	13.9196
_cell_angle_alpha	90
_cell_angle_beta	126.483
_cell_angle_gamma	90
loop_
_atom_site_label
_atom_site_type_symbol
_atom_site_fract_x
_atom_site_fract_y
_atom_site_fract_z
_atom_site_charge
Mof_Cd	Cd	0.38851	0.54739	0.3429	0.445
Mof_C 	C 	0.5335	0.6828	0.1574	0.028
Mof_C 	C 	0.535	0.761	0.1615	-0.076
Mof_H 	H 	0.5072	0.7859	0.2084	0.095
Mof_C 	C 	0.578	0.8031	0.0957	0.022
Mof_C 	C 	0.6122	0.7658	0.023	-0.165
Mof_H 	H 	0.6393	0.7937	0.978	0.123
Mof_C 	C 	0.6065	0.6876	0.0168	0.226
Mof_C 	C 	0.572	0.6453	0.0857	-0.17
Mof_H 	H 	0.5745	0.5923	0.0844	0.122
Mof_C 	C 	0.4837	0.635	0.2257	0.277
Mof_C 	C 	0.5857	0.8885	0.1011	0.269
Mof_C 	C 	0.6248	0.5767	0.923	0.077
Mof_H 	H 	0.6124	0.5634	0.851	0.056
Mof_H 	H 	0.5149	0.5575	0.9155	0.038
Mof_C 	C 	0.9639	0.4699	0.1702	0.101
Mof_H 	H 	0.0035	0.4313	0.2262	0.023
Mof_C 	C 	0.9727	0.5622	0.0827	0.114
Mof_H 	H 	0.0132	0.6031	0.0609	0.022
Mof_N 	N 	0.7943	0.5422	0.0259	-0.103
Mof_N 	N 	0.7839	0.4815	0.0821	-0.09
Mof_N 	N 	0.0855	0.5176	0.1732	-0.152
Mof_O 	O 	0.5377	0.568	0.2495	-0.256
Mof_O 	O 	0.389	0.6648	0.2546	-0.263
Mof_O 	O 	0.5596	0.9212	0.1697	-0.259
Mof_O 	O 	0.6236	0.92508	0.0397	-0.277
Mof_O 	O 	0.6348	0.65637	0.9367	-0.226
Mof_Cd	Cd	0.61149	0.04739	0.1571	0.444
Mof_C 	C 	0.4665	0.1828	0.3426	0.029
Mof_C 	C 	0.465	0.261	0.3385	-0.077
Mof_H 	H 	0.4928	0.2859	0.2916	0.095
Mof_C 	C 	0.422	0.3031	0.4043	0.022
Mof_C 	C 	0.3878	0.2658	0.477	-0.167
Mof_H 	H 	0.3607	0.2937	0.522	0.124
Mof_C 	C 	0.3935	0.1876	0.4832	0.226
Mof_C 	C 	0.428	0.1453	0.4143	-0.171
Mof_H 	H 	0.4255	0.0923	0.4156	0.122
Mof_C 	C 	0.5163	0.135	0.2743	0.277
Mof_C 	C 	0.4143	0.3885	0.3989	0.268
Mof_C 	C 	0.3752	0.0767	0.577	0.077
Mof_H 	H 	0.3876	0.0634	0.649	0.057
Mof_H 	H 	0.4851	0.0575	0.5845	0.038
Mof_C 	C 	0.0361	0.9699	0.3298	0.102
Mof_H 	H 	0.9965	0.9313	0.2738	0.023
Mof_C 	C 	0.0273	0.0622	0.4173	0.116
Mof_H 	H 	0.9868	0.1031	0.4391	0.021
Mof_N 	N 	0.2057	0.0422	0.4741	-0.103
Mof_N 	N 	0.2161	0.9815	0.4179	-0.091
Mof_N 	N 	0.9145	0.0176	0.3268	-0.153
Mof_O 	O 	0.4623	0.068	0.2505	-0.256
Mof_O 	O 	0.611	0.1648	0.2454	-0.263
Mof_O 	O 	0.4404	0.4212	0.3303	-0.259
Mof_O 	O 	0.3764	0.42508	0.4603	-0.278
Mof_O 	O 	0.3652	0.15637	0.5633	-0.225
Mof_Cd	Cd	0.61149	0.45261	0.6571	0.446
Mof_C 	C 	0.4665	0.3172	0.8426	0.029
Mof_C 	C 	0.465	0.239	0.8385	-0.076
Mof_H 	H 	0.4928	0.2141	0.7916	0.095
Mof_C 	C 	0.422	0.1969	0.9043	0.022
Mof_C 	C 	0.3878	0.2342	0.977	-0.165
Mof_H 	H 	0.3607	0.2063	0.022	0.123
Mof_C 	C 	0.3935	0.3124	0.9832	0.226
Mof_C 	C 	0.428	0.3547	0.9143	-0.17
Mof_H 	H 	0.4255	0.4077	0.9156	0.122
Mof_C 	C 	0.5163	0.365	0.7743	0.277
Mof_C 	C 	0.4143	0.1115	0.8989	0.269
Mof_C 	C 	0.3752	0.4233	0.077	0.077
Mof_H 	H 	0.3876	0.4366	0.149	0.056
Mof_H 	H 	0.4851	0.4425	0.0845	0.038
Mof_C 	C 	0.0361	0.5301	0.8298	0.101
Mof_H 	H 	0.9965	0.5687	0.7738	0.023
Mof_C 	C 	0.0273	0.4378	0.9173	0.114
Mof_H 	H 	0.9868	0.3969	0.9391	0.022
Mof_N 	N 	0.2057	0.4578	0.9741	-0.103
Mof_N 	N 	0.2161	0.5185	0.9179	-0.09
Mof_N 	N 	0.9145	0.4824	0.8268	-0.152
Mof_O 	O 	0.4623	0.432	0.7505	-0.256
Mof_O 	O 	0.611	0.3352	0.7454	-0.263
Mof_O 	O 	0.4404	0.0788	0.8303	-0.259
Mof_O 	O 	0.3764	0.07492	0.9603	-0.277
Mof_O 	O 	0.3652	0.34363	0.0633	-0.226
Mof_Cd	Cd	0.38851	0.95261	0.8429	0.444
Mof_C 	C 	0.5335	0.8172	0.6574	0.029
Mof_C 	C 	0.535	0.739	0.6615	-0.077
Mof_H 	H 	0.5072	0.7141	0.7084	0.095
Mof_C 	C 	0.578	0.6969	0.5957	0.022
Mof_C 	C 	0.6122	0.7342	0.523	-0.167
Mof_H 	H 	0.6393	0.7063	0.478	0.124
Mof_C 	C 	0.6065	0.8124	0.5168	0.226
Mof_C 	C 	0.572	0.8547	0.5857	-0.171
Mof_H 	H 	0.5745	0.9077	0.5844	0.122
Mof_C 	C 	0.4837	0.865	0.7257	0.277
Mof_C 	C 	0.5857	0.6115	0.6011	0.268
Mof_C 	C 	0.6248	0.9233	0.423	0.077
Mof_H 	H 	0.6124	0.9366	0.351	0.057
Mof_H 	H 	0.5149	0.9425	0.4155	0.038
Mof_C 	C 	0.9639	0.0301	0.6702	0.102
Mof_H 	H 	0.0035	0.0687	0.7262	0.023
Mof_C 	C 	0.9727	0.9378	0.5827	0.116
Mof_H 	H 	0.0132	0.8969	0.5609	0.021
Mof_N 	N 	0.7943	0.9578	0.5259	-0.103
Mof_N 	N 	0.7839	0.0185	0.5821	-0.091
Mof_N 	N 	0.0855	0.9824	0.6732	-0.153
Mof_O 	O 	0.5377	0.932	0.7495	-0.256
Mof_O 	O 	0.389	0.8352	0.7546	-0.263
Mof_O 	O 	0.5596	0.5788	0.6697	-0.259
Mof_O 	O 	0.6236	0.57492	0.5397	-0.278
Mof_O 	O 	0.6348	0.84363	0.4367	-0.225
_end
