# CIF file generated by openbabel 3.1.0, see https://openbabel.org
data_I
_chemical_name_common 'image0'
_cell_length_a 28.253
_cell_length_b 13.8524
_cell_length_c 44.966
_cell_angle_alpha 90
_cell_angle_beta 90
_cell_angle_gamma 90
_space_group_name_H-M_alt 'P 1'
_space_group_name_Hall 'P 1'
loop_
    _symmetry_equiv_pos_as_xyz
    x,y,z
loop_
    _atom_site_label
    _atom_site_type_symbol
    _atom_site_fract_x
    _atom_site_fract_y
    _atom_site_fract_z
    _atom_site_occupancy
    C1       C        0.04710    0.00960    0.53790    1.000
    H1       H        0.03250    0.04360    0.55380    1.000
    C2       C        0.05780    0.05910    0.51180    1.000
    H2       H        0.05020    0.12560    0.50990    1.000
    C3       C        0.07940    0.01130    0.48890    1.000
    C4       C        0.08750    0.91420    0.49180    1.000
    H3       H        0.10130    0.87830    0.47600    1.000
    C5       C        0.07490    0.86880    0.51860    1.000
    H4       H        0.07980    0.80120    0.52040    1.000
    C6       C        0.09420    0.06380    0.46190    1.000
    C7       C        0.09830    0.20080    0.43500    1.000
    C8       C        0.13280    0.06600    0.41750    1.000
    C9       C        0.08350    0.30290    0.43010    1.000
    C10      C        0.05790    0.34990    0.45220    1.000
    H5       H        0.05120    0.31830    0.47050    1.000
    C11      C        0.04260    0.44230    0.44730    1.000
    H6       H        0.02530    0.47420    0.46260    1.000
    C12      C        0.07640    0.44410    0.40080    1.000
    H7       H        0.08420    0.47780    0.38310    1.000
    C13      C        0.09180    0.35090    0.40390    1.000
    H8       H        0.10810    0.31970    0.38810    1.000
    C14      C        0.15750    0.01390    0.39350    1.000
    C15      C        0.18220    0.05860    0.37120    1.000
    H9       H        0.18440    0.12700    0.37080    1.000
    C16      C        0.20330    0.00540    0.34990    1.000
    H10      H        0.22140    0.03770    0.33510    1.000
    C17      C        0.17600    0.86420    0.36950    1.000
    H11      H        0.17400    0.79580    0.36900    1.000
    C18      C        0.15380    0.91210    0.39200    1.000
    H12      H        0.13610    0.87770    0.40650    1.000
    C19      C        0.31180    0.08320    0.76620    1.000
    H13      H        0.33930    0.09890    0.77740    1.000
    C20      C        0.31770    0.05000    0.73740    1.000
    H14      H        0.34840    0.04390    0.72910    1.000
    C21      C        0.27890    0.02610    0.72110    1.000
    C22      C        0.23500    0.03280    0.73460    1.000
    H15      H        0.20750    0.01360    0.72400    1.000
    C23      C        0.23110    0.06730    0.76330    1.000
    H16      H        0.20070    0.07220    0.77220    1.000
    C24      C        0.28230    0.99560    0.68930    1.000
    C25      C        0.32440    0.95950    0.64840    1.000
    C26      C        0.24550    0.95910    0.64650    1.000
    C27      C        0.37030    0.94620    0.63320    1.000
    C28      C        0.41250    0.95720    0.64840    1.000
    H17      H        0.41240    0.97690    0.66870    1.000
    C29      C        0.45540    0.93900    0.63380    1.000
    H18      H        0.48430    0.94650    0.64430    1.000
    C30      C        0.41640    0.90450    0.59060    1.000
    H19      H        0.41740    0.88830    0.57010    1.000
    C31      C        0.37230    0.92010    0.60380    1.000
    H20      H        0.34410    0.91260    0.59260    1.000
    C32      C        0.19960    0.94270    0.63020    1.000
    C33      C        0.19960    0.91040    0.60100    1.000
    H21      H        0.22840    0.90110    0.59050    1.000
    C34      C        0.15630    0.89220    0.58750    1.000
    H22      H        0.15620    0.86970    0.56750    1.000
    C35      C        0.11590    0.93830    0.62950    1.000
    H23      H        0.08660    0.94920    0.63930    1.000
    C36      C        0.15650    0.95690    0.64410    1.000
    H24      H        0.15550    0.97990    0.66400    1.000
    I1       I        0.98726    0.94405    0.61115    1.000
    I2       I        0.06467    0.67486    0.57999    1.000
    I3       I        0.19388    0.66811    0.31070    1.000
    I4       I        0.32405    0.82465    0.33241    1.000
    I5       I        0.06877    0.70615    0.37324    1.000
    I6       I        0.00625    0.70073    0.46457    1.000
    N1       N        0.05670    0.91630    0.54130    1.000
    N2       N        0.08160    0.15630    0.45970    1.000
    N3       N        0.12510    0.15880    0.41330    1.000
    N4       N        0.11900    0.01410    0.44100    1.000
    N5       N        0.05110    0.49000    0.42140    1.000
    N6       N        0.20000    0.90880    0.34860    1.000
    N7       N        0.27030    0.09420    0.77890    1.000
    N8       N        0.32500    0.98390    0.67760    1.000
    N9       N        0.28620    0.94610    0.63220    1.000
    N10      N        0.24120    0.98340    0.67520    1.000
    N11      N        0.45660    0.91130    0.60520    1.000
    N12      N        0.11550    0.90450    0.60110    1.000
    Zn1      Zn       0.05230    0.85602    0.58300    1.000
    Zn2      Zn       0.23722    0.82865    0.31753    1.000
    Zn3      Zn       0.02115    0.62340    0.41355    1.000
    C37      C        0.45290    0.99040    0.03790    1.000
    H25      H        0.46750    0.95640    0.05380    1.000
    C38      C        0.44220    0.94090    0.01180    1.000
    H26      H        0.44980    0.87440    0.00990    1.000
    C39      C        0.42060    0.98870    0.98890    1.000
    C40      C        0.41250    0.08580    0.99180    1.000
    H27      H        0.39870    0.12170    0.97600    1.000
    C41      C        0.42510    0.13120    0.01860    1.000
    H28      H        0.42020    0.19880    0.02040    1.000
    C42      C        0.40580    0.93620    0.96190    1.000
    C43      C        0.40170    0.79920    0.93500    1.000
    C44      C        0.36720    0.93400    0.91750    1.000
    C45      C        0.41650    0.69710    0.93010    1.000
    C46      C        0.44210    0.65010    0.95220    1.000
    H29      H        0.44880    0.68170    0.97050    1.000
    C47      C        0.45740    0.55770    0.94730    1.000
    H30      H        0.47470    0.52580    0.96260    1.000
    C48      C        0.42360    0.55590    0.90080    1.000
    H31      H        0.41580    0.52220    0.88310    1.000
    C49      C        0.40820    0.64910    0.90390    1.000
    H32      H        0.39190    0.68030    0.88810    1.000
    C50      C        0.34250    0.98610    0.89350    1.000
    C51      C        0.31780    0.94140    0.87120    1.000
    H33      H        0.31560    0.87300    0.87080    1.000
    C52      C        0.29670    0.99460    0.84990    1.000
    H34      H        0.27860    0.96230    0.83510    1.000
    C53      C        0.32400    0.13580    0.86950    1.000
    H35      H        0.32600    0.20420    0.86900    1.000
    C54      C        0.34620    0.08790    0.89200    1.000
    H36      H        0.36390    0.12230    0.90650    1.000
    C55      C        0.18820    0.91680    0.26620    1.000
    H37      H        0.16070    0.90110    0.27740    1.000
    C56      C        0.18230    0.95000    0.23740    1.000
    H38      H        0.15160    0.95610    0.22910    1.000
    C57      C        0.22110    0.97390    0.22110    1.000
    C58      C        0.26500    0.96720    0.23460    1.000
    H39      H        0.29250    0.98640    0.22400    1.000
    C59      C        0.26890    0.93270    0.26330    1.000
    H40      H        0.29930    0.92780    0.27220    1.000
    C60      C        0.21770    0.00440    0.18930    1.000
    C61      C        0.17560    0.04050    0.14840    1.000
    C62      C        0.25450    0.04090    0.14650    1.000
    C63      C        0.12970    0.05380    0.13320    1.000
    C64      C        0.08750    0.04280    0.14840    1.000
    H41      H        0.08760    0.02310    0.16870    1.000
    C65      C        0.04460    0.06100    0.13380    1.000
    H42      H        0.01570    0.05350    0.14430    1.000
    C66      C        0.08360    0.09550    0.09060    1.000
    H43      H        0.08260    0.11170    0.07010    1.000
    C67      C        0.12770    0.07990    0.10380    1.000
    H44      H        0.15590    0.08740    0.09260    1.000
    C68      C        0.30040    0.05730    0.13020    1.000
    C69      C        0.30040    0.08960    0.10100    1.000
    H45      H        0.27160    0.09890    0.09050    1.000
    C70      C        0.34370    0.10780    0.08750    1.000
    H46      H        0.34380    0.13030    0.06750    1.000
    C71      C        0.38410    0.06170    0.12950    1.000
    H47      H        0.41340    0.05080    0.13930    1.000
    C72      C        0.34350    0.04310    0.14410    1.000
    H48      H        0.34450    0.02010    0.16400    1.000
    I7       I        0.51274    0.05595    0.11115    1.000
    I8       I        0.43533    0.32514    0.07999    1.000
    I9       I        0.30612    0.33189    0.81070    1.000
    I10      I        0.17595    0.17535    0.83241    1.000
    I11      I        0.43123    0.29385    0.87324    1.000
    I12      I        0.49375    0.29927    0.96457    1.000
    N13      N        0.44330    0.08370    0.04130    1.000
    N14      N        0.41840    0.84370    0.95970    1.000
    N15      N        0.37490    0.84120    0.91330    1.000
    N16      N        0.38100    0.98590    0.94100    1.000
    N17      N        0.44890    0.51000    0.92140    1.000
    N18      N        0.30000    0.09120    0.84860    1.000
    N19      N        0.22970    0.90580    0.27890    1.000
    N20      N        0.17500    0.01610    0.17760    1.000
    N21      N        0.21380    0.05390    0.13220    1.000
    N22      N        0.25880    0.01660    0.17520    1.000
    N23      N        0.04340    0.08870    0.10520    1.000
    N24      N        0.38450    0.09550    0.10110    1.000
    Zn4      Zn       0.44770    0.14398    0.08300    1.000
    Zn5      Zn       0.26278    0.17135    0.81753    1.000
    Zn6      Zn       0.47885    0.37660    0.91355    1.000
    C73      C        0.95290    0.50960    0.96210    1.000
    H49      H        0.96750    0.54360    0.94620    1.000
    C74      C        0.94220    0.55910    0.98820    1.000
    H50      H        0.94980    0.62560    0.99010    1.000
    C75      C        0.92060    0.51130    0.01110    1.000
    C76      C        0.91250    0.41420    0.00820    1.000
    H51      H        0.89870    0.37830    0.02400    1.000
    C77      C        0.92510    0.36880    0.98140    1.000
    H52      H        0.92020    0.30120    0.97960    1.000
    C78      C        0.90580    0.56380    0.03810    1.000
    C79      C        0.90170    0.70080    0.06500    1.000
    C80      C        0.86720    0.56600    0.08250    1.000
    C81      C        0.91650    0.80290    0.06990    1.000
    C82      C        0.94210    0.84990    0.04780    1.000
    H53      H        0.94880    0.81830    0.02950    1.000
    C83      C        0.95740    0.94230    0.05270    1.000
    H54      H        0.97470    0.97420    0.03740    1.000
    C84      C        0.92360    0.94410    0.09920    1.000
    H55      H        0.91580    0.97780    0.11690    1.000
    C85      C        0.90820    0.85090    0.09610    1.000
    H56      H        0.89190    0.81970    0.11190    1.000
    C86      C        0.84250    0.51390    0.10650    1.000
    C87      C        0.81780    0.55860    0.12880    1.000
    H57      H        0.81560    0.62700    0.12920    1.000
    C88      C        0.79670    0.50540    0.15010    1.000
    H58      H        0.77860    0.53770    0.16490    1.000
    C89      C        0.82400    0.36420    0.13050    1.000
    H59      H        0.82600    0.29580    0.13100    1.000
    C90      C        0.84620    0.41210    0.10800    1.000
    H60      H        0.86390    0.37770    0.09350    1.000
    C91      C        0.68820    0.58320    0.73380    1.000
    H61      H        0.66070    0.59890    0.72260    1.000
    C92      C        0.68230    0.55000    0.76260    1.000
    H62      H        0.65160    0.54390    0.77090    1.000
    C93      C        0.72110    0.52610    0.77890    1.000
    C94      C        0.76500    0.53280    0.76540    1.000
    H63      H        0.79250    0.51360    0.77600    1.000
    C95      C        0.76890    0.56730    0.73670    1.000
    H64      H        0.79930    0.57220    0.72780    1.000
    C96      C        0.71770    0.49560    0.81070    1.000
    C97      C        0.67560    0.45950    0.85160    1.000
    C98      C        0.75450    0.45910    0.85350    1.000
    C99      C        0.62970    0.44620    0.86680    1.000
    C100     C        0.58750    0.45720    0.85160    1.000
    H65      H        0.58760    0.47690    0.83130    1.000
    C101     C        0.54460    0.43900    0.86620    1.000
    H66      H        0.51570    0.44650    0.85570    1.000
    C102     C        0.58360    0.40450    0.90940    1.000
    H67      H        0.58260    0.38830    0.92990    1.000
    C103     C        0.62770    0.42010    0.89620    1.000
    H68      H        0.65590    0.41260    0.90740    1.000
    C104     C        0.80040    0.44270    0.86980    1.000
    C105     C        0.80040    0.41040    0.89900    1.000
    H69      H        0.77160    0.40110    0.90950    1.000
    C106     C        0.84370    0.39220    0.91250    1.000
    H70      H        0.84380    0.36970    0.93250    1.000
    C107     C        0.88410    0.43830    0.87050    1.000
    H71      H        0.91340    0.44920    0.86070    1.000
    C108     C        0.84350    0.45690    0.85590    1.000
    H72      H        0.84450    0.47990    0.83600    1.000
    I13      I        0.01274    0.44405    0.88885    1.000
    I14      I        0.93533    0.17486    0.92001    1.000
    I15      I        0.80612    0.16811    0.18930    1.000
    I16      I        0.67595    0.32465    0.16759    1.000
    I17      I        0.93123    0.20615    0.12676    1.000
    I18      I        0.99375    0.20073    0.03543    1.000
    N25      N        0.94330    0.41630    0.95870    1.000
    N26      N        0.91840    0.65630    0.04030    1.000
    N27      N        0.87490    0.65880    0.08670    1.000
    N28      N        0.88100    0.51410    0.05900    1.000
    N29      N        0.94890    0.99000    0.07860    1.000
    N30      N        0.80000    0.40880    0.15140    1.000
    N31      N        0.72970    0.59420    0.72110    1.000
    N32      N        0.67500    0.48390    0.82240    1.000
    N33      N        0.71380    0.44610    0.86780    1.000
    N34      N        0.75880    0.48340    0.82480    1.000
    N35      N        0.54340    0.41130    0.89480    1.000
    N36      N        0.88450    0.40450    0.89890    1.000
    Zn7      Zn       0.94770    0.35602    0.91700    1.000
    Zn8      Zn       0.76278    0.32865    0.18247    1.000
    Zn9      Zn       0.97885    0.12340    0.08645    1.000
    C109     C        0.54710    0.49040    0.46210    1.000
    H73      H        0.53250    0.45640    0.44620    1.000
    C110     C        0.55780    0.44090    0.48820    1.000
    H74      H        0.55020    0.37440    0.49010    1.000
    C111     C        0.57940    0.48870    0.51110    1.000
    C112     C        0.58750    0.58580    0.50820    1.000
    H75      H        0.60130    0.62170    0.52400    1.000
    C113     C        0.57490    0.63120    0.48140    1.000
    H76      H        0.57980    0.69880    0.47960    1.000
    C114     C        0.59420    0.43620    0.53810    1.000
    C115     C        0.59830    0.29920    0.56500    1.000
    C116     C        0.63280    0.43400    0.58250    1.000
    C117     C        0.58350    0.19710    0.56990    1.000
    C118     C        0.55790    0.15010    0.54780    1.000
    H77      H        0.55120    0.18170    0.52950    1.000
    C119     C        0.54260    0.05770    0.55270    1.000
    H78      H        0.52530    0.02580    0.53740    1.000
    C120     C        0.57640    0.05590    0.59920    1.000
    H79      H        0.58420    0.02220    0.61690    1.000
    C121     C        0.59180    0.14910    0.59610    1.000
    H80      H        0.60810    0.18030    0.61190    1.000
    C122     C        0.65750    0.48610    0.60650    1.000
    C123     C        0.68220    0.44140    0.62880    1.000
    H81      H        0.68440    0.37300    0.62920    1.000
    C124     C        0.70330    0.49460    0.65010    1.000
    H82      H        0.72140    0.46230    0.66490    1.000
    C125     C        0.67600    0.63580    0.63050    1.000
    H83      H        0.67400    0.70420    0.63100    1.000
    C126     C        0.65380    0.58790    0.60800    1.000
    H84      H        0.63610    0.62230    0.59350    1.000
    C127     C        0.81180    0.41680    0.23380    1.000
    H85      H        0.83930    0.40110    0.22260    1.000
    C128     C        0.81770    0.45000    0.26260    1.000
    H86      H        0.84840    0.45610    0.27090    1.000
    C129     C        0.77890    0.47390    0.27890    1.000
    C130     C        0.73500    0.46720    0.26540    1.000
    H87      H        0.70750    0.48640    0.27600    1.000
    C131     C        0.73110    0.43270    0.23670    1.000
    H88      H        0.70070    0.42780    0.22780    1.000
    C132     C        0.78230    0.50440    0.31070    1.000
    C133     C        0.82440    0.54050    0.35160    1.000
    C134     C        0.74550    0.54090    0.35350    1.000
    C135     C        0.87030    0.55380    0.36680    1.000
    C136     C        0.91250    0.54280    0.35160    1.000
    H89      H        0.91240    0.52310    0.33130    1.000
    C137     C        0.95540    0.56100    0.36620    1.000
    H90      H        0.98430    0.55350    0.35570    1.000
    C138     C        0.91640    0.59550    0.40940    1.000
    H91      H        0.91740    0.61170    0.42990    1.000
    C139     C        0.87230    0.57990    0.39620    1.000
    H92      H        0.84410    0.58740    0.40740    1.000
    C140     C        0.69960    0.55730    0.36980    1.000
    C141     C        0.69960    0.58960    0.39900    1.000
    H93      H        0.72840    0.59890    0.40950    1.000
    C142     C        0.65630    0.60780    0.41250    1.000
    H94      H        0.65620    0.63030    0.43250    1.000
    C143     C        0.61590    0.56170    0.37050    1.000
    H95      H        0.58660    0.55080    0.36070    1.000
    C144     C        0.65650    0.54310    0.35590    1.000
    H96      H        0.65550    0.52010    0.33600    1.000
    I19      I        0.48726    0.55595    0.38885    1.000
    I20      I        0.56467    0.82514    0.42001    1.000
    I21      I        0.69388    0.83189    0.68930    1.000
    I22      I        0.82405    0.67535    0.66759    1.000
    I23      I        0.56877    0.79385    0.62676    1.000
    I24      I        0.50625    0.79927    0.53543    1.000
    N37      N        0.55670    0.58370    0.45870    1.000
    N38      N        0.58160    0.34370    0.54030    1.000
    N39      N        0.62510    0.34120    0.58670    1.000
    N40      N        0.61900    0.48590    0.55900    1.000
    N41      N        0.55110    0.01000    0.57860    1.000
    N42      N        0.70000    0.59120    0.65140    1.000
    N43      N        0.77030    0.40580    0.22110    1.000
    N44      N        0.82500    0.51610    0.32240    1.000
    N45      N        0.78620    0.55390    0.36780    1.000
    N46      N        0.74120    0.51660    0.32480    1.000
    N47      N        0.95660    0.58870    0.39480    1.000
    N48      N        0.61550    0.59550    0.39890    1.000
    Zn10     Zn       0.55230    0.64398    0.41700    1.000
    Zn11     Zn       0.73722    0.67135    0.68247    1.000
    Zn12     Zn       0.52115    0.87660    0.58645    1.000
    C145     C        0.95290    0.99040    0.46210    1.000
    H97      H        0.96750    0.95640    0.44620    1.000
    C146     C        0.94220    0.94090    0.48820    1.000
    H98      H        0.94980    0.87440    0.49010    1.000
    C147     C        0.92060    0.98870    0.51110    1.000
    C148     C        0.91250    0.08580    0.50820    1.000
    H99      H        0.89870    0.12170    0.52400    1.000
    C149     C        0.92510    0.13120    0.48140    1.000
    H100     H        0.92020    0.19880    0.47960    1.000
    C150     C        0.90580    0.93620    0.53810    1.000
    C151     C        0.90170    0.79920    0.56500    1.000
    C152     C        0.86720    0.93400    0.58250    1.000
    C153     C        0.91650    0.69710    0.56990    1.000
    C154     C        0.94210    0.65010    0.54780    1.000
    H101     H        0.94880    0.68170    0.52950    1.000
    C155     C        0.95740    0.55770    0.55270    1.000
    H102     H        0.97470    0.52580    0.53740    1.000
    C156     C        0.92360    0.55590    0.59920    1.000
    H103     H        0.91580    0.52220    0.61690    1.000
    C157     C        0.90820    0.64910    0.59610    1.000
    H104     H        0.89190    0.68030    0.61190    1.000
    C158     C        0.84250    0.98610    0.60650    1.000
    C159     C        0.81780    0.94140    0.62880    1.000
    H105     H        0.81560    0.87300    0.62920    1.000
    C160     C        0.79670    0.99460    0.65010    1.000
    H106     H        0.77860    0.96230    0.66490    1.000
    C161     C        0.82400    0.13580    0.63050    1.000
    H107     H        0.82600    0.20420    0.63100    1.000
    C162     C        0.84620    0.08790    0.60800    1.000
    H108     H        0.86390    0.12230    0.59350    1.000
    C163     C        0.68820    0.91680    0.23380    1.000
    H109     H        0.66070    0.90110    0.22260    1.000
    C164     C        0.68230    0.95000    0.26260    1.000
    H110     H        0.65160    0.95610    0.27090    1.000
    C165     C        0.72110    0.97390    0.27890    1.000
    C166     C        0.76500    0.96720    0.26540    1.000
    H111     H        0.79250    0.98640    0.27600    1.000
    C167     C        0.76890    0.93270    0.23670    1.000
    H112     H        0.79930    0.92780    0.22780    1.000
    C168     C        0.71770    0.00440    0.31070    1.000
    C169     C        0.67560    0.04050    0.35160    1.000
    C170     C        0.75450    0.04090    0.35350    1.000
    C171     C        0.62970    0.05380    0.36680    1.000
    C172     C        0.58750    0.04280    0.35160    1.000
    H113     H        0.58760    0.02310    0.33130    1.000
    C173     C        0.54460    0.06100    0.36620    1.000
    H114     H        0.51570    0.05350    0.35570    1.000
    C174     C        0.58360    0.09550    0.40940    1.000
    H115     H        0.58260    0.11170    0.42990    1.000
    C175     C        0.62770    0.07990    0.39620    1.000
    H116     H        0.65590    0.08740    0.40740    1.000
    C176     C        0.80040    0.05730    0.36980    1.000
    C177     C        0.80040    0.08960    0.39900    1.000
    H117     H        0.77160    0.09890    0.40950    1.000
    C178     C        0.84370    0.10780    0.41250    1.000
    H118     H        0.84380    0.13030    0.43250    1.000
    C179     C        0.88410    0.06170    0.37050    1.000
    H119     H        0.91340    0.05080    0.36070    1.000
    C180     C        0.84350    0.04310    0.35590    1.000
    H120     H        0.84450    0.02010    0.33600    1.000
    I25      I        0.01274    0.05595    0.38885    1.000
    I26      I        0.93533    0.32514    0.42001    1.000
    I27      I        0.80612    0.33189    0.68930    1.000
    I28      I        0.67595    0.17535    0.66759    1.000
    I29      I        0.93123    0.29385    0.62676    1.000
    I30      I        0.99375    0.29927    0.53543    1.000
    N49      N        0.94330    0.08370    0.45870    1.000
    N50      N        0.91840    0.84370    0.54030    1.000
    N51      N        0.87490    0.84120    0.58670    1.000
    N52      N        0.88100    0.98590    0.55900    1.000
    N53      N        0.94890    0.51000    0.57860    1.000
    N54      N        0.80000    0.09120    0.65140    1.000
    N55      N        0.72970    0.90580    0.22110    1.000
    N56      N        0.67500    0.01610    0.32240    1.000
    N57      N        0.71380    0.05390    0.36780    1.000
    N58      N        0.75880    0.01660    0.32480    1.000
    N59      N        0.54340    0.08870    0.39480    1.000
    N60      N        0.88450    0.09550    0.39890    1.000
    Zn13     Zn       0.94770    0.14398    0.41700    1.000
    Zn14     Zn       0.76278    0.17135    0.68247    1.000
    Zn15     Zn       0.97885    0.37660    0.58645    1.000
    C181     C        0.54710    0.00960    0.96210    1.000
    H121     H        0.53250    0.04360    0.94620    1.000
    C182     C        0.55780    0.05910    0.98820    1.000
    H122     H        0.55020    0.12560    0.99010    1.000
    C183     C        0.57940    0.01130    0.01110    1.000
    C184     C        0.58750    0.91420    0.00820    1.000
    H123     H        0.60130    0.87830    0.02400    1.000
    C185     C        0.57490    0.86880    0.98140    1.000
    H124     H        0.57980    0.80120    0.97960    1.000
    C186     C        0.59420    0.06380    0.03810    1.000
    C187     C        0.59830    0.20080    0.06500    1.000
    C188     C        0.63280    0.06600    0.08250    1.000
    C189     C        0.58350    0.30290    0.06990    1.000
    C190     C        0.55790    0.34990    0.04780    1.000
    H125     H        0.55120    0.31830    0.02950    1.000
    C191     C        0.54260    0.44230    0.05270    1.000
    H126     H        0.52530    0.47420    0.03740    1.000
    C192     C        0.57640    0.44410    0.09920    1.000
    H127     H        0.58420    0.47780    0.11690    1.000
    C193     C        0.59180    0.35090    0.09610    1.000
    H128     H        0.60810    0.31970    0.11190    1.000
    C194     C        0.65750    0.01390    0.10650    1.000
    C195     C        0.68220    0.05860    0.12880    1.000
    H129     H        0.68440    0.12700    0.12920    1.000
    C196     C        0.70330    0.00540    0.15010    1.000
    H130     H        0.72140    0.03770    0.16490    1.000
    C197     C        0.67600    0.86420    0.13050    1.000
    H131     H        0.67400    0.79580    0.13100    1.000
    C198     C        0.65380    0.91210    0.10800    1.000
    H132     H        0.63610    0.87770    0.09350    1.000
    C199     C        0.81180    0.08320    0.73380    1.000
    H133     H        0.83930    0.09890    0.72260    1.000
    C200     C        0.81770    0.05000    0.76260    1.000
    H134     H        0.84840    0.04390    0.77090    1.000
    C201     C        0.77890    0.02610    0.77890    1.000
    C202     C        0.73500    0.03280    0.76540    1.000
    H135     H        0.70750    0.01360    0.77600    1.000
    C203     C        0.73110    0.06730    0.73670    1.000
    H136     H        0.70070    0.07220    0.72780    1.000
    C204     C        0.78230    0.99560    0.81070    1.000
    C205     C        0.82440    0.95950    0.85160    1.000
    C206     C        0.74550    0.95910    0.85350    1.000
    C207     C        0.87030    0.94620    0.86680    1.000
    C208     C        0.91250    0.95720    0.85160    1.000
    H137     H        0.91240    0.97690    0.83130    1.000
    C209     C        0.95540    0.93900    0.86620    1.000
    H138     H        0.98430    0.94650    0.85570    1.000
    C210     C        0.91640    0.90450    0.90940    1.000
    H139     H        0.91740    0.88830    0.92990    1.000
    C211     C        0.87230    0.92010    0.89620    1.000
    H140     H        0.84410    0.91260    0.90740    1.000
    C212     C        0.69960    0.94270    0.86980    1.000
    C213     C        0.69960    0.91040    0.89900    1.000
    H141     H        0.72840    0.90110    0.90950    1.000
    C214     C        0.65630    0.89220    0.91250    1.000
    H142     H        0.65620    0.86970    0.93250    1.000
    C215     C        0.61590    0.93830    0.87050    1.000
    H143     H        0.58660    0.94920    0.86070    1.000
    C216     C        0.65650    0.95690    0.85590    1.000
    H144     H        0.65550    0.97990    0.83600    1.000
    I31      I        0.48726    0.94405    0.88885    1.000
    I32      I        0.56467    0.67486    0.92001    1.000
    I33      I        0.69388    0.66811    0.18930    1.000
    I34      I        0.82405    0.82465    0.16759    1.000
    I35      I        0.56877    0.70615    0.12676    1.000
    I36      I        0.50625    0.70073    0.03543    1.000
    N61      N        0.55670    0.91630    0.95870    1.000
    N62      N        0.58160    0.15630    0.04030    1.000
    N63      N        0.62510    0.15880    0.08670    1.000
    N64      N        0.61900    0.01410    0.05900    1.000
    N65      N        0.55110    0.49000    0.07860    1.000
    N66      N        0.70000    0.90880    0.15140    1.000
    N67      N        0.77030    0.09420    0.72110    1.000
    N68      N        0.82500    0.98390    0.82240    1.000
    N69      N        0.78620    0.94610    0.86780    1.000
    N70      N        0.74120    0.98340    0.82480    1.000
    N71      N        0.95660    0.91130    0.89480    1.000
    N72      N        0.61550    0.90450    0.89890    1.000
    Zn16     Zn       0.55230    0.85602    0.91700    1.000
    Zn17     Zn       0.73722    0.82865    0.18247    1.000
    Zn18     Zn       0.52115    0.62340    0.08645    1.000
    C217     C        0.04710    0.49040    0.03790    1.000
    H145     H        0.03250    0.45640    0.05380    1.000
    C218     C        0.05780    0.44090    0.01180    1.000
    H146     H        0.05020    0.37440    0.00990    1.000
    C219     C        0.07940    0.48870    0.98890    1.000
    C220     C        0.08750    0.58580    0.99180    1.000
    H147     H        0.10130    0.62170    0.97600    1.000
    C221     C        0.07490    0.63120    0.01860    1.000
    H148     H        0.07980    0.69880    0.02040    1.000
    C222     C        0.09420    0.43620    0.96190    1.000
    C223     C        0.09830    0.29920    0.93500    1.000
    C224     C        0.13280    0.43400    0.91750    1.000
    C225     C        0.08350    0.19710    0.93010    1.000
    C226     C        0.05790    0.15010    0.95220    1.000
    H149     H        0.05120    0.18170    0.97050    1.000
    C227     C        0.04260    0.05770    0.94730    1.000
    H150     H        0.02530    0.02580    0.96260    1.000
    C228     C        0.07640    0.05590    0.90080    1.000
    H151     H        0.08420    0.02220    0.88310    1.000
    C229     C        0.09180    0.14910    0.90390    1.000
    H152     H        0.10810    0.18030    0.88810    1.000
    C230     C        0.15750    0.48610    0.89350    1.000
    C231     C        0.18220    0.44140    0.87120    1.000
    H153     H        0.18440    0.37300    0.87080    1.000
    C232     C        0.20330    0.49460    0.84990    1.000
    H154     H        0.22140    0.46230    0.83510    1.000
    C233     C        0.17600    0.63580    0.86950    1.000
    H155     H        0.17400    0.70420    0.86900    1.000
    C234     C        0.15380    0.58790    0.89200    1.000
    H156     H        0.13610    0.62230    0.90650    1.000
    C235     C        0.31180    0.41680    0.26620    1.000
    H157     H        0.33930    0.40110    0.27740    1.000
    C236     C        0.31770    0.45000    0.23740    1.000
    H158     H        0.34840    0.45610    0.22910    1.000
    C237     C        0.27890    0.47390    0.22110    1.000
    C238     C        0.23500    0.46720    0.23460    1.000
    H159     H        0.20750    0.48640    0.22400    1.000
    C239     C        0.23110    0.43270    0.26330    1.000
    H160     H        0.20070    0.42780    0.27220    1.000
    C240     C        0.28230    0.50440    0.18930    1.000
    C241     C        0.32440    0.54050    0.14840    1.000
    C242     C        0.24550    0.54090    0.14650    1.000
    C243     C        0.37030    0.55380    0.13320    1.000
    C244     C        0.41250    0.54280    0.14840    1.000
    H161     H        0.41240    0.52310    0.16870    1.000
    C245     C        0.45540    0.56100    0.13380    1.000
    H162     H        0.48430    0.55350    0.14430    1.000
    C246     C        0.41640    0.59550    0.09060    1.000
    H163     H        0.41740    0.61170    0.07010    1.000
    C247     C        0.37230    0.57990    0.10380    1.000
    H164     H        0.34410    0.58740    0.09260    1.000
    C248     C        0.19960    0.55730    0.13020    1.000
    C249     C        0.19960    0.58960    0.10100    1.000
    H165     H        0.22840    0.59890    0.09050    1.000
    C250     C        0.15630    0.60780    0.08750    1.000
    H166     H        0.15620    0.63030    0.06750    1.000
    C251     C        0.11590    0.56170    0.12950    1.000
    H167     H        0.08660    0.55080    0.13930    1.000
    C252     C        0.15650    0.54310    0.14410    1.000
    H168     H        0.15550    0.52010    0.16400    1.000
    I37      I        0.98726    0.55595    0.11115    1.000
    I38      I        0.06467    0.82514    0.07999    1.000
    I39      I        0.19388    0.83189    0.81070    1.000
    I40      I        0.32405    0.67535    0.83241    1.000
    I41      I        0.06877    0.79385    0.87324    1.000
    I42      I        0.00625    0.79927    0.96457    1.000
    N73      N        0.05670    0.58370    0.04130    1.000
    N74      N        0.08160    0.34370    0.95970    1.000
    N75      N        0.12510    0.34120    0.91330    1.000
    N76      N        0.11900    0.48590    0.94100    1.000
    N77      N        0.05110    0.01000    0.92140    1.000
    N78      N        0.20000    0.59120    0.84860    1.000
    N79      N        0.27030    0.40580    0.27890    1.000
    N80      N        0.32500    0.51610    0.17760    1.000
    N81      N        0.28620    0.55390    0.13220    1.000
    N82      N        0.24120    0.51660    0.17520    1.000
    N83      N        0.45660    0.58870    0.10520    1.000
    N84      N        0.11550    0.59550    0.10110    1.000
    Zn19     Zn       0.05230    0.64398    0.08300    1.000
    Zn20     Zn       0.23722    0.67135    0.81753    1.000
    Zn21     Zn       0.02115    0.87660    0.91355    1.000
    C253     C        0.45290    0.50960    0.53790    1.000
    H169     H        0.46750    0.54360    0.55380    1.000
    C254     C        0.44220    0.55910    0.51180    1.000
    H170     H        0.44980    0.62560    0.50990    1.000
    C255     C        0.42060    0.51130    0.48890    1.000
    C256     C        0.41250    0.41420    0.49180    1.000
    H171     H        0.39870    0.37830    0.47600    1.000
    C257     C        0.42510    0.36880    0.51860    1.000
    H172     H        0.42020    0.30120    0.52040    1.000
    C258     C        0.40580    0.56380    0.46190    1.000
    C259     C        0.40170    0.70080    0.43500    1.000
    C260     C        0.36720    0.56600    0.41750    1.000
    C261     C        0.41650    0.80290    0.43010    1.000
    C262     C        0.44210    0.84990    0.45220    1.000
    H173     H        0.44880    0.81830    0.47050    1.000
    C263     C        0.45740    0.94230    0.44730    1.000
    H174     H        0.47470    0.97420    0.46260    1.000
    C264     C        0.42360    0.94410    0.40080    1.000
    H175     H        0.41580    0.97780    0.38310    1.000
    C265     C        0.40820    0.85090    0.40390    1.000
    H176     H        0.39190    0.81970    0.38810    1.000
    C266     C        0.34250    0.51390    0.39350    1.000
    C267     C        0.31780    0.55860    0.37120    1.000
    H177     H        0.31560    0.62700    0.37080    1.000
    C268     C        0.29670    0.50540    0.34990    1.000
    H178     H        0.27860    0.53770    0.33510    1.000
    C269     C        0.32400    0.36420    0.36950    1.000
    H179     H        0.32600    0.29580    0.36900    1.000
    C270     C        0.34620    0.41210    0.39200    1.000
    H180     H        0.36390    0.37770    0.40650    1.000
    C271     C        0.18820    0.58320    0.76620    1.000
    H181     H        0.16070    0.59890    0.77740    1.000
    C272     C        0.18230    0.55000    0.73740    1.000
    H182     H        0.15160    0.54390    0.72910    1.000
    C273     C        0.22110    0.52610    0.72110    1.000
    C274     C        0.26500    0.53280    0.73460    1.000
    H183     H        0.29250    0.51360    0.72400    1.000
    C275     C        0.26890    0.56730    0.76330    1.000
    H184     H        0.29930    0.57220    0.77220    1.000
    C276     C        0.21770    0.49560    0.68930    1.000
    C277     C        0.17560    0.45950    0.64840    1.000
    C278     C        0.25450    0.45910    0.64650    1.000
    C279     C        0.12970    0.44620    0.63320    1.000
    C280     C        0.08750    0.45720    0.64840    1.000
    H185     H        0.08760    0.47690    0.66870    1.000
    C281     C        0.04460    0.43900    0.63380    1.000
    H186     H        0.01570    0.44650    0.64430    1.000
    C282     C        0.08360    0.40450    0.59060    1.000
    H187     H        0.08260    0.38830    0.57010    1.000
    C283     C        0.12770    0.42010    0.60380    1.000
    H188     H        0.15590    0.41260    0.59260    1.000
    C284     C        0.30040    0.44270    0.63020    1.000
    C285     C        0.30040    0.41040    0.60100    1.000
    H189     H        0.27160    0.40110    0.59050    1.000
    C286     C        0.34370    0.39220    0.58750    1.000
    H190     H        0.34380    0.36970    0.56750    1.000
    C287     C        0.38410    0.43830    0.62950    1.000
    H191     H        0.41340    0.44920    0.63930    1.000
    C288     C        0.34350    0.45690    0.64410    1.000
    H192     H        0.34450    0.47990    0.66400    1.000
    I43      I        0.51274    0.44405    0.61115    1.000
    I44      I        0.43533    0.17486    0.57999    1.000
    I45      I        0.30612    0.16811    0.31070    1.000
    I46      I        0.17595    0.32465    0.33241    1.000
    I47      I        0.43123    0.20615    0.37324    1.000
    I48      I        0.49375    0.20073    0.46457    1.000
    N85      N        0.44330    0.41630    0.54130    1.000
    N86      N        0.41840    0.65630    0.45970    1.000
    N87      N        0.37490    0.65880    0.41330    1.000
    N88      N        0.38100    0.51410    0.44100    1.000
    N89      N        0.44890    0.99000    0.42140    1.000
    N90      N        0.30000    0.40880    0.34860    1.000
    N91      N        0.22970    0.59420    0.77890    1.000
    N92      N        0.17500    0.48390    0.67760    1.000
    N93      N        0.21380    0.44610    0.63220    1.000
    N94      N        0.25880    0.48340    0.67520    1.000
    N95      N        0.04340    0.41130    0.60520    1.000
    N96      N        0.38450    0.40450    0.60110    1.000
    Zn22     Zn       0.44770    0.35602    0.58300    1.000
    Zn23     Zn       0.26278    0.32865    0.31753    1.000
    Zn24     Zn       0.47885    0.12340    0.41355    1.000
