data_functionalizedCrystal
_audit_creation_method	'EQeq! by Chris Wilmer'
_symmetry_space_group_name_H-M	'P1'
_symmetry_Int_Tables_number	1
_symmetry_cell_setting	triclinic
loop_
_symmetry_equiv_pos_as_xyz
  x,y,z
_cell_length_a	8.4283
_cell_length_b	10.2553
_cell_length_c	17.712
_cell_angle_alpha	90
_cell_angle_beta	103.036
_cell_angle_gamma	90
loop_
_atom_site_label
_atom_site_type_symbol
_atom_site_fract_x
_atom_site_fract_y
_atom_site_fract_z
_atom_site_charge
Mof_Cu	Cu	0.32605	0.44224	0.93208	0.912
Mof_Cu	Cu	0.82605	0.05776	0.43208	0.912
Mof_H 	H 	0.363	0.6617	0.5956	0.15
Mof_H 	H 	0.0334	0.2309	0.6692	0.079
Mof_H 	H 	0.3149	0.5502	0.6998	0.111
Mof_H 	H 	0.1419	0.4123	0.4852	0.124
Mof_H 	H 	0.3944	0.7276	0.3635	0.086
Mof_H 	H 	0.5646	0.8921	0.342	0.015
Mof_H 	H 	0.5687	0.7734	0.5915	0.081
Mof_H 	H 	0.7339	0.9359	0.5651	0.015
Mof_H 	H 	0.863	0.8383	0.0956	0.151
Mof_H 	H 	0.5334	0.2691	0.1692	0.08
Mof_H 	H 	0.8149	0.9498	0.1998	0.113
Mof_H 	H 	0.6419	0.0877	0.9852	0.125
Mof_H 	H 	0.8944	0.7724	0.8635	0.087
Mof_H 	H 	0.0646	0.6079	0.842	0.016
Mof_H 	H 	0.0687	0.7266	0.0915	0.081
Mof_H 	H 	0.2339	0.5641	0.0651	0.015
Mof_C 	C 	0.9853	0.2063	0.5164	0.256
Mof_C 	C 	0.078	0.3059	0.5697	0.005
Mof_C 	C 	0.0872	0.2971	0.6492	-0.061
Mof_C 	C 	0.1783	0.3893	0.6976	0.006
Mof_C 	C 	0.2551	0.4882	0.6669	-0.141
Mof_C 	C 	0.2448	0.4967	0.5878	0.182
Mof_C 	C 	0.153	0.406	0.5385	-0.143
Mof_C 	C 	0.1937	0.3806	0.7834	0.296
Mof_C 	C 	0.359	0.6166	0.4914	0.213
Mof_C 	C 	0.4631	0.7321	0.4809	0.009
Mof_C 	C 	0.463	0.7687	0.4051	-0.094
Mof_C 	C 	0.5662	0.8668	0.3926	0.063
Mof_C 	C 	0.5662	0.7957	0.5403	-0.107
Mof_C 	C 	0.6659	0.8925	0.5242	0.064
Mof_C 	C 	0.4853	0.2937	0.0164	0.256
Mof_C 	C 	0.578	0.1941	0.0697	0.005
Mof_C 	C 	0.5872	0.2029	0.1492	-0.061
Mof_C 	C 	0.6783	0.1107	0.1976	0.006
Mof_C 	C 	0.7551	0.0118	0.1669	-0.142
Mof_C 	C 	0.7448	0.0033	0.0878	0.181
Mof_C 	C 	0.653	0.094	0.0385	-0.142
Mof_C 	C 	0.6937	0.1194	0.2834	0.296
Mof_C 	C 	0.859	0.8834	0.9914	0.213
Mof_C 	C 	0.9631	0.7679	0.9809	0.01
Mof_C 	C 	0.963	0.7313	0.9051	-0.094
Mof_C 	C 	0.0662	0.6332	0.8926	0.063
Mof_C 	C 	0.0662	0.7043	0.0403	-0.108
Mof_C 	C 	0.1659	0.6075	0.0242	0.064
Mof_N 	N 	0.3282	0.6013	0.5624	-0.249
Mof_N 	N 	0.6687	0.9268	0.4511	-0.223
Mof_N 	N 	0.8282	0.8987	0.0624	-0.248
Mof_N 	N 	0.1687	0.5732	0.9511	-0.223
Mof_O 	O 	0.9696	0.215	0.4443	-0.35
Mof_O 	O 	0.9206	0.1087	0.5415	-0.403
Mof_O 	O 	0.119	0.2994	0.8126	-0.299
Mof_O 	O 	0.2929	0.4637	0.8236	-0.38
Mof_O 	O 	0.3106	0.5415	0.4379	-0.222
Mof_O 	O 	0.4696	0.285	0.9443	-0.35
Mof_O 	O 	0.4206	0.3913	0.0415	-0.403
Mof_O 	O 	0.619	0.2006	0.3126	-0.299
Mof_O 	O 	0.7929	0.0363	0.3236	-0.381
Mof_O 	O 	0.8106	0.9585	0.9379	-0.222
Mof_Cu	Cu	0.17395	0.94224	0.56792	0.913
Mof_Cu	Cu	0.67395	0.55776	0.06792	0.913
Mof_H 	H 	0.137	0.1617	0.9044	0.151
Mof_H 	H 	0.4666	0.7309	0.8308	0.08
Mof_H 	H 	0.1851	0.0502	0.8002	0.113
Mof_H 	H 	0.3581	0.9123	0.0148	0.125
Mof_H 	H 	0.1056	0.2276	0.1365	0.087
Mof_H 	H 	0.9354	0.3921	0.158	0.016
Mof_H 	H 	0.9313	0.2734	0.9085	0.081
Mof_H 	H 	0.7661	0.4359	0.9349	0.015
Mof_H 	H 	0.637	0.3383	0.4044	0.151
Mof_H 	H 	0.9666	0.7691	0.3308	0.08
Mof_H 	H 	0.6851	0.4498	0.3002	0.112
Mof_H 	H 	0.8581	0.5877	0.5148	0.125
Mof_H 	H 	0.6056	0.2724	0.6365	0.087
Mof_H 	H 	0.4354	0.1079	0.658	0.016
Mof_H 	H 	0.4313	0.2266	0.4085	0.081
Mof_H 	H 	0.2661	0.0641	0.4349	0.015
Mof_C 	C 	0.5147	0.7063	0.9836	0.256
Mof_C 	C 	0.422	0.8059	0.9303	0.005
Mof_C 	C 	0.4128	0.7971	0.8508	-0.061
Mof_C 	C 	0.3217	0.8893	0.8024	0.006
Mof_C 	C 	0.2449	0.9882	0.8331	-0.142
Mof_C 	C 	0.2552	0.9967	0.9122	0.181
Mof_C 	C 	0.347	0.906	0.9615	-0.142
Mof_C 	C 	0.3063	0.8806	0.7166	0.296
Mof_C 	C 	0.141	0.1166	0.0086	0.213
Mof_C 	C 	0.0369	0.2321	0.0191	0.01
Mof_C 	C 	0.037	0.2687	0.0949	-0.094
Mof_C 	C 	0.9338	0.3668	0.1074	0.063
Mof_C 	C 	0.9338	0.2957	0.9597	-0.108
Mof_C 	C 	0.8341	0.3925	0.9758	0.064
Mof_C 	C 	0.0147	0.7937	0.4836	0.256
Mof_C 	C 	0.922	0.6941	0.4303	0.005
Mof_C 	C 	0.9128	0.7029	0.3508	-0.061
Mof_C 	C 	0.8217	0.6107	0.3024	0.006
Mof_C 	C 	0.7449	0.5118	0.3331	-0.141
Mof_C 	C 	0.7552	0.5033	0.4122	0.182
Mof_C 	C 	0.847	0.594	0.4615	-0.143
Mof_C 	C 	0.8063	0.6194	0.2166	0.296
Mof_C 	C 	0.641	0.3834	0.5086	0.213
Mof_C 	C 	0.5369	0.2679	0.5191	0.009
Mof_C 	C 	0.537	0.2313	0.5949	-0.094
Mof_C 	C 	0.4338	0.1332	0.6074	0.063
Mof_C 	C 	0.4338	0.2043	0.4597	-0.107
Mof_C 	C 	0.3341	0.1075	0.4758	0.064
Mof_N 	N 	0.1718	0.1013	0.9376	-0.248
Mof_N 	N 	0.8313	0.4268	0.0489	-0.223
Mof_N 	N 	0.6718	0.3987	0.4376	-0.249
Mof_N 	N 	0.3313	0.0732	0.5489	-0.223
Mof_O 	O 	0.5304	0.715	0.0557	-0.35
Mof_O 	O 	0.5794	0.6087	0.9585	-0.403
Mof_O 	O 	0.381	0.7994	0.6874	-0.299
Mof_O 	O 	0.2071	0.9637	0.6764	-0.381
Mof_O 	O 	0.1894	0.0415	0.0621	-0.222
Mof_O 	O 	0.0304	0.785	0.5557	-0.35
Mof_O 	O 	0.0794	0.8913	0.4585	-0.403
Mof_O 	O 	0.881	0.7006	0.1874	-0.299
Mof_O 	O 	0.7071	0.5363	0.1764	-0.38
Mof_O 	O 	0.6894	0.4585	0.5621	-0.222
_end
