data_functionalizedCrystal
_audit_creation_method	'EQeq! by Chris Wilmer'
_symmetry_space_group_name_H-M	'P1'
_symmetry_Int_Tables_number	1
_symmetry_cell_setting	triclinic
loop_
_symmetry_equiv_pos_as_xyz
  x,y,z
_cell_length_a	10.807
_cell_length_b	14.066
_cell_length_c	13.084
_cell_angle_alpha	90
_cell_angle_beta	96.342
_cell_angle_gamma	90
loop_
_atom_site_label
_atom_site_type_symbol
_atom_site_fract_x
_atom_site_fract_y
_atom_site_fract_z
_atom_site_charge
Mof_Ga	Ga	0.1312	0.38305	0.939	4.387
Mof_Ga	Ga	0.15087	0.23357	0.36637	4.115
Mof_P 	P 	0.13356	0.22613	0.12294	1.105
Mof_O 	O 	0.97	0.3914	0.9861	-1.156
Mof_P 	P 	0.83258	0.40275	0.98333	1.123
Mof_O 	O 	0.0524	0.2833	0.8295	-0.841
Mof_O 	O 	0.0657	0.4722	0.8219	-0.889
Mof_O 	O 	0.175	0.304	0.0546	-1.153
Mof_O 	O 	0.2153	0.1379	0.1215	-1.095
Mof_O 	O 	0.1422	0.2692	0.2324	-1.243
Mof_O 	O 	0.9968	0.1945	0.0935	-1.231
Mof_O 	O 	0.7842	0.3416	0.07	-1.274
Mof_O 	O 	0.7936	0.5057	0.9929	-1.054
Mof_O 	O 	0.7631	0.3653	0.8805	-1.183
Mof_Ga	Ga	0.6312	0.88305	0.939	4.472
Mof_Ga	Ga	0.65087	0.73357	0.36637	4.141
Mof_P 	P 	0.63356	0.72613	0.12294	1.138
Mof_O 	O 	0.47	0.8914	0.9861	-1.206
Mof_P 	P 	0.33258	0.90275	0.98333	1.093
Mof_O 	O 	0.5524	0.7833	0.8295	-0.847
Mof_O 	O 	0.5657	0.9722	0.8219	-0.901
Mof_O 	O 	0.675	0.804	0.0546	-1.158
Mof_O 	O 	0.7153	0.6379	0.1215	-1.103
Mof_O 	O 	0.6422	0.7692	0.2324	-1.239
Mof_O 	O 	0.4968	0.6945	0.0935	-1.252
Mof_O 	O 	0.2842	0.8416	0.07	-1.255
Mof_O 	O 	0.2936	0.0057	0.9929	-1.039
Mof_O 	O 	0.2631	0.8653	0.8805	-1.187
Mof_Ga	Ga	0.8688	0.38305	0.561	4.563
Mof_Ga	Ga	0.84913	0.23357	0.13363	4.142
Mof_P 	P 	0.86644	0.22613	0.37706	1.169
Mof_O 	O 	0.03	0.3914	0.5139	-1.248
Mof_P 	P 	0.16742	0.40275	0.51667	1.117
Mof_O 	O 	0.9476	0.2833	0.6705	-0.805
Mof_O 	O 	0.9343	0.4722	0.6781	-0.86
Mof_O 	O 	0.825	0.304	0.4454	-1.174
Mof_O 	O 	0.7847	0.1379	0.3785	-1.098
Mof_O 	O 	0.8578	0.2692	0.2676	-1.237
Mof_O 	O 	0.0032	0.1945	0.4065	-1.286
Mof_O 	O 	0.2158	0.3416	0.43	-1.265
Mof_O 	O 	0.2064	0.5057	0.5071	-1.05
Mof_O 	O 	0.2369	0.3653	0.6195	-1.192
Mof_Ga	Ga	0.3688	0.88305	0.561	4.487
Mof_Ga	Ga	0.34913	0.73357	0.13363	4.138
Mof_P 	P 	0.36644	0.72613	0.37706	1.134
Mof_O 	O 	0.53	0.8914	0.5139	-1.209
Mof_P 	P 	0.66742	0.90275	0.51667	1.118
Mof_O 	O 	0.4476	0.7833	0.6705	-0.848
Mof_O 	O 	0.4343	0.9722	0.6781	-0.904
Mof_O 	O 	0.325	0.804	0.4454	-1.166
Mof_O 	O 	0.2847	0.6379	0.3785	-1.085
Mof_O 	O 	0.3578	0.7692	0.2676	-1.242
Mof_O 	O 	0.5032	0.6945	0.4065	-1.254
Mof_O 	O 	0.7158	0.8416	0.43	-1.263
Mof_O 	O 	0.7064	0.0057	0.5071	-1.055
Mof_O 	O 	0.7369	0.8653	0.6195	-1.191
Mof_Ga	Ga	0.8688	0.61695	0.061	4.528
Mof_Ga	Ga	0.84913	0.76643	0.63363	4.159
Mof_P 	P 	0.86644	0.77387	0.87706	1.175
Mof_O 	O 	0.03	0.6086	0.0139	-1.234
Mof_P 	P 	0.16742	0.59725	0.01667	1.122
Mof_O 	O 	0.9476	0.7167	0.1705	-0.812
Mof_O 	O 	0.9343	0.5278	0.1781	-0.869
Mof_O 	O 	0.825	0.696	0.9454	-1.166
Mof_O 	O 	0.7847	0.8621	0.8785	-1.094
Mof_O 	O 	0.8578	0.7308	0.7676	-1.238
Mof_O 	O 	0.0032	0.8055	0.9065	-1.295
Mof_O 	O 	0.2158	0.6584	0.93	-1.268
Mof_O 	O 	0.2064	0.4943	0.0071	-1.045
Mof_O 	O 	0.2369	0.6347	0.1195	-1.191
Mof_Ga	Ga	0.3688	0.11695	0.061	4.45
Mof_Ga	Ga	0.34913	0.26643	0.63363	4.133
Mof_P 	P 	0.36644	0.27387	0.87706	1.132
Mof_O 	O 	0.53	0.1086	0.0139	-1.204
Mof_P 	P 	0.66742	0.09725	0.01667	1.092
Mof_O 	O 	0.4476	0.2167	0.1705	-0.844
Mof_O 	O 	0.4343	0.0278	0.1781	-0.9
Mof_O 	O 	0.325	0.196	0.9454	-1.154
Mof_O 	O 	0.2847	0.3621	0.8785	-1.08
Mof_O 	O 	0.3578	0.2308	0.7676	-1.241
Mof_O 	O 	0.5032	0.3055	0.9065	-1.252
Mof_O 	O 	0.7158	0.1584	0.93	-1.248
Mof_O 	O 	0.7064	0.9943	0.0071	-1.035
Mof_O 	O 	0.7369	0.1347	0.1195	-1.188
Mof_Ga	Ga	0.1312	0.61695	0.439	4.411
Mof_Ga	Ga	0.15087	0.76643	0.86637	4.102
Mof_P 	P 	0.13356	0.77387	0.62294	1.099
Mof_O 	O 	0.97	0.6086	0.4861	-1.169
Mof_P 	P 	0.83258	0.59725	0.48333	1.116
Mof_O 	O 	0.0524	0.7167	0.3295	-0.844
Mof_O 	O 	0.0657	0.5278	0.3219	-0.891
Mof_O 	O 	0.175	0.696	0.5546	-1.157
Mof_O 	O 	0.2153	0.8621	0.6215	-1.1
Mof_O 	O 	0.1422	0.7308	0.7324	-1.243
Mof_O 	O 	0.9968	0.8055	0.5935	-1.22
Mof_O 	O 	0.7842	0.6584	0.57	-1.268
Mof_O 	O 	0.7936	0.4943	0.4929	-1.063
Mof_O 	O 	0.7631	0.6347	0.3805	-1.184
Mof_Ga	Ga	0.6312	0.11695	0.439	4.499
Mof_Ga	Ga	0.65087	0.26643	0.86637	4.149
Mof_P 	P 	0.63356	0.27387	0.62294	1.14
Mof_O 	O 	0.47	0.1086	0.4861	-1.21
Mof_P 	P 	0.33258	0.09725	0.48333	1.116
Mof_O 	O 	0.5524	0.2167	0.3295	-0.85
Mof_O 	O 	0.5657	0.0278	0.3219	-0.904
Mof_O 	O 	0.675	0.196	0.5546	-1.166
Mof_O 	O 	0.7153	0.3621	0.6215	-1.107
Mof_O 	O 	0.6422	0.2308	0.7324	-1.24
Mof_O 	O 	0.4968	0.3055	0.5935	-1.254
Mof_O 	O 	0.2842	0.1584	0.57	-1.269
Mof_O 	O 	0.2936	0.9943	0.4929	-1.062
Mof_O 	O 	0.2631	0.1347	0.3805	-1.189
Mof_C 	C 	-1.4378e-17	0.3224	0.75	0.263
Mof_C 	C 	1.4378e-17	0.4321	0.75	0.333
Mof_C 	C 	0.5	0.8224	0.75	0.315
Mof_C 	C 	0.5	0.9321	0.75	0.387
Mof_C 	C 	1.2602e-33	0.6776	0.25	0.275
Mof_C 	C 	7.18902e-18	0.5679	0.25	0.346
Mof_C 	C 	0.5	0.1776	0.25	0.315
Mof_C 	C 	0.5	0.0679	0.25	0.387
_end
