data_functionalizedCrystal
_audit_creation_method	'EQeq! by Chris Wilmer'
_symmetry_space_group_name_H-M	'P1'
_symmetry_Int_Tables_number	1
_symmetry_cell_setting	triclinic
loop_
_symmetry_equiv_pos_as_xyz
  x,y,z
_cell_length_a	26.238
_cell_length_b	14.1876
_cell_length_c	16.8586
_cell_angle_alpha	90
_cell_angle_beta	98.014
_cell_angle_gamma	90
loop_
_atom_site_label
_atom_site_type_symbol
_atom_site_fract_x
_atom_site_fract_y
_atom_site_fract_z
_atom_site_charge
Mof_C 	C 	0.6611	0.8839	0.3076	0.577
Mof_C 	C 	0.6068	0.9131	0.3186	-0.189
Mof_C 	C 	0.5869	0.881	0.382	0.009
Mof_C 	C 	0.5108	0.9734	0.3344	0.041
Mof_C 	C 	0.5215	0.959	0.2662	0.093
Mof_C 	C 	0.5675	0.928	0.259	-0.016
Mof_C 	C 	0.4603	0.0169	0.3431	0.08
Mof_C 	C 	0.4344	0.97	0.3959	-0.082
Mof_C 	C 	0.3932	0.0291	0.4155	0.095
Mof_C 	C 	0.3695	0.098	0.3667	-0.158
Mof_C 	C 	0.3939	0.1274	0.3035	0.117
Mof_C 	C 	0.3211	0.1473	0.3846	0.491
Mof_C 	C 	0.1709	0.1865	0.3421	0.483
Mof_C 	C 	0.1239	0.1299	0.3401	-0.183
Mof_C 	C 	0.1145	0.0789	0.4082	0.091
Mof_C 	C 	0.0347	0.0285	0.3362	0.058
Mof_C 	C 	0.0522	0.045	0.2664	0.025
Mof_C 	C 	0.0932	0.103	0.2696	0.025
Mof_C 	C 	0.9848	0.9824	0.3373	0.052
Mof_C 	C 	0.9301	0.8867	0.4026	0.127
Mof_C 	C 	0.89	0.9044	0.3445	-0.186
Mof_C 	C 	0.8945	0.984	0.284	0.069
Mof_C 	C 	0.9427	0.02	0.2834	-0.104
Mof_C 	C 	0.8361	0.8746	0.3519	0.524
Mof_C 	C 	0.1742	0.3876	0.4578	0.494
Mof_C 	C 	0.1231	0.422	0.4742	-0.191
Mof_C 	C 	0.0999	0.3855	0.5363	0.129
Mof_C 	C 	0.0262	0.4824	0.4964	0.058
Mof_C 	C 	0.0491	0.521	0.4363	-0.039
Mof_C 	C 	0.0961	0.4888	0.4267	0.079
Mof_C 	C 	0.3317	0.3415	0.5025	0.469
Mof_C 	C 	0.3854	0.375	0.5069	-0.017
Mof_C 	C 	0.401	0.416	0.4358	-0.22
Mof_C 	C 	0.478	0.462	0.5032	-0.022
Mof_C 	C 	0.4687	0.418	0.5701	-0.08
Mof_C 	C 	0.4202	0.378	0.576	0.173
Mof_O 	O 	0.693	0.8789	0.3691	-0.615
Mof_O 	O 	0.6726	0.8753	0.2396	-0.599
Mof_O 	O 	0.2489	0.2822	0.6725	-0.357
Mof_O 	O 	0.2964	0.1939	0.3284	-0.558
Mof_O 	O 	0.3008	0.3428	0.4407	-0.675
Mof_O 	O 	0.1788	0.2278	0.2788	-0.491
Mof_O 	O 	0.1865	0.4003	0.3892	-0.56
Mof_O 	O 	0.8012	0.8984	0.2975	-0.626
Mof_O 	O 	0.3086	0.122	0.4518	-1.353
Mof_O 	O 	0.8309	0.8264	0.4127	-0.544
Mof_O 	O 	0.2021	0.3461	0.5162	-0.519
Mof_O 	O 	0.2015	0.1981	0.4068	-0.634
Mof_O 	O 	0.3226	0.3015	0.5655	-0.534
Mof_N 	N 	0.5364	0.907	0.39	-0.058
Mof_N 	N 	0.4341	0.055	0.286	-0.072
Mof_N 	N 	0.0697	0.0278	0.4052	-0.118
Mof_N 	N 	0.9781	0.9258	0.3995	-0.118
Mof_N 	N 	0.0513	0.4158	0.5494	-0.123
Mof_N 	N 	0.4471	0.44	0.4329	0
Mof_Eu	Eu	0.2503	0.33684	0.31352	2.391
Mof_Eu	Eu	0.24931	0.20146	0.53679	2.322
Mof_C 	C 	0.4665	0.508	0.2322	-0.11
Mof_C 	C 	0.4198	0.477	0.2393	0.096
Mof_C 	C 	0.04	0.09	0.2728	-0.058
Mof_C 	C 	0.0836	0.148	0.2739	0.058
Mof_C 	C 	0.0958	0.058	0.7254	-0.009
Mof_C 	C 	0.0471	0.024	0.7288	0.073
Mof_C 	C 	0.4665	0.509	0.5038	0.074
Mof_C 	C 	0.4573	0.471	0.573	0.083
Mof_C 	C 	0.412	0.425	0.57	-0.125
Mof_N 	N 	0.4577	0.448	0.096	-0.069
Mof_N 	N 	0.4423	0.101	0.2933	-0.071
Mof_N 	N 	0.4356	0.493	0.4368	-0.133
Mof_C 	C 	0.388	0.458	0.4393	0.307
Mof_C 	C 	0.4407	0.007	0.4123	0.044
Mof_C 	C 	0.4058	0.418	0.1	0.098
Mof_O 	O 	0.3117	0.158	0.4562	0.834
Mof_C 	C 	0.3779	0.421	0.503	-0.119
Mof_C 	C 	0.3389	0.3839	0.1924	0.576
Mof_C 	C 	0.3932	0.4131	0.1814	-0.19
Mof_C 	C 	0.4131	0.381	0.118	0.009
Mof_C 	C 	0.4892	0.4734	0.1656	0.04
Mof_C 	C 	0.4785	0.459	0.2338	0.091
Mof_C 	C 	0.4325	0.428	0.241	-0.016
Mof_C 	C 	0.5397	0.5169	0.1569	0.08
Mof_C 	C 	0.5656	0.47	0.1041	-0.081
Mof_C 	C 	0.6068	0.5291	0.0845	0.095
Mof_C 	C 	0.6305	0.598	0.1333	-0.158
Mof_C 	C 	0.6061	0.6274	0.1965	0.117
Mof_C 	C 	0.6789	0.6473	0.1154	0.491
Mof_C 	C 	0.8291	0.6865	0.1579	0.483
Mof_C 	C 	0.8761	0.6299	0.1599	-0.183
Mof_C 	C 	0.8855	0.5789	0.0918	0.091
Mof_C 	C 	0.9653	0.5285	0.1638	0.059
Mof_C 	C 	0.9478	0.545	0.2336	0.025
Mof_C 	C 	0.9068	0.603	0.2304	0.025
Mof_C 	C 	0.0152	0.4824	0.1627	0.052
Mof_C 	C 	0.0699	0.3867	0.0974	0.127
Mof_C 	C 	0.11	0.4044	0.1555	-0.187
Mof_C 	C 	0.1055	0.484	0.216	0.065
Mof_C 	C 	0.0573	0.52	0.2166	-0.104
Mof_C 	C 	0.1639	0.3746	0.1481	0.524
Mof_C 	C 	0.8258	0.8876	0.0422	0.494
Mof_C 	C 	0.8769	0.922	0.0258	-0.19
Mof_C 	C 	0.9001	0.8855	0.9637	0.128
Mof_C 	C 	0.9738	0.9824	0.0036	0.058
Mof_C 	C 	0.9509	0.021	0.0637	-0.037
Mof_C 	C 	0.9039	0.9888	0.0733	0.078
Mof_C 	C 	0.6683	0.8415	0.9975	0.469
Mof_C 	C 	0.6146	0.875	0.9931	-0.017
Mof_C 	C 	0.599	0.916	0.0642	-0.221
Mof_C 	C 	0.522	0.962	0.9968	-0.023
Mof_C 	C 	0.5313	0.918	0.9299	-0.08
Mof_C 	C 	0.5798	0.878	0.924	0.174
Mof_O 	O 	0.307	0.3789	0.1309	-0.615
Mof_O 	O 	0.3274	0.3753	0.2604	-0.599
Mof_O 	O 	0.7511	0.7822	0.8275	-0.357
Mof_O 	O 	0.7036	0.6939	0.1716	-0.558
Mof_O 	O 	0.6992	0.8428	0.0593	-0.675
Mof_O 	O 	0.8212	0.7278	0.2212	-0.491
Mof_O 	O 	0.8135	0.9003	0.1108	-0.56
Mof_O 	O 	0.1988	0.3984	0.2025	-0.626
Mof_O 	O 	0.6914	0.622	0.0482	-1.354
Mof_O 	O 	0.1691	0.3264	0.0873	-0.545
Mof_O 	O 	0.7979	0.8461	0.9838	-0.52
Mof_O 	O 	0.7985	0.6981	0.0932	-0.634
Mof_O 	O 	0.6774	0.8015	0.9345	-0.534
Mof_N 	N 	0.4636	0.407	0.11	-0.058
Mof_N 	N 	0.5659	0.555	0.214	-0.072
Mof_N 	N 	0.9303	0.5278	0.0948	-0.118
Mof_N 	N 	0.0219	0.4258	0.1005	-0.118
Mof_N 	N 	0.9487	0.9158	0.9506	-0.123
Mof_N 	N 	0.5529	0.94	0.0671	0.001
Mof_Eu	Eu	0.7497	0.83684	0.18648	2.391
Mof_Eu	Eu	0.75069	0.70146	0.96321	2.322
Mof_C 	C 	0.5335	0.008	0.2678	-0.111
Mof_C 	C 	0.5802	0.977	0.2607	0.097
Mof_C 	C 	0.96	0.59	0.2272	-0.057
Mof_C 	C 	0.9164	0.648	0.2261	0.058
Mof_C 	C 	0.9042	0.558	0.7746	-0.005
Mof_C 	C 	0.9529	0.524	0.7712	0.072
Mof_C 	C 	0.5335	0.009	0.9962	0.075
Mof_C 	C 	0.5427	0.971	0.927	0.083
Mof_C 	C 	0.588	0.925	0.93	-0.127
Mof_N 	N 	0.5423	0.948	0.404	-0.069
Mof_N 	N 	0.5577	0.601	0.2067	-0.071
Mof_N 	N 	0.5644	0.993	0.0632	-0.134
Mof_C 	C 	0.612	0.958	0.0607	0.308
Mof_C 	C 	0.5593	0.507	0.0877	0.044
Mof_C 	C 	0.5942	0.918	0.4	0.099
Mof_O 	O 	0.6883	0.658	0.0438	0.835
Mof_C 	C 	0.6221	0.921	0.997	-0.119
Mof_C 	C 	0.3389	0.1161	0.6924	0.576
Mof_C 	C 	0.3932	0.0869	0.6814	-0.19
Mof_C 	C 	0.4131	0.119	0.618	0.008
Mof_C 	C 	0.4892	0.0266	0.6656	0.04
Mof_C 	C 	0.4785	0.041	0.7338	0.092
Mof_C 	C 	0.4325	0.072	0.741	-0.017
Mof_C 	C 	0.5397	0.9831	0.6569	0.08
Mof_C 	C 	0.5656	0.03	0.6041	-0.082
Mof_C 	C 	0.6068	0.9709	0.5845	0.095
Mof_C 	C 	0.6305	0.902	0.6333	-0.158
Mof_C 	C 	0.6061	0.8726	0.6965	0.117
Mof_C 	C 	0.6789	0.8527	0.6154	0.491
Mof_C 	C 	0.8291	0.8135	0.6579	0.483
Mof_C 	C 	0.8761	0.8701	0.6599	-0.183
Mof_C 	C 	0.8855	0.9211	0.5918	0.091
Mof_C 	C 	0.9653	0.9715	0.6638	0.058
Mof_C 	C 	0.9478	0.955	0.7336	0.025
Mof_C 	C 	0.9068	0.897	0.7304	0.025
Mof_C 	C 	0.0152	0.0176	0.6627	0.052
Mof_C 	C 	0.0699	0.1133	0.5974	0.127
Mof_C 	C 	0.11	0.0956	0.6555	-0.186
Mof_C 	C 	0.1055	0.016	0.716	0.069
Mof_C 	C 	0.0573	0.98	0.7166	-0.104
Mof_C 	C 	0.1639	0.1254	0.6481	0.524
Mof_C 	C 	0.8258	0.6124	0.5422	0.494
Mof_C 	C 	0.8769	0.578	0.5258	-0.191
Mof_C 	C 	0.9001	0.6145	0.4637	0.129
Mof_C 	C 	0.9738	0.5176	0.5036	0.058
Mof_C 	C 	0.9509	0.479	0.5637	-0.039
Mof_C 	C 	0.9039	0.5112	0.5733	0.079
Mof_C 	C 	0.6683	0.6585	0.4975	0.469
Mof_C 	C 	0.6146	0.625	0.4931	-0.017
Mof_C 	C 	0.599	0.584	0.5642	-0.22
Mof_C 	C 	0.522	0.538	0.4968	-0.022
Mof_C 	C 	0.5313	0.582	0.4299	-0.08
Mof_C 	C 	0.5798	0.622	0.424	0.173
Mof_O 	O 	0.307	0.1211	0.6309	-0.615
Mof_O 	O 	0.3274	0.1247	0.7604	-0.599
Mof_O 	O 	0.7511	0.7178	0.3275	-0.357
Mof_O 	O 	0.7036	0.8061	0.6716	-0.558
Mof_O 	O 	0.6992	0.6572	0.5593	-0.675
Mof_O 	O 	0.8212	0.7722	0.7212	-0.491
Mof_O 	O 	0.8135	0.5997	0.6108	-0.56
Mof_O 	O 	0.1988	0.1016	0.7025	-0.626
Mof_O 	O 	0.6914	0.878	0.5482	-1.353
Mof_O 	O 	0.1691	0.1736	0.5873	-0.544
Mof_O 	O 	0.7979	0.6539	0.4838	-0.519
Mof_O 	O 	0.7985	0.8019	0.5932	-0.634
Mof_O 	O 	0.6774	0.6985	0.4345	-0.534
Mof_N 	N 	0.4636	0.093	0.61	-0.058
Mof_N 	N 	0.5659	0.945	0.714	-0.072
Mof_N 	N 	0.9303	0.9722	0.5948	-0.118
Mof_N 	N 	0.0219	0.0742	0.6005	-0.118
Mof_N 	N 	0.9487	0.5842	0.4506	-0.123
Mof_N 	N 	0.5529	0.56	0.5671	0
Mof_Eu	Eu	0.7497	0.66316	0.68648	2.391
Mof_Eu	Eu	0.75069	0.79854	0.46321	2.322
Mof_C 	C 	0.5335	0.492	0.7678	-0.11
Mof_C 	C 	0.5802	0.523	0.7607	0.096
Mof_C 	C 	0.96	0.91	0.7272	-0.058
Mof_C 	C 	0.9164	0.852	0.7261	0.058
Mof_C 	C 	0.9042	0.942	0.2746	-0.009
Mof_C 	C 	0.9529	0.976	0.2712	0.073
Mof_C 	C 	0.5335	0.491	0.4962	0.074
Mof_C 	C 	0.5427	0.529	0.427	0.083
Mof_C 	C 	0.588	0.575	0.43	-0.125
Mof_N 	N 	0.5423	0.552	0.904	-0.069
Mof_N 	N 	0.5577	0.899	0.7067	-0.071
Mof_N 	N 	0.5644	0.507	0.5632	-0.133
Mof_C 	C 	0.612	0.542	0.5607	0.307
Mof_C 	C 	0.5593	0.993	0.5877	0.044
Mof_C 	C 	0.5942	0.582	0.9	0.098
Mof_O 	O 	0.6883	0.842	0.5438	0.834
Mof_C 	C 	0.6221	0.579	0.497	-0.119
Mof_C 	C 	0.6611	0.6161	0.8076	0.576
Mof_C 	C 	0.6068	0.5869	0.8186	-0.19
Mof_C 	C 	0.5869	0.619	0.882	0.009
Mof_C 	C 	0.5108	0.5266	0.8344	0.04
Mof_C 	C 	0.5215	0.541	0.7662	0.091
Mof_C 	C 	0.5675	0.572	0.759	-0.016
Mof_C 	C 	0.4603	0.4831	0.8431	0.08
Mof_C 	C 	0.4344	0.53	0.8959	-0.081
Mof_C 	C 	0.3932	0.4709	0.9155	0.095
Mof_C 	C 	0.3695	0.402	0.8667	-0.158
Mof_C 	C 	0.3939	0.3726	0.8035	0.117
Mof_C 	C 	0.3211	0.3527	0.8846	0.491
Mof_C 	C 	0.1709	0.3135	0.8421	0.483
Mof_C 	C 	0.1239	0.3701	0.8401	-0.183
Mof_C 	C 	0.1145	0.4211	0.9082	0.091
Mof_C 	C 	0.0347	0.4715	0.8362	0.059
Mof_C 	C 	0.0522	0.455	0.7664	0.025
Mof_C 	C 	0.0932	0.397	0.7696	0.025
Mof_C 	C 	0.9848	0.5176	0.8373	0.052
Mof_C 	C 	0.9301	0.6133	0.9026	0.127
Mof_C 	C 	0.89	0.5956	0.8445	-0.187
Mof_C 	C 	0.8945	0.516	0.784	0.065
Mof_C 	C 	0.9427	0.48	0.7834	-0.104
Mof_C 	C 	0.8361	0.6254	0.8519	0.524
Mof_C 	C 	0.1742	0.1124	0.9578	0.494
Mof_C 	C 	0.1231	0.078	0.9742	-0.19
Mof_C 	C 	0.0999	0.1145	0.0363	0.128
Mof_C 	C 	0.0262	0.0176	0.9964	0.058
Mof_C 	C 	0.0491	0.979	0.9363	-0.037
Mof_C 	C 	0.0961	0.0112	0.9267	0.078
Mof_C 	C 	0.3317	0.1585	0.0025	0.469
Mof_C 	C 	0.3854	0.125	0.0069	-0.017
Mof_C 	C 	0.401	0.084	0.9358	-0.221
Mof_C 	C 	0.478	0.038	0.0032	-0.023
Mof_C 	C 	0.4687	0.082	0.0701	-0.08
Mof_C 	C 	0.4202	0.122	0.076	0.174
Mof_O 	O 	0.693	0.6211	0.8691	-0.615
Mof_O 	O 	0.6726	0.6247	0.7396	-0.599
Mof_O 	O 	0.2489	0.2178	0.1725	-0.357
Mof_O 	O 	0.2964	0.3061	0.8284	-0.558
Mof_O 	O 	0.3008	0.1572	0.9407	-0.675
Mof_O 	O 	0.1788	0.2722	0.7788	-0.491
Mof_O 	O 	0.1865	0.0997	0.8892	-0.56
Mof_O 	O 	0.8012	0.6016	0.7975	-0.626
Mof_O 	O 	0.3086	0.378	0.9518	-1.354
Mof_O 	O 	0.8309	0.6736	0.9127	-0.545
Mof_O 	O 	0.2021	0.1539	0.0162	-0.52
Mof_O 	O 	0.2015	0.3019	0.9068	-0.634
Mof_O 	O 	0.3226	0.1985	0.0655	-0.534
Mof_N 	N 	0.5364	0.593	0.89	-0.058
Mof_N 	N 	0.4341	0.445	0.786	-0.072
Mof_N 	N 	0.0697	0.4722	0.9052	-0.118
Mof_N 	N 	0.9781	0.5742	0.8995	-0.118
Mof_N 	N 	0.0513	0.0842	0.0494	-0.123
Mof_N 	N 	0.4471	0.06	0.9329	0.001
Mof_Eu	Eu	0.2503	0.16316	0.81352	2.391
Mof_Eu	Eu	0.24931	0.29854	0.03679	2.322
Mof_C 	C 	0.4665	0.992	0.7322	-0.111
Mof_C 	C 	0.4198	0.023	0.7393	0.097
Mof_C 	C 	0.04	0.41	0.7728	-0.057
Mof_C 	C 	0.0836	0.352	0.7739	0.058
Mof_C 	C 	0.0958	0.442	0.2254	-0.005
Mof_C 	C 	0.0471	0.476	0.2288	0.072
Mof_C 	C 	0.4665	0.991	0.0038	0.075
Mof_C 	C 	0.4573	0.029	0.073	0.083
Mof_C 	C 	0.412	0.075	0.07	-0.127
Mof_N 	N 	0.4577	0.052	0.596	-0.069
Mof_N 	N 	0.4423	0.399	0.7933	-0.071
Mof_N 	N 	0.4356	0.007	0.9368	-0.134
Mof_C 	C 	0.388	0.042	0.9393	0.308
Mof_C 	C 	0.4407	0.493	0.9123	0.044
Mof_C 	C 	0.4058	0.082	0.6	0.099
Mof_O 	O 	0.3117	0.342	0.9562	0.835
Mof_C 	C 	0.3779	0.079	0.003	-0.119
_end
