data_functionalizedCrystal
_audit_creation_method	'EQeq! by Chris Wilmer'
_symmetry_space_group_name_H-M	'P1'
_symmetry_Int_Tables_number	1
_symmetry_cell_setting	triclinic
loop_
_symmetry_equiv_pos_as_xyz
  x,y,z
_cell_length_a	27.9608
_cell_length_b	27.9608
_cell_length_c	27.9608
_cell_angle_alpha	66.3453
_cell_angle_beta	78.6061
_cell_angle_gamma	113.655
loop_
_atom_site_label
_atom_site_type_symbol
_atom_site_fract_x
_atom_site_fract_y
_atom_site_fract_z
_atom_site_charge
Mof_V 	V 	0.3523	0.60519	0.34507	1.664
Mof_V 	V 	0.34935	0.69854	0.24305	1.647
Mof_V 	V 	0.42671	0.82913	0.15852	1.648
Mof_V 	V 	0.52548	0.92995	0.15293	1.628
Mof_V 	V 	0.60039	0.9383	0.20679	1.629
Mof_V 	V 	0.59988	0.84728	0.31268	1.671
Mof_V 	V 	0.52949	0.70647	0.39446	1.629
Mof_V 	V 	0.42557	0.60878	0.41383	1.611
Mof_V 	V 	0.45499	0.70272	0.18967	1.778
Mof_V 	V 	0.5748	0.74923	0.17799	1.653
Mof_V 	V 	0.57585	0.86692	0.11685	1.67
Mof_V 	V 	0.50266	0.64094	0.3026	1.646
Mof_V 	V 	0.37455	0.83077	0.262	1.659
Mof_V 	V 	0.37696	0.78852	0.38068	1.646
Mof_V 	V 	0.45099	0.74457	0.42668	1.784
Mof_V 	V 	0.49334	0.89539	0.30265	1.655
Mof_V 	V 	0.04974	0.39481	0.25289	1.669
Mof_V 	V 	0.05841	0.30146	0.34919	1.651
Mof_V 	V 	0.01235	0.17087	0.40242	1.655
Mof_V 	V 	0.91712	0.07005	0.40447	1.623
Mof_V 	V 	0.85491	0.0617	0.33791	1.629
Mof_V 	V 	0.84004	0.15272	0.2474	1.67
Mof_V 	V 	0.89907	0.29353	0.17698	1.629
Mof_V 	V 	0.97739	0.39122	0.18321	1.607
Mof_V 	V 	0.10761	0.29728	0.24773	1.778
Mof_V 	V 	0.07278	0.25077	0.17443	1.654
Mof_V 	V 	0.01623	0.13308	0.29107	1.674
Mof_V 	V 	0.05646	0.35906	0.13828	1.651
Mof_V 	V 	0.90723	0.16923	0.45622	1.658
Mof_V 	V 	0.8308	0.21148	0.41156	1.646
Mof_V 	V 	0.82875	0.25543	0.29358	1.783
Mof_V 	V 	0.80196	0.10461	0.40205	1.655
Mof_V 	V 	0.99711	0.19737	0.8977	1.658
Mof_V 	V 	0.90081	0.0924	0.90065	1.644
Mof_V 	V 	0.84758	0.08523	0.82329	1.646
Mof_V 	V 	0.84553	0.17841	0.72452	1.627
Mof_V 	V 	0.91209	0.30718	0.64961	1.628
Mof_V 	V 	0.0026	0.41256	0.65012	1.679
Mof_V 	V 	0.07302	0.42395	0.72051	1.629
Mof_V 	V 	0.06679	0.3394	0.82443	1.615
Mof_V 	V 	0.00227	0.14466	0.79501	1.785
Mof_V 	V 	0.07557	0.25279	0.6752	1.653
Mof_V 	V 	0.95893	0.1927	0.67415	1.662
Mof_V 	V 	0.11172	0.30526	0.74734	1.647
Mof_V 	V 	0.79378	0.13655	0.87545	1.658
Mof_V 	V 	0.83844	0.25764	0.87304	1.645
Mof_V 	V 	0.95642	0.37767	0.79901	1.777
Mof_V 	V 	0.84795	0.29599	0.75666	1.654
Mof_V 	V 	0.90493	0.80263	0.20026	1.665
Mof_V 	V 	0.00695	0.9076	0.19159	1.653
Mof_V 	V 	0.09148	0.91477	0.23765	1.648
Mof_V 	V 	0.09707	0.82159	0.33288	1.628
Mof_V 	V 	0.04321	0.69282	0.39509	1.633
Mof_V 	V 	0.93732	0.58744	0.40996	1.666
Mof_V 	V 	0.85554	0.57605	0.35093	1.629
Mof_V 	V 	0.83617	0.6606	0.27261	1.61
Mof_V 	V 	0.06033	0.85534	0.14239	1.781
Mof_V 	V 	0.07201	0.74721	0.17722	1.657
Mof_V 	V 	0.13315	0.8073	0.23377	1.67
Mof_V 	V 	0.9474	0.69474	0.19354	1.643
Mof_V 	V 	0.988	0.86345	0.34277	1.652
Mof_V 	V 	0.86932	0.74236	0.4192	1.646
Mof_V 	V 	0.82332	0.62233	0.42125	1.783
Mof_V 	V 	0.94735	0.70401	0.44804	1.651
Mof_V 	V 	0.54974	0.30263	0.84507	1.665
Mof_V 	V 	0.55841	0.4076	0.74305	1.647
Mof_V 	V 	0.51235	0.41477	0.65852	1.647
Mof_V 	V 	0.41712	0.32159	0.65293	1.628
Mof_V 	V 	0.35491	0.19282	0.70679	1.629
Mof_V 	V 	0.34004	0.08744	0.81268	1.67
Mof_V 	V 	0.39907	0.07605	0.89446	1.627
Mof_V 	V 	0.47739	0.1606	0.91383	1.609
Mof_V 	V 	0.60761	0.35534	0.68967	1.778
Mof_V 	V 	0.57278	0.24721	0.67799	1.653
Mof_V 	V 	0.51623	0.3073	0.61685	1.67
Mof_V 	V 	0.55646	0.19474	0.8026	1.646
Mof_V 	V 	0.40723	0.36345	0.762	1.659
Mof_V 	V 	0.3308	0.24236	0.88068	1.645
Mof_V 	V 	0.32875	0.12233	0.92668	1.783
Mof_V 	V 	0.30196	0.20401	0.80265	1.655
Mof_V 	V 	0.8523	0.69737	0.75289	1.665
Mof_V 	V 	0.84935	0.5924	0.84919	1.646
Mof_V 	V 	0.92671	0.58523	0.90242	1.642
Mof_V 	V 	0.02548	0.67841	0.90447	1.632
Mof_V 	V 	0.10039	0.80718	0.83791	1.63
Mof_V 	V 	0.09988	0.91256	0.7474	1.671
Mof_V 	V 	0.02949	0.92395	0.67698	1.633
Mof_V 	V 	0.92557	0.8394	0.68321	1.606
Mof_V 	V 	0.95499	0.64466	0.74773	1.774
Mof_V 	V 	0.0748	0.75279	0.67443	1.656
Mof_V 	V 	0.07585	0.6927	0.79107	1.67
Mof_V 	V 	0.00266	0.80526	0.63828	1.655
Mof_V 	V 	0.87455	0.63655	0.95622	1.657
Mof_V 	V 	0.87696	0.75764	0.91156	1.645
Mof_V 	V 	0.95099	0.87767	0.79358	1.78
Mof_V 	V 	0.99334	0.79599	0.90205	1.646
Mof_V 	V 	0.40493	0.10519	0.3977	1.665
Mof_V 	V 	0.50695	0.19854	0.40065	1.647
Mof_V 	V 	0.59148	0.32913	0.32329	1.647
Mof_V 	V 	0.59707	0.42995	0.22452	1.628
Mof_V 	V 	0.54321	0.4383	0.14961	1.629
Mof_V 	V 	0.43732	0.34728	0.15012	1.671
Mof_V 	V 	0.35554	0.20647	0.22051	1.629
Mof_V 	V 	0.33617	0.10878	0.32443	1.611
Mof_V 	V 	0.56033	0.20272	0.29501	1.778
Mof_V 	V 	0.57201	0.24923	0.1752	1.653
Mof_V 	V 	0.63315	0.36692	0.17415	1.67
Mof_V 	V 	0.4474	0.14094	0.24734	1.646
Mof_V 	V 	0.488	0.33077	0.37545	1.659
Mof_V 	V 	0.36932	0.28852	0.37304	1.646
Mof_V 	V 	0.32332	0.24457	0.29901	1.784
Mof_V 	V 	0.44735	0.39539	0.25666	1.655
Mof_V 	V 	0.49711	0.89481	0.70026	1.665
Mof_V 	V 	0.40081	0.80146	0.69159	1.647
Mof_V 	V 	0.34758	0.67087	0.73765	1.647
Mof_V 	V 	0.34553	0.57005	0.83288	1.628
Mof_V 	V 	0.41209	0.5617	0.89509	1.629
Mof_V 	V 	0.5026	0.65272	0.90996	1.67
Mof_V 	V 	0.57302	0.79353	0.85093	1.628
Mof_V 	V 	0.56679	0.89122	0.77261	1.611
Mof_V 	V 	0.50227	0.79728	0.64239	1.778
Mof_V 	V 	0.57557	0.75077	0.67722	1.653
Mof_V 	V 	0.45893	0.63308	0.73377	1.67
Mof_V 	V 	0.61172	0.85906	0.69354	1.646
Mof_V 	V 	0.29378	0.66923	0.84277	1.659
Mof_V 	V 	0.33844	0.71148	0.9192	1.645
Mof_V 	V 	0.45642	0.75543	0.92125	1.783
Mof_V 	V 	0.34795	0.60461	0.94804	1.654
Mof_Co	Co	0.20581	0.66239	0.27964	1.067
Mof_Co	Co	0.73379	0.04386	0.09661	1.049
Mof_Co	Co	0.44768	0.70899	0.06431	1.129
Mof_Co	Co	0.05797	0.33761	0.45658	1.072
Mof_Co	Co	0.85953	0.95614	0.31007	1.048
Mof_Co	Co	0.2267	0.29101	0.26131	1.128
Mof_Co	Co	0.79342	0.98545	0.04419	1.069
Mof_Co	Co	0.93993	0.3304	0.51621	1.044
Mof_Co	Co	0.98869	0.01199	0.80232	1.117
Mof_Co	Co	0.97036	0.01455	0.19203	1.059
Mof_Co	Co	0.15339	0.6696	0.39047	1.049
Mof_Co	Co	0.18569	0.98801	0.0233	1.131
Mof_Co	Co	0.55797	0.51455	0.77964	1.067
Mof_Co	Co	0.35953	0.1696	0.59661	1.048
Mof_Co	Co	0.7267	0.48801	0.56431	1.128
Mof_Co	Co	0.70581	0.48545	0.95658	1.063
Mof_Co	Co	0.23379	0.8304	0.81007	1.048
Mof_Co	Co	0.94768	0.51199	0.76131	1.121
Mof_Co	Co	0.47036	0.16239	0.54419	1.067
Mof_Co	Co	0.65339	0.54386	0.01621	1.052
Mof_Co	Co	0.68569	0.20899	0.30232	1.128
Mof_Co	Co	0.29342	0.83761	0.69203	1.067
Mof_Co	Co	0.43993	0.45614	0.89047	1.048
Mof_Co	Co	0.48869	0.79101	0.5233	1.128
Mof_Ge	Ge	0.28138	0.67955	0.36271	1.352
Mof_Ge	Ge	0.32184	0.63322	0.45328	0.813
Mof_Ge	Ge	0.66977	0.88126	0.17267	1.369
Mof_Ge	Ge	0.6332	0.75765	0.27199	0.783
Mof_Ge	Ge	0.95774	0.32045	0.39817	1.322
Mof_Ge	Ge	0.9135	0.36678	0.31138	0.809
Mof_Ge	Ge	0.94607	0.11874	0.21149	1.336
Mof_Ge	Ge	0.97036	0.24235	0.12445	0.758
Mof_Ge	Ge	0.85183	0.14409	0.96862	1.324
Mof_Ge	Ge	0.93862	0.27512	0.92816	0.796
Mof_Ge	Ge	0.03851	0.34244	0.58023	1.403
Mof_Ge	Ge	0.12555	0.40519	0.6168	0.786
Mof_Ge	Ge	0.88729	0.85591	0.29226	1.348
Mof_Ge	Ge	0.79672	0.72488	0.3365	0.812
Mof_Ge	Ge	0.07733	0.65756	0.30393	1.371
Mof_Ge	Ge	0.97801	0.59481	0.27964	0.755
Mof_Ge	Ge	0.45774	0.35591	0.86271	1.352
Mof_Ge	Ge	0.4135	0.22488	0.95328	0.804
Mof_Ge	Ge	0.44607	0.15756	0.67267	1.369
Mof_Ge	Ge	0.47036	0.09481	0.77199	0.78
Mof_Ge	Ge	0.78138	0.64409	0.89817	1.351
Mof_Ge	Ge	0.82184	0.77512	0.81138	0.811
Mof_Ge	Ge	0.16977	0.84244	0.71149	1.369
Mof_Ge	Ge	0.1332	0.90519	0.62445	0.785
Mof_Ge	Ge	0.38729	0.17955	0.46862	1.352
Mof_Ge	Ge	0.29672	0.13322	0.42816	0.814
Mof_Ge	Ge	0.57733	0.38126	0.08023	1.371
Mof_Ge	Ge	0.47801	0.25765	0.1168	0.789
Mof_Ge	Ge	0.35183	0.82045	0.79226	1.352
Mof_Ge	Ge	0.43862	0.86678	0.8365	0.811
Mof_Ge	Ge	0.53851	0.61874	0.80393	1.369
Mof_Ge	Ge	0.62555	0.74235	0.77964	0.782
Mof_H 	H 	0.2333	0.7746	0.2255	-0.022
Mof_H 	H 	0.2872	0.7762	0.2162	-0.045
Mof_H 	H 	0.2103	0.6467	0.1938	0.036
Mof_H 	H 	0.1515	0.63	0.2221	0.045
Mof_H 	H 	0.1952	0.5654	0.3504	0.032
Mof_H 	H 	0.1407	0.5486	0.3471	0.078
Mof_H 	H 	0.6979	0.0413	0.0194	-0.018
Mof_H 	H 	0.6474	0.0147	0.0709	-0.077
Mof_H 	H 	0.7415	0.1389	0.102	0.018
Mof_H 	H 	0.7774	0.1643	0.0419	0.051
Mof_H 	H 	0.8162	0.0751	0.1281	0.062
Mof_H 	H 	0.7697	0.0725	0.165	0.001
Mof_H 	H 	0.3867	0.7343	0.1172	-0.01
Mof_H 	H 	0.4041	0.7741	0.0558	0.018
Mof_H 	H 	0.3698	0.6315	0.0529	0.009
Mof_H 	H 	0.3717	0.5955	0.1066	0.026
Mof_H 	H 	0.53	0.8247	0.0093	0.011
Mof_H 	H 	0.5289	0.7953	0.0664	0.006
Mof_H 	H 	0.4893	0.6428	0.0631	0.013
Mof_H 	H 	0.5099	0.69	0.0029	-0.002
Mof_H 	H 	0.2931	0.7687	0.1446	-0.07
Mof_H 	H 	0.2665	0.8097	0.1376	-0.049
Mof_H 	H 	0.1711	0.7228	0.1753	-0.076
Mof_H 	H 	0.2105	0.7205	0.1286	-0.037
Mof_H 	H 	0.2263	0.555	0.2821	-0.086
Mof_H 	H 	0.1672	0.537	0.2782	-0.054
Mof_H 	H 	0.649	0.096	0.0194	-0.118
Mof_H 	H 	0.7161	0.1331	0.983	-0.128
Mof_H 	H 	0.6594	0.1065	0.0925	-0.079
Mof_H 	H 	0.7021	0.1724	0.0365	-0.028
Mof_H 	H 	0.7691	0.9696	0.1847	-0.022
Mof_H 	H 	0.7264	0.9729	0.2269	-0.105
Mof_H 	H 	0.3328	0.7065	0.0529	-0.041
Mof_H 	H 	0.3038	0.6937	0.1145	-0.023
Mof_H 	H 	0.3173	0.6125	0.1578	-0.032
Mof_H 	H 	0.2874	0.6007	0.1183	-0.044
Mof_H 	H 	0.6071	0.8079	0.0194	-0.058
Mof_H 	H 	0.5877	0.8057	0.971	-0.091
Mof_H 	H 	0.5895	0.7187	0.015	-0.031
Mof_H 	H 	0.5566	0.7029	0.0769	-0.049
Mof_H 	H 	0.9999	0.2254	0.5413	-0.045
Mof_H 	H 	0.0076	0.2238	0.489	-0.039
Mof_H 	H 	0.1595	0.3533	0.4364	0.036
Mof_H 	H 	0.1479	0.37	0.4785	0.043
Mof_H 	H 	0.0842	0.4346	0.3702	0.036
Mof_H 	H 	0.1043	0.4514	0.4079	0.079
Mof_H 	H 	0.9393	0.9587	0.3434	-0.029
Mof_H 	H 	0.9144	0.9853	0.3673	-0.081
Mof_H 	H 	0.7591	0.8611	0.3974	0.017
Mof_H 	H 	0.7938	0.8357	0.3869	0.046
Mof_H 	H 	0.7968	0.9249	0.2589	0.061
Mof_H 	H 	0.7625	0.9275	0.3028	-0
Mof_H 	H 	0.1485	0.2657	0.3476	-0.009
Mof_H 	H 	0.1701	0.2259	0.37	0.017
Mof_H 	H 	0.3156	0.3685	0.2617	0.006
Mof_H 	H 	0.2979	0.4045	0.2238	0.026
Mof_H 	H 	0.166	0.1753	0.2947	0.008
Mof_H 	H 	0.1383	0.2047	0.2664	0.005
Mof_H 	H 	0.2941	0.3572	0.1535	0.013
Mof_H 	H 	0.3071	0.31	0.1801	-0.005
Mof_H 	H 	0.0867	0.2313	0.4756	-0.067
Mof_H 	H 	0.0527	0.1903	0.5432	-0.042
Mof_H 	H 	0.1019	0.2772	0.5517	-0.078
Mof_H 	H 	0.1509	0.2795	0.51	-0.04
Mof_H 	H 	0.1629	0.445	0.3287	-0.086
Mof_H 	H 	0.1848	0.463	0.3698	-0.056
Mof_H 	H 	0.8846	0.904	0.447	-0.111
Mof_H 	H 	0.8839	0.8669	0.417	-0.105
Mof_H 	H 	0.801	0.8935	0.4471	-0.086
Mof_H 	H 	0.7911	0.8276	0.4703	-0.038
Mof_H 	H 	0.8457	0.0304	0.2005	-0.021
Mof_H 	H 	0.8002	0.0271	0.2465	-0.104
Mof_H 	H 	0.2406	0.2935	0.3737	-0.044
Mof_H 	H 	0.1918	0.3063	0.3899	-0.024
Mof_H 	H 	0.2297	0.3875	0.2952	-0.031
Mof_H 	H 	0.281	0.3993	0.3133	-0.045
Mof_H 	H 	0.1727	0.1921	0.2008	-0.051
Mof_H 	H 	0.2233	0.1943	0.218	-0.074
Mof_H 	H 	0.2663	0.2813	0.1292	-0.035
Mof_H 	H 	0.2202	0.2971	0.1463	-0.05
Mof_H 	H 	0.7087	0.9588	0.0167	-0.015
Mof_H 	H 	0.761	0.0034	0.9628	-0.051
Mof_H 	H 	0.8136	0.9041	0.0397	0.038
Mof_H 	H 	0.7715	0.8736	0.0985	0.044
Mof_H 	H 	0.8798	0.0456	0.0548	0.034
Mof_H 	H 	0.8421	0.9878	0.1093	0.077
Mof_H 	H 	0.9066	0.2173	0.5521	-0.027
Mof_H 	H 	0.8827	0.2183	0.6026	-0.081
Mof_H 	H 	0.8526	0.3435	0.5085	0.016
Mof_H 	H 	0.8631	0.3193	0.4726	0.046
Mof_H 	H 	0.9911	0.4443	0.4338	0.055
Mof_H 	H 	0.9472	0.4347	0.4803	-0.003
Mof_H 	H 	0.9024	0.0039	0.8633	-0.018
Mof_H 	H 	0.88	0.9599	0.8459	0.016
Mof_H 	H 	0.9883	0.9227	0.8802	0.003
Mof_H 	H 	0.0262	0.9783	0.8783	0.043
Mof_H 	H 	0.9553	0.0393	0.72	0.003
Mof_H 	H 	0.9836	0.0953	0.7211	-0.004
Mof_H 	H 	0.0965	0.0524	0.7607	0.012
Mof_H 	H 	0.0699	0.0128	0.7401	-0.004
Mof_H 	H 	0.7744	0.9377	0.9569	-0.067
Mof_H 	H 	0.7068	0.9041	0.9835	-0.049
Mof_H 	H 	0.6983	0.8464	0.0789	-0.08
Mof_H 	H 	0.74	0.8391	0.0395	-0.041
Mof_H 	H 	0.9213	0.0084	0.0237	-0.083
Mof_H 	H 	0.8802	0.9454	0.0828	-0.055
Mof_H 	H 	0.803	0.1684	0.601	-0.11
Mof_H 	H 	0.833	0.1991	0.5339	-0.103
Mof_H 	H 	0.8029	0.2519	0.5906	-0.087
Mof_H 	H 	0.7797	0.2386	0.5479	-0.038
Mof_H 	H 	0.0495	0.4538	0.4809	-0.026
Mof_H 	H 	0.0035	0.4533	0.5236	-0.104
Mof_H 	H 	0.8763	0.8857	0.9172	-0.045
Mof_H 	H 	0.8601	0.9183	0.9462	-0.026
Mof_H 	H 	0.9548	0.9751	0.9327	-0.039
Mof_H 	H 	0.9367	0.9057	0.9626	-0.053
Mof_H 	H 	0.0492	0.1265	0.6429	-0.054
Mof_H 	H 	0.032	0.0587	0.6623	-0.075
Mof_H 	H 	0.1208	0.1045	0.6605	-0.035
Mof_H 	H 	0.1037	0.1335	0.6934	-0.049
Mof_H 	H 	0.0245	0.0412	0.2501	-0.016
Mof_H 	H 	0.0338	0.9966	0.2424	-0.044
Mof_H 	H 	0.0562	0.0959	0.0905	0.042
Mof_H 	H 	0.0279	0.1264	0.1021	0.053
Mof_H 	H 	0.8996	0.9544	0.1658	0.031
Mof_H 	H 	0.9029	0.0122	0.1457	0.077
Mof_H 	H 	0.2306	0.7827	0.3107	-0.024
Mof_H 	H 	0.1791	0.7817	0.3356	-0.079
Mof_H 	H 	0.148	0.6565	0.4909	0.018
Mof_H 	H 	0.2081	0.6807	0.4562	0.046
Mof_H 	H 	0.1219	0.5557	0.4532	0.061
Mof_H 	H 	0.085	0.5653	0.4875	0.002
Mof_H 	H 	0.1328	0.9961	0.1015	-0.011
Mof_H 	H 	0.1942	0.0401	0.0799	0.02
Mof_H 	H 	0.1971	0.0773	0.9344	0.003
Mof_H 	H 	0.1434	0.0217	0.9521	0.022
Mof_H 	H 	0.2407	0.9607	0.084	0.007
Mof_H 	H 	0.1836	0.9047	0.1117	0.004
Mof_H 	H 	0.1869	0.9476	0.9559	0.013
Mof_H 	H 	0.2471	0.9872	0.9429	-0.004
Mof_H 	H 	0.1054	0.0623	0.1633	-0.068
Mof_H 	H 	0.1124	0.0959	0.1973	-0.049
Mof_H 	H 	0.0747	0.1536	0.1481	-0.075
Mof_H 	H 	0.1214	0.1609	0.0991	-0.037
Mof_H 	H 	0.9679	0.9916	0.0871	-0.091
Mof_H 	H 	0.9718	0.0546	0.0652	-0.061
Mof_H 	H 	0.2306	0.8316	0.3654	-0.109
Mof_H 	H 	0.267	0.8009	0.3661	-0.103
Mof_H 	H 	0.1575	0.7481	0.449	-0.084
Mof_H 	H 	0.2135	0.7614	0.4589	-0.037
Mof_H 	H 	0.0653	0.5462	0.4043	-0.016
Mof_H 	H 	0.0231	0.5467	0.4498	-0.096
Mof_H 	H 	0.1971	0.1143	0.0094	-0.05
Mof_H 	H 	0.1355	0.0817	0.0582	-0.033
Mof_H 	H 	0.0922	0.0249	0.0203	0
Mof_H 	H 	0.1317	0.0943	0.969	-0.028
Mof_H 	H 	0.2306	0.8735	0.0773	-0.046
Mof_H 	H 	0.279	0.9413	0.0267	-0.067
Mof_H 	H 	0.235	0.8955	0.9837	-0.053
Mof_H 	H 	0.1731	0.8665	0.0298	-0.058
Mof_H 	H 	0.4999	0.5412	0.7255	-0.022
Mof_H 	H 	0.5076	0.4966	0.7162	-0.045
Mof_H 	H 	0.6595	0.5959	0.6938	0.035
Mof_H 	H 	0.6479	0.6264	0.7221	0.043
Mof_H 	H 	0.5842	0.4544	0.8504	0.031
Mof_H 	H 	0.6043	0.5122	0.8471	0.077
Mof_H 	H 	0.4393	0.2827	0.5194	-0.024
Mof_H 	H 	0.4144	0.2817	0.5709	-0.079
Mof_H 	H 	0.2591	0.1565	0.602	0.017
Mof_H 	H 	0.2938	0.1807	0.5419	0.046
Mof_H 	H 	0.2968	0.0557	0.6281	0.061
Mof_H 	H 	0.2625	0.0653	0.665	-0
Mof_H 	H 	0.6485	0.4961	0.6172	-0.01
Mof_H 	H 	0.6701	0.5401	0.5558	0.016
Mof_H 	H 	0.8156	0.5773	0.5529	0.005
Mof_H 	H 	0.7979	0.5217	0.6066	0.024
Mof_H 	H 	0.666	0.4607	0.5093	0.007
Mof_H 	H 	0.6383	0.4047	0.5664	0.004
Mof_H 	H 	0.7941	0.4476	0.5631	0.01
Mof_H 	H 	0.8071	0.4872	0.5029	-0.007
Mof_H 	H 	0.5867	0.5623	0.6446	-0.07
Mof_H 	H 	0.5527	0.5959	0.6376	-0.05
Mof_H 	H 	0.6019	0.6536	0.6753	-0.078
Mof_H 	H 	0.6509	0.6609	0.6286	-0.039
Mof_H 	H 	0.6629	0.4916	0.7821	-0.087
Mof_H 	H 	0.6848	0.5546	0.7782	-0.056
Mof_H 	H 	0.3846	0.3316	0.5194	-0.109
Mof_H 	H 	0.3839	0.3009	0.483	-0.103
Mof_H 	H 	0.301	0.2481	0.5925	-0.086
Mof_H 	H 	0.2911	0.2614	0.5365	-0.038
Mof_H 	H 	0.3457	0.0462	0.6847	-0.022
Mof_H 	H 	0.3002	0.0467	0.7269	-0.105
Mof_H 	H 	0.7406	0.6143	0.5529	-0.044
Mof_H 	H 	0.6918	0.5817	0.6145	-0.024
Mof_H 	H 	0.7297	0.5249	0.6578	-0.032
Mof_H 	H 	0.781	0.5943	0.6183	-0.046
Mof_H 	H 	0.6727	0.3735	0.5194	-0.052
Mof_H 	H 	0.7233	0.4413	0.471	-0.075
Mof_H 	H 	0.7663	0.3955	0.515	-0.038
Mof_H 	H 	0.7202	0.3665	0.5769	-0.053
Mof_H 	H 	0.7333	0.4588	0.0413	-0.022
Mof_H 	H 	0.7872	0.5034	0.989	-0.056
Mof_H 	H 	0.7103	0.4041	0.9364	0.034
Mof_H 	H 	0.6515	0.3736	0.9785	0.039
Mof_H 	H 	0.6952	0.5456	0.8702	0.031
Mof_H 	H 	0.6407	0.4878	0.9079	0.076
Mof_H 	H 	0.1979	0.7173	0.8434	-0.024
Mof_H 	H 	0.1474	0.7183	0.8673	-0.079
Mof_H 	H 	0.2415	0.8435	0.8974	0.017
Mof_H 	H 	0.2774	0.8193	0.8869	0.046
Mof_H 	H 	0.3162	0.9443	0.7589	0.061
Mof_H 	H 	0.2697	0.9347	0.8028	0
Mof_H 	H 	0.8867	0.5039	0.8476	-0.012
Mof_H 	H 	0.9041	0.4599	0.87	0.011
Mof_H 	H 	0.8698	0.4227	0.7617	0.004
Mof_H 	H 	0.8717	0.4783	0.7238	0.023
Mof_H 	H 	0.03	0.5393	0.7947	0.012
Mof_H 	H 	0.0289	0.5953	0.7664	0.009
Mof_H 	H 	0.9893	0.5524	0.6535	-0.01
Mof_H 	H 	0.0099	0.5128	0.6801	-0.004
Mof_H 	H 	0.7931	0.4377	0.9756	-0.088
Mof_H 	H 	0.7665	0.4041	0.0432	-0.055
Mof_H 	H 	0.6711	0.3464	0.0517	-0.077
Mof_H 	H 	0.7105	0.3391	0.01	-0.036
Mof_H 	H 	0.7263	0.5084	0.8287	-0.087
Mof_H 	H 	0.6672	0.4454	0.8698	-0.057
Mof_H 	H 	0.149	0.6684	0.947	-0.108
Mof_H 	H 	0.2161	0.6991	0.917	-0.103
Mof_H 	H 	0.1594	0.7519	0.9471	-0.086
Mof_H 	H 	0.2021	0.7386	0.9703	-0.039
Mof_H 	H 	0.2691	0.9538	0.7005	-0.022
Mof_H 	H 	0.2264	0.9533	0.7465	-0.105
Mof_H 	H 	0.8328	0.3857	0.8737	-0.046
Mof_H 	H 	0.8038	0.4183	0.8899	-0.027
Mof_H 	H 	0.8173	0.4751	0.7952	-0.032
Mof_H 	H 	0.7874	0.4057	0.8133	-0.046
Mof_H 	H 	0.1071	0.6265	0.7008	-0.053
Mof_H 	H 	0.0877	0.5587	0.718	-0.075
Mof_H 	H 	0.0895	0.6045	0.6292	-0.034
Mof_H 	H 	0.0566	0.6335	0.6463	-0.045
Mof_H 	H 	0.5245	0.2746	0.5167	-0.022
Mof_H 	H 	0.5338	0.2762	0.4628	-0.045
Mof_H 	H 	0.5562	0.1467	0.5397	0.035
Mof_H 	H 	0.5279	0.13	0.5985	0.043
Mof_H 	H 	0.3996	0.0654	0.5548	0.031
Mof_H 	H 	0.4029	0.0486	0.6093	0.077
Mof_H 	H 	0.7306	0.5413	0.0521	-0.021
Mof_H 	H 	0.6791	0.5147	0.1026	-0.079
Mof_H 	H 	0.648	0.6389	0.0085	0.018
Mof_H 	H 	0.7081	0.6643	0.9726	0.035
Mof_H 	H 	0.6219	0.5751	0.9338	0.06
Mof_H 	H 	0.585	0.5725	0.9803	-0.005
Mof_H 	H 	0.6328	0.2343	0.3633	-0.01
Mof_H 	H 	0.6942	0.2741	0.3459	0.016
Mof_H 	H 	0.6971	0.1315	0.3802	0.005
Mof_H 	H 	0.6434	0.0955	0.3783	0.025
Mof_H 	H 	0.7407	0.3247	0.22	0.007
Mof_H 	H 	0.6836	0.2953	0.2211	0.004
Mof_H 	H 	0.6869	0.1428	0.2607	0.012
Mof_H 	H 	0.7471	0.19	0.2401	-0.006
Mof_H 	H 	0.6054	0.2687	0.4569	-0.07
Mof_H 	H 	0.6124	0.3097	0.4835	-0.05
Mof_H 	H 	0.5747	0.2228	0.5789	-0.078
Mof_H 	H 	0.6214	0.2205	0.5395	-0.039
Mof_H 	H 	0.4679	0.055	0.5237	-0.086
Mof_H 	H 	0.4718	0.037	0.5828	-0.056
Mof_H 	H 	0.7306	0.596	0.101	-0.108
Mof_H 	H 	0.767	0.6331	0.0339	-0.1
Mof_H 	H 	0.6575	0.6065	0.0906	-0.086
Mof_H 	H 	0.7135	0.6724	0.0479	-0.035
Mof_H 	H 	0.5653	0.4696	0.9809	-0.017
Mof_H 	H 	0.5231	0.4729	0.0236	-0.087
Mof_H 	H 	0.6971	0.2065	0.4172	-0.044
Mof_H 	H 	0.6355	0.1937	0.4462	-0.024
Mof_H 	H 	0.5922	0.1125	0.4327	-0.032
Mof_H 	H 	0.6317	0.1007	0.4626	-0.045
Mof_H 	H 	0.7306	0.3079	0.1429	-0.051
Mof_H 	H 	0.779	0.3057	0.1623	-0.074
Mof_H 	H 	0.735	0.2187	0.1605	-0.037
Mof_H 	H 	0.6731	0.2029	0.1934	-0.052
Mof_H 	H 	0.2087	0.7254	0.7501	-0.022
Mof_H 	H 	0.261	0.7238	0.7424	-0.045
Mof_H 	H 	0.3136	0.8533	0.5905	0.035
Mof_H 	H 	0.2715	0.87	0.6021	0.043
Mof_H 	H 	0.3798	0.9346	0.6658	0.032
Mof_H 	H 	0.3421	0.9514	0.6457	0.077
Mof_H 	H 	0.4066	0.4587	0.8107	-0.024
Mof_H 	H 	0.3827	0.4853	0.8356	-0.079
Mof_H 	H 	0.3526	0.3611	0.9909	0.014
Mof_H 	H 	0.3631	0.3357	0.9562	0.044
Mof_H 	H 	0.4911	0.4249	0.9532	0.059
Mof_H 	H 	0.4472	0.4275	0.9875	-0.004
Mof_H 	H 	0.4024	0.7657	0.6015	-0.01
Mof_H 	H 	0.38	0.7259	0.5799	0.016
Mof_H 	H 	0.4883	0.8685	0.4344	0.006
Mof_H 	H 	0.5262	0.9045	0.4521	0.025
Mof_H 	H 	0.4553	0.6753	0.584	0.007
Mof_H 	H 	0.4836	0.7047	0.6117	0.004
Mof_H 	H 	0.5965	0.8572	0.4559	0.012
Mof_H 	H 	0.5699	0.81	0.4429	-0.006
Mof_H 	H 	0.2744	0.7313	0.6633	-0.07
Mof_H 	H 	0.2068	0.6903	0.6973	-0.049
Mof_H 	H 	0.1983	0.7772	0.6481	-0.077
Mof_H 	H 	0.24	0.7795	0.5991	-0.039
Mof_H 	H 	0.4213	0.945	0.5871	-0.087
Mof_H 	H 	0.3802	0.963	0.5652	-0.056
Mof_H 	H 	0.303	0.404	0.8654	-0.109
Mof_H 	H 	0.333	0.3669	0.8661	-0.103
Mof_H 	H 	0.3029	0.3935	0.949	-0.088
Mof_H 	H 	0.2797	0.3276	0.9589	-0.04
Mof_H 	H 	0.5495	0.5304	0.9043	-0.025
Mof_H 	H 	0.5035	0.5271	0.9498	-0.11
Mof_H 	H 	0.3763	0.7935	0.5094	-0.044
Mof_H 	H 	0.3601	0.8063	0.5582	-0.024
Mof_H 	H 	0.4548	0.8875	0.5203	-0.031
Mof_H 	H 	0.4367	0.8993	0.469	-0.045
Mof_H 	H 	0.5492	0.6921	0.5773	-0.052
Mof_H 	H 	0.532	0.6943	0.5267	-0.075
Mof_H 	H 	0.6208	0.7813	0.4837	-0.038
Mof_H 	H 	0.6037	0.7971	0.5298	-0.053
Mof_C 	C 	0.2596	0.7691	0.1619	-0.072
Mof_C 	C 	0.2029	0.7172	0.1655	-0.037
Mof_C 	C 	0.1853	0.5353	0.3046	-0.003
Mof_C 	C 	0.6852	0.1041	0.0219	0.008
Mof_C 	C 	0.6944	0.1309	0.0573	-0.113
Mof_C 	C 	0.766	0.9953	0.1987	-0.031
Mof_C 	C 	0.3335	0.6932	0.0905	-0.075
Mof_C 	C 	0.3224	0.6281	0.1181	-0.066
Mof_C 	C 	0.575	0.7859	0.0125	-0.023
Mof_C 	C 	0.5596	0.7199	0.0379	-0.087
Mof_C 	C 	0.069	0.2309	0.5095	-0.079
Mof_C 	C 	0.1173	0.2828	0.5143	-0.033
Mof_C 	C 	0.1601	0.4647	0.35	-0.001
Mof_C 	C 	0.874	0.8959	0.4189	-0.035
Mof_C 	C 	0.8118	0.8691	0.4365	-0.092
Mof_C 	C 	0.806	0.0047	0.2293	-0.035
Mof_C 	C 	0.2163	0.3068	0.3597	-0.074
Mof_C 	C 	0.2538	0.3719	0.3057	-0.067
Mof_C 	C 	0.2016	0.2141	0.2109	-0.049
Mof_C 	C 	0.2422	0.2801	0.1603	-0.076
Mof_C 	C 	0.7405	0.9215	0.9904	-0.087
Mof_C 	C 	0.7357	0.8684	0.0471	-0.024
Mof_C 	C 	0.9	0.9899	0.0647	-0.006
Mof_C 	C 	0.8311	0.2071	0.5648	-0.035
Mof_C 	C 	0.8135	0.2517	0.5556	-0.091
Mof_C 	C 	0.0207	0.4647	0.484	-0.008
Mof_C 	C 	0.8903	0.924	0.9165	-0.078
Mof_C 	C 	0.9443	0.9405	0.9276	-0.059
Mof_C 	C 	0.0391	0.0875	0.675	-0.026
Mof_C 	C 	0.0897	0.0975	0.6904	-0.082
Mof_C 	C 	0.0881	0.0785	0.181	-0.072
Mof_C 	C 	0.0845	0.1316	0.1327	-0.035
Mof_C 	C 	0.9454	0.0101	0.0899	0.001
Mof_C 	C 	0.2281	0.7929	0.376	-0.035
Mof_C 	C 	0.1927	0.7483	0.4382	-0.092
Mof_C 	C 	0.0513	0.5353	0.444	-0.044
Mof_C 	C 	0.1595	0.076	0.0337	-0.035
Mof_C 	C 	0.1319	0.0595	0.9962	-0.128
Mof_C 	C 	0.2375	0.9125	0.0484	-0.064
Mof_C 	C 	0.2121	0.9025	0.0078	-0.044
Mof_C 	C 	0.569	0.5785	0.6619	-0.073
Mof_C 	C 	0.6173	0.6316	0.6655	-0.037
Mof_C 	C 	0.6601	0.5101	0.8046	-0.003
Mof_C 	C 	0.374	0.2929	0.5219	-0.035
Mof_C 	C 	0.3118	0.2483	0.5573	-0.091
Mof_C 	C 	0.306	0.0353	0.6987	-0.035
Mof_C 	C 	0.7163	0.576	0.5905	-0.074
Mof_C 	C 	0.7538	0.5595	0.6181	-0.067
Mof_C 	C 	0.7016	0.4125	0.5125	-0.05
Mof_C 	C 	0.7422	0.4025	0.5379	-0.075
Mof_C 	C 	0.7596	0.4215	0.0095	-0.046
Mof_C 	C 	0.7029	0.3684	0.0143	-0.034
Mof_C 	C 	0.6853	0.4899	0.85	-0.002
Mof_C 	C 	0.1852	0.7071	0.9189	-0.035
Mof_C 	C 	0.1944	0.7517	0.9365	-0.091
Mof_C 	C 	0.266	0.9647	0.7293	-0.031
Mof_C 	C 	0.8335	0.424	0.8597	-0.073
Mof_C 	C 	0.8224	0.4405	0.8057	-0.068
Mof_C 	C 	0.075	0.5875	0.7109	-0.044
Mof_C 	C 	0.0596	0.5975	0.6603	-0.081
Mof_C 	C 	0.5881	0.2691	0.4904	-0.073
Mof_C 	C 	0.5845	0.2172	0.5471	-0.037
Mof_C 	C 	0.4454	0.0353	0.5647	-0.004
Mof_C 	C 	0.7281	0.6041	0.0648	-0.035
Mof_C 	C 	0.6927	0.6309	0.0556	-0.092
Mof_C 	C 	0.5513	0.4953	0.984	-0.062
Mof_C 	C 	0.6595	0.1932	0.4165	-0.074
Mof_C 	C 	0.6319	0.1281	0.4276	-0.067
Mof_C 	C 	0.7375	0.2859	0.175	-0.05
Mof_C 	C 	0.7121	0.2199	0.1904	-0.075
Mof_C 	C 	0.2405	0.7309	0.681	-0.073
Mof_C 	C 	0.2357	0.7828	0.6327	-0.037
Mof_C 	C 	0.4	0.9647	0.5899	-0.001
Mof_C 	C 	0.3311	0.3959	0.876	-0.036
Mof_C 	C 	0.3135	0.3691	0.9382	-0.09
Mof_C 	C 	0.5207	0.5047	0.944	-0.022
Mof_C 	C 	0.3903	0.8068	0.5337	-0.074
Mof_C 	C 	0.4443	0.8719	0.4962	-0.067
Mof_C 	C 	0.5391	0.7141	0.5484	-0.05
Mof_C 	C 	0.5897	0.7801	0.5078	-0.075
Mof_N 	N 	0.2523	0.7578	0.2163	-0.301
Mof_N 	N 	0.189	0.6584	0.209	-0.329
Mof_N 	N 	0.1789	0.5691	0.3254	-0.355
Mof_N 	N 	0.6842	0.0465	0.0477	-0.308
Mof_N 	N 	0.7434	0.1333	0.0723	-0.322
Mof_N 	N 	0.778	0.0517	0.1507	-0.334
Mof_N 	N 	0.3903	0.7352	0.0841	-0.294
Mof_N 	N 	0.3718	0.6297	0.0853	-0.303
Mof_N 	N 	0.5274	0.7912	0.0364	-0.302
Mof_N 	N 	0.5045	0.6833	0.0384	-0.294
Mof_N 	N 	0.0259	0.2422	0.5055	-0.283
Mof_N 	N 	0.1326	0.3416	0.4694	-0.329
Mof_N 	N 	0.1055	0.4309	0.3902	-0.355
Mof_N 	N 	0.9058	0.9535	0.3623	-0.3
Mof_N 	N 	0.7944	0.8667	0.3899	-0.325
Mof_N 	N 	0.7976	0.9483	0.2737	-0.333
Mof_N 	N 	0.1807	0.2648	0.3449	-0.294
Mof_N 	N 	0.285	0.3703	0.2579	-0.302
Mof_N 	N 	0.1724	0.2088	0.2638	-0.299
Mof_N 	N 	0.2783	0.3167	0.1788	-0.296
Mof_N 	N 	0.7445	0.9686	0.9977	-0.304
Mof_N 	N 	0.7806	0.898	0.061	-0.33
Mof_N 	N 	0.8598	0.0043	0.0711	-0.353
Mof_N 	N 	0.8877	0.2319	0.5658	-0.301
Mof_N 	N 	0.8601	0.3157	0.5066	-0.325
Mof_N 	N 	0.9763	0.4287	0.472	-0.343
Mof_N 	N 	0.9051	0.9744	0.8597	-0.289
Mof_N 	N 	0.9921	0.9571	0.8782	-0.319
Mof_N 	N 	0.9862	0.0638	0.7226	-0.309
Mof_N 	N 	0.0712	0.0429	0.7455	-0.291
Mof_N 	N 	0.0337	0.0314	0.2241	-0.297
Mof_N 	N 	0.041	0.102	0.1174	-0.327
Mof_N 	N 	0.9246	0.9957	0.1445	-0.356
Mof_N 	N 	0.2023	0.7681	0.3442	-0.301
Mof_N 	N 	0.1777	0.6843	0.4556	-0.325
Mof_N 	N 	0.0993	0.5713	0.4524	-0.332
Mof_N 	N 	0.1659	0.0256	0.0693	-0.295
Mof_N 	N 	0.1647	0.0429	0.965	-0.296
Mof_N 	N 	0.2136	0.9362	0.0776	-0.295
Mof_N 	N 	0.2116	0.9571	0.9717	-0.304
Mof_N 	N 	0.5259	0.5314	0.7163	-0.301
Mof_N 	N 	0.6326	0.602	0.709	-0.328
Mof_N 	N 	0.6055	0.4957	0.8254	-0.354
Mof_N 	N 	0.4058	0.2681	0.5477	-0.301
Mof_N 	N 	0.2944	0.1843	0.5723	-0.325
Mof_N 	N 	0.2976	0.0713	0.6507	-0.333
Mof_N 	N 	0.6807	0.5256	0.5841	-0.294
Mof_N 	N 	0.785	0.5429	0.5853	-0.302
Mof_N 	N 	0.6724	0.4362	0.5364	-0.298
Mof_N 	N 	0.7783	0.4571	0.5384	-0.295
Mof_N 	N 	0.7523	0.4686	0.0055	-0.293
Mof_N 	N 	0.689	0.398	0.9694	-0.333
Mof_N 	N 	0.6789	0.5043	0.8902	-0.355
Mof_N 	N 	0.1842	0.7319	0.8623	-0.301
Mof_N 	N 	0.2434	0.8157	0.8899	-0.325
Mof_N 	N 	0.278	0.9287	0.7737	-0.334
Mof_N 	N 	0.8903	0.4744	0.8449	-0.294
Mof_N 	N 	0.8718	0.4571	0.7579	-0.302
Mof_N 	N 	0.0274	0.5638	0.7638	-0.296
Mof_N 	N 	0.0045	0.5429	0.6788	-0.274
Mof_N 	N 	0.5337	0.2578	0.4977	-0.301
Mof_N 	N 	0.541	0.1584	0.561	-0.328
Mof_N 	N 	0.4246	0.0691	0.5711	-0.354
Mof_N 	N 	0.7023	0.5465	0.0658	-0.301
Mof_N 	N 	0.6777	0.6333	0.0066	-0.315
Mof_N 	N 	0.5993	0.5517	0.972	-0.331
Mof_N 	N 	0.6659	0.2352	0.3597	-0.294
Mof_N 	N 	0.6647	0.1297	0.3782	-0.302
Mof_N 	N 	0.7136	0.2912	0.2226	-0.298
Mof_N 	N 	0.7116	0.1833	0.2455	-0.296
Mof_N 	N 	0.2445	0.7422	0.7241	-0.301
Mof_N 	N 	0.2806	0.8416	0.6174	-0.328
Mof_N 	N 	0.3598	0.9309	0.6445	-0.355
Mof_N 	N 	0.3877	0.4535	0.8442	-0.301
Mof_N 	N 	0.3601	0.3667	0.9556	-0.324
Mof_N 	N 	0.4763	0.4483	0.9524	-0.334
Mof_N 	N 	0.4051	0.7648	0.5693	-0.294
Mof_N 	N 	0.4921	0.8703	0.465	-0.302
Mof_N 	N 	0.4862	0.7088	0.5776	-0.298
Mof_N 	N 	0.5712	0.8167	0.4717	-0.296
Mof_O 	O 	0.3208	0.659	0.3278	-1.033
Mof_O 	O 	0.3856	0.6513	0.2621	-1.032
Mof_O 	O 	0.3536	0.6085	0.4161	-0.951
Mof_O 	O 	0.4221	0.6077	0.345	-1.106
Mof_O 	O 	0.3601	0.7746	0.2345	-1.071
Mof_O 	O 	0.4209	0.7529	0.1748	-1.036
Mof_O 	O 	0.4423	0.8831	0.1886	-1.109
Mof_O 	O 	0.5084	0.8724	0.1262	-1.098
Mof_O 	O 	0.529	0.9356	0.2192	-1.115
Mof_O 	O 	0.5897	0.9176	0.1511	-1.087
Mof_O 	O 	0.5652	0.8958	0.2902	-1.064
Mof_O 	O 	0.6304	0.8837	0.2287	-1.012
Mof_O 	O 	0.5306	0.7797	0.3825	-1.047
Mof_O 	O 	0.6011	0.7723	0.32	-0.919
Mof_O 	O 	0.4471	0.6707	0.433	-1.075
Mof_O 	O 	0.507	0.6513	0.3663	-1.138
Mof_O 	O 	0.4984	0.6769	0.2309	-1.059
Mof_O 	O 	0.531	0.7791	0.1453	-1.015
Mof_O 	O 	0.445	0.6719	0.1513	-0.78
Mof_O 	O 	0.5823	0.7187	0.2518	-0.951
Mof_O 	O 	0.6211	0.8375	0.1542	-0.99
Mof_O 	O 	0.3292	0.7547	0.3445	-0.987
Mof_O 	O 	0.4184	0.8566	0.3016	-1.106
Mof_O 	O 	0.37	0.7088	0.4312	-0.9
Mof_O 	O 	0.4539	0.8175	0.377	-1.045
Mof_O 	O 	0.4475	0.7423	0.4858	-0.788
Mof_O 	O 	0.2628	0.6313	0.4379	-0.689
Mof_O 	O 	0.222	0.668	0.3502	-0.812
Mof_O 	O 	0.69	0.8291	0.2095	-0.679
Mof_O 	O 	0.7246	0.9537	0.1183	-0.798
Mof_O 	O 	0.0132	0.341	0.3382	-1.012
Mof_O 	O 	0.0866	0.3487	0.2657	-1.03
Mof_O 	O 	0.9754	0.3915	0.2549	-0.96
Mof_O 	O 	0.0473	0.3923	0.1856	-1.095
Mof_O 	O 	0.9909	0.2254	0.4145	-1.088
Mof_O 	O 	0.0723	0.2471	0.332	-1.032
Mof_O 	O 	0.9283	0.1169	0.4408	-1.119
Mof_O 	O 	0.0014	0.1276	0.364	-1.086
Mof_O 	O 	0.8452	0.0644	0.4066	-1.116
Mof_O 	O 	0.9313	0.0824	0.3279	-1.096
Mof_O 	O 	0.814	0.1042	0.3306	-1.065
Mof_O 	O 	0.8876	0.1163	0.2533	-1.008
Mof_O 	O 	0.8378	0.2203	0.2491	-1.048
Mof_O 	O 	0.9077	0.2277	0.1712	-0.916
Mof_O 	O 	0.8963	0.3293	0.2236	-1.076
Mof_O 	O 	0.9824	0.3487	0.1443	-1.147
Mof_O 	O 	0.0922	0.3231	0.1785	-1.056
Mof_O 	O 	0.0756	0.2209	0.2481	-1.014
Mof_O 	O 	0.1768	0.3281	0.2269	-0.78
Mof_O 	O 	0.0295	0.2813	0.1364	-0.932
Mof_O 	O 	0.0083	0.1625	0.2164	-0.971
Mof_O 	O 	0.9008	0.2453	0.4255	-0.984
Mof_O 	O 	0.8418	0.1434	0.4382	-1.107
Mof_O 	O 	0.86	0.2912	0.3388	-0.9
Mof_O 	O 	0.8055	0.1825	0.3636	-1.045
Mof_O 	O 	0.7719	0.2577	0.2948	-0.788
Mof_O 	O 	0.9308	0.3687	0.3685	-0.687
Mof_O 	O 	0.9818	0.332	0.446	-0.817
Mof_O 	O 	0.9614	0.1709	0.1391	-0.675
Mof_O 	O 	0.928	0.0463	0.2291	-0.797
Mof_O 	O 	0.9118	0.1486	0.9292	-1.033
Mof_O 	O 	0.9843	0.1477	0.8644	-1.047
Mof_O 	O 	0.9951	0.2697	0.8964	-0.962
Mof_O 	O 	0.0644	0.2671	0.8279	-1.095
Mof_O 	O 	0.8355	0.0946	0.8899	-1.073
Mof_O 	O 	0.918	0.0957	0.8291	-1.044
Mof_O 	O 	0.8092	0.1309	0.8077	-1.111
Mof_O 	O 	0.886	0.1346	0.7416	-1.103
Mof_O 	O 	0.8434	0.2482	0.721	-1.116
Mof_O 	O 	0.9221	0.2408	0.6603	-1.093
Mof_O 	O 	0.9194	0.3554	0.6848	-1.072
Mof_O 	O 	0.9967	0.3591	0.6196	-1.037
Mof_O 	O 	0.0009	0.4131	0.7194	-1.034
Mof_O 	O 	0.0788	0.4211	0.6489	-0.916
Mof_O 	O 	0.0264	0.3801	0.8029	-1.062
Mof_O 	O 	0.1057	0.3733	0.743	-1.137
Mof_O 	O 	0.0715	0.2293	0.7516	-1.055
Mof_O 	O 	0.0019	0.1763	0.719	-1.001
Mof_O 	O 	0.0231	0.0963	0.805	-0.768
Mof_O 	O 	0.1136	0.3341	0.6677	-0.95
Mof_O 	O 	0.0336	0.2753	0.6289	-0.986
Mof_O 	O 	0.8245	0.1737	0.9208	-0.985
Mof_O 	O 	0.8118	0.22	0.8316	-1.107
Mof_O 	O 	0.9112	0.3012	0.88	-0.901
Mof_O 	O 	0.8864	0.3309	0.7961	-1.048
Mof_O 	O 	0.9552	0.4333	0.8025	-0.799
Mof_O 	O 	0.8815	0.2007	0.9872	-0.69
Mof_O 	O 	0.804	0.0722	0.028	-0.798
Mof_O 	O 	0.1109	0.3995	0.56	-0.684
Mof_O 	O 	0.0209	0.3429	0.5254	-0.792
Mof_O 	O 	0.9222	0.8514	0.2368	-1.037
Mof_O 	O 	0.9879	0.8523	0.1634	-1.044
Mof_O 	O 	0.8339	0.7303	0.2746	-0.951
Mof_O 	O 	0.905	0.7329	0.2027	-1.109
Mof_O 	O 	0.0155	0.9054	0.2591	-1.061
Mof_O 	O 	0.0752	0.9043	0.1777	-1.033
Mof_O 	O 	0.0614	0.8691	0.3217	-1.102
Mof_O 	O 	0.1238	0.8654	0.2486	-1.098
Mof_O 	O 	0.0308	0.7518	0.4048	-1.104
Mof_O 	O 	0.0989	0.7592	0.3187	-1.085
Mof_O 	O 	0.9598	0.6446	0.436	-1.075
Mof_O 	O 	0.0213	0.6409	0.3624	-1.002
Mof_O 	O 	0.8675	0.5869	0.4122	-1.048
Mof_O 	O 	0.93	0.5789	0.3423	-0.919
Mof_O 	O 	0.817	0.6199	0.3537	-1.076
Mof_O 	O 	0.8837	0.6267	0.2676	-1.138
Mof_O 	O 	0.0191	0.7707	0.1578	-1.045
Mof_O 	O 	0.1047	0.8237	0.1744	-1.014
Mof_O 	O 	0.0987	0.9037	0.0732	-0.775
Mof_O 	O 	0.9982	0.6659	0.2205	-0.956
Mof_O 	O 	0.0958	0.7247	0.2417	-0.987
Mof_O 	O 	0.9055	0.8263	0.3492	-0.989
Mof_O 	O 	0.9484	0.78	0.4082	-1.112
Mof_O 	O 	0.8188	0.6988	0.39	-0.9
Mof_O 	O 	0.873	0.6691	0.4445	-1.046
Mof_O 	O 	0.7642	0.5667	0.4781	-0.788
Mof_O 	O 	0.8121	0.7993	0.3192	-0.688
Mof_O 	O 	0.8998	0.9278	0.2682	-0.814
Mof_O 	O 	0.0405	0.6005	0.2886	-0.663
Mof_O 	O 	0.1317	0.6571	0.322	-0.798
Mof_O 	O 	0.5132	0.3514	0.8278	-1.033
Mof_O 	O 	0.5866	0.3523	0.7621	-1.032
Mof_O 	O 	0.4754	0.2303	0.9161	-0.951
Mof_O 	O 	0.5473	0.2329	0.845	-1.108
Mof_O 	O 	0.4909	0.4054	0.7345	-1.071
Mof_O 	O 	0.5723	0.4043	0.6748	-1.036
Mof_O 	O 	0.4283	0.3691	0.6886	-1.109
Mof_O 	O 	0.5014	0.3654	0.6262	-1.099
Mof_O 	O 	0.3452	0.2518	0.7192	-1.115
Mof_O 	O 	0.4313	0.2592	0.6511	-1.086
Mof_O 	O 	0.314	0.1446	0.7902	-1.064
Mof_O 	O 	0.3876	0.1409	0.7287	-1.012
Mof_O 	O 	0.3378	0.0869	0.8825	-1.048
Mof_O 	O 	0.4077	0.0789	0.82	-0.92
Mof_O 	O 	0.3963	0.1199	0.933	-1.078
Mof_O 	O 	0.4824	0.1267	0.8663	-1.14
Mof_O 	O 	0.5922	0.2707	0.7309	-1.059
Mof_O 	O 	0.5756	0.3237	0.6453	-1.015
Mof_O 	O 	0.6768	0.4037	0.6513	-0.781
Mof_O 	O 	0.5295	0.1659	0.7518	-0.951
Mof_O 	O 	0.5083	0.2247	0.6542	-0.99
Mof_O 	O 	0.4008	0.3263	0.8445	-0.987
Mof_O 	O 	0.3418	0.28	0.8016	-1.106
Mof_O 	O 	0.36	0.1988	0.9312	-0.9
Mof_O 	O 	0.3055	0.1691	0.877	-1.045
Mof_O 	O 	0.2719	0.0667	0.9858	-0.796
Mof_O 	O 	0.4308	0.2993	0.9379	-0.69
Mof_O 	O 	0.4818	0.4278	0.8502	-0.812
Mof_O 	O 	0.4614	0.1005	0.7095	-0.679
Mof_O 	O 	0.428	0.1571	0.6183	-0.798
Mof_O 	O 	0.8208	0.6486	0.8382	-1.033
Mof_O 	O 	0.8856	0.6477	0.7657	-1.034
Mof_O 	O 	0.8536	0.7697	0.7549	-0.952
Mof_O 	O 	0.9221	0.7671	0.6856	-1.114
Mof_O 	O 	0.8601	0.5946	0.9145	-1.073
Mof_O 	O 	0.9209	0.5957	0.832	-1.042
Mof_O 	O 	0.9423	0.6309	0.9408	-1.123
Mof_O 	O 	0.0084	0.6346	0.864	-1.087
Mof_O 	O 	0.029	0.7482	0.9066	-1.105
Mof_O 	O 	0.0897	0.7408	0.8279	-1.085
Mof_O 	O 	0.0652	0.8554	0.8306	-1.057
Mof_O 	O 	0.1304	0.8591	0.7533	-1.011
Mof_O 	O 	0.0306	0.9131	0.7491	-1.036
Mof_O 	O 	0.1011	0.9211	0.6712	-0.918
Mof_O 	O 	0.9471	0.8801	0.7236	-1.085
Mof_O 	O 	0.007	0.8733	0.6443	-1.127
Mof_O 	O 	0.9984	0.7293	0.6785	-1.074
Mof_O 	O 	0.031	0.6763	0.7481	-1.005
Mof_O 	O 	0.945	0.5963	0.7269	-0.787
Mof_O 	O 	0.0823	0.8341	0.6364	-0.947
Mof_O 	O 	0.1211	0.7753	0.7164	-0.989
Mof_O 	O 	0.8292	0.6737	0.9255	-0.99
Mof_O 	O 	0.9184	0.72	0.9382	-1.113
Mof_O 	O 	0.87	0.8012	0.8388	-0.901
Mof_O 	O 	0.9539	0.8309	0.8636	-1.051
Mof_O 	O 	0.9475	0.9333	0.7948	-0.792
Mof_O 	O 	0.7628	0.7007	0.8685	-0.689
Mof_O 	O 	0.722	0.5722	0.946	-0.817
Mof_O 	O 	0.19	0.8995	0.6391	-0.679
Mof_O 	O 	0.2246	0.8429	0.7291	-0.798
Mof_O 	O 	0.4222	0.159	0.4292	-1.033
Mof_O 	O 	0.4879	0.1513	0.3644	-1.032
Mof_O 	O 	0.3339	0.1085	0.3964	-0.951
Mof_O 	O 	0.405	0.1077	0.3279	-1.106
Mof_O 	O 	0.5155	0.2746	0.3899	-1.071
Mof_O 	O 	0.5752	0.2529	0.3291	-1.036
Mof_O 	O 	0.5614	0.3831	0.3077	-1.109
Mof_O 	O 	0.6238	0.3724	0.2416	-1.098
Mof_O 	O 	0.5308	0.4356	0.221	-1.115
Mof_O 	O 	0.5989	0.4176	0.1603	-1.086
Mof_O 	O 	0.4598	0.3958	0.1848	-1.064
Mof_O 	O 	0.5213	0.3837	0.1196	-1.012
Mof_O 	O 	0.3675	0.2797	0.2194	-1.047
Mof_O 	O 	0.43	0.2723	0.1489	-0.919
Mof_O 	O 	0.317	0.1707	0.3029	-1.075
Mof_O 	O 	0.3837	0.1513	0.243	-1.137
Mof_O 	O 	0.5191	0.1769	0.2516	-1.059
Mof_O 	O 	0.6047	0.2791	0.219	-1.015
Mof_O 	O 	0.5987	0.1719	0.305	-0.78
Mof_O 	O 	0.4982	0.2187	0.1677	-0.951
Mof_O 	O 	0.5958	0.3375	0.1289	-0.99
Mof_O 	O 	0.4055	0.2547	0.4208	-0.987
Mof_O 	O 	0.4484	0.3566	0.3316	-1.106
Mof_O 	O 	0.3188	0.2088	0.38	-0.9
Mof_O 	O 	0.373	0.3175	0.2961	-1.045
Mof_O 	O 	0.2642	0.2423	0.3025	-0.788
Mof_O 	O 	0.3121	0.1313	0.4872	-0.689
Mof_O 	O 	0.3998	0.168	0.528	-0.812
Mof_O 	O 	0.5405	0.3291	0.06	-0.676
Mof_O 	O 	0.6317	0.4537	0.0254	-0.792
Mof_O 	O 	0.4118	0.841	0.7368	-1.033
Mof_O 	O 	0.4843	0.8487	0.6634	-1.032
Mof_O 	O 	0.4951	0.8915	0.7746	-0.951
Mof_O 	O 	0.5644	0.8923	0.7027	-1.106
Mof_O 	O 	0.3355	0.7254	0.7591	-1.071
Mof_O 	O 	0.418	0.7471	0.6777	-1.036
Mof_O 	O 	0.3092	0.6169	0.8217	-1.109
Mof_O 	O 	0.386	0.6276	0.7486	-1.098
Mof_O 	O 	0.3434	0.5644	0.9048	-1.116
Mof_O 	O 	0.4221	0.5824	0.8187	-1.086
Mof_O 	O 	0.4194	0.6042	0.936	-1.067
Mof_O 	O 	0.4967	0.6163	0.8624	-1.012
Mof_O 	O 	0.5009	0.7203	0.9122	-1.049
Mof_O 	O 	0.5788	0.7277	0.8423	-0.92
Mof_O 	O 	0.5264	0.8293	0.8537	-1.076
Mof_O 	O 	0.6057	0.8487	0.7676	-1.138
Mof_O 	O 	0.5715	0.8231	0.6578	-1.059
Mof_O 	O 	0.5019	0.7209	0.6744	-1.015
Mof_O 	O 	0.5231	0.8281	0.5732	-0.78
Mof_O 	O 	0.6136	0.7813	0.7205	-0.951
Mof_O 	O 	0.5336	0.6625	0.7417	-0.99
Mof_O 	O 	0.3245	0.7453	0.8492	-0.987
Mof_O 	O 	0.3118	0.6434	0.9082	-1.107
Mof_O 	O 	0.4112	0.7912	0.89	-0.901
Mof_O 	O 	0.3864	0.6825	0.9445	-1.047
Mof_O 	O 	0.4552	0.7577	0.9781	-0.795
Mof_O 	O 	0.3815	0.8687	0.8192	-0.689
Mof_O 	O 	0.304	0.832	0.7682	-0.812
Mof_O 	O 	0.6109	0.6709	0.7886	-0.679
Mof_O 	O 	0.5209	0.5463	0.822	-0.798
_end
