data_functionalizedCrystal
_audit_creation_method	'EQeq! by Chris Wilmer'
_symmetry_space_group_name_H-M	'P1'
_symmetry_Int_Tables_number	1
_symmetry_cell_setting	triclinic
loop_
_symmetry_equiv_pos_as_xyz
  x,y,z
_cell_length_a	8.997
_cell_length_b	10.5163
_cell_length_c	10.686
_cell_angle_alpha	98.008
_cell_angle_beta	97.436
_cell_angle_gamma	111.11
loop_
_atom_site_label
_atom_site_type_symbol
_atom_site_fract_x
_atom_site_fract_y
_atom_site_fract_z
_atom_site_charge
Mof_Mn	Mn	0.20171	0.74605	0.18588	0.782
Mof_O 	O 	0.94957	0.6361	0.06921	-0.3
Mof_O 	O 	0.81866	0.46677	0.89472	-0.309
Mof_N 	N 	0.4613	0.8212	0.27313	-0.196
Mof_N 	N 	0.8112	0.17345	0.20293	-0.309
Mof_N 	N 	0.7175	0.974	0.31517	-0.308
Mof_N 	N 	0.9108	0.2055	0.4418	-0.311
Mof_N 	N 	0.0071	0.068	0.27652	-0.302
Mof_C 	C 	0.5691	0.9264	0.2383	0.137
Mof_H 	H 	0.5455	0.9639	0.1681	-0.034
Mof_C 	C 	0.9325	0.5297	0.9895	0.223
Mof_C 	C 	0.7015	0.8902	0.4059	0.04
Mof_H 	H 	0.7829	0.8963	0.4725	0.003
Mof_C 	C 	0.8167	0.1436	0.0767	0.141
Mof_H 	H 	0.8702	0.0892	0.0444	-0.028
Mof_C 	C 	0.0154	0.9407	0.262	0.116
Mof_H 	H 	0.9347	0.8618	0.2757	-0.015
Mof_C 	C 	0.5449	0.7974	0.3794	-0.01
Mof_H 	H 	0.5009	0.7286	0.4255	0.026
Mof_C 	C 	0.2355	0.0765	0.2167	-0.005
Mof_H 	H 	0.3366	0.1094	0.1934	0.023
Mof_C 	C 	0.7198	0.2545	0.2104	0.042
Mof_H 	H 	0.6934	0.2912	0.2846	0.003
Mof_C 	C 	0.6758	0.2703	0.089	-0.015
Mof_H 	H 	0.6137	0.3207	0.0663	0.039
Mof_C 	C 	0.1484	0.1549	0.2465	0.035
Mof_H 	H 	0.1785	0.2493	0.2466	0.013
Mof_C 	C 	0.8115	0.2036	0.5264	0.132
Mof_H 	H 	0.7045	0.1402	0.5116	-0.037
Mof_C 	C 	0.0569	0.3143	0.4994	0.042
Mof_H 	H 	0.1509	0.343	0.4652	0.005
Mof_C 	C 	0.0368	0.3712	0.615	-0.009
Mof_H 	H 	0.116	0.4462	0.6736	0.034
Mof_B 	B 	0.864	0.1054	0.3099	0.92
Mof_N 	N 	0.1508	0.941	0.22621	-0.191
Mof_N 	N 	0.8809	0.3005	0.63237	-0.191
Mof_N 	N 	0.7375	0.2003	0.00425	-0.185
Mof_Mn	Mn	0.79829	0.25395	0.81412	0.781
Mof_O 	O 	0.05043	0.3639	0.93079	-0.301
Mof_O 	O 	0.18134	0.53323	0.10528	-0.309
Mof_N 	N 	0.5387	0.1788	0.72687	-0.196
Mof_N 	N 	0.1888	0.82655	0.79707	-0.309
Mof_N 	N 	0.2825	0.026	0.68483	-0.308
Mof_N 	N 	0.0892	0.7945	0.5582	-0.311
Mof_N 	N 	0.9929	0.932	0.72348	-0.302
Mof_C 	C 	0.4309	0.0736	0.7617	0.137
Mof_H 	H 	0.4545	0.0361	0.8319	-0.034
Mof_C 	C 	0.0675	0.4703	0.0105	0.223
Mof_C 	C 	0.2985	0.1098	0.5941	0.04
Mof_H 	H 	0.2171	0.1037	0.5275	0.003
Mof_C 	C 	0.1833	0.8564	0.9233	0.141
Mof_H 	H 	0.1298	0.9108	0.9556	-0.028
Mof_C 	C 	0.9846	0.0593	0.738	0.116
Mof_H 	H 	0.0653	0.1382	0.7243	-0.015
Mof_C 	C 	0.4551	0.2026	0.6206	-0.01
Mof_H 	H 	0.4991	0.2714	0.5745	0.026
Mof_C 	C 	0.7645	0.9235	0.7833	-0.005
Mof_H 	H 	0.6634	0.8906	0.8066	0.023
Mof_C 	C 	0.2802	0.7455	0.7896	0.042
Mof_H 	H 	0.3066	0.7088	0.7154	0.003
Mof_C 	C 	0.3242	0.7297	0.911	-0.015
Mof_H 	H 	0.3863	0.6793	0.9337	0.039
Mof_C 	C 	0.8516	0.8451	0.7535	0.035
Mof_H 	H 	0.8215	0.7507	0.7534	0.013
Mof_C 	C 	0.1885	0.7964	0.4736	0.132
Mof_H 	H 	0.2955	0.8598	0.4884	-0.037
Mof_C 	C 	0.9431	0.6857	0.5006	0.042
Mof_H 	H 	0.8491	0.657	0.5348	0.005
Mof_C 	C 	0.9632	0.6288	0.385	-0.009
Mof_H 	H 	0.884	0.5538	0.3264	0.034
Mof_B 	B 	0.136	0.8946	0.6901	0.92
Mof_N 	N 	0.8492	0.059	0.77379	-0.191
Mof_N 	N 	0.1191	0.6995	0.36763	-0.191
Mof_N 	N 	0.2625	0.7997	0.99575	-0.185
_end
