data_functionalizedCrystal
_audit_creation_method	'EQeq! by Chris Wilmer'
_symmetry_space_group_name_H-M	'P1'
_symmetry_Int_Tables_number	1
_symmetry_cell_setting	triclinic
loop_
_symmetry_equiv_pos_as_xyz
  x,y,z
_cell_length_a	18.326
_cell_length_b	19.033
_cell_length_c	12.529
_cell_angle_alpha	90
_cell_angle_beta	90
_cell_angle_gamma	90
loop_
_atom_site_label
_atom_site_type_symbol
_atom_site_fract_x
_atom_site_fract_y
_atom_site_fract_z
_atom_site_charge
Mof_Cd	Cd	0.7288	0.74842	0.38038	0.471
Mof_Cd	Cd	0.82596	0.66327	0.558	0.442
Mof_O 	O 	0.7261	0.63732	0.3303	-0.276
Mof_O 	O 	0.79157	0.57585	0.4495	-0.273
Mof_O 	O 	0.6275	0.739	0.4786	-0.271
Mof_O 	O 	0.7004	0.6736	0.5805	-0.272
Mof_O 	O 	0.666	0.26909	0.3709	-0.276
Mof_O 	O 	0.7335	0.32543	0.4952	-0.276
Mof_O 	O 	0.3739	0.784	0.5931	-0.284
Mof_O 	O 	0.3249	0.7162	0.7161	-0.272
Mof_O 	O 	0.5844	0.4537	0.1249	-0.215
Mof_O 	O 	0.5404	0.58	0.866	-0.212
Mof_C 	C 	0.6396	0.7019	0.5596	0.291
Mof_C 	C 	0.5777	0.6878	0.6337	-0.005
Mof_C 	C 	0.5859	0.642	0.7193	-0.131
Mof_H 	H 	0.6319	0.6206	0.732	0.104
Mof_C 	C 	0.5286	0.6274	0.7854	0.189
Mof_C 	C 	0.4612	0.6612	0.7711	-0.127
Mof_H 	H 	0.4221	0.6529	0.8191	0.095
Mof_C 	C 	0.4524	0.7076	0.6847	-0.009
Mof_C 	C 	0.5109	0.7204	0.6158	-0.04
Mof_H 	H 	0.505	0.7514	0.557	0.074
Mof_C 	C 	0.4805	0.5635	0.933	-0.025
Mof_H 	H 	0.4385	0.5532	0.89	0.063
Mof_H 	H 	0.469	0.6027	0.9782	0.063
Mof_C 	C 	0.3785	0.7391	0.6636	0.305
Mof_C 	C 	0.7464	0.5811	0.3741	0.299
Mof_C 	C 	0.7115	0.5147	0.3339	-0.002
Mof_C 	C 	0.7222	0.4517	0.3868	-0.047
Mof_H 	H 	0.7533	0.4499	0.4474	0.078
Mof_C 	C 	0.6876	0.3911	0.3509	0.002
Mof_C 	C 	0.6433	0.3938	0.2616	-0.133
Mof_H 	H 	0.6199	0.3525	0.2364	0.106
Mof_C 	C 	0.6333	0.457	0.2096	0.189
Mof_C 	C 	0.6659	0.5184	0.2441	-0.134
Mof_H 	H 	0.6578	0.5617	0.2082	0.097
Mof_C 	C 	0.6966	0.3227	0.4122	0.296
Mof_C 	C 	0.5664	0.518	0.0712	-0.019
Mof_H 	H 	0.6076	0.5341	0.0262	0.058
Mof_H 	H 	0.5544	0.5554	0.1233	0.058
Mof_Cd	Cd	0.2712	0.25158	0.38038	0.47
Mof_Cd	Cd	0.17404	0.33673	0.558	0.441
Mof_O 	O 	0.2739	0.36268	0.3303	-0.277
Mof_O 	O 	0.20843	0.42415	0.4495	-0.273
Mof_O 	O 	0.3725	0.261	0.4786	-0.271
Mof_O 	O 	0.2996	0.3264	0.5805	-0.272
Mof_O 	O 	0.334	0.73091	0.3709	-0.276
Mof_O 	O 	0.2665	0.67457	0.4952	-0.276
Mof_O 	O 	0.6261	0.216	0.5931	-0.284
Mof_O 	O 	0.6751	0.2838	0.7161	-0.272
Mof_O 	O 	0.4156	0.5463	0.1249	-0.215
Mof_O 	O 	0.4596	0.42	0.866	-0.212
Mof_C 	C 	0.3604	0.2981	0.5596	0.291
Mof_C 	C 	0.4223	0.3122	0.6337	-0.005
Mof_C 	C 	0.4141	0.358	0.7193	-0.131
Mof_H 	H 	0.3681	0.3794	0.732	0.103
Mof_C 	C 	0.4714	0.3726	0.7854	0.189
Mof_C 	C 	0.5388	0.3388	0.7711	-0.127
Mof_H 	H 	0.5779	0.3471	0.8191	0.095
Mof_C 	C 	0.5476	0.2924	0.6847	-0.009
Mof_C 	C 	0.4891	0.2796	0.6158	-0.04
Mof_H 	H 	0.495	0.2486	0.557	0.074
Mof_C 	C 	0.5195	0.4365	0.933	-0.025
Mof_H 	H 	0.5615	0.4468	0.89	0.063
Mof_H 	H 	0.531	0.3973	0.9782	0.062
Mof_C 	C 	0.6215	0.2609	0.6636	0.305
Mof_C 	C 	0.2536	0.4189	0.3741	0.299
Mof_C 	C 	0.2885	0.4853	0.3339	-0.002
Mof_C 	C 	0.2778	0.5483	0.3868	-0.047
Mof_H 	H 	0.2467	0.5501	0.4474	0.078
Mof_C 	C 	0.3124	0.6089	0.3509	0.002
Mof_C 	C 	0.3567	0.6062	0.2616	-0.133
Mof_H 	H 	0.3801	0.6475	0.2364	0.106
Mof_C 	C 	0.3667	0.543	0.2096	0.189
Mof_C 	C 	0.3341	0.4816	0.2441	-0.134
Mof_H 	H 	0.3422	0.4383	0.2082	0.097
Mof_C 	C 	0.3034	0.6773	0.4122	0.296
Mof_C 	C 	0.4336	0.482	0.0712	-0.019
Mof_H 	H 	0.3924	0.4659	0.0262	0.058
Mof_H 	H 	0.4456	0.4446	0.1233	0.058
Mof_Cd	Cd	0.7712	0.24842	0.61962	0.47
Mof_Cd	Cd	0.67404	0.16327	0.442	0.441
Mof_O 	O 	0.7739	0.13732	0.6697	-0.277
Mof_O 	O 	0.70843	0.07585	0.5505	-0.274
Mof_O 	O 	0.8725	0.239	0.5214	-0.271
Mof_O 	O 	0.7996	0.1736	0.4195	-0.272
Mof_O 	O 	0.834	0.76909	0.6291	-0.276
Mof_O 	O 	0.7665	0.82543	0.5048	-0.276
Mof_O 	O 	0.1261	0.284	0.4069	-0.284
Mof_O 	O 	0.1751	0.2162	0.2839	-0.272
Mof_O 	O 	0.9156	0.9537	0.8751	-0.214
Mof_O 	O 	0.9596	0.08	0.134	-0.212
Mof_C 	C 	0.8604	0.2019	0.4404	0.291
Mof_C 	C 	0.9223	0.1878	0.3663	-0.006
Mof_C 	C 	0.9141	0.142	0.2807	-0.132
Mof_H 	H 	0.8681	0.1206	0.268	0.103
Mof_C 	C 	0.9714	0.1274	0.2146	0.19
Mof_C 	C 	0.0388	0.1612	0.2289	-0.129
Mof_H 	H 	0.0779	0.1529	0.1809	0.095
Mof_C 	C 	0.0476	0.2076	0.3153	-0.011
Mof_C 	C 	0.9891	0.2204	0.3842	-0.038
Mof_H 	H 	0.995	0.2514	0.443	0.074
Mof_C 	C 	0.0195	0.0635	0.067	-0.024
Mof_H 	H 	0.0615	0.0532	0.11	0.062
Mof_H 	H 	0.031	0.1027	0.0218	0.062
Mof_C 	C 	0.1215	0.2391	0.3364	0.305
Mof_C 	C 	0.7536	0.0811	0.6259	0.299
Mof_C 	C 	0.7885	0.0147	0.6661	-0.003
Mof_C 	C 	0.7778	0.9517	0.6132	-0.046
Mof_H 	H 	0.7467	0.9499	0.5526	0.078
Mof_C 	C 	0.8124	0.8911	0.6491	0.002
Mof_C 	C 	0.8567	0.8938	0.7384	-0.133
Mof_H 	H 	0.8801	0.8525	0.7636	0.106
Mof_C 	C 	0.8667	0.957	0.7904	0.191
Mof_C 	C 	0.8341	0.0184	0.7559	-0.136
Mof_H 	H 	0.8422	0.0617	0.7918	0.098
Mof_C 	C 	0.8034	0.8227	0.5878	0.296
Mof_C 	C 	0.9336	0.018	0.9288	-0.017
Mof_H 	H 	0.8924	0.0341	0.9738	0.058
Mof_H 	H 	0.9456	0.0554	0.8767	0.057
Mof_Cd	Cd	0.2288	0.75158	0.61962	0.47
Mof_Cd	Cd	0.32596	0.83673	0.442	0.442
Mof_O 	O 	0.2261	0.86268	0.6697	-0.276
Mof_O 	O 	0.29157	0.92415	0.5505	-0.273
Mof_O 	O 	0.1275	0.761	0.5214	-0.271
Mof_O 	O 	0.2004	0.8264	0.4195	-0.272
Mof_O 	O 	0.166	0.23091	0.6291	-0.276
Mof_O 	O 	0.2335	0.17457	0.5048	-0.276
Mof_O 	O 	0.8739	0.716	0.4069	-0.283
Mof_O 	O 	0.8249	0.7838	0.2839	-0.272
Mof_O 	O 	0.0844	0.0463	0.8751	-0.216
Mof_O 	O 	0.0404	0.92	0.134	-0.214
Mof_C 	C 	0.1396	0.7981	0.4404	0.291
Mof_C 	C 	0.0777	0.8122	0.3663	-0.005
Mof_C 	C 	0.0859	0.858	0.2807	-0.131
Mof_H 	H 	0.1319	0.8794	0.268	0.104
Mof_C 	C 	0.0286	0.8726	0.2146	0.188
Mof_C 	C 	0.9612	0.8388	0.2289	-0.126
Mof_H 	H 	0.9221	0.8471	0.1809	0.095
Mof_C 	C 	0.9524	0.7924	0.3153	-0.008
Mof_C 	C 	0.0109	0.7796	0.3842	-0.042
Mof_H 	H 	0.005	0.7486	0.443	0.074
Mof_C 	C 	0.9805	0.9365	0.067	-0.02
Mof_H 	H 	0.9385	0.9468	0.11	0.062
Mof_H 	H 	0.969	0.8973	0.0218	0.061
Mof_C 	C 	0.8785	0.7609	0.3364	0.304
Mof_C 	C 	0.2464	0.9189	0.6259	0.299
Mof_C 	C 	0.2115	0.9853	0.6661	-0.001
Mof_C 	C 	0.2222	0.0483	0.6132	-0.049
Mof_H 	H 	0.2533	0.0501	0.5526	0.078
Mof_C 	C 	0.1876	0.1089	0.6491	0.002
Mof_C 	C 	0.1433	0.1062	0.7384	-0.133
Mof_H 	H 	0.1199	0.1475	0.7636	0.105
Mof_C 	C 	0.1333	0.043	0.7904	0.188
Mof_C 	C 	0.1659	0.9816	0.7559	-0.133
Mof_H 	H 	0.1578	0.9383	0.7918	0.097
Mof_C 	C 	0.1966	0.1773	0.5878	0.296
Mof_C 	C 	0.0664	0.982	0.9288	-0.014
Mof_H 	H 	0.1076	0.9659	0.9738	0.057
Mof_H 	H 	0.0544	0.9446	0.8767	0.056
Mof_C 	C 	0.5	0.5	0.0025	0.048
Mof_C 	C 	2.55696e-33	5.77642e-33	0.9975	0.042
_end
