data_functionalizedCrystal
_audit_creation_method	'EQeq! by Chris Wilmer'
_symmetry_space_group_name_H-M	'P1'
_symmetry_Int_Tables_number	1
_symmetry_cell_setting	triclinic
loop_
_symmetry_equiv_pos_as_xyz
  x,y,z
_cell_length_a	11.945
_cell_length_b	19.2163
_cell_length_c	19.2163
_cell_angle_alpha	84.4566
_cell_angle_beta	71.8923
_cell_angle_gamma	71.8924
loop_
_atom_site_label
_atom_site_type_symbol
_atom_site_fract_x
_atom_site_fract_y
_atom_site_fract_z
_atom_site_charge
Mof_Gd	Gd	0.94203	0.10568	0.52112	1.836
Mof_Gd	Gd	0.62124	0.70122	0.36288	1.97
Mof_Gd	Gd	0.05797	0.89432	0.47888	1.836
Mof_Gd	Gd	0.93117	0.60568	0.02112	1.799
Mof_Gd	Gd	0.01588	0.36288	0.79878	1.952
Mof_Gd	Gd	0.53685	0.52112	0.39432	1.831
Mof_Gd	Gd	0.46315	0.47888	0.60568	1.832
Mof_Gd	Gd	0.18534	0.79878	0.13712	1.978
Mof_Gd	Gd	0.67754	0.13712	0.70122	1.972
Mof_Gd	Gd	0.32246	0.86288	0.29878	1.972
Mof_Gd	Gd	0.37876	0.29878	0.63712	1.971
Mof_Gd	Gd	0.06883	0.39432	0.97888	1.8
Mof_Gd	Gd	0.81466	0.20122	0.86288	1.978
Mof_Gd	Gd	0.95229	0.97888	0.10568	1.786
Mof_Gd	Gd	0.98412	0.63712	0.20122	1.953
Mof_Gd	Gd	0.04771	0.02112	0.89432	1.786
Mof_H 	H 	0.6843	0.2175	0.4113	0.137
Mof_H 	H 	0.9884	0.8229	0.6651	0.102
Mof_H 	H 	0.198	0.53	0.236	0.09
Mof_H 	H 	0.8131	0.2825	0.0887	0.138
Mof_H 	H 	0.5929	0.5535	0.0781	0.128
Mof_H 	H 	0.7209	0.9024	0.2266	0.148
Mof_H 	H 	0.7064	0.6425	0.5625	0.158
Mof_H 	H 	0.7002	0.4496	0.908	0.129
Mof_H 	H 	0.8467	0.5611	0.7901	0.152
Mof_H 	H 	0.3767	0.2734	0.9024	0.147
Mof_H 	H 	0.332	0.362	0.976	0.087
Mof_H 	H 	0.7714	0.3527	0.6737	0.161
Mof_H 	H 	0.7911	0.8572	0.0512	0.122
Mof_H 	H 	0.0982	0.0887	0.2175	0.134
Mof_H 	H 	0.2481	0.6558	0.751	0.101
Mof_H 	H 	0.434	0.764	0.03	0.088
Mof_H 	H 	0.7022	0.8527	0.1737	0.16
Mof_H 	H 	0.6511	0.9375	0.6425	0.157
Mof_H 	H 	0.9764	0.6771	0.8349	0.096
Mof_H 	H 	0.3918	0.908	0.0504	0.127
Mof_H 	H 	0.6357	0.4648	0.846	0.131
Mof_H 	H 	0.1887	0.8349	0.8229	0.099
Mof_H 	H 	0.2689	0.4375	0.1425	0.157
Mof_H 	H 	0.004	0.113	0.139	0.092
Mof_H 	H 	0.6979	0.9389	0.7099	0.152
Mof_H 	H 	0.802	0.47	0.764	0.09
Mof_H 	H 	0.3499	0.5976	0.2734	0.149
Mof_H 	H 	0.0116	0.1771	0.3349	0.102
Mof_H 	H 	0.536	0.03	0.736	0.089
Mof_H 	H 	0.1241	0.1737	0.6473	0.162
Mof_H 	H 	0.6535	0.3349	0.3229	0.1
Mof_H 	H 	0.8759	0.8263	0.3527	0.162
Mof_H 	H 	0.1533	0.4389	0.2099	0.152
Mof_H 	H 	0.4071	0.4465	0.9219	0.128
Mof_H 	H 	0.0961	0.749	0.6558	0.102
Mof_H 	H 	0.4817	0.154	0.9648	0.128
Mof_H 	H 	0.2755	0.0535	0.5781	0.129
Mof_H 	H 	0.1464	0.5781	0.4465	0.129
Mof_H 	H 	0.8502	0.592	0.4496	0.128
Mof_H 	H 	0.1577	0.0512	0.6428	0.12
Mof_H 	H 	0.0009	0.751	0.8442	0.09
Mof_H 	H 	0.692	0.976	0.138	0.088
Mof_H 	H 	0.7519	0.3442	0.249	0.101
Mof_H 	H 	0.0236	0.3229	0.1651	0.096
Mof_H 	H 	0.6233	0.7266	0.0976	0.147
Mof_H 	H 	0.0548	0.7739	0.9353	0.12
Mof_H 	H 	0.264	0.7261	0.5647	0.12
Mof_H 	H 	0.2089	0.1428	0.9488	0.122
Mof_H 	H 	0.244	0.613	0.639	0.085
Mof_H 	H 	0.5183	0.846	0.0352	0.128
Mof_H 	H 	0.308	0.024	0.862	0.088
Mof_H 	H 	0.1549	0.8442	0.749	0.1
Mof_H 	H 	0.9991	0.249	0.1558	0.09
Mof_H 	H 	0.6368	0.2099	0.0611	0.15
Mof_H 	H 	0.5535	0.9648	0.346	0.131
Mof_H 	H 	0.9044	0.4113	0.2825	0.135
Mof_H 	H 	0.8423	0.9488	0.3572	0.12
Mof_H 	H 	0.736	0.2739	0.4353	0.12
Mof_H 	H 	0.2286	0.6473	0.3263	0.161
Mof_H 	H 	0.0956	0.5887	0.7175	0.135
Mof_H 	H 	0.1995	0.6428	0.4488	0.121
Mof_H 	H 	0.3632	0.7901	0.9389	0.15
Mof_H 	H 	0.1869	0.7175	0.9113	0.138
Mof_H 	H 	0.329	0.0781	0.9465	0.13
Mof_H 	H 	0.3643	0.5352	0.154	0.131
Mof_H 	H 	0.6483	0.5512	0.1428	0.121
Mof_H 	H 	0.7311	0.5625	0.8575	0.157
Mof_H 	H 	0.4422	0.9496	0.408	0.129
Mof_H 	H 	0.5549	0.6737	0.1473	0.16
Mof_H 	H 	0.8005	0.3572	0.5512	0.121
Mof_H 	H 	0.671	0.9219	0.0535	0.13
Mof_H 	H 	0.756	0.387	0.361	0.085
Mof_H 	H 	0.668	0.638	0.024	0.087
Mof_H 	H 	0.83	0.862	0.476	0.089
Mof_H 	H 	0.8536	0.4219	0.5535	0.129
Mof_H 	H 	0.2791	0.0976	0.7734	0.148
Mof_H 	H 	0.8287	0.4353	0.2261	0.119
Mof_H 	H 	0.117	0.639	0.887	0.086
Mof_H 	H 	0.272	0.264	0.53	0.089
Mof_H 	H 	0.8995	0.654	0.4648	0.13
Mof_H 	H 	0.2936	0.3575	0.4375	0.158
Mof_H 	H 	0.4114	0.8575	0.9375	0.158
Mof_H 	H 	0.143	0.861	0.613	0.085
Mof_H 	H 	0.7245	0.9465	0.4219	0.129
Mof_H 	H 	0.694	0.476	0.638	0.09
Mof_H 	H 	0.3489	0.0625	0.3575	0.157
Mof_H 	H 	0.3465	0.6651	0.6771	0.1
Mof_H 	H 	0.2998	0.5504	0.092	0.129
Mof_H 	H 	0.728	0.736	0.47	0.089
Mof_H 	H 	0.4451	0.3263	0.8527	0.16
Mof_H 	H 	0.3517	0.4488	0.8572	0.121
Mof_H 	H 	0.464	0.97	0.264	0.089
Mof_H 	H 	0.4078	0.2901	0.4389	0.151
Mof_H 	H 	0.9039	0.251	0.3442	0.102
Mof_H 	H 	0.883	0.361	0.113	0.086
Mof_H 	H 	0.9901	0.0647	0.2739	0.116
Mof_H 	H 	0.5886	0.1425	0.0625	0.158
Mof_H 	H 	0.306	0.524	0.362	0.09
Mof_H 	H 	0.6082	0.092	0.9496	0.127
Mof_H 	H 	0.857	0.139	0.387	0.085
Mof_H 	H 	0.9018	0.9113	0.7825	0.134
Mof_H 	H 	0.5922	0.7099	0.5611	0.151
Mof_H 	H 	0.1713	0.5647	0.7739	0.119
Mof_H 	H 	0.566	0.236	0.97	0.088
Mof_H 	H 	0.5578	0.0504	0.592	0.129
Mof_H 	H 	0.17	0.138	0.524	0.089
Mof_H 	H 	0.3157	0.7825	0.5887	0.137
Mof_H 	H 	0.996	0.887	0.861	0.092
Mof_H 	H 	0.8113	0.1651	0.1771	0.099
Mof_H 	H 	0.1498	0.408	0.5504	0.128
Mof_H 	H 	0.8451	0.1558	0.251	0.1
Mof_H 	H 	0.4465	0.0352	0.654	0.131
Mof_H 	H 	0.1005	0.346	0.5352	0.13
Mof_H 	H 	0.9452	0.2261	0.0647	0.12
Mof_H 	H 	0.6501	0.4024	0.7266	0.149
Mof_H 	H 	0.9475	0.7734	0.4024	0.15
Mof_H 	H 	0.3021	0.0611	0.2901	0.152
Mof_H 	H 	0.0525	0.2266	0.5976	0.15
Mof_H 	H 	0.2978	0.1473	0.8263	0.16
Mof_H 	H 	0.0099	0.9353	0.7261	0.116
Mof_C 	C 	0.7323	0.2239	0.4415	-0.336
Mof_C 	C 	0.1904	0.0536	0.59	-0.307
Mof_C 	C 	0.5853	0.1496	0.8568	0.434
Mof_C 	C 	0.8096	0.9464	0.41	-0.307
Mof_C 	C 	0.3522	0.8329	0.9661	-0.391
Mof_C 	C 	0.1023	0.7239	0.9415	-0.342
Mof_C 	C 	0.2004	0.0241	0.3833	0.556
Mof_C 	C 	0.8438	0.1295	0.2109	-0.245
Mof_C 	C 	0.2196	0.59	0.4464	-0.303
Mof_C 	C 	0.4147	0.8504	0.1432	0.434
Mof_C 	C 	0.1202	0.1727	0.8261	0.57
Mof_C 	C 	0.2427	0.922	0.7586	0.363
Mof_C 	C 	0.4163	0.3833	0.4759	0.556
Mof_C 	C 	0.1496	0.3577	0.5617	-0.32
Mof_C 	C 	0.2677	0.7761	0.5585	-0.336
Mof_C 	C 	0.666	0.5536	0.09	-0.303
Mof_C 	C 	0.7996	0.9759	0.6167	0.556
Mof_C 	C 	0.3488	0.3329	0.4661	-0.395
Mof_C 	C 	0.1647	0.2586	0.078	0.359
Mof_C 	C 	0.6817	0.9661	0.6671	-0.393
Mof_C 	C 	0.0547	0.7891	0.6295	-0.251
Mof_C 	C 	0.8126	0.522	0.2878	0.53
Mof_C 	C 	0.0013	0.2414	0.422	0.365
Mof_C 	C 	0.7742	0.4865	0.0549	0.416
Mof_C 	C 	0.3158	0.6295	0.7109	-0.248
Mof_C 	C 	0.6859	0.3795	0.6787	-0.408
Mof_C 	C 	0.2651	0.6432	0.1496	0.433
Mof_C 	C 	0.8156	0.0135	0.4451	0.422
Mof_C 	C 	0.431	0.8577	0.0617	-0.322
Mof_C 	C 	0.0654	0.1787	0.6205	-0.416
Mof_C 	C 	0.9987	0.7586	0.578	0.365
Mof_C 	C 	0.244	0.09	0.9464	-0.318
Mof_C 	C 	0.3141	0.6205	0.3213	-0.408
Mof_C 	C 	0.1078	0.4759	0.1167	0.553
Mof_C 	C 	0.8977	0.2761	0.0585	-0.342
Mof_C 	C 	0.334	0.4464	0.91	-0.303
Mof_C 	C 	0.9083	0.6496	0.3568	0.428
Mof_C 	C 	0.1562	0.8705	0.7891	-0.245
Mof_C 	C 	0.9346	0.8213	0.3795	-0.416
Mof_C 	C 	0.0438	0.0585	0.2239	-0.322
Mof_C 	C 	0.8798	0.8273	0.1739	0.57
Mof_C 	C 	0.1844	0.9865	0.5549	0.422
Mof_C 	C 	0.8776	0.022	0.7878	0.526
Mof_C 	C 	0.8262	0.4415	0.2761	-0.335
Mof_C 	C 	0.5579	0.8568	0.3504	0.434
Mof_C 	C 	0.5837	0.6167	0.5241	0.556
Mof_C 	C 	0.7573	0.078	0.2414	0.363
Mof_C 	C 	0.8504	0.6423	0.4383	-0.32
Mof_C 	C 	0.5073	0.0617	0.6423	-0.323
Mof_C 	C 	0.8996	0.2878	0.978	0.536
Mof_C 	C 	0.4233	0.578	0.7414	0.365
Mof_C 	C 	0.381	0.6727	0.3261	0.572
Mof_C 	C 	0.6478	0.1671	0.0339	-0.391
Mof_C 	C 	0.1738	0.5585	0.7239	-0.335
Mof_C 	C 	0.569	0.1423	0.9383	-0.322
Mof_C 	C 	0.7071	0.6739	0.1727	0.571
Mof_C 	C 	0.6654	0.2122	0.522	0.531
Mof_C 	C 	0.7804	0.41	0.5536	-0.303
Mof_C 	C 	0.0917	0.3504	0.6432	0.428
Mof_C 	C 	0.7349	0.3568	0.8504	0.433
Mof_C 	C 	0.6512	0.6671	0.5339	-0.395
Mof_C 	C 	0.1709	0.0549	0.0135	0.429
Mof_C 	C 	0.8291	0.9451	0.9865	0.429
Mof_C 	C 	0.2887	0.5617	0.1423	-0.322
Mof_C 	C 	0.2441	0.1205	0.8213	-0.407
Mof_C 	C 	0.0267	0.2891	0.1295	-0.224
Mof_C 	C 	0.7393	0.4451	0.4865	0.418
Mof_C 	C 	0.5767	0.422	0.2586	0.365
Mof_C 	C 	0.7113	0.4383	0.8577	-0.322
Mof_C 	C 	0.2607	0.5549	0.5135	0.418
Mof_C 	C 	0.1004	0.7122	0.022	0.536
Mof_C 	C 	0.3346	0.7878	0.478	0.531
Mof_C 	C 	0.7755	0.1167	0.0241	0.548
Mof_C 	C 	0.0537	0.8261	0.3273	0.579
Mof_C 	C 	0.1224	0.978	0.2122	0.526
Mof_C 	C 	0.9463	0.1739	0.6727	0.579
Mof_C 	C 	0.4421	0.1432	0.6496	0.434
Mof_C 	C 	0.3183	0.0339	0.3329	-0.393
Mof_C 	C 	0.8149	0.5339	0.8329	-0.393
Mof_C 	C 	0.2929	0.3261	0.8273	0.571
Mof_C 	C 	0.8353	0.7414	0.922	0.359
Mof_C 	C 	0.619	0.3273	0.6739	0.572
Mof_C 	C 	0.756	0.91	0.0536	-0.318
Mof_C 	C 	0.2258	0.5135	0.9451	0.416
Mof_C 	C 	0.8922	0.5241	0.8833	0.553
Mof_C 	C 	0.6354	0.6787	0.1205	-0.407
Mof_C 	C 	0.9562	0.9415	0.7761	-0.322
Mof_C 	C 	0.4927	0.9383	0.3577	-0.323
Mof_C 	C 	0.7559	0.8795	0.1787	-0.407
Mof_C 	C 	0.3646	0.3213	0.8795	-0.407
Mof_C 	C 	0.1874	0.478	0.7122	0.53
Mof_C 	C 	0.6842	0.3705	0.2891	-0.248
Mof_C 	C 	0.9453	0.2109	0.3705	-0.251
Mof_C 	C 	0.2245	0.8833	0.9759	0.548
Mof_C 	C 	0.1851	0.4661	0.1671	-0.393
Mof_C 	C 	0.9733	0.7109	0.8705	-0.224
Mof_N 	N 	0.1417	0.8267	0.5841	-0.161
Mof_N 	N 	0.7602	0.9374	0.1216	-0.149
Mof_N 	N 	0.8583	0.1733	0.4159	-0.161
Mof_N 	N 	0.4148	0.9628	0.3092	-0.159
Mof_N 	N 	0.1182	0.1216	0.5626	-0.151
Mof_N 	N 	0.9475	0.3267	0.0841	-0.165
Mof_N 	N 	0.6808	0.4374	0.6216	-0.151
Mof_N 	N 	0.2398	0.0626	0.8784	-0.149
Mof_N 	N 	0.0525	0.6733	0.9159	-0.165
Mof_N 	N 	0.276	0.3092	0.5372	-0.158
Mof_N 	N 	0.1868	0.5372	0.1908	-0.157
Mof_N 	N 	0.8132	0.4628	0.8092	-0.157
Mof_N 	N 	0.3192	0.5626	0.3784	-0.151
Mof_N 	N 	0.6224	0.1908	0.9628	-0.16
Mof_N 	N 	0.9684	0.0841	0.1733	-0.165
Mof_N 	N 	0.0316	0.9159	0.8267	-0.165
Mof_N 	N 	0.724	0.6908	0.4628	-0.158
Mof_N 	N 	0.2742	0.5841	0.6733	-0.161
Mof_N 	N 	0.8818	0.8784	0.4374	-0.151
Mof_N 	N 	0.5852	0.0372	0.6908	-0.159
Mof_N 	N 	0.3024	0.3784	0.9374	-0.15
Mof_N 	N 	0.6976	0.6216	0.0626	-0.15
Mof_N 	N 	0.7258	0.4159	0.3267	-0.161
Mof_N 	N 	0.3776	0.8092	0.0372	-0.16
Mof_O 	O 	0.2891	0.4361	0.6765	-0.577
Mof_O 	O 	0.0414	0.5418	0.109	-0.582
Mof_O 	O 	0.9724	0.8521	0.1445	-0.634
Mof_O 	O 	0.7247	0.0685	0.4591	-0.329
Mof_O 	O 	0.1667	0.3199	0.6801	-0.613
Mof_O 	O 	0.1097	0.2353	0.8019	-0.544
Mof_O 	O 	0.7932	0.9591	0.9315	-0.326
Mof_O 	O 	0.9104	0.5392	0.2602	-0.514
Mof_O 	O 	0.5832	0.609	0.4582	-0.594
Mof_O 	O 	0.3531	0.7353	0.3019	-0.543
Mof_O 	O 	0.2477	0.5685	0.9591	-0.33
Mof_O 	O 	0.9181	0.0102	0.4558	-0.574
Mof_O 	O 	0.4168	0.391	0.5418	-0.594
Mof_O 	O 	0.0344	0.6765	0.0639	-0.569
Mof_O 	O 	0.5504	0.2398	0.5392	-0.514
Mof_O 	O 	0.1922	0.9582	0.391	-0.593
Mof_O 	O 	0.469	0.6479	0.3555	-0.631
Mof_O 	O 	0.1169	0.8555	0.3521	-0.632
Mof_O 	O 	0.6667	0.1801	0.8199	-0.616
Mof_O 	O 	0.9671	0.2246	0.489	-0.439
Mof_O 	O 	0.5134	0.8199	0.3199	-0.616
Mof_O 	O 	0.8831	0.1445	0.6479	-0.632
Mof_O 	O 	0.0884	0.8019	0.2647	-0.543
Mof_O 	O 	0.6469	0.2647	0.6981	-0.543
Mof_O 	O 	0.3475	0.6723	0.1241	-0.434
Mof_O 	O 	0.1213	0.0774	0.415	-0.525
Mof_O 	O 	0.0896	0.4608	0.7398	-0.514
Mof_O 	O 	0.1917	0.989	0.7754	-0.43
Mof_O 	O 	0.1137	0.4226	0.085	-0.515
Mof_O 	O 	0.1532	0.6801	0.1801	-0.612
Mof_O 	O 	0.9202	0.7265	0.6111	-0.27
Mof_O 	O 	0.9017	0.0639	0.8235	-0.57
Mof_O 	O 	0.8193	0.7246	0.989	-0.429
Mof_O 	O 	0.0819	0.9898	0.5442	-0.574
Mof_O 	O 	0.3333	0.8199	0.1801	-0.616
Mof_O 	O 	0.8468	0.3199	0.8199	-0.612
Mof_O 	O 	0.0798	0.2735	0.3889	-0.27
Mof_O 	O 	0.4866	0.1801	0.6801	-0.616
Mof_O 	O 	0.655	0.6981	0.2353	-0.543
Mof_O 	O 	0.5284	0.1241	0.8277	-0.434
Mof_O 	O 	0.6525	0.3277	0.8759	-0.434
Mof_O 	O 	0.8078	0.0418	0.609	-0.593
Mof_O 	O 	0.9656	0.3235	0.9361	-0.569
Mof_O 	O 	0.8863	0.5774	0.915	-0.515
Mof_O 	O 	0.2098	0.9608	0.2398	-0.513
Mof_O 	O 	0.0198	0.6241	0.3277	-0.427
Mof_O 	O 	0.9586	0.4582	0.891	-0.582
Mof_O 	O 	0.531	0.3521	0.6445	-0.631
Mof_O 	O 	0.2422	0.2265	0.1111	-0.266
Mof_O 	O 	0.8294	0.2602	0.9608	-0.514
Mof_O 	O 	0.7578	0.7735	0.8889	-0.266
Mof_O 	O 	0.8787	0.9226	0.585	-0.525
Mof_O 	O 	0.2068	0.0409	0.0685	-0.326
Mof_O 	O 	0.7252	0.1765	0.5639	-0.578
Mof_O 	O 	0.7523	0.4315	0.0409	-0.33
Mof_O 	O 	0.8903	0.7647	0.1981	-0.544
Mof_O 	O 	0.0329	0.7754	0.511	-0.439
Mof_O 	O 	0.9283	0.9558	0.9898	-0.56
Mof_O 	O 	0.4637	0.415	0.4226	-0.524
Mof_O 	O 	0.1504	0.891	0.0418	-0.586
Mof_O 	O 	0.0983	0.9361	0.1765	-0.57
Mof_O 	O 	0.8245	0.6445	0.1479	-0.629
Mof_O 	O 	0.8083	0.011	0.2246	-0.43
Mof_O 	O 	0.1838	0.5409	0.5685	-0.328
Mof_O 	O 	0.2748	0.8235	0.4361	-0.578
Mof_O 	O 	0.8333	0.6801	0.3199	-0.613
Mof_O 	O 	0.8162	0.4591	0.4315	-0.328
Mof_O 	O 	0.7902	0.0392	0.7602	-0.513
Mof_O 	O 	0.1159	0.5102	0.9558	-0.572
Mof_O 	O 	0.8013	0.085	0.0774	-0.516
Mof_O 	O 	0.3533	0.8889	0.7265	-0.269
Mof_O 	O 	0.7109	0.5639	0.3235	-0.577
Mof_O 	O 	0.3739	0.5442	0.5102	-0.574
Mof_O 	O 	0.9116	0.1981	0.7353	-0.543
Mof_O 	O 	0.5313	0.3889	0.2265	-0.27
Mof_O 	O 	0.1987	0.915	0.9226	-0.516
Mof_O 	O 	0.6261	0.4558	0.4898	-0.574
Mof_O 	O 	0.6467	0.1111	0.2735	-0.269
Mof_O 	O 	0.4561	0.511	0.7246	-0.439
Mof_O 	O 	0.1706	0.7398	0.0392	-0.514
Mof_O 	O 	0.9802	0.3759	0.6723	-0.427
Mof_O 	O 	0.4716	0.8759	0.1723	-0.434
Mof_O 	O 	0.2753	0.9315	0.5409	-0.329
Mof_O 	O 	0.8841	0.4898	0.0442	-0.572
Mof_O 	O 	0.3561	0.1723	0.6241	-0.434
Mof_O 	O 	0.5439	0.489	0.2754	-0.439
Mof_O 	O 	0.8496	0.109	0.9582	-0.586
Mof_O 	O 	0.6439	0.8277	0.3759	-0.434
Mof_O 	O 	0.1807	0.2754	0.011	-0.429
Mof_O 	O 	0.1755	0.3555	0.8521	-0.629
Mof_O 	O 	0.4687	0.6111	0.7735	-0.27
Mof_O 	O 	0.0717	0.0442	0.0102	-0.56
Mof_O 	O 	0.0276	0.1479	0.8555	-0.634
Mof_O 	O 	0.345	0.3019	0.7647	-0.543
Mof_O 	O 	0.4496	0.7602	0.4608	-0.514
Mof_O 	O 	0.5363	0.585	0.5774	-0.524
_end
