# CIF file generated by openbabel 3.1.0, see https://openbabel.org
data_I
_chemical_name_common 'image0'
_cell_length_a 9.1721
_cell_length_b 25.4
_cell_length_c 7.7385
_cell_angle_alpha 90
_cell_angle_beta 97.339
_cell_angle_gamma 90
_space_group_name_H-M_alt 'P 1'
_space_group_name_Hall 'P 1'
loop_
    _symmetry_equiv_pos_as_xyz
    x,y,z
loop_
    _atom_site_label
    _atom_site_type_symbol
    _atom_site_fract_x
    _atom_site_fract_y
    _atom_site_fract_z
    _atom_site_occupancy
    Er1      Er       0.51120    0.65115    0.58771    1.000
    O1       O        0.48600    0.70740    0.34100    1.000
    O2       O        0.58470    0.76690    0.18150    1.000
    O3       O        0.26610    0.65650    0.49430    1.000
    O4       O        0.14290    0.58830    0.59030    1.000
    O5       O        0.19250    0.48310    0.43580    1.000
    O6       O        0.34550    0.50870    0.24850    1.000
    O7       O        0.70150    0.62430    0.79760    1.000
    O8       O        0.61220    0.61820    0.05110    1.000
    N1       N        0.74740    0.66730    0.46020    1.000
    N2       N        0.96940    0.53370    0.26900    1.000
    C1       C        0.59310    0.72860    0.28520    1.000
    C2       C        0.74380    0.70620    0.34290    1.000
    C3       C        0.86740    0.72330    0.27560    1.000
    C4       C        0.00100    0.70020    0.32910    1.000
    C5       C        0.00620    0.65930    0.45090    1.000
    C6       C        0.87690    0.64400    0.51130    1.000
    C7       C        0.14840    0.63210    0.51750    1.000
    C8       C        0.22450    0.50800    0.30140    1.000
    C9       C        0.09700    0.53740    0.19980    1.000
    C10      C        0.10750    0.56600    0.04800    1.000
    C11      C        0.98040    0.59020    0.96710    1.000
    C12      C        0.84930    0.58620    0.03910    1.000
    C13      C        0.84900    0.55760    0.19170    1.000
    C14      C        0.71070    0.61160    0.95680    1.000
    Er2      Er       0.48880    0.15115    0.91229    1.000
    O9       O        0.51400    0.20740    0.15900    1.000
    O10      O        0.41530    0.26690    0.31850    1.000
    O11      O        0.73390    0.15650    0.00570    1.000
    O12      O        0.85710    0.08830    0.90970    1.000
    O13      O        0.80750    0.98310    0.06420    1.000
    O14      O        0.65450    0.00870    0.25150    1.000
    O15      O        0.29850    0.12430    0.70240    1.000
    O16      O        0.38780    0.11820    0.44890    1.000
    N3       N        0.25260    0.16730    0.03980    1.000
    N4       N        0.03060    0.03370    0.23100    1.000
    C15      C        0.40690    0.22860    0.21480    1.000
    C16      C        0.25620    0.20620    0.15710    1.000
    C17      C        0.13260    0.22330    0.22440    1.000
    C18      C        0.99900    0.20020    0.17090    1.000
    C19      C        0.99380    0.15930    0.04910    1.000
    C20      C        0.12310    0.14400    0.98870    1.000
    C21      C        0.85160    0.13210    0.98250    1.000
    C22      C        0.77550    0.00800    0.19860    1.000
    C23      C        0.90300    0.03740    0.30020    1.000
    C24      C        0.89250    0.06600    0.45200    1.000
    C25      C        0.01960    0.09020    0.53290    1.000
    C26      C        0.15070    0.08620    0.46090    1.000
    C27      C        0.15100    0.05760    0.30830    1.000
    C28      C        0.28930    0.11160    0.54320    1.000
    Er3      Er       0.48880    0.34885    0.41229    1.000
    O17      O        0.51400    0.29260    0.65900    1.000
    O18      O        0.41530    0.23310    0.81850    1.000
    O19      O        0.73390    0.34350    0.50570    1.000
    O20      O        0.85710    0.41170    0.40970    1.000
    O21      O        0.80750    0.51690    0.56420    1.000
    O22      O        0.65450    0.49130    0.75150    1.000
    O23      O        0.29850    0.37570    0.20240    1.000
    O24      O        0.38780    0.38180    0.94890    1.000
    N5       N        0.25260    0.33270    0.53980    1.000
    N6       N        0.03060    0.46630    0.73100    1.000
    C29      C        0.40690    0.27140    0.71480    1.000
    C30      C        0.25620    0.29380    0.65710    1.000
    C31      C        0.13260    0.27670    0.72440    1.000
    C32      C        0.99900    0.29980    0.67090    1.000
    C33      C        0.99380    0.34070    0.54910    1.000
    C34      C        0.12310    0.35600    0.48870    1.000
    C35      C        0.85160    0.36790    0.48250    1.000
    C36      C        0.77550    0.49200    0.69860    1.000
    C37      C        0.90300    0.46260    0.80020    1.000
    C38      C        0.89250    0.43400    0.95200    1.000
    C39      C        0.01960    0.40980    0.03290    1.000
    C40      C        0.15070    0.41380    0.96090    1.000
    C41      C        0.15100    0.44240    0.80830    1.000
    C42      C        0.28930    0.38840    0.04320    1.000
    Er4      Er       0.51120    0.84885    0.08771    1.000
    O25      O        0.48600    0.79260    0.84100    1.000
    O26      O        0.58470    0.73310    0.68150    1.000
    O27      O        0.26610    0.84350    0.99430    1.000
    O28      O        0.14290    0.91170    0.09030    1.000
    O29      O        0.19250    0.01690    0.93580    1.000
    O30      O        0.34550    0.99130    0.74850    1.000
    O31      O        0.70150    0.87570    0.29760    1.000
    O32      O        0.61220    0.88180    0.55110    1.000
    N7       N        0.74740    0.83270    0.96020    1.000
    N8       N        0.96940    0.96630    0.76900    1.000
    C43      C        0.59310    0.77140    0.78520    1.000
    C44      C        0.74380    0.79380    0.84290    1.000
    C45      C        0.86740    0.77670    0.77560    1.000
    C46      C        0.00100    0.79980    0.82910    1.000
    C47      C        0.00620    0.84070    0.95090    1.000
    C48      C        0.87690    0.85600    0.01130    1.000
    C49      C        0.14840    0.86790    0.01750    1.000
    C50      C        0.22450    0.99200    0.80140    1.000
    C51      C        0.09700    0.96260    0.69980    1.000
    C52      C        0.10750    0.93400    0.54800    1.000
    C53      C        0.98040    0.90980    0.46710    1.000
    C54      C        0.84930    0.91380    0.53910    1.000
    C55      C        0.84900    0.94240    0.69170    1.000
    C56      C        0.71070    0.88840    0.45680    1.000
    Cu1      Cu       0.00000    0.50000    0.50000    1.000
    Cu2      Cu       0.00000    0.00000    0.00000    1.000
