# CIF file generated by openbabel 3.1.0, see https://openbabel.org
data_I
_chemical_name_common 'EDOMAM_clean'
_cell_length_a 13.941
_cell_length_b 15.075
_cell_length_c 15.075
_cell_angle_alpha 82.15
_cell_angle_beta 87.23
_cell_angle_gamma 87.23
_space_group_name_H-M_alt 'P 1'
_space_group_name_Hall 'P 1'
loop_
    _symmetry_equiv_pos_as_xyz
    x,y,z
loop_
    _atom_site_label
    _atom_site_type_symbol
    _atom_site_fract_x
    _atom_site_fract_y
    _atom_site_fract_z
    _atom_site_occupancy
    Cu1      Cu       0.79398    0.15934    0.38270    1.000
    Cu2      Cu       0.60497    0.16514    0.38993    1.000
    H1       H        0.83950    0.11930    0.66680    1.000
    H2       H        0.83650    0.10870    0.82630    1.000
    H3       H        0.56310    0.20810    0.81350    1.000
    H4       H        0.56450    0.19000    0.67360    1.000
    H5       H        0.84500    0.10660    0.95230    1.000
    H6       H        0.84450    0.11210    0.10900    1.000
    H7       H        0.57370    0.24340    0.10110    1.000
    H8       H        0.57330    0.22880    0.94980    1.000
    H9       H        0.55030    0.88530    0.43340    1.000
    H10      H        0.55290    0.73120    0.43490    1.000
    H11      H        0.83620    0.72400    0.34100    1.000
    H12      H        0.84020    0.87830    0.34330    1.000
    H13      H        0.57520    0.58760    0.46780    1.000
    H14      H        0.56890    0.43940    0.45080    1.000
    H15      H        0.82530    0.44600    0.31370    1.000
    H16      H        0.82800    0.60110    0.32250    1.000
    H17      H        0.42940    0.29610    0.34550    1.000
    H18      H        0.26800    0.30050    0.33700    1.000
    H19      H        0.27750    0.03000    0.40880    1.000
    H20      H        0.44080    0.03720    0.40820    1.000
    H21      H        0.12340    0.28090    0.28840    1.000
    H22      H        0.95850    0.27580    0.29780    1.000
    H23      H        0.96490    0.05570    0.46680    1.000
    H24      H        0.13270    0.04930    0.46230    1.000
    C1       C        0.70160    0.15400    0.55470    1.000
    C2       C        0.70260    0.15580    0.65350    1.000
    C3       C        0.78170    0.13410    0.69860    1.000
    C4       C        0.78220    0.13300    0.79380    1.000
    C5       C        0.70480    0.16530    0.83570    1.000
    C6       C        0.62100    0.18700    0.78500    1.000
    C7       C        0.62300    0.17900    0.70400    1.000
    C8       C        0.70650    0.16890    0.93500    1.000
    C9       C        0.79200    0.13200    0.98300    1.000
    C10      C        0.79100    0.13600    0.07500    1.000
    C11      C        0.70900    0.17570    0.11940    1.000
    C12      C        0.62600    0.21500    0.07200    1.000
    C13      C        0.62800    0.20700    0.98200    1.000
    C14      C        0.70520    0.17480    0.21730    1.000
    C15      C        0.70020    0.99470    0.39150    1.000
    C16      C        0.69930    0.89550    0.39370    1.000
    C17      C        0.60700    0.85200    0.41800    1.000
    C18      C        0.61000    0.76250    0.41800    1.000
    C19      C        0.69620    0.71110    0.39140    1.000
    C20      C        0.78100    0.75600    0.36200    1.000
    C21      C        0.78400    0.84700    0.36300    1.000
    C22      C        0.69380    0.61220    0.39140    1.000
    C23      C        0.62400    0.56100    0.43300    1.000
    C24      C        0.62300    0.47110    0.42600    1.000
    C25      C        0.69010    0.42710    0.38710    1.000
    C26      C        0.77400    0.47610    0.34330    1.000
    C27      C        0.77500    0.56760    0.34770    1.000
    C28      C        0.69110    0.33030    0.38330    1.000
    C29      C        0.39770    0.24120    0.35910    1.000
    C30      C        0.30190    0.24510    0.35440    1.000
    C31      C        0.25240    0.16500    0.37600    1.000
    C32      C        0.30680    0.08620    0.39590    1.000
    C33      C        0.40500    0.09210    0.39600    1.000
    C34      C        0.14720    0.16410    0.37590    1.000
    C35      C        0.09290    0.23310    0.32500    1.000
    C36      C        0.99520    0.22870    0.33050    1.000
    C37      C        0.99790    0.10060    0.42830    1.000
    C38      C        0.09870    0.09700    0.42770    1.000
    N1       N        0.45390    0.16540    0.38150    1.000
    N2       N        0.94690    0.16130    0.37960    1.000
    O1       O        0.78030    0.14930    0.51190    1.000
    O2       O        0.62160    0.15450    0.51990    1.000
    O3       O        0.78680    0.16910    0.25270    1.000
    O4       O        0.62790    0.17960    0.25930    1.000
    O5       O        0.62420    0.03640    0.39620    1.000
    O6       O        0.78210    0.02920    0.38880    1.000
    O7       O        0.61220    0.29400    0.38540    1.000
    O8       O        0.77070    0.29030    0.37730    1.000
    Cu3      Cu       0.20602    0.84066    0.61730    1.000
    Cu4      Cu       0.39503    0.83486    0.61007    1.000
    H25      H        0.16050    0.88070    0.33320    1.000
    H26      H        0.16350    0.89130    0.17370    1.000
    H27      H        0.43690    0.79190    0.18650    1.000
    H28      H        0.43550    0.81000    0.32640    1.000
    H29      H        0.15500    0.89340    0.04770    1.000
    H30      H        0.15550    0.88790    0.89100    1.000
    H31      H        0.42630    0.75660    0.89890    1.000
    H32      H        0.42670    0.77120    0.05020    1.000
    H33      H        0.44970    0.11470    0.56660    1.000
    H34      H        0.44710    0.26880    0.56510    1.000
    H35      H        0.16380    0.27600    0.65900    1.000
    H36      H        0.15980    0.12170    0.65670    1.000
    H37      H        0.42480    0.41240    0.53220    1.000
    H38      H        0.43110    0.56060    0.54920    1.000
    H39      H        0.17470    0.55400    0.68630    1.000
    H40      H        0.17200    0.39890    0.67750    1.000
    H41      H        0.57060    0.70390    0.65450    1.000
    H42      H        0.73200    0.69950    0.66300    1.000
    H43      H        0.72250    0.97000    0.59120    1.000
    H44      H        0.55920    0.96280    0.59180    1.000
    H45      H        0.87660    0.71910    0.71160    1.000
    H46      H        0.04150    0.72420    0.70220    1.000
    H47      H        0.03510    0.94430    0.53320    1.000
    H48      H        0.86730    0.95070    0.53770    1.000
    C39      C        0.29840    0.84600    0.44530    1.000
    C40      C        0.29740    0.84420    0.34650    1.000
    C41      C        0.21830    0.86590    0.30140    1.000
    C42      C        0.21780    0.86700    0.20620    1.000
    C43      C        0.29520    0.83470    0.16430    1.000
    C44      C        0.37900    0.81300    0.21500    1.000
    C45      C        0.37700    0.82100    0.29600    1.000
    C46      C        0.29350    0.83110    0.06500    1.000
    C47      C        0.20800    0.86800    0.01700    1.000
    C48      C        0.20900    0.86400    0.92500    1.000
    C49      C        0.29100    0.82430    0.88060    1.000
    C50      C        0.37400    0.78500    0.92800    1.000
    C51      C        0.37200    0.79300    0.01800    1.000
    C52      C        0.29480    0.82520    0.78270    1.000
    C53      C        0.29980    0.00530    0.60850    1.000
    C54      C        0.30070    0.10450    0.60630    1.000
    C55      C        0.39300    0.14800    0.58200    1.000
    C56      C        0.39000    0.23750    0.58200    1.000
    C57      C        0.30380    0.28890    0.60860    1.000
    C58      C        0.21900    0.24400    0.63800    1.000
    C59      C        0.21600    0.15300    0.63700    1.000
    C60      C        0.30620    0.38780    0.60860    1.000
    C61      C        0.37600    0.43900    0.56700    1.000
    C62      C        0.37700    0.52890    0.57400    1.000
    C63      C        0.30990    0.57290    0.61290    1.000
    C64      C        0.22600    0.52390    0.65670    1.000
    C65      C        0.22500    0.43240    0.65230    1.000
    C66      C        0.30890    0.66970    0.61670    1.000
    C67      C        0.60230    0.75880    0.64090    1.000
    C68      C        0.69810    0.75490    0.64560    1.000
    C69      C        0.74760    0.83500    0.62400    1.000
    C70      C        0.69320    0.91380    0.60410    1.000
    C71      C        0.59500    0.90790    0.60400    1.000
    C72      C        0.85280    0.83590    0.62410    1.000
    C73      C        0.90710    0.76690    0.67500    1.000
    C74      C        0.00480    0.77130    0.66950    1.000
    C75      C        0.00210    0.89940    0.57170    1.000
    C76      C        0.90130    0.90300    0.57230    1.000
    N3       N        0.54610    0.83460    0.61850    1.000
    N4       N        0.05310    0.83870    0.62040    1.000
    O9       O        0.21970    0.85070    0.48810    1.000
    O10      O        0.37840    0.84550    0.48010    1.000
    O11      O        0.21320    0.83090    0.74730    1.000
    O12      O        0.37210    0.82040    0.74070    1.000
    O13      O        0.37580    0.96360    0.60380    1.000
    O14      O        0.21790    0.97080    0.61120    1.000
    O15      O        0.38780    0.70600    0.61460    1.000
    O16      O        0.22930    0.70970    0.62270    1.000
