data_functionalizedCrystal
_audit_creation_method	'EQeq! by Chris Wilmer'
_symmetry_space_group_name_H-M	'P1'
_symmetry_Int_Tables_number	1
_symmetry_cell_setting	triclinic
loop_
_symmetry_equiv_pos_as_xyz
  x,y,z
_cell_length_a	12.741
_cell_length_b	12.068
_cell_length_c	11.988
_cell_angle_alpha	90
_cell_angle_beta	94.902
_cell_angle_gamma	90
loop_
_atom_site_label
_atom_site_type_symbol
_atom_site_fract_x
_atom_site_fract_y
_atom_site_fract_z
_atom_site_charge
Mof_Ga	Ga	0.24672	0.95967	0.20602	4.475
Mof_P 	P 	0.20215	0.22384	0.17758	0.842
Mof_P 	P 	0.17271	0.02016	0.44609	0.833
Mof_F 	F 	0.0925	0.9728	0.2026	-1.362
Mof_F 	F 	0.3934	0.9538	0.2056	-0.918
Mof_O 	O 	0.264	0.1174	0.1687	-0.946
Mof_O 	O 	0.2244	0.0806	0.5476	-0.929
Mof_O 	O 	0.2543	0.9943	0.3647	-0.976
Mof_O 	O 	0.0795	0.0868	0.3949	-0.885
Mof_O 	O 	0.0876	0.2044	0.193	-0.884
Mof_O 	O 	0.2581	0.3012	0.2636	-0.951
Mof_H 	H 	0.138	0.923	0.48	-0.194
Mof_H 	H 	0.201	0.276	0.079	-0.125
Mof_Ga	Ga	0.74672	0.45967	0.20602	4.544
Mof_P 	P 	0.70215	0.72384	0.17758	0.902
Mof_P 	P 	0.67271	0.52016	0.44609	0.896
Mof_F 	F 	0.5925	0.4728	0.2026	-1.484
Mof_F 	F 	0.8934	0.4538	0.2056	-0.818
Mof_O 	O 	0.764	0.6174	0.1687	-0.938
Mof_O 	O 	0.7244	0.5806	0.5476	-0.903
Mof_O 	O 	0.7543	0.4943	0.3647	-0.974
Mof_O 	O 	0.5795	0.5868	0.3949	-1.029
Mof_O 	O 	0.5876	0.7044	0.193	-1.026
Mof_O 	O 	0.7581	0.8012	0.2636	-0.927
Mof_H 	H 	0.638	0.423	0.48	-0.167
Mof_H 	H 	0.701	0.776	0.079	-0.096
Mof_Ga	Ga	0.75328	0.95967	0.29398	4.536
Mof_P 	P 	0.79785	0.22384	0.32242	0.826
Mof_P 	P 	0.82729	0.02016	0.05391	0.824
Mof_F 	F 	0.9075	0.9728	0.2974	-1.151
Mof_F 	F 	0.6066	0.9538	0.2944	-0.928
Mof_O 	O 	0.736	0.1174	0.3313	-0.943
Mof_O 	O 	0.7756	0.0806	0.9524	-0.891
Mof_O 	O 	0.7457	0.9943	0.1353	-0.973
Mof_O 	O 	0.9205	0.0868	0.1051	-0.587
Mof_O 	O 	0.9124	0.2044	0.307	-0.593
Mof_O 	O 	0.7419	0.3012	0.2364	-0.934
Mof_H 	H 	0.862	0.923	0.02	-0.082
Mof_H 	H 	0.799	0.276	0.421	-0.063
Mof_Ga	Ga	0.25328	0.45967	0.29398	4.473
Mof_P 	P 	0.29785	0.72384	0.32242	0.893
Mof_P 	P 	0.32729	0.52016	0.05391	0.889
Mof_F 	F 	0.4075	0.4728	0.2974	-1.474
Mof_F 	F 	0.1066	0.4538	0.2944	-1.027
Mof_O 	O 	0.236	0.6174	0.3313	-1.001
Mof_O 	O 	0.2756	0.5806	0.9524	-0.939
Mof_O 	O 	0.2457	0.4943	0.1353	-1.031
Mof_O 	O 	0.4205	0.5868	0.1051	-1.031
Mof_O 	O 	0.4124	0.7044	0.307	-1.022
Mof_O 	O 	0.2419	0.8012	0.2364	-0.984
Mof_H 	H 	0.362	0.423	0.02	-0.169
Mof_H 	H 	0.299	0.776	0.421	-0.109
Mof_Ga	Ga	0.75328	0.04033	0.79398	4.537
Mof_P 	P 	0.79785	0.77616	0.82242	0.826
Mof_P 	P 	0.82729	0.97984	0.55391	0.833
Mof_F 	F 	0.9075	0.0272	0.7974	-1.151
Mof_F 	F 	0.6066	0.0462	0.7944	-0.928
Mof_O 	O 	0.736	0.8826	0.8313	-0.944
Mof_O 	O 	0.7756	0.9194	0.4524	-0.893
Mof_O 	O 	0.7457	0.0057	0.6353	-0.975
Mof_O 	O 	0.9205	0.9132	0.6051	-0.584
Mof_O 	O 	0.9124	0.7956	0.807	-0.593
Mof_O 	O 	0.7419	0.6988	0.7364	-0.933
Mof_H 	H 	0.862	0.077	0.52	-0.083
Mof_H 	H 	0.799	0.724	0.921	-0.065
Mof_Ga	Ga	0.25328	0.54033	0.79398	4.474
Mof_P 	P 	0.29785	0.27616	0.82242	0.893
Mof_P 	P 	0.32729	0.47984	0.55391	0.89
Mof_F 	F 	0.4075	0.5272	0.7974	-1.474
Mof_F 	F 	0.1066	0.5462	0.7944	-1.027
Mof_O 	O 	0.236	0.3826	0.8313	-1
Mof_O 	O 	0.2756	0.4194	0.4524	-0.939
Mof_O 	O 	0.2457	0.5057	0.6353	-1.031
Mof_O 	O 	0.4205	0.4132	0.6051	-1.031
Mof_O 	O 	0.4124	0.2956	0.807	-1.022
Mof_O 	O 	0.2419	0.1988	0.7364	-0.984
Mof_H 	H 	0.362	0.577	0.52	-0.168
Mof_H 	H 	0.299	0.224	0.921	-0.108
Mof_Ga	Ga	0.24672	0.04033	0.70602	4.472
Mof_P 	P 	0.20215	0.77616	0.67758	0.841
Mof_P 	P 	0.17271	0.97984	0.94609	0.826
Mof_F 	F 	0.0925	0.0272	0.7026	-1.363
Mof_F 	F 	0.3934	0.0462	0.7056	-0.917
Mof_O 	O 	0.264	0.8826	0.6687	-0.944
Mof_O 	O 	0.2244	0.9194	0.0476	-0.927
Mof_O 	O 	0.2543	0.0057	0.8647	-0.973
Mof_O 	O 	0.0795	0.9132	0.8949	-0.883
Mof_O 	O 	0.0876	0.7956	0.693	-0.884
Mof_O 	O 	0.2581	0.6988	0.7636	-0.951
Mof_H 	H 	0.138	0.077	0.98	-0.191
Mof_H 	H 	0.201	0.724	0.579	-0.124
Mof_Ga	Ga	0.74672	0.54033	0.70602	4.544
Mof_P 	P 	0.70215	0.27616	0.67758	0.902
Mof_P 	P 	0.67271	0.47984	0.94609	0.897
Mof_F 	F 	0.5925	0.5272	0.7026	-1.484
Mof_F 	F 	0.8934	0.5462	0.7056	-0.817
Mof_O 	O 	0.764	0.3826	0.6687	-0.937
Mof_O 	O 	0.7244	0.4194	0.0476	-0.907
Mof_O 	O 	0.7543	0.5057	0.8647	-0.975
Mof_O 	O 	0.5795	0.4132	0.8949	-1.029
Mof_O 	O 	0.5876	0.2956	0.693	-1.025
Mof_O 	O 	0.7581	0.1988	0.7636	-0.927
Mof_H 	H 	0.638	0.577	0.98	-0.168
Mof_H 	H 	0.701	0.224	0.579	-0.096
Mof_Ga	Ga	9.57316e-34	0.08896	0.25	2.955
Mof_Ga	Ga	0.5	0.58896	0.25	4.572
Mof_Ga	Ga	7.73795e-18	0.91104	0.75	2.952
Mof_Ga	Ga	0.5	0.41104	0.75	4.572
_end
