# CIF file generated by openbabel 3.1.0, see https://openbabel.org
data_I
_chemical_name_common 'image0'
_cell_length_a 6.6291
_cell_length_b 18.2549
_cell_length_c 8.3983
_cell_angle_alpha 90
_cell_angle_beta 90
_cell_angle_gamma 90
_space_group_name_H-M_alt 'P 1'
_space_group_name_Hall 'P 1'
loop_
    _symmetry_equiv_pos_as_xyz
    x,y,z
loop_
    _atom_site_label
    _atom_site_type_symbol
    _atom_site_fract_x
    _atom_site_fract_y
    _atom_site_fract_z
    _atom_site_occupancy
    O1       O        0.16540    0.09500    0.72990    1.000
    O2       O        0.51160    0.05023    0.57050    1.000
    O3       O        0.32650    0.18371    0.98070    1.000
    O4       O        0.17910    0.25869    0.15230    1.000
    C1       C        0.26290    0.24410    0.02380    1.000
    H1       H        0.27940    0.28270    0.95270    1.000
    O5       O        0.66540    0.59500    0.72990    1.000
    O6       O        0.01160    0.55023    0.57050    1.000
    O7       O        0.82650    0.68371    0.98070    1.000
    O8       O        0.67910    0.75869    0.15230    1.000
    C2       C        0.76290    0.74410    0.02380    1.000
    H2       H        0.77940    0.78270    0.95270    1.000
    O9       O        0.83460    0.90500    0.22990    1.000
    O10      O        0.48840    0.94977    0.07050    1.000
    O11      O        0.67350    0.81629    0.48070    1.000
    O12      O        0.82090    0.74131    0.65230    1.000
    C3       C        0.73710    0.75590    0.52380    1.000
    H3       H        0.72060    0.71730    0.45270    1.000
    O13      O        0.33460    0.40500    0.22990    1.000
    O14      O        0.98840    0.44977    0.07050    1.000
    O15      O        0.17350    0.31629    0.48070    1.000
    O16      O        0.32090    0.24131    0.65230    1.000
    C4       C        0.23710    0.25590    0.52380    1.000
    H4       H        0.22060    0.21730    0.45270    1.000
    O17      O        0.83460    0.09500    0.77010    1.000
    O18      O        0.48840    0.05023    0.92950    1.000
    O19      O        0.67350    0.18371    0.51930    1.000
    O20      O        0.82090    0.25869    0.34770    1.000
    C5       C        0.73710    0.24410    0.47620    1.000
    H5       H        0.72060    0.28270    0.54730    1.000
    O21      O        0.33460    0.59500    0.77010    1.000
    O22      O        0.98840    0.55023    0.92950    1.000
    O23      O        0.17350    0.68371    0.51930    1.000
    O24      O        0.32090    0.75869    0.34770    1.000
    C6       C        0.23710    0.74410    0.47620    1.000
    H6       H        0.22060    0.78270    0.54730    1.000
    O25      O        0.16540    0.90500    0.27010    1.000
    O26      O        0.51160    0.94977    0.42950    1.000
    O27      O        0.32650    0.81629    0.01930    1.000
    O28      O        0.17910    0.74131    0.84770    1.000
    C7       C        0.26290    0.75590    0.97620    1.000
    H7       H        0.27940    0.71730    0.04730    1.000
    O29      O        0.66540    0.40500    0.27010    1.000
    O30      O        0.01160    0.44977    0.42950    1.000
    O31      O        0.82650    0.31629    0.01930    1.000
    O32      O        0.67910    0.24131    0.84770    1.000
    C8       C        0.76290    0.25590    0.97620    1.000
    H8       H        0.77940    0.21730    0.04730    1.000
    Yb1      Yb       0.50000    0.14278    0.75000    1.000
    Yb2      Yb       0.00000    0.64278    0.75000    1.000
    Yb3      Yb       0.50000    0.85722    0.25000    1.000
    Yb4      Yb       0.00000    0.35722    0.25000    1.000
    C9       C        0.00000    0.12640    0.75000    1.000
    H9       H        0.00000    0.17730    0.75000    1.000
    C10      C        0.50000    0.62640    0.75000    1.000
    H10      H        0.50000    0.67730    0.75000    1.000
    C11      C        0.00000    0.87360    0.25000    1.000
    H11      H        0.00000    0.82270    0.25000    1.000
    C12      C        0.50000    0.37360    0.25000    1.000
    H12      H        0.50000    0.32270    0.25000    1.000
    C13      C        0.42420    0.00000    0.50000    1.000
    H13      H        0.28390    0.00000    0.50000    1.000
    C14      C        0.92420    0.50000    0.50000    1.000
    H14      H        0.78390    0.50000    0.50000    1.000
    C15      C        0.57580    0.00000    0.00000    1.000
    H15      H        0.71610    0.00000    0.00000    1.000
    C16      C        0.07580    0.50000    0.00000    1.000
    H16      H        0.21610    0.50000    0.00000    1.000
