# CIF file generated by openbabel 3.1.0, see https://openbabel.org
data_I
_chemical_name_common 'image0'
_cell_length_a 16.3583
_cell_length_b 18.1336
_cell_length_c 22.5915
_cell_angle_alpha 90
_cell_angle_beta 114.105
_cell_angle_gamma 90
_space_group_name_H-M_alt 'P 1'
_space_group_name_Hall 'P 1'
loop_
    _symmetry_equiv_pos_as_xyz
    x,y,z
loop_
    _atom_site_label
    _atom_site_type_symbol
    _atom_site_fract_x
    _atom_site_fract_y
    _atom_site_fract_z
    _atom_site_occupancy
    Zn1      Zn       0.27845    0.44797    0.72021    1.000
    Zn2      Zn       0.11957    0.54263    0.65947    1.000
    C1       C        0.12620    0.38705    0.61382    1.000
    C2       C        0.08020    0.32714    0.56632    1.000
    C3       C        0.99820    0.34104    0.51499    1.000
    H1       H        0.96910    0.38560    0.51320    1.000
    C4       C        0.95940    0.28919    0.46669    1.000
    H2       H        0.90520    0.29920    0.43210    1.000
    C5       C        0.00210    0.22213    0.47025    1.000
    C6       C        0.08200    0.20615    0.52284    1.000
    H3       H        0.10900    0.16030    0.52610    1.000
    C7       C        0.12080    0.25903    0.57020    1.000
    H4       H        0.17480    0.24880    0.60500    1.000
    C8       C        0.15720    0.06250    0.27721    1.000
    C9       C        0.11110    0.08846    0.31818    1.000
    C10      C        0.14240    0.14872    0.35916    1.000
    H5       H        0.19600    0.17100    0.36410    1.000
    C11      C        0.09490    0.17587    0.39256    1.000
    H6       H        0.11640    0.21670    0.41940    1.000
    C12      C        0.01470    0.14279    0.38662    1.000
    C13      C        0.98530    0.08001    0.34768    1.000
    H7       H        0.93400    0.05550    0.34510    1.000
    C14      C        0.03190    0.05427    0.31306    1.000
    H8       H        0.01040    0.01370    0.28600    1.000
    C15      C        0.44250    0.12530    0.31452    1.000
    H9       H        0.40840    0.13160    0.33850    1.000
    C16      C        0.53170    0.14490    0.34218    1.000
    H10      H        0.55640    0.16390    0.38410    1.000
    C17      C        0.58480    0.13653    0.30790    1.000
    C18      C        0.54150    0.11260    0.24397    1.000
    H11      H        0.57290    0.10930    0.21780    1.000
    C19      C        0.45190    0.09380    0.21943    1.000
    H12      H        0.42440    0.07770    0.17670    1.000
    C20      C        0.68250    0.14968    0.33683    1.000
    C21      C        0.72720    0.17010    0.29868    1.000
    H13      H        0.69470    0.17880    0.25460    1.000
    C22      C        0.81910    0.17790    0.32515    1.000
    H14      H        0.84790    0.19180    0.29890    1.000
    C23      C        0.86890    0.16509    0.39053    1.000
    C24      C        0.82490    0.14740    0.42933    1.000
    H15      H        0.85740    0.14060    0.47360    1.000
    C25      C        0.73260    0.13970    0.40277    1.000
    H16      H        0.70390    0.12760    0.42950    1.000
    C26      C        0.25570    0.55377    0.60991    1.000
    C27      C        0.30300    0.59180    0.57422    1.000
    C28      C        0.28400    0.66488    0.55498    1.000
    H17      H        0.24000    0.68980    0.56320    1.000
    C29      C        0.32930    0.70103    0.52384    1.000
    H18      H        0.31580    0.75000    0.51140    1.000
    C30      C        0.39470    0.66500    0.51103    1.000
    C31      C        0.41470    0.59190    0.53065    1.000
    H19      H        0.45870    0.56710    0.52240    1.000
    C32      C        0.36990    0.55620    0.56208    1.000
    H20      H        0.38450    0.50760    0.57540    1.000
    C33      C        0.26200    0.89567    0.26728    1.000
    C34      C        0.30990    0.84356    0.32191    1.000
    C35      C        0.39790    0.85690    0.36469    1.000
    H21      H        0.42760    0.89790    0.35850    1.000
    C36      C        0.44210    0.81000    0.41646    1.000
    H22      H        0.50110    0.81970    0.44460    1.000
    C37      C        0.39840    0.74864    0.42633    1.000
    C38      C        0.31080    0.73526    0.38380    1.000
    H23      H        0.28100    0.69430    0.38990    1.000
    C39      C        0.26680    0.78247    0.33201    1.000
    H24      H        0.20780    0.77280    0.30390    1.000
    C40      C        0.93050    0.55647    0.56433    1.000
    H25      H        0.94910    0.52520    0.53970    1.000
    C41      C        0.84240    0.57890    0.53927    1.000
    H26      H        0.80320    0.56310    0.49830    1.000
    C42      C        0.81210    0.62500    0.57509    1.000
    C43      C        0.87480    0.64570    0.63658    1.000
    H27      H        0.85770    0.67590    0.66280    1.000
    C44      C        0.96170    0.62133    0.65807    1.000
    H28      H        0.00240    0.63570    0.69900    1.000
    C45      C        0.71800    0.65012    0.55000    1.000
    C46      C        0.66530    0.65363    0.48352    1.000
    H29      H        0.69090    0.64350    0.45450    1.000
    C47      C        0.57530    0.67190    0.45999    1.000
    H30      H        0.54110    0.67360    0.41550    1.000
    C48      C        0.53640    0.68770    0.50252    1.000
    C49      C        0.58980    0.68990    0.56901    1.000
    H31      H        0.56500    0.70430    0.59760    1.000
    C50      C        0.67920    0.67080    0.59252    1.000
    H32      H        0.71400    0.67160    0.63690    1.000
    N1       N        0.96376    0.17104    0.41848    1.000
    N2       N        0.40294    0.09757    0.25444    1.000
    N3       N        0.44310    0.70208    0.48015    1.000
    N4       N        0.99052    0.57779    0.62268    1.000
    O1       O        0.09126    0.45020    0.60125    1.000
    O2       O        0.19695    0.37024    0.66212    1.000
    O3       O        0.23702    0.08259    0.29105    1.000
    O4       O        0.11141    0.02288    0.22944    1.000
    O5       O        0.28870    0.49389    0.63851    1.000
    O6       O        0.18708    0.58475    0.61018    1.000
    O7       O        0.30623    0.94952    0.26087    1.000
    O8       O        0.18144    0.88213    0.23143    1.000
    Zn3      Zn       0.27845    0.05203    0.22021    1.000
    Zn4      Zn       0.11957    0.95737    0.15947    1.000
    C51      C        0.12620    0.11295    0.11382    1.000
    C52      C        0.08020    0.17286    0.06632    1.000
    C53      C        0.99820    0.15896    0.01499    1.000
    H33      H        0.96910    0.11440    0.01320    1.000
    C54      C        0.95940    0.21081    0.96669    1.000
    H34      H        0.90520    0.20080    0.93210    1.000
    C55      C        0.00210    0.27787    0.97025    1.000
    C56      C        0.08200    0.29385    0.02284    1.000
    H35      H        0.10900    0.33970    0.02610    1.000
    C57      C        0.12080    0.24097    0.07020    1.000
    H36      H        0.17480    0.25120    0.10500    1.000
    C58      C        0.15720    0.43750    0.77721    1.000
    C59      C        0.11110    0.41154    0.81818    1.000
    C60      C        0.14240    0.35128    0.85916    1.000
    H37      H        0.19600    0.32900    0.86410    1.000
    C61      C        0.09490    0.32413    0.89256    1.000
    H38      H        0.11640    0.28330    0.91940    1.000
    C62      C        0.01470    0.35721    0.88662    1.000
    C63      C        0.98530    0.41999    0.84768    1.000
    H39      H        0.93400    0.44450    0.84510    1.000
    C64      C        0.03190    0.44573    0.81306    1.000
    H40      H        0.01040    0.48630    0.78600    1.000
    C65      C        0.44250    0.37470    0.81452    1.000
    H41      H        0.40840    0.36840    0.83850    1.000
    C66      C        0.53170    0.35510    0.84218    1.000
    H42      H        0.55640    0.33610    0.88410    1.000
    C67      C        0.58480    0.36347    0.80790    1.000
    C68      C        0.54150    0.38740    0.74397    1.000
    H43      H        0.57290    0.39070    0.71780    1.000
    C69      C        0.45190    0.40620    0.71943    1.000
    H44      H        0.42440    0.42230    0.67670    1.000
    C70      C        0.68250    0.35032    0.83683    1.000
    C71      C        0.72720    0.32990    0.79868    1.000
    H45      H        0.69470    0.32120    0.75460    1.000
    C72      C        0.81910    0.32210    0.82515    1.000
    H46      H        0.84790    0.30820    0.79890    1.000
    C73      C        0.86890    0.33491    0.89053    1.000
    C74      C        0.82490    0.35260    0.92933    1.000
    H47      H        0.85740    0.35940    0.97360    1.000
    C75      C        0.73260    0.36030    0.90277    1.000
    H48      H        0.70390    0.37240    0.92950    1.000
    C76      C        0.25570    0.94623    0.10991    1.000
    C77      C        0.30300    0.90820    0.07422    1.000
    C78      C        0.28400    0.83512    0.05498    1.000
    H49      H        0.24000    0.81020    0.06320    1.000
    C79      C        0.32930    0.79897    0.02384    1.000
    H50      H        0.31580    0.75000    0.01140    1.000
    C80      C        0.39470    0.83500    0.01103    1.000
    C81      C        0.41470    0.90810    0.03065    1.000
    H51      H        0.45870    0.93290    0.02240    1.000
    C82      C        0.36990    0.94380    0.06208    1.000
    H52      H        0.38450    0.99240    0.07540    1.000
    C83      C        0.26200    0.60433    0.76728    1.000
    C84      C        0.30990    0.65644    0.82191    1.000
    C85      C        0.39790    0.64310    0.86469    1.000
    H53      H        0.42760    0.60210    0.85850    1.000
    C86      C        0.44210    0.69000    0.91646    1.000
    H54      H        0.50110    0.68030    0.94460    1.000
    C87      C        0.39840    0.75136    0.92633    1.000
    C88      C        0.31080    0.76474    0.88380    1.000
    H55      H        0.28100    0.80570    0.88990    1.000
    C89      C        0.26680    0.71753    0.83201    1.000
    H56      H        0.20780    0.72720    0.80390    1.000
    C90      C        0.93050    0.94353    0.06433    1.000
    H57      H        0.94910    0.97480    0.03970    1.000
    C91      C        0.84240    0.92110    0.03927    1.000
    H58      H        0.80320    0.93690    0.99830    1.000
    C92      C        0.81210    0.87500    0.07509    1.000
    C93      C        0.87480    0.85430    0.13658    1.000
    H59      H        0.85770    0.82410    0.16280    1.000
    C94      C        0.96170    0.87867    0.15807    1.000
    H60      H        0.00240    0.86430    0.19900    1.000
    C95      C        0.71800    0.84988    0.05000    1.000
    C96      C        0.66530    0.84637    0.98352    1.000
    H61      H        0.69090    0.85650    0.95450    1.000
    C97      C        0.57530    0.82810    0.95999    1.000
    H62      H        0.54110    0.82640    0.91550    1.000
    C98      C        0.53640    0.81230    0.00252    1.000
    C99      C        0.58980    0.81010    0.06901    1.000
    H63      H        0.56500    0.79570    0.09760    1.000
    C100     C        0.67920    0.82920    0.09252    1.000
    H64      H        0.71400    0.82840    0.13690    1.000
    N5       N        0.96376    0.32896    0.91848    1.000
    N6       N        0.40294    0.40243    0.75444    1.000
    N7       N        0.44310    0.79792    0.98015    1.000
    N8       N        0.99052    0.92221    0.12268    1.000
    O9       O        0.09126    0.04980    0.10125    1.000
    O10      O        0.19695    0.12976    0.16212    1.000
    O11      O        0.23702    0.41741    0.79105    1.000
    O12      O        0.11141    0.47712    0.72944    1.000
    O13      O        0.28870    0.00611    0.13851    1.000
    O14      O        0.18708    0.91525    0.11018    1.000
    O15      O        0.30623    0.55048    0.76087    1.000
    O16      O        0.18144    0.61787    0.73143    1.000
    Zn5      Zn       0.72155    0.94797    0.77979    1.000
    Zn6      Zn       0.88043    0.04263    0.84053    1.000
    C101     C        0.87380    0.88705    0.88618    1.000
    C102     C        0.91980    0.82714    0.93368    1.000
    C103     C        0.00180    0.84104    0.98501    1.000
    H65      H        0.03090    0.88560    0.98680    1.000
    C104     C        0.04060    0.78919    0.03331    1.000
    H66      H        0.09480    0.79920    0.06790    1.000
    C105     C        0.99790    0.72213    0.02975    1.000
    C106     C        0.91800    0.70615    0.97716    1.000
    H67      H        0.89100    0.66030    0.97390    1.000
    C107     C        0.87920    0.75903    0.92980    1.000
    H68      H        0.82520    0.74880    0.89500    1.000
    C108     C        0.84280    0.56250    0.22279    1.000
    C109     C        0.88890    0.58846    0.18182    1.000
    C110     C        0.85760    0.64872    0.14084    1.000
    H69      H        0.80400    0.67100    0.13590    1.000
    C111     C        0.90510    0.67587    0.10744    1.000
    H70      H        0.88360    0.71670    0.08060    1.000
    C112     C        0.98530    0.64279    0.11338    1.000
    C113     C        0.01470    0.58001    0.15232    1.000
    H71      H        0.06600    0.55550    0.15490    1.000
    C114     C        0.96810    0.55427    0.18694    1.000
    H72      H        0.98960    0.51370    0.21400    1.000
    C115     C        0.55750    0.62530    0.18548    1.000
    H73      H        0.59160    0.63160    0.16150    1.000
    C116     C        0.46830    0.64490    0.15782    1.000
    H74      H        0.44360    0.66390    0.11590    1.000
    C117     C        0.41520    0.63653    0.19210    1.000
    C118     C        0.45850    0.61260    0.25603    1.000
    H75      H        0.42710    0.60930    0.28220    1.000
    C119     C        0.54810    0.59380    0.28057    1.000
    H76      H        0.57560    0.57770    0.32330    1.000
    C120     C        0.31750    0.64968    0.16317    1.000
    C121     C        0.27280    0.67010    0.20132    1.000
    H77      H        0.30530    0.67880    0.24540    1.000
    C122     C        0.18090    0.67790    0.17485    1.000
    H78      H        0.15210    0.69180    0.20110    1.000
    C123     C        0.13110    0.66509    0.10947    1.000
    C124     C        0.17510    0.64740    0.07067    1.000
    H79      H        0.14260    0.64060    0.02640    1.000
    C125     C        0.26740    0.63970    0.09723    1.000
    H80      H        0.29610    0.62760    0.07050    1.000
    C126     C        0.74430    0.05377    0.89009    1.000
    C127     C        0.69700    0.09180    0.92578    1.000
    C128     C        0.71600    0.16488    0.94502    1.000
    H81      H        0.76000    0.18980    0.93680    1.000
    C129     C        0.67070    0.20103    0.97616    1.000
    H82      H        0.68420    0.25000    0.98860    1.000
    C130     C        0.60530    0.16500    0.98897    1.000
    C131     C        0.58530    0.09190    0.96935    1.000
    H83      H        0.54130    0.06710    0.97760    1.000
    C132     C        0.63010    0.05620    0.93792    1.000
    H84      H        0.61550    0.00760    0.92460    1.000
    C133     C        0.73800    0.39567    0.23272    1.000
    C134     C        0.69010    0.34356    0.17809    1.000
    C135     C        0.60210    0.35690    0.13531    1.000
    H85      H        0.57240    0.39790    0.14150    1.000
    C136     C        0.55790    0.31000    0.08354    1.000
    H86      H        0.49890    0.31970    0.05540    1.000
    C137     C        0.60160    0.24864    0.07367    1.000
    C138     C        0.68920    0.23526    0.11620    1.000
    H87      H        0.71900    0.19430    0.11010    1.000
    C139     C        0.73320    0.28247    0.16799    1.000
    H88      H        0.79220    0.27280    0.19610    1.000
    C140     C        0.06950    0.05647    0.93567    1.000
    H89      H        0.05090    0.02520    0.96030    1.000
    C141     C        0.15760    0.07890    0.96073    1.000
    H90      H        0.19680    0.06310    0.00170    1.000
    C142     C        0.18790    0.12500    0.92491    1.000
    C143     C        0.12520    0.14570    0.86342    1.000
    H91      H        0.14230    0.17590    0.83720    1.000
    C144     C        0.03830    0.12133    0.84193    1.000
    H92      H        0.99760    0.13570    0.80100    1.000
    C145     C        0.28200    0.15012    0.95000    1.000
    C146     C        0.33470    0.15363    0.01648    1.000
    H93      H        0.30910    0.14350    0.04550    1.000
    C147     C        0.42470    0.17190    0.04001    1.000
    H94      H        0.45890    0.17360    0.08450    1.000
    C148     C        0.46360    0.18770    0.99748    1.000
    C149     C        0.41020    0.18990    0.93099    1.000
    H95      H        0.43500    0.20430    0.90240    1.000
    C150     C        0.32080    0.17080    0.90748    1.000
    H96      H        0.28600    0.17160    0.86310    1.000
    N9       N        0.03624    0.67104    0.08152    1.000
    N10      N        0.59706    0.59757    0.24556    1.000
    N11      N        0.55690    0.20208    0.01985    1.000
    N12      N        0.00948    0.07779    0.87732    1.000
    O17      O        0.90874    0.95020    0.89875    1.000
    O18      O        0.80305    0.87024    0.83788    1.000
    O19      O        0.76298    0.58259    0.20895    1.000
    O20      O        0.88859    0.52288    0.27056    1.000
    O21      O        0.71130    0.99389    0.86149    1.000
    O22      O        0.81292    0.08475    0.88982    1.000
    O23      O        0.69377    0.44952    0.23913    1.000
    O24      O        0.81856    0.38213    0.26857    1.000
    Zn7      Zn       0.72155    0.55203    0.27979    1.000
    Zn8      Zn       0.88043    0.45737    0.34053    1.000
    C151     C        0.87380    0.61295    0.38618    1.000
    C152     C        0.91980    0.67286    0.43368    1.000
    C153     C        0.00180    0.65896    0.48501    1.000
    H97      H        0.03090    0.61440    0.48680    1.000
    C154     C        0.04060    0.71081    0.53331    1.000
    H98      H        0.09480    0.70080    0.56790    1.000
    C155     C        0.99790    0.77787    0.52975    1.000
    C156     C        0.91800    0.79385    0.47716    1.000
    H99      H        0.89100    0.83970    0.47390    1.000
    C157     C        0.87920    0.74097    0.42980    1.000
    H100     H        0.82520    0.75120    0.39500    1.000
    C158     C        0.84280    0.93750    0.72279    1.000
    C159     C        0.88890    0.91154    0.68182    1.000
    C160     C        0.85760    0.85128    0.64084    1.000
    H101     H        0.80400    0.82900    0.63590    1.000
    C161     C        0.90510    0.82413    0.60744    1.000
    H102     H        0.88360    0.78330    0.58060    1.000
    C162     C        0.98530    0.85721    0.61338    1.000
    C163     C        0.01470    0.91999    0.65232    1.000
    H103     H        0.06600    0.94450    0.65490    1.000
    C164     C        0.96810    0.94573    0.68694    1.000
    H104     H        0.98960    0.98630    0.71400    1.000
    C165     C        0.55750    0.87470    0.68548    1.000
    H105     H        0.59160    0.86840    0.66150    1.000
    C166     C        0.46830    0.85510    0.65782    1.000
    H106     H        0.44360    0.83610    0.61590    1.000
    C167     C        0.41520    0.86347    0.69210    1.000
    C168     C        0.45850    0.88740    0.75603    1.000
    H107     H        0.42710    0.89070    0.78220    1.000
    C169     C        0.54810    0.90620    0.78057    1.000
    H108     H        0.57560    0.92230    0.82330    1.000
    C170     C        0.31750    0.85032    0.66317    1.000
    C171     C        0.27280    0.82990    0.70132    1.000
    H109     H        0.30530    0.82120    0.74540    1.000
    C172     C        0.18090    0.82210    0.67485    1.000
    H110     H        0.15210    0.80820    0.70110    1.000
    C173     C        0.13110    0.83491    0.60947    1.000
    C174     C        0.17510    0.85260    0.57067    1.000
    H111     H        0.14260    0.85940    0.52640    1.000
    C175     C        0.26740    0.86030    0.59723    1.000
    H112     H        0.29610    0.87240    0.57050    1.000
    C176     C        0.74430    0.44623    0.39009    1.000
    C177     C        0.69700    0.40820    0.42578    1.000
    C178     C        0.71600    0.33512    0.44502    1.000
    H113     H        0.76000    0.31020    0.43680    1.000
    C179     C        0.67070    0.29897    0.47616    1.000
    H114     H        0.68420    0.25000    0.48860    1.000
    C180     C        0.60530    0.33500    0.48897    1.000
    C181     C        0.58530    0.40810    0.46935    1.000
    H115     H        0.54130    0.43290    0.47760    1.000
    C182     C        0.63010    0.44380    0.43792    1.000
    H116     H        0.61550    0.49240    0.42460    1.000
    C183     C        0.73800    0.10433    0.73272    1.000
    C184     C        0.69010    0.15644    0.67809    1.000
    C185     C        0.60210    0.14310    0.63531    1.000
    H117     H        0.57240    0.10210    0.64150    1.000
    C186     C        0.55790    0.19000    0.58354    1.000
    H118     H        0.49890    0.18030    0.55540    1.000
    C187     C        0.60160    0.25136    0.57367    1.000
    C188     C        0.68920    0.26474    0.61620    1.000
    H119     H        0.71900    0.30570    0.61010    1.000
    C189     C        0.73320    0.21753    0.66799    1.000
    H120     H        0.79220    0.22720    0.69610    1.000
    C190     C        0.06950    0.44353    0.43567    1.000
    H121     H        0.05090    0.47480    0.46030    1.000
    C191     C        0.15760    0.42110    0.46073    1.000
    H122     H        0.19680    0.43690    0.50170    1.000
    C192     C        0.18790    0.37500    0.42491    1.000
    C193     C        0.12520    0.35430    0.36342    1.000
    H123     H        0.14230    0.32410    0.33720    1.000
    C194     C        0.03830    0.37867    0.34193    1.000
    H124     H        0.99760    0.36430    0.30100    1.000
    C195     C        0.28200    0.34988    0.45000    1.000
    C196     C        0.33470    0.34637    0.51648    1.000
    H125     H        0.30910    0.35650    0.54550    1.000
    C197     C        0.42470    0.32810    0.54001    1.000
    H126     H        0.45890    0.32640    0.58450    1.000
    C198     C        0.46360    0.31230    0.49748    1.000
    C199     C        0.41020    0.31010    0.43099    1.000
    H127     H        0.43500    0.29570    0.40240    1.000
    C200     C        0.32080    0.32920    0.40748    1.000
    H128     H        0.28600    0.32840    0.36310    1.000
    N13      N        0.03624    0.82896    0.58152    1.000
    N14      N        0.59706    0.90243    0.74556    1.000
    N15      N        0.55690    0.29792    0.51985    1.000
    N16      N        0.00948    0.42221    0.37732    1.000
    O25      O        0.90874    0.54980    0.39875    1.000
    O26      O        0.80305    0.62976    0.33788    1.000
    O27      O        0.76298    0.91741    0.70895    1.000
    O28      O        0.88859    0.97712    0.77056    1.000
    O29      O        0.71130    0.50611    0.36149    1.000
    O30      O        0.81292    0.41525    0.38982    1.000
    O31      O        0.69377    0.05048    0.73913    1.000
    O32      O        0.81856    0.11787    0.76857    1.000
