data_functionalizedCrystal
_audit_creation_method	'EQeq! by Chris Wilmer'
_symmetry_space_group_name_H-M	'P1'
_symmetry_Int_Tables_number	1
_symmetry_cell_setting	triclinic
loop_
_symmetry_equiv_pos_as_xyz
  x,y,z
_cell_length_a	6.7981
_cell_length_b	11.978
_cell_length_c	13.515
_cell_angle_alpha	90
_cell_angle_beta	100.174
_cell_angle_gamma	90
loop_
_atom_site_label
_atom_site_type_symbol
_atom_site_fract_x
_atom_site_fract_y
_atom_site_fract_z
_atom_site_charge
Mof_Pr	Pr	0.55628	0.67014	0.75651	2.506
Mof_Pr	Pr	0.44372	0.17014	0.74349	2.503
Mof_Pr	Pr	0.44372	0.32986	0.24349	2.506
Mof_Pr	Pr	0.55628	0.82986	0.25651	2.503
Mof_H 	H 	0.301	0.9359	0.4606	-0.019
Mof_H 	H 	0.962	0.8026	0.6452	-0.047
Mof_H 	H 	0.699	0.4359	0.0394	-0.019
Mof_H 	H 	0.038	0.3026	0.8548	-0.045
Mof_H 	H 	0.699	0.0641	0.5394	-0.02
Mof_H 	H 	0.038	0.1974	0.3548	-0.048
Mof_H 	H 	0.301	0.5641	0.9606	-0.019
Mof_H 	H 	0.962	0.6974	0.1452	-0.045
Mof_C 	C 	0.624	0.7661	0.5053	0.486
Mof_C 	C 	0.829	0.8106	0.4993	-0.16
Mof_C 	C 	0.031	0.8785	0.3921	-0.151
Mof_C 	C 	0.046	0.8957	0.2836	0.466
Mof_C 	C 	0.183	0.9026	0.4716	0.142
Mof_C 	C 	0.156	0.8762	0.5673	-0.233
Mof_C 	C 	0.317	0.9004	0.657	0.496
Mof_C 	C 	0.979	0.8258	0.5816	0.136
Mof_C 	C 	0.376	0.2661	0.9947	0.478
Mof_C 	C 	0.171	0.3106	0.0007	-0.15
Mof_C 	C 	0.969	0.3785	0.1079	-0.15
Mof_C 	C 	0.954	0.3957	0.2164	0.464
Mof_C 	C 	0.817	0.4026	0.0284	0.138
Mof_C 	C 	0.844	0.3762	0.9327	-0.227
Mof_C 	C 	0.683	0.4004	0.843	0.494
Mof_C 	C 	0.021	0.3258	0.9184	0.125
Mof_C 	C 	0.376	0.2339	0.4947	0.486
Mof_C 	C 	0.171	0.1894	0.5007	-0.16
Mof_C 	C 	0.969	0.1215	0.6079	-0.151
Mof_C 	C 	0.954	0.1043	0.7164	0.466
Mof_C 	C 	0.817	0.0974	0.5284	0.142
Mof_C 	C 	0.844	0.1238	0.4327	-0.233
Mof_C 	C 	0.683	0.0996	0.343	0.496
Mof_C 	C 	0.021	0.1742	0.4184	0.136
Mof_C 	C 	0.624	0.7339	0.0053	0.478
Mof_C 	C 	0.829	0.6894	0.9993	-0.15
Mof_C 	C 	0.031	0.6215	0.8921	-0.15
Mof_C 	C 	0.046	0.6043	0.7836	0.464
Mof_C 	C 	0.183	0.5974	0.9716	0.138
Mof_C 	C 	0.156	0.6238	0.0673	-0.227
Mof_C 	C 	0.317	0.5996	0.157	0.494
Mof_C 	C 	0.979	0.6742	0.0816	0.125
Mof_N 	N 	0.855	0.8364	0.4059	-0.2
Mof_N 	N 	0.145	0.3364	0.0941	-0.201
Mof_N 	N 	0.145	0.1636	0.5941	-0.2
Mof_N 	N 	0.855	0.6636	0.9059	-0.201
Mof_O 	O 	0.5828	0.7429	0.5895	-0.595
Mof_O 	O 	0.5048	0.7559	0.4229	-0.554
Mof_O 	O 	0.8837	0.8995	0.2217	-0.567
Mof_O 	O 	0.2169	0.906	0.2612	-0.556
Mof_O 	O 	0.4211	0.9867	0.6547	-0.559
Mof_O 	O 	0.335	0.8321	0.7284	-0.588
Mof_O 	O 	0.4172	0.2429	0.9105	-0.593
Mof_O 	O 	0.4952	0.2559	0.0771	-0.55
Mof_O 	O 	0.1163	0.3995	0.2783	-0.565
Mof_O 	O 	0.7831	0.406	0.2388	-0.556
Mof_O 	O 	0.5789	0.4867	0.8453	-0.56
Mof_O 	O 	0.665	0.3321	0.7716	-0.588
Mof_O 	O 	0.4172	0.2571	0.4105	-0.595
Mof_O 	O 	0.4952	0.2441	0.5771	-0.554
Mof_O 	O 	0.1163	0.1005	0.7783	-0.567
Mof_O 	O 	0.7831	0.094	0.7388	-0.556
Mof_O 	O 	0.5789	0.0133	0.3453	-0.559
Mof_O 	O 	0.665	0.1679	0.2716	-0.588
Mof_O 	O 	0.5828	0.7571	0.0895	-0.593
Mof_O 	O 	0.5048	0.7441	0.9229	-0.55
Mof_O 	O 	0.8837	0.6005	0.7217	-0.565
Mof_O 	O 	0.2169	0.594	0.7612	-0.556
Mof_O 	O 	0.4211	0.5133	0.1547	-0.56
Mof_O 	O 	0.335	0.6679	0.2284	-0.588
_end
