data_functionalizedCrystal
_audit_creation_method	'EQeq! by Chris Wilmer'
_symmetry_space_group_name_H-M	'P1'
_symmetry_Int_Tables_number	1
_symmetry_cell_setting	triclinic
loop_
_symmetry_equiv_pos_as_xyz
  x,y,z
_cell_length_a	9.0162
_cell_length_b	10.7479
_cell_length_c	10.8068
_cell_angle_alpha	97.57
_cell_angle_beta	97.708
_cell_angle_gamma	110.1
loop_
_atom_site_label
_atom_site_type_symbol
_atom_site_fract_x
_atom_site_fract_y
_atom_site_fract_z
_atom_site_charge
Mof_Cd	Cd	0.70569	0.24814	0.68775	0.409
Mof_O 	O 	0.6802	0.0293	0.6045	-0.248
Mof_O 	O 	0.5551	0.8687	0.4335	-0.246
Mof_N 	N 	0.9732	0.3271	0.7777	-0.151
Mof_N 	N 	0.2199	0.4792	0.8167	-0.312
Mof_N 	N 	0.3074	0.6723	0.7036	-0.318
Mof_N 	N 	0.4087	0.7035	0.9386	-0.316
Mof_C 	C 	0.0581	0.3072	0.8833	-0.021
Mof_H 	H 	0.0178	0.2416	0.9309	0.039
Mof_C 	C 	0.2094	0.3984	0.9066	0.053
Mof_H 	H 	0.2922	0.4057	0.9719	-0.001
Mof_C 	C 	0.0738	0.4302	0.7415	0.138
Mof_H 	H 	0.0467	0.4655	0.6715	-0.024
Mof_C 	C 	0.2189	0.7537	0.7124	0.052
Mof_H 	H 	0.1944	0.7906	0.7861	0.002
Mof_C 	C 	0.3121	0.6445	0.5796	0.144
Mof_H 	H 	0.3649	0.5906	0.5473	-0.02
Mof_C 	C 	0.5141	0.4455	0.7582	0.14
Mof_H 	H 	0.4335	0.3684	0.7693	-0.019
Mof_C 	C 	0.5497	0.8091	0.9938	0.063
Mof_H 	H 	0.6422	0.8375	0.9593	-0.001
Mof_C 	C 	0.5679	0.971	0.5116	0.219
Mof_B 	B 	0.363	0.6071	0.8086	0.942
Mof_C 	C 	0.174	0.7697	0.5917	-0.019
Mof_H 	H 	0.1116	0.8194	0.5693	0.05
Mof_C 	C 	0.6464	0.6517	0.7496	0.05
Mof_H 	H 	0.6771	0.744	0.7521	0.01
Mof_N 	N 	0.505	0.569	0.7763	-0.316
Mof_C 	C 	0.3129	0.7016	0.0235	0.136
Mof_H 	H 	0.2084	0.6391	0.0112	-0.026
Mof_C 	C 	0.733	0.5761	0.7192	-0.021
Mof_H 	H 	0.8345	0.6081	0.6986	0.037
Mof_C 	C 	0.5299	0.8638	0.1066	-0.039
Mof_N 	N 	0.2343	0.7016	0.5083	-0.146
Mof_N 	N 	0.6474	0.4445	0.7235	-0.151
Mof_N 	N 	0.3804	0.7964	0.1259	-0.146
Mof_H 	H 	0.599	0.932	0.16	0.056
Mof_Cd	Cd	0.29431	0.75186	0.31225	0.41
Mof_O 	O 	0.3198	0.9707	0.3955	-0.247
Mof_O 	O 	0.4449	0.1313	0.5665	-0.246
Mof_N 	N 	0.0268	0.6729	0.2223	-0.151
Mof_N 	N 	0.7801	0.5208	0.1833	-0.312
Mof_N 	N 	0.6926	0.3277	0.2964	-0.318
Mof_N 	N 	0.5913	0.2965	0.0614	-0.316
Mof_C 	C 	0.9419	0.6928	0.1167	-0.021
Mof_H 	H 	0.9822	0.7584	0.0691	0.039
Mof_C 	C 	0.7906	0.6016	0.0934	0.053
Mof_H 	H 	0.7078	0.5943	0.0281	-0.001
Mof_C 	C 	0.9262	0.5698	0.2585	0.138
Mof_H 	H 	0.9533	0.5345	0.3285	-0.024
Mof_C 	C 	0.7811	0.2463	0.2876	0.052
Mof_H 	H 	0.8056	0.2094	0.2139	0.002
Mof_C 	C 	0.6879	0.3555	0.4204	0.144
Mof_H 	H 	0.6351	0.4094	0.4527	-0.02
Mof_C 	C 	0.4859	0.5545	0.2418	0.14
Mof_H 	H 	0.5665	0.6316	0.2307	-0.019
Mof_C 	C 	0.4503	0.1909	0.0062	0.063
Mof_H 	H 	0.3578	0.1625	0.0407	-0.001
Mof_C 	C 	0.4321	0.029	0.4884	0.219
Mof_B 	B 	0.637	0.3929	0.1914	0.942
Mof_C 	C 	0.826	0.2303	0.4083	-0.019
Mof_H 	H 	0.8884	0.1806	0.4307	0.05
Mof_C 	C 	0.3536	0.3483	0.2504	0.05
Mof_H 	H 	0.3229	0.256	0.2479	0.01
Mof_N 	N 	0.495	0.431	0.2237	-0.316
Mof_C 	C 	0.6871	0.2984	0.9765	0.136
Mof_H 	H 	0.7916	0.3609	0.9888	-0.026
Mof_C 	C 	0.267	0.4239	0.2808	-0.021
Mof_H 	H 	0.1655	0.3919	0.3014	0.037
Mof_C 	C 	0.4701	0.1362	0.8934	-0.039
Mof_N 	N 	0.7657	0.2984	0.4917	-0.146
Mof_N 	N 	0.3526	0.5555	0.2765	-0.151
Mof_N 	N 	0.6196	0.2036	0.8741	-0.146
Mof_H 	H 	0.401	0.068	0.84	0.056
_end
