data_functionalizedCrystal
_audit_creation_method	'EQeq! by Chris Wilmer'
_symmetry_space_group_name_H-M	'P1'
_symmetry_Int_Tables_number	1
_symmetry_cell_setting	triclinic
loop_
_symmetry_equiv_pos_as_xyz
  x,y,z
_cell_length_a	5.7782
_cell_length_b	20.4081
_cell_length_c	16.1009
_cell_angle_alpha	90
_cell_angle_beta	94.674
_cell_angle_gamma	90
loop_
_atom_site_label
_atom_site_type_symbol
_atom_site_fract_x
_atom_site_fract_y
_atom_site_fract_z
_atom_site_charge
Mof_Ag	Ag	0.28821	0.5308	0.5409	0.312
Mof_Ag	Ag	0.80857	0.573	0.60284	0.435
Mof_N 	N 	0.4389	0.47851	0.64293	-0.172
Mof_N 	N 	0.6552	0.49979	0.67474	-0.17
Mof_N 	N 	0.502	0.28798	0.9657	-0.14
Mof_N 	N 	0.9168	0.62532	0.49828	-0.174
Mof_N 	N 	0.1242	0.60577	0.46946	-0.171
Mof_N 	N 	0.911	0.84535	0.21202	-0.185
Mof_C 	C 	0.7118	0.46573	0.7447	0.043
Mof_H 	H 	0.8532	0.4705	0.7786	0.004
Mof_C 	C 	0.5335	0.4222	0.7608	-0.074
Mof_C 	C 	0.3656	0.4329	0.6945	0.036
Mof_H 	H 	0.2203	0.411	0.6872	0.005
Mof_C 	C 	0.6914	0.3249	0.9561	0.074
Mof_H 	H 	0.8207	0.3206	0.9961	0.011
Mof_C 	C 	0.7082	0.3687	0.8912	-0.149
Mof_H 	H 	0.8458	0.3937	0.8881	0.079
Mof_C 	C 	0.524	0.37611	0.8304	0.098
Mof_C 	C 	0.3279	0.3379	0.8397	-0.151
Mof_H 	H 	0.1964	0.3412	0.8004	0.081
Mof_C 	C 	0.3258	0.2952	0.9063	0.074
Mof_H 	H 	0.1909	0.2692	0.9105	0.006
Mof_C 	C 	0.1724	0.6475	0.4094	0.042
Mof_H 	H 	0.307	0.6455	0.3793	0.007
Mof_C 	C 	0.9986	0.69427	0.397	-0.075
Mof_C 	C 	0.8393	0.67786	0.4555	0.04
Mof_H 	H 	0.6992	0.7006	0.4632	0.009
Mof_C 	C 	0.0966	0.8053	0.2164	0.089
Mof_H 	H 	0.2075	0.8108	0.1765	-0.015
Mof_C 	C 	0.1347	0.757	0.2753	-0.163
Mof_H 	H 	0.269	0.7301	0.2754	0.085
Mof_C 	C 	0.9744	0.74725	0.3357	0.104
Mof_C 	C 	0.7847	0.7902	0.3315	-0.162
Mof_H 	H 	0.6719	0.7867	0.3711	0.087
Mof_C 	C 	0.7608	0.8374	0.2705	0.087
Mof_H 	H 	0.6307	0.8659	0.2697	-0.012
Mof_Ag	Ag	0.71179	0.0308	0.9591	0.309
Mof_Ag	Ag	0.19143	0.073	0.89716	0.432
Mof_N 	N 	0.5611	0.97851	0.85707	-0.17
Mof_N 	N 	0.3448	0.99979	0.82526	-0.169
Mof_N 	N 	0.498	0.78798	0.5343	-0.14
Mof_N 	N 	0.0832	0.12532	0.00172	-0.173
Mof_N 	N 	0.8758	0.10577	0.03054	-0.17
Mof_N 	N 	0.089	0.34535	0.28798	-0.184
Mof_C 	C 	0.2882	0.96573	0.7553	0.044
Mof_H 	H 	0.1468	0.9705	0.7214	0.004
Mof_C 	C 	0.4665	0.9222	0.7392	-0.074
Mof_C 	C 	0.6344	0.9329	0.8055	0.037
Mof_H 	H 	0.7797	0.911	0.8128	0.006
Mof_C 	C 	0.3086	0.8249	0.5439	0.074
Mof_H 	H 	0.1793	0.8206	0.5039	0.011
Mof_C 	C 	0.2918	0.8687	0.6088	-0.149
Mof_H 	H 	0.1542	0.8937	0.6119	0.079
Mof_C 	C 	0.476	0.87611	0.6696	0.097
Mof_C 	C 	0.6721	0.8379	0.6603	-0.151
Mof_H 	H 	0.8036	0.8412	0.6996	0.081
Mof_C 	C 	0.6742	0.7952	0.5937	0.074
Mof_H 	H 	0.8091	0.7692	0.5895	0.006
Mof_C 	C 	0.8276	0.1475	0.0906	0.043
Mof_H 	H 	0.693	0.1455	0.1207	0.007
Mof_C 	C 	0.0014	0.19427	0.103	-0.074
Mof_C 	C 	0.1607	0.17786	0.0445	0.041
Mof_H 	H 	0.3008	0.2006	0.0368	0.01
Mof_C 	C 	0.9034	0.3053	0.2836	0.089
Mof_H 	H 	0.7925	0.3108	0.3235	-0.015
Mof_C 	C 	0.8653	0.257	0.2247	-0.163
Mof_H 	H 	0.731	0.2301	0.2246	0.085
Mof_C 	C 	0.0256	0.24725	0.1643	0.105
Mof_C 	C 	0.2153	0.2902	0.1685	-0.162
Mof_H 	H 	0.3281	0.2867	0.1289	0.088
Mof_C 	C 	0.2392	0.3374	0.2295	0.087
Mof_H 	H 	0.3693	0.3659	0.2303	-0.011
Mof_Ag	Ag	0.71179	0.4692	0.4591	0.313
Mof_Ag	Ag	0.19143	0.427	0.39716	0.436
Mof_N 	N 	0.5611	0.52149	0.35707	-0.172
Mof_N 	N 	0.3448	0.50021	0.32526	-0.17
Mof_N 	N 	0.498	0.71202	0.0343	-0.14
Mof_N 	N 	0.0832	0.37468	0.50172	-0.174
Mof_N 	N 	0.8758	0.39423	0.53054	-0.171
Mof_N 	N 	0.089	0.15465	0.78798	-0.185
Mof_C 	C 	0.2882	0.53427	0.2553	0.043
Mof_H 	H 	0.1468	0.5295	0.2214	0.004
Mof_C 	C 	0.4665	0.5778	0.2392	-0.074
Mof_C 	C 	0.6344	0.5671	0.3055	0.036
Mof_H 	H 	0.7797	0.589	0.3128	0.005
Mof_C 	C 	0.3086	0.6751	0.0439	0.074
Mof_H 	H 	0.1793	0.6794	0.0039	0.011
Mof_C 	C 	0.2918	0.6313	0.1088	-0.149
Mof_H 	H 	0.1542	0.6063	0.1119	0.079
Mof_C 	C 	0.476	0.62389	0.1696	0.098
Mof_C 	C 	0.6721	0.6621	0.1603	-0.151
Mof_H 	H 	0.8036	0.6588	0.1996	0.081
Mof_C 	C 	0.6742	0.7048	0.0937	0.074
Mof_H 	H 	0.8091	0.7308	0.0895	0.006
Mof_C 	C 	0.8276	0.3525	0.5906	0.042
Mof_H 	H 	0.693	0.3545	0.6207	0.007
Mof_C 	C 	0.0014	0.30573	0.603	-0.075
Mof_C 	C 	0.1607	0.32214	0.5445	0.04
Mof_H 	H 	0.3008	0.2994	0.5368	0.009
Mof_C 	C 	0.9034	0.1947	0.7836	0.089
Mof_H 	H 	0.7925	0.1892	0.8235	-0.015
Mof_C 	C 	0.8653	0.243	0.7247	-0.163
Mof_H 	H 	0.731	0.2699	0.7246	0.085
Mof_C 	C 	0.0256	0.25275	0.6643	0.104
Mof_C 	C 	0.2153	0.2098	0.6685	-0.162
Mof_H 	H 	0.3281	0.2133	0.6289	0.087
Mof_C 	C 	0.2392	0.1626	0.7295	0.087
Mof_H 	H 	0.3693	0.1341	0.7303	-0.012
Mof_Ag	Ag	0.28821	0.9692	0.0409	0.309
Mof_Ag	Ag	0.80857	0.927	0.10284	0.432
Mof_N 	N 	0.4389	0.02149	0.14293	-0.17
Mof_N 	N 	0.6552	0.00021	0.17474	-0.169
Mof_N 	N 	0.502	0.21202	0.4657	-0.14
Mof_N 	N 	0.9168	0.87468	0.99828	-0.173
Mof_N 	N 	0.1242	0.89423	0.96946	-0.17
Mof_N 	N 	0.911	0.65465	0.71202	-0.184
Mof_C 	C 	0.7118	0.03427	0.2447	0.044
Mof_H 	H 	0.8532	0.0295	0.2786	0.004
Mof_C 	C 	0.5335	0.0778	0.2608	-0.074
Mof_C 	C 	0.3656	0.0671	0.1945	0.037
Mof_H 	H 	0.2203	0.089	0.1872	0.006
Mof_C 	C 	0.6914	0.1751	0.4561	0.074
Mof_H 	H 	0.8207	0.1794	0.4961	0.011
Mof_C 	C 	0.7082	0.1313	0.3912	-0.149
Mof_H 	H 	0.8458	0.1063	0.3881	0.079
Mof_C 	C 	0.524	0.12389	0.3304	0.097
Mof_C 	C 	0.3279	0.1621	0.3397	-0.151
Mof_H 	H 	0.1964	0.1588	0.3004	0.081
Mof_C 	C 	0.3258	0.2048	0.4063	0.074
Mof_H 	H 	0.1909	0.2308	0.4105	0.006
Mof_C 	C 	0.1724	0.8525	0.9094	0.043
Mof_H 	H 	0.307	0.8545	0.8793	0.007
Mof_C 	C 	0.9986	0.80573	0.897	-0.074
Mof_C 	C 	0.8393	0.82214	0.9555	0.041
Mof_H 	H 	0.6992	0.7994	0.9632	0.01
Mof_C 	C 	0.0966	0.6947	0.7164	0.089
Mof_H 	H 	0.2075	0.6892	0.6765	-0.015
Mof_C 	C 	0.1347	0.743	0.7753	-0.163
Mof_H 	H 	0.269	0.7699	0.7754	0.085
Mof_C 	C 	0.9744	0.75275	0.8357	0.105
Mof_C 	C 	0.7847	0.7098	0.8315	-0.162
Mof_H 	H 	0.6719	0.7133	0.8711	0.088
Mof_C 	C 	0.7608	0.6626	0.7705	0.087
Mof_H 	H 	0.6307	0.6341	0.7697	-0.011
_end
