data_functionalizedCrystal
_audit_creation_method	'EQeq! by Chris Wilmer'
_symmetry_space_group_name_H-M	'P1'
_symmetry_Int_Tables_number	1
_symmetry_cell_setting	triclinic
loop_
_symmetry_equiv_pos_as_xyz
  x,y,z
_cell_length_a	11.0396
_cell_length_b	12.511
_cell_length_c	22.498
_cell_angle_alpha	101.492
_cell_angle_beta	102.416
_cell_angle_gamma	95.975
loop_
_atom_site_label
_atom_site_type_symbol
_atom_site_fract_x
_atom_site_fract_y
_atom_site_fract_z
_atom_site_charge
Mof_La	La	0.30098	0.44627	0.45191	3.047
Mof_La	La	0.95974	0.63288	0.94983	2.929
Mof_La	La	0.69902	0.55373	0.54809	3.047
Mof_La	La	0.04026	0.36712	0.05017	2.929
Mof_Co	Co	0.322	0.08667	0.74261	1.173
Mof_Co	Co	0.678	0.91333	0.25739	1.173
Mof_H 	H 	0.226	0.1261	0.6122	0.039
Mof_H 	H 	0.3078	0.2339	0.5491	0.034
Mof_H 	H 	0.5964	0.3591	0.7028	0.048
Mof_H 	H 	0.6771	0.3676	0.8079	0.024
Mof_H 	H 	0.6809	0.1839	0.9333	0.023
Mof_H 	H 	0.4982	0.073	0.8685	0.034
Mof_H 	H 	0.3184	0.8496	0.774	0.031
Mof_H 	H 	0.2383	0.7723	0.8414	0.072
Mof_H 	H 	0.1501	0.0637	0.9212	0.073
Mof_H 	H 	0.1616	0.2462	0.9196	0.028
Mof_H 	H 	0.1976	0.4564	0.813	0.072
Mof_H 	H 	0.2652	0.325	0.7486	0.015
Mof_H 	H 	0.0515	0.1301	0.7179	0.021
Mof_H 	H 	0.8614	0.0407	0.6518	0.086
Mof_H 	H 	0.0421	0.7874	0.5877	0.059
Mof_H 	H 	0.231	0.746	0.5835	0.052
Mof_H 	H 	0.5989	0.8311	0.6683	0.036
Mof_H 	H 	0.5604	0.9834	0.7299	0.049
Mof_H 	H 	0.2575	0.3249	0.3184	0.235
Mof_H 	H 	0.1264	0.3171	0.3331	0.236
Mof_H 	H 	0.1612	0.6008	0.399	0.278
Mof_H 	H 	0.0692	0.489	0.3822	0.247
Mof_H 	H 	0.1192	0.3847	0.5163	0.24
Mof_H 	H 	0.2274	0.4659	0.5689	0.231
Mof_H 	H 	0.949	0.6446	0.8193	0.259
Mof_H 	H 	0.8343	0.5571	0.8147	0.224
Mof_H 	H 	0.7441	0.723	0.969	0.221
Mof_H 	H 	0.6949	0.6097	0.9182	0.222
Mof_H 	H 	0.018	0.801	0.0658	0.333
Mof_H 	H 	0.0171	0.8623	0.0232	0.543
Mof_H 	H 	0.774	0.8739	0.3878	0.039
Mof_H 	H 	0.6922	0.7661	0.4509	0.034
Mof_H 	H 	0.4036	0.6409	0.2972	0.048
Mof_H 	H 	0.3229	0.6324	0.1921	0.024
Mof_H 	H 	0.3191	0.8161	0.0667	0.023
Mof_H 	H 	0.5018	0.927	0.1315	0.034
Mof_H 	H 	0.6816	0.1504	0.226	0.031
Mof_H 	H 	0.7617	0.2277	0.1586	0.072
Mof_H 	H 	0.8499	0.9363	0.0788	0.073
Mof_H 	H 	0.8384	0.7538	0.0804	0.028
Mof_H 	H 	0.8024	0.5436	0.187	0.072
Mof_H 	H 	0.7348	0.675	0.2514	0.015
Mof_H 	H 	0.9485	0.8699	0.2821	0.021
Mof_H 	H 	0.1386	0.9593	0.3482	0.086
Mof_H 	H 	0.9579	0.2126	0.4123	0.059
Mof_H 	H 	0.769	0.254	0.4165	0.052
Mof_H 	H 	0.4011	0.1689	0.3317	0.036
Mof_H 	H 	0.4396	0.0166	0.2701	0.049
Mof_H 	H 	0.7425	0.6751	0.6816	0.235
Mof_H 	H 	0.8736	0.6829	0.6669	0.236
Mof_H 	H 	0.8388	0.3992	0.601	0.278
Mof_H 	H 	0.9308	0.511	0.6178	0.247
Mof_H 	H 	0.8808	0.6153	0.4837	0.24
Mof_H 	H 	0.7726	0.5341	0.4311	0.231
Mof_H 	H 	0.051	0.3554	0.1807	0.259
Mof_H 	H 	0.1657	0.4429	0.1853	0.224
Mof_H 	H 	0.2559	0.277	0.031	0.221
Mof_H 	H 	0.3051	0.3903	0.0818	0.222
Mof_H 	H 	0.982	0.199	0.9342	0.333
Mof_H 	H 	0.9829	0.1377	0.9768	0.543
Mof_C 	C 	0.3025	0.1724	0.629	0.005
Mof_C 	C 	0.3491	0.2402	0.5906	0.023
Mof_C 	C 	0.4551	0.3124	0.6181	-0.134
Mof_C 	C 	0.5222	0.3108	0.6836	-0.013
Mof_C 	C 	0.4774	0.2413	0.715	0.033
Mof_C 	C 	0.5347	0.2334	0.7786	0.014
Mof_C 	C 	0.6411	0.3078	0.8203	0.022
Mof_C 	C 	0.6921	0.2888	0.882	-0.187
Mof_C 	C 	0.644	0.2015	0.896	0.057
Mof_C 	C 	0.5355	0.1314	0.8554	-0.014
Mof_C 	C 	0.507	0.3919	0.5847	0.548
Mof_C 	C 	0.8047	0.3687	0.9252	0.65
Mof_C 	C 	0.2833	0.8922	0.8026	0.026
Mof_C 	C 	0.2379	0.8472	0.843	-0.036
Mof_C 	C 	0.1884	0.9113	0.8891	-0.061
Mof_C 	C 	0.1825	0.0209	0.8914	-0.048
Mof_C 	C 	0.2284	0.0651	0.846	0.056
Mof_C 	C 	0.2299	0.1824	0.8444	0.001
Mof_C 	C 	0.1855	0.2636	0.8851	0.011
Mof_C 	C 	0.1778	0.3651	0.8743	-0.133
Mof_C 	C 	0.2058	0.3882	0.8226	-0.026
Mof_C 	C 	0.2473	0.3065	0.7842	0.053
Mof_C 	C 	0.1349	0.8599	0.9327	0.39
Mof_C 	C 	0.12	0.4406	0.9152	0.503
Mof_C 	C 	0.0484	0.0627	0.6908	0.057
Mof_C 	C 	0.9332	0.0076	0.653	-0.038
Mof_C 	C 	0.9276	0.9036	0.6175	-0.069
Mof_C 	C 	0.0434	0.8554	0.6138	-0.035
Mof_C 	C 	0.1524	0.9174	0.6514	0.05
Mof_C 	C 	0.2752	0.8866	0.6506	0.015
Mof_C 	C 	0.2973	0.7949	0.6117	0.028
Mof_C 	C 	0.4221	0.7761	0.6152	-0.146
Mof_C 	C 	0.5172	0.8469	0.6627	0.032
Mof_C 	C 	0.4945	0.9367	0.7001	-0.001
Mof_C 	C 	0.8063	0.8299	0.5819	0.441
Mof_C 	C 	0.4581	0.6781	0.5742	0.622
Mof_C 	C 	0.6975	0.8276	0.371	0.005
Mof_C 	C 	0.6509	0.7598	0.4094	0.023
Mof_C 	C 	0.5449	0.6876	0.3819	-0.134
Mof_C 	C 	0.4778	0.6892	0.3164	-0.013
Mof_C 	C 	0.5226	0.7587	0.285	0.033
Mof_C 	C 	0.4653	0.7666	0.2214	0.014
Mof_C 	C 	0.3589	0.6922	0.1797	0.022
Mof_C 	C 	0.3079	0.7112	0.118	-0.187
Mof_C 	C 	0.356	0.7985	0.104	0.057
Mof_C 	C 	0.4645	0.8686	0.1446	-0.014
Mof_C 	C 	0.493	0.6081	0.4153	0.548
Mof_C 	C 	0.1953	0.6313	0.0748	0.65
Mof_C 	C 	0.7167	0.1078	0.1974	0.026
Mof_C 	C 	0.7621	0.1528	0.157	-0.036
Mof_C 	C 	0.8116	0.0887	0.1109	-0.061
Mof_C 	C 	0.8175	0.9791	0.1086	-0.048
Mof_C 	C 	0.7716	0.9349	0.154	0.056
Mof_C 	C 	0.7701	0.8176	0.1556	0.001
Mof_C 	C 	0.8145	0.7364	0.1149	0.011
Mof_C 	C 	0.8222	0.6349	0.1257	-0.133
Mof_C 	C 	0.7942	0.6118	0.1774	-0.026
Mof_C 	C 	0.7527	0.6935	0.2158	0.053
Mof_C 	C 	0.8651	0.1401	0.0673	0.39
Mof_C 	C 	0.88	0.5594	0.0848	0.503
Mof_C 	C 	0.9516	0.9373	0.3092	0.057
Mof_C 	C 	0.0668	0.9924	0.347	-0.038
Mof_C 	C 	0.0724	0.0964	0.3825	-0.069
Mof_C 	C 	0.9566	0.1446	0.3862	-0.035
Mof_C 	C 	0.8476	0.0826	0.3486	0.05
Mof_C 	C 	0.7248	0.1134	0.3494	0.015
Mof_C 	C 	0.7027	0.2051	0.3883	0.028
Mof_C 	C 	0.5779	0.2239	0.3848	-0.146
Mof_C 	C 	0.4828	0.1531	0.3373	0.032
Mof_C 	C 	0.5055	0.0633	0.2999	-0.001
Mof_C 	C 	0.1937	0.1701	0.4181	0.441
Mof_C 	C 	0.5419	0.3219	0.4258	0.622
Mof_N 	N 	0.3669	0.1735	0.6898	-0.245
Mof_N 	N 	0.4847	0.1483	0.7969	-0.228
Mof_N 	N 	0.2791	0.0063	0.80238	-0.239
Mof_N 	N 	0.2648	0.2083	0.7903	-0.241
Mof_N 	N 	0.1557	0.0211	0.6891	-0.238
Mof_N 	N 	0.3752	0.9591	0.69449	-0.223
Mof_N 	N 	0.6331	0.8265	0.3102	-0.245
Mof_N 	N 	0.5153	0.8517	0.2031	-0.228
Mof_N 	N 	0.7209	0.9937	0.19762	-0.239
Mof_N 	N 	0.7352	0.7917	0.2097	-0.241
Mof_N 	N 	0.8443	0.9789	0.3109	-0.238
Mof_N 	N 	0.6248	0.0409	0.30551	-0.223
Mof_O 	O 	0.4322	0.4103	0.53775	-0.707
Mof_O 	O 	0.6229	0.4319	0.6009	-0.63
Mof_O 	O 	0.8386	0.4517	0.90884	-0.674
Mof_O 	O 	0.855	0.3412	0.972	-0.686
Mof_O 	O 	0.0927	0.7551	0.91825	-0.55
Mof_O 	O 	0.1292	0.924	0.98311	-0.326
Mof_O 	O 	0.0942	0.4165	0.96263	-0.667
Mof_O 	O 	0.0922	0.5292	0.89667	-0.549
Mof_O 	O 	0.7128	0.8749	0.5718	-0.28
Mof_O 	O 	0.8053	0.7277	0.56146	-0.632
Mof_O 	O 	0.3639	0.6226	0.52992	-0.575
Mof_O 	O 	0.556	0.6475	0.58706	-0.728
Mof_O 	O 	0.2016	0.366	0.33751	-0.659
Mof_O 	O 	0.1321	0.5405	0.4154	-0.712
Mof_O 	O 	0.1746	0.4537	0.52642	-0.692
Mof_O 	O 	0.8805	0.6291	0.8371	-0.663
Mof_O 	O 	0.7544	0.6765	0.9307	-0.715
Mof_O 	O 	0.9789	0.8105	0.02589	-1.041
Mof_O 	O 	0.5678	0.5897	0.46225	-0.707
Mof_O 	O 	0.3771	0.5681	0.3991	-0.63
Mof_O 	O 	0.1614	0.5483	0.09116	-0.674
Mof_O 	O 	0.145	0.6588	0.028	-0.686
Mof_O 	O 	0.9073	0.2449	0.08175	-0.55
Mof_O 	O 	0.8708	0.076	0.01689	-0.326
Mof_O 	O 	0.9058	0.5835	0.03737	-0.667
Mof_O 	O 	0.9078	0.4708	0.10333	-0.549
Mof_O 	O 	0.2872	0.1251	0.4282	-0.28
Mof_O 	O 	0.1947	0.2723	0.43854	-0.632
Mof_O 	O 	0.6361	0.3774	0.47008	-0.575
Mof_O 	O 	0.444	0.3525	0.41294	-0.728
Mof_O 	O 	0.7984	0.634	0.66249	-0.659
Mof_O 	O 	0.8679	0.4595	0.5846	-0.712
Mof_O 	O 	0.8254	0.5463	0.47358	-0.692
Mof_O 	O 	0.1195	0.3709	0.1629	-0.663
Mof_O 	O 	0.2456	0.3235	0.0693	-0.715
Mof_O 	O 	0.0211	0.1895	0.97411	-1.041
Mof_N 	N 	0.8615	0.0346	0.7991	0.058
Mof_O 	O 	0.9019	0.9472	0.797	-0.126
Mof_O 	O 	0.9088	0.1171	0.8441	-0.159
Mof_O 	O 	0.7752	0.0454	0.75834	-0.126
Mof_N 	N 	0.1235	0.6053	0.7088	0.054
Mof_O 	O 	0.0385	0.6228	0.73512	-0.147
Mof_O 	O 	0.2119	0.5713	0.73845	-0.131
Mof_O 	O 	0.1254	0.6287	0.6586	-0.15
Mof_N 	N 	0.2122	0.8482	0.4616	0.055
Mof_O 	O 	0.3158	0.8961	0.4772	-0.094
Mof_O 	O 	0.1897	0.7479	0.43747	-0.135
Mof_O 	O 	0.1233	0.8988	0.46841	-0.109
Mof_N 	N 	0.1385	0.9654	0.2009	0.058
Mof_O 	O 	0.0981	0.0528	0.203	-0.126
Mof_O 	O 	0.0912	0.8829	0.1559	-0.159
Mof_O 	O 	0.2248	0.9546	0.24166	-0.126
Mof_N 	N 	0.8765	0.3947	0.2912	0.054
Mof_O 	O 	0.9615	0.3772	0.26488	-0.147
Mof_O 	O 	0.7881	0.4287	0.26155	-0.131
Mof_O 	O 	0.8746	0.3713	0.3414	-0.15
Mof_N 	N 	0.7878	0.1518	0.5384	0.055
Mof_O 	O 	0.6842	0.1039	0.5228	-0.094
Mof_O 	O 	0.8103	0.2521	0.56253	-0.135
Mof_O 	O 	0.8767	0.1012	0.53159	-0.109
_end
