data_functionalizedCrystal
_audit_creation_method	'EQeq! by Chris Wilmer'
_symmetry_space_group_name_H-M	'P1'
_symmetry_Int_Tables_number	1
_symmetry_cell_setting	triclinic
loop_
_symmetry_equiv_pos_as_xyz
  x,y,z
_cell_length_a	25.8821
_cell_length_b	25.8821
_cell_length_c	25.8821
_cell_angle_alpha	90
_cell_angle_beta	90
_cell_angle_gamma	90
loop_
_atom_site_label
_atom_site_type_symbol
_atom_site_fract_x
_atom_site_fract_y
_atom_site_fract_z
_atom_site_charge
Mof_Zn	Zn	0.2934	0.2934	0.2066	1.211
Mof_Zn	Zn	0.7066	0.7066	0.2066	1.211
Mof_Zn	Zn	0.2066	0.2066	0.2066	1.211
Mof_Zn	Zn	0.7066	0.2934	0.7934	1.211
Mof_Zn	Zn	0.2066	0.2934	0.2934	1.211
Mof_Zn	Zn	0.2934	0.7066	0.7934	1.211
Mof_Zn	Zn	0.2934	0.2066	0.2934	1.211
Mof_Zn	Zn	0.2066	0.7934	0.7934	1.211
Mof_Zn	Zn	0.2066	0.7066	0.7066	1.211
Mof_Zn	Zn	0.7934	0.7066	0.2934	1.211
Mof_Zn	Zn	0.7934	0.2066	0.7934	1.211
Mof_Zn	Zn	0.7934	0.2934	0.7066	1.211
Mof_Zn	Zn	0.7934	0.7934	0.2066	1.211
Mof_Zn	Zn	0.7066	0.2066	0.7066	1.211
Mof_Zn	Zn	0.2934	0.7934	0.7066	1.211
Mof_Zn	Zn	0.7066	0.7934	0.2934	1.211
Mof_Zn	Zn	0.2934	0.2934	0.7934	1.211
Mof_Zn	Zn	0.7066	0.7066	0.7934	1.211
Mof_Zn	Zn	0.7066	0.2066	0.2934	1.211
Mof_Zn	Zn	0.2066	0.7066	0.2934	1.211
Mof_Zn	Zn	0.2934	0.7066	0.2066	1.211
Mof_Zn	Zn	0.7066	0.2934	0.2066	1.211
Mof_Zn	Zn	0.2066	0.7934	0.2066	1.211
Mof_Zn	Zn	0.2934	0.2066	0.7066	1.211
Mof_Zn	Zn	0.2066	0.2066	0.7934	1.211
Mof_Zn	Zn	0.7066	0.7934	0.7066	1.211
Mof_Zn	Zn	0.2066	0.2934	0.7066	1.211
Mof_Zn	Zn	0.2934	0.7934	0.2934	1.211
Mof_Zn	Zn	0.7934	0.2934	0.2934	1.211
Mof_Zn	Zn	0.7934	0.7934	0.7934	1.211
Mof_Zn	Zn	0.7934	0.7066	0.7066	1.211
Mof_Zn	Zn	0.7934	0.2066	0.2066	1.211
Mof_O 	O 	0.25	0.25	0.25	-0.96
Mof_O 	O 	0.75	0.75	0.25	-0.96
Mof_O 	O 	0.75	0.25	0.75	-0.96
Mof_O 	O 	0.25	0.75	0.75	-0.96
Mof_O 	O 	0.25	0.25	0.75	-0.96
Mof_O 	O 	0.75	0.75	0.75	-0.96
Mof_O 	O 	0.75	0.25	0.25	-0.96
Mof_O 	O 	0.25	0.75	0.25	-0.96
Mof_O 	O 	0.2807	0.3661	0.2193	-0.502
Mof_C 	C 	0.2831	0.4736	0.2169	-0.004
Mof_H 	H 	0.3077	0.4522	0.1923	0.042
Mof_O 	O 	0.2807	0.8661	0.7193	-0.502
Mof_C 	C 	0.2831	0.9736	0.7169	-0.004
Mof_H 	H 	0.3077	0.9522	0.6923	0.042
Mof_O 	O 	0.7193	0.6339	0.2193	-0.502
Mof_C 	C 	0.7169	0.5264	0.2169	-0.004
Mof_H 	H 	0.6923	0.5478	0.1923	0.042
Mof_O 	O 	0.7193	0.1339	0.7193	-0.502
Mof_C 	C 	0.7169	0.0264	0.7169	-0.004
Mof_H 	H 	0.6923	0.0478	0.6923	0.042
Mof_O 	O 	0.2193	0.1339	0.2193	-0.502
Mof_C 	C 	0.2169	0.0264	0.2169	-0.004
Mof_H 	H 	0.1923	0.0478	0.1923	0.041
Mof_O 	O 	0.7193	0.3661	0.7807	-0.502
Mof_C 	C 	0.7169	0.4736	0.7831	-0.004
Mof_H 	H 	0.6923	0.4522	0.8077	0.042
Mof_O 	O 	0.7193	0.8661	0.2807	-0.502
Mof_C 	C 	0.7169	0.9736	0.2831	-0.004
Mof_H 	H 	0.6923	0.9522	0.3077	0.042
Mof_O 	O 	0.2193	0.3661	0.2807	-0.502
Mof_C 	C 	0.2169	0.4736	0.2831	-0.004
Mof_H 	H 	0.1923	0.4522	0.3077	0.042
Mof_O 	O 	0.2807	0.6339	0.7807	-0.502
Mof_C 	C 	0.2831	0.5264	0.7831	-0.004
Mof_H 	H 	0.3077	0.5478	0.8077	0.042
Mof_O 	O 	0.2807	0.1339	0.2807	-0.502
Mof_C 	C 	0.2831	0.0264	0.2831	-0.004
Mof_H 	H 	0.3077	0.0478	0.3077	0.042
Mof_O 	O 	0.2193	0.2807	0.3661	-0.502
Mof_C 	C 	0.2169	0.2831	0.4736	-0.004
Mof_H 	H 	0.1923	0.3077	0.4522	0.042
Mof_O 	O 	0.2193	0.7807	0.8661	-0.502
Mof_C 	C 	0.2169	0.7831	0.9736	-0.004
Mof_H 	H 	0.1923	0.8077	0.9522	0.041
Mof_O 	O 	0.2193	0.7193	0.6339	-0.502
Mof_C 	C 	0.2169	0.7169	0.5264	-0.004
Mof_H 	H 	0.1923	0.6923	0.5478	0.042
Mof_O 	O 	0.2193	0.2193	0.1339	-0.502
Mof_C 	C 	0.2169	0.2169	0.0264	-0.003
Mof_H 	H 	0.1923	0.1923	0.0478	0.042
Mof_O 	O 	0.7807	0.7193	0.3661	-0.501
Mof_C 	C 	0.7831	0.7169	0.4736	-0.003
Mof_H 	H 	0.8077	0.6923	0.4522	0.043
Mof_O 	O 	0.7807	0.2193	0.8661	-0.501
Mof_C 	C 	0.7831	0.2169	0.9736	-0.003
Mof_H 	H 	0.8077	0.1923	0.9522	0.042
Mof_O 	O 	0.2807	0.2193	0.3661	-0.501
Mof_C 	C 	0.2831	0.2169	0.4736	-0.003
Mof_H 	H 	0.3077	0.1923	0.4522	0.043
Mof_O 	O 	0.7807	0.2807	0.6339	-0.501
Mof_C 	C 	0.7831	0.2831	0.5264	-0.003
Mof_H 	H 	0.8077	0.3077	0.5478	0.043
Mof_O 	O 	0.7807	0.7807	0.1339	-0.501
Mof_C 	C 	0.7831	0.7831	0.0264	-0.003
Mof_H 	H 	0.8077	0.8077	0.0478	0.042
Mof_O 	O 	0.2807	0.2807	0.1339	-0.501
Mof_C 	C 	0.2831	0.2831	0.0264	-0.003
Mof_H 	H 	0.3077	0.3077	0.0478	0.043
Mof_O 	O 	0.3661	0.2193	0.2807	-0.501
Mof_C 	C 	0.4736	0.2169	0.2831	-0.003
Mof_H 	H 	0.4522	0.1923	0.3077	0.043
Mof_O 	O 	0.8661	0.2193	0.7807	-0.501
Mof_C 	C 	0.9736	0.2169	0.7831	-0.003
Mof_H 	H 	0.9522	0.1923	0.8077	0.042
Mof_O 	O 	0.6339	0.2193	0.7193	-0.501
Mof_C 	C 	0.5264	0.2169	0.7169	-0.003
Mof_H 	H 	0.5478	0.1923	0.6923	0.043
Mof_O 	O 	0.1339	0.2193	0.2193	-0.501
Mof_C 	C 	0.0264	0.2169	0.2169	-0.003
Mof_H 	H 	0.0478	0.1923	0.1923	0.042
Mof_O 	O 	0.3661	0.7807	0.7193	-0.501
Mof_C 	C 	0.4736	0.7831	0.7169	-0.003
Mof_H 	H 	0.4522	0.8077	0.6923	0.043
Mof_O 	O 	0.3661	0.2807	0.2193	-0.501
Mof_C 	C 	0.4736	0.2831	0.2169	-0.003
Mof_H 	H 	0.4522	0.3077	0.1923	0.043
Mof_O 	O 	0.8661	0.7807	0.2193	-0.501
Mof_C 	C 	0.9736	0.7831	0.2169	-0.003
Mof_H 	H 	0.9522	0.8077	0.1923	0.042
Mof_O 	O 	0.6339	0.7807	0.2807	-0.501
Mof_C 	C 	0.5264	0.7831	0.2831	-0.003
Mof_H 	H 	0.5478	0.8077	0.3077	0.043
Mof_O 	O 	0.1339	0.7807	0.7807	-0.501
Mof_C 	C 	0.0264	0.7831	0.7831	-0.003
Mof_H 	H 	0.0478	0.8077	0.8077	0.042
Mof_O 	O 	0.1339	0.2807	0.2807	-0.501
Mof_C 	C 	0.0264	0.2831	0.2831	-0.003
Mof_H 	H 	0.0478	0.3077	0.3077	0.043
Mof_O 	O 	0.3661	0.2807	0.7807	-0.501
Mof_C 	C 	0.4736	0.2831	0.7831	-0.003
Mof_H 	H 	0.4522	0.3077	0.8077	0.043
Mof_O 	O 	0.8661	0.2807	0.2807	-0.501
Mof_C 	C 	0.9736	0.2831	0.2831	-0.003
Mof_H 	H 	0.9522	0.3077	0.3077	0.043
Mof_O 	O 	0.6339	0.7193	0.7807	-0.501
Mof_C 	C 	0.5264	0.7169	0.7831	-0.003
Mof_H 	H 	0.5478	0.6923	0.8077	0.043
Mof_O 	O 	0.6339	0.2193	0.2807	-0.501
Mof_C 	C 	0.5264	0.2169	0.2831	-0.003
Mof_H 	H 	0.5478	0.1923	0.3077	0.043
Mof_O 	O 	0.1339	0.7193	0.2807	-0.501
Mof_C 	C 	0.0264	0.7169	0.2831	-0.003
Mof_H 	H 	0.0478	0.6923	0.3077	0.043
Mof_O 	O 	0.3661	0.7193	0.2193	-0.501
Mof_C 	C 	0.4736	0.7169	0.2169	-0.003
Mof_H 	H 	0.4522	0.6923	0.1923	0.043
Mof_O 	O 	0.8661	0.7193	0.7193	-0.501
Mof_C 	C 	0.9736	0.7169	0.7169	-0.003
Mof_H 	H 	0.9522	0.6923	0.6923	0.043
Mof_O 	O 	0.8661	0.2193	0.2193	-0.501
Mof_C 	C 	0.9736	0.2169	0.2169	-0.003
Mof_H 	H 	0.9522	0.1923	0.1923	0.042
Mof_O 	O 	0.6339	0.2807	0.2193	-0.501
Mof_C 	C 	0.5264	0.2831	0.2169	-0.003
Mof_H 	H 	0.5478	0.3077	0.1923	0.043
Mof_O 	O 	0.1339	0.2807	0.7193	-0.501
Mof_C 	C 	0.0264	0.2831	0.7169	-0.003
Mof_H 	H 	0.0478	0.3077	0.6923	0.043
Mof_O 	O 	0.2807	0.2193	0.6339	-0.501
Mof_C 	C 	0.2831	0.2169	0.5264	-0.003
Mof_H 	H 	0.3077	0.1923	0.5478	0.043
Mof_O 	O 	0.2807	0.7193	0.1339	-0.501
Mof_C 	C 	0.2831	0.7169	0.0264	-0.003
Mof_H 	H 	0.3077	0.6923	0.0478	0.043
Mof_O 	O 	0.7193	0.2193	0.3661	-0.501
Mof_C 	C 	0.7169	0.2169	0.4736	-0.003
Mof_H 	H 	0.6923	0.1923	0.4522	0.043
Mof_O 	O 	0.7193	0.7193	0.8661	-0.501
Mof_C 	C 	0.7169	0.7169	0.9736	-0.003
Mof_H 	H 	0.6923	0.6923	0.9522	0.043
Mof_O 	O 	0.2193	0.2193	0.8661	-0.501
Mof_C 	C 	0.2169	0.2169	0.9736	-0.003
Mof_H 	H 	0.1923	0.1923	0.9522	0.042
Mof_O 	O 	0.7193	0.7807	0.6339	-0.501
Mof_C 	C 	0.7169	0.7831	0.5264	-0.003
Mof_H 	H 	0.6923	0.8077	0.5478	0.043
Mof_O 	O 	0.7193	0.2807	0.1339	-0.501
Mof_C 	C 	0.7169	0.2831	0.0264	-0.003
Mof_H 	H 	0.6923	0.3077	0.0478	0.043
Mof_O 	O 	0.2193	0.2807	0.6339	-0.501
Mof_C 	C 	0.2169	0.2831	0.5264	-0.003
Mof_H 	H 	0.1923	0.3077	0.5478	0.043
Mof_O 	O 	0.2807	0.7807	0.3661	-0.501
Mof_C 	C 	0.2831	0.7831	0.4736	-0.003
Mof_H 	H 	0.3077	0.8077	0.4522	0.043
Mof_O 	O 	0.2807	0.2807	0.8661	-0.501
Mof_C 	C 	0.2831	0.2831	0.9736	-0.003
Mof_H 	H 	0.3077	0.3077	0.9522	0.043
Mof_O 	O 	0.2193	0.3661	0.7193	-0.501
Mof_C 	C 	0.2169	0.4736	0.7169	-0.003
Mof_H 	H 	0.1923	0.4522	0.6923	0.043
Mof_O 	O 	0.2193	0.8661	0.2193	-0.501
Mof_C 	C 	0.2169	0.9736	0.2169	-0.003
Mof_H 	H 	0.1923	0.9522	0.1923	0.042
Mof_O 	O 	0.2193	0.6339	0.2807	-0.501
Mof_C 	C 	0.2169	0.5264	0.2831	-0.003
Mof_H 	H 	0.1923	0.5478	0.3077	0.043
Mof_O 	O 	0.2193	0.1339	0.7807	-0.501
Mof_C 	C 	0.2169	0.0264	0.7831	-0.003
Mof_H 	H 	0.1923	0.0478	0.8077	0.042
Mof_O 	O 	0.7807	0.3661	0.2807	-0.501
Mof_C 	C 	0.7831	0.4736	0.2831	-0.003
Mof_H 	H 	0.8077	0.4522	0.3077	0.043
Mof_O 	O 	0.7807	0.8661	0.7807	-0.501
Mof_C 	C 	0.7831	0.9736	0.7831	-0.003
Mof_H 	H 	0.8077	0.9522	0.8077	0.042
Mof_O 	O 	0.2807	0.8661	0.2807	-0.501
Mof_C 	C 	0.2831	0.9736	0.2831	-0.003
Mof_H 	H 	0.3077	0.9522	0.3077	0.043
Mof_O 	O 	0.7807	0.6339	0.7193	-0.501
Mof_C 	C 	0.7831	0.5264	0.7169	-0.003
Mof_H 	H 	0.8077	0.5478	0.6923	0.043
Mof_O 	O 	0.7807	0.1339	0.2193	-0.501
Mof_C 	C 	0.7831	0.0264	0.2169	-0.003
Mof_H 	H 	0.8077	0.0478	0.1923	0.042
Mof_O 	O 	0.2807	0.6339	0.2193	-0.501
Mof_C 	C 	0.2831	0.5264	0.2169	-0.003
Mof_H 	H 	0.3077	0.5478	0.1923	0.043
Mof_O 	O 	0.7193	0.6339	0.7807	-0.501
Mof_C 	C 	0.7169	0.5264	0.7831	-0.003
Mof_H 	H 	0.6923	0.5478	0.8077	0.043
Mof_O 	O 	0.7193	0.1339	0.2807	-0.501
Mof_C 	C 	0.7169	0.0264	0.2831	-0.003
Mof_H 	H 	0.6923	0.0478	0.3077	0.043
Mof_O 	O 	0.2807	0.3661	0.7807	-0.501
Mof_C 	C 	0.2831	0.4736	0.7831	-0.003
Mof_H 	H 	0.3077	0.4522	0.8077	0.043
Mof_O 	O 	0.2807	0.1339	0.7193	-0.501
Mof_C 	C 	0.2831	0.0264	0.7169	-0.003
Mof_H 	H 	0.3077	0.0478	0.6923	0.043
Mof_O 	O 	0.7193	0.3661	0.2193	-0.501
Mof_C 	C 	0.7169	0.4736	0.2169	-0.003
Mof_H 	H 	0.6923	0.4522	0.1923	0.043
Mof_O 	O 	0.7193	0.8661	0.7193	-0.501
Mof_C 	C 	0.7169	0.9736	0.7169	-0.003
Mof_H 	H 	0.6923	0.9522	0.6923	0.043
Mof_O 	O 	0.7807	0.7193	0.6339	-0.501
Mof_C 	C 	0.7831	0.7169	0.5264	-0.003
Mof_H 	H 	0.8077	0.6923	0.5478	0.043
Mof_O 	O 	0.7807	0.2193	0.1339	-0.501
Mof_C 	C 	0.7831	0.2169	0.0264	-0.003
Mof_H 	H 	0.8077	0.1923	0.0478	0.042
Mof_O 	O 	0.7807	0.2807	0.3661	-0.501
Mof_C 	C 	0.7831	0.2831	0.4736	-0.003
Mof_H 	H 	0.8077	0.3077	0.4522	0.043
Mof_O 	O 	0.7807	0.7807	0.8661	-0.501
Mof_C 	C 	0.7831	0.7831	0.9736	-0.003
Mof_H 	H 	0.8077	0.8077	0.9522	0.042
Mof_O 	O 	0.2193	0.7807	0.1339	-0.501
Mof_C 	C 	0.2169	0.7831	0.0264	-0.003
Mof_H 	H 	0.1923	0.8077	0.0478	0.042
Mof_O 	O 	0.2193	0.7193	0.3661	-0.501
Mof_C 	C 	0.2169	0.7169	0.4736	-0.003
Mof_H 	H 	0.1923	0.6923	0.4522	0.043
Mof_O 	O 	0.6339	0.7807	0.7193	-0.501
Mof_C 	C 	0.5264	0.7831	0.7169	-0.003
Mof_H 	H 	0.5478	0.8077	0.6923	0.043
Mof_O 	O 	0.1339	0.7807	0.2193	-0.501
Mof_C 	C 	0.0264	0.7831	0.2169	-0.003
Mof_H 	H 	0.0478	0.8077	0.1923	0.042
Mof_O 	O 	0.3661	0.7807	0.2807	-0.501
Mof_C 	C 	0.4736	0.7831	0.2831	-0.003
Mof_H 	H 	0.4522	0.8077	0.3077	0.043
Mof_O 	O 	0.8661	0.7807	0.7807	-0.501
Mof_C 	C 	0.9736	0.7831	0.7831	-0.003
Mof_H 	H 	0.9522	0.8077	0.8077	0.042
Mof_O 	O 	0.1339	0.2193	0.7807	-0.501
Mof_C 	C 	0.0264	0.2169	0.7831	-0.003
Mof_H 	H 	0.0478	0.1923	0.8077	0.042
Mof_O 	O 	0.3661	0.2193	0.7193	-0.501
Mof_C 	C 	0.4736	0.2169	0.7169	-0.003
Mof_H 	H 	0.4522	0.1923	0.6923	0.043
Mof_O 	O 	0.6339	0.7193	0.2193	-0.501
Mof_C 	C 	0.5264	0.7169	0.2169	-0.003
Mof_H 	H 	0.5478	0.6923	0.1923	0.043
Mof_O 	O 	0.1339	0.7193	0.7193	-0.501
Mof_C 	C 	0.0264	0.7169	0.7169	-0.003
Mof_H 	H 	0.0478	0.6923	0.6923	0.043
Mof_O 	O 	0.8661	0.2807	0.7193	-0.501
Mof_C 	C 	0.9736	0.2831	0.7169	-0.003
Mof_H 	H 	0.9522	0.3077	0.6923	0.043
Mof_O 	O 	0.6339	0.2807	0.7807	-0.501
Mof_C 	C 	0.5264	0.2831	0.7831	-0.003
Mof_H 	H 	0.5478	0.3077	0.8077	0.043
Mof_O 	O 	0.3661	0.7193	0.7807	-0.501
Mof_C 	C 	0.4736	0.7169	0.7831	-0.003
Mof_H 	H 	0.4522	0.6923	0.8077	0.043
Mof_O 	O 	0.8661	0.7193	0.2807	-0.501
Mof_C 	C 	0.9736	0.7169	0.2831	-0.003
Mof_H 	H 	0.9522	0.6923	0.3077	0.043
Mof_O 	O 	0.7193	0.7807	0.3661	-0.501
Mof_C 	C 	0.7169	0.7831	0.4736	-0.003
Mof_H 	H 	0.6923	0.8077	0.4522	0.043
Mof_O 	O 	0.7193	0.2807	0.8661	-0.501
Mof_C 	C 	0.7169	0.2831	0.9736	-0.003
Mof_H 	H 	0.6923	0.3077	0.9522	0.043
Mof_O 	O 	0.2807	0.7807	0.6339	-0.501
Mof_C 	C 	0.2831	0.7831	0.5264	-0.003
Mof_H 	H 	0.3077	0.8077	0.5478	0.043
Mof_O 	O 	0.2807	0.7193	0.8661	-0.501
Mof_C 	C 	0.2831	0.7169	0.9736	-0.003
Mof_H 	H 	0.3077	0.6923	0.9522	0.043
Mof_O 	O 	0.7193	0.2193	0.6339	-0.501
Mof_C 	C 	0.7169	0.2169	0.5264	-0.003
Mof_H 	H 	0.6923	0.1923	0.5478	0.043
Mof_O 	O 	0.7193	0.7193	0.1339	-0.501
Mof_C 	C 	0.7169	0.7169	0.0264	-0.003
Mof_H 	H 	0.6923	0.6923	0.0478	0.043
Mof_O 	O 	0.7807	0.6339	0.2807	-0.501
Mof_C 	C 	0.7831	0.5264	0.2831	-0.003
Mof_H 	H 	0.8077	0.5478	0.3077	0.043
Mof_O 	O 	0.7807	0.1339	0.7807	-0.501
Mof_C 	C 	0.7831	0.0264	0.7831	-0.003
Mof_H 	H 	0.8077	0.0478	0.8077	0.042
Mof_O 	O 	0.7807	0.3661	0.7193	-0.501
Mof_C 	C 	0.7831	0.4736	0.7169	-0.003
Mof_H 	H 	0.8077	0.4522	0.6923	0.043
Mof_O 	O 	0.7807	0.8661	0.2193	-0.501
Mof_C 	C 	0.7831	0.9736	0.2169	-0.003
Mof_H 	H 	0.8077	0.9522	0.1923	0.042
Mof_O 	O 	0.2193	0.6339	0.7193	-0.501
Mof_C 	C 	0.2169	0.5264	0.7169	-0.003
Mof_H 	H 	0.1923	0.5478	0.6923	0.043
Mof_O 	O 	0.2193	0.8661	0.7807	-0.501
Mof_C 	C 	0.2169	0.9736	0.7831	-0.003
Mof_H 	H 	0.1923	0.9522	0.8077	0.042
Mof_C 	C 	0.25	0.3895	0.25	0.381
Mof_C 	C 	0.25	0.4452	0.25	-0.105
Mof_C 	C 	0.25	0.8895	0.75	0.381
Mof_C 	C 	0.25	0.9452	0.75	-0.105
Mof_C 	C 	0.75	0.6105	0.25	0.381
Mof_C 	C 	0.75	0.5548	0.25	-0.105
Mof_C 	C 	0.75	0.1105	0.75	0.381
Mof_C 	C 	0.75	0.0548	0.75	-0.105
Mof_C 	C 	0.25	0.1105	0.25	0.381
Mof_C 	C 	0.25	0.0548	0.25	-0.105
Mof_C 	C 	0.75	0.3895	0.75	0.381
Mof_C 	C 	0.75	0.4452	0.75	-0.105
Mof_C 	C 	0.75	0.8895	0.25	0.381
Mof_C 	C 	0.75	0.9452	0.25	-0.105
Mof_C 	C 	0.25	0.6105	0.75	0.381
Mof_C 	C 	0.25	0.5548	0.75	-0.105
Mof_C 	C 	0.25	0.25	0.3895	0.381
Mof_C 	C 	0.25	0.25	0.4452	-0.105
Mof_C 	C 	0.25	0.75	0.8895	0.381
Mof_C 	C 	0.25	0.75	0.9452	-0.105
Mof_C 	C 	0.25	0.75	0.6105	0.381
Mof_C 	C 	0.25	0.75	0.5548	-0.105
Mof_C 	C 	0.25	0.25	0.1105	0.381
Mof_C 	C 	0.25	0.25	0.0548	-0.105
Mof_C 	C 	0.75	0.75	0.3895	0.381
Mof_C 	C 	0.75	0.75	0.4452	-0.105
Mof_C 	C 	0.75	0.25	0.8895	0.381
Mof_C 	C 	0.75	0.25	0.9452	-0.105
Mof_C 	C 	0.75	0.25	0.6105	0.381
Mof_C 	C 	0.75	0.25	0.5548	-0.105
Mof_C 	C 	0.75	0.75	0.1105	0.381
Mof_C 	C 	0.75	0.75	0.0548	-0.105
Mof_C 	C 	0.3895	0.25	0.25	0.381
Mof_C 	C 	0.4452	0.25	0.25	-0.105
Mof_C 	C 	0.8895	0.25	0.75	0.381
Mof_C 	C 	0.9452	0.25	0.75	-0.105
Mof_C 	C 	0.6105	0.25	0.75	0.381
Mof_C 	C 	0.5548	0.25	0.75	-0.105
Mof_C 	C 	0.1105	0.25	0.25	0.381
Mof_C 	C 	0.0548	0.25	0.25	-0.105
Mof_C 	C 	0.3895	0.75	0.75	0.381
Mof_C 	C 	0.4452	0.75	0.75	-0.105
Mof_C 	C 	0.8895	0.75	0.25	0.381
Mof_C 	C 	0.9452	0.75	0.25	-0.105
Mof_C 	C 	0.6105	0.75	0.25	0.381
Mof_C 	C 	0.5548	0.75	0.25	-0.105
Mof_C 	C 	0.1105	0.75	0.75	0.381
Mof_C 	C 	0.0548	0.75	0.75	-0.105
Mof_C 	C 	0.3895	0.25	0.75	0.381
Mof_C 	C 	0.4452	0.25	0.75	-0.105
Mof_C 	C 	0.8895	0.25	0.25	0.381
Mof_C 	C 	0.9452	0.25	0.25	-0.105
Mof_C 	C 	0.6105	0.75	0.75	0.381
Mof_C 	C 	0.5548	0.75	0.75	-0.105
Mof_C 	C 	0.6105	0.25	0.25	0.381
Mof_C 	C 	0.5548	0.25	0.25	-0.105
Mof_C 	C 	0.1105	0.75	0.25	0.381
Mof_C 	C 	0.0548	0.75	0.25	-0.105
Mof_C 	C 	0.3895	0.75	0.25	0.381
Mof_C 	C 	0.4452	0.75	0.25	-0.105
Mof_C 	C 	0.8895	0.75	0.75	0.381
Mof_C 	C 	0.9452	0.75	0.75	-0.105
Mof_C 	C 	0.1105	0.25	0.75	0.381
Mof_C 	C 	0.0548	0.25	0.75	-0.105
Mof_C 	C 	0.25	0.25	0.6105	0.381
Mof_C 	C 	0.25	0.25	0.5548	-0.105
Mof_C 	C 	0.25	0.75	0.1105	0.381
Mof_C 	C 	0.25	0.75	0.0548	-0.105
Mof_C 	C 	0.75	0.25	0.3895	0.381
Mof_C 	C 	0.75	0.25	0.4452	-0.105
Mof_C 	C 	0.75	0.75	0.8895	0.381
Mof_C 	C 	0.75	0.75	0.9452	-0.105
Mof_C 	C 	0.25	0.25	0.8895	0.381
Mof_C 	C 	0.25	0.25	0.9452	-0.105
Mof_C 	C 	0.75	0.75	0.6105	0.381
Mof_C 	C 	0.75	0.75	0.5548	-0.105
Mof_C 	C 	0.75	0.25	0.1105	0.381
Mof_C 	C 	0.75	0.25	0.0548	-0.105
Mof_C 	C 	0.25	0.75	0.3895	0.381
Mof_C 	C 	0.25	0.75	0.4452	-0.105
Mof_C 	C 	0.25	0.3895	0.75	0.381
Mof_C 	C 	0.25	0.4452	0.75	-0.105
Mof_C 	C 	0.25	0.8895	0.25	0.381
Mof_C 	C 	0.25	0.9452	0.25	-0.105
Mof_C 	C 	0.25	0.6105	0.25	0.381
Mof_C 	C 	0.25	0.5548	0.25	-0.105
Mof_C 	C 	0.25	0.1105	0.75	0.381
Mof_C 	C 	0.25	0.0548	0.75	-0.105
Mof_C 	C 	0.75	0.3895	0.25	0.381
Mof_C 	C 	0.75	0.4452	0.25	-0.105
Mof_C 	C 	0.75	0.8895	0.75	0.381
Mof_C 	C 	0.75	0.9452	0.75	-0.105
Mof_C 	C 	0.75	0.6105	0.75	0.381
Mof_C 	C 	0.75	0.5548	0.75	-0.105
Mof_C 	C 	0.75	0.1105	0.25	0.381
Mof_C 	C 	0.75	0.0548	0.25	-0.105
_end
