# CIF file generated by openbabel 3.1.0, see https://openbabel.org
data_I
_chemical_name_common 'image0'
_cell_length_a 10.6186
_cell_length_b 15.7795
_cell_length_c 14.162
_cell_angle_alpha 90
_cell_angle_beta 130.43
_cell_angle_gamma 90
_space_group_name_H-M_alt 'P 1'
_space_group_name_Hall 'P 1'
loop_
    _symmetry_equiv_pos_as_xyz
    x,y,z
loop_
    _atom_site_label
    _atom_site_type_symbol
    _atom_site_fract_x
    _atom_site_fract_y
    _atom_site_fract_z
    _atom_site_occupancy
    C1       C        0.99410    0.44450    0.38410    1.000
    H1       H        0.99140    0.42190    0.44340    1.000
    C2       C        0.08590    0.48970    0.29620    1.000
    C3       C        0.91380    0.49430    0.21200    1.000
    C4       C        0.21570    0.51150    0.29030    1.000
    C5       C        0.78420    0.52410    0.08160    1.000
    C6       C        0.48060    0.24630    0.58350    1.000
    H2       H        0.45200    0.24170    0.50620    1.000
    C7       C        0.52400    0.29880    0.74180    1.000
    C8       C        0.55930    0.21260    0.76150    1.000
    C9       C        0.52590    0.36320    0.81780    1.000
    C10      C        0.61320    0.15780    0.86370    1.000
    N1       N        0.13410    0.45830    0.40560    1.000
    N2       N        0.85860    0.46560    0.27100    1.000
    N3       N        0.47270    0.31910    0.62780    1.000
    N4       N        0.53350    0.18080    0.66120    1.000
    O1       O        0.18490    0.54180    0.19590    1.000
    O2       O        0.36270    0.49720    0.38850    1.000
    O3       O        0.81400    0.53960    0.01200    1.000
    O4       O        0.64360    0.53310    0.04830    1.000
    O5       O        0.46450    0.43440    0.76660    1.000
    O6       O        0.58190    0.34460    0.92490    1.000
    O7       O        0.64100    0.18960    0.96010    1.000
    H3       H        0.62340    0.24070    0.95050    1.000
    O8       O        0.62860    0.08100    0.85590    1.000
    Cd1      Cd       0.40641    0.45657    0.57049    1.000
    Cd2      Cd       0.42036    0.54315    0.84355    1.000
    C11      C        0.00590    0.94450    0.11590    1.000
    H4       H        0.00860    0.92190    0.05660    1.000
    C12      C        0.91410    0.98970    0.20380    1.000
    C13      C        0.08620    0.99430    0.28800    1.000
    C14      C        0.78430    0.01150    0.20970    1.000
    C15      C        0.21580    0.02410    0.41840    1.000
    C16      C        0.51940    0.74630    0.91650    1.000
    H5       H        0.54800    0.74170    0.99380    1.000
    C17      C        0.47600    0.79880    0.75820    1.000
    C18      C        0.44070    0.71260    0.73850    1.000
    C19      C        0.47410    0.86320    0.68220    1.000
    C20      C        0.38680    0.65780    0.63630    1.000
    N5       N        0.86590    0.95830    0.09440    1.000
    N6       N        0.14140    0.96560    0.22900    1.000
    N7       N        0.52730    0.81910    0.87220    1.000
    N8       N        0.46650    0.68080    0.83880    1.000
    O9       O        0.81510    0.04180    0.30410    1.000
    O10      O        0.63730    0.99720    0.11150    1.000
    O11      O        0.18600    0.03960    0.48800    1.000
    O12      O        0.35640    0.03310    0.45170    1.000
    O13      O        0.53550    0.93440    0.73340    1.000
    O14      O        0.41810    0.84460    0.57510    1.000
    O15      O        0.35900    0.68960    0.53990    1.000
    H6       H        0.37660    0.74070    0.54950    1.000
    O16      O        0.37140    0.58100    0.64410    1.000
    Cd3      Cd       0.59359    0.95657    0.92951    1.000
    Cd4      Cd       0.57964    0.04315    0.65645    1.000
    C21      C        0.00590    0.55550    0.61590    1.000
    H7       H        0.00860    0.57810    0.55660    1.000
    C22      C        0.91410    0.51030    0.70380    1.000
    C23      C        0.08620    0.50570    0.78800    1.000
    C24      C        0.78430    0.48850    0.70970    1.000
    C25      C        0.21580    0.47590    0.91840    1.000
    C26      C        0.51940    0.75370    0.41650    1.000
    H8       H        0.54800    0.75830    0.49380    1.000
    C27      C        0.47600    0.70120    0.25820    1.000
    C28      C        0.44070    0.78740    0.23850    1.000
    C29      C        0.47410    0.63680    0.18220    1.000
    C30      C        0.38680    0.84220    0.13630    1.000
    N9       N        0.86590    0.54170    0.59440    1.000
    N10      N        0.14140    0.53440    0.72900    1.000
    N11      N        0.52730    0.68090    0.37220    1.000
    N12      N        0.46650    0.81920    0.33880    1.000
    O17      O        0.81510    0.45820    0.80410    1.000
    O18      O        0.63730    0.50280    0.61150    1.000
    O19      O        0.18600    0.46040    0.98800    1.000
    O20      O        0.35640    0.46690    0.95170    1.000
    O21      O        0.53550    0.56560    0.23340    1.000
    O22      O        0.41810    0.65540    0.07510    1.000
    O23      O        0.35900    0.81040    0.03990    1.000
    H9       H        0.37660    0.75930    0.04950    1.000
    O24      O        0.37140    0.91900    0.14410    1.000
    Cd5      Cd       0.59359    0.54343    0.42951    1.000
    Cd6      Cd       0.57964    0.45685    0.15645    1.000
    C31      C        0.99410    0.05550    0.88410    1.000
    H10      H        0.99140    0.07810    0.94340    1.000
    C32      C        0.08590    0.01030    0.79620    1.000
    C33      C        0.91380    0.00570    0.71200    1.000
    C34      C        0.21570    0.98850    0.79030    1.000
    C35      C        0.78420    0.97590    0.58160    1.000
    C36      C        0.48060    0.25370    0.08350    1.000
    H11      H        0.45200    0.25830    0.00620    1.000
    C37      C        0.52400    0.20120    0.24180    1.000
    C38      C        0.55930    0.28740    0.26150    1.000
    C39      C        0.52590    0.13680    0.31780    1.000
    C40      C        0.61320    0.34220    0.36370    1.000
    N13      N        0.13410    0.04170    0.90560    1.000
    N14      N        0.85860    0.03440    0.77100    1.000
    N15      N        0.47270    0.18090    0.12780    1.000
    N16      N        0.53350    0.31920    0.16120    1.000
    O25      O        0.18490    0.95820    0.69590    1.000
    O26      O        0.36270    0.00280    0.88850    1.000
    O27      O        0.81400    0.96040    0.51200    1.000
    O28      O        0.64360    0.96690    0.54830    1.000
    O29      O        0.46450    0.06560    0.26660    1.000
    O30      O        0.58190    0.15540    0.42490    1.000
    O31      O        0.64100    0.31040    0.46010    1.000
    H12      H        0.62340    0.25930    0.45050    1.000
    O32      O        0.62860    0.41900    0.35590    1.000
    Cd7      Cd       0.40641    0.04343    0.07049    1.000
    Cd8      Cd       0.42036    0.95685    0.34355    1.000
    Cd9      Cd       0.00000    0.50000    0.00000    1.000
    Cd10     Cd       0.00000    0.00000    0.50000    1.000
