# CIF file generated by openbabel 3.1.0, see https://openbabel.org
data_I
_chemical_name_common 'MOCHOC_clean'
_cell_length_a 6.5619
_cell_length_b 6.9442
_cell_length_c 7.7412
_cell_angle_alpha 111.369
_cell_angle_beta 95.495
_cell_angle_gamma 90.824
_space_group_name_H-M_alt 'P 1'
_space_group_name_Hall 'P 1'
loop_
    _symmetry_equiv_pos_as_xyz
    x,y,z
loop_
    _atom_site_label
    _atom_site_type_symbol
    _atom_site_fract_x
    _atom_site_fract_y
    _atom_site_fract_z
    _atom_site_occupancy
    Eu1      Eu       0.87298    0.77892    0.06735    1.000
    Eu2      Eu       0.12702    0.22108    0.93265    1.000
    P1       P        0.32828    0.74820    0.97960    1.000
    P2       P        0.67172    0.25180    0.02040    1.000
    H1       H        0.36220    0.72040    0.79780    1.000
    H2       H        0.63780    0.27960    0.20220    1.000
    C1       C        0.05900    0.90540    0.50150    1.000
    C2       C        0.94100    0.09460    0.49850    1.000
    O1       O        0.19890    0.94070    0.03480    1.000
    O2       O        0.52570    0.77460    0.10380    1.000
    O3       O        0.18180    0.57220    0.97460    1.000
    O4       O        0.05190    0.75650    0.34870    1.000
    O5       O        0.84550    0.08070    0.34730    1.000
    O6       O        0.80110    0.05930    0.96520    1.000
    O7       O        0.47430    0.22540    0.89620    1.000
    O8       O        0.81820    0.42780    0.02540    1.000
    O9       O        0.94810    0.24350    0.65130    1.000
    O10      O        0.15450    0.91930    0.65270    1.000
