data_functionalizedCrystal
_audit_creation_method	'EQeq! by Chris Wilmer'
_symmetry_space_group_name_H-M	'P1'
_symmetry_Int_Tables_number	1
_symmetry_cell_setting	triclinic
loop_
_symmetry_equiv_pos_as_xyz
  x,y,z
_cell_length_a	8.9121
_cell_length_b	9.1697
_cell_length_c	9.1697
_cell_angle_alpha	76.3404
_cell_angle_beta	60.9249
_cell_angle_gamma	60.9249
loop_
_atom_site_label
_atom_site_type_symbol
_atom_site_fract_x
_atom_site_fract_y
_atom_site_fract_z
_atom_site_charge
Mof_K 	K 	0.875	0.25	0.25	2.715
Mof_K 	K 	0.125	0.75	0.75	2.715
Mof_Lu	Lu	0.375	0.25	0.25	3.609
Mof_Lu	Lu	0.625	0.75	0.75	3.609
Mof_C 	C 	0.3958	0.0211	0.0267	0.314
Mof_C 	C 	0.9436	0.4789	0.4733	0.302
Mof_C 	C 	0.4225	0.9733	0.5211	0.301
Mof_C 	C 	0.4169	0.5267	0.9789	0.301
Mof_C 	C 	0.6042	0.9789	0.9733	0.314
Mof_C 	C 	0.0564	0.5211	0.5267	0.302
Mof_C 	C 	0.5775	0.0267	0.4789	0.301
Mof_C 	C 	0.5831	0.4733	0.0211	0.301
Mof_O 	O 	0.27334	0.12546	0.14026	-0.992
Mof_O 	O 	0.36826	0.94384	0.95124	-0.9
Mof_O 	O 	0.03906	0.37454	0.35974	-0.988
Mof_O 	O 	0.76334	0.55616	0.54876	-0.892
Mof_O 	O 	0.4136	0.85974	0.62546	-0.998
Mof_O 	O 	0.3195	0.04876	0.44384	-0.887
Mof_O 	O 	0.3988	0.64026	0.87454	-0.998
Mof_O 	O 	0.3121	0.45124	0.05616	-0.887
Mof_O 	O 	0.72666	0.87454	0.85974	-0.992
Mof_O 	O 	0.63174	0.05616	0.04876	-0.9
Mof_O 	O 	0.96094	0.62546	0.64026	-0.988
Mof_O 	O 	0.23666	0.44384	0.45124	-0.892
Mof_O 	O 	0.5864	0.14026	0.37454	-0.998
Mof_O 	O 	0.6805	0.95124	0.55616	-0.887
Mof_O 	O 	0.6012	0.35974	0.12546	-0.998
Mof_O 	O 	0.6879	0.54876	0.94384	-0.887
_end
