data_functionalizedCrystal
_audit_creation_method	'EQeq! by Chris Wilmer'
_symmetry_space_group_name_H-M	'P1'
_symmetry_Int_Tables_number	1
_symmetry_cell_setting	triclinic
loop_
_symmetry_equiv_pos_as_xyz
  x,y,z
_cell_length_a	31.3109
_cell_length_b	31.3109
_cell_length_c	31.4977
_cell_angle_alpha	60.1959
_cell_angle_beta	60.1959
_cell_angle_gamma	90
loop_
_atom_site_label
_atom_site_type_symbol
_atom_site_fract_x
_atom_site_fract_y
_atom_site_fract_z
_atom_site_charge
Mof_Cu	Cu	0.73215	0.48225	0.7456	0.917
Mof_Cu	Cu	0.80948	0.47425	0.66368	0.906
Mof_Cu	Cu	0.52225	0.77215	0.7456	0.917
Mof_Cu	Cu	0.52684	0.86207	0.66368	0.906
Mof_Cu	Cu	0.48225	0.52225	0.7456	0.917
Mof_Cu	Cu	0.47425	0.52684	0.66368	0.906
Mof_Cu	Cu	0.77215	0.73215	0.7456	0.917
Mof_Cu	Cu	0.86207	0.80948	0.66368	0.906
Mof_Cu	Cu	0.26785	0.51775	0.2544	0.914
Mof_Cu	Cu	0.19052	0.52575	0.33632	0.906
Mof_Cu	Cu	0.47775	0.22785	0.2544	0.914
Mof_Cu	Cu	0.47316	0.13793	0.33632	0.906
Mof_Cu	Cu	0.51775	0.47775	0.2544	0.913
Mof_Cu	Cu	0.52575	0.47316	0.33632	0.905
Mof_Cu	Cu	0.22785	0.26785	0.2544	0.913
Mof_Cu	Cu	0.13793	0.19052	0.33632	0.904
Mof_Cu	Cu	0.74948	0.46148	-0	0.875
Mof_Cu	Cu	0.8335	0.44979	-0	0.878
Mof_Cu	Cu	0.25052	0.53852	-0	0.875
Mof_Cu	Cu	0.1665	0.55021	-0	0.877
Mof_Cu	Cu	0.46148	0.25052	-0	0.875
Mof_Cu	Cu	0.44979	0.1665	-0	0.877
Mof_Cu	Cu	0.53852	0.74948	-0	0.875
Mof_Cu	Cu	0.55021	0.8335	-0	0.878
Mof_H 	H 	0.37	0.4598	0.452	0.093
Mof_H 	H 	0.2033	0.4583	0.5498	0.033
Mof_H 	H 	0.1332	0.4578	0.634	0.08
Mof_H 	H 	0.0884	0.459	0.7752	0.081
Mof_H 	H 	0.2328	0.4609	0.6796	0.08
Mof_H 	H 	0.256	0.4882	0.7286	0.032
Mof_H 	H 	0.3086	0.4948	0.754	0.072
Mof_H 	H 	0.3281	0.5161	0.857	0.06
Mof_H 	H 	0.1886	0.4953	0.8894	0.099
Mof_H 	H 	0.785	0.4468	0.8574	0.075
Mof_H 	H 	0.907	0.4218	0.8632	0.09
Mof_H 	H 	0.8991	0.4348	0.7348	0.091
Mof_H 	H 	0.0069	0.4609	0.785	0.05
Mof_H 	H 	0.3565	0.4746	0.3262	0.067
Mof_H 	H 	0.2402	0.482	0.4548	0.078
Mof_H 	H 	0.178	0.0882	0.452	0.091
Mof_H 	H 	0.2469	0.9919	0.5498	0.033
Mof_H 	H 	0.2328	0.9082	0.634	0.082
Mof_H 	H 	0.1364	0.7658	0.7752	0.082
Mof_H 	H 	0.0876	0.8595	0.6796	0.079
Mof_H 	H 	0.0154	0.7832	0.7286	0.033
Mof_H 	H 	0.9374	0.7512	0.754	0.073
Mof_H 	H 	0.8149	0.6269	0.857	0.061
Mof_H 	H 	0.922	0.6153	0.8894	0.101
Mof_H 	H 	0.3576	0.6958	0.8574	0.075
Mof_H 	H 	0.2298	0.715	0.8632	0.089
Mof_H 	H 	0.3661	0.8304	0.7348	0.091
Mof_H 	H 	0.2081	0.7541	0.785	0.049
Mof_H 	H 	0.3173	0.1992	0.3262	0.067
Mof_H 	H 	0.305	0.0632	0.4548	0.077
Mof_H 	H 	0.4598	0.178	0.452	0.092
Mof_H 	H 	0.4583	0.2469	0.5498	0.034
Mof_H 	H 	0.4578	0.2328	0.634	0.081
Mof_H 	H 	0.459	0.1364	0.7752	0.081
Mof_H 	H 	0.4609	0.0876	0.6796	0.079
Mof_H 	H 	0.4882	0.0154	0.7286	0.033
Mof_H 	H 	0.4948	0.9374	0.754	0.073
Mof_H 	H 	0.5161	0.8149	0.857	0.06
Mof_H 	H 	0.4953	0.922	0.8894	0.1
Mof_H 	H 	0.4468	0.3576	0.8574	0.075
Mof_H 	H 	0.4218	0.2298	0.8632	0.089
Mof_H 	H 	0.4348	0.3661	0.7348	0.091
Mof_H 	H 	0.4609	0.2081	0.785	0.049
Mof_H 	H 	0.4746	0.3173	0.3262	0.067
Mof_H 	H 	0.482	0.305	0.4548	0.079
Mof_H 	H 	0.0882	0.37	0.452	0.092
Mof_H 	H 	0.9919	0.2033	0.5498	0.032
Mof_H 	H 	0.9082	0.1332	0.634	0.081
Mof_H 	H 	0.7658	0.0884	0.7752	0.081
Mof_H 	H 	0.8595	0.2328	0.6796	0.08
Mof_H 	H 	0.7832	0.256	0.7286	0.033
Mof_H 	H 	0.7512	0.3086	0.754	0.072
Mof_H 	H 	0.6269	0.3281	0.857	0.06
Mof_H 	H 	0.6153	0.1886	0.8894	0.099
Mof_H 	H 	0.6958	0.785	0.8574	0.075
Mof_H 	H 	0.715	0.907	0.8632	0.09
Mof_H 	H 	0.8304	0.8991	0.7348	0.092
Mof_H 	H 	0.7541	0.0069	0.785	0.05
Mof_H 	H 	0.1992	0.3565	0.3262	0.067
Mof_H 	H 	0.0632	0.2402	0.4548	0.077
Mof_H 	H 	0.63	0.5402	0.548	0.093
Mof_H 	H 	0.7967	0.5417	0.4502	0.033
Mof_H 	H 	0.8668	0.5422	0.366	0.079
Mof_H 	H 	0.9116	0.541	0.2248	0.075
Mof_H 	H 	0.7672	0.5391	0.3204	0.077
Mof_H 	H 	0.744	0.5118	0.2714	0.032
Mof_H 	H 	0.6914	0.5052	0.246	0.067
Mof_H 	H 	0.6719	0.4839	0.143	0.045
Mof_H 	H 	0.8114	0.5047	0.1106	0.078
Mof_H 	H 	0.215	0.5532	0.1426	0.06
Mof_H 	H 	0.093	0.5782	0.1368	0.071
Mof_H 	H 	0.1009	0.5652	0.2652	0.085
Mof_H 	H 	0.9931	0.5391	0.215	0.044
Mof_H 	H 	0.6435	0.5254	0.6738	0.071
Mof_H 	H 	0.7598	0.518	0.5452	0.079
Mof_H 	H 	0.822	0.9118	0.548	0.094
Mof_H 	H 	0.7531	0.0081	0.4502	0.034
Mof_H 	H 	0.7672	0.0918	0.366	0.078
Mof_H 	H 	0.8636	0.2342	0.2248	0.074
Mof_H 	H 	0.9124	0.1405	0.3204	0.077
Mof_H 	H 	0.9846	0.2168	0.2714	0.031
Mof_H 	H 	0.0626	0.2488	0.246	0.066
Mof_H 	H 	0.1851	0.3731	0.143	0.045
Mof_H 	H 	0.078	0.3847	0.1106	0.077
Mof_H 	H 	0.6424	0.3042	0.1426	0.06
Mof_H 	H 	0.7702	0.285	0.1368	0.072
Mof_H 	H 	0.6339	0.1696	0.2652	0.085
Mof_H 	H 	0.7919	0.2459	0.215	0.045
Mof_H 	H 	0.6827	0.8008	0.6738	0.071
Mof_H 	H 	0.695	0.9368	0.5452	0.08
Mof_H 	H 	0.5402	0.822	0.548	0.093
Mof_H 	H 	0.5417	0.7531	0.4502	0.033
Mof_H 	H 	0.5422	0.7672	0.366	0.079
Mof_H 	H 	0.541	0.8636	0.2248	0.074
Mof_H 	H 	0.5391	0.9124	0.3204	0.077
Mof_H 	H 	0.5118	0.9846	0.2714	0.031
Mof_H 	H 	0.5052	0.0626	0.246	0.066
Mof_H 	H 	0.4839	0.1851	0.143	0.045
Mof_H 	H 	0.5047	0.078	0.1106	0.077
Mof_H 	H 	0.5532	0.6424	0.1426	0.06
Mof_H 	H 	0.5782	0.7702	0.1368	0.072
Mof_H 	H 	0.5652	0.6339	0.2652	0.086
Mof_H 	H 	0.5391	0.7919	0.215	0.045
Mof_H 	H 	0.5254	0.6827	0.6738	0.071
Mof_H 	H 	0.518	0.695	0.5452	0.079
Mof_H 	H 	0.9118	0.63	0.548	0.094
Mof_H 	H 	0.0081	0.7967	0.4502	0.034
Mof_H 	H 	0.0918	0.8668	0.366	0.078
Mof_H 	H 	0.2342	0.9116	0.2248	0.074
Mof_H 	H 	0.1405	0.7672	0.3204	0.076
Mof_H 	H 	0.2168	0.744	0.2714	0.032
Mof_H 	H 	0.2488	0.6914	0.246	0.067
Mof_H 	H 	0.3731	0.6719	0.143	0.045
Mof_H 	H 	0.3847	0.8114	0.1106	0.078
Mof_H 	H 	0.3042	0.215	0.1426	0.059
Mof_H 	H 	0.285	0.093	0.1368	0.07
Mof_H 	H 	0.1696	0.1009	0.2652	0.084
Mof_H 	H 	0.2459	0.9931	0.215	0.044
Mof_H 	H 	0.8008	0.6435	0.6738	0.071
Mof_H 	H 	0.9368	0.7598	0.5452	0.08
Mof_C 	C 	0.4287	0.4709	0.3486	0.359
Mof_C 	C 	0.3723	0.4742	0.3832	-0.026
Mof_C 	C 	0.3519	0.467	0.434	-0.086
Mof_C 	C 	0.3038	0.4702	0.4608	0.101
Mof_C 	C 	0.2316	0.4611	0.5526	0.018
Mof_C 	C 	0.2316	0.4597	0.5998	0.064
Mof_C 	C 	0.1871	0.4491	0.6544	0.045
Mof_C 	C 	0.1374	0.4498	0.6644	-0.105
Mof_C 	C 	0.0999	0.4403	0.712	0.05
Mof_C 	C 	0.1149	0.4569	0.7448	-0.096
Mof_C 	C 	0.1616	0.4676	0.7318	0.053
Mof_C 	C 	0.1996	0.4593	0.687	-0.092
Mof_C 	C 	0.169	0.4712	0.769	0.041
Mof_C 	C 	0.2231	0.4837	0.759	0.024
Mof_C 	C 	0.2393	0.497	0.82	0.107
Mof_C 	C 	0.2962	0.5008	0.7838	-0.047
Mof_C 	C 	0.3301	0.5138	0.797	-0.08
Mof_C 	C 	0.3083	0.5174	0.842	0.026
Mof_C 	C 	0.2596	0.5231	0.8714	-0.052
Mof_C 	C 	0.2245	0.5037	0.8626	-0.075
Mof_C 	C 	0.2406	0.5305	0.9186	0.326
Mof_C 	C 	0.812	0.4585	0.7608	0.313
Mof_C 	C 	0.8399	0.4454	0.79	-0.03
Mof_C 	C 	0.8186	0.4443	0.8396	-0.014
Mof_C 	C 	0.8465	0.4393	0.866	-0.033
Mof_C 	C 	0.8916	0.4319	0.842	-0.077
Mof_C 	C 	0.9176	0.438	0.788	0.106
Mof_C 	C 	0.8866	0.4388	0.7662	-0.07
Mof_C 	C 	0.8262	0.4392	0.9166	0.284
Mof_C 	C 	0.005	0.4444	0.7676	-0.023
Mof_C 	C 	0.3808	0.518	0.7638	0.304
Mof_C 	C 	0.0436	0.4299	0.7322	0.08
Mof_C 	C 	0.3438	0.4779	0.358	-0.023
Mof_C 	C 	0.298	0.4862	0.3818	-0.038
Mof_C 	C 	0.2738	0.48	0.4356	-0.071
Mof_C 	C 	0.2723	0.4967	0.3518	0.298
Mof_C 	C 	0.2227	0.1805	0.3486	0.359
Mof_C 	C 	0.2445	0.1426	0.3832	-0.027
Mof_C 	C 	0.2141	0.099	0.434	-0.086
Mof_C 	C 	0.2354	0.069	0.4608	0.1
Mof_C 	C 	0.2158	0.9863	0.5526	0.026
Mof_C 	C 	0.1686	0.9405	0.5998	0.062
Mof_C 	C 	0.1585	0.8965	0.6544	0.047
Mof_C 	C 	0.1982	0.8858	0.6644	-0.107
Mof_C 	C 	0.1881	0.8477	0.712	0.052
Mof_C 	C 	0.1403	0.7983	0.7448	-0.097
Mof_C 	C 	0.1066	0.8006	0.7318	0.053
Mof_C 	C 	0.1134	0.8537	0.687	-0.093
Mof_C 	C 	0.062	0.7598	0.769	0.042
Mof_C 	C 	0.0179	0.7573	0.759	0.017
Mof_C 	C 	0.9407	0.683	0.82	0.108
Mof_C 	C 	0.92	0.7154	0.7838	-0.047
Mof_C 	C 	0.8729	0.6892	0.797	-0.079
Mof_C 	C 	0.8497	0.6406	0.842	0.026
Mof_C 	C 	0.869	0.6055	0.8714	-0.052
Mof_C 	C 	0.9129	0.6337	0.8626	-0.075
Mof_C 	C 	0.8408	0.5509	0.9186	0.326
Mof_C 	C 	0.4272	0.7807	0.7608	0.313
Mof_C 	C 	0.3701	0.7646	0.79	-0.03
Mof_C 	C 	0.3418	0.7161	0.8396	-0.014
Mof_C 	C 	0.2875	0.6947	0.866	-0.034
Mof_C 	C 	0.2664	0.7261	0.842	-0.077
Mof_C 	C 	0.2944	0.774	0.788	0.105
Mof_C 	C 	0.3472	0.795	0.7662	-0.07
Mof_C 	C 	0.2572	0.6442	0.9166	0.284
Mof_C 	C 	0.2274	0.788	0.7676	-0.016
Mof_C 	C 	0.8554	0.7182	0.7638	0.304
Mof_C 	C 	0.2242	0.8379	0.7322	0.078
Mof_C 	C 	0.2982	0.1641	0.358	-0.023
Mof_C 	C 	0.3202	0.132	0.3818	-0.039
Mof_C 	C 	0.2906	0.0844	0.4356	-0.071
Mof_C 	C 	0.3759	0.1515	0.3518	0.298
Mof_C 	C 	0.4709	0.2227	0.3486	0.359
Mof_C 	C 	0.4742	0.2445	0.3832	-0.026
Mof_C 	C 	0.467	0.2141	0.434	-0.086
Mof_C 	C 	0.4702	0.2354	0.4608	0.101
Mof_C 	C 	0.4611	0.2158	0.5526	0.018
Mof_C 	C 	0.4597	0.1686	0.5998	0.064
Mof_C 	C 	0.4491	0.1585	0.6544	0.045
Mof_C 	C 	0.4498	0.1982	0.6644	-0.106
Mof_C 	C 	0.4403	0.1881	0.712	0.051
Mof_C 	C 	0.4569	0.1403	0.7448	-0.096
Mof_C 	C 	0.4676	0.1066	0.7318	0.052
Mof_C 	C 	0.4593	0.1134	0.687	-0.092
Mof_C 	C 	0.4712	0.062	0.769	0.042
Mof_C 	C 	0.4837	0.0179	0.759	0.017
Mof_C 	C 	0.497	0.9407	0.82	0.108
Mof_C 	C 	0.5008	0.92	0.7838	-0.047
Mof_C 	C 	0.5138	0.8729	0.797	-0.08
Mof_C 	C 	0.5174	0.8497	0.842	0.026
Mof_C 	C 	0.5231	0.869	0.8714	-0.052
Mof_C 	C 	0.5037	0.9129	0.8626	-0.075
Mof_C 	C 	0.5305	0.8408	0.9186	0.326
Mof_C 	C 	0.4585	0.4272	0.7608	0.313
Mof_C 	C 	0.4454	0.3701	0.79	-0.031
Mof_C 	C 	0.4443	0.3418	0.8396	-0.014
Mof_C 	C 	0.4393	0.2875	0.866	-0.034
Mof_C 	C 	0.4319	0.2664	0.842	-0.077
Mof_C 	C 	0.438	0.2944	0.788	0.104
Mof_C 	C 	0.4388	0.3472	0.7662	-0.07
Mof_C 	C 	0.4392	0.2572	0.9166	0.284
Mof_C 	C 	0.4444	0.2274	0.7676	-0.016
Mof_C 	C 	0.518	0.8554	0.7638	0.304
Mof_C 	C 	0.4299	0.2242	0.7322	0.078
Mof_C 	C 	0.4779	0.2982	0.358	-0.023
Mof_C 	C 	0.4862	0.3202	0.3818	-0.038
Mof_C 	C 	0.48	0.2906	0.4356	-0.071
Mof_C 	C 	0.4967	0.3759	0.3518	0.298
Mof_C 	C 	0.1805	0.4287	0.3486	0.359
Mof_C 	C 	0.1426	0.3723	0.3832	-0.027
Mof_C 	C 	0.099	0.3519	0.434	-0.086
Mof_C 	C 	0.069	0.3038	0.4608	0.1
Mof_C 	C 	0.9863	0.2316	0.5526	0.026
Mof_C 	C 	0.9405	0.2316	0.5998	0.062
Mof_C 	C 	0.8965	0.1871	0.6544	0.047
Mof_C 	C 	0.8858	0.1374	0.6644	-0.106
Mof_C 	C 	0.8477	0.0999	0.712	0.051
Mof_C 	C 	0.7983	0.1149	0.7448	-0.097
Mof_C 	C 	0.8006	0.1616	0.7318	0.054
Mof_C 	C 	0.8537	0.1996	0.687	-0.093
Mof_C 	C 	0.7598	0.169	0.769	0.041
Mof_C 	C 	0.7573	0.2231	0.759	0.024
Mof_C 	C 	0.683	0.2393	0.82	0.107
Mof_C 	C 	0.7154	0.2962	0.7838	-0.047
Mof_C 	C 	0.6892	0.3301	0.797	-0.08
Mof_C 	C 	0.6406	0.3083	0.842	0.026
Mof_C 	C 	0.6055	0.2596	0.8714	-0.052
Mof_C 	C 	0.6337	0.2245	0.8626	-0.075
Mof_C 	C 	0.5509	0.2406	0.9186	0.326
Mof_C 	C 	0.7807	0.812	0.7608	0.313
Mof_C 	C 	0.7646	0.8399	0.79	-0.03
Mof_C 	C 	0.7161	0.8186	0.8396	-0.014
Mof_C 	C 	0.6947	0.8465	0.866	-0.033
Mof_C 	C 	0.7261	0.8916	0.842	-0.078
Mof_C 	C 	0.774	0.9176	0.788	0.106
Mof_C 	C 	0.795	0.8866	0.7662	-0.071
Mof_C 	C 	0.6442	0.8262	0.9166	0.284
Mof_C 	C 	0.788	0.005	0.7676	-0.022
Mof_C 	C 	0.7182	0.3808	0.7638	0.304
Mof_C 	C 	0.8379	0.0436	0.7322	0.08
Mof_C 	C 	0.1641	0.3438	0.358	-0.023
Mof_C 	C 	0.132	0.298	0.3818	-0.039
Mof_C 	C 	0.0844	0.2738	0.4356	-0.071
Mof_C 	C 	0.1515	0.2723	0.3518	0.298
Mof_C 	C 	0.5713	0.5291	0.6514	0.357
Mof_C 	C 	0.6277	0.5258	0.6168	-0.024
Mof_C 	C 	0.6481	0.533	0.566	-0.088
Mof_C 	C 	0.6962	0.5298	0.5392	0.102
Mof_C 	C 	0.7684	0.5389	0.4474	0.017
Mof_C 	C 	0.7684	0.5403	0.4002	0.064
Mof_C 	C 	0.8129	0.5509	0.3456	0.041
Mof_C 	C 	0.8626	0.5502	0.3356	-0.104
Mof_C 	C 	0.9001	0.5597	0.288	0.045
Mof_C 	C 	0.8851	0.5431	0.2552	-0.097
Mof_C 	C 	0.8384	0.5324	0.2682	0.048
Mof_C 	C 	0.8004	0.5407	0.313	-0.092
Mof_C 	C 	0.831	0.5288	0.231	0.039
Mof_C 	C 	0.7769	0.5163	0.241	0.018
Mof_C 	C 	0.7607	0.503	0.18	0.092
Mof_C 	C 	0.7038	0.4992	0.2162	-0.044
Mof_C 	C 	0.6699	0.4862	0.203	-0.095
Mof_C 	C 	0.6917	0.4826	0.158	0.036
Mof_C 	C 	0.7404	0.4769	0.1286	-0.076
Mof_C 	C 	0.7755	0.4963	0.1374	-0.067
Mof_C 	C 	0.7594	0.4695	0.0814	0.336
Mof_C 	C 	0.188	0.5415	0.2392	0.317
Mof_C 	C 	0.1601	0.5546	0.21	-0.046
Mof_C 	C 	0.1814	0.5557	0.1604	-0.005
Mof_C 	C 	0.1535	0.5607	0.134	-0.058
Mof_C 	C 	0.1084	0.5681	0.158	-0.066
Mof_C 	C 	0.0824	0.562	0.212	0.091
Mof_C 	C 	0.1134	0.5612	0.2338	-0.064
Mof_C 	C 	0.1738	0.5608	0.0834	0.288
Mof_C 	C 	0.995	0.5556	0.2324	-0.014
Mof_C 	C 	0.6192	0.482	0.2362	0.307
Mof_C 	C 	0.9564	0.5701	0.2678	0.073
Mof_C 	C 	0.6562	0.5221	0.642	-0.025
Mof_C 	C 	0.702	0.5138	0.6182	-0.036
Mof_C 	C 	0.7262	0.52	0.5644	-0.073
Mof_C 	C 	0.7277	0.5033	0.6482	0.296
Mof_C 	C 	0.7773	0.8195	0.6514	0.357
Mof_C 	C 	0.7555	0.8574	0.6168	-0.023
Mof_C 	C 	0.7859	0.901	0.566	-0.088
Mof_C 	C 	0.7646	0.931	0.5392	0.103
Mof_C 	C 	0.7842	0.0137	0.4474	0.008
Mof_C 	C 	0.8314	0.0595	0.4002	0.066
Mof_C 	C 	0.8415	0.1035	0.3456	0.038
Mof_C 	C 	0.8018	0.1142	0.3356	-0.102
Mof_C 	C 	0.8119	0.1523	0.288	0.043
Mof_C 	C 	0.8597	0.2017	0.2552	-0.097
Mof_C 	C 	0.8934	0.1994	0.2682	0.048
Mof_C 	C 	0.8866	0.1463	0.313	-0.092
Mof_C 	C 	0.938	0.2402	0.231	0.038
Mof_C 	C 	0.9821	0.2427	0.241	0.024
Mof_C 	C 	0.0593	0.317	0.18	0.091
Mof_C 	C 	0.08	0.2846	0.2162	-0.044
Mof_C 	C 	0.1271	0.3108	0.203	-0.095
Mof_C 	C 	0.1503	0.3594	0.158	0.037
Mof_C 	C 	0.131	0.3945	0.1286	-0.077
Mof_C 	C 	0.0871	0.3663	0.1374	-0.067
Mof_C 	C 	0.1592	0.4491	0.0814	0.337
Mof_C 	C 	0.5728	0.2193	0.2392	0.317
Mof_C 	C 	0.6299	0.2354	0.21	-0.046
Mof_C 	C 	0.6582	0.2839	0.1604	-0.005
Mof_C 	C 	0.7125	0.3053	0.134	-0.057
Mof_C 	C 	0.7336	0.2739	0.158	-0.067
Mof_C 	C 	0.7056	0.226	0.212	0.092
Mof_C 	C 	0.6528	0.205	0.2338	-0.064
Mof_C 	C 	0.7428	0.3558	0.0834	0.288
Mof_C 	C 	0.7726	0.212	0.2324	-0.021
Mof_C 	C 	0.1446	0.2818	0.2362	0.307
Mof_C 	C 	0.7758	0.1621	0.2678	0.074
Mof_C 	C 	0.7018	0.8359	0.642	-0.026
Mof_C 	C 	0.6798	0.868	0.6182	-0.035
Mof_C 	C 	0.7094	0.9156	0.5644	-0.073
Mof_C 	C 	0.6241	0.8485	0.6482	0.296
Mof_C 	C 	0.5291	0.7773	0.6514	0.357
Mof_C 	C 	0.5258	0.7555	0.6168	-0.024
Mof_C 	C 	0.533	0.7859	0.566	-0.088
Mof_C 	C 	0.5298	0.7646	0.5392	0.102
Mof_C 	C 	0.5389	0.7842	0.4474	0.017
Mof_C 	C 	0.5403	0.8314	0.4002	0.064
Mof_C 	C 	0.5509	0.8415	0.3456	0.041
Mof_C 	C 	0.5502	0.8018	0.3356	-0.104
Mof_C 	C 	0.5597	0.8119	0.288	0.045
Mof_C 	C 	0.5431	0.8597	0.2552	-0.097
Mof_C 	C 	0.5324	0.8934	0.2682	0.049
Mof_C 	C 	0.5407	0.8866	0.313	-0.093
Mof_C 	C 	0.5288	0.938	0.231	0.038
Mof_C 	C 	0.5163	0.9821	0.241	0.025
Mof_C 	C 	0.503	0.0593	0.18	0.091
Mof_C 	C 	0.4992	0.08	0.2162	-0.044
Mof_C 	C 	0.4862	0.1271	0.203	-0.095
Mof_C 	C 	0.4826	0.1503	0.158	0.037
Mof_C 	C 	0.4769	0.131	0.1286	-0.077
Mof_C 	C 	0.4963	0.0871	0.1374	-0.067
Mof_C 	C 	0.4695	0.1592	0.0814	0.337
Mof_C 	C 	0.5415	0.5728	0.2392	0.317
Mof_C 	C 	0.5546	0.6299	0.21	-0.045
Mof_C 	C 	0.5557	0.6582	0.1604	-0.005
Mof_C 	C 	0.5607	0.7125	0.134	-0.057
Mof_C 	C 	0.5681	0.7336	0.158	-0.067
Mof_C 	C 	0.562	0.7056	0.212	0.092
Mof_C 	C 	0.5612	0.6528	0.2338	-0.064
Mof_C 	C 	0.5608	0.7428	0.0834	0.288
Mof_C 	C 	0.5556	0.7726	0.2324	-0.02
Mof_C 	C 	0.482	0.1446	0.2362	0.307
Mof_C 	C 	0.5701	0.7758	0.2678	0.074
Mof_C 	C 	0.5221	0.7018	0.642	-0.026
Mof_C 	C 	0.5138	0.6798	0.6182	-0.036
Mof_C 	C 	0.52	0.7094	0.5644	-0.073
Mof_C 	C 	0.5033	0.6241	0.6482	0.296
Mof_C 	C 	0.8195	0.5713	0.6514	0.357
Mof_C 	C 	0.8574	0.6277	0.6168	-0.023
Mof_C 	C 	0.901	0.6481	0.566	-0.088
Mof_C 	C 	0.931	0.6962	0.5392	0.102
Mof_C 	C 	0.0137	0.7684	0.4474	0.008
Mof_C 	C 	0.0595	0.7684	0.4002	0.066
Mof_C 	C 	0.1035	0.8129	0.3456	0.038
Mof_C 	C 	0.1142	0.8626	0.3356	-0.103
Mof_C 	C 	0.1523	0.9001	0.288	0.044
Mof_C 	C 	0.2017	0.8851	0.2552	-0.097
Mof_C 	C 	0.1994	0.8384	0.2682	0.048
Mof_C 	C 	0.1463	0.8004	0.313	-0.092
Mof_C 	C 	0.2402	0.831	0.231	0.039
Mof_C 	C 	0.2427	0.7769	0.241	0.018
Mof_C 	C 	0.317	0.7607	0.18	0.092
Mof_C 	C 	0.2846	0.7038	0.2162	-0.044
Mof_C 	C 	0.3108	0.6699	0.203	-0.095
Mof_C 	C 	0.3594	0.6917	0.158	0.037
Mof_C 	C 	0.3945	0.7404	0.1286	-0.076
Mof_C 	C 	0.3663	0.7755	0.1374	-0.067
Mof_C 	C 	0.4491	0.7594	0.0814	0.336
Mof_C 	C 	0.2193	0.188	0.2392	0.317
Mof_C 	C 	0.2354	0.1601	0.21	-0.046
Mof_C 	C 	0.2839	0.1814	0.1604	-0.004
Mof_C 	C 	0.3053	0.1535	0.134	-0.058
Mof_C 	C 	0.2739	0.1084	0.158	-0.066
Mof_C 	C 	0.226	0.0824	0.212	0.091
Mof_C 	C 	0.205	0.1134	0.2338	-0.064
Mof_C 	C 	0.3558	0.1738	0.0834	0.288
Mof_C 	C 	0.212	0.995	0.2324	-0.015
Mof_C 	C 	0.2818	0.6192	0.2362	0.307
Mof_C 	C 	0.1621	0.9564	0.2678	0.073
Mof_C 	C 	0.8359	0.6562	0.642	-0.026
Mof_C 	C 	0.868	0.702	0.6182	-0.035
Mof_C 	C 	0.9156	0.7262	0.5644	-0.073
Mof_C 	C 	0.8485	0.7277	0.6482	0.296
Mof_N 	N 	0.2764	0.4666	0.518	-0.095
Mof_N 	N 	0.3131	0.4835	0.5262	-0.045
Mof_N 	N 	0.2737	0.4655	0.5846	-0.087
Mof_N 	N 	0.1371	0.4572	0.8228	-0.07
Mof_N 	N 	0.1593	0.4611	0.8476	-0.034
Mof_N 	N 	0.2106	0.4861	0.803	-0.099
Mof_N 	N 	0.9646	0.4266	0.768	-0.084
Mof_N 	N 	0.9805	0.4159	0.7264	-0.038
Mof_N 	N 	0.0306	0.4161	0.7114	-0.091
Mof_N 	N 	0.2056	0.0154	0.518	-0.1
Mof_N 	N 	0.1607	0.9903	0.5262	-0.043
Mof_N 	N 	0.1417	0.9499	0.5846	-0.086
Mof_N 	N 	0.0401	0.72	0.8228	-0.072
Mof_N 	N 	0.9931	0.6913	0.8476	-0.03
Mof_N 	N 	0.9864	0.7109	0.803	-0.096
Mof_N 	N 	0.2674	0.8054	0.768	-0.087
Mof_N 	N 	0.2931	0.8577	0.7264	-0.04
Mof_N 	N 	0.258	0.8725	0.7114	-0.087
Mof_N 	N 	0.4666	0.2056	0.518	-0.095
Mof_N 	N 	0.4835	0.1607	0.5262	-0.046
Mof_N 	N 	0.4655	0.1417	0.5846	-0.087
Mof_N 	N 	0.4572	0.0401	0.8228	-0.072
Mof_N 	N 	0.4611	0.9931	0.8476	-0.031
Mof_N 	N 	0.4861	0.9864	0.803	-0.096
Mof_N 	N 	0.4266	0.2674	0.768	-0.087
Mof_N 	N 	0.4159	0.2931	0.7264	-0.041
Mof_N 	N 	0.4161	0.258	0.7114	-0.088
Mof_N 	N 	0.0154	0.2764	0.518	-0.1
Mof_N 	N 	0.9903	0.3131	0.5262	-0.042
Mof_N 	N 	0.9499	0.2737	0.5846	-0.086
Mof_N 	N 	0.72	0.1371	0.8228	-0.069
Mof_N 	N 	0.6913	0.1593	0.8476	-0.034
Mof_N 	N 	0.7109	0.2106	0.803	-0.099
Mof_N 	N 	0.8054	0.9646	0.768	-0.084
Mof_N 	N 	0.8577	0.9805	0.7264	-0.037
Mof_N 	N 	0.8725	0.0306	0.7114	-0.09
Mof_N 	N 	0.7236	0.5334	0.482	-0.095
Mof_N 	N 	0.6869	0.5165	0.4738	-0.046
Mof_N 	N 	0.7263	0.5345	0.4154	-0.089
Mof_N 	N 	0.8629	0.5428	0.1772	-0.08
Mof_N 	N 	0.8407	0.5389	0.1524	-0.048
Mof_N 	N 	0.7894	0.5139	0.197	-0.099
Mof_N 	N 	0.0354	0.5734	0.232	-0.092
Mof_N 	N 	0.0195	0.5841	0.2736	-0.048
Mof_N 	N 	0.9694	0.5839	0.2886	-0.089
Mof_N 	N 	0.7944	0.9846	0.482	-0.089
Mof_N 	N 	0.8393	0.0097	0.4738	-0.049
Mof_N 	N 	0.8583	0.0501	0.4154	-0.09
Mof_N 	N 	0.9599	0.28	0.1772	-0.078
Mof_N 	N 	0.0069	0.3087	0.1524	-0.051
Mof_N 	N 	0.0136	0.2891	0.197	-0.102
Mof_N 	N 	0.7326	0.1946	0.232	-0.089
Mof_N 	N 	0.7069	0.1423	0.2736	-0.046
Mof_N 	N 	0.742	0.1275	0.2886	-0.092
Mof_N 	N 	0.5334	0.7944	0.482	-0.095
Mof_N 	N 	0.5165	0.8393	0.4738	-0.046
Mof_N 	N 	0.5345	0.8583	0.4154	-0.088
Mof_N 	N 	0.5428	0.9599	0.1772	-0.078
Mof_N 	N 	0.5389	0.0069	0.1524	-0.051
Mof_N 	N 	0.5139	0.0136	0.197	-0.102
Mof_N 	N 	0.5734	0.7326	0.232	-0.089
Mof_N 	N 	0.5841	0.7069	0.2736	-0.045
Mof_N 	N 	0.5839	0.742	0.2886	-0.091
Mof_N 	N 	0.9846	0.7236	0.482	-0.089
Mof_N 	N 	0.0097	0.6869	0.4738	-0.049
Mof_N 	N 	0.0501	0.7263	0.4154	-0.09
Mof_N 	N 	0.28	0.8629	0.1772	-0.08
Mof_N 	N 	0.3087	0.8407	0.1524	-0.048
Mof_N 	N 	0.2891	0.7894	0.197	-0.099
Mof_N 	N 	0.1946	0.0354	0.232	-0.092
Mof_N 	N 	0.1423	0.0195	0.2736	-0.048
Mof_N 	N 	0.1275	0.9694	0.2886	-0.089
Mof_O 	O 	0.44716	0.47502	0.30316	-0.431
Mof_O 	O 	0.45148	0.464	0.3756	-0.397
Mof_O 	O 	0.76732	0.45854	0.78664	-0.387
Mof_O 	O 	0.83589	0.45632	0.71316	-0.371
Mof_O 	O 	0.41313	0.52049	0.78038	-0.376
Mof_O 	O 	0.40188	0.51707	0.71606	-0.374
Mof_O 	O 	0.29175	0.49721	0.3047	-0.389
Mof_O 	O 	0.22777	0.50673	0.37494	-0.365
Mof_O 	O 	0.77831	0.44673	0.93934	-0.327
Mof_O 	O 	0.8519	0.4384	0.9382	-0.348
Mof_O 	O 	0.26797	0.52692	0.93946	-0.362
Mof_O 	O 	0.19559	0.53514	0.94036	-0.358
Mof_O 	O 	0.24968	0.22182	0.30316	-0.431
Mof_O 	O 	0.17292	0.1604	0.3756	-0.398
Mof_O 	O 	0.44604	0.75482	0.78664	-0.387
Mof_O 	O 	0.45095	0.83052	0.71316	-0.371
Mof_O 	O 	0.80649	0.69913	0.78038	-0.376
Mof_O 	O 	0.88206	0.76687	0.71606	-0.373
Mof_O 	O 	0.40355	0.19809	0.3047	-0.389
Mof_O 	O 	0.39729	0.11833	0.37494	-0.365
Mof_O 	O 	0.28235	0.61393	0.93934	-0.327
Mof_O 	O 	0.2099	0.6234	0.9382	-0.349
Mof_O 	O 	0.79257	0.53362	0.93946	-0.361
Mof_O 	O 	0.86405	0.5245	0.94036	-0.356
Mof_O 	O 	0.47502	0.24968	0.30316	-0.431
Mof_O 	O 	0.464	0.17292	0.3756	-0.397
Mof_O 	O 	0.45854	0.44604	0.78664	-0.387
Mof_O 	O 	0.45632	0.45095	0.71316	-0.372
Mof_O 	O 	0.52049	0.80649	0.78038	-0.376
Mof_O 	O 	0.51707	0.88206	0.71606	-0.373
Mof_O 	O 	0.49721	0.40355	0.3047	-0.389
Mof_O 	O 	0.50673	0.39729	0.37494	-0.365
Mof_O 	O 	0.44673	0.28235	0.93934	-0.327
Mof_O 	O 	0.4384	0.2099	0.9382	-0.349
Mof_O 	O 	0.52692	0.79257	0.93946	-0.361
Mof_O 	O 	0.53514	0.86405	0.94036	-0.356
Mof_O 	O 	0.22182	0.44716	0.30316	-0.431
Mof_O 	O 	0.1604	0.45148	0.3756	-0.397
Mof_O 	O 	0.75482	0.76732	0.78664	-0.387
Mof_O 	O 	0.83052	0.83589	0.71316	-0.371
Mof_O 	O 	0.69913	0.41313	0.78038	-0.376
Mof_O 	O 	0.76687	0.40188	0.71606	-0.373
Mof_O 	O 	0.19809	0.29175	0.3047	-0.389
Mof_O 	O 	0.11833	0.22777	0.37494	-0.366
Mof_O 	O 	0.61393	0.77831	0.93934	-0.327
Mof_O 	O 	0.6234	0.8519	0.9382	-0.348
Mof_O 	O 	0.53362	0.26797	0.93946	-0.361
Mof_O 	O 	0.5245	0.19559	0.94036	-0.358
Mof_O 	O 	0.55284	0.52498	0.69684	-0.427
Mof_O 	O 	0.54852	0.536	0.6244	-0.397
Mof_O 	O 	0.23268	0.54146	0.21336	-0.399
Mof_O 	O 	0.16411	0.54368	0.28684	-0.375
Mof_O 	O 	0.58687	0.47951	0.21962	-0.385
Mof_O 	O 	0.59812	0.48293	0.28394	-0.377
Mof_O 	O 	0.70825	0.50279	0.6953	-0.385
Mof_O 	O 	0.77223	0.49327	0.62506	-0.364
Mof_O 	O 	0.22169	0.55327	0.06066	-0.377
Mof_O 	O 	0.1481	0.5616	0.0618	-0.397
Mof_O 	O 	0.73203	0.47308	0.06054	-0.412
Mof_O 	O 	0.80441	0.46486	0.05964	-0.408
Mof_O 	O 	0.75032	0.77818	0.69684	-0.427
Mof_O 	O 	0.82708	0.8396	0.6244	-0.396
Mof_O 	O 	0.55396	0.24518	0.21336	-0.399
Mof_O 	O 	0.54905	0.16948	0.28684	-0.375
Mof_O 	O 	0.19351	0.30087	0.21962	-0.386
Mof_O 	O 	0.11794	0.23313	0.28394	-0.378
Mof_O 	O 	0.59645	0.80191	0.6953	-0.385
Mof_O 	O 	0.60271	0.88167	0.62506	-0.364
Mof_O 	O 	0.71765	0.38607	0.06066	-0.376
Mof_O 	O 	0.7901	0.3766	0.0618	-0.396
Mof_O 	O 	0.20743	0.46638	0.06054	-0.413
Mof_O 	O 	0.13595	0.4755	0.05964	-0.409
Mof_O 	O 	0.52498	0.75032	0.69684	-0.427
Mof_O 	O 	0.536	0.82708	0.6244	-0.396
Mof_O 	O 	0.54146	0.55396	0.21336	-0.398
Mof_O 	O 	0.54368	0.54905	0.28684	-0.375
Mof_O 	O 	0.47951	0.19351	0.21962	-0.386
Mof_O 	O 	0.48293	0.11794	0.28394	-0.377
Mof_O 	O 	0.50279	0.59645	0.6953	-0.385
Mof_O 	O 	0.49327	0.60271	0.62506	-0.365
Mof_O 	O 	0.55327	0.71765	0.06066	-0.376
Mof_O 	O 	0.5616	0.7901	0.0618	-0.396
Mof_O 	O 	0.47308	0.20743	0.06054	-0.413
Mof_O 	O 	0.46486	0.13595	0.05964	-0.409
Mof_O 	O 	0.77818	0.55284	0.69684	-0.427
Mof_O 	O 	0.8396	0.54852	0.6244	-0.396
Mof_O 	O 	0.24518	0.23268	0.21336	-0.399
Mof_O 	O 	0.16948	0.16411	0.28684	-0.376
Mof_O 	O 	0.30087	0.58687	0.21962	-0.386
Mof_O 	O 	0.23313	0.59812	0.28394	-0.377
Mof_O 	O 	0.80191	0.70825	0.6953	-0.385
Mof_O 	O 	0.88167	0.77223	0.62506	-0.364
Mof_O 	O 	0.38607	0.22169	0.06066	-0.377
Mof_O 	O 	0.3766	0.1481	0.0618	-0.397
Mof_O 	O 	0.46638	0.73203	0.06054	-0.413
Mof_O 	O 	0.4755	0.80441	0.05964	-0.408
_end
