data_functionalizedCrystal
_audit_creation_method	'EQeq! by Chris Wilmer'
_symmetry_space_group_name_H-M	'P1'
_symmetry_Int_Tables_number	1
_symmetry_cell_setting	triclinic
loop_
_symmetry_equiv_pos_as_xyz
  x,y,z
_cell_length_a	11.8074
_cell_length_b	12.0287
_cell_length_c	12.5815
_cell_angle_alpha	77.508
_cell_angle_beta	88.505
_cell_angle_gamma	62.823
loop_
_atom_site_label
_atom_site_type_symbol
_atom_site_fract_x
_atom_site_fract_y
_atom_site_fract_z
_atom_site_charge
Mof_C 	C 	0.0165	0.6559	0.3898	0.164
Mof_C 	C 	0.9721	0.6984	0.4862	-0.303
Mof_H 	H 	0.9098	0.6815	0.5221	0.149
Mof_C 	C 	0.0228	0.7646	0.525	0.185
Mof_C 	C 	0.1108	0.7963	0.4723	-0.141
Mof_H 	H 	0.1382	0.8472	0.4985	0.108
Mof_C 	C 	0.1593	0.7514	0.3785	0.027
Mof_C 	C 	0.1129	0.6814	0.3356	-0.122
Mof_H 	H 	0.1439	0.6519	0.2731	0.103
Mof_C 	C 	0.9629	0.5817	0.3474	0.141
Mof_C 	C 	0.9771	0.8052	0.6307	0.13
Mof_C 	C 	0.2607	0.7764	0.3214	0.299
Mof_C 	C 	0.6211	0.1001	0.1759	-0.122
Mof_C 	C 	0.6507	0.1818	0.2242	0.06
Mof_H 	H 	0.6052	0.2153	0.2808	0.034
Mof_C 	C 	0.7469	0.2108	0.1867	-0.137
Mof_C 	C 	0.8059	0.1696	0.0937	0.083
Mof_H 	H 	0.8642	0.1972	0.064	0.009
Mof_C 	C 	0.7811	0.0914	0.0458	-0.162
Mof_C 	C 	0.6849	0.0571	0.0896	0.074
Mof_H 	H 	0.6655	0.004	0.0581	0.028
Mof_C 	C 	0.5173	0.064	0.2174	0.355
Mof_C 	C 	0.7814	0.2903	0.2414	0.353
Mof_C 	C 	0.8468	0.0515	0.9495	0.378
Mof_C 	C 	0.2232	0.1432	0.655	0.234
Mof_C 	C 	0.1909	0.1194	0.7618	-0.285
Mof_H 	H 	0.1123	0.122	0.7766	0.154
Mof_C 	C 	0.2796	0.0922	0.844	0.227
Mof_C 	C 	0.3992	0.0887	0.8246	-0.266
Mof_H 	H 	0.4561	0.0747	0.8817	0.14
Mof_C 	C 	0.4286	0.1071	0.7158	0.227
Mof_C 	C 	0.341	0.1364	0.6285	-0.276
Mof_H 	H 	0.3606	0.1507	0.5563	0.141
Mof_C 	C 	0.1155	0.2634	0.4722	0.11
Mof_H 	H 	0.1638	0.307	0.4551	0.005
Mof_C 	C 	0.9835	0.1863	0.4593	-0.165
Mof_H 	H 	0.9233	0.1678	0.4318	0.086
Mof_C 	C 	0.0509	0.1299	0.5574	0.155
Mof_H 	H 	0.0427	0.0675	0.6104	-0.009
Mof_C 	C 	0.3502	0.9914	0.0408	0.094
Mof_H 	H 	0.437	0.9522	0.0314	-0.006
Mof_C 	C 	0.1409	0.1012	0.003	-0.052
Mof_H 	H 	0.0603	0.1509	0.9659	0.095
Mof_C 	C 	0.1698	0.0513	0.1107	0.039
Mof_H 	H 	0.1102	0.0598	0.1622	0.034
Mof_C 	C 	0.6548	0.0232	0.7625	0.117
Mof_H 	H 	0.6563	0.9747	0.8314	-0.008
Mof_C 	C 	0.7123	0.112	0.6184	0.001
Mof_H 	H 	0.7618	0.1351	0.5685	0.028
Mof_C 	C 	0.5884	0.1525	0.6057	0.027
Mof_H 	H 	0.5354	0.2111	0.5448	0.034
Mof_C 	C 	0.4272	0.748	0.8533	0.211
Mof_C 	C 	0.5334	0.6969	0.9281	-0.228
Mof_H 	H 	0.5257	0.6748	0.0024	0.11
Mof_C 	C 	0.6526	0.679	0.8903	0.207
Mof_C 	C 	0.6632	0.7134	0.7765	-0.264
Mof_H 	H 	0.7423	0.6978	0.7505	0.14
Mof_C 	C 	0.5541	0.7707	0.7044	0.226
Mof_C 	C 	0.4352	0.7904	0.7434	-0.264
Mof_H 	H 	0.362	0.832	0.6953	0.131
Mof_C 	C 	0.2036	0.8	0.8223	0.116
Mof_H 	H 	0.2059	0.8051	0.7475	-0.003
Mof_C 	C 	0.1387	0.8046	0.983	0.034
Mof_H 	H 	0.0853	0.8134	0.0395	0.032
Mof_C 	C 	0.2664	0.7706	0.9942	0.031
Mof_H 	H 	0.3159	0.7537	0.0576	0.032
Mof_C 	C 	0.7816	0.5403	0.063	0.107
Mof_H 	H 	0.7282	0.5044	0.0884	-0.005
Mof_C 	C 	0.8591	0.6579	0.9591	0.109
Mof_H 	H 	0.8714	0.7142	0.9023	-0.02
Mof_C 	C 	0.9344	0.5894	0.0528	-0.158
Mof_H 	H 	0.0085	0.5916	0.0727	0.121
Mof_C 	C 	0.4837	0.8186	0.5107	0.124
Mof_H 	H 	0.413	0.8038	0.5211	-0.005
Mof_C 	C 	0.6538	0.8336	0.5453	0.008
Mof_H 	H 	0.7224	0.8334	0.5802	0.039
Mof_C 	C 	0.6243	0.8625	0.4333	0.01
Mof_H 	H 	0.6703	0.8845	0.379	0.037
Mof_Cu	Cu	0.96266	0.39111	0.25823	0.88
Mof_Cu	Cu	0.92878	0.91965	0.79521	0.888
Mof_Cu	Cu	0.4129	0.90296	0.27391	0.903
Mof_N 	N 	0.0206	0.2771	0.4067	-0.157
Mof_N 	N 	0.1314	0.1779	0.5665	-0.18
Mof_N 	N 	0.2584	0.0622	0.9596	-0.129
Mof_N 	N 	0.3024	0.9844	0.1344	-0.217
Mof_N 	N 	0.5496	0.0977	0.6922	-0.162
Mof_N 	N 	0.7545	0.0294	0.7191	-0.212
Mof_N 	N 	0.3048	0.7672	0.8893	-0.158
Mof_N 	N 	0.1018	0.8239	0.8734	-0.203
Mof_N 	N 	0.7586	0.6259	0.9659	-0.165
Mof_N 	N 	0.8838	0.515	0.1149	-0.2
Mof_N 	N 	0.562	0.8054	0.5945	-0.166
Mof_N 	N 	0.5148	0.8527	0.4172	-0.217
Mof_O 	O 	0.0306	0.5006	0.2949	-0.304
Mof_O 	O 	0.849	0.6049	0.3627	-0.245
Mof_O 	O 	0.9204	0.7557	0.6916	-0.279
Mof_O 	O 	0.0033	0.8877	0.6576	-0.299
Mof_O 	O 	0.2896	0.8538	0.3516	-0.385
Mof_O 	O 	0.3135	0.7191	0.2494	-0.279
Mof_O 	O 	0.5314	0.961	0.2005	-0.409
Mof_O 	O 	0.4292	0.1378	0.2622	-0.302
Mof_O 	O 	0.7072	0.3592	0.296	-0.287
Mof_O 	O 	0.8904	0.2845	0.2198	-0.413
Mof_O 	O 	0.8928	0.1096	0.8903	-0.351
Mof_O 	O 	0.8504	0.9478	0.933	-0.404
_end
