# CIF file generated by openbabel 3.1.0, see https://openbabel.org
data_I
_chemical_name_common 'image0'
_cell_length_a 31.895
_cell_length_b 15.133
_cell_length_c 31.168
_cell_angle_alpha 90
_cell_angle_beta 98.082
_cell_angle_gamma 90
_space_group_name_H-M_alt 'P 1'
_space_group_name_Hall 'P 1'
loop_
    _symmetry_equiv_pos_as_xyz
    x,y,z
loop_
    _atom_site_label
    _atom_site_type_symbol
    _atom_site_fract_x
    _atom_site_fract_y
    _atom_site_fract_z
    _atom_site_occupancy
    Zn1      Zn       0.80835    0.34970    0.21446    1.000
    I1       I        0.74170    0.28594    0.18134    1.000
    I2       I        0.84533    0.30444    0.28802    1.000
    N1       N        0.84940    0.32670    0.17030    1.000
    C1       C        0.83740    0.28140    0.13370    1.000
    H1       H        0.80950    0.25790    0.12850    1.000
    C2       C        0.86410    0.26770    0.10330    1.000
    H2       H        0.85450    0.23680    0.07720    1.000
    C3       C        0.90510    0.29940    0.11110    1.000
    C4       C        0.91770    0.34500    0.14900    1.000
    H3       H        0.94550    0.36860    0.15510    1.000
    C5       C        0.88870    0.35560    0.17820    1.000
    H4       H        0.89760    0.38490    0.20480    1.000
    C6       C        0.93390    0.28820    0.07810    1.000
    N2       N        0.92800    0.21830    0.05260    1.000
    C7       C        0.95670    0.20890    0.02550    1.000
    N3       N        0.98770    0.26660    0.02120    1.000
    C8       C        0.98960    0.33460    0.04820    1.000
    N4       N        0.96480    0.34850    0.07780    1.000
    N5       N        0.94490    0.98370    0.94320    1.000
    C9       C        0.97620    0.04130    0.94230    1.000
    H5       H        0.99530    0.03210    0.92200    1.000
    C10      C        0.98220    0.11370    0.96940    1.000
    H6       H        0.00520    0.15290    0.96790    1.000
    C11      C        0.95440    0.12830    0.99860    1.000
    C12      C        0.92220    0.06680    0.00120    1.000
    H7       H        0.90320    0.07360    0.02190    1.000
    C13      C        0.91860    0.99580    0.97300    1.000
    H8       H        0.89670    0.95380    0.97480    1.000
    Zn2      Zn       0.93004    0.89095    0.89542    1.000
    I3       I        0.88765    0.76836    0.92363    1.000
    I4       I        0.99502    0.86681    0.85715    1.000
    N6       N        0.08820    0.52210    0.04370    1.000
    C14      C        0.06560    0.52190    0.07500    1.000
    H9       H        0.07230    0.56400    0.09760    1.000
    C15      C        0.03250    0.46500    0.07790    1.000
    H10      H        0.01640    0.46900    0.10130    1.000
    C16      C        0.02310    0.40110    0.04560    1.000
    C17      C        0.04630    0.40290    0.01110    1.000
    H11      H        0.04000    0.36220    0.98780    1.000
    C18      C        0.07850    0.46420    0.01050    1.000
    H12      H        0.09390    0.46570    0.98650    1.000
    Zn3      Zn       0.14187    0.59933    0.05017    1.000
    I5       I        0.12312    0.74705    0.08122    1.000
    I6       I        0.17739    0.58340    0.98238    1.000
    N7       N        0.17980    0.53100    0.09770    1.000
    C19      C        0.18620    0.44370    0.09360    1.000
    H13      H        0.17130    0.41340    0.06940    1.000
    C20      C        0.21340    0.39700    0.12310    1.000
    H14      H        0.21670    0.33510    0.11970    1.000
    C21      C        0.23620    0.44070    0.15810    1.000
    C22      C        0.23040    0.53110    0.16160    1.000
    H15      H        0.24650    0.56360    0.18430    1.000
    C23      C        0.20120    0.57310    0.13210    1.000
    H16      H        0.19580    0.63410    0.13600    1.000
    C24      C        0.26730    0.39220    0.19020    1.000
    N8       N        0.27140    0.30540    0.18470    1.000
    C25      C        0.30010    0.26780    0.21340    1.000
    N9       N        0.32500    0.30960    0.24490    1.000
    C26      C        0.31730    0.39460    0.24780    1.000
    N10      N        0.28800    0.43970    0.22220    1.000
    N11      N        0.30590    0.98660    0.21500    1.000
    C27      C        0.32920    0.03250    0.24300    1.000
    H17      H        0.34780    0.00220    0.26460    1.000
    C28      C        0.32920    0.12360    0.24400    1.000
    H18      H        0.34720    0.15460    0.26580    1.000
    C29      C        0.30280    0.16870    0.21290    1.000
    C30      C        0.27720    0.12010    0.18170    1.000
    H19      H        0.25820    0.14870    0.15990    1.000
    C31      C        0.28000    0.02940    0.18350    1.000
    H20      H        0.26330    0.99550    0.16180    1.000
    N12      N        0.38940    0.53330    0.35220    1.000
    C32      C        0.35840    0.57320    0.32650    1.000
    H21      H        0.35310    0.63400    0.33120    1.000
    C33      C        0.33350    0.53030    0.29320    1.000
    H22      H        0.31090    0.56050    0.27620    1.000
    C34      C        0.34170    0.44320    0.28500    1.000
    C35      C        0.37340    0.40090    0.31230    1.000
    H23      H        0.37930    0.34020    0.30830    1.000
    C36      C        0.39630    0.44740    0.34500    1.000
    H24      H        0.41800    0.41770    0.36360    1.000
    Zn4      Zn       0.30835    0.84970    0.21446    1.000
    I7       I        0.24170    0.78594    0.18134    1.000
    I8       I        0.34533    0.80444    0.28802    1.000
    N13      N        0.34940    0.82670    0.17030    1.000
    C37      C        0.33740    0.78140    0.13370    1.000
    H25      H        0.30950    0.75790    0.12850    1.000
    C38      C        0.36410    0.76770    0.10330    1.000
    H26      H        0.35450    0.73680    0.07720    1.000
    C39      C        0.40510    0.79940    0.11110    1.000
    C40      C        0.41770    0.84500    0.14900    1.000
    H27      H        0.44550    0.86860    0.15510    1.000
    C41      C        0.38870    0.85560    0.17820    1.000
    H28      H        0.39760    0.88490    0.20480    1.000
    C42      C        0.43390    0.78820    0.07810    1.000
    N14      N        0.42800    0.71830    0.05260    1.000
    C43      C        0.45670    0.70890    0.02550    1.000
    N15      N        0.48770    0.76660    0.02120    1.000
    C44      C        0.48960    0.83460    0.04820    1.000
    N16      N        0.46480    0.84850    0.07780    1.000
    N17      N        0.44490    0.48370    0.94320    1.000
    C45      C        0.47620    0.54130    0.94230    1.000
    H29      H        0.49530    0.53210    0.92200    1.000
    C46      C        0.48220    0.61370    0.96940    1.000
    H30      H        0.50520    0.65290    0.96790    1.000
    C47      C        0.45440    0.62830    0.99860    1.000
    C48      C        0.42220    0.56680    0.00120    1.000
    H31      H        0.40320    0.57360    0.02190    1.000
    C49      C        0.41860    0.49580    0.97300    1.000
    H32      H        0.39670    0.45380    0.97480    1.000
    Zn5      Zn       0.43004    0.39095    0.89542    1.000
    I9       I        0.38765    0.26836    0.92363    1.000
    I10      I        0.49502    0.36681    0.85715    1.000
    N18      N        0.58820    0.02210    0.04370    1.000
    C50      C        0.56560    0.02190    0.07500    1.000
    H33      H        0.57230    0.06400    0.09760    1.000
    C51      C        0.53250    0.96500    0.07790    1.000
    H34      H        0.51640    0.96900    0.10130    1.000
    C52      C        0.52310    0.90110    0.04560    1.000
    C53      C        0.54630    0.90290    0.01110    1.000
    H35      H        0.54000    0.86220    0.98780    1.000
    C54      C        0.57850    0.96420    0.01050    1.000
    H36      H        0.59390    0.96570    0.98650    1.000
    Zn6      Zn       0.64187    0.09933    0.05017    1.000
    I11      I        0.62312    0.24705    0.08122    1.000
    I12      I        0.67739    0.08340    0.98238    1.000
    N19      N        0.67980    0.03100    0.09770    1.000
    C55      C        0.68620    0.94370    0.09360    1.000
    H37      H        0.67130    0.91340    0.06940    1.000
    C56      C        0.71340    0.89700    0.12310    1.000
    H38      H        0.71670    0.83510    0.11970    1.000
    C57      C        0.73620    0.94070    0.15810    1.000
    C58      C        0.73040    0.03110    0.16160    1.000
    H39      H        0.74650    0.06360    0.18430    1.000
    C59      C        0.70120    0.07310    0.13210    1.000
    H40      H        0.69580    0.13410    0.13600    1.000
    C60      C        0.76730    0.89220    0.19020    1.000
    N20      N        0.77140    0.80540    0.18470    1.000
    C61      C        0.80010    0.76780    0.21340    1.000
    N21      N        0.82500    0.80960    0.24490    1.000
    C62      C        0.81730    0.89460    0.24780    1.000
    N22      N        0.78800    0.93970    0.22220    1.000
    N23      N        0.80590    0.48660    0.21500    1.000
    C63      C        0.82920    0.53250    0.24300    1.000
    H41      H        0.84780    0.50220    0.26460    1.000
    C64      C        0.82920    0.62360    0.24400    1.000
    H42      H        0.84720    0.65460    0.26580    1.000
    C65      C        0.80280    0.66870    0.21290    1.000
    C66      C        0.77720    0.62010    0.18170    1.000
    H43      H        0.75820    0.64870    0.15990    1.000
    C67      C        0.78000    0.52940    0.18350    1.000
    H44      H        0.76330    0.49550    0.16180    1.000
    N24      N        0.88940    0.03330    0.35220    1.000
    C68      C        0.85840    0.07320    0.32650    1.000
    H45      H        0.85310    0.13400    0.33120    1.000
    C69      C        0.83350    0.03030    0.29320    1.000
    H46      H        0.81090    0.06050    0.27620    1.000
    C70      C        0.84170    0.94320    0.28500    1.000
    C71      C        0.87340    0.90090    0.31230    1.000
    H47      H        0.87930    0.84020    0.30830    1.000
    C72      C        0.89630    0.94740    0.34500    1.000
    H48      H        0.91800    0.91770    0.36360    1.000
    Zn7      Zn       0.80835    0.65030    0.71446    1.000
    I13      I        0.74170    0.71406    0.68134    1.000
    I14      I        0.84533    0.69556    0.78802    1.000
    N25      N        0.84940    0.67330    0.67030    1.000
    C73      C        0.83740    0.71860    0.63370    1.000
    H49      H        0.80950    0.74210    0.62850    1.000
    C74      C        0.86410    0.73230    0.60330    1.000
    H50      H        0.85450    0.76320    0.57720    1.000
    C75      C        0.90510    0.70060    0.61110    1.000
    C76      C        0.91770    0.65500    0.64900    1.000
    H51      H        0.94550    0.63140    0.65510    1.000
    C77      C        0.88870    0.64440    0.67820    1.000
    H52      H        0.89760    0.61510    0.70480    1.000
    C78      C        0.93390    0.71180    0.57810    1.000
    N26      N        0.92800    0.78170    0.55260    1.000
    C79      C        0.95670    0.79110    0.52550    1.000
    N27      N        0.98770    0.73340    0.52120    1.000
    C80      C        0.98960    0.66540    0.54820    1.000
    N28      N        0.96480    0.65150    0.57780    1.000
    N29      N        0.94490    0.01630    0.44320    1.000
    C81      C        0.97620    0.95870    0.44230    1.000
    H53      H        0.99530    0.96790    0.42200    1.000
    C82      C        0.98220    0.88630    0.46940    1.000
    H54      H        0.00520    0.84710    0.46790    1.000
    C83      C        0.95440    0.87170    0.49860    1.000
    C84      C        0.92220    0.93320    0.50120    1.000
    H55      H        0.90320    0.92640    0.52190    1.000
    C85      C        0.91860    0.00420    0.47300    1.000
    H56      H        0.89670    0.04620    0.47480    1.000
    Zn8      Zn       0.93004    0.10905    0.39542    1.000
    I15      I        0.88765    0.23164    0.42363    1.000
    I16      I        0.99502    0.13319    0.35715    1.000
    N30      N        0.08820    0.47790    0.54370    1.000
    C86      C        0.06560    0.47810    0.57500    1.000
    H57      H        0.07230    0.43600    0.59760    1.000
    C87      C        0.03250    0.53500    0.57790    1.000
    H58      H        0.01640    0.53100    0.60130    1.000
    C88      C        0.02310    0.59890    0.54560    1.000
    C89      C        0.04630    0.59710    0.51110    1.000
    H59      H        0.04000    0.63780    0.48780    1.000
    C90      C        0.07850    0.53580    0.51050    1.000
    H60      H        0.09390    0.53430    0.48650    1.000
    Zn9      Zn       0.14187    0.40067    0.55017    1.000
    I17      I        0.12312    0.25295    0.58122    1.000
    I18      I        0.17739    0.41660    0.48238    1.000
    N31      N        0.17980    0.46900    0.59770    1.000
    C91      C        0.18620    0.55630    0.59360    1.000
    H61      H        0.17130    0.58660    0.56940    1.000
    C92      C        0.21340    0.60300    0.62310    1.000
    H62      H        0.21670    0.66490    0.61970    1.000
    C93      C        0.23620    0.55930    0.65810    1.000
    C94      C        0.23040    0.46890    0.66160    1.000
    H63      H        0.24650    0.43640    0.68430    1.000
    C95      C        0.20120    0.42690    0.63210    1.000
    H64      H        0.19580    0.36590    0.63600    1.000
    C96      C        0.26730    0.60780    0.69020    1.000
    N32      N        0.27140    0.69460    0.68470    1.000
    C97      C        0.30010    0.73220    0.71340    1.000
    N33      N        0.32500    0.69040    0.74490    1.000
    C98      C        0.31730    0.60540    0.74780    1.000
    N34      N        0.28800    0.56030    0.72220    1.000
    N35      N        0.30590    0.01340    0.71500    1.000
    C99      C        0.32920    0.96750    0.74300    1.000
    H65      H        0.34780    0.99780    0.76460    1.000
    C100     C        0.32920    0.87640    0.74400    1.000
    H66      H        0.34720    0.84540    0.76580    1.000
    C101     C        0.30280    0.83130    0.71290    1.000
    C102     C        0.27720    0.87990    0.68170    1.000
    H67      H        0.25820    0.85130    0.65990    1.000
    C103     C        0.28000    0.97060    0.68350    1.000
    H68      H        0.26330    0.00450    0.66180    1.000
    N36      N        0.38940    0.46670    0.85220    1.000
    C104     C        0.35840    0.42680    0.82650    1.000
    H69      H        0.35310    0.36600    0.83120    1.000
    C105     C        0.33350    0.46970    0.79320    1.000
    H70      H        0.31090    0.43950    0.77620    1.000
    C106     C        0.34170    0.55680    0.78500    1.000
    C107     C        0.37340    0.59910    0.81230    1.000
    H71      H        0.37930    0.65980    0.80830    1.000
    C108     C        0.39630    0.55260    0.84500    1.000
    H72      H        0.41800    0.58230    0.86360    1.000
    Zn10     Zn       0.30835    0.15030    0.71446    1.000
    I19      I        0.24170    0.21406    0.68134    1.000
    I20      I        0.34533    0.19556    0.78802    1.000
    N37      N        0.34940    0.17330    0.67030    1.000
    C109     C        0.33740    0.21860    0.63370    1.000
    H73      H        0.30950    0.24210    0.62850    1.000
    C110     C        0.36410    0.23230    0.60330    1.000
    H74      H        0.35450    0.26320    0.57720    1.000
    C111     C        0.40510    0.20060    0.61110    1.000
    C112     C        0.41770    0.15500    0.64900    1.000
    H75      H        0.44550    0.13140    0.65510    1.000
    C113     C        0.38870    0.14440    0.67820    1.000
    H76      H        0.39760    0.11510    0.70480    1.000
    C114     C        0.43390    0.21180    0.57810    1.000
    N38      N        0.42800    0.28170    0.55260    1.000
    C115     C        0.45670    0.29110    0.52550    1.000
    N39      N        0.48770    0.23340    0.52120    1.000
    C116     C        0.48960    0.16540    0.54820    1.000
    N40      N        0.46480    0.15150    0.57780    1.000
    N41      N        0.44490    0.51630    0.44320    1.000
    C117     C        0.47620    0.45870    0.44230    1.000
    H77      H        0.49530    0.46790    0.42200    1.000
    C118     C        0.48220    0.38630    0.46940    1.000
    H78      H        0.50520    0.34710    0.46790    1.000
    C119     C        0.45440    0.37170    0.49860    1.000
    C120     C        0.42220    0.43320    0.50120    1.000
    H79      H        0.40320    0.42640    0.52190    1.000
    C121     C        0.41860    0.50420    0.47300    1.000
    H80      H        0.39670    0.54620    0.47480    1.000
    Zn11     Zn       0.43004    0.60905    0.39542    1.000
    I21      I        0.38765    0.73164    0.42363    1.000
    I22      I        0.49502    0.63319    0.35715    1.000
    N42      N        0.58820    0.97790    0.54370    1.000
    C122     C        0.56560    0.97810    0.57500    1.000
    H81      H        0.57230    0.93600    0.59760    1.000
    C123     C        0.53250    0.03500    0.57790    1.000
    H82      H        0.51640    0.03100    0.60130    1.000
    C124     C        0.52310    0.09890    0.54560    1.000
    C125     C        0.54630    0.09710    0.51110    1.000
    H83      H        0.54000    0.13780    0.48780    1.000
    C126     C        0.57850    0.03580    0.51050    1.000
    H84      H        0.59390    0.03430    0.48650    1.000
    Zn12     Zn       0.64187    0.90067    0.55017    1.000
    I23      I        0.62312    0.75295    0.58122    1.000
    I24      I        0.67739    0.91660    0.48238    1.000
    N43      N        0.67980    0.96900    0.59770    1.000
    C127     C        0.68620    0.05630    0.59360    1.000
    H85      H        0.67130    0.08660    0.56940    1.000
    C128     C        0.71340    0.10300    0.62310    1.000
    H86      H        0.71670    0.16490    0.61970    1.000
    C129     C        0.73620    0.05930    0.65810    1.000
    C130     C        0.73040    0.96890    0.66160    1.000
    H87      H        0.74650    0.93640    0.68430    1.000
    C131     C        0.70120    0.92690    0.63210    1.000
    H88      H        0.69580    0.86590    0.63600    1.000
    C132     C        0.76730    0.10780    0.69020    1.000
    N44      N        0.77140    0.19460    0.68470    1.000
    C133     C        0.80010    0.23220    0.71340    1.000
    N45      N        0.82500    0.19040    0.74490    1.000
    C134     C        0.81730    0.10540    0.74780    1.000
    N46      N        0.78800    0.06030    0.72220    1.000
    N47      N        0.80590    0.51340    0.71500    1.000
    C135     C        0.82920    0.46750    0.74300    1.000
    H89      H        0.84780    0.49780    0.76460    1.000
    C136     C        0.82920    0.37640    0.74400    1.000
    H90      H        0.84720    0.34540    0.76580    1.000
    C137     C        0.80280    0.33130    0.71290    1.000
    C138     C        0.77720    0.37990    0.68170    1.000
    H91      H        0.75820    0.35130    0.65990    1.000
    C139     C        0.78000    0.47060    0.68350    1.000
    H92      H        0.76330    0.50450    0.66180    1.000
    N48      N        0.88940    0.96670    0.85220    1.000
    C140     C        0.85840    0.92680    0.82650    1.000
    H93      H        0.85310    0.86600    0.83120    1.000
    C141     C        0.83350    0.96970    0.79320    1.000
    H94      H        0.81090    0.93950    0.77620    1.000
    C142     C        0.84170    0.05680    0.78500    1.000
    C143     C        0.87340    0.09910    0.81230    1.000
    H95      H        0.87930    0.15980    0.80830    1.000
    C144     C        0.89630    0.05260    0.84500    1.000
    H96      H        0.91800    0.08230    0.86360    1.000
    Zn13     Zn       0.19165    0.34970    0.28554    1.000
    I25      I        0.25830    0.28594    0.31866    1.000
    I26      I        0.15467    0.30444    0.21198    1.000
    N49      N        0.15060    0.32670    0.32970    1.000
    C145     C        0.16260    0.28140    0.36630    1.000
    H97      H        0.19050    0.25790    0.37150    1.000
    C146     C        0.13590    0.26770    0.39670    1.000
    H98      H        0.14550    0.23680    0.42280    1.000
    C147     C        0.09490    0.29940    0.38890    1.000
    C148     C        0.08230    0.34500    0.35100    1.000
    H99      H        0.05450    0.36860    0.34490    1.000
    C149     C        0.11130    0.35560    0.32180    1.000
    H100     H        0.10240    0.38490    0.29520    1.000
    C150     C        0.06610    0.28820    0.42190    1.000
    N50      N        0.07200    0.21830    0.44740    1.000
    C151     C        0.04330    0.20890    0.47450    1.000
    N51      N        0.01230    0.26660    0.47880    1.000
    C152     C        0.01040    0.33460    0.45180    1.000
    N52      N        0.03520    0.34850    0.42220    1.000
    N53      N        0.05510    0.98370    0.55680    1.000
    C153     C        0.02380    0.04130    0.55770    1.000
    H101     H        0.00470    0.03210    0.57800    1.000
    C154     C        0.01780    0.11370    0.53060    1.000
    H102     H        0.99480    0.15290    0.53210    1.000
    C155     C        0.04560    0.12830    0.50140    1.000
    C156     C        0.07780    0.06680    0.49880    1.000
    H103     H        0.09680    0.07360    0.47810    1.000
    C157     C        0.08140    0.99580    0.52700    1.000
    H104     H        0.10330    0.95380    0.52520    1.000
    Zn14     Zn       0.06996    0.89095    0.60458    1.000
    I27      I        0.11235    0.76836    0.57637    1.000
    I28      I        0.00498    0.86681    0.64285    1.000
    N54      N        0.91180    0.52210    0.45630    1.000
    C158     C        0.93440    0.52190    0.42500    1.000
    H105     H        0.92770    0.56400    0.40240    1.000
    C159     C        0.96750    0.46500    0.42210    1.000
    H106     H        0.98360    0.46900    0.39870    1.000
    C160     C        0.97690    0.40110    0.45440    1.000
    C161     C        0.95370    0.40290    0.48890    1.000
    H107     H        0.96000    0.36220    0.51220    1.000
    C162     C        0.92150    0.46420    0.48950    1.000
    H108     H        0.90610    0.46570    0.51350    1.000
    Zn15     Zn       0.85813    0.59933    0.44983    1.000
    I29      I        0.87688    0.74705    0.41878    1.000
    I30      I        0.82261    0.58340    0.51762    1.000
    N55      N        0.82020    0.53100    0.40230    1.000
    C163     C        0.81380    0.44370    0.40640    1.000
    H109     H        0.82870    0.41340    0.43060    1.000
    C164     C        0.78660    0.39700    0.37690    1.000
    H110     H        0.78330    0.33510    0.38030    1.000
    C165     C        0.76380    0.44070    0.34190    1.000
    C166     C        0.76960    0.53110    0.33840    1.000
    H111     H        0.75350    0.56360    0.31570    1.000
    C167     C        0.79880    0.57310    0.36790    1.000
    H112     H        0.80420    0.63410    0.36400    1.000
    C168     C        0.73270    0.39220    0.30980    1.000
    N56      N        0.72860    0.30540    0.31530    1.000
    C169     C        0.69990    0.26780    0.28660    1.000
    N57      N        0.67500    0.30960    0.25510    1.000
    C170     C        0.68270    0.39460    0.25220    1.000
    N58      N        0.71200    0.43970    0.27780    1.000
    N59      N        0.69410    0.98660    0.28500    1.000
    C171     C        0.67080    0.03250    0.25700    1.000
    H113     H        0.65220    0.00220    0.23540    1.000
    C172     C        0.67080    0.12360    0.25600    1.000
    H114     H        0.65280    0.15460    0.23420    1.000
    C173     C        0.69720    0.16870    0.28710    1.000
    C174     C        0.72280    0.12010    0.31830    1.000
    H115     H        0.74180    0.14870    0.34010    1.000
    C175     C        0.72000    0.02940    0.31650    1.000
    H116     H        0.73670    0.99550    0.33820    1.000
    N60      N        0.61060    0.53330    0.14780    1.000
    C176     C        0.64160    0.57320    0.17350    1.000
    H117     H        0.64690    0.63400    0.16880    1.000
    C177     C        0.66650    0.53030    0.20680    1.000
    H118     H        0.68910    0.56050    0.22380    1.000
    C178     C        0.65830    0.44320    0.21500    1.000
    C179     C        0.62660    0.40090    0.18770    1.000
    H119     H        0.62070    0.34020    0.19170    1.000
    C180     C        0.60370    0.44740    0.15500    1.000
    H120     H        0.58200    0.41770    0.13640    1.000
    Zn16     Zn       0.69165    0.84970    0.28554    1.000
    I31      I        0.75830    0.78594    0.31866    1.000
    I32      I        0.65467    0.80444    0.21198    1.000
    N61      N        0.65060    0.82670    0.32970    1.000
    C181     C        0.66260    0.78140    0.36630    1.000
    H121     H        0.69050    0.75790    0.37150    1.000
    C182     C        0.63590    0.76770    0.39670    1.000
    H122     H        0.64550    0.73680    0.42280    1.000
    C183     C        0.59490    0.79940    0.38890    1.000
    C184     C        0.58230    0.84500    0.35100    1.000
    H123     H        0.55450    0.86860    0.34490    1.000
    C185     C        0.61130    0.85560    0.32180    1.000
    H124     H        0.60240    0.88490    0.29520    1.000
    C186     C        0.56610    0.78820    0.42190    1.000
    N62      N        0.57200    0.71830    0.44740    1.000
    C187     C        0.54330    0.70890    0.47450    1.000
    N63      N        0.51230    0.76660    0.47880    1.000
    C188     C        0.51040    0.83460    0.45180    1.000
    N64      N        0.53520    0.84850    0.42220    1.000
    N65      N        0.55510    0.48370    0.55680    1.000
    C189     C        0.52380    0.54130    0.55770    1.000
    H125     H        0.50470    0.53210    0.57800    1.000
    C190     C        0.51780    0.61370    0.53060    1.000
    H126     H        0.49480    0.65290    0.53210    1.000
    C191     C        0.54560    0.62830    0.50140    1.000
    C192     C        0.57780    0.56680    0.49880    1.000
    H127     H        0.59680    0.57360    0.47810    1.000
    C193     C        0.58140    0.49580    0.52700    1.000
    H128     H        0.60330    0.45380    0.52520    1.000
    Zn17     Zn       0.56996    0.39095    0.60458    1.000
    I33      I        0.61235    0.26836    0.57637    1.000
    I34      I        0.50498    0.36681    0.64285    1.000
    N66      N        0.41180    0.02210    0.45630    1.000
    C194     C        0.43440    0.02190    0.42500    1.000
    H129     H        0.42770    0.06400    0.40240    1.000
    C195     C        0.46750    0.96500    0.42210    1.000
    H130     H        0.48360    0.96900    0.39870    1.000
    C196     C        0.47690    0.90110    0.45440    1.000
    C197     C        0.45370    0.90290    0.48890    1.000
    H131     H        0.46000    0.86220    0.51220    1.000
    C198     C        0.42150    0.96420    0.48950    1.000
    H132     H        0.40610    0.96570    0.51350    1.000
    Zn18     Zn       0.35813    0.09933    0.44983    1.000
    I35      I        0.37688    0.24705    0.41878    1.000
    I36      I        0.32261    0.08340    0.51762    1.000
    N67      N        0.32020    0.03100    0.40230    1.000
    C199     C        0.31380    0.94370    0.40640    1.000
    H133     H        0.32870    0.91340    0.43060    1.000
    C200     C        0.28660    0.89700    0.37690    1.000
    H134     H        0.28330    0.83510    0.38030    1.000
    C201     C        0.26380    0.94070    0.34190    1.000
    C202     C        0.26960    0.03110    0.33840    1.000
    H135     H        0.25350    0.06360    0.31570    1.000
    C203     C        0.29880    0.07310    0.36790    1.000
    H136     H        0.30420    0.13410    0.36400    1.000
    C204     C        0.23270    0.89220    0.30980    1.000
    N68      N        0.22860    0.80540    0.31530    1.000
    C205     C        0.19990    0.76780    0.28660    1.000
    N69      N        0.17500    0.80960    0.25510    1.000
    C206     C        0.18270    0.89460    0.25220    1.000
    N70      N        0.21200    0.93970    0.27780    1.000
    N71      N        0.19410    0.48660    0.28500    1.000
    C207     C        0.17080    0.53250    0.25700    1.000
    H137     H        0.15220    0.50220    0.23540    1.000
    C208     C        0.17080    0.62360    0.25600    1.000
    H138     H        0.15280    0.65460    0.23420    1.000
    C209     C        0.19720    0.66870    0.28710    1.000
    C210     C        0.22280    0.62010    0.31830    1.000
    H139     H        0.24180    0.64870    0.34010    1.000
    C211     C        0.22000    0.52940    0.31650    1.000
    H140     H        0.23670    0.49550    0.33820    1.000
    N72      N        0.11060    0.03330    0.14780    1.000
    C212     C        0.14160    0.07320    0.17350    1.000
    H141     H        0.14690    0.13400    0.16880    1.000
    C213     C        0.16650    0.03030    0.20680    1.000
    H142     H        0.18910    0.06050    0.22380    1.000
    C214     C        0.15830    0.94320    0.21500    1.000
    C215     C        0.12660    0.90090    0.18770    1.000
    H143     H        0.12070    0.84020    0.19170    1.000
    C216     C        0.10370    0.94740    0.15500    1.000
    H144     H        0.08200    0.91770    0.13640    1.000
    Zn19     Zn       0.19165    0.65030    0.78554    1.000
    I37      I        0.25830    0.71406    0.81866    1.000
    I38      I        0.15467    0.69556    0.71198    1.000
    N73      N        0.15060    0.67330    0.82970    1.000
    C217     C        0.16260    0.71860    0.86630    1.000
    H145     H        0.19050    0.74210    0.87150    1.000
    C218     C        0.13590    0.73230    0.89670    1.000
    H146     H        0.14550    0.76320    0.92280    1.000
    C219     C        0.09490    0.70060    0.88890    1.000
    C220     C        0.08230    0.65500    0.85100    1.000
    H147     H        0.05450    0.63140    0.84490    1.000
    C221     C        0.11130    0.64440    0.82180    1.000
    H148     H        0.10240    0.61510    0.79520    1.000
    C222     C        0.06610    0.71180    0.92190    1.000
    N74      N        0.07200    0.78170    0.94740    1.000
    C223     C        0.04330    0.79110    0.97450    1.000
    N75      N        0.01230    0.73340    0.97880    1.000
    C224     C        0.01040    0.66540    0.95180    1.000
    N76      N        0.03520    0.65150    0.92220    1.000
    N77      N        0.05510    0.01630    0.05680    1.000
    C225     C        0.02380    0.95870    0.05770    1.000
    H149     H        0.00470    0.96790    0.07800    1.000
    C226     C        0.01780    0.88630    0.03060    1.000
    H150     H        0.99480    0.84710    0.03210    1.000
    C227     C        0.04560    0.87170    0.00140    1.000
    C228     C        0.07780    0.93320    0.99880    1.000
    H151     H        0.09680    0.92640    0.97810    1.000
    C229     C        0.08140    0.00420    0.02700    1.000
    H152     H        0.10330    0.04620    0.02520    1.000
    Zn20     Zn       0.06996    0.10905    0.10458    1.000
    I39      I        0.11235    0.23164    0.07637    1.000
    I40      I        0.00498    0.13319    0.14285    1.000
    N78      N        0.91180    0.47790    0.95630    1.000
    C230     C        0.93440    0.47810    0.92500    1.000
    H153     H        0.92770    0.43600    0.90240    1.000
    C231     C        0.96750    0.53500    0.92210    1.000
    H154     H        0.98360    0.53100    0.89870    1.000
    C232     C        0.97690    0.59890    0.95440    1.000
    C233     C        0.95370    0.59710    0.98890    1.000
    H155     H        0.96000    0.63780    0.01220    1.000
    C234     C        0.92150    0.53580    0.98950    1.000
    H156     H        0.90610    0.53430    0.01350    1.000
    Zn21     Zn       0.85813    0.40067    0.94983    1.000
    I41      I        0.87688    0.25295    0.91878    1.000
    I42      I        0.82261    0.41660    0.01762    1.000
    N79      N        0.82020    0.46900    0.90230    1.000
    C235     C        0.81380    0.55630    0.90640    1.000
    H157     H        0.82870    0.58660    0.93060    1.000
    C236     C        0.78660    0.60300    0.87690    1.000
    H158     H        0.78330    0.66490    0.88030    1.000
    C237     C        0.76380    0.55930    0.84190    1.000
    C238     C        0.76960    0.46890    0.83840    1.000
    H159     H        0.75350    0.43640    0.81570    1.000
    C239     C        0.79880    0.42690    0.86790    1.000
    H160     H        0.80420    0.36590    0.86400    1.000
    C240     C        0.73270    0.60780    0.80980    1.000
    N80      N        0.72860    0.69460    0.81530    1.000
    C241     C        0.69990    0.73220    0.78660    1.000
    N81      N        0.67500    0.69040    0.75510    1.000
    C242     C        0.68270    0.60540    0.75220    1.000
    N82      N        0.71200    0.56030    0.77780    1.000
    N83      N        0.69410    0.01340    0.78500    1.000
    C243     C        0.67080    0.96750    0.75700    1.000
    H161     H        0.65220    0.99780    0.73540    1.000
    C244     C        0.67080    0.87640    0.75600    1.000
    H162     H        0.65280    0.84540    0.73420    1.000
    C245     C        0.69720    0.83130    0.78710    1.000
    C246     C        0.72280    0.87990    0.81830    1.000
    H163     H        0.74180    0.85130    0.84010    1.000
    C247     C        0.72000    0.97060    0.81650    1.000
    H164     H        0.73670    0.00450    0.83820    1.000
    N84      N        0.61060    0.46670    0.64780    1.000
    C248     C        0.64160    0.42680    0.67350    1.000
    H165     H        0.64690    0.36600    0.66880    1.000
    C249     C        0.66650    0.46970    0.70680    1.000
    H166     H        0.68910    0.43950    0.72380    1.000
    C250     C        0.65830    0.55680    0.71500    1.000
    C251     C        0.62660    0.59910    0.68770    1.000
    H167     H        0.62070    0.65980    0.69170    1.000
    C252     C        0.60370    0.55260    0.65500    1.000
    H168     H        0.58200    0.58230    0.63640    1.000
    Zn22     Zn       0.69165    0.15030    0.78554    1.000
    I43      I        0.75830    0.21406    0.81866    1.000
    I44      I        0.65467    0.19556    0.71198    1.000
    N85      N        0.65060    0.17330    0.82970    1.000
    C253     C        0.66260    0.21860    0.86630    1.000
    H169     H        0.69050    0.24210    0.87150    1.000
    C254     C        0.63590    0.23230    0.89670    1.000
    H170     H        0.64550    0.26320    0.92280    1.000
    C255     C        0.59490    0.20060    0.88890    1.000
    C256     C        0.58230    0.15500    0.85100    1.000
    H171     H        0.55450    0.13140    0.84490    1.000
    C257     C        0.61130    0.14440    0.82180    1.000
    H172     H        0.60240    0.11510    0.79520    1.000
    C258     C        0.56610    0.21180    0.92190    1.000
    N86      N        0.57200    0.28170    0.94740    1.000
    C259     C        0.54330    0.29110    0.97450    1.000
    N87      N        0.51230    0.23340    0.97880    1.000
    C260     C        0.51040    0.16540    0.95180    1.000
    N88      N        0.53520    0.15150    0.92220    1.000
    N89      N        0.55510    0.51630    0.05680    1.000
    C261     C        0.52380    0.45870    0.05770    1.000
    H173     H        0.50470    0.46790    0.07800    1.000
    C262     C        0.51780    0.38630    0.03060    1.000
    H174     H        0.49480    0.34710    0.03210    1.000
    C263     C        0.54560    0.37170    0.00140    1.000
    C264     C        0.57780    0.43320    0.99880    1.000
    H175     H        0.59680    0.42640    0.97810    1.000
    C265     C        0.58140    0.50420    0.02700    1.000
    H176     H        0.60330    0.54620    0.02520    1.000
    Zn23     Zn       0.56996    0.60905    0.10458    1.000
    I45      I        0.61235    0.73164    0.07637    1.000
    I46      I        0.50498    0.63319    0.14285    1.000
    N90      N        0.41180    0.97790    0.95630    1.000
    C266     C        0.43440    0.97810    0.92500    1.000
    H177     H        0.42770    0.93600    0.90240    1.000
    C267     C        0.46750    0.03500    0.92210    1.000
    H178     H        0.48360    0.03100    0.89870    1.000
    C268     C        0.47690    0.09890    0.95440    1.000
    C269     C        0.45370    0.09710    0.98890    1.000
    H179     H        0.46000    0.13780    0.01220    1.000
    C270     C        0.42150    0.03580    0.98950    1.000
    H180     H        0.40610    0.03430    0.01350    1.000
    Zn24     Zn       0.35813    0.90067    0.94983    1.000
    I47      I        0.37688    0.75295    0.91878    1.000
    I48      I        0.32261    0.91660    0.01762    1.000
    N91      N        0.32020    0.96900    0.90230    1.000
    C271     C        0.31380    0.05630    0.90640    1.000
    H181     H        0.32870    0.08660    0.93060    1.000
    C272     C        0.28660    0.10300    0.87690    1.000
    H182     H        0.28330    0.16490    0.88030    1.000
    C273     C        0.26380    0.05930    0.84190    1.000
    C274     C        0.26960    0.96890    0.83840    1.000
    H183     H        0.25350    0.93640    0.81570    1.000
    C275     C        0.29880    0.92690    0.86790    1.000
    H184     H        0.30420    0.86590    0.86400    1.000
    C276     C        0.23270    0.10780    0.80980    1.000
    N92      N        0.22860    0.19460    0.81530    1.000
    C277     C        0.19990    0.23220    0.78660    1.000
    N93      N        0.17500    0.19040    0.75510    1.000
    C278     C        0.18270    0.10540    0.75220    1.000
    N94      N        0.21200    0.06030    0.77780    1.000
    N95      N        0.19410    0.51340    0.78500    1.000
    C279     C        0.17080    0.46750    0.75700    1.000
    H185     H        0.15220    0.49780    0.73540    1.000
    C280     C        0.17080    0.37640    0.75600    1.000
    H186     H        0.15280    0.34540    0.73420    1.000
    C281     C        0.19720    0.33130    0.78710    1.000
    C282     C        0.22280    0.37990    0.81830    1.000
    H187     H        0.24180    0.35130    0.84010    1.000
    C283     C        0.22000    0.47060    0.81650    1.000
    H188     H        0.23670    0.50450    0.83820    1.000
    N96      N        0.11060    0.96670    0.64780    1.000
    C284     C        0.14160    0.92680    0.67350    1.000
    H189     H        0.14690    0.86600    0.66880    1.000
    C285     C        0.16650    0.96970    0.70680    1.000
    H190     H        0.18910    0.93950    0.72380    1.000
    C286     C        0.15830    0.05680    0.71500    1.000
    C287     C        0.12660    0.09910    0.68770    1.000
    H191     H        0.12070    0.15980    0.69170    1.000
    C288     C        0.10370    0.05260    0.65500    1.000
    H192     H        0.08200    0.08230    0.63640    1.000
