# CIF file generated by openbabel 3.1.0, see https://openbabel.org
data_I
_chemical_name_common 'image0'
_cell_length_a 29.67
_cell_length_b 29.67
_cell_length_c 17.915
_cell_angle_alpha 90
_cell_angle_beta 90
_cell_angle_gamma 120
_space_group_name_H-M_alt 'P 1'
_space_group_name_Hall 'P 1'
loop_
    _symmetry_equiv_pos_as_xyz
    x,y,z
loop_
    _atom_site_label
    _atom_site_type_symbol
    _atom_site_fract_x
    _atom_site_fract_y
    _atom_site_fract_z
    _atom_site_occupancy
    Zn1      Zn       0.62915    0.85669    0.51957    1.000
    N1       N        0.64362    0.89648    0.41833    1.000
    N2       N        0.59849    0.79467    0.44617    1.000
    N3       N        0.57802    0.76940    0.33003    1.000
    H1       H        0.57550    0.77090    0.28130    1.000
    O1       O        0.47318    0.49280    0.24401    1.000
    O2       O        0.44638    0.52518    0.15374    1.000
    O3       O        0.58190    0.63725    0.75656    1.000
    O4       O        0.49801    0.59166    0.73467    1.000
    C1       C        0.66602    0.94786    0.40815    1.000
    H2       H        0.67910    0.97000    0.45050    1.000
    C2       C        0.67098    0.97005    0.33928    1.000
    H3       H        0.68690    0.00670    0.33420    1.000
    C3       C        0.65259    0.93827    0.27796    1.000
    H4       H        0.65600    0.95280    0.22960    1.000
    C4       C        0.62896    0.88482    0.28673    1.000
    H5       H        0.61570    0.86220    0.24490    1.000
    C5       C        0.62515    0.86529    0.35790    1.000
    C6       C        0.60096    0.81020    0.37592    1.000
    C7       C        0.57202    0.74112    0.44512    1.000
    C8       C        0.55879    0.72434    0.37169    1.000
    C9       C        0.53303    0.67347    0.33517    1.000
    C10      C        0.51004    0.66796    0.26518    1.000
    H6       H        0.50960    0.69680    0.24300    1.000
    C11      C        0.48801    0.62089    0.22794    1.000
    H7       H        0.47260    0.61780    0.18030    1.000
    C12      C        0.48796    0.57800    0.25899    1.000
    C13      C        0.51022    0.58292    0.32926    1.000
    H8       H        0.51010    0.55380    0.35150    1.000
    C14      C        0.53237    0.62997    0.36660    1.000
    H9       H        0.54740    0.63280    0.41440    1.000
    C15      C        0.46696    0.52834    0.21524    1.000
    C16      C        0.56267    0.71221    0.51562    1.000
    C17      C        0.60259    0.73089    0.56849    1.000
    H10      H        0.63470    0.76170    0.55850    1.000
    C18      C        0.59572    0.70481    0.63535    1.000
    H11      H        0.62320    0.71750    0.67080    1.000
    C19      C        0.54885    0.66031    0.65053    1.000
    C20      C        0.50810    0.64260    0.59946    1.000
    H12      H        0.47540    0.61290    0.61060    1.000
    C21      C        0.51545    0.66866    0.53191    1.000
    H13      H        0.48780    0.65640    0.49680    1.000
    C22      C        0.54303    0.62851    0.71889    1.000
    Zn2      Zn       0.29582    0.19002    0.85290    1.000
    N4       N        0.31029    0.22981    0.75166    1.000
    N5       N        0.26516    0.12800    0.77950    1.000
    N6       N        0.24469    0.10273    0.66336    1.000
    H14      H        0.24217    0.10423    0.61463    1.000
    O5       O        0.13985    0.82613    0.57734    1.000
    O6       O        0.11305    0.85851    0.48707    1.000
    O7       O        0.24857    0.97058    0.08989    1.000
    O8       O        0.16468    0.92499    0.06800    1.000
    C23      C        0.33269    0.28119    0.74148    1.000
    H15      H        0.34577    0.30333    0.78383    1.000
    C24      C        0.33765    0.30338    0.67261    1.000
    H16      H        0.35357    0.34003    0.66753    1.000
    C25      C        0.31926    0.27160    0.61129    1.000
    H17      H        0.32267    0.28613    0.56293    1.000
    C26      C        0.29563    0.21815    0.62006    1.000
    H18      H        0.28237    0.19553    0.57823    1.000
    C27      C        0.29182    0.19862    0.69123    1.000
    C28      C        0.26763    0.14353    0.70925    1.000
    C29      C        0.23869    0.07445    0.77845    1.000
    C30      C        0.22546    0.05767    0.70502    1.000
    C31      C        0.19970    0.00680    0.66850    1.000
    C32      C        0.17671    0.00129    0.59851    1.000
    H19      H        0.17627    0.03013    0.57633    1.000
    C33      C        0.15468    0.95422    0.56127    1.000
    H20      H        0.13927    0.95113    0.51363    1.000
    C34      C        0.15463    0.91133    0.59232    1.000
    C35      C        0.17689    0.91625    0.66259    1.000
    H21      H        0.17677    0.88713    0.68483    1.000
    C36      C        0.19904    0.96330    0.69993    1.000
    H22      H        0.21407    0.96613    0.74773    1.000
    C37      C        0.13363    0.86167    0.54857    1.000
    C38      C        0.22934    0.04554    0.84895    1.000
    C39      C        0.26926    0.06422    0.90182    1.000
    H23      H        0.30137    0.09503    0.89183    1.000
    C40      C        0.26239    0.03814    0.96868    1.000
    H24      H        0.28987    0.05083    0.00413    1.000
    C41      C        0.21552    0.99364    0.98386    1.000
    C42      C        0.17477    0.97593    0.93279    1.000
    H25      H        0.14207    0.94623    0.94393    1.000
    C43      C        0.18212    0.00199    0.86524    1.000
    H26      H        0.15447    0.98973    0.83013    1.000
    C44      C        0.20970    0.96184    0.05222    1.000
    Zn3      Zn       0.96248    0.52336    0.18624    1.000
    N7       N        0.97695    0.56315    0.08500    1.000
    N8       N        0.93182    0.46134    0.11284    1.000
    N9       N        0.91135    0.43607    0.99670    1.000
    H27      H        0.90883    0.43757    0.94797    1.000
    O9       O        0.80651    0.15947    0.91068    1.000
    O10      O        0.77971    0.19185    0.82041    1.000
    O11      O        0.91523    0.30392    0.42323    1.000
    O12      O        0.83134    0.25833    0.40134    1.000
    C45      C        0.99935    0.61453    0.07482    1.000
    H28      H        0.01243    0.63667    0.11717    1.000
    C46      C        0.00431    0.63672    0.00595    1.000
    H29      H        0.02023    0.67337    0.00087    1.000
    C47      C        0.98592    0.60494    0.94463    1.000
    H30      H        0.98933    0.61947    0.89627    1.000
    C48      C        0.96229    0.55149    0.95340    1.000
    H31      H        0.94903    0.52887    0.91157    1.000
    C49      C        0.95848    0.53196    0.02457    1.000
    C50      C        0.93429    0.47687    0.04259    1.000
    C51      C        0.90535    0.40779    0.11179    1.000
    C52      C        0.89212    0.39101    0.03836    1.000
    C53      C        0.86636    0.34014    0.00184    1.000
    C54      C        0.84337    0.33463    0.93185    1.000
    H32      H        0.84293    0.36347    0.90967    1.000
    C55      C        0.82134    0.28756    0.89461    1.000
    H33      H        0.80593    0.28447    0.84697    1.000
    C56      C        0.82129    0.24467    0.92566    1.000
    C57      C        0.84355    0.24959    0.99593    1.000
    H34      H        0.84343    0.22047    0.01817    1.000
    C58      C        0.86570    0.29664    0.03327    1.000
    H35      H        0.88073    0.29947    0.08107    1.000
    C59      C        0.80029    0.19501    0.88191    1.000
    C60      C        0.89600    0.37888    0.18229    1.000
    C61      C        0.93592    0.39756    0.23516    1.000
    H36      H        0.96803    0.42837    0.22517    1.000
    C62      C        0.92905    0.37148    0.30202    1.000
    H37      H        0.95653    0.38417    0.33747    1.000
    C63      C        0.88218    0.32698    0.31720    1.000
    C64      C        0.84143    0.30927    0.26613    1.000
    H38      H        0.80873    0.27957    0.27727    1.000
    C65      C        0.84878    0.33533    0.19858    1.000
    H39      H        0.82113    0.32307    0.16347    1.000
    C66      C        0.87636    0.29518    0.38556    1.000
    Zn4      Zn       0.14331    0.77246    0.51957    1.000
    N10      N        0.10352    0.74714    0.41833    1.000
    N11      N        0.20533    0.80382    0.44617    1.000
    N12      N        0.23060    0.80862    0.33003    1.000
    H40      H        0.22910    0.80460    0.28130    1.000
    O13      O        0.50720    0.98038    0.24401    1.000
    O14      O        0.47482    0.92120    0.15374    1.000
    O15      O        0.36275    0.94465    0.75656    1.000
    O16      O        0.40834    0.90635    0.73467    1.000
    C67      C        0.05214    0.71816    0.40815    1.000
    H41      H        0.03000    0.70910    0.45050    1.000
    C68      C        0.02995    0.70093    0.33928    1.000
    H42      H        0.99330    0.68020    0.33420    1.000
    C69      C        0.06173    0.71432    0.27796    1.000
    H43      H        0.04720    0.70320    0.22960    1.000
    C70      C        0.11518    0.74414    0.28673    1.000
    H44      H        0.13780    0.75350    0.24490    1.000
    C71      C        0.13471    0.75986    0.35790    1.000
    C72      C        0.18980    0.79076    0.37592    1.000
    C73      C        0.25888    0.83090    0.44512    1.000
    C74      C        0.27566    0.83445    0.37169    1.000
    C75      C        0.32653    0.85956    0.33517    1.000
    C76      C        0.33204    0.84208    0.26518    1.000
    H45      H        0.30320    0.81280    0.24300    1.000
    C77      C        0.37911    0.86712    0.22794    1.000
    H46      H        0.38220    0.85480    0.18030    1.000
    C78      C        0.42200    0.90996    0.25899    1.000
    C79      C        0.41708    0.92730    0.32926    1.000
    H47      H        0.44620    0.95630    0.35150    1.000
    C80      C        0.37003    0.90240    0.36660    1.000
    H48      H        0.36720    0.91460    0.41440    1.000
    C81      C        0.47166    0.93862    0.21524    1.000
    C82      C        0.28779    0.85046    0.51562    1.000
    C83      C        0.26911    0.87170    0.56849    1.000
    H49      H        0.23830    0.87300    0.55850    1.000
    C84      C        0.29519    0.89091    0.63535    1.000
    H50      H        0.28250    0.90570    0.67080    1.000
    C85      C        0.33969    0.88854    0.65053    1.000
    C86      C        0.35740    0.86550    0.59946    1.000
    H51      H        0.38710    0.86250    0.61060    1.000
    C87      C        0.33134    0.84679    0.53191    1.000
    H52      H        0.34360    0.83140    0.49680    1.000
    C88      C        0.37149    0.91452    0.71889    1.000
    Zn5      Zn       0.80998    0.10579    0.85290    1.000
    N13      N        0.77019    0.08047    0.75166    1.000
    N14      N        0.87200    0.13715    0.77950    1.000
    N15      N        0.89727    0.14195    0.66336    1.000
    H53      H        0.89577    0.13793    0.61463    1.000
    O17      O        0.17387    0.31371    0.57734    1.000
    O18      O        0.14149    0.25453    0.48707    1.000
    O19      O        0.02942    0.27798    0.08989    1.000
    O20      O        0.07501    0.23968    0.06800    1.000
    C89      C        0.71881    0.05149    0.74148    1.000
    H54      H        0.69667    0.04243    0.78383    1.000
    C90      C        0.69662    0.03426    0.67261    1.000
    H55      H        0.65997    0.01353    0.66753    1.000
    C91      C        0.72840    0.04765    0.61129    1.000
    H56      H        0.71387    0.03653    0.56293    1.000
    C92      C        0.78185    0.07747    0.62006    1.000
    H57      H        0.80447    0.08683    0.57823    1.000
    C93      C        0.80138    0.09319    0.69123    1.000
    C94      C        0.85647    0.12409    0.70925    1.000
    C95      C        0.92555    0.16423    0.77845    1.000
    C96      C        0.94233    0.16778    0.70502    1.000
    C97      C        0.99320    0.19289    0.66850    1.000
    C98      C        0.99871    0.17541    0.59851    1.000
    H58      H        0.96987    0.14613    0.57633    1.000
    C99      C        0.04578    0.20045    0.56127    1.000
    H59      H        0.04887    0.18813    0.51363    1.000
    C100     C        0.08867    0.24329    0.59232    1.000
    C101     C        0.08375    0.26063    0.66259    1.000
    H60      H        0.11287    0.28963    0.68483    1.000
    C102     C        0.03670    0.23573    0.69993    1.000
    H61      H        0.03387    0.24793    0.74773    1.000
    C103     C        0.13833    0.27195    0.54857    1.000
    C104     C        0.95446    0.18379    0.84895    1.000
    C105     C        0.93578    0.20503    0.90182    1.000
    H62      H        0.90497    0.20633    0.89183    1.000
    C106     C        0.96186    0.22424    0.96868    1.000
    H63      H        0.94917    0.23903    0.00413    1.000
    C107     C        0.00636    0.22187    0.98386    1.000
    C108     C        0.02407    0.19883    0.93279    1.000
    H64      H        0.05377    0.19583    0.94393    1.000
    C109     C        0.99801    0.18012    0.86524    1.000
    H65      H        0.01027    0.16473    0.83013    1.000
    C110     C        0.03816    0.24785    0.05222    1.000
    Zn6      Zn       0.47664    0.43913    0.18624    1.000
    N16      N        0.43685    0.41381    0.08500    1.000
    N17      N        0.53866    0.47049    0.11284    1.000
    N18      N        0.56393    0.47529    0.99670    1.000
    H66      H        0.56243    0.47127    0.94797    1.000
    O21      O        0.84053    0.64705    0.91068    1.000
    O22      O        0.80815    0.58787    0.82041    1.000
    O23      O        0.69608    0.61132    0.42323    1.000
    O24      O        0.74167    0.57302    0.40134    1.000
    C111     C        0.38547    0.38483    0.07482    1.000
    H67      H        0.36333    0.37577    0.11717    1.000
    C112     C        0.36328    0.36760    0.00595    1.000
    H68      H        0.32663    0.34687    0.00087    1.000
    C113     C        0.39506    0.38099    0.94463    1.000
    H69      H        0.38053    0.36987    0.89627    1.000
    C114     C        0.44851    0.41081    0.95340    1.000
    H70      H        0.47113    0.42017    0.91157    1.000
    C115     C        0.46804    0.42653    0.02457    1.000
    C116     C        0.52313    0.45743    0.04259    1.000
    C117     C        0.59221    0.49757    0.11179    1.000
    C118     C        0.60899    0.50112    0.03836    1.000
    C119     C        0.65986    0.52623    0.00184    1.000
    C120     C        0.66537    0.50875    0.93185    1.000
    H71      H        0.63653    0.47947    0.90967    1.000
    C121     C        0.71244    0.53379    0.89461    1.000
    H72      H        0.71553    0.52147    0.84697    1.000
    C122     C        0.75533    0.57663    0.92566    1.000
    C123     C        0.75041    0.59397    0.99593    1.000
    H73      H        0.77953    0.62297    0.01817    1.000
    C124     C        0.70336    0.56907    0.03327    1.000
    H74      H        0.70053    0.58127    0.08107    1.000
    C125     C        0.80499    0.60529    0.88191    1.000
    C126     C        0.62112    0.51713    0.18229    1.000
    C127     C        0.60244    0.53837    0.23516    1.000
    H75      H        0.57163    0.53967    0.22517    1.000
    C128     C        0.62852    0.55758    0.30202    1.000
    H76      H        0.61583    0.57237    0.33747    1.000
    C129     C        0.67302    0.55521    0.31720    1.000
    C130     C        0.69073    0.53217    0.26613    1.000
    H77      H        0.72043    0.52917    0.27727    1.000
    C131     C        0.66467    0.51346    0.19858    1.000
    H78      H        0.67693    0.49807    0.16347    1.000
    C132     C        0.70482    0.58119    0.38556    1.000
    Zn7      Zn       0.22754    0.37085    0.51957    1.000
    N19      N        0.25286    0.35638    0.41833    1.000
    N20      N        0.19618    0.40151    0.44617    1.000
    N21      N        0.19138    0.42198    0.33003    1.000
    H79      H        0.19540    0.42450    0.28130    1.000
    O25      O        0.01962    0.52682    0.24401    1.000
    O26      O        0.07880    0.55362    0.15374    1.000
    O27      O        0.05535    0.41810    0.75656    1.000
    O28      O        0.09365    0.50199    0.73467    1.000
    C133     C        0.28184    0.33398    0.40815    1.000
    H80      H        0.29090    0.32090    0.45050    1.000
    C134     C        0.29907    0.32902    0.33928    1.000
    H81      H        0.31980    0.31310    0.33420    1.000
    C135     C        0.28568    0.34741    0.27796    1.000
    H82      H        0.29680    0.34400    0.22960    1.000
    C136     C        0.25586    0.37104    0.28673    1.000
    H83      H        0.24650    0.38430    0.24490    1.000
    C137     C        0.24014    0.37485    0.35790    1.000
    C138     C        0.20924    0.39904    0.37592    1.000
    C139     C        0.16910    0.42798    0.44512    1.000
    C140     C        0.16555    0.44121    0.37169    1.000
    C141     C        0.14044    0.46697    0.33517    1.000
    C142     C        0.15792    0.48996    0.26518    1.000
    H84      H        0.18720    0.49040    0.24300    1.000
    C143     C        0.13288    0.51199    0.22794    1.000
    H85      H        0.14520    0.52740    0.18030    1.000
    C144     C        0.09004    0.51204    0.25899    1.000
    C145     C        0.07270    0.48978    0.32926    1.000
    H86      H        0.04370    0.48990    0.35150    1.000
    C146     C        0.09760    0.46763    0.36660    1.000
    H87      H        0.08540    0.45260    0.41440    1.000
    C147     C        0.06138    0.53304    0.21524    1.000
    C148     C        0.14954    0.43733    0.51562    1.000
    C149     C        0.12830    0.39741    0.56849    1.000
    H88      H        0.12700    0.36530    0.55850    1.000
    C150     C        0.10909    0.40428    0.63535    1.000
    H89      H        0.09430    0.37680    0.67080    1.000
    C151     C        0.11146    0.45115    0.65053    1.000
    C152     C        0.13450    0.49190    0.59946    1.000
    H90      H        0.13750    0.52460    0.61060    1.000
    C153     C        0.15321    0.48455    0.53191    1.000
    H91      H        0.16860    0.51220    0.49680    1.000
    C154     C        0.08548    0.45697    0.71889    1.000
    Zn8      Zn       0.89421    0.70418    0.85290    1.000
    N22      N        0.91953    0.68971    0.75166    1.000
    N23      N        0.86285    0.73484    0.77950    1.000
    N24      N        0.85805    0.75531    0.66336    1.000
    H92      H        0.86207    0.75783    0.61463    1.000
    O29      O        0.68629    0.86015    0.57734    1.000
    O30      O        0.74547    0.88695    0.48707    1.000
    O31      O        0.72202    0.75143    0.08989    1.000
    O32      O        0.76032    0.83532    0.06800    1.000
    C155     C        0.94851    0.66731    0.74148    1.000
    H93      H        0.95757    0.65423    0.78383    1.000
    C156     C        0.96574    0.66235    0.67261    1.000
    H94      H        0.98647    0.64643    0.66753    1.000
    C157     C        0.95235    0.68074    0.61129    1.000
    H95      H        0.96347    0.67733    0.56293    1.000
    C158     C        0.92253    0.70437    0.62006    1.000
    H96      H        0.91317    0.71763    0.57823    1.000
    C159     C        0.90681    0.70818    0.69123    1.000
    C160     C        0.87591    0.73237    0.70925    1.000
    C161     C        0.83577    0.76131    0.77845    1.000
    C162     C        0.83222    0.77454    0.70502    1.000
    C163     C        0.80711    0.80030    0.66850    1.000
    C164     C        0.82459    0.82329    0.59851    1.000
    H97      H        0.85387    0.82373    0.57633    1.000
    C165     C        0.79955    0.84532    0.56127    1.000
    H98      H        0.81187    0.86073    0.51363    1.000
    C166     C        0.75671    0.84537    0.59232    1.000
    C167     C        0.73937    0.82311    0.66259    1.000
    H99      H        0.71037    0.82323    0.68483    1.000
    C168     C        0.76427    0.80096    0.69993    1.000
    H100     H        0.75207    0.78593    0.74773    1.000
    C169     C        0.72805    0.86637    0.54857    1.000
    C170     C        0.81621    0.77066    0.84895    1.000
    C171     C        0.79497    0.73074    0.90182    1.000
    H101     H        0.79367    0.69863    0.89183    1.000
    C172     C        0.77576    0.73761    0.96868    1.000
    H102     H        0.76097    0.71013    0.00413    1.000
    C173     C        0.77813    0.78448    0.98386    1.000
    C174     C        0.80117    0.82523    0.93279    1.000
    H103     H        0.80417    0.85793    0.94393    1.000
    C175     C        0.81988    0.81788    0.86524    1.000
    H104     H        0.83527    0.84553    0.83013    1.000
    C176     C        0.75215    0.79030    0.05222    1.000
    Zn9      Zn       0.56087    0.03752    0.18624    1.000
    N25      N        0.58619    0.02305    0.08500    1.000
    N26      N        0.52951    0.06818    0.11284    1.000
    N27      N        0.52471    0.08865    0.99670    1.000
    H105     H        0.52873    0.09117    0.94797    1.000
    O33      O        0.35295    0.19349    0.91068    1.000
    O34      O        0.41213    0.22029    0.82041    1.000
    O35      O        0.38868    0.08477    0.42323    1.000
    O36      O        0.42698    0.16866    0.40134    1.000
    C177     C        0.61517    0.00065    0.07482    1.000
    H106     H        0.62423    0.98757    0.11717    1.000
    C178     C        0.63240    0.99569    0.00595    1.000
    H107     H        0.65313    0.97977    0.00087    1.000
    C179     C        0.61901    0.01408    0.94463    1.000
    H108     H        0.63013    0.01067    0.89627    1.000
    C180     C        0.58919    0.03771    0.95340    1.000
    H109     H        0.57983    0.05097    0.91157    1.000
    C181     C        0.57347    0.04152    0.02457    1.000
    C182     C        0.54257    0.06571    0.04259    1.000
    C183     C        0.50243    0.09465    0.11179    1.000
    C184     C        0.49888    0.10788    0.03836    1.000
    C185     C        0.47377    0.13364    0.00184    1.000
    C186     C        0.49125    0.15663    0.93185    1.000
    H110     H        0.52053    0.15707    0.90967    1.000
    C187     C        0.46621    0.17866    0.89461    1.000
    H111     H        0.47853    0.19407    0.84697    1.000
    C188     C        0.42337    0.17871    0.92566    1.000
    C189     C        0.40603    0.15645    0.99593    1.000
    H112     H        0.37703    0.15657    0.01817    1.000
    C190     C        0.43093    0.13430    0.03327    1.000
    H113     H        0.41873    0.11927    0.08107    1.000
    C191     C        0.39471    0.19971    0.88191    1.000
    C192     C        0.48287    0.10400    0.18229    1.000
    C193     C        0.46163    0.06408    0.23516    1.000
    H114     H        0.46033    0.03197    0.22517    1.000
    C194     C        0.44242    0.07095    0.30202    1.000
    H115     H        0.42763    0.04347    0.33747    1.000
    C195     C        0.44479    0.11782    0.31720    1.000
    C196     C        0.46783    0.15857    0.26613    1.000
    H116     H        0.47083    0.19127    0.27727    1.000
    C197     C        0.48654    0.15122    0.19858    1.000
    H117     H        0.50193    0.17887    0.16347    1.000
    C198     C        0.41881    0.12364    0.38556    1.000
    Zn10     Zn       0.37085    0.14331    0.48043    1.000
    N28      N        0.35638    0.10352    0.58167    1.000
    N29      N        0.40151    0.20533    0.55383    1.000
    N30      N        0.42198    0.23060    0.66997    1.000
    H118     H        0.42450    0.22910    0.71870    1.000
    O37      O        0.52682    0.50720    0.75599    1.000
    O38      O        0.55362    0.47482    0.84626    1.000
    O39      O        0.41810    0.36275    0.24344    1.000
    O40      O        0.50199    0.40834    0.26533    1.000
    C199     C        0.33398    0.05214    0.59185    1.000
    H119     H        0.32090    0.03000    0.54950    1.000
    C200     C        0.32902    0.02995    0.66072    1.000
    H120     H        0.31310    0.99330    0.66580    1.000
    C201     C        0.34741    0.06173    0.72204    1.000
    H121     H        0.34400    0.04720    0.77040    1.000
    C202     C        0.37104    0.11518    0.71327    1.000
    H122     H        0.38430    0.13780    0.75510    1.000
    C203     C        0.37485    0.13471    0.64210    1.000
    C204     C        0.39904    0.18980    0.62408    1.000
    C205     C        0.42798    0.25888    0.55488    1.000
    C206     C        0.44121    0.27566    0.62831    1.000
    C207     C        0.46697    0.32653    0.66483    1.000
    C208     C        0.48996    0.33204    0.73482    1.000
    H123     H        0.49040    0.30320    0.75700    1.000
    C209     C        0.51199    0.37911    0.77206    1.000
    H124     H        0.52740    0.38220    0.81970    1.000
    C210     C        0.51204    0.42200    0.74101    1.000
    C211     C        0.48978    0.41708    0.67074    1.000
    H125     H        0.48990    0.44620    0.64850    1.000
    C212     C        0.46763    0.37003    0.63340    1.000
    H126     H        0.45260    0.36720    0.58560    1.000
    C213     C        0.53304    0.47166    0.78476    1.000
    C214     C        0.43733    0.28779    0.48438    1.000
    C215     C        0.39741    0.26911    0.43151    1.000
    H127     H        0.36530    0.23830    0.44150    1.000
    C216     C        0.40428    0.29519    0.36465    1.000
    H128     H        0.37680    0.28250    0.32920    1.000
    C217     C        0.45115    0.33969    0.34947    1.000
    C218     C        0.49190    0.35740    0.40054    1.000
    H129     H        0.52460    0.38710    0.38940    1.000
    C219     C        0.48455    0.33134    0.46809    1.000
    H130     H        0.51220    0.34360    0.50320    1.000
    C220     C        0.45697    0.37149    0.28111    1.000
    Zn11     Zn       0.03752    0.47664    0.81376    1.000
    N31      N        0.02305    0.43685    0.91500    1.000
    N32      N        0.06818    0.53866    0.88716    1.000
    N33      N        0.08865    0.56393    0.00330    1.000
    H131     H        0.09117    0.56243    0.05203    1.000
    O41      O        0.19349    0.84053    0.08932    1.000
    O42      O        0.22029    0.80815    0.17959    1.000
    O43      O        0.08477    0.69608    0.57677    1.000
    O44      O        0.16866    0.74167    0.59866    1.000
    C221     C        0.00065    0.38547    0.92518    1.000
    H132     H        0.98757    0.36333    0.88283    1.000
    C222     C        0.99569    0.36328    0.99405    1.000
    H133     H        0.97977    0.32663    0.99913    1.000
    C223     C        0.01408    0.39506    0.05537    1.000
    H134     H        0.01067    0.38053    0.10373    1.000
    C224     C        0.03771    0.44851    0.04660    1.000
    H135     H        0.05097    0.47113    0.08843    1.000
    C225     C        0.04152    0.46804    0.97543    1.000
    C226     C        0.06571    0.52313    0.95741    1.000
    C227     C        0.09465    0.59221    0.88821    1.000
    C228     C        0.10788    0.60899    0.96164    1.000
    C229     C        0.13364    0.65986    0.99816    1.000
    C230     C        0.15663    0.66537    0.06815    1.000
    H136     H        0.15707    0.63653    0.09033    1.000
    C231     C        0.17866    0.71244    0.10539    1.000
    H137     H        0.19407    0.71553    0.15303    1.000
    C232     C        0.17871    0.75533    0.07434    1.000
    C233     C        0.15645    0.75041    0.00407    1.000
    H138     H        0.15657    0.77953    0.98183    1.000
    C234     C        0.13430    0.70336    0.96673    1.000
    H139     H        0.11927    0.70053    0.91893    1.000
    C235     C        0.19971    0.80499    0.11809    1.000
    C236     C        0.10400    0.62112    0.81771    1.000
    C237     C        0.06408    0.60244    0.76484    1.000
    H140     H        0.03197    0.57163    0.77483    1.000
    C238     C        0.07095    0.62852    0.69798    1.000
    H141     H        0.04347    0.61583    0.66253    1.000
    C239     C        0.11782    0.67302    0.68280    1.000
    C240     C        0.15857    0.69073    0.73387    1.000
    H142     H        0.19127    0.72043    0.72273    1.000
    C241     C        0.15122    0.66467    0.80142    1.000
    H143     H        0.17887    0.67693    0.83653    1.000
    C242     C        0.12364    0.70482    0.61444    1.000
    Zn12     Zn       0.70418    0.80998    0.14710    1.000
    N34      N        0.68971    0.77019    0.24834    1.000
    N35      N        0.73484    0.87200    0.22050    1.000
    N36      N        0.75531    0.89727    0.33664    1.000
    H144     H        0.75783    0.89577    0.38537    1.000
    O45      O        0.86015    0.17387    0.42266    1.000
    O46      O        0.88695    0.14149    0.51293    1.000
    O47      O        0.75143    0.02942    0.91011    1.000
    O48      O        0.83532    0.07501    0.93200    1.000
    C243     C        0.66731    0.71881    0.25852    1.000
    H145     H        0.65423    0.69667    0.21617    1.000
    C244     C        0.66235    0.69662    0.32739    1.000
    H146     H        0.64643    0.65997    0.33247    1.000
    C245     C        0.68074    0.72840    0.38871    1.000
    H147     H        0.67733    0.71387    0.43707    1.000
    C246     C        0.70437    0.78185    0.37994    1.000
    H148     H        0.71763    0.80447    0.42177    1.000
    C247     C        0.70818    0.80138    0.30877    1.000
    C248     C        0.73237    0.85647    0.29075    1.000
    C249     C        0.76131    0.92555    0.22155    1.000
    C250     C        0.77454    0.94233    0.29498    1.000
    C251     C        0.80030    0.99320    0.33150    1.000
    C252     C        0.82329    0.99871    0.40149    1.000
    H149     H        0.82373    0.96987    0.42367    1.000
    C253     C        0.84532    0.04578    0.43873    1.000
    H150     H        0.86073    0.04887    0.48637    1.000
    C254     C        0.84537    0.08867    0.40768    1.000
    C255     C        0.82311    0.08375    0.33741    1.000
    H151     H        0.82323    0.11287    0.31517    1.000
    C256     C        0.80096    0.03670    0.30007    1.000
    H152     H        0.78593    0.03387    0.25227    1.000
    C257     C        0.86637    0.13833    0.45143    1.000
    C258     C        0.77066    0.95446    0.15105    1.000
    C259     C        0.73074    0.93578    0.09818    1.000
    H153     H        0.69863    0.90497    0.10817    1.000
    C260     C        0.73761    0.96186    0.03132    1.000
    H154     H        0.71013    0.94917    0.99587    1.000
    C261     C        0.78448    0.00636    0.01614    1.000
    C262     C        0.82523    0.02407    0.06721    1.000
    H155     H        0.85793    0.05377    0.05607    1.000
    C263     C        0.81788    0.99801    0.13476    1.000
    H156     H        0.84553    0.01027    0.16987    1.000
    C264     C        0.79030    0.03816    0.94778    1.000
    Zn13     Zn       0.85669    0.22754    0.48043    1.000
    N37      N        0.89648    0.25286    0.58167    1.000
    N38      N        0.79467    0.19618    0.55383    1.000
    N39      N        0.76940    0.19138    0.66997    1.000
    H157     H        0.77090    0.19540    0.71870    1.000
    O49      O        0.49280    0.01962    0.75599    1.000
    O50      O        0.52518    0.07880    0.84626    1.000
    O51      O        0.63725    0.05535    0.24344    1.000
    O52      O        0.59166    0.09365    0.26533    1.000
    C265     C        0.94786    0.28184    0.59185    1.000
    H158     H        0.97000    0.29090    0.54950    1.000
    C266     C        0.97005    0.29907    0.66072    1.000
    H159     H        0.00670    0.31980    0.66580    1.000
    C267     C        0.93827    0.28568    0.72204    1.000
    H160     H        0.95280    0.29680    0.77040    1.000
    C268     C        0.88482    0.25586    0.71327    1.000
    H161     H        0.86220    0.24650    0.75510    1.000
    C269     C        0.86529    0.24014    0.64210    1.000
    C270     C        0.81020    0.20924    0.62408    1.000
    C271     C        0.74112    0.16910    0.55488    1.000
    C272     C        0.72434    0.16555    0.62831    1.000
    C273     C        0.67347    0.14044    0.66483    1.000
    C274     C        0.66796    0.15792    0.73482    1.000
    H162     H        0.69680    0.18720    0.75700    1.000
    C275     C        0.62089    0.13288    0.77206    1.000
    H163     H        0.61780    0.14520    0.81970    1.000
    C276     C        0.57800    0.09004    0.74101    1.000
    C277     C        0.58292    0.07270    0.67074    1.000
    H164     H        0.55380    0.04370    0.64850    1.000
    C278     C        0.62997    0.09760    0.63340    1.000
    H165     H        0.63280    0.08540    0.58560    1.000
    C279     C        0.52834    0.06138    0.78476    1.000
    C280     C        0.71221    0.14954    0.48438    1.000
    C281     C        0.73089    0.12830    0.43151    1.000
    H166     H        0.76170    0.12700    0.44150    1.000
    C282     C        0.70481    0.10909    0.36465    1.000
    H167     H        0.71750    0.09430    0.32920    1.000
    C283     C        0.66031    0.11146    0.34947    1.000
    C284     C        0.64260    0.13450    0.40054    1.000
    H168     H        0.61290    0.13750    0.38940    1.000
    C285     C        0.66866    0.15321    0.46809    1.000
    H169     H        0.65640    0.16860    0.50320    1.000
    C286     C        0.62851    0.08548    0.28111    1.000
    Zn14     Zn       0.52336    0.56087    0.81376    1.000
    N40      N        0.56315    0.58619    0.91500    1.000
    N41      N        0.46134    0.52951    0.88716    1.000
    N42      N        0.43607    0.52471    0.00330    1.000
    H170     H        0.43757    0.52873    0.05203    1.000
    O53      O        0.15947    0.35295    0.08932    1.000
    O54      O        0.19185    0.41213    0.17959    1.000
    O55      O        0.30392    0.38868    0.57677    1.000
    O56      O        0.25833    0.42698    0.59866    1.000
    C287     C        0.61453    0.61517    0.92518    1.000
    H171     H        0.63667    0.62423    0.88283    1.000
    C288     C        0.63672    0.63240    0.99405    1.000
    H172     H        0.67337    0.65313    0.99913    1.000
    C289     C        0.60494    0.61901    0.05537    1.000
    H173     H        0.61947    0.63013    0.10373    1.000
    C290     C        0.55149    0.58919    0.04660    1.000
    H174     H        0.52887    0.57983    0.08843    1.000
    C291     C        0.53196    0.57347    0.97543    1.000
    C292     C        0.47687    0.54257    0.95741    1.000
    C293     C        0.40779    0.50243    0.88821    1.000
    C294     C        0.39101    0.49888    0.96164    1.000
    C295     C        0.34014    0.47377    0.99816    1.000
    C296     C        0.33463    0.49125    0.06815    1.000
    H175     H        0.36347    0.52053    0.09033    1.000
    C297     C        0.28756    0.46621    0.10539    1.000
    H176     H        0.28447    0.47853    0.15303    1.000
    C298     C        0.24467    0.42337    0.07434    1.000
    C299     C        0.24959    0.40603    0.00407    1.000
    H177     H        0.22047    0.37703    0.98183    1.000
    C300     C        0.29664    0.43093    0.96673    1.000
    H178     H        0.29947    0.41873    0.91893    1.000
    C301     C        0.19501    0.39471    0.11809    1.000
    C302     C        0.37888    0.48287    0.81771    1.000
    C303     C        0.39756    0.46163    0.76484    1.000
    H179     H        0.42837    0.46033    0.77483    1.000
    C304     C        0.37148    0.44242    0.69798    1.000
    H180     H        0.38417    0.42763    0.66253    1.000
    C305     C        0.32698    0.44479    0.68280    1.000
    C306     C        0.30927    0.46783    0.73387    1.000
    H181     H        0.27957    0.47083    0.72273    1.000
    C307     C        0.33533    0.48654    0.80142    1.000
    H182     H        0.32307    0.50193    0.83653    1.000
    C308     C        0.29518    0.41881    0.61444    1.000
    Zn15     Zn       0.19002    0.89421    0.14710    1.000
    N43      N        0.22981    0.91953    0.24834    1.000
    N44      N        0.12800    0.86285    0.22050    1.000
    N45      N        0.10273    0.85805    0.33664    1.000
    H183     H        0.10423    0.86207    0.38537    1.000
    O57      O        0.82613    0.68629    0.42266    1.000
    O58      O        0.85851    0.74547    0.51293    1.000
    O59      O        0.97058    0.72202    0.91011    1.000
    O60      O        0.92499    0.76032    0.93200    1.000
    C309     C        0.28119    0.94851    0.25852    1.000
    H184     H        0.30333    0.95757    0.21617    1.000
    C310     C        0.30338    0.96574    0.32739    1.000
    H185     H        0.34003    0.98647    0.33247    1.000
    C311     C        0.27160    0.95235    0.38871    1.000
    H186     H        0.28613    0.96347    0.43707    1.000
    C312     C        0.21815    0.92253    0.37994    1.000
    H187     H        0.19553    0.91317    0.42177    1.000
    C313     C        0.19862    0.90681    0.30877    1.000
    C314     C        0.14353    0.87591    0.29075    1.000
    C315     C        0.07445    0.83577    0.22155    1.000
    C316     C        0.05767    0.83222    0.29498    1.000
    C317     C        0.00680    0.80711    0.33150    1.000
    C318     C        0.00129    0.82459    0.40149    1.000
    H188     H        0.03013    0.85387    0.42367    1.000
    C319     C        0.95422    0.79955    0.43873    1.000
    H189     H        0.95113    0.81187    0.48637    1.000
    C320     C        0.91133    0.75671    0.40768    1.000
    C321     C        0.91625    0.73937    0.33741    1.000
    H190     H        0.88713    0.71037    0.31517    1.000
    C322     C        0.96330    0.76427    0.30007    1.000
    H191     H        0.96613    0.75207    0.25227    1.000
    C323     C        0.86167    0.72805    0.45143    1.000
    C324     C        0.04554    0.81621    0.15105    1.000
    C325     C        0.06422    0.79497    0.09818    1.000
    H192     H        0.09503    0.79367    0.10817    1.000
    C326     C        0.03814    0.77576    0.03132    1.000
    H193     H        0.05083    0.76097    0.99587    1.000
    C327     C        0.99364    0.77813    0.01614    1.000
    C328     C        0.97593    0.80117    0.06721    1.000
    H194     H        0.94623    0.80417    0.05607    1.000
    C329     C        0.00199    0.81988    0.13476    1.000
    H195     H        0.98973    0.83527    0.16987    1.000
    C330     C        0.96184    0.75215    0.94778    1.000
    Zn16     Zn       0.77246    0.62915    0.48043    1.000
    N46      N        0.74714    0.64362    0.58167    1.000
    N47      N        0.80382    0.59849    0.55383    1.000
    N48      N        0.80862    0.57802    0.66997    1.000
    H196     H        0.80460    0.57550    0.71870    1.000
    O61      O        0.98038    0.47318    0.75599    1.000
    O62      O        0.92120    0.44638    0.84626    1.000
    O63      O        0.94465    0.58190    0.24344    1.000
    O64      O        0.90635    0.49801    0.26533    1.000
    C331     C        0.71816    0.66602    0.59185    1.000
    H197     H        0.70910    0.67910    0.54950    1.000
    C332     C        0.70093    0.67098    0.66072    1.000
    H198     H        0.68020    0.68690    0.66580    1.000
    C333     C        0.71432    0.65259    0.72204    1.000
    H199     H        0.70320    0.65600    0.77040    1.000
    C334     C        0.74414    0.62896    0.71327    1.000
    H200     H        0.75350    0.61570    0.75510    1.000
    C335     C        0.75986    0.62515    0.64210    1.000
    C336     C        0.79076    0.60096    0.62408    1.000
    C337     C        0.83090    0.57202    0.55488    1.000
    C338     C        0.83445    0.55879    0.62831    1.000
    C339     C        0.85956    0.53303    0.66483    1.000
    C340     C        0.84208    0.51004    0.73482    1.000
    H201     H        0.81280    0.50960    0.75700    1.000
    C341     C        0.86712    0.48801    0.77206    1.000
    H202     H        0.85480    0.47260    0.81970    1.000
    C342     C        0.90996    0.48796    0.74101    1.000
    C343     C        0.92730    0.51022    0.67074    1.000
    H203     H        0.95630    0.51010    0.64850    1.000
    C344     C        0.90240    0.53237    0.63340    1.000
    H204     H        0.91460    0.54740    0.58560    1.000
    C345     C        0.93862    0.46696    0.78476    1.000
    C346     C        0.85046    0.56267    0.48438    1.000
    C347     C        0.87170    0.60259    0.43151    1.000
    H205     H        0.87300    0.63470    0.44150    1.000
    C348     C        0.89091    0.59572    0.36465    1.000
    H206     H        0.90570    0.62320    0.32920    1.000
    C349     C        0.88854    0.54885    0.34947    1.000
    C350     C        0.86550    0.50810    0.40054    1.000
    H207     H        0.86250    0.47540    0.38940    1.000
    C351     C        0.84679    0.51545    0.46809    1.000
    H208     H        0.83140    0.48780    0.50320    1.000
    C352     C        0.91452    0.54303    0.28111    1.000
    Zn17     Zn       0.43913    0.96248    0.81376    1.000
    N49      N        0.41381    0.97695    0.91500    1.000
    N50      N        0.47049    0.93182    0.88716    1.000
    N51      N        0.47529    0.91135    0.00330    1.000
    H209     H        0.47127    0.90883    0.05203    1.000
    O65      O        0.64705    0.80651    0.08932    1.000
    O66      O        0.58787    0.77971    0.17959    1.000
    O67      O        0.61132    0.91523    0.57677    1.000
    O68      O        0.57302    0.83134    0.59866    1.000
    C353     C        0.38483    0.99935    0.92518    1.000
    H210     H        0.37577    0.01243    0.88283    1.000
    C354     C        0.36760    0.00431    0.99405    1.000
    H211     H        0.34687    0.02023    0.99913    1.000
    C355     C        0.38099    0.98592    0.05537    1.000
    H212     H        0.36987    0.98933    0.10373    1.000
    C356     C        0.41081    0.96229    0.04660    1.000
    H213     H        0.42017    0.94903    0.08843    1.000
    C357     C        0.42653    0.95848    0.97543    1.000
    C358     C        0.45743    0.93429    0.95741    1.000
    C359     C        0.49757    0.90535    0.88821    1.000
    C360     C        0.50112    0.89212    0.96164    1.000
    C361     C        0.52623    0.86636    0.99816    1.000
    C362     C        0.50875    0.84337    0.06815    1.000
    H214     H        0.47947    0.84293    0.09033    1.000
    C363     C        0.53379    0.82134    0.10539    1.000
    H215     H        0.52147    0.80593    0.15303    1.000
    C364     C        0.57663    0.82129    0.07434    1.000
    C365     C        0.59397    0.84355    0.00407    1.000
    H216     H        0.62297    0.84343    0.98183    1.000
    C366     C        0.56907    0.86570    0.96673    1.000
    H217     H        0.58127    0.88073    0.91893    1.000
    C367     C        0.60529    0.80029    0.11809    1.000
    C368     C        0.51713    0.89600    0.81771    1.000
    C369     C        0.53837    0.93592    0.76484    1.000
    H218     H        0.53967    0.96803    0.77483    1.000
    C370     C        0.55758    0.92905    0.69798    1.000
    H219     H        0.57237    0.95653    0.66253    1.000
    C371     C        0.55521    0.88218    0.68280    1.000
    C372     C        0.53217    0.84143    0.73387    1.000
    H220     H        0.52917    0.80873    0.72273    1.000
    C373     C        0.51346    0.84878    0.80142    1.000
    H221     H        0.49807    0.82113    0.83653    1.000
    C374     C        0.58119    0.87636    0.61444    1.000
    Zn18     Zn       0.10579    0.29582    0.14710    1.000
    N52      N        0.08047    0.31029    0.24834    1.000
    N53      N        0.13715    0.26516    0.22050    1.000
    N54      N        0.14195    0.24469    0.33664    1.000
    H222     H        0.13793    0.24217    0.38537    1.000
    O69      O        0.31371    0.13985    0.42266    1.000
    O70      O        0.25453    0.11305    0.51293    1.000
    O71      O        0.27798    0.24857    0.91011    1.000
    O72      O        0.23968    0.16468    0.93200    1.000
    C375     C        0.05149    0.33269    0.25852    1.000
    H223     H        0.04243    0.34577    0.21617    1.000
    C376     C        0.03426    0.33765    0.32739    1.000
    H224     H        0.01353    0.35357    0.33247    1.000
    C377     C        0.04765    0.31926    0.38871    1.000
    H225     H        0.03653    0.32267    0.43707    1.000
    C378     C        0.07747    0.29563    0.37994    1.000
    H226     H        0.08683    0.28237    0.42177    1.000
    C379     C        0.09319    0.29182    0.30877    1.000
    C380     C        0.12409    0.26763    0.29075    1.000
    C381     C        0.16423    0.23869    0.22155    1.000
    C382     C        0.16778    0.22546    0.29498    1.000
    C383     C        0.19289    0.19970    0.33150    1.000
    C384     C        0.17541    0.17671    0.40149    1.000
    H227     H        0.14613    0.17627    0.42367    1.000
    C385     C        0.20045    0.15468    0.43873    1.000
    H228     H        0.18813    0.13927    0.48637    1.000
    C386     C        0.24329    0.15463    0.40768    1.000
    C387     C        0.26063    0.17689    0.33741    1.000
    H229     H        0.28963    0.17677    0.31517    1.000
    C388     C        0.23573    0.19904    0.30007    1.000
    H230     H        0.24793    0.21407    0.25227    1.000
    C389     C        0.27195    0.13363    0.45143    1.000
    C390     C        0.18379    0.22934    0.15105    1.000
    C391     C        0.20503    0.26926    0.09818    1.000
    H231     H        0.20633    0.30137    0.10817    1.000
    C392     C        0.22424    0.26239    0.03132    1.000
    H232     H        0.23903    0.28987    0.99587    1.000
    C393     C        0.22187    0.21552    0.01614    1.000
    C394     C        0.19883    0.17477    0.06721    1.000
    H233     H        0.19583    0.14207    0.05607    1.000
    C395     C        0.18012    0.18212    0.13476    1.000
    H234     H        0.16473    0.15447    0.16987    1.000
    C396     C        0.24785    0.20970    0.94778    1.000
