# CIF file generated by openbabel 3.1.0, see https://openbabel.org
data_I
_chemical_name_common 'image0'
_cell_length_a 8.7156
_cell_length_b 34.0813
_cell_length_c 8.636
_cell_angle_alpha 90
_cell_angle_beta 107.632
_cell_angle_gamma 90
_space_group_name_H-M_alt 'P 1'
_space_group_name_Hall 'P 1'
loop_
    _symmetry_equiv_pos_as_xyz
    x,y,z
loop_
    _atom_site_label
    _atom_site_type_symbol
    _atom_site_fract_x
    _atom_site_fract_y
    _atom_site_fract_z
    _atom_site_occupancy
    Cu1      Cu       0.74952    0.20351    0.48286    1.000
    Cu2      Cu       0.73861    0.04560    0.49862    1.000
    O1       O        0.89528    0.15372    0.61220    1.000
    O2       O        0.85003    0.09002    0.62842    1.000
    O3       O        0.62165    0.16008    0.36071    1.000
    O4       O        0.61223    0.09511    0.34025    1.000
    O5       O        0.62390    0.20612    0.64442    1.000
    O6       O        0.58957    0.24832    0.82735    1.000
    O7       O        0.87540    0.24614    0.61814    1.000
    O8       O        0.86021    0.28750    0.81239    1.000
    O9       O        0.90653    0.04066    0.38404    1.000
    O10      O        0.08904    0.99978    0.34408    1.000
    O11      O        0.57037    0.04196    0.61398    1.000
    O12      O        0.37925    0.99976    0.62780    1.000
    C1       C        0.81870    0.12330    0.56350    1.000
    C2       C        0.66990    0.12599    0.40720    1.000
    C3       C        0.81220    0.25866    0.72180    1.000
    C4       C        0.66200    0.23634    0.73470    1.000
    C5       C        0.00060    0.01127    0.42130    1.000
    C6       C        0.48510    0.01209    0.56990    1.000
    Cu3      Cu       0.25048    0.70351    0.01714    1.000
    Cu4      Cu       0.26139    0.54560    0.00138    1.000
    O13      O        0.10472    0.65372    0.88780    1.000
    O14      O        0.14997    0.59002    0.87158    1.000
    O15      O        0.37835    0.66008    0.13929    1.000
    O16      O        0.38777    0.59511    0.15975    1.000
    O17      O        0.37610    0.70612    0.85558    1.000
    O18      O        0.41043    0.74832    0.67265    1.000
    O19      O        0.12460    0.74614    0.88186    1.000
    O20      O        0.13979    0.78750    0.68761    1.000
    O21      O        0.09347    0.54066    0.11596    1.000
    O22      O        0.91096    0.49978    0.15592    1.000
    O23      O        0.42963    0.54196    0.88602    1.000
    O24      O        0.62075    0.49976    0.87220    1.000
    C7       C        0.18130    0.62330    0.93650    1.000
    C8       C        0.33010    0.62599    0.09280    1.000
    C9       C        0.18780    0.75866    0.77820    1.000
    C10      C        0.33800    0.73634    0.76530    1.000
    C11      C        0.99940    0.51127    0.07870    1.000
    C12      C        0.51490    0.51209    0.93010    1.000
    Cu5      Cu       0.25048    0.79649    0.51714    1.000
    Cu6      Cu       0.26139    0.95440    0.50138    1.000
    O25      O        0.10472    0.84628    0.38780    1.000
    O26      O        0.14997    0.90998    0.37158    1.000
    O27      O        0.37835    0.83992    0.63929    1.000
    O28      O        0.38777    0.90489    0.65975    1.000
    O29      O        0.37610    0.79388    0.35558    1.000
    O30      O        0.41043    0.75168    0.17265    1.000
    O31      O        0.12460    0.75386    0.38186    1.000
    O32      O        0.13979    0.71250    0.18761    1.000
    O33      O        0.09347    0.95934    0.61596    1.000
    O34      O        0.91096    0.00022    0.65592    1.000
    O35      O        0.42963    0.95804    0.38602    1.000
    O36      O        0.62075    0.00024    0.37220    1.000
    C13      C        0.18130    0.87670    0.43650    1.000
    C14      C        0.33010    0.87401    0.59280    1.000
    C15      C        0.18780    0.74134    0.27820    1.000
    C16      C        0.33800    0.76366    0.26530    1.000
    C17      C        0.99940    0.98873    0.57870    1.000
    C18      C        0.51490    0.98791    0.43010    1.000
    Cu7      Cu       0.74952    0.29649    0.98286    1.000
    Cu8      Cu       0.73861    0.45440    0.99862    1.000
    O37      O        0.89528    0.34628    0.11220    1.000
    O38      O        0.85003    0.40998    0.12842    1.000
    O39      O        0.62165    0.33992    0.86071    1.000
    O40      O        0.61223    0.40489    0.84025    1.000
    O41      O        0.62390    0.29388    0.14442    1.000
    O42      O        0.58957    0.25168    0.32735    1.000
    O43      O        0.87540    0.25386    0.11814    1.000
    O44      O        0.86021    0.21250    0.31239    1.000
    O45      O        0.90653    0.45934    0.88404    1.000
    O46      O        0.08904    0.50022    0.84408    1.000
    O47      O        0.57037    0.45804    0.11398    1.000
    O48      O        0.37925    0.50024    0.12780    1.000
    C19      C        0.81870    0.37670    0.06350    1.000
    C20      C        0.66990    0.37401    0.90720    1.000
    C21      C        0.81220    0.24134    0.22180    1.000
    C22      C        0.66200    0.26366    0.23470    1.000
    C23      C        0.00060    0.48873    0.92130    1.000
    C24      C        0.48510    0.48791    0.06990    1.000
