# CIF file generated by openbabel 3.1.0, see https://openbabel.org
data_I
_chemical_name_common 'image0'
_cell_length_a 12.639
_cell_length_b 13.9706
_cell_length_c 16.285
_cell_angle_alpha 68.414
_cell_angle_beta 83.532
_cell_angle_gamma 73.825
_space_group_name_H-M_alt 'P 1'
_space_group_name_Hall 'P 1'
loop_
    _symmetry_equiv_pos_as_xyz
    x,y,z
loop_
    _atom_site_label
    _atom_site_type_symbol
    _atom_site_fract_x
    _atom_site_fract_y
    _atom_site_fract_z
    _atom_site_occupancy
    Zn1      Zn       0.68077    0.54891    0.84100    1.000
    Zn2      Zn       0.63786    0.74166    0.92062    1.000
    S1       S        0.26386    0.38358    0.87002    1.000
    S2       S        0.06071    0.86041    0.93991    1.000
    S3       S        0.51554    0.82020    0.39793    1.000
    O1       O        0.82889    0.52810    0.87826    1.000
    O2       O        0.79433    0.68120    0.90207    1.000
    O3       O        0.19970    0.31330    0.86850    1.000
    O4       O        0.32000    0.42800    0.78764    1.000
    O5       O        0.34227    0.33447    0.94334    1.000
    O6       O        0.99740    0.81760    0.01890    1.000
    O7       O        0.12630    0.92540    0.95030    1.000
    O8       O        0.99510    0.91020    0.86060    1.000
    O9       O        0.53876    0.57157    0.90442    1.000
    O10      O        0.48959    0.72000    0.93747    1.000
    O11      O        0.64750    0.65965    0.72661    1.000
    O12      O        0.61170    0.79014    0.78203    1.000
    O13      O        0.55240    0.70540    0.43840    1.000
    O14      O        0.58430    0.86630    0.32510    1.000
    O15      O        0.39880    0.85790    0.37570    1.000
    N1       N        0.68270    0.40670    0.83693    1.000
    N2       N        0.63940    0.88960    0.90960    1.000
    C1       C        0.72360    0.90430    0.94340    1.000
    H1       H        0.77510    0.84510    0.97790    1.000
    C2       C        0.85820    0.60080    0.89140    1.000
    C3       C        0.73590    0.00430    0.92840    1.000
    H2       H        0.79470    0.01190    0.95280    1.000
    C4       C        0.97910    0.59060    0.89460    1.000
    C5       C        0.12350    0.66430    0.91280    1.000
    C6       C        0.05800    0.50180    0.88500    1.000
    H3       H        0.03560    0.44830    0.87620    1.000
    C7       C        0.31770    0.56970    0.90760    1.000
    H4       H        0.37130    0.51160    0.90160    1.000
    C8       C        0.16790    0.49420    0.88870    1.000
    C9       C        0.20450    0.57530    0.90280    1.000
    C10      C        0.57620    0.83570    0.63110    1.000
    C11      C        0.01040    0.66980    0.90830    1.000
    H5       H        0.95700    0.72780    0.91480    1.000
    C12      C        0.34850    0.64940    0.92110    1.000
    C13      C        0.26910    0.73820    0.93090    1.000
    H6       H        0.29120    0.79150    0.94030    1.000
    C14      C        0.15870    0.74590    0.92660    1.000
    C15      C        0.46830    0.64660    0.92130    1.000
    C16      C        0.56640    0.97540    0.85920    1.000
    H7       H        0.50910    0.96540    0.83480    1.000
    C17      C        0.66000    0.09380    0.87660    1.000
    C18      C        0.57290    0.07780    0.84210    1.000
    H8       H        0.51980    0.13560    0.80780    1.000
    C19      C        0.66950    0.20260    0.85960    1.000
    C20      C        0.77070    0.22290    0.86410    1.000
    H9       H        0.83510    0.16830    0.87440    1.000
    C21      C        0.77360    0.32480    0.85320    1.000
    H10      H        0.84100    0.33740    0.85710    1.000
    C22      C        0.58630    0.38780    0.82990    1.000
    H11      H        0.52340    0.44420    0.81760    1.000
    C23      C        0.57660    0.28820    0.84000    1.000
    H12      H        0.50850    0.27830    0.83380    1.000
    C24      C        0.61510    0.75710    0.72010    1.000
    C25      C        0.56830    0.79980    0.56180    1.000
    H13      H        0.59030    0.72730    0.57110    1.000
    C26      C        0.52880    0.87070    0.48160    1.000
    C27      C        0.49610    0.98210    0.46510    1.000
    C28      C        0.54410    0.94170    0.61800    1.000
    H14      H        0.54860    0.96450    0.66410    1.000
    Zn3      Zn       0.31923    0.45109    0.15900    1.000
    Zn4      Zn       0.36214    0.25834    0.07938    1.000
    S4       S        0.73614    0.61642    0.12998    1.000
    S5       S        0.93929    0.13959    0.06009    1.000
    S6       S        0.48446    0.17980    0.60207    1.000
    O16      O        0.17111    0.47190    0.12174    1.000
    O17      O        0.20567    0.31880    0.09793    1.000
    O18      O        0.80030    0.68670    0.13150    1.000
    O19      O        0.68000    0.57200    0.21236    1.000
    O20      O        0.65773    0.66553    0.05666    1.000
    O21      O        0.00260    0.18240    0.98110    1.000
    O22      O        0.87370    0.07460    0.04970    1.000
    O23      O        0.00490    0.08980    0.13940    1.000
    O24      O        0.46124    0.42843    0.09558    1.000
    O25      O        0.51041    0.28000    0.06253    1.000
    O26      O        0.35250    0.34035    0.27339    1.000
    O27      O        0.38830    0.20986    0.21797    1.000
    O28      O        0.44760    0.29460    0.56160    1.000
    O29      O        0.41570    0.13370    0.67490    1.000
    O30      O        0.60120    0.14210    0.62430    1.000
    N3       N        0.31730    0.59330    0.16307    1.000
    N4       N        0.36060    0.11040    0.09040    1.000
    C29      C        0.27640    0.09570    0.05660    1.000
    H15      H        0.22490    0.15490    0.02210    1.000
    C30      C        0.14180    0.39920    0.10860    1.000
    C31      C        0.26410    0.99570    0.07160    1.000
    H16      H        0.20530    0.98810    0.04720    1.000
    C32      C        0.02090    0.40940    0.10540    1.000
    C33      C        0.87650    0.33570    0.08720    1.000
    C34      C        0.94200    0.49820    0.11500    1.000
    H17      H        0.96440    0.55170    0.12380    1.000
    C35      C        0.68230    0.43030    0.09240    1.000
    H18      H        0.62870    0.48840    0.09840    1.000
    C36      C        0.83210    0.50580    0.11130    1.000
    C37      C        0.79550    0.42470    0.09720    1.000
    C38      C        0.42380    0.16430    0.36890    1.000
    C39      C        0.98960    0.33020    0.09170    1.000
    H19      H        0.04300    0.27220    0.08520    1.000
    C40      C        0.65150    0.35060    0.07890    1.000
    C41      C        0.73090    0.26180    0.06910    1.000
    H20      H        0.70880    0.20850    0.05970    1.000
    C42      C        0.84130    0.25410    0.07340    1.000
    C43      C        0.53170    0.35340    0.07870    1.000
    C44      C        0.43360    0.02460    0.14080    1.000
    H21      H        0.49090    0.03460    0.16520    1.000
    C45      C        0.34000    0.90620    0.12340    1.000
    C46      C        0.42710    0.92220    0.15790    1.000
    H22      H        0.48020    0.86440    0.19220    1.000
    C47      C        0.33050    0.79740    0.14040    1.000
    C48      C        0.22930    0.77710    0.13590    1.000
    H23      H        0.16490    0.83170    0.12560    1.000
    C49      C        0.22640    0.67520    0.14680    1.000
    H24      H        0.15900    0.66260    0.14290    1.000
    C50      C        0.41370    0.61220    0.17010    1.000
    H25      H        0.47660    0.55580    0.18240    1.000
    C51      C        0.42340    0.71180    0.16000    1.000
    H26      H        0.49150    0.72170    0.16620    1.000
    C52      C        0.38490    0.24290    0.27990    1.000
    C53      C        0.43170    0.20020    0.43820    1.000
    H27      H        0.40970    0.27270    0.42890    1.000
    C54      C        0.47120    0.12930    0.51840    1.000
    C55      C        0.50390    0.01790    0.53490    1.000
    C56      C        0.45590    0.05830    0.38200    1.000
    H28      H        0.45140    0.03550    0.33590    1.000
