data_functionalizedCrystal
_audit_creation_method	'EQeq! by Chris Wilmer'
_symmetry_space_group_name_H-M	'P1'
_symmetry_Int_Tables_number	1
_symmetry_cell_setting	triclinic
loop_
_symmetry_equiv_pos_as_xyz
  x,y,z
_cell_length_a	31.9204
_cell_length_b	8.3759
_cell_length_c	15.7894
_cell_angle_alpha	90
_cell_angle_beta	97.062
_cell_angle_gamma	90
loop_
_atom_site_label
_atom_site_type_symbol
_atom_site_fract_x
_atom_site_fract_y
_atom_site_fract_z
_atom_site_charge
Mof_Zn	Zn	0.49334	0.75773	0.01305	1.236
Mof_Zn	Zn	0.99086	0.76038	0.5114	1.233
Mof_Zn	Zn	0.25491	0.52414	0.63152	1.24
Mof_Zn	Zn	0.25168	0.50097	0.89113	1.24
Mof_Zn	Zn	0.12716	0.7091	0.59003	1.243
Mof_Zn	Zn	0.37176	0.27946	0.93842	1.241
Mof_P 	P 	0.21759	0.8385	0.5538	0.562
Mof_P 	P 	0.05745	0.9811	0.62731	0.546
Mof_P 	P 	0.56253	0.9787	0.10912	0.578
Mof_P 	P 	0.06318	0.542	0.43905	0.594
Mof_P 	P 	0.44334	0.4476	0.0785	0.543
Mof_P 	P 	0.17671	0.4712	0.72547	0.534
Mof_P 	P 	0.28112	0.2128	0.00601	0.528
Mof_P 	P 	0.33093	0.5295	0.79394	0.536
Mof_O 	O 	0.24242	0.8457	0.4783	-0.432
Mof_O 	O 	0.151	0.3201	0.745	-0.179
Mof_O 	O 	0.02784	0.6648	0.4368	-0.468
Mof_O 	O 	0.45933	0.621	0.0789	-0.401
Mof_O 	O 	0.27014	0.3073	0.0835	-0.305
Mof_O 	O 	0.5601	0.0677	0.1961	-0.43
Mof_H 	H 	0.5669	0.0063	0.2358	0.319
Mof_O 	O 	0.24295	0.7516	0.6283	-0.431
Mof_O 	O 	0.36505	0.6533	0.7849	-0.192
Mof_O 	O 	0.20941	0.0116	0.5854	-0.444
Mof_H 	H 	0.2306	0.0662	0.5834	0.311
Mof_O 	O 	0.25735	0.2794	0.923	-0.437
Mof_O 	O 	0.41378	0.4201	0.9962	-0.462
Mof_O 	O 	0.04533	0.373	0.4272	-0.425
Mof_O 	O 	0.4819	0.3356	0.081	-0.435
Mof_O 	O 	0.20316	0.419	0.6558	-0.431
Mof_O 	O 	0.32884	0.221	0.0067	-0.433
Mof_O 	O 	0.35156	0.3736	0.829	-0.42
Mof_O 	O 	0.20403	0.5282	0.8058	-0.438
Mof_O 	O 	0.05787	0.0419	0.7201	-0.223
Mof_O 	O 	0.09411	0.5533	0.5194	-0.448
Mof_O 	O 	0.30527	0.488	0.7088	-0.431
Mof_O 	O 	0.14609	0.607	0.698	-0.412
Mof_O 	O 	0.60845	0.9276	0.104	-0.395
Mof_O 	O 	0.26845	0.038	0.0173	-0.373
Mof_O 	O 	0.53419	0.833	0.1058	-0.465
Mof_O 	O 	0.54932	0.0984	0.0395	-0.451
Mof_O 	O 	0.10011	0.9071	0.6159	-0.421
Mof_O 	O 	0.02106	0.8609	0.6112	-0.455
Mof_O 	O 	0.30212	0.5981	0.857	-0.435
Mof_O 	O 	0.17452	0.7596	0.5277	-0.423
Mof_O 	O 	0.08694	0.5767	0.3604	-0.447
Mof_H 	H 	0.0747	0.5322	0.3181	0.332
Mof_O 	O 	0.05	0.1259	0.5682	-0.425
Mof_O 	O 	0.42136	0.4243	0.1579	-0.235
Mof_Zn	Zn	0.50666	0.25773	0.48695	1.236
Mof_Zn	Zn	0.00914	0.26038	0.9886	1.231
Mof_Zn	Zn	0.74509	0.02414	0.86848	1.23
Mof_Zn	Zn	0.74832	0.00097	0.60887	1.235
Mof_Zn	Zn	0.87284	0.2091	0.90997	1.242
Mof_Zn	Zn	0.62824	0.77946	0.56158	1.24
Mof_P 	P 	0.78241	0.3385	0.9462	0.569
Mof_P 	P 	0.94255	0.4811	0.87269	0.55
Mof_P 	P 	0.43747	0.4787	0.39088	0.577
Mof_P 	P 	0.93682	0.042	0.06095	0.596
Mof_P 	P 	0.55666	0.9476	0.4215	0.544
Mof_P 	P 	0.82329	0.9712	0.77453	0.558
Mof_P 	P 	0.71888	0.7128	0.49399	0.526
Mof_P 	P 	0.66907	0.0295	0.70606	0.513
Mof_O 	O 	0.75758	0.3457	0.0217	-0.431
Mof_O 	O 	0.849	0.8201	0.755	-0.18
Mof_O 	O 	0.97216	0.1648	0.0632	-0.466
Mof_O 	O 	0.54067	0.121	0.4211	-0.402
Mof_O 	O 	0.72986	0.8073	0.4165	-0.303
Mof_O 	O 	0.4399	0.5677	0.3039	-0.431
Mof_H 	H 	0.4331	0.5063	0.2642	0.321
Mof_O 	O 	0.75705	0.2516	0.8717	-0.433
Mof_O 	O 	0.63495	0.1533	0.7151	-0.191
Mof_O 	O 	0.79059	0.5116	0.9146	-0.456
Mof_H 	H 	0.7694	0.5662	0.9166	0.313
Mof_O 	O 	0.74265	0.7794	0.577	-0.431
Mof_O 	O 	0.58622	0.9201	0.5038	-0.458
Mof_O 	O 	0.95467	0.873	0.0728	-0.426
Mof_O 	O 	0.5181	0.8356	0.419	-0.437
Mof_O 	O 	0.79684	0.919	0.8442	-0.426
Mof_O 	O 	0.67116	0.721	0.4933	-0.434
Mof_O 	O 	0.64844	0.8736	0.671	-0.409
Mof_O 	O 	0.79597	0.0282	0.6942	-0.453
Mof_O 	O 	0.94213	0.5419	0.7799	-0.226
Mof_O 	O 	0.90589	0.0533	0.9806	-0.455
Mof_O 	O 	0.69473	0.988	0.7912	-0.412
Mof_O 	O 	0.85391	0.107	0.802	-0.424
Mof_O 	O 	0.39155	0.4276	0.396	-0.397
Mof_O 	O 	0.73155	0.538	0.4827	-0.384
Mof_O 	O 	0.46581	0.333	0.3942	-0.464
Mof_O 	O 	0.45068	0.5984	0.4605	-0.452
Mof_O 	O 	0.89989	0.4071	0.8841	-0.417
Mof_O 	O 	0.97894	0.3609	0.8888	-0.455
Mof_O 	O 	0.69788	0.0981	0.643	-0.435
Mof_O 	O 	0.82548	0.2596	0.9723	-0.425
Mof_O 	O 	0.91306	0.0767	0.1396	-0.448
Mof_H 	H 	0.9253	0.0322	0.1819	0.33
Mof_O 	O 	0.95	0.6259	0.9318	-0.426
Mof_O 	O 	0.57864	0.9243	0.3421	-0.233
Mof_Zn	Zn	0.50666	0.24227	0.98695	1.235
Mof_Zn	Zn	0.00914	0.23962	0.4886	1.232
Mof_Zn	Zn	0.74509	0.47586	0.36848	1.239
Mof_Zn	Zn	0.74832	0.49903	0.10887	1.239
Mof_Zn	Zn	0.87284	0.2909	0.40997	1.242
Mof_Zn	Zn	0.62824	0.72054	0.06158	1.24
Mof_P 	P 	0.78241	0.1615	0.4462	0.561
Mof_P 	P 	0.94255	0.0189	0.37269	0.545
Mof_P 	P 	0.43747	0.0213	0.89088	0.577
Mof_P 	P 	0.93682	0.458	0.56095	0.593
Mof_P 	P 	0.55666	0.5524	0.9215	0.543
Mof_P 	P 	0.82329	0.5288	0.27453	0.534
Mof_P 	P 	0.71888	0.7872	0.99399	0.528
Mof_P 	P 	0.66907	0.4705	0.20606	0.536
Mof_O 	O 	0.75758	0.1543	0.5217	-0.432
Mof_O 	O 	0.849	0.6799	0.255	-0.179
Mof_O 	O 	0.97216	0.3352	0.5632	-0.468
Mof_O 	O 	0.54067	0.379	0.9211	-0.401
Mof_O 	O 	0.72986	0.6927	0.9165	-0.305
Mof_O 	O 	0.4399	0.9323	0.8039	-0.43
Mof_H 	H 	0.4331	0.9937	0.7642	0.319
Mof_O 	O 	0.75705	0.2484	0.3717	-0.431
Mof_O 	O 	0.63495	0.3467	0.2151	-0.192
Mof_O 	O 	0.79059	0.9884	0.4146	-0.444
Mof_H 	H 	0.7694	0.9338	0.4166	0.311
Mof_O 	O 	0.74265	0.7206	0.077	-0.437
Mof_O 	O 	0.58622	0.5799	0.0038	-0.462
Mof_O 	O 	0.95467	0.627	0.5728	-0.425
Mof_O 	O 	0.5181	0.6644	0.919	-0.435
Mof_O 	O 	0.79684	0.581	0.3442	-0.431
Mof_O 	O 	0.67116	0.779	0.9933	-0.433
Mof_O 	O 	0.64844	0.6264	0.171	-0.42
Mof_O 	O 	0.79597	0.4718	0.1942	-0.438
Mof_O 	O 	0.94213	0.9581	0.2799	-0.223
Mof_O 	O 	0.90589	0.4467	0.4806	-0.448
Mof_O 	O 	0.69473	0.512	0.2912	-0.431
Mof_O 	O 	0.85391	0.393	0.302	-0.412
Mof_O 	O 	0.39155	0.0724	0.896	-0.395
Mof_O 	O 	0.73155	0.962	0.9827	-0.373
Mof_O 	O 	0.46581	0.167	0.8942	-0.465
Mof_O 	O 	0.45068	0.9016	0.9605	-0.451
Mof_O 	O 	0.89989	0.0929	0.3841	-0.421
Mof_O 	O 	0.97894	0.1391	0.3888	-0.455
Mof_O 	O 	0.69788	0.4019	0.143	-0.435
Mof_O 	O 	0.82548	0.2404	0.4723	-0.423
Mof_O 	O 	0.91306	0.4233	0.6396	-0.447
Mof_H 	H 	0.9253	0.4678	0.6819	0.332
Mof_O 	O 	0.95	0.8741	0.4318	-0.425
Mof_O 	O 	0.57864	0.5757	0.8421	-0.235
Mof_Zn	Zn	0.49334	0.74227	0.51305	1.236
Mof_Zn	Zn	0.99086	0.73962	0.0114	1.231
Mof_Zn	Zn	0.25491	0.97586	0.13152	1.23
Mof_Zn	Zn	0.25168	0.99903	0.39113	1.235
Mof_Zn	Zn	0.12716	0.7909	0.09003	1.242
Mof_Zn	Zn	0.37176	0.22054	0.43842	1.24
Mof_P 	P 	0.21759	0.6615	0.0538	0.569
Mof_P 	P 	0.05745	0.5189	0.12731	0.55
Mof_P 	P 	0.56253	0.5213	0.60912	0.577
Mof_P 	P 	0.06318	0.958	0.93905	0.596
Mof_P 	P 	0.44334	0.0524	0.5785	0.544
Mof_P 	P 	0.17671	0.0288	0.22547	0.558
Mof_P 	P 	0.28112	0.2872	0.50601	0.526
Mof_P 	P 	0.33093	0.9705	0.29394	0.513
Mof_O 	O 	0.24242	0.6543	0.9783	-0.431
Mof_O 	O 	0.151	0.1799	0.245	-0.18
Mof_O 	O 	0.02784	0.8352	0.9368	-0.466
Mof_O 	O 	0.45933	0.879	0.5789	-0.402
Mof_O 	O 	0.27014	0.1927	0.5835	-0.303
Mof_O 	O 	0.5601	0.4323	0.6961	-0.431
Mof_H 	H 	0.5669	0.4937	0.7358	0.321
Mof_O 	O 	0.24295	0.7484	0.1283	-0.433
Mof_O 	O 	0.36505	0.8467	0.2849	-0.191
Mof_O 	O 	0.20941	0.4884	0.0854	-0.456
Mof_H 	H 	0.2306	0.4338	0.0834	0.313
Mof_O 	O 	0.25735	0.2206	0.423	-0.431
Mof_O 	O 	0.41378	0.0799	0.4962	-0.458
Mof_O 	O 	0.04533	0.127	0.9272	-0.426
Mof_O 	O 	0.4819	0.1644	0.581	-0.437
Mof_O 	O 	0.20316	0.081	0.1558	-0.426
Mof_O 	O 	0.32884	0.279	0.5067	-0.434
Mof_O 	O 	0.35156	0.1264	0.329	-0.409
Mof_O 	O 	0.20403	0.9718	0.3058	-0.453
Mof_O 	O 	0.05787	0.4581	0.2201	-0.226
Mof_O 	O 	0.09411	0.9467	0.0194	-0.455
Mof_O 	O 	0.30527	0.012	0.2088	-0.412
Mof_O 	O 	0.14609	0.893	0.198	-0.424
Mof_O 	O 	0.60845	0.5724	0.604	-0.397
Mof_O 	O 	0.26845	0.462	0.5173	-0.384
Mof_O 	O 	0.53419	0.667	0.6058	-0.464
Mof_O 	O 	0.54932	0.4016	0.5395	-0.452
Mof_O 	O 	0.10011	0.5929	0.1159	-0.417
Mof_O 	O 	0.02106	0.6391	0.1112	-0.455
Mof_O 	O 	0.30212	0.9019	0.357	-0.435
Mof_O 	O 	0.17452	0.7404	0.0277	-0.425
Mof_O 	O 	0.08694	0.9233	0.8604	-0.448
Mof_H 	H 	0.0747	0.9678	0.8181	0.33
Mof_O 	O 	0.05	0.3741	0.0682	-0.426
Mof_O 	O 	0.42136	0.0757	0.6579	-0.233
_end
