data_functionalizedCrystal
_audit_creation_method	'EQeq! by Chris Wilmer'
_symmetry_space_group_name_H-M	'P1'
_symmetry_Int_Tables_number	1
_symmetry_cell_setting	triclinic
loop_
_symmetry_equiv_pos_as_xyz
  x,y,z
_cell_length_a	7.6146
_cell_length_b	7.5144
_cell_length_c	17.75
_cell_angle_alpha	90
_cell_angle_beta	97.351
_cell_angle_gamma	90
loop_
_atom_site_label
_atom_site_type_symbol
_atom_site_fract_x
_atom_site_fract_y
_atom_site_fract_z
_atom_site_charge
Mof_Co	Co	0.37927	0.44264	0.13809	1.185
Mof_Co	Co	0.72532	0.68016	0.19338	1.189
Mof_P 	P 	0.55099	0.06759	0.18833	0.573
Mof_H 	H 	0.6628	0.1329	0.1991	-0.15
Mof_O 	O 	0.4282	0.1803	0.13365	-0.389
Mof_O 	O 	0.2088	0.6539	0.12222	-0.339
Mof_O 	O 	0.5988	0.5342	0.09315	-0.462
Mof_O 	O 	0.476	0.0449	0.26435	-0.543
Mof_O 	O 	0.7025	0.5901	0.98324	-0.316
Mof_O 	O 	0.1628	0.3566	0.20223	-0.423
Mof_O 	O 	0.5926	0.8929	0.15336	-0.399
Mof_O 	O 	0.943	0.7483	0.1411	-0.317
Mof_O 	O 	0.8993	0.4651	0.22607	-0.342
Mof_C 	C 	0.5886	0.5368	0.02128	0.259
Mof_C 	C 	0.0401	0.4711	0.19715	0.238
Mof_C 	C 	0.0667	0.6383	0.14928	0.235
Mof_Co	Co	0.62073	0.94264	0.36191	1.185
Mof_Co	Co	0.27468	0.18016	0.30662	1.189
Mof_P 	P 	0.44901	0.56759	0.31167	0.572
Mof_H 	H 	0.3372	0.6329	0.3009	-0.15
Mof_O 	O 	0.5718	0.6803	0.36635	-0.389
Mof_O 	O 	0.7912	0.1539	0.37778	-0.339
Mof_O 	O 	0.4012	0.0342	0.40685	-0.461
Mof_O 	O 	0.524	0.5449	0.23565	-0.543
Mof_O 	O 	0.2975	0.0901	0.51676	-0.316
Mof_O 	O 	0.8372	0.8566	0.29777	-0.422
Mof_O 	O 	0.4074	0.3929	0.34664	-0.399
Mof_O 	O 	0.057	0.2483	0.3589	-0.318
Mof_O 	O 	0.1007	0.9651	0.27393	-0.339
Mof_C 	C 	0.4114	0.0368	0.47872	0.259
Mof_C 	C 	0.9599	0.9711	0.30285	0.233
Mof_C 	C 	0.9333	0.1383	0.35072	0.239
Mof_Co	Co	0.62073	0.55736	0.86191	1.185
Mof_Co	Co	0.27468	0.31984	0.80662	1.189
Mof_P 	P 	0.44901	0.93241	0.81167	0.573
Mof_H 	H 	0.3372	0.8671	0.8009	-0.15
Mof_O 	O 	0.5718	0.8197	0.86635	-0.389
Mof_O 	O 	0.7912	0.3461	0.87778	-0.339
Mof_O 	O 	0.4012	0.4658	0.90685	-0.462
Mof_O 	O 	0.524	0.9551	0.73565	-0.543
Mof_O 	O 	0.2975	0.4099	0.01676	-0.316
Mof_O 	O 	0.8372	0.6434	0.79777	-0.423
Mof_O 	O 	0.4074	0.1071	0.84664	-0.399
Mof_O 	O 	0.057	0.2517	0.8589	-0.317
Mof_O 	O 	0.1007	0.5349	0.77393	-0.342
Mof_C 	C 	0.4114	0.4632	0.97872	0.259
Mof_C 	C 	0.9599	0.5289	0.80285	0.238
Mof_C 	C 	0.9333	0.3617	0.85072	0.235
Mof_Co	Co	0.37927	0.05736	0.63809	1.185
Mof_Co	Co	0.72532	0.81984	0.69338	1.189
Mof_P 	P 	0.55099	0.43241	0.68833	0.572
Mof_H 	H 	0.6628	0.3671	0.6991	-0.15
Mof_O 	O 	0.4282	0.3197	0.63365	-0.389
Mof_O 	O 	0.2088	0.8461	0.62222	-0.339
Mof_O 	O 	0.5988	0.9658	0.59315	-0.461
Mof_O 	O 	0.476	0.4551	0.76435	-0.543
Mof_O 	O 	0.7025	0.9099	0.48324	-0.316
Mof_O 	O 	0.1628	0.1434	0.70223	-0.422
Mof_O 	O 	0.5926	0.6071	0.65336	-0.399
Mof_O 	O 	0.943	0.7517	0.6411	-0.318
Mof_O 	O 	0.8993	0.0349	0.72607	-0.339
Mof_C 	C 	0.5886	0.9632	0.52128	0.259
Mof_C 	C 	0.0401	0.0289	0.69715	0.233
Mof_C 	C 	0.0667	0.8617	0.64928	0.239
_end
