data_functionalizedCrystal
_audit_creation_method	'EQeq! by Chris Wilmer'
_symmetry_space_group_name_H-M	'P1'
_symmetry_Int_Tables_number	1
_symmetry_cell_setting	triclinic
loop_
_symmetry_equiv_pos_as_xyz
  x,y,z
_cell_length_a	31.369
_cell_length_b	31.369
_cell_length_c	19.806
_cell_angle_alpha	90
_cell_angle_beta	90
_cell_angle_gamma	90
loop_
_atom_site_label
_atom_site_type_symbol
_atom_site_fract_x
_atom_site_fract_y
_atom_site_fract_z
_atom_site_charge
Mof_C 	C 	0.6856	0.215	0.5859	0.331
Mof_C 	C 	0.7211	0.2082	0.6327	-0.047
Mof_C 	C 	0.7503	0.2395	0.644	-0.051
Mof_H 	H 	0.7475	0.2662	0.6219	0.066
Mof_C 	C 	0.7856	0.2324	0.6895	0.044
Mof_C 	C 	0.7879	0.1925	0.721	-0.098
Mof_H 	H 	0.8108	0.1868	0.751	0.079
Mof_C 	C 	0.7584	0.1618	0.71	0.038
Mof_C 	C 	0.7262	0.1693	0.6655	-0.053
Mof_H 	H 	0.7064	0.1471	0.6565	0.07
Mof_C 	C 	0.8158	0.2647	0.6997	-0.004
Mof_C 	C 	0.8407	0.2945	0.7087	-0.041
Mof_C 	C 	0.8675	0.3298	0.7189	0.105
Mof_C 	C 	0.8851	0.3401	0.7803	-0.146
Mof_H 	H 	0.8788	0.3227	0.8182	0.107
Mof_C 	C 	0.9107	0.3734	0.7887	0.08
Mof_H 	H 	0.923	0.3786	0.8317	0.055
Mof_C 	C 	0.9195	0.4008	0.7356	-0.128
Mof_C 	C 	0.9488	0.4369	0.7432	0.36
Mof_C 	C 	0.8996	0.3905	0.673	0.08
Mof_H 	H 	0.9047	0.4088	0.6357	0.024
Mof_C 	C 	0.8749	0.3579	0.6634	-0.151
Mof_H 	H 	0.8622	0.3529	0.6207	0.088
Mof_C 	C 	0.7596	0.1212	0.7472	0.029
Mof_C 	C 	0.7575	0.0868	0.7714	-0.095
Mof_C 	C 	0.7536	0.0478	0.8056	0.229
Mof_C 	C 	0.7142	0.0351	0.8199	-0.262
Mof_H 	H 	0.691	0.0522	0.8052	0.13
Mof_C 	C 	0.7059	0.9988	0.8549	0.17
Mof_H 	H 	0.6774	0.9914	0.8662	0.015
Mof_C 	C 	0.7409	0.9716	0.8749	-0.175
Mof_C 	C 	0.732	0.9322	0.9161	0.367
Mof_C 	C 	0.779	0.9862	0.8614	0.192
Mof_H 	H 	0.8032	0.9698	0.8739	0.007
Mof_C 	C 	0.7851	0.0251	0.8294	-0.272
Mof_H 	H 	0.8134	0.0356	0.8245	0.136
Mof_O 	O 	0.67861	0.25333	0.5679	-0.392
Mof_O 	O 	0.66324	0.18348	0.5689	-0.396
Mof_O 	O 	0.9614	0.4532	0.6862	-0.394
Mof_O 	O 	0.9607	0.4494	0.7997	-0.369
Mof_O 	O 	0.69446	0.92397	0.9323	-0.33
Mof_O 	O 	0.7656	0.9102	0.9303	-0.341
Mof_O 	O 	0.6145	0.1121	0.51	-0.098
Mof_C 	C 	0.3144	0.785	0.5859	0.328
Mof_C 	C 	0.2789	0.7918	0.6327	-0.035
Mof_C 	C 	0.2497	0.7605	0.644	-0.06
Mof_H 	H 	0.2525	0.7338	0.6219	0.069
Mof_C 	C 	0.2144	0.7676	0.6895	0.054
Mof_C 	C 	0.2121	0.8075	0.721	-0.118
Mof_H 	H 	0.1892	0.8132	0.751	0.085
Mof_C 	C 	0.2416	0.8382	0.71	0.07
Mof_C 	C 	0.2738	0.8307	0.6655	-0.073
Mof_H 	H 	0.2936	0.8529	0.6565	0.079
Mof_C 	C 	0.1842	0.7353	0.6997	-0.009
Mof_C 	C 	0.1593	0.7055	0.7087	-0.041
Mof_C 	C 	0.1325	0.6702	0.7189	0.105
Mof_C 	C 	0.1149	0.6599	0.7803	-0.149
Mof_H 	H 	0.1212	0.6773	0.8182	0.107
Mof_C 	C 	0.0893	0.6266	0.7887	0.083
Mof_H 	H 	0.077	0.6214	0.8317	0.05
Mof_C 	C 	0.0805	0.5992	0.7356	-0.134
Mof_C 	C 	0.0512	0.5631	0.7432	0.362
Mof_C 	C 	0.1004	0.6095	0.673	0.082
Mof_H 	H 	0.0953	0.5912	0.6357	0.02
Mof_C 	C 	0.1251	0.6421	0.6634	-0.154
Mof_H 	H 	0.1378	0.6471	0.6207	0.087
Mof_C 	C 	0.2404	0.8788	0.7472	-0.02
Mof_C 	C 	0.2425	0.9132	0.7714	-0.008
Mof_C 	C 	0.2464	0.9522	0.8056	0.052
Mof_C 	C 	0.2858	0.9649	0.8199	-0.05
Mof_H 	H 	0.309	0.9478	0.8052	0.066
Mof_C 	C 	0.2941	0.0012	0.8549	-0.017
Mof_H 	H 	0.3226	0.0086	0.8662	0.067
Mof_C 	C 	0.2591	0.0284	0.8749	-0.048
Mof_C 	C 	0.268	0.0678	0.9161	0.321
Mof_C 	C 	0.221	0.0138	0.8614	-0.008
Mof_H 	H 	0.1968	0.0302	0.8739	0.061
Mof_C 	C 	0.2149	0.9749	0.8294	-0.056
Mof_H 	H 	0.1866	0.9644	0.8245	0.071
Mof_O 	O 	0.32139	0.74667	0.5679	-0.391
Mof_O 	O 	0.33676	0.81652	0.5689	-0.394
Mof_O 	O 	0.0386	0.5468	0.6862	-0.407
Mof_O 	O 	0.0393	0.5506	0.7997	-0.382
Mof_O 	O 	0.30554	0.07603	0.9323	-0.32
Mof_O 	O 	0.2344	0.0898	0.9303	-0.335
Mof_O 	O 	0.3855	0.8879	0.51	-0.095
Mof_C 	C 	0.285	0.1856	0.0859	0.335
Mof_C 	C 	0.2918	0.2211	0.1327	-0.07
Mof_C 	C 	0.2605	0.2503	0.144	-0.046
Mof_H 	H 	0.2338	0.2475	0.1219	0.046
Mof_C 	C 	0.2676	0.2856	0.1895	0.029
Mof_C 	C 	0.3075	0.2879	0.221	-0.098
Mof_H 	H 	0.3132	0.3108	0.251	0.067
Mof_C 	C 	0.3382	0.2584	0.21	0.03
Mof_C 	C 	0.3307	0.2262	0.1655	-0.05
Mof_H 	H 	0.3529	0.2064	0.1565	0.055
Mof_C 	C 	0.2353	0.3158	0.1997	-0.01
Mof_C 	C 	0.2055	0.3407	0.2087	-0.059
Mof_C 	C 	0.1702	0.3675	0.2189	0.112
Mof_C 	C 	0.1599	0.3851	0.2803	-0.171
Mof_H 	H 	0.1773	0.3788	0.3182	0.108
Mof_C 	C 	0.1266	0.4107	0.2887	0.099
Mof_H 	H 	0.1214	0.423	0.3317	0.023
Mof_C 	C 	0.0992	0.4195	0.2356	-0.159
Mof_C 	C 	0.0631	0.4488	0.2432	0.371
Mof_C 	C 	0.1095	0.3996	0.173	0.093
Mof_H 	H 	0.0912	0.4047	0.1357	-0.005
Mof_C 	C 	0.1421	0.3749	0.1634	-0.174
Mof_H 	H 	0.1471	0.3622	0.1207	0.068
Mof_C 	C 	0.3788	0.2596	0.2472	0.001
Mof_C 	C 	0.4132	0.2575	0.2714	-0.078
Mof_C 	C 	0.4522	0.2536	0.3056	0.149
Mof_C 	C 	0.4649	0.2142	0.3199	-0.183
Mof_H 	H 	0.4478	0.191	0.3052	0.097
Mof_C 	C 	0.5012	0.2059	0.3549	0.085
Mof_H 	H 	0.5086	0.1774	0.3662	0.021
Mof_C 	C 	0.5284	0.2409	0.3749	-0.146
Mof_C 	C 	0.5678	0.232	0.4161	0.355
Mof_C 	C 	0.5138	0.279	0.3614	0.103
Mof_H 	H 	0.5302	0.3032	0.3739	0.007
Mof_C 	C 	0.4749	0.2851	0.3294	-0.194
Mof_H 	H 	0.4644	0.3134	0.3245	0.091
Mof_O 	O 	0.24667	0.17861	0.0679	-0.43
Mof_O 	O 	0.31652	0.16324	0.0689	-0.441
Mof_O 	O 	0.0468	0.4614	0.1862	-0.426
Mof_O 	O 	0.0506	0.4607	0.2997	-0.402
Mof_O 	O 	0.57603	0.19446	0.4323	-0.398
Mof_O 	O 	0.5898	0.2656	0.4303	-0.404
Mof_O 	O 	0.3879	0.1145	0.01	0.667
Mof_C 	C 	0.715	0.8144	0.0859	0.334
Mof_C 	C 	0.7082	0.7789	0.1327	-0.068
Mof_C 	C 	0.7395	0.7497	0.144	-0.047
Mof_H 	H 	0.7662	0.7525	0.1219	0.047
Mof_C 	C 	0.7324	0.7144	0.1895	0.03
Mof_C 	C 	0.6925	0.7121	0.221	-0.099
Mof_H 	H 	0.6868	0.6892	0.251	0.067
Mof_C 	C 	0.6618	0.7416	0.21	0.031
Mof_C 	C 	0.6693	0.7738	0.1655	-0.051
Mof_H 	H 	0.6471	0.7936	0.1565	0.055
Mof_C 	C 	0.7647	0.6842	0.1997	-0.011
Mof_C 	C 	0.7945	0.6593	0.2087	-0.057
Mof_C 	C 	0.8298	0.6325	0.2189	0.11
Mof_C 	C 	0.8401	0.6149	0.2803	-0.167
Mof_H 	H 	0.8227	0.6212	0.3182	0.107
Mof_C 	C 	0.8734	0.5893	0.2887	0.096
Mof_H 	H 	0.8786	0.577	0.3317	0.026
Mof_C 	C 	0.9008	0.5805	0.2356	-0.153
Mof_C 	C 	0.9369	0.5512	0.2432	0.37
Mof_C 	C 	0.8905	0.6004	0.173	0.09
Mof_H 	H 	0.9088	0.5953	0.1357	0
Mof_C 	C 	0.8579	0.6251	0.1634	-0.169
Mof_H 	H 	0.8529	0.6378	0.1207	0.069
Mof_C 	C 	0.6212	0.7404	0.2472	0
Mof_C 	C 	0.5868	0.7425	0.2714	-0.078
Mof_C 	C 	0.5478	0.7464	0.3056	0.149
Mof_C 	C 	0.5351	0.7858	0.3199	-0.182
Mof_H 	H 	0.5522	0.809	0.3052	0.096
Mof_C 	C 	0.4988	0.7941	0.3549	0.085
Mof_H 	H 	0.4914	0.8226	0.3662	0.021
Mof_C 	C 	0.4716	0.7591	0.3749	-0.146
Mof_C 	C 	0.4322	0.768	0.4161	0.354
Mof_C 	C 	0.4862	0.721	0.3614	0.103
Mof_H 	H 	0.4698	0.6968	0.3739	0.007
Mof_C 	C 	0.5251	0.7149	0.3294	-0.193
Mof_H 	H 	0.5356	0.6866	0.3245	0.091
Mof_O 	O 	0.75333	0.82139	0.0679	-0.428
Mof_O 	O 	0.68348	0.83676	0.0689	-0.441
Mof_O 	O 	0.9532	0.5386	0.1862	-0.414
Mof_O 	O 	0.9494	0.5393	0.2997	-0.39
Mof_O 	O 	0.42397	0.80554	0.4323	-0.398
Mof_O 	O 	0.4102	0.7344	0.4303	-0.404
Mof_O 	O 	0.6121	0.8855	0.01	0.669
Mof_C 	C 	0.3144	0.785	0.4141	0.329
Mof_C 	C 	0.2789	0.7918	0.3673	-0.039
Mof_C 	C 	0.2497	0.7605	0.356	-0.055
Mof_H 	H 	0.2525	0.7338	0.3781	0.067
Mof_C 	C 	0.2144	0.7676	0.3105	0.047
Mof_C 	C 	0.2121	0.8075	0.279	-0.11
Mof_H 	H 	0.1892	0.8132	0.249	0.072
Mof_C 	C 	0.2416	0.8382	0.29	0.057
Mof_C 	C 	0.2738	0.8307	0.3345	-0.066
Mof_H 	H 	0.2936	0.8529	0.3435	0.076
Mof_C 	C 	0.1842	0.7353	0.3003	-0.002
Mof_C 	C 	0.1593	0.7055	0.2913	-0.051
Mof_C 	C 	0.1325	0.6702	0.2811	0.126
Mof_C 	C 	0.1149	0.6599	0.2197	-0.186
Mof_H 	H 	0.1212	0.6773	0.1818	0.11
Mof_C 	C 	0.0893	0.6266	0.2113	0.111
Mof_H 	H 	0.077	0.6214	0.1683	-0.002
Mof_C 	C 	0.0805	0.5992	0.2644	-0.167
Mof_C 	C 	0.0512	0.5631	0.2568	0.375
Mof_C 	C 	0.1004	0.6095	0.327	0.105
Mof_H 	H 	0.0953	0.5912	0.3643	0.012
Mof_C 	C 	0.1251	0.6421	0.3366	-0.178
Mof_H 	H 	0.1378	0.6471	0.3793	0.095
Mof_C 	C 	0.2404	0.8788	0.2528	-0.021
Mof_C 	C 	0.2425	0.9132	0.2286	-0.038
Mof_C 	C 	0.2464	0.9522	0.1944	0.073
Mof_C 	C 	0.2858	0.9649	0.1801	-0.096
Mof_H 	H 	0.309	0.9478	0.1948	0.07
Mof_C 	C 	0.2941	0.0012	0.1451	0.002
Mof_H 	H 	0.3226	0.0086	0.1338	0.03
Mof_C 	C 	0.2591	0.0284	0.1251	-0.108
Mof_C 	C 	0.268	0.0678	0.0839	0.333
Mof_C 	C 	0.221	0.0138	0.1386	0.015
Mof_H 	H 	0.1968	0.0302	0.1261	0.017
Mof_C 	C 	0.2149	0.9749	0.1706	-0.105
Mof_H 	H 	0.1866	0.9644	0.1755	0.059
Mof_O 	O 	0.32139	0.74667	0.4321	-0.393
Mof_O 	O 	0.33676	0.81652	0.4311	-0.395
Mof_O 	O 	0.0386	0.5468	0.3138	-0.411
Mof_O 	O 	0.0393	0.5506	0.2003	-0.419
Mof_O 	O 	0.30554	0.07603	0.0677	-0.436
Mof_O 	O 	0.2344	0.0898	0.0697	-0.433
Mof_O 	O 	0.3855	0.8879	0.49	-0.095
Mof_C 	C 	0.6856	0.215	0.4141	0.334
Mof_C 	C 	0.7211	0.2082	0.3673	-0.05
Mof_C 	C 	0.7503	0.2395	0.356	-0.045
Mof_H 	H 	0.7475	0.2662	0.3781	0.065
Mof_C 	C 	0.7856	0.2324	0.3105	0.037
Mof_C 	C 	0.7879	0.1925	0.279	-0.09
Mof_H 	H 	0.8108	0.1868	0.249	0.066
Mof_C 	C 	0.7584	0.1618	0.29	0.026
Mof_C 	C 	0.7262	0.1693	0.3345	-0.046
Mof_H 	H 	0.7064	0.1471	0.3435	0.067
Mof_C 	C 	0.8158	0.2647	0.3003	0.003
Mof_C 	C 	0.8407	0.2945	0.2913	-0.051
Mof_C 	C 	0.8675	0.3298	0.2811	0.126
Mof_C 	C 	0.8851	0.3401	0.2197	-0.183
Mof_H 	H 	0.8788	0.3227	0.1818	0.109
Mof_C 	C 	0.9107	0.3734	0.2113	0.109
Mof_H 	H 	0.923	0.3786	0.1683	0.003
Mof_C 	C 	0.9195	0.4008	0.2644	-0.161
Mof_C 	C 	0.9488	0.4369	0.2568	0.373
Mof_C 	C 	0.8996	0.3905	0.327	0.103
Mof_H 	H 	0.9047	0.4088	0.3643	0.016
Mof_C 	C 	0.8749	0.3579	0.3366	-0.174
Mof_H 	H 	0.8622	0.3529	0.3793	0.096
Mof_C 	C 	0.7596	0.1212	0.2528	0.029
Mof_C 	C 	0.7575	0.0868	0.2286	-0.125
Mof_C 	C 	0.7536	0.0478	0.1944	0.25
Mof_C 	C 	0.7142	0.0351	0.1801	-0.308
Mof_H 	H 	0.691	0.0522	0.1948	0.133
Mof_C 	C 	0.7059	0.9988	0.1451	0.189
Mof_H 	H 	0.6774	0.9914	0.1338	-0.022
Mof_C 	C 	0.7409	0.9716	0.1251	-0.235
Mof_C 	C 	0.732	0.9322	0.0839	0.38
Mof_C 	C 	0.779	0.9862	0.1386	0.215
Mof_H 	H 	0.8032	0.9698	0.1261	-0.038
Mof_C 	C 	0.7851	0.0251	0.1706	-0.322
Mof_H 	H 	0.8134	0.0356	0.1755	0.123
Mof_O 	O 	0.67861	0.25333	0.4321	-0.394
Mof_O 	O 	0.66324	0.18348	0.4311	-0.397
Mof_O 	O 	0.9614	0.4532	0.3138	-0.398
Mof_O 	O 	0.9607	0.4494	0.2003	-0.406
Mof_O 	O 	0.69446	0.92397	0.0677	-0.446
Mof_O 	O 	0.7656	0.9102	0.0697	-0.439
Mof_O 	O 	0.6145	0.1121	0.49	-0.098
Mof_C 	C 	0.715	0.8144	0.9141	0.315
Mof_C 	C 	0.7082	0.7789	0.8673	-0.009
Mof_C 	C 	0.7395	0.7497	0.856	-0.063
Mof_H 	H 	0.7662	0.7525	0.8781	0.09
Mof_C 	C 	0.7324	0.7144	0.8105	0.064
Mof_C 	C 	0.6925	0.7121	0.779	-0.111
Mof_H 	H 	0.6868	0.6892	0.749	0.083
Mof_C 	C 	0.6618	0.7416	0.79	0.067
Mof_C 	C 	0.6693	0.7738	0.8345	-0.072
Mof_H 	H 	0.6471	0.7936	0.8435	0.092
Mof_C 	C 	0.7647	0.6842	0.8003	0.003
Mof_C 	C 	0.7945	0.6593	0.7913	-0.033
Mof_C 	C 	0.8298	0.6325	0.7811	0.118
Mof_C 	C 	0.8401	0.6149	0.7197	-0.16
Mof_H 	H 	0.8227	0.6212	0.6818	0.107
Mof_C 	C 	0.8734	0.5893	0.7113	0.092
Mof_H 	H 	0.8786	0.577	0.6683	0.029
Mof_C 	C 	0.9008	0.5805	0.7644	-0.135
Mof_C 	C 	0.9369	0.5512	0.7568	0.363
Mof_C 	C 	0.8905	0.6004	0.827	0.092
Mof_H 	H 	0.9088	0.5953	0.8643	0.041
Mof_C 	C 	0.8579	0.6251	0.8366	-0.154
Mof_H 	H 	0.8529	0.6378	0.8793	0.115
Mof_C 	C 	0.6212	0.7404	0.7528	0.007
Mof_C 	C 	0.5868	0.7425	0.7286	-0.056
Mof_C 	C 	0.5478	0.7464	0.6944	0.156
Mof_C 	C 	0.5351	0.7858	0.6801	-0.178
Mof_H 	H 	0.5522	0.809	0.6948	0.104
Mof_C 	C 	0.4988	0.7941	0.6451	0.09
Mof_H 	H 	0.4914	0.8226	0.6338	0.023
Mof_C 	C 	0.4716	0.7591	0.6251	-0.143
Mof_C 	C 	0.4322	0.768	0.5839	0.355
Mof_C 	C 	0.4862	0.721	0.6386	0.108
Mof_H 	H 	0.4698	0.6968	0.6261	0.013
Mof_C 	C 	0.5251	0.7149	0.6706	-0.188
Mof_H 	H 	0.5356	0.6866	0.6755	0.103
Mof_O 	O 	0.75333	0.82139	0.9321	-0.325
Mof_O 	O 	0.68348	0.83676	0.9311	-0.319
Mof_O 	O 	0.9532	0.5386	0.8138	-0.379
Mof_O 	O 	0.9494	0.5393	0.7003	-0.386
Mof_O 	O 	0.42397	0.80554	0.5677	-0.397
Mof_O 	O 	0.4102	0.7344	0.5697	-0.401
Mof_O 	O 	0.6121	0.8855	0.99	-0.851
Mof_C 	C 	0.285	0.1856	0.9141	0.316
Mof_C 	C 	0.2918	0.2211	0.8673	-0.011
Mof_C 	C 	0.2605	0.2503	0.856	-0.062
Mof_H 	H 	0.2338	0.2475	0.8781	0.088
Mof_C 	C 	0.2676	0.2856	0.8105	0.063
Mof_C 	C 	0.3075	0.2879	0.779	-0.11
Mof_H 	H 	0.3132	0.3108	0.749	0.083
Mof_C 	C 	0.3382	0.2584	0.79	0.066
Mof_C 	C 	0.3307	0.2262	0.8345	-0.071
Mof_H 	H 	0.3529	0.2064	0.8435	0.092
Mof_C 	C 	0.2353	0.3158	0.8003	0.004
Mof_C 	C 	0.2055	0.3407	0.7913	-0.034
Mof_C 	C 	0.1702	0.3675	0.7811	0.12
Mof_C 	C 	0.1599	0.3851	0.7197	-0.164
Mof_H 	H 	0.1773	0.3788	0.6818	0.108
Mof_C 	C 	0.1266	0.4107	0.7113	0.095
Mof_H 	H 	0.1214	0.423	0.6683	0.026
Mof_C 	C 	0.0992	0.4195	0.7644	-0.142
Mof_C 	C 	0.0631	0.4488	0.7568	0.365
Mof_C 	C 	0.1095	0.3996	0.827	0.095
Mof_H 	H 	0.0912	0.4047	0.8643	0.036
Mof_C 	C 	0.1421	0.3749	0.8366	-0.159
Mof_H 	H 	0.1471	0.3622	0.8793	0.114
Mof_C 	C 	0.3788	0.2596	0.7528	0.007
Mof_C 	C 	0.4132	0.2575	0.7286	-0.056
Mof_C 	C 	0.4522	0.2536	0.6944	0.157
Mof_C 	C 	0.4649	0.2142	0.6801	-0.179
Mof_H 	H 	0.4478	0.191	0.6948	0.104
Mof_C 	C 	0.5012	0.2059	0.6451	0.091
Mof_H 	H 	0.5086	0.1774	0.6338	0.022
Mof_C 	C 	0.5284	0.2409	0.6251	-0.143
Mof_C 	C 	0.5678	0.232	0.5839	0.356
Mof_C 	C 	0.5138	0.279	0.6386	0.109
Mof_H 	H 	0.5302	0.3032	0.6261	0.013
Mof_C 	C 	0.4749	0.2851	0.6706	-0.189
Mof_H 	H 	0.4644	0.3134	0.6755	0.104
Mof_O 	O 	0.24667	0.17861	0.9321	-0.327
Mof_O 	O 	0.31652	0.16324	0.9311	-0.319
Mof_O 	O 	0.0468	0.4614	0.8138	-0.391
Mof_O 	O 	0.0506	0.4607	0.7003	-0.398
Mof_O 	O 	0.57603	0.19446	0.5677	-0.398
Mof_O 	O 	0.5898	0.2656	0.5697	-0.401
Mof_O 	O 	0.3879	0.1145	0.99	-0.853
Mof_Cu	Cu	0.61944	0.18258	0.5	0.928
Mof_Cu	Cu	0.63452	0.26616	0.5	0.9
Mof_Cu	Cu	0.38056	0.81742	0.5	0.928
Mof_Cu	Cu	0.36548	0.73384	0.5	0.9
Mof_Cu	Cu	0.31742	0.11944	-0	0.864
Mof_Cu	Cu	0.23384	0.13452	-0	0.836
Mof_Cu	Cu	0.68258	0.88056	-0	0.864
Mof_Cu	Cu	0.76616	0.86548	-0	0.838
Mof_Cu	Cu	6.79773e-33	0.5	0.68294	0.896
Mof_Cu	Cu	5.61406e-33	0.5	0.18294	0.888
Mof_Cu	Cu	1.11126e-32	0.5	0.31706	0.897
Mof_Cu	Cu	-3.24674e-33	0.5	0.81706	0.906
Mof_C 	C 	0.1856	0.715	0.0859	0.335
Mof_C 	C 	0.2211	0.7082	0.1327	-0.069
Mof_C 	C 	0.2503	0.7395	0.144	-0.047
Mof_H 	H 	0.2475	0.7662	0.1219	0.047
Mof_C 	C 	0.2856	0.7324	0.1895	0.03
Mof_C 	C 	0.2879	0.6925	0.221	-0.099
Mof_H 	H 	0.3108	0.6868	0.251	0.067
Mof_C 	C 	0.2584	0.6618	0.21	0.031
Mof_C 	C 	0.2262	0.6693	0.1655	-0.051
Mof_H 	H 	0.2064	0.6471	0.1565	0.055
Mof_C 	C 	0.3158	0.7647	0.1997	-0.01
Mof_C 	C 	0.3407	0.7945	0.2087	-0.057
Mof_C 	C 	0.3675	0.8298	0.2189	0.11
Mof_C 	C 	0.3851	0.8401	0.2803	-0.168
Mof_H 	H 	0.3788	0.8227	0.3182	0.107
Mof_C 	C 	0.4107	0.8734	0.2887	0.096
Mof_H 	H 	0.423	0.8786	0.3317	0.026
Mof_C 	C 	0.4195	0.9008	0.2356	-0.153
Mof_C 	C 	0.4488	0.9369	0.2432	0.37
Mof_C 	C 	0.3996	0.8905	0.173	0.09
Mof_H 	H 	0.4047	0.9088	0.1357	0
Mof_C 	C 	0.3749	0.8579	0.1634	-0.169
Mof_H 	H 	0.3622	0.8529	0.1207	0.069
Mof_C 	C 	0.2596	0.6212	0.2472	0.001
Mof_C 	C 	0.2575	0.5868	0.2714	-0.078
Mof_C 	C 	0.2536	0.5478	0.3056	0.149
Mof_C 	C 	0.2142	0.5351	0.3199	-0.183
Mof_H 	H 	0.191	0.5522	0.3052	0.097
Mof_C 	C 	0.2059	0.4988	0.3549	0.085
Mof_H 	H 	0.1774	0.4914	0.3662	0.021
Mof_C 	C 	0.2409	0.4716	0.3749	-0.146
Mof_C 	C 	0.232	0.4322	0.4161	0.355
Mof_C 	C 	0.279	0.4862	0.3614	0.103
Mof_H 	H 	0.3032	0.4698	0.3739	0.007
Mof_C 	C 	0.2851	0.5251	0.3294	-0.194
Mof_H 	H 	0.3134	0.5356	0.3245	0.091
Mof_O 	O 	0.17861	0.75333	0.0679	-0.429
Mof_O 	O 	0.16324	0.68348	0.0689	-0.441
Mof_O 	O 	0.4614	0.9532	0.1862	-0.414
Mof_O 	O 	0.4607	0.9494	0.2997	-0.39
Mof_O 	O 	0.19446	0.42397	0.4323	-0.398
Mof_O 	O 	0.2656	0.4102	0.4303	-0.404
Mof_O 	O 	0.1145	0.6121	0.01	0.667
Mof_C 	C 	0.8144	0.285	0.0859	0.334
Mof_C 	C 	0.7789	0.2918	0.1327	-0.069
Mof_C 	C 	0.7497	0.2605	0.144	-0.047
Mof_H 	H 	0.7525	0.2338	0.1219	0.046
Mof_C 	C 	0.7144	0.2676	0.1895	0.029
Mof_C 	C 	0.7121	0.3075	0.221	-0.099
Mof_H 	H 	0.6892	0.3132	0.251	0.067
Mof_C 	C 	0.7416	0.3382	0.21	0.031
Mof_C 	C 	0.7738	0.3307	0.1655	-0.05
Mof_H 	H 	0.7936	0.3529	0.1565	0.055
Mof_C 	C 	0.6842	0.2353	0.1997	-0.01
Mof_C 	C 	0.6593	0.2055	0.2087	-0.059
Mof_C 	C 	0.6325	0.1702	0.2189	0.112
Mof_C 	C 	0.6149	0.1599	0.2803	-0.171
Mof_H 	H 	0.6212	0.1773	0.3182	0.108
Mof_C 	C 	0.5893	0.1266	0.2887	0.099
Mof_H 	H 	0.577	0.1214	0.3317	0.024
Mof_C 	C 	0.5805	0.0992	0.2356	-0.159
Mof_C 	C 	0.5512	0.0631	0.2432	0.371
Mof_C 	C 	0.6004	0.1095	0.173	0.093
Mof_H 	H 	0.5953	0.0912	0.1357	-0.005
Mof_C 	C 	0.6251	0.1421	0.1634	-0.174
Mof_H 	H 	0.6378	0.1471	0.1207	0.068
Mof_C 	C 	0.7404	0.3788	0.2472	0.001
Mof_C 	C 	0.7425	0.4132	0.2714	-0.078
Mof_C 	C 	0.7464	0.4522	0.3056	0.149
Mof_C 	C 	0.7858	0.4649	0.3199	-0.182
Mof_H 	H 	0.809	0.4478	0.3052	0.097
Mof_C 	C 	0.7941	0.5012	0.3549	0.085
Mof_H 	H 	0.8226	0.5086	0.3662	0.021
Mof_C 	C 	0.7591	0.5284	0.3749	-0.146
Mof_C 	C 	0.768	0.5678	0.4161	0.354
Mof_C 	C 	0.721	0.5138	0.3614	0.103
Mof_H 	H 	0.6968	0.5302	0.3739	0.007
Mof_C 	C 	0.7149	0.4749	0.3294	-0.193
Mof_H 	H 	0.6866	0.4644	0.3245	0.091
Mof_O 	O 	0.82139	0.24667	0.0679	-0.429
Mof_O 	O 	0.83676	0.31652	0.0689	-0.441
Mof_O 	O 	0.5386	0.0468	0.1862	-0.426
Mof_O 	O 	0.5393	0.0506	0.2997	-0.402
Mof_O 	O 	0.80554	0.57603	0.4323	-0.398
Mof_O 	O 	0.7344	0.5898	0.4303	-0.404
Mof_O 	O 	0.8855	0.3879	0.01	0.669
Mof_C 	C 	0.785	0.6856	0.5859	0.328
Mof_C 	C 	0.7918	0.7211	0.6327	-0.034
Mof_C 	C 	0.7605	0.7503	0.644	-0.061
Mof_H 	H 	0.7338	0.7475	0.6219	0.07
Mof_C 	C 	0.7676	0.7856	0.6895	0.056
Mof_C 	C 	0.8075	0.7879	0.721	-0.118
Mof_H 	H 	0.8132	0.8108	0.751	0.088
Mof_C 	C 	0.8382	0.7584	0.71	0.071
Mof_C 	C 	0.8307	0.7262	0.6655	-0.073
Mof_H 	H 	0.8529	0.7064	0.6565	0.079
Mof_C 	C 	0.7353	0.8158	0.6997	-0.008
Mof_C 	C 	0.7055	0.8407	0.7087	-0.038
Mof_C 	C 	0.6702	0.8675	0.7189	0.103
Mof_C 	C 	0.6599	0.8851	0.7803	-0.144
Mof_H 	H 	0.6773	0.8788	0.8182	0.107
Mof_C 	C 	0.6266	0.9107	0.7887	0.079
Mof_H 	H 	0.6214	0.923	0.8317	0.056
Mof_C 	C 	0.5992	0.9195	0.7356	-0.127
Mof_C 	C 	0.5631	0.9488	0.7432	0.36
Mof_C 	C 	0.6095	0.8996	0.673	0.079
Mof_H 	H 	0.5912	0.9047	0.6357	0.024
Mof_C 	C 	0.6421	0.8749	0.6634	-0.149
Mof_H 	H 	0.6471	0.8622	0.6207	0.087
Mof_C 	C 	0.8788	0.7596	0.7472	-0.019
Mof_C 	C 	0.9132	0.7575	0.7714	-0.007
Mof_C 	C 	0.9522	0.7536	0.8056	0.053
Mof_C 	C 	0.9649	0.7142	0.8199	-0.05
Mof_H 	H 	0.9478	0.691	0.8052	0.067
Mof_C 	C 	0.0012	0.7059	0.8549	-0.017
Mof_H 	H 	0.0086	0.6774	0.8662	0.067
Mof_C 	C 	0.0284	0.7409	0.8749	-0.047
Mof_C 	C 	0.0678	0.732	0.9161	0.32
Mof_C 	C 	0.0138	0.779	0.8614	-0.008
Mof_H 	H 	0.0302	0.8032	0.8739	0.064
Mof_C 	C 	0.9749	0.7851	0.8294	-0.055
Mof_H 	H 	0.9644	0.8134	0.8245	0.074
Mof_O 	O 	0.74667	0.67861	0.5679	-0.391
Mof_O 	O 	0.81652	0.66324	0.5689	-0.394
Mof_O 	O 	0.5468	0.9614	0.6862	-0.394
Mof_O 	O 	0.5506	0.9607	0.7997	-0.369
Mof_O 	O 	0.07603	0.69446	0.9323	-0.32
Mof_O 	O 	0.0898	0.7656	0.9303	-0.333
Mof_O 	O 	0.8879	0.6145	0.51	-0.095
Mof_C 	C 	0.215	0.3144	0.5859	0.332
Mof_C 	C 	0.2082	0.2789	0.6327	-0.046
Mof_C 	C 	0.2395	0.2497	0.644	-0.051
Mof_H 	H 	0.2662	0.2525	0.6219	0.066
Mof_C 	C 	0.2324	0.2144	0.6895	0.043
Mof_C 	C 	0.1925	0.2121	0.721	-0.098
Mof_H 	H 	0.1868	0.1892	0.751	0.076
Mof_C 	C 	0.1618	0.2416	0.71	0.037
Mof_C 	C 	0.1693	0.2738	0.6655	-0.053
Mof_H 	H 	0.1471	0.2936	0.6565	0.07
Mof_C 	C 	0.2647	0.1842	0.6997	-0.004
Mof_C 	C 	0.2945	0.1593	0.7087	-0.044
Mof_C 	C 	0.3298	0.1325	0.7189	0.107
Mof_C 	C 	0.3401	0.1149	0.7803	-0.151
Mof_H 	H 	0.3227	0.1212	0.8182	0.108
Mof_C 	C 	0.3734	0.0893	0.7887	0.084
Mof_H 	H 	0.3786	0.077	0.8317	0.05
Mof_C 	C 	0.4008	0.0805	0.7356	-0.135
Mof_C 	C 	0.4369	0.0512	0.7432	0.362
Mof_C 	C 	0.3905	0.1004	0.673	0.083
Mof_H 	H 	0.4088	0.0953	0.6357	0.02
Mof_C 	C 	0.3579	0.1251	0.6634	-0.156
Mof_H 	H 	0.3529	0.1378	0.6207	0.087
Mof_C 	C 	0.1212	0.2404	0.7472	0.028
Mof_C 	C 	0.0868	0.2425	0.7714	-0.097
Mof_C 	C 	0.0478	0.2464	0.8056	0.229
Mof_C 	C 	0.0351	0.2858	0.8199	-0.262
Mof_H 	H 	0.0522	0.309	0.8052	0.13
Mof_C 	C 	0.9988	0.2941	0.8549	0.17
Mof_H 	H 	0.9914	0.3226	0.8662	0.015
Mof_C 	C 	0.9716	0.2591	0.8749	-0.176
Mof_C 	C 	0.9322	0.268	0.9161	0.368
Mof_C 	C 	0.9862	0.221	0.8614	0.192
Mof_H 	H 	0.9698	0.1968	0.8739	0.005
Mof_C 	C 	0.0251	0.2149	0.8294	-0.273
Mof_H 	H 	0.0356	0.1866	0.8245	0.133
Mof_O 	O 	0.25333	0.32139	0.5679	-0.392
Mof_O 	O 	0.18348	0.33676	0.5689	-0.396
Mof_O 	O 	0.4532	0.0386	0.6862	-0.407
Mof_O 	O 	0.4494	0.0393	0.7997	-0.382
Mof_O 	O 	0.92397	0.30554	0.9323	-0.33
Mof_O 	O 	0.9102	0.2344	0.9303	-0.342
Mof_O 	O 	0.1121	0.3855	0.51	-0.098
Mof_C 	C 	0.8144	0.285	0.9141	0.316
Mof_C 	C 	0.7789	0.2918	0.8673	-0.01
Mof_C 	C 	0.7497	0.2605	0.856	-0.062
Mof_H 	H 	0.7525	0.2338	0.8781	0.089
Mof_C 	C 	0.7144	0.2676	0.8105	0.063
Mof_C 	C 	0.7121	0.3075	0.779	-0.111
Mof_H 	H 	0.6892	0.3132	0.749	0.083
Mof_C 	C 	0.7416	0.3382	0.79	0.067
Mof_C 	C 	0.7738	0.3307	0.8345	-0.072
Mof_H 	H 	0.7936	0.3529	0.8435	0.092
Mof_C 	C 	0.6842	0.2353	0.8003	0.004
Mof_C 	C 	0.6593	0.2055	0.7913	-0.034
Mof_C 	C 	0.6325	0.1702	0.7811	0.12
Mof_C 	C 	0.6149	0.1599	0.7197	-0.164
Mof_H 	H 	0.6212	0.1773	0.6818	0.108
Mof_C 	C 	0.5893	0.1266	0.7113	0.095
Mof_H 	H 	0.577	0.1214	0.6683	0.026
Mof_C 	C 	0.5805	0.0992	0.7644	-0.142
Mof_C 	C 	0.5512	0.0631	0.7568	0.365
Mof_C 	C 	0.6004	0.1095	0.827	0.095
Mof_H 	H 	0.5953	0.0912	0.8643	0.036
Mof_C 	C 	0.6251	0.1421	0.8366	-0.159
Mof_H 	H 	0.6378	0.1471	0.8793	0.114
Mof_C 	C 	0.7404	0.3788	0.7528	0.007
Mof_C 	C 	0.7425	0.4132	0.7286	-0.056
Mof_C 	C 	0.7464	0.4522	0.6944	0.156
Mof_C 	C 	0.7858	0.4649	0.6801	-0.179
Mof_H 	H 	0.809	0.4478	0.6948	0.104
Mof_C 	C 	0.7941	0.5012	0.6451	0.09
Mof_H 	H 	0.8226	0.5086	0.6338	0.023
Mof_C 	C 	0.7591	0.5284	0.6251	-0.143
Mof_C 	C 	0.768	0.5678	0.5839	0.356
Mof_C 	C 	0.721	0.5138	0.6386	0.108
Mof_H 	H 	0.6968	0.5302	0.6261	0.013
Mof_C 	C 	0.7149	0.4749	0.6706	-0.188
Mof_H 	H 	0.6866	0.4644	0.6755	0.103
Mof_O 	O 	0.82139	0.24667	0.9321	-0.326
Mof_O 	O 	0.83676	0.31652	0.9311	-0.319
Mof_O 	O 	0.5386	0.0468	0.8138	-0.391
Mof_O 	O 	0.5393	0.0506	0.7003	-0.398
Mof_O 	O 	0.80554	0.57603	0.5677	-0.397
Mof_O 	O 	0.7344	0.5898	0.5697	-0.401
Mof_O 	O 	0.8855	0.3879	0.99	-0.851
Mof_C 	C 	0.1856	0.715	0.9141	0.316
Mof_C 	C 	0.2211	0.7082	0.8673	-0.01
Mof_C 	C 	0.2503	0.7395	0.856	-0.063
Mof_H 	H 	0.2475	0.7662	0.8781	0.089
Mof_C 	C 	0.2856	0.7324	0.8105	0.064
Mof_C 	C 	0.2879	0.6925	0.779	-0.111
Mof_H 	H 	0.3108	0.6868	0.749	0.083
Mof_C 	C 	0.2584	0.6618	0.79	0.067
Mof_C 	C 	0.2262	0.6693	0.8345	-0.072
Mof_H 	H 	0.2064	0.6471	0.8435	0.092
Mof_C 	C 	0.3158	0.7647	0.8003	0.003
Mof_C 	C 	0.3407	0.7945	0.7913	-0.033
Mof_C 	C 	0.3675	0.8298	0.7811	0.118
Mof_C 	C 	0.3851	0.8401	0.7197	-0.16
Mof_H 	H 	0.3788	0.8227	0.6818	0.107
Mof_C 	C 	0.4107	0.8734	0.7113	0.092
Mof_H 	H 	0.423	0.8786	0.6683	0.029
Mof_C 	C 	0.4195	0.9008	0.7644	-0.135
Mof_C 	C 	0.4488	0.9369	0.7568	0.363
Mof_C 	C 	0.3996	0.8905	0.827	0.092
Mof_H 	H 	0.4047	0.9088	0.8643	0.041
Mof_C 	C 	0.3749	0.8579	0.8366	-0.154
Mof_H 	H 	0.3622	0.8529	0.8793	0.114
Mof_C 	C 	0.2596	0.6212	0.7528	0.007
Mof_C 	C 	0.2575	0.5868	0.7286	-0.056
Mof_C 	C 	0.2536	0.5478	0.6944	0.156
Mof_C 	C 	0.2142	0.5351	0.6801	-0.179
Mof_H 	H 	0.191	0.5522	0.6948	0.104
Mof_C 	C 	0.2059	0.4988	0.6451	0.091
Mof_H 	H 	0.1774	0.4914	0.6338	0.022
Mof_C 	C 	0.2409	0.4716	0.6251	-0.143
Mof_C 	C 	0.232	0.4322	0.5839	0.356
Mof_C 	C 	0.279	0.4862	0.6386	0.109
Mof_H 	H 	0.3032	0.4698	0.6261	0.013
Mof_C 	C 	0.2851	0.5251	0.6706	-0.189
Mof_H 	H 	0.3134	0.5356	0.6755	0.104
Mof_O 	O 	0.17861	0.75333	0.9321	-0.326
Mof_O 	O 	0.16324	0.68348	0.9311	-0.319
Mof_O 	O 	0.4614	0.9532	0.8138	-0.379
Mof_O 	O 	0.4607	0.9494	0.7003	-0.387
Mof_O 	O 	0.19446	0.42397	0.5677	-0.398
Mof_O 	O 	0.2656	0.4102	0.5697	-0.401
Mof_O 	O 	0.1145	0.6121	0.99	-0.853
Mof_C 	C 	0.215	0.3144	0.4141	0.334
Mof_C 	C 	0.2082	0.2789	0.3673	-0.051
Mof_C 	C 	0.2395	0.2497	0.356	-0.045
Mof_H 	H 	0.2662	0.2525	0.3781	0.064
Mof_C 	C 	0.2324	0.2144	0.3105	0.035
Mof_C 	C 	0.1925	0.2121	0.279	-0.09
Mof_H 	H 	0.1868	0.1892	0.249	0.064
Mof_C 	C 	0.1618	0.2416	0.29	0.025
Mof_C 	C 	0.1693	0.2738	0.3345	-0.046
Mof_H 	H 	0.1471	0.2936	0.3435	0.067
Mof_C 	C 	0.2647	0.1842	0.3003	0.002
Mof_C 	C 	0.2945	0.1593	0.2913	-0.054
Mof_C 	C 	0.3298	0.1325	0.2811	0.127
Mof_C 	C 	0.3401	0.1149	0.2197	-0.188
Mof_H 	H 	0.3227	0.1212	0.1818	0.11
Mof_C 	C 	0.3734	0.0893	0.2113	0.112
Mof_H 	H 	0.3786	0.077	0.1683	-0.002
Mof_C 	C 	0.4008	0.0805	0.2644	-0.168
Mof_C 	C 	0.4369	0.0512	0.2568	0.375
Mof_C 	C 	0.3905	0.1004	0.327	0.106
Mof_H 	H 	0.4088	0.0953	0.3643	0.012
Mof_C 	C 	0.3579	0.1251	0.3366	-0.179
Mof_H 	H 	0.3529	0.1378	0.3793	0.095
Mof_C 	C 	0.1212	0.2404	0.2528	0.028
Mof_C 	C 	0.0868	0.2425	0.2286	-0.126
Mof_C 	C 	0.0478	0.2464	0.1944	0.25
Mof_C 	C 	0.0351	0.2858	0.1801	-0.308
Mof_H 	H 	0.0522	0.309	0.1948	0.133
Mof_C 	C 	0.9988	0.2941	0.1451	0.189
Mof_H 	H 	0.9914	0.3226	0.1338	-0.022
Mof_C 	C 	0.9716	0.2591	0.1251	-0.236
Mof_C 	C 	0.9322	0.268	0.0839	0.38
Mof_C 	C 	0.9862	0.221	0.1386	0.215
Mof_H 	H 	0.9698	0.1968	0.1261	-0.04
Mof_C 	C 	0.0251	0.2149	0.1706	-0.322
Mof_H 	H 	0.0356	0.1866	0.1755	0.121
Mof_O 	O 	0.25333	0.32139	0.4321	-0.394
Mof_O 	O 	0.18348	0.33676	0.4311	-0.397
Mof_O 	O 	0.4532	0.0386	0.3138	-0.411
Mof_O 	O 	0.4494	0.0393	0.2003	-0.419
Mof_O 	O 	0.92397	0.30554	0.0677	-0.446
Mof_O 	O 	0.9102	0.2344	0.0697	-0.44
Mof_O 	O 	0.1121	0.3855	0.49	-0.098
Mof_C 	C 	0.785	0.6856	0.4141	0.329
Mof_C 	C 	0.7918	0.7211	0.3673	-0.039
Mof_C 	C 	0.7605	0.7503	0.356	-0.055
Mof_H 	H 	0.7338	0.7475	0.3781	0.068
Mof_C 	C 	0.7676	0.7856	0.3105	0.048
Mof_C 	C 	0.8075	0.7879	0.279	-0.11
Mof_H 	H 	0.8132	0.8108	0.249	0.075
Mof_C 	C 	0.8382	0.7584	0.29	0.059
Mof_C 	C 	0.8307	0.7262	0.3345	-0.066
Mof_H 	H 	0.8529	0.7064	0.3435	0.077
Mof_C 	C 	0.7353	0.8158	0.3003	-0.002
Mof_C 	C 	0.7055	0.8407	0.2913	-0.048
Mof_C 	C 	0.6702	0.8675	0.2811	0.124
Mof_C 	C 	0.6599	0.8851	0.2197	-0.181
Mof_H 	H 	0.6773	0.8788	0.1818	0.109
Mof_C 	C 	0.6266	0.9107	0.2113	0.108
Mof_H 	H 	0.6214	0.923	0.1683	0.003
Mof_C 	C 	0.5992	0.9195	0.2644	-0.16
Mof_C 	C 	0.5631	0.9488	0.2568	0.373
Mof_C 	C 	0.6095	0.8996	0.327	0.102
Mof_H 	H 	0.5912	0.9047	0.3643	0.016
Mof_C 	C 	0.6421	0.8749	0.3366	-0.173
Mof_H 	H 	0.6471	0.8622	0.3793	0.095
Mof_C 	C 	0.8788	0.7596	0.2528	-0.02
Mof_C 	C 	0.9132	0.7575	0.2286	-0.036
Mof_C 	C 	0.9522	0.7536	0.1944	0.074
Mof_C 	C 	0.9649	0.7142	0.1801	-0.096
Mof_H 	H 	0.9478	0.691	0.1948	0.07
Mof_C 	C 	0.0012	0.7059	0.1451	0.002
Mof_H 	H 	0.0086	0.6774	0.1338	0.03
Mof_C 	C 	0.0284	0.7409	0.1251	-0.107
Mof_C 	C 	0.0678	0.732	0.0839	0.333
Mof_C 	C 	0.0138	0.779	0.1386	0.015
Mof_H 	H 	0.0302	0.8032	0.1261	0.019
Mof_C 	C 	0.9749	0.7851	0.1706	-0.105
Mof_H 	H 	0.9644	0.8134	0.1755	0.062
Mof_O 	O 	0.74667	0.67861	0.4321	-0.393
Mof_O 	O 	0.81652	0.66324	0.4311	-0.394
Mof_O 	O 	0.5468	0.9614	0.3138	-0.398
Mof_O 	O 	0.5506	0.9607	0.2003	-0.406
Mof_O 	O 	0.07603	0.69446	0.0677	-0.436
Mof_O 	O 	0.0898	0.7656	0.0697	-0.431
Mof_O 	O 	0.8879	0.6145	0.49	-0.095
Mof_Cu	Cu	0.11944	0.68258	-0	0.864
Mof_Cu	Cu	0.13452	0.76616	-0	0.837
Mof_Cu	Cu	0.88056	0.31742	-0	0.864
Mof_Cu	Cu	0.86548	0.23384	-0	0.838
Mof_Cu	Cu	0.81742	0.61944	0.5	0.928
Mof_Cu	Cu	0.73384	0.63452	0.5	0.9
Mof_Cu	Cu	0.18258	0.38056	0.5	0.928
Mof_Cu	Cu	0.26616	0.36548	0.5	0.9
Mof_Cu	Cu	0.5	0	0.18294	0.888
Mof_Cu	Cu	0.5	5.18098e-33	0.68294	0.896
Mof_Cu	Cu	0.5	0	0.81706	0.906
Mof_Cu	Cu	0.5	2.59049e-33	0.31706	0.897
_end
