# CIF file generated by openbabel 3.1.0, see https://openbabel.org
data_I
_chemical_name_common 'image0'
_cell_length_a 6.7418
_cell_length_b 12.143
_cell_length_c 13.04
_cell_angle_alpha 90
_cell_angle_beta 90
_cell_angle_gamma 90
_space_group_name_H-M_alt 'P 1'
_space_group_name_Hall 'P 1'
loop_
    _symmetry_equiv_pos_as_xyz
    x,y,z
loop_
    _atom_site_label
    _atom_site_type_symbol
    _atom_site_fract_x
    _atom_site_fract_y
    _atom_site_fract_z
    _atom_site_occupancy
    N1       N        0.47910    0.72300    0.63000    1.000
    N2       N        0.68170    0.72140    0.63080    1.000
    C1       C        0.41940    0.68790    0.71920    1.000
    C2       C        0.73740    0.68530    0.72020    1.000
    N3       N        0.57820    0.66360    0.77820    1.000
    Cu1      Cu       0.33265    0.76142    0.50120    1.000
    C3       C        0.55790    0.68140    0.96490    1.000
    H1       H        0.54340    0.75730    0.95910    1.000
    C4       C        0.55910    0.62990    0.05950    1.000
    H2       H        0.53970    0.67030    0.11930    1.000
    C5       C        0.58930    0.51840    0.06350    1.000
    H3       H        0.59370    0.48520    0.12770    1.000
    C6       C        0.60590    0.50440    0.89010    1.000
    H4       H        0.61980    0.46180    0.83120    1.000
    C7       C        0.57890    0.61560    0.87960    1.000
    H5       H        0.86750    0.67610    0.74110    1.000
    H6       H        0.28720    0.68080    0.73940    1.000
    N4       N        0.61300    0.45450    0.98110    1.000
    O1       O        0.58120    0.74790    0.42620    1.000
    H7       H        0.57100    0.69000    0.39100    1.000
    N5       N        0.97910    0.77700    0.37000    1.000
    N6       N        0.18170    0.77860    0.36920    1.000
    C8       C        0.91940    0.81210    0.28080    1.000
    C9       C        0.23740    0.81470    0.27980    1.000
    N7       N        0.07820    0.83640    0.22180    1.000
    Cu2      Cu       0.83265    0.73858    0.49880    1.000
    C10      C        0.05790    0.81860    0.03510    1.000
    H8       H        0.04340    0.74270    0.04090    1.000
    C11      C        0.05910    0.87010    0.94050    1.000
    H9       H        0.03970    0.82970    0.88070    1.000
    C12      C        0.08930    0.98160    0.93650    1.000
    H10      H        0.09370    0.01480    0.87230    1.000
    C13      C        0.10590    0.99560    0.10990    1.000
    H11      H        0.11980    0.03820    0.16880    1.000
    C14      C        0.07890    0.88440    0.12040    1.000
    H12      H        0.36750    0.82390    0.25890    1.000
    H13      H        0.78720    0.81920    0.26060    1.000
    N8       N        0.11300    0.04550    0.01890    1.000
    O2       O        0.08120    0.75210    0.57380    1.000
    H14      H        0.07100    0.81000    0.60900    1.000
    N9       N        0.02090    0.27700    0.13000    1.000
    N10      N        0.81830    0.27860    0.13080    1.000
    C15      C        0.08060    0.31210    0.21920    1.000
    C16      C        0.76260    0.31470    0.22020    1.000
    N11      N        0.92180    0.33640    0.27820    1.000
    Cu3      Cu       0.16735    0.23858    0.00120    1.000
    C17      C        0.94210    0.31860    0.46490    1.000
    H15      H        0.95660    0.24270    0.45910    1.000
    C18      C        0.94090    0.37010    0.55950    1.000
    H16      H        0.96030    0.32970    0.61930    1.000
    C19      C        0.91070    0.48160    0.56350    1.000
    H17      H        0.90630    0.51480    0.62770    1.000
    C20      C        0.89410    0.49560    0.39010    1.000
    H18      H        0.88020    0.53820    0.33120    1.000
    C21      C        0.92110    0.38440    0.37960    1.000
    H19      H        0.63250    0.32390    0.24110    1.000
    H20      H        0.21280    0.31920    0.23940    1.000
    N12      N        0.88700    0.54550    0.48110    1.000
    O3       O        0.91880    0.25210    0.92620    1.000
    H21      H        0.92900    0.31000    0.89100    1.000
    N13      N        0.52090    0.22300    0.87000    1.000
    N14      N        0.31830    0.22140    0.86920    1.000
    C22      C        0.58060    0.18790    0.78080    1.000
    C23      C        0.26260    0.18530    0.77980    1.000
    N15      N        0.42180    0.16360    0.72180    1.000
    Cu4      Cu       0.66735    0.26142    0.99880    1.000
    C24      C        0.44210    0.18140    0.53510    1.000
    H22      H        0.45660    0.25730    0.54090    1.000
    C25      C        0.44090    0.12990    0.44050    1.000
    H23      H        0.46030    0.17030    0.38070    1.000
    C26      C        0.41070    0.01840    0.43650    1.000
    H24      H        0.40630    0.98520    0.37230    1.000
    C27      C        0.39410    0.00440    0.60990    1.000
    H25      H        0.38020    0.96180    0.66880    1.000
    C28      C        0.42110    0.11560    0.62040    1.000
    H26      H        0.13250    0.17610    0.75890    1.000
    H27      H        0.71280    0.18080    0.76060    1.000
    N16      N        0.38700    0.95450    0.51890    1.000
    O4       O        0.41880    0.24790    0.07380    1.000
    H28      H        0.42900    0.19000    0.10900    1.000
