data_functionalizedCrystal
_audit_creation_method	'EQeq! by Chris Wilmer'
_symmetry_space_group_name_H-M	'P1'
_symmetry_Int_Tables_number	1
_symmetry_cell_setting	triclinic
loop_
_symmetry_equiv_pos_as_xyz
  x,y,z
_cell_length_a	13.3238
_cell_length_b	13.3238
_cell_length_c	14.3368
_cell_angle_alpha	90
_cell_angle_beta	90
_cell_angle_gamma	120
loop_
_atom_site_label
_atom_site_type_symbol
_atom_site_fract_x
_atom_site_fract_y
_atom_site_fract_z
_atom_site_charge
Mof_Ho	Ho	0.66667	0.33334	0.16734	2.117
Mof_Ho	Ho	0.33333	0.66666	0.33266	2.116
Mof_Ho	Ho	0.33333	0.66666	0.83266	2.122
Mof_Ho	Ho	0.66667	0.33334	0.66734	2.122
Mof_Cu	Cu	0.5	0	-0	0.87
Mof_Cu	Cu	0.5	0.5	-0	0.901
Mof_Cu	Cu	-0	0.5	-0	0.873
Mof_Cu	Cu	0.5	0	0.5	0.899
Mof_Cu	Cu	-1.4309e-17	0.5	0.5	0.9
Mof_Cu	Cu	0.5	0.5	0.5	0.93
Mof_H 	H 	0.65	0.977	0.921	0.16
Mof_H 	H 	0.8206	0.1395	0.9794	0.228
Mof_H 	H 	0.7465	0.041	0.0513	0.152
Mof_H 	H 	0.6862	0.0851	0.8055	0.136
Mof_H 	H 	0.7335	0.1938	0.8709	0.176
Mof_H 	H 	0.327	0.35	0.921	0.094
Mof_H 	H 	0.3189	0.1794	0.9794	0.215
Mof_H 	H 	0.2945	0.2535	0.0513	0.164
Mof_H 	H 	0.3989	0.3138	0.8055	0.148
Mof_H 	H 	0.4603	0.2665	0.8709	0.172
Mof_H 	H 	0.023	0.673	0.921	0.043
Mof_H 	H 	0.8605	0.6811	0.9794	0.246
Mof_H 	H 	0.959	0.7055	0.0513	0.211
Mof_H 	H 	0.9149	0.6011	0.8055	0.178
Mof_H 	H 	0.8062	0.5397	0.8709	0.181
Mof_H 	H 	0.673	0.023	0.579	0.035
Mof_H 	H 	0.6811	0.8605	0.5206	0.148
Mof_H 	H 	0.7055	0.959	0.4487	0.165
Mof_H 	H 	0.6011	0.9149	0.6945	0.177
Mof_H 	H 	0.5397	0.8062	0.6291	0.169
Mof_H 	H 	0.977	0.65	0.579	0.156
Mof_H 	H 	0.1395	0.8206	0.5206	0.129
Mof_H 	H 	0.041	0.7465	0.4487	0.106
Mof_H 	H 	0.0851	0.6862	0.6945	0.135
Mof_H 	H 	0.1938	0.7335	0.6291	0.164
Mof_H 	H 	0.35	0.327	0.579	0.092
Mof_H 	H 	0.1794	0.3189	0.5206	0.11
Mof_H 	H 	0.2535	0.2945	0.4487	0.114
Mof_H 	H 	0.3138	0.3989	0.6945	0.146
Mof_H 	H 	0.2665	0.4603	0.6291	0.16
Mof_H 	H 	0.35	0.023	0.079	0.03
Mof_H 	H 	0.1794	0.8605	0.0206	0.027
Mof_H 	H 	0.2535	0.959	0.9487	0.103
Mof_H 	H 	0.3138	0.9149	0.1945	0.167
Mof_H 	H 	0.2665	0.8062	0.1291	0.151
Mof_H 	H 	0.673	0.65	0.079	0.098
Mof_H 	H 	0.6811	0.8206	0.0206	0.047
Mof_H 	H 	0.7055	0.7465	0.9487	0.094
Mof_H 	H 	0.6011	0.6862	0.1945	0.155
Mof_H 	H 	0.5397	0.7335	0.1291	0.157
Mof_H 	H 	0.977	0.327	0.079	0.153
Mof_H 	H 	0.1395	0.3189	0.0206	0.002
Mof_H 	H 	0.041	0.2945	0.9487	0.042
Mof_H 	H 	0.0851	0.3989	0.1945	0.123
Mof_H 	H 	0.1938	0.4603	0.1291	0.145
Mof_H 	H 	0.327	0.977	0.421	0.156
Mof_H 	H 	0.3189	0.1395	0.4794	0.108
Mof_H 	H 	0.2945	0.041	0.5513	0.091
Mof_H 	H 	0.3989	0.0851	0.3055	0.126
Mof_H 	H 	0.4603	0.1938	0.3709	0.158
Mof_H 	H 	0.023	0.35	0.421	0.035
Mof_H 	H 	0.8605	0.1794	0.4794	0.128
Mof_H 	H 	0.959	0.2535	0.5513	0.15
Mof_H 	H 	0.9149	0.3138	0.3055	0.169
Mof_H 	H 	0.8062	0.2665	0.3709	0.163
Mof_H 	H 	0.65	0.673	0.421	0.099
Mof_H 	H 	0.8206	0.6811	0.4794	0.147
Mof_H 	H 	0.7465	0.7055	0.5513	0.142
Mof_H 	H 	0.6862	0.6011	0.3055	0.159
Mof_H 	H 	0.7335	0.5397	0.3709	0.17
Mof_C 	C 	0.7316	0.185	0.0697	0.44
Mof_C 	C 	0.7465	0.0996	0.0112	-0.502
Mof_C 	C 	0.6682	0.1169	0.8596	-0.391
Mof_C 	C 	0.563	0.1262	0.8393	0.504
Mof_C 	C 	0.4534	0.2684	0.0697	0.446
Mof_C 	C 	0.3531	0.2535	0.0112	-0.51
Mof_C 	C 	0.4487	0.3318	0.8596	-0.396
Mof_C 	C 	0.5632	0.437	0.8393	0.51
Mof_C 	C 	0.815	0.5466	0.0697	0.461
Mof_C 	C 	0.9004	0.6469	0.0112	-0.53
Mof_C 	C 	0.8831	0.5513	0.8596	-0.408
Mof_C 	C 	0.8738	0.4368	0.8393	0.518
Mof_C 	C 	0.5466	0.815	0.4303	0.413
Mof_C 	C 	0.6469	0.9004	0.4888	-0.334
Mof_C 	C 	0.5513	0.8831	0.6404	-0.403
Mof_C 	C 	0.4368	0.8738	0.6607	0.513
Mof_C 	C 	0.185	0.7316	0.4303	0.391
Mof_C 	C 	0.0996	0.7465	0.4888	-0.301
Mof_C 	C 	0.1169	0.6682	0.6404	-0.386
Mof_C 	C 	0.1262	0.563	0.6607	0.499
Mof_C 	C 	0.2684	0.4534	0.4303	0.394
Mof_C 	C 	0.2535	0.3531	0.4888	-0.301
Mof_C 	C 	0.3318	0.4487	0.6404	-0.39
Mof_C 	C 	0.437	0.5632	0.6607	0.503
Mof_C 	C 	0.2684	0.815	0.9303	0.358
Mof_C 	C 	0.2535	0.9004	0.9888	-0.118
Mof_C 	C 	0.3318	0.8831	0.1404	-0.388
Mof_C 	C 	0.437	0.8738	0.1607	0.503
Mof_C 	C 	0.5466	0.7316	0.9303	0.355
Mof_C 	C 	0.6469	0.7465	0.9888	-0.123
Mof_C 	C 	0.5513	0.6682	0.1404	-0.388
Mof_C 	C 	0.4368	0.563	0.1607	0.499
Mof_C 	C 	0.185	0.4534	0.9303	0.333
Mof_C 	C 	0.0996	0.3531	0.9888	-0.074
Mof_C 	C 	0.1169	0.4487	0.1404	-0.369
Mof_C 	C 	0.1262	0.5632	0.1607	0.488
Mof_C 	C 	0.4534	0.185	0.5697	0.385
Mof_C 	C 	0.3531	0.0996	0.5112	-0.288
Mof_C 	C 	0.4487	0.1169	0.3596	-0.38
Mof_C 	C 	0.5632	0.1262	0.3393	0.496
Mof_C 	C 	0.815	0.2684	0.5697	0.407
Mof_C 	C 	0.9004	0.2535	0.5112	-0.321
Mof_C 	C 	0.8831	0.3318	0.3596	-0.397
Mof_C 	C 	0.8738	0.437	0.3393	0.51
Mof_C 	C 	0.7316	0.5466	0.5697	0.405
Mof_C 	C 	0.7465	0.6469	0.5112	-0.325
Mof_C 	C 	0.6682	0.5513	0.3596	-0.398
Mof_C 	C 	0.563	0.4368	0.3393	0.507
Mof_N 	N 	0.6524	0.0429	0.9412	-0.152
Mof_N 	N 	0.3905	0.3476	0.9412	-0.099
Mof_N 	N 	0.9571	0.6095	0.9412	-0.042
Mof_N 	N 	0.6095	0.9571	0.5588	-0.089
Mof_N 	N 	0.0429	0.6524	0.5588	-0.204
Mof_N 	N 	0.3476	0.3905	0.5588	-0.155
Mof_N 	N 	0.3476	0.9571	0.0588	-0.139
Mof_N 	N 	0.6095	0.6524	0.0588	-0.198
Mof_N 	N 	0.0429	0.3905	0.0588	-0.259
Mof_N 	N 	0.3905	0.0429	0.4412	-0.211
Mof_N 	N 	0.9571	0.3476	0.4412	-0.095
Mof_N 	N 	0.6524	0.6095	0.4412	-0.15
Mof_O 	O 	0.6394	0.1895	0.0594	-0.552
Mof_O 	O 	0.8068	0.2461	0.1282	-0.41
Mof_O 	O 	0.5656	0.1852	0.7706	-0.538
Mof_O 	O 	0.4758	0.0738	0.8911	-0.441
Mof_O 	O 	0.5501	0.3606	0.0594	-0.55
Mof_O 	O 	0.4393	0.1932	0.1282	-0.425
Mof_O 	O 	0.6196	0.4344	0.7706	-0.53
Mof_O 	O 	0.598	0.5242	0.8911	-0.416
Mof_O 	O 	0.8105	0.4499	0.0594	-0.541
Mof_O 	O 	0.7539	0.5607	0.1282	-0.412
Mof_O 	O 	0.8148	0.3804	0.7706	-0.525
Mof_O 	O 	0.9262	0.402	0.8911	-0.389
Mof_O 	O 	0.4499	0.8105	0.4406	-0.513
Mof_O 	O 	0.5607	0.7539	0.3718	-0.392
Mof_O 	O 	0.3804	0.8148	0.7294	-0.526
Mof_O 	O 	0.402	0.9262	0.6089	-0.404
Mof_O 	O 	0.1895	0.6394	0.4406	-0.523
Mof_O 	O 	0.2461	0.8068	0.3718	-0.388
Mof_O 	O 	0.1852	0.5656	0.7294	-0.539
Mof_O 	O 	0.0738	0.4758	0.6089	-0.459
Mof_O 	O 	0.3606	0.5501	0.4406	-0.521
Mof_O 	O 	0.1932	0.4393	0.3718	-0.402
Mof_O 	O 	0.4344	0.6196	0.7294	-0.531
Mof_O 	O 	0.5242	0.598	0.6089	-0.434
Mof_O 	O 	0.3606	0.8105	0.9406	-0.48
Mof_O 	O 	0.1932	0.7539	0.8718	-0.376
Mof_O 	O 	0.4344	0.8148	0.2294	-0.523
Mof_O 	O 	0.5242	0.9262	0.1089	-0.41
Mof_O 	O 	0.4499	0.6394	0.9406	-0.488
Mof_O 	O 	0.5607	0.8068	0.8718	-0.363
Mof_O 	O 	0.3804	0.5656	0.2294	-0.533
Mof_O 	O 	0.402	0.4758	0.1089	-0.448
Mof_O 	O 	0.1895	0.5501	0.9406	-0.488
Mof_O 	O 	0.2461	0.4393	0.8718	-0.374
Mof_O 	O 	0.1852	0.6196	0.2294	-0.536
Mof_O 	O 	0.0738	0.598	0.1089	-0.465
Mof_O 	O 	0.5501	0.1895	0.5594	-0.524
Mof_O 	O 	0.4393	0.2461	0.6282	-0.397
Mof_O 	O 	0.6196	0.1852	0.2706	-0.536
Mof_O 	O 	0.598	0.0738	0.3911	-0.458
Mof_O 	O 	0.8105	0.3606	0.5594	-0.514
Mof_O 	O 	0.7539	0.1932	0.6282	-0.399
Mof_O 	O 	0.8148	0.4344	0.2706	-0.523
Mof_O 	O 	0.9262	0.5242	0.3911	-0.404
Mof_O 	O 	0.6394	0.4499	0.5594	-0.522
Mof_O 	O 	0.8068	0.5607	0.6282	-0.386
Mof_O 	O 	0.5656	0.3804	0.2706	-0.532
Mof_O 	O 	0.4758	0.402	0.3911	-0.439
_end
