data_functionalizedCrystal
_audit_creation_method	'EQeq! by Chris Wilmer'
_symmetry_space_group_name_H-M	'P1'
_symmetry_Int_Tables_number	1
_symmetry_cell_setting	triclinic
loop_
_symmetry_equiv_pos_as_xyz
  x,y,z
_cell_length_a	31.119
_cell_length_b	11.2984
_cell_length_c	7.4916
_cell_angle_alpha	90
_cell_angle_beta	92.839
_cell_angle_gamma	90
loop_
_atom_site_label
_atom_site_type_symbol
_atom_site_fract_x
_atom_site_fract_y
_atom_site_fract_z
_atom_site_charge
Mof_Mo	Mo	0.79317	0.485	0.32829	2.321
Mof_Mo	Mo	0.91051	0.47766	0.26989	1.679
Mof_O 	O 	0.7529	0.5932	0.341	-0.717
Mof_O 	O 	0.767	0.3646	0.2265	-0.722
Mof_O 	O 	0.8003	0.5554	0.0537	-0.821
Mof_O 	O 	0.8539	0.436	0.2761	-0.759
Mof_O 	O 	0.9105	0.5412	0.0526	-0.736
Mof_O 	O 	0.9614	0.5759	0.3549	-0.668
Mof_N 	N 	0.8982	0.1351	0.5028	-0.174
Mof_N 	N 	0.8216	0.7616	0.433	-0.171
Mof_N 	N 	0.8358	0.6535	0.3877	-0.176
Mof_N 	N 	0.8772	0.6578	0.3636	-0.137
Mof_N 	N 	0.8914	0.7669	0.3874	-0.183
Mof_H 	H 	0.9171	0.7927	0.3765	0.061
Mof_C 	C 	0.8575	0.9585	0.4564	-0.125
Mof_C 	C 	0.8966	0.0136	0.4873	0.065
Mof_H 	H 	0.9218	0.9692	0.4976	-0.03
Mof_C 	C 	0.8622	0.2014	0.4904	0.081
Mof_H 	H 	0.8639	0.2832	0.5033	-0.005
Mof_C 	C 	0.8228	0.1476	0.4585	-0.141
Mof_H 	H 	0.7978	0.1929	0.4484	0.082
Mof_C 	C 	0.8205	0.025	0.4414	0.083
Mof_H 	H 	0.7941	0.9881	0.4199	-0.011
Mof_C 	C 	0.8566	0.8294	0.4326	0.152
Mof_Mo	Mo	0.29317	0.985	0.32829	2.304
Mof_Mo	Mo	0.41051	0.97766	0.26989	1.644
Mof_O 	O 	0.2529	0.0932	0.341	-0.709
Mof_O 	O 	0.267	0.8646	0.2265	-0.718
Mof_O 	O 	0.3003	0.0554	0.0537	-0.805
Mof_O 	O 	0.3539	0.936	0.2761	-0.756
Mof_O 	O 	0.4105	0.0412	0.0526	-0.725
Mof_O 	O 	0.4614	0.0759	0.3549	-0.69
Mof_N 	N 	0.3982	0.6351	0.5028	-0.175
Mof_N 	N 	0.3216	0.2616	0.433	-0.169
Mof_N 	N 	0.3358	0.1535	0.3877	-0.173
Mof_N 	N 	0.3772	0.1578	0.3636	-0.135
Mof_N 	N 	0.3914	0.2669	0.3874	-0.18
Mof_H 	H 	0.4171	0.2927	0.3765	0.054
Mof_C 	C 	0.3575	0.4585	0.4564	-0.106
Mof_C 	C 	0.3966	0.5136	0.4873	0.047
Mof_H 	H 	0.4218	0.4692	0.4976	-0.031
Mof_C 	C 	0.3622	0.7014	0.4904	0.07
Mof_H 	H 	0.3639	0.7832	0.5033	-0.002
Mof_C 	C 	0.3228	0.6476	0.4585	-0.125
Mof_H 	H 	0.2978	0.6929	0.4484	0.076
Mof_C 	C 	0.3205	0.525	0.4414	0.056
Mof_H 	H 	0.2941	0.4881	0.4199	0.001
Mof_C 	C 	0.3566	0.3294	0.4326	0.146
Mof_Mo	Mo	0.20683	0.485	0.17171	2.273
Mof_Mo	Mo	0.08949	0.47766	0.23011	1.641
Mof_O 	O 	0.2471	0.5932	0.159	-0.71
Mof_O 	O 	0.233	0.3646	0.2735	-0.716
Mof_O 	O 	0.1997	0.5554	0.4463	-0.791
Mof_O 	O 	0.1461	0.436	0.2239	-0.752
Mof_O 	O 	0.0895	0.5412	0.4474	-0.717
Mof_O 	O 	0.0386	0.5759	0.1451	-0.697
Mof_N 	N 	0.1018	0.1351	0.9972	-0.151
Mof_N 	N 	0.1784	0.7616	0.067	-0.173
Mof_N 	N 	0.1642	0.6535	0.1123	-0.177
Mof_N 	N 	0.1228	0.6578	0.1364	-0.14
Mof_N 	N 	0.1086	0.7669	0.1126	-0.183
Mof_H 	H 	0.0829	0.7927	0.1235	0.052
Mof_C 	C 	0.1425	0.9585	0.0436	-0.156
Mof_C 	C 	0.1034	0.0136	0.0127	0.086
Mof_H 	H 	0.0782	0.9692	0.0024	-0.062
Mof_C 	C 	0.1378	0.2014	0.0096	0.006
Mof_H 	H 	0.1361	0.2832	0.9967	0.039
Mof_C 	C 	0.1772	0.1476	0.0415	-0.119
Mof_H 	H 	0.2022	0.1929	0.0516	0.067
Mof_C 	C 	0.1795	0.025	0.0586	0.104
Mof_H 	H 	0.2059	0.9881	0.0801	-0.027
Mof_C 	C 	0.1434	0.8294	0.0674	0.155
Mof_Mo	Mo	0.70683	0.985	0.17171	2.238
Mof_Mo	Mo	0.58949	0.97766	0.23011	1.619
Mof_O 	O 	0.7471	0.0932	0.159	-0.698
Mof_O 	O 	0.733	0.8646	0.2735	-0.712
Mof_O 	O 	0.6997	0.0554	0.4463	-0.783
Mof_O 	O 	0.6461	0.936	0.2239	-0.749
Mof_O 	O 	0.5895	0.0412	0.4474	-0.707
Mof_O 	O 	0.5386	0.0759	0.1451	-0.693
Mof_N 	N 	0.6018	0.6351	0.9972	-0.112
Mof_N 	N 	0.6784	0.2616	0.067	-0.167
Mof_N 	N 	0.6642	0.1535	0.1123	-0.172
Mof_N 	N 	0.6228	0.1578	0.1364	-0.136
Mof_N 	N 	0.6086	0.2669	0.1126	-0.176
Mof_H 	H 	0.5829	0.2927	0.1235	0.051
Mof_C 	C 	0.6425	0.4585	0.0436	-0.061
Mof_C 	C 	0.6034	0.5136	0.0127	-0.01
Mof_H 	H 	0.5782	0.4692	0.0024	-0.019
Mof_C 	C 	0.6378	0.7014	0.0096	-0.077
Mof_H 	H 	0.6361	0.7832	0.9967	0.076
Mof_C 	C 	0.6772	0.6476	0.0415	-0.028
Mof_H 	H 	0.7022	0.6929	0.0516	0.031
Mof_C 	C 	0.6795	0.525	0.0586	-0.014
Mof_H 	H 	0.7059	0.4881	0.0801	0.022
Mof_C 	C 	0.6434	0.3294	0.0674	0.129
Mof_Mo	Mo	0.20683	0.515	0.67171	2.315
Mof_Mo	Mo	0.08949	0.52234	0.73011	1.68
Mof_O 	O 	0.2471	0.4068	0.659	-0.711
Mof_O 	O 	0.233	0.6354	0.7735	-0.702
Mof_O 	O 	0.1997	0.4446	0.9463	-0.77
Mof_O 	O 	0.1461	0.564	0.7239	-0.748
Mof_O 	O 	0.0895	0.4588	0.9474	-0.705
Mof_O 	O 	0.0386	0.4241	0.6451	-0.693
Mof_N 	N 	0.1018	0.8649	0.4972	-0.173
Mof_N 	N 	0.1784	0.2384	0.567	-0.168
Mof_N 	N 	0.1642	0.3465	0.6123	-0.173
Mof_N 	N 	0.1228	0.3422	0.6364	-0.137
Mof_N 	N 	0.1086	0.2331	0.6126	-0.179
Mof_H 	H 	0.0829	0.2073	0.6235	0.056
Mof_C 	C 	0.1425	0.0415	0.5436	-0.105
Mof_C 	C 	0.1034	0.9864	0.5127	0.055
Mof_H 	H 	0.0782	0.0308	0.5024	-0.032
Mof_C 	C 	0.1378	0.7986	0.5096	0.08
Mof_H 	H 	0.1361	0.7168	0.4967	-0.002
Mof_C 	C 	0.1772	0.8524	0.5415	-0.126
Mof_H 	H 	0.2022	0.8071	0.5516	0.079
Mof_C 	C 	0.1795	0.975	0.5586	0.069
Mof_H 	H 	0.2059	0.0119	0.5801	-0.001
Mof_C 	C 	0.1434	0.1706	0.5674	0.152
Mof_Mo	Mo	0.70683	0.015	0.67171	2.307
Mof_Mo	Mo	0.58949	0.02234	0.73011	1.666
Mof_O 	O 	0.7471	0.9068	0.659	-0.708
Mof_O 	O 	0.733	0.1354	0.7735	-0.707
Mof_O 	O 	0.6997	0.9446	0.9463	-0.757
Mof_O 	O 	0.6461	0.064	0.7239	-0.749
Mof_O 	O 	0.5895	0.9588	0.9474	-0.695
Mof_O 	O 	0.5386	0.9241	0.6451	-0.695
Mof_N 	N 	0.6018	0.3649	0.4972	-0.172
Mof_N 	N 	0.6784	0.7384	0.567	-0.167
Mof_N 	N 	0.6642	0.8465	0.6123	-0.172
Mof_N 	N 	0.6228	0.8422	0.6364	-0.135
Mof_N 	N 	0.6086	0.7331	0.6126	-0.178
Mof_H 	H 	0.5829	0.7073	0.6235	0.056
Mof_C 	C 	0.6425	0.5415	0.5436	-0.103
Mof_C 	C 	0.6034	0.4864	0.5127	0.055
Mof_H 	H 	0.5782	0.5308	0.5024	-0.032
Mof_C 	C 	0.6378	0.2986	0.5096	0.077
Mof_H 	H 	0.6361	0.2168	0.4967	-0.001
Mof_C 	C 	0.6772	0.3524	0.5415	-0.123
Mof_H 	H 	0.7022	0.3071	0.5516	0.077
Mof_C 	C 	0.6795	0.475	0.5586	0.064
Mof_H 	H 	0.7059	0.5119	0.5801	0.001
Mof_C 	C 	0.6434	0.6706	0.5674	0.153
Mof_Mo	Mo	0.79317	0.515	0.82829	2.364
Mof_Mo	Mo	0.91051	0.52234	0.76989	1.716
Mof_O 	O 	0.7529	0.4068	0.841	-0.707
Mof_O 	O 	0.767	0.6354	0.7265	-0.722
Mof_O 	O 	0.8003	0.4446	0.5537	-0.801
Mof_O 	O 	0.8539	0.564	0.7761	-0.756
Mof_O 	O 	0.9105	0.4588	0.5526	-0.726
Mof_O 	O 	0.9614	0.4241	0.8549	-0.665
Mof_N 	N 	0.8982	0.8649	0.0028	-0.248
Mof_N 	N 	0.8216	0.2384	0.933	-0.168
Mof_N 	N 	0.8358	0.3465	0.8877	-0.172
Mof_N 	N 	0.8772	0.3422	0.8636	-0.135
Mof_N 	N 	0.8914	0.2331	0.8874	-0.188
Mof_H 	H 	0.9171	0.2073	0.8765	0.067
Mof_C 	C 	0.8575	0.0415	0.9564	-0.206
Mof_C 	C 	0.8966	0.9864	0.9873	0.171
Mof_H 	H 	0.9218	0.0308	0.9976	-0.064
Mof_C 	C 	0.8622	0.7986	0.9904	0.245
Mof_H 	H 	0.8639	0.7168	0.0033	-0.085
Mof_C 	C 	0.8228	0.8524	0.9585	-0.261
Mof_H 	H 	0.7978	0.8071	0.9484	0.134
Mof_C 	C 	0.8205	0.975	0.9414	0.2
Mof_H 	H 	0.7941	0.0119	0.9199	-0.048
Mof_C 	C 	0.8566	0.1706	0.9326	0.187
Mof_Mo	Mo	0.29317	0.015	0.82829	2.332
Mof_Mo	Mo	0.41051	0.02234	0.76989	1.684
Mof_O 	O 	0.2529	0.9068	0.841	-0.69
Mof_O 	O 	0.267	0.1354	0.7265	-0.718
Mof_O 	O 	0.3003	0.9446	0.5537	-0.792
Mof_O 	O 	0.3539	0.064	0.7761	-0.752
Mof_O 	O 	0.4105	0.9588	0.5526	-0.72
Mof_O 	O 	0.4614	0.9241	0.8549	-0.686
Mof_N 	N 	0.3982	0.3649	0.0028	-0.219
Mof_N 	N 	0.3216	0.7384	0.933	-0.159
Mof_N 	N 	0.3358	0.8465	0.8877	-0.167
Mof_N 	N 	0.3772	0.8422	0.8636	-0.132
Mof_N 	N 	0.3914	0.7331	0.8874	-0.181
Mof_H 	H 	0.4171	0.7073	0.8765	0.059
Mof_C 	C 	0.3575	0.5415	0.9564	-0.131
Mof_C 	C 	0.3966	0.4864	0.9873	0.095
Mof_H 	H 	0.4218	0.5308	0.9976	-0.038
Mof_C 	C 	0.3622	0.2986	0.9904	0.172
Mof_H 	H 	0.3639	0.2168	0.0033	-0.052
Mof_C 	C 	0.3228	0.3524	0.9585	-0.186
Mof_H 	H 	0.2978	0.3071	0.9484	0.104
Mof_C 	C 	0.3205	0.475	0.9414	0.107
Mof_H 	H 	0.2941	0.5119	0.9199	-0.008
Mof_C 	C 	0.3566	0.6706	0.9326	0.165
Mof_Mo	Mo	2.36835e-34	0.66933	0.25	0.933
Mof_Mo	Mo	0.5	0.16933	0.25	0.992
Mof_Mo	Mo	7.10504e-34	0.33067	0.75	0.955
Mof_Mo	Mo	0.5	0.83067	0.75	1.013
Mof_Mn	Mn	0.75	0.75	0.5	1.075
Mof_Mn	Mn	0.25	0.75	-0	1.021
Mof_Mn	Mn	0.25	0.25	0.5	1.075
Mof_Mn	Mn	0.75	0.25	-0	1.043
_end
