data_functionalizedCrystal
_audit_creation_method	'EQeq! by Chris Wilmer'
_symmetry_space_group_name_H-M	'P1'
_symmetry_Int_Tables_number	1
_symmetry_cell_setting	triclinic
loop_
_symmetry_equiv_pos_as_xyz
  x,y,z
_cell_length_a	24.4186
_cell_length_b	24.4186
_cell_length_c	55.4757
_cell_angle_alpha	90
_cell_angle_beta	90
_cell_angle_gamma	120
loop_
_atom_site_label
_atom_site_type_symbol
_atom_site_fract_x
_atom_site_fract_y
_atom_site_fract_z
_atom_site_charge
Mof_In	In	0.77849	0.729	0.47478	2.636
Mof_O 	O 	0.7635	0.6345	0.4746	-0.754
Mof_O 	O 	0.6684	0.5686	0.49132	-0.697
Mof_O 	O 	0.7552	0.8528	0.49959	-0.742
Mof_O 	O 	0.7969	0.8222	0.47021	-0.79
Mof_O 	O 	0.9771	0.3662	0.2051	-0.686
Mof_O 	O 	0.0086	0.2994	0.22046	-0.733
Mof_O 	O 	0.789	0.1258	0.44333	-0.273
Mof_O 	O 	0.8071	0.4104	0.419	-0.269
Mof_O 	O 	0.8916	0.262	0.33387	-0.272
Mof_N 	N 	0.7387	0.3717	0.45067	-0.279
Mof_H 	H 	0.7161	0.338	0.4589	0.132
Mof_N 	N 	0.7648	0.3063	0.43047	-0.291
Mof_H 	H 	0.7437	0.2809	0.442	0.136
Mof_N 	N 	0.8252	0.0685	0.42292	-0.28
Mof_H 	H 	0.8386	0.0659	0.4089	0.132
Mof_N 	N 	0.8347	0.1577	0.40524	-0.277
Mof_H 	H 	0.8543	0.1503	0.394	0.135
Mof_N 	N 	0.8523	0.3192	0.35214	-0.29
Mof_H 	H 	0.8474	0.3514	0.3503	0.137
Mof_N 	N 	0.8909	0.3439	0.31408	-0.284
Mof_H 	H 	0.8815	0.3734	0.3156	0.132
Mof_C 	C 	0.7192	0.5815	0.48091	0.618
Mof_C 	C 	0.7274	0.5271	0.47385	-0.305
Mof_C 	C 	0.6794	0.4675	0.47922	0.198
Mof_H 	H 	0.645	0.4624	0.4882	-0.04
Mof_C 	C 	0.6815	0.4135	0.47118	-0.278
Mof_H 	H 	0.6492	0.3726	0.4745	0.119
Mof_C 	C 	0.7359	0.4256	0.45778	0.246
Mof_C 	C 	0.784	0.4854	0.45219	-0.284
Mof_H 	H 	0.8193	0.4913	0.4437	0.149
Mof_C 	C 	0.7784	0.5386	0.45987	0.204
Mof_H 	H 	0.8084	0.5796	0.4555	-0.045
Mof_C 	C 	0.7732	0.3664	0.43216	0.305
Mof_C 	C 	0.786	0.2816	0.41274	0.297
Mof_C 	C 	0.7954	0.2318	0.41946	-0.34
Mof_H 	H 	0.7831	0.2134	0.4346	0.167
Mof_C 	C 	0.8239	0.2099	0.4029	0.278
Mof_C 	C 	0.8428	0.2366	0.3802	-0.328
Mof_H 	H 	0.8619	0.2223	0.3694	0.167
Mof_C 	C 	0.8316	0.2873	0.37414	0.286
Mof_C 	C 	0.8042	0.3097	0.3902	-0.35
Mof_H 	H 	0.7981	0.3431	0.386	0.167
Mof_C 	C 	0.8137	0.1182	0.42571	0.299
Mof_C 	C 	0.8186	0.0223	0.43898	0.258
Mof_C 	C 	0.7882	0.0116	0.46097	-0.329
Mof_H 	H 	0.7745	0.0382	0.4669	0.162
Mof_C 	C 	0.7793	0.9581	0.47382	0.255
Mof_H 	H 	0.7589	0.9494	0.4887	-0.055
Mof_C 	C 	0.7987	0.9191	0.46571	-0.336
Mof_C 	C 	0.8293	0.9297	0.44273	0.208
Mof_H 	H 	0.8409	0.9014	0.4368	-0.052
Mof_C 	C 	0.8414	0.9831	0.42936	-0.285
Mof_H 	H 	0.8632	0.9927	0.4148	0.122
Mof_C 	C 	0.7864	0.8622	0.47978	0.643
Mof_C 	C 	0.8791	0.3054	0.33334	0.308
Mof_C 	C 	0.9169	0.3404	0.29188	0.259
Mof_C 	C 	0.9445	0.3049	0.28745	-0.314
Mof_H 	H 	0.9484	0.2814	0.2999	0.157
Mof_C 	C 	0.9668	0.3032	0.26481	0.226
Mof_H 	H 	0.9857	0.2789	0.2621	-0.049
Mof_C 	C 	0.9613	0.338	0.24584	-0.302
Mof_C 	C 	0.9352	0.3748	0.2501	0.205
Mof_H 	H 	0.9339	0.3998	0.2377	-0.04
Mof_C 	C 	0.9102	0.3762	0.2729	-0.282
Mof_H 	H 	0.8901	0.3995	0.2755	0.121
Mof_C 	C 	0.9849	0.3356	0.22118	0.605
Mof_In	In	0.271	0.04949	0.80811	2.624
Mof_O 	O 	0.3655	0.129	0.80793	-0.752
Mof_O 	O 	0.4314	0.0998	0.82465	-0.695
Mof_O 	O 	0.1472	0.9024	0.83292	-0.743
Mof_O 	O 	0.1778	0.9747	0.80354	-0.785
Mof_O 	O 	0.6338	0.6109	0.53843	-0.69
Mof_O 	O 	0.7006	0.7092	0.55379	-0.726
Mof_O 	O 	0.8742	0.6632	0.77666	-0.271
Mof_O 	O 	0.5896	0.3967	0.75233	-0.27
Mof_O 	O 	0.738	0.6296	0.6672	-0.271
Mof_N 	N 	0.6283	0.367	0.784	-0.279
Mof_H 	H 	0.662	0.3781	0.79223	0.133
Mof_N 	N 	0.6937	0.4585	0.7638	-0.291
Mof_H 	H 	0.7191	0.4628	0.77533	0.136
Mof_N 	N 	0.9315	0.7567	0.75625	-0.281
Mof_H 	H 	0.9341	0.7727	0.74223	0.135
Mof_N 	N 	0.8423	0.677	0.73857	-0.278
Mof_H 	H 	0.8497	0.704	0.72733	0.136
Mof_N 	N 	0.6808	0.5331	0.68547	-0.289
Mof_H 	H 	0.6486	0.496	0.68363	0.137
Mof_N 	N 	0.6561	0.547	0.64741	-0.284
Mof_H 	H 	0.6266	0.5081	0.64893	0.132
Mof_C 	C 	0.4185	0.1377	0.81424	0.616
Mof_C 	C 	0.4729	0.2003	0.80718	-0.304
Mof_C 	C 	0.5325	0.2119	0.81255	0.198
Mof_H 	H 	0.5376	0.1826	0.82153	-0.04
Mof_C 	C 	0.5865	0.268	0.80451	-0.278
Mof_H 	H 	0.6274	0.2766	0.80783	0.119
Mof_C 	C 	0.5744	0.3103	0.79111	0.246
Mof_C 	C 	0.5146	0.2986	0.78552	-0.285
Mof_H 	H 	0.5087	0.328	0.77703	0.148
Mof_C 	C 	0.4614	0.2398	0.7932	0.204
Mof_H 	H 	0.4204	0.2288	0.78883	-0.046
Mof_C 	C 	0.6336	0.4068	0.76549	0.306
Mof_C 	C 	0.7184	0.5044	0.74607	0.298
Mof_C 	C 	0.7682	0.5636	0.75279	-0.34
Mof_H 	H 	0.7866	0.5697	0.76793	0.168
Mof_C 	C 	0.7901	0.614	0.73623	0.279
Mof_C 	C 	0.7634	0.6062	0.71353	-0.328
Mof_H 	H 	0.7777	0.6396	0.70273	0.167
Mof_C 	C 	0.7127	0.5443	0.70747	0.286
Mof_C 	C 	0.6903	0.4945	0.72353	-0.35
Mof_H 	H 	0.6569	0.455	0.71933	0.167
Mof_C 	C 	0.8818	0.6955	0.75904	0.301
Mof_C 	C 	0.9777	0.7963	0.77231	0.267
Mof_C 	C 	0.9884	0.7766	0.7943	-0.31
Mof_H 	H 	0.9618	0.7363	0.80023	0.159
Mof_C 	C 	0.0419	0.8212	0.80715	0.234
Mof_H 	H 	0.0506	0.8095	0.82203	-0.05
Mof_C 	C 	0.0809	0.8796	0.79904	-0.33
Mof_C 	C 	0.0703	0.8996	0.77606	0.208
Mof_H 	H 	0.0986	0.9395	0.77013	-0.052
Mof_C 	C 	0.0169	0.8583	0.76269	-0.298
Mof_H 	H 	0.0073	0.8705	0.74813	0.123
Mof_C 	C 	0.1378	0.9242	0.81311	0.64
Mof_C 	C 	0.6946	0.5737	0.66667	0.308
Mof_C 	C 	0.6596	0.5765	0.62521	0.258
Mof_C 	C 	0.6951	0.6396	0.62078	-0.313
Mof_H 	H 	0.7186	0.667	0.63323	0.157
Mof_C 	C 	0.6968	0.6636	0.59814	0.224
Mof_H 	H 	0.7211	0.7068	0.59543	-0.049
Mof_C 	C 	0.662	0.6233	0.57917	-0.3
Mof_C 	C 	0.6252	0.5604	0.58343	0.203
Mof_H 	H 	0.6002	0.5341	0.57103	-0.04
Mof_C 	C 	0.6238	0.534	0.60623	-0.282
Mof_H 	H 	0.6005	0.4906	0.60883	0.12
Mof_C 	C 	0.6644	0.6493	0.55451	0.598
Mof_In	In	0.95051	0.22151	0.14145	2.652
Mof_O 	O 	0.871	0.2365	0.14127	-0.755
Mof_O 	O 	0.9002	0.3316	0.15799	-0.692
Mof_O 	O 	0.0976	0.2448	0.16626	-0.743
Mof_O 	O 	0.0253	0.2031	0.13688	-0.797
Mof_O 	O 	0.3891	0.0229	0.87177	-0.687
Mof_O 	O 	0.2908	0.9914	0.88713	-0.719
Mof_O 	O 	0.3368	0.211	0.11	-0.272
Mof_O 	O 	0.6033	0.1929	0.08567	-0.27
Mof_O 	O 	0.3704	0.1084	0.00054	-0.273
Mof_N 	N 	0.633	0.2613	0.11734	-0.279
Mof_H 	H 	0.6219	0.2839	0.12557	0.133
Mof_N 	N 	0.5415	0.2352	0.09714	-0.291
Mof_H 	H 	0.5372	0.2563	0.10867	0.136
Mof_N 	N 	0.2433	0.1748	0.08959	-0.281
Mof_H 	H 	0.2273	0.1614	0.07557	0.133
Mof_N 	N 	0.323	0.1653	0.07191	-0.277
Mof_H 	H 	0.296	0.1457	0.06067	0.135
Mof_N 	N 	0.4669	0.1477	0.01881	-0.29
Mof_H 	H 	0.504	0.1526	0.01697	0.137
Mof_N 	N 	0.453	0.1091	0.98075	-0.284
Mof_H 	H 	0.4919	0.1185	0.98227	0.132
Mof_C 	C 	0.8623	0.2808	0.14758	0.618
Mof_C 	C 	0.7997	0.2726	0.14052	-0.304
Mof_C 	C 	0.7881	0.3206	0.14589	0.198
Mof_H 	H 	0.8174	0.355	0.15487	-0.039
Mof_C 	C 	0.732	0.3185	0.13785	-0.277
Mof_H 	H 	0.7234	0.3508	0.14117	0.12
Mof_C 	C 	0.6897	0.2641	0.12445	0.246
Mof_C 	C 	0.7014	0.216	0.11886	-0.284
Mof_H 	H 	0.672	0.1807	0.11037	0.148
Mof_C 	C 	0.7602	0.2216	0.12654	0.204
Mof_H 	H 	0.7712	0.1916	0.12217	-0.046
Mof_C 	C 	0.5932	0.2268	0.09883	0.305
Mof_C 	C 	0.4956	0.214	0.07941	0.297
Mof_C 	C 	0.4364	0.2046	0.08613	-0.34
Mof_H 	H 	0.4303	0.2169	0.10127	0.167
Mof_C 	C 	0.386	0.1761	0.06957	0.278
Mof_C 	C 	0.3938	0.1572	0.04687	-0.328
Mof_H 	H 	0.3604	0.1381	0.03607	0.166
Mof_C 	C 	0.4557	0.1684	0.04081	0.286
Mof_C 	C 	0.5055	0.1958	0.05687	-0.35
Mof_H 	H 	0.545	0.2019	0.05267	0.167
Mof_C 	C 	0.3045	0.1863	0.09238	0.299
Mof_C 	C 	0.2037	0.1814	0.10565	0.262
Mof_C 	C 	0.2234	0.2118	0.12764	-0.32
Mof_H 	H 	0.2637	0.2255	0.13357	0.16
Mof_C 	C 	0.1788	0.2207	0.14049	0.245
Mof_H 	H 	0.1905	0.2411	0.15537	-0.054
Mof_C 	C 	0.1204	0.2013	0.13238	-0.335
Mof_C 	C 	0.1004	0.1707	0.1094	0.208
Mof_H 	H 	0.0605	0.1591	0.10347	-0.055
Mof_C 	C 	0.1417	0.1586	0.09603	-0.293
Mof_H 	H 	0.1295	0.1368	0.08147	0.121
Mof_C 	C 	0.0758	0.2136	0.14645	0.642
Mof_C 	C 	0.4263	0.1209	1e-05	0.308
Mof_C 	C 	0.4235	0.0831	0.95855	0.257
Mof_C 	C 	0.3604	0.0555	0.95412	-0.312
Mof_H 	H 	0.333	0.0516	0.96657	0.156
Mof_C 	C 	0.3364	0.0332	0.93148	0.221
Mof_H 	H 	0.2932	0.0143	0.92877	-0.051
Mof_C 	C 	0.3767	0.0387	0.91251	-0.298
Mof_C 	C 	0.4396	0.0648	0.91677	0.201
Mof_H 	H 	0.4659	0.0661	0.90437	-0.039
Mof_C 	C 	0.466	0.0898	0.93957	-0.28
Mof_H 	H 	0.5094	0.1099	0.94217	0.12
Mof_C 	C 	0.3507	0.0151	0.88785	0.588
Mof_In	In	0.729	0.77849	0.52522	2.637
Mof_O 	O 	0.6345	0.7635	0.5254	-0.754
Mof_O 	O 	0.5686	0.6684	0.50868	-0.697
Mof_O 	O 	0.8528	0.7552	0.50041	-0.742
Mof_O 	O 	0.8222	0.7969	0.52979	-0.79
Mof_O 	O 	0.3662	0.9771	0.7949	-0.686
Mof_O 	O 	0.2994	0.0086	0.77954	-0.733
Mof_O 	O 	0.1258	0.789	0.55667	-0.273
Mof_O 	O 	0.4104	0.8071	0.581	-0.269
Mof_O 	O 	0.262	0.8916	0.66613	-0.272
Mof_N 	N 	0.3717	0.7387	0.54933	-0.279
Mof_H 	H 	0.338	0.7161	0.5411	0.132
Mof_N 	N 	0.3063	0.7648	0.56953	-0.291
Mof_H 	H 	0.2809	0.7437	0.558	0.136
Mof_N 	N 	0.0685	0.8252	0.57708	-0.28
Mof_H 	H 	0.0659	0.8386	0.5911	0.132
Mof_N 	N 	0.1577	0.8347	0.59476	-0.277
Mof_H 	H 	0.1503	0.8543	0.606	0.135
Mof_N 	N 	0.3192	0.8523	0.64786	-0.29
Mof_H 	H 	0.3514	0.8474	0.6497	0.137
Mof_N 	N 	0.3439	0.8909	0.68592	-0.284
Mof_H 	H 	0.3734	0.8815	0.6844	0.132
Mof_C 	C 	0.5815	0.7192	0.51909	0.618
Mof_C 	C 	0.5271	0.7274	0.52615	-0.305
Mof_C 	C 	0.4675	0.6794	0.52078	0.198
Mof_H 	H 	0.4624	0.645	0.5118	-0.04
Mof_C 	C 	0.4135	0.6815	0.52882	-0.278
Mof_H 	H 	0.3726	0.6492	0.5255	0.119
Mof_C 	C 	0.4256	0.7359	0.54222	0.246
Mof_C 	C 	0.4854	0.784	0.54781	-0.284
Mof_H 	H 	0.4913	0.8193	0.5563	0.149
Mof_C 	C 	0.5386	0.7784	0.54013	0.204
Mof_H 	H 	0.5796	0.8084	0.5445	-0.045
Mof_C 	C 	0.3664	0.7732	0.56784	0.305
Mof_C 	C 	0.2816	0.786	0.58726	0.297
Mof_C 	C 	0.2318	0.7954	0.58054	-0.34
Mof_H 	H 	0.2134	0.7831	0.5654	0.167
Mof_C 	C 	0.2099	0.8239	0.5971	0.278
Mof_C 	C 	0.2366	0.8428	0.6198	-0.328
Mof_H 	H 	0.2223	0.8619	0.6306	0.167
Mof_C 	C 	0.2873	0.8316	0.62586	0.286
Mof_C 	C 	0.3097	0.8042	0.6098	-0.35
Mof_H 	H 	0.3431	0.7981	0.614	0.167
Mof_C 	C 	0.1182	0.8137	0.57429	0.299
Mof_C 	C 	0.0223	0.8186	0.56102	0.258
Mof_C 	C 	0.0116	0.7882	0.53903	-0.329
Mof_H 	H 	0.0382	0.7745	0.5331	0.162
Mof_C 	C 	0.9581	0.7793	0.52618	0.255
Mof_H 	H 	0.9494	0.7589	0.5113	-0.055
Mof_C 	C 	0.9191	0.7987	0.53429	-0.336
Mof_C 	C 	0.9297	0.8293	0.55727	0.208
Mof_H 	H 	0.9014	0.8409	0.5632	-0.052
Mof_C 	C 	0.9831	0.8414	0.57064	-0.285
Mof_H 	H 	0.9927	0.8632	0.5852	0.122
Mof_C 	C 	0.8622	0.7864	0.52022	0.643
Mof_C 	C 	0.3054	0.8791	0.66666	0.308
Mof_C 	C 	0.3404	0.9169	0.70812	0.259
Mof_C 	C 	0.3049	0.9445	0.71255	-0.314
Mof_H 	H 	0.2814	0.9484	0.7001	0.157
Mof_C 	C 	0.3032	0.9668	0.73519	0.226
Mof_H 	H 	0.2789	0.9857	0.7379	-0.049
Mof_C 	C 	0.338	0.9613	0.75416	-0.302
Mof_C 	C 	0.3748	0.9352	0.7499	0.205
Mof_H 	H 	0.3998	0.9339	0.7623	-0.04
Mof_C 	C 	0.3762	0.9102	0.7271	-0.282
Mof_H 	H 	0.3995	0.8901	0.7245	0.121
Mof_C 	C 	0.3356	0.9849	0.77882	0.605
Mof_In	In	0.04949	0.271	0.19189	2.624
Mof_O 	O 	0.129	0.3655	0.19207	-0.752
Mof_O 	O 	0.0998	0.4314	0.17535	-0.695
Mof_O 	O 	0.9024	0.1472	0.16708	-0.743
Mof_O 	O 	0.9747	0.1778	0.19646	-0.785
Mof_O 	O 	0.6109	0.6338	0.46157	-0.69
Mof_O 	O 	0.7092	0.7006	0.44621	-0.726
Mof_O 	O 	0.6632	0.8742	0.22334	-0.271
Mof_O 	O 	0.3967	0.5896	0.24767	-0.27
Mof_O 	O 	0.6296	0.738	0.3328	-0.271
Mof_N 	N 	0.367	0.6283	0.216	-0.279
Mof_H 	H 	0.3781	0.662	0.20777	0.133
Mof_N 	N 	0.4585	0.6937	0.2362	-0.291
Mof_H 	H 	0.4628	0.7191	0.22467	0.136
Mof_N 	N 	0.7567	0.9315	0.24375	-0.281
Mof_H 	H 	0.7727	0.9341	0.25777	0.135
Mof_N 	N 	0.677	0.8423	0.26143	-0.278
Mof_H 	H 	0.704	0.8497	0.27267	0.136
Mof_N 	N 	0.5331	0.6808	0.31453	-0.289
Mof_H 	H 	0.496	0.6486	0.31637	0.137
Mof_N 	N 	0.547	0.6561	0.35259	-0.284
Mof_H 	H 	0.5081	0.6266	0.35107	0.132
Mof_C 	C 	0.1377	0.4185	0.18576	0.616
Mof_C 	C 	0.2003	0.4729	0.19282	-0.304
Mof_C 	C 	0.2119	0.5325	0.18745	0.198
Mof_H 	H 	0.1826	0.5376	0.17847	-0.04
Mof_C 	C 	0.268	0.5865	0.19549	-0.278
Mof_H 	H 	0.2766	0.6274	0.19217	0.119
Mof_C 	C 	0.3103	0.5744	0.20889	0.246
Mof_C 	C 	0.2986	0.5146	0.21448	-0.285
Mof_H 	H 	0.328	0.5087	0.22297	0.148
Mof_C 	C 	0.2398	0.4614	0.2068	0.204
Mof_H 	H 	0.2288	0.4204	0.21117	-0.046
Mof_C 	C 	0.4068	0.6336	0.23451	0.306
Mof_C 	C 	0.5044	0.7184	0.25393	0.298
Mof_C 	C 	0.5636	0.7682	0.24721	-0.34
Mof_H 	H 	0.5697	0.7866	0.23207	0.168
Mof_C 	C 	0.614	0.7901	0.26377	0.279
Mof_C 	C 	0.6062	0.7634	0.28647	-0.328
Mof_H 	H 	0.6396	0.7777	0.29727	0.167
Mof_C 	C 	0.5443	0.7127	0.29253	0.286
Mof_C 	C 	0.4945	0.6903	0.27647	-0.35
Mof_H 	H 	0.455	0.6569	0.28067	0.167
Mof_C 	C 	0.6955	0.8818	0.24096	0.301
Mof_C 	C 	0.7963	0.9777	0.22769	0.267
Mof_C 	C 	0.7766	0.9884	0.2057	-0.31
Mof_H 	H 	0.7363	0.9618	0.19977	0.159
Mof_C 	C 	0.8212	0.0419	0.19285	0.234
Mof_H 	H 	0.8095	0.0506	0.17797	-0.05
Mof_C 	C 	0.8796	0.0809	0.20096	-0.33
Mof_C 	C 	0.8996	0.0703	0.22394	0.208
Mof_H 	H 	0.9395	0.0986	0.22987	-0.052
Mof_C 	C 	0.8583	0.0169	0.23731	-0.298
Mof_H 	H 	0.8705	0.0073	0.25187	0.123
Mof_C 	C 	0.9242	0.1378	0.18689	0.64
Mof_C 	C 	0.5737	0.6946	0.33333	0.308
Mof_C 	C 	0.5765	0.6596	0.37479	0.258
Mof_C 	C 	0.6396	0.6951	0.37922	-0.313
Mof_H 	H 	0.667	0.7186	0.36677	0.157
Mof_C 	C 	0.6636	0.6968	0.40186	0.224
Mof_H 	H 	0.7068	0.7211	0.40457	-0.049
Mof_C 	C 	0.6233	0.662	0.42083	-0.3
Mof_C 	C 	0.5604	0.6252	0.41657	0.203
Mof_H 	H 	0.5341	0.6002	0.42897	-0.04
Mof_C 	C 	0.534	0.6238	0.39377	-0.282
Mof_H 	H 	0.4906	0.6005	0.39117	0.12
Mof_C 	C 	0.6493	0.6644	0.44549	0.598
Mof_In	In	0.22151	0.95051	0.85855	2.652
Mof_O 	O 	0.2365	0.871	0.85873	-0.755
Mof_O 	O 	0.3316	0.9002	0.84201	-0.692
Mof_O 	O 	0.2448	0.0976	0.83374	-0.743
Mof_O 	O 	0.2031	0.0253	0.86312	-0.797
Mof_O 	O 	0.0229	0.3891	0.12823	-0.687
Mof_O 	O 	0.9914	0.2908	0.11287	-0.719
Mof_O 	O 	0.211	0.3368	0.89	-0.272
Mof_O 	O 	0.1929	0.6033	0.91433	-0.27
Mof_O 	O 	0.1084	0.3704	0.99946	-0.273
Mof_N 	N 	0.2613	0.633	0.88266	-0.279
Mof_H 	H 	0.2839	0.6219	0.87443	0.133
Mof_N 	N 	0.2352	0.5415	0.90286	-0.291
Mof_H 	H 	0.2563	0.5372	0.89133	0.136
Mof_N 	N 	0.1748	0.2433	0.91041	-0.281
Mof_H 	H 	0.1614	0.2273	0.92443	0.133
Mof_N 	N 	0.1653	0.323	0.92809	-0.277
Mof_H 	H 	0.1457	0.296	0.93933	0.135
Mof_N 	N 	0.1477	0.4669	0.98119	-0.29
Mof_H 	H 	0.1526	0.504	0.98303	0.137
Mof_N 	N 	0.1091	0.453	0.01925	-0.284
Mof_H 	H 	0.1185	0.4919	0.01773	0.132
Mof_C 	C 	0.2808	0.8623	0.85242	0.618
Mof_C 	C 	0.2726	0.7997	0.85948	-0.304
Mof_C 	C 	0.3206	0.7881	0.85411	0.198
Mof_H 	H 	0.355	0.8174	0.84513	-0.039
Mof_C 	C 	0.3185	0.732	0.86215	-0.277
Mof_H 	H 	0.3508	0.7234	0.85883	0.12
Mof_C 	C 	0.2641	0.6897	0.87555	0.246
Mof_C 	C 	0.216	0.7014	0.88114	-0.284
Mof_H 	H 	0.1807	0.672	0.88963	0.148
Mof_C 	C 	0.2216	0.7602	0.87346	0.204
Mof_H 	H 	0.1916	0.7712	0.87783	-0.046
Mof_C 	C 	0.2268	0.5932	0.90117	0.305
Mof_C 	C 	0.214	0.4956	0.92059	0.297
Mof_C 	C 	0.2046	0.4364	0.91387	-0.34
Mof_H 	H 	0.2169	0.4303	0.89873	0.167
Mof_C 	C 	0.1761	0.386	0.93043	0.278
Mof_C 	C 	0.1572	0.3938	0.95313	-0.328
Mof_H 	H 	0.1381	0.3604	0.96393	0.166
Mof_C 	C 	0.1684	0.4557	0.95919	0.286
Mof_C 	C 	0.1958	0.5055	0.94313	-0.35
Mof_H 	H 	0.2019	0.545	0.94733	0.167
Mof_C 	C 	0.1863	0.3045	0.90762	0.299
Mof_C 	C 	0.1814	0.2037	0.89435	0.262
Mof_C 	C 	0.2118	0.2234	0.87236	-0.32
Mof_H 	H 	0.2255	0.2637	0.86643	0.16
Mof_C 	C 	0.2207	0.1788	0.85951	0.245
Mof_H 	H 	0.2411	0.1905	0.84463	-0.054
Mof_C 	C 	0.2013	0.1204	0.86762	-0.335
Mof_C 	C 	0.1707	0.1004	0.8906	0.208
Mof_H 	H 	0.1591	0.0605	0.89653	-0.055
Mof_C 	C 	0.1586	0.1417	0.90397	-0.293
Mof_H 	H 	0.1368	0.1295	0.91853	0.121
Mof_C 	C 	0.2136	0.0758	0.85355	0.642
Mof_C 	C 	0.1209	0.4263	0.99999	0.308
Mof_C 	C 	0.0831	0.4235	0.04145	0.257
Mof_C 	C 	0.0555	0.3604	0.04588	-0.312
Mof_H 	H 	0.0516	0.333	0.03343	0.156
Mof_C 	C 	0.0332	0.3364	0.06852	0.221
Mof_H 	H 	0.0143	0.2932	0.07123	-0.051
Mof_C 	C 	0.0387	0.3767	0.08749	-0.298
Mof_C 	C 	0.0648	0.4396	0.08323	0.201
Mof_H 	H 	0.0661	0.4659	0.09563	-0.039
Mof_C 	C 	0.0898	0.466	0.06043	-0.28
Mof_H 	H 	0.1099	0.5094	0.05783	0.12
Mof_C 	C 	0.0151	0.3507	0.11215	0.588
Mof_In	In	0.62836	0.62836	0.5	2.283
Mof_O 	O 	0.7155	0.7155	0.5	-1.34
Mof_In	In	0.37164	-2.81985e-32	0.83333	2.266
Mof_O 	O 	0.2845	-2.81985e-32	0.83333	-1.342
Mof_In	In	1.71259e-17	0.37164	0.16667	2.266
Mof_O 	O 	-1.46228e-17	0.2845	0.16667	-1.342
_end
