# CIF file generated by openbabel 3.1.0, see https://openbabel.org
data_I
_chemical_name_common 'image0'
_cell_length_a 10.98
_cell_length_b 13.029
_cell_length_c 13.599
_cell_angle_alpha 62.312
_cell_angle_beta 70.921
_cell_angle_gamma 72.954
_space_group_name_H-M_alt 'P 1'
_space_group_name_Hall 'P 1'
loop_
    _symmetry_equiv_pos_as_xyz
    x,y,z
loop_
    _atom_site_label
    _atom_site_type_symbol
    _atom_site_fract_x
    _atom_site_fract_y
    _atom_site_fract_z
    _atom_site_occupancy
    Zn1      Zn       0.88754    0.47444    0.64676    1.000
    U1       U        0.57353    0.37904    0.14296    1.000
    U2       U        0.67639    0.89669    0.47709    1.000
    U3       U        0.67482    0.37505    0.51718    1.000
    P1       P        0.71260    0.37370    0.90260    1.000
    P2       P        0.67540    0.16060    0.40570    1.000
    P3       P        0.61950    0.59540    0.58010    1.000
    P4       P        0.98770    0.70190    0.46570    1.000
    O1       O        0.66410    0.29360    0.86920    1.000
    O2       O        0.82590    0.42570    0.81090    1.000
    O3       O        0.59700    0.46380    0.92870    1.000
    O4       O        0.74590    0.29480    0.01970    1.000
    O5       O        0.55430    0.09770    0.45990    1.000
    O6       O        0.78910    0.05640    0.41730    1.000
    O7       O        0.68140    0.23840    0.28120    1.000
    O8       O        0.67310    0.22620    0.47270    1.000
    O9       O        0.73910    0.49290    0.58490    1.000
    O10      O        0.53490    0.56600    0.52950    1.000
    O11      O        0.66200    0.71380    0.49660    1.000
    O12      O        0.55740    0.59310    0.69720    1.000
    O13      O        0.94540    0.62260    0.59380    1.000
    O14      O        0.12620    0.72480    0.44320    1.000
    O15      O        0.98290    0.64240    0.39370    1.000
    O16      O        0.89340    0.81890    0.43710    1.000
    Zn2      Zn       0.11246    0.52556    0.35324    1.000
    U4       U        0.42647    0.62096    0.85704    1.000
    U5       U        0.32361    0.10331    0.52291    1.000
    U6       U        0.32518    0.62495    0.48282    1.000
    P5       P        0.28740    0.62630    0.09740    1.000
    P6       P        0.32460    0.83940    0.59430    1.000
    P7       P        0.38050    0.40460    0.41990    1.000
    P8       P        0.01230    0.29810    0.53430    1.000
    O17      O        0.33590    0.70640    0.13080    1.000
    O18      O        0.17410    0.57430    0.18910    1.000
    O19      O        0.40300    0.53620    0.07130    1.000
    O20      O        0.25410    0.70520    0.98030    1.000
    O21      O        0.44570    0.90230    0.54010    1.000
    O22      O        0.21090    0.94360    0.58270    1.000
    O23      O        0.31860    0.76160    0.71880    1.000
    O24      O        0.32690    0.77380    0.52730    1.000
    O25      O        0.26090    0.50710    0.41510    1.000
    O26      O        0.46510    0.43400    0.47050    1.000
    O27      O        0.33800    0.28620    0.50340    1.000
    O28      O        0.44260    0.40690    0.30280    1.000
    O29      O        0.05460    0.37740    0.40620    1.000
    O30      O        0.87380    0.27520    0.55680    1.000
    O31      O        0.01710    0.35760    0.60630    1.000
    O32      O        0.10660    0.18110    0.56290    1.000
