data_functionalizedCrystal
_audit_creation_method	'EQeq! by Chris Wilmer'
_symmetry_space_group_name_H-M	'P1'
_symmetry_Int_Tables_number	1
_symmetry_cell_setting	triclinic
loop_
_symmetry_equiv_pos_as_xyz
  x,y,z
_cell_length_a	9.1741
_cell_length_b	9.3387
_cell_length_c	17.7642
_cell_angle_alpha	83.75
_cell_angle_beta	72.724
_cell_angle_gamma	86.44
loop_
_atom_site_label
_atom_site_type_symbol
_atom_site_fract_x
_atom_site_fract_y
_atom_site_fract_z
_atom_site_charge
Mof_C 	C 	0.6695	0.2054	0.8264	0.349
Mof_C 	C 	0.5659	0.2371	0.9167	-0.117
Mof_H 	H 	0.522	0.149	0.9467	0.05
Mof_H 	H 	0.6276	0.2774	0.9446	0.047
Mof_C 	C 	0.3402	0.3659	0.9872	-0.135
Mof_H 	H 	0.2864	0.2795	0.0132	0.006
Mof_H 	H 	0.3958	0.3975	0.0208	0.042
Mof_C 	C 	0.2298	0.4836	0.97	0.331
Mof_C 	C 	0.7118	0.6998	0.7703	0.427
Mof_C 	C 	0.611	0.811	0.7366	-0.127
Mof_H 	H 	0.5832	0.8905	0.7695	0.003
Mof_H 	H 	0.6676	0.8489	0.6836	-0.055
Mof_C 	C 	0.3954	0.838	0.6838	-0.128
Mof_H 	H 	0.4658	0.864	0.632	0.026
Mof_H 	H 	0.3558	0.9259	0.7082	0.009
Mof_C 	C 	0.265	0.7547	0.6753	0.342
Mof_C 	C 	0.2436	0.2327	0.7045	0.4
Mof_C 	C 	0.3719	0.2371	0.6185	-0.131
Mof_H 	H 	0.4265	0.1449	0.6114	0.026
Mof_H 	H 	0.3248	0.2597	0.5763	0.019
Mof_C 	C 	0.6023	0.3545	0.5424	-0.13
Mof_H 	H 	0.6615	0.2645	0.5373	-0.012
Mof_H 	H 	0.5642	0.3752	0.4968	0.04
Mof_C 	C 	0.6978	0.4749	0.5487	0.3
Mof_C 	C 	0.1571	0.8983	0.8847	0.051
Mof_N 	N 	0.065	0.8505	0.8622	-0.423
Mof_O 	O 	0.6382	0.2678	0.7584	-0.568
Mof_O 	O 	0.4493	0.3377	0.90554	-0.29
Mof_O 	O 	0.2441	0.5282	0.89058	-0.628
Mof_O 	O 	0.7802	0.1226	0.8255	-0.585
Mof_O 	O 	0.1338	0.5241	0.03665	-0.52
Mof_O 	O 	0.6583	0.5771	0.80007	-0.608
Mof_O 	O 	0.4773	0.7464	0.73407	-0.374
Mof_O 	O 	0.2571	0.6227	0.70251	-0.771
Mof_O 	O 	0.8425	0.7353	0.7645	-0.917
Mof_O 	O 	0.1731	0.8233	0.64066	-0.758
Mof_O 	O 	0.2579	0.3041	0.7646	-0.614
Mof_O 	O 	0.4718	0.3459	0.61825	-0.306
Mof_O 	O 	0.6537	0.542	0.61701	-0.52
Mof_O 	O 	0.133	0.1599	0.7106	-0.673
Mof_O 	O 	0.8132	0.5017	0.48482	-0.572
Mof_S 	S 	0.28425	0.9694	0.91944	-0.132
Mof_Pr	Pr	0.45383	0.47322	0.75633	2.389
Mof_Na	Na	0.02091	0.60233	0.83614	1.738
Mof_Na	Na	0.96443	0.97032	0.73585	2.011
Mof_Na	Na	0.02948	0.62731	0.62484	1.486
Mof_C 	C 	0.3305	0.7946	0.1736	0.35
Mof_C 	C 	0.4341	0.7629	0.0833	-0.116
Mof_H 	H 	0.478	0.851	0.0533	0.051
Mof_H 	H 	0.3724	0.7226	0.0554	0.048
Mof_C 	C 	0.6598	0.6341	0.0128	-0.135
Mof_H 	H 	0.7136	0.7205	0.9868	0.006
Mof_H 	H 	0.6042	0.6025	0.9792	0.042
Mof_C 	C 	0.7702	0.5164	0.03	0.331
Mof_C 	C 	0.2882	0.3002	0.2297	0.427
Mof_C 	C 	0.389	0.189	0.2634	-0.127
Mof_H 	H 	0.4168	0.1095	0.2305	0.003
Mof_H 	H 	0.3324	0.1511	0.3164	-0.055
Mof_C 	C 	0.6046	0.162	0.3162	-0.128
Mof_H 	H 	0.5342	0.136	0.368	0.026
Mof_H 	H 	0.6442	0.0741	0.2918	0.009
Mof_C 	C 	0.735	0.2453	0.3247	0.342
Mof_C 	C 	0.7564	0.7673	0.2955	0.4
Mof_C 	C 	0.6281	0.7629	0.3815	-0.131
Mof_H 	H 	0.5735	0.8551	0.3886	0.026
Mof_H 	H 	0.6752	0.7403	0.4237	0.019
Mof_C 	C 	0.3977	0.6455	0.4576	-0.13
Mof_H 	H 	0.3385	0.7355	0.4627	-0.012
Mof_H 	H 	0.4358	0.6248	0.5032	0.04
Mof_C 	C 	0.3022	0.5251	0.4513	0.3
Mof_C 	C 	0.8429	0.1017	0.1153	0.051
Mof_N 	N 	0.935	0.1495	0.1378	-0.423
Mof_O 	O 	0.3618	0.7322	0.2416	-0.568
Mof_O 	O 	0.5507	0.6623	0.09446	-0.29
Mof_O 	O 	0.7559	0.4718	0.10942	-0.628
Mof_O 	O 	0.2198	0.8774	0.1745	-0.585
Mof_O 	O 	0.8662	0.4759	0.96335	-0.52
Mof_O 	O 	0.3417	0.4229	0.19993	-0.608
Mof_O 	O 	0.5227	0.2536	0.26593	-0.374
Mof_O 	O 	0.7429	0.3773	0.29749	-0.771
Mof_O 	O 	0.1575	0.2647	0.2355	-0.917
Mof_O 	O 	0.8269	0.1767	0.35934	-0.758
Mof_O 	O 	0.7421	0.6959	0.2354	-0.614
Mof_O 	O 	0.5282	0.6541	0.38175	-0.306
Mof_O 	O 	0.3463	0.458	0.38299	-0.52
Mof_O 	O 	0.867	0.8401	0.2894	-0.673
Mof_O 	O 	0.1868	0.4983	0.51518	-0.572
Mof_S 	S 	0.71575	0.0306	0.08056	-0.132
Mof_Pr	Pr	0.54617	0.52678	0.24367	2.389
Mof_Na	Na	0.97909	0.39767	0.16386	1.738
Mof_Na	Na	0.03557	0.02968	0.26415	2.011
Mof_Na	Na	0.97052	0.37269	0.37516	1.486
_end
