# CIF file generated by openbabel 3.1.0, see https://openbabel.org
data_I
_chemical_name_common 'image0'
_cell_length_a 26.179
_cell_length_b 26.179
_cell_length_c 6.652
_cell_angle_alpha 90
_cell_angle_beta 90
_cell_angle_gamma 120
_space_group_name_H-M_alt 'P 1'
_space_group_name_Hall 'P 1'
loop_
    _symmetry_equiv_pos_as_xyz
    x,y,z
loop_
    _atom_site_label
    _atom_site_type_symbol
    _atom_site_fract_x
    _atom_site_fract_y
    _atom_site_fract_z
    _atom_site_occupancy
    Zn1      Zn       0.38790    0.35068    0.15211    1.000
    C1       C        0.32290    0.20386    0.28779    1.000
    C2       C        0.34291    0.22040    0.09164    1.000
    C3       C        0.35335    0.18320    0.97052    1.000
    H1       H        0.36889    0.19605    0.81817    1.000
    C4       C        0.31168    0.24386    0.41805    1.000
    O1       O        0.32032    0.29230    0.35040    1.000
    O2       O        0.29364    0.22895    0.59490    1.000
    O3       O        0.35220    0.27243    0.01900    1.000
    Zn2      Zn       0.05457    0.68401    0.48544    1.000
    C5       C        0.98957    0.53719    0.62112    1.000
    C6       C        0.00958    0.55373    0.42497    1.000
    C7       C        0.02002    0.51653    0.30385    1.000
    H2       H        0.03556    0.52938    0.15150    1.000
    C8       C        0.97835    0.57719    0.75138    1.000
    O4       O        0.98699    0.62563    0.68373    1.000
    O5       O        0.96031    0.56228    0.92823    1.000
    O6       O        0.01887    0.60576    0.35233    1.000
    Zn3      Zn       0.72123    0.01735    0.81878    1.000
    C9       C        0.65623    0.87053    0.95446    1.000
    C10      C        0.67624    0.88707    0.75831    1.000
    C11      C        0.68668    0.84987    0.63719    1.000
    H3       H        0.70222    0.86272    0.48484    1.000
    C12      C        0.64501    0.91053    0.08472    1.000
    O7       O        0.65365    0.95897    0.01707    1.000
    O8       O        0.62697    0.89562    0.26157    1.000
    O9       O        0.68553    0.93910    0.68567    1.000
    Zn4      Zn       0.64932    0.03722    0.15211    1.000
    C13      C        0.79614    0.11904    0.28779    1.000
    C14      C        0.77960    0.12251    0.09164    1.000
    C15      C        0.81680    0.17015    0.97052    1.000
    H4       H        0.80395    0.17284    0.81817    1.000
    C16      C        0.75614    0.06782    0.41805    1.000
    O10      O        0.70770    0.02802    0.35040    1.000
    O11      O        0.77105    0.06469    0.59490    1.000
    O12      O        0.72757    0.07977    0.01900    1.000
    Zn5      Zn       0.31599    0.37055    0.48544    1.000
    C17      C        0.46281    0.45237    0.62112    1.000
    C18      C        0.44627    0.45584    0.42497    1.000
    C19      C        0.48347    0.50348    0.30385    1.000
    H5       H        0.47062    0.50617    0.15150    1.000
    C20      C        0.42281    0.40115    0.75138    1.000
    O13      O        0.37437    0.36135    0.68373    1.000
    O14      O        0.43772    0.39802    0.92823    1.000
    O15      O        0.39424    0.41310    0.35233    1.000
    Zn6      Zn       0.98265    0.70389    0.81878    1.000
    C21      C        0.12947    0.78571    0.95446    1.000
    C22      C        0.11293    0.78918    0.75831    1.000
    C23      C        0.15013    0.83682    0.63719    1.000
    H6       H        0.13728    0.83951    0.48484    1.000
    C24      C        0.08947    0.73449    0.08472    1.000
    O16      O        0.04103    0.69469    0.01707    1.000
    O17      O        0.10438    0.73136    0.26157    1.000
    O18      O        0.06090    0.74644    0.68567    1.000
    Zn7      Zn       0.96278    0.61210    0.15211    1.000
    C25      C        0.88096    0.67710    0.28779    1.000
    C26      C        0.87749    0.65709    0.09164    1.000
    C27      C        0.82985    0.64665    0.97052    1.000
    H7       H        0.82716    0.63111    0.81817    1.000
    C28      C        0.93218    0.68832    0.41805    1.000
    O19      O        0.97198    0.67968    0.35040    1.000
    O20      O        0.93531    0.70636    0.59490    1.000
    O21      O        0.92023    0.64780    0.01900    1.000
    Zn8      Zn       0.62945    0.94543    0.48544    1.000
    C29      C        0.54763    0.01043    0.62112    1.000
    C30      C        0.54416    0.99042    0.42497    1.000
    C31      C        0.49652    0.97998    0.30385    1.000
    H8       H        0.49383    0.96444    0.15150    1.000
    C32      C        0.59885    0.02165    0.75138    1.000
    O22      O        0.63865    0.01301    0.68373    1.000
    O23      O        0.60198    0.03969    0.92823    1.000
    O24      O        0.58690    0.98113    0.35233    1.000
    Zn9      Zn       0.29611    0.27877    0.81878    1.000
    C33      C        0.21429    0.34377    0.95446    1.000
    C34      C        0.21082    0.32376    0.75831    1.000
    C35      C        0.16318    0.31332    0.63719    1.000
    H9       H        0.16049    0.29778    0.48484    1.000
    C36      C        0.26551    0.35499    0.08472    1.000
    O25      O        0.30531    0.34635    0.01707    1.000
    O26      O        0.26864    0.37303    0.26157    1.000
    O27      O        0.25356    0.31447    0.68567    1.000
    Zn10     Zn       0.61210    0.64932    0.84789    1.000
    C37      C        0.67710    0.79614    0.71221    1.000
    C38      C        0.65709    0.77960    0.90836    1.000
    C39      C        0.64665    0.81680    0.02948    1.000
    H10      H        0.63111    0.80395    0.18183    1.000
    C40      C        0.68832    0.75614    0.58195    1.000
    O28      O        0.67968    0.70770    0.64960    1.000
    O29      O        0.70636    0.77105    0.40510    1.000
    O30      O        0.64780    0.72757    0.98100    1.000
    Zn11     Zn       0.27877    0.98265    0.18122    1.000
    C41      C        0.34377    0.12947    0.04554    1.000
    C42      C        0.32376    0.11293    0.24169    1.000
    C43      C        0.31332    0.15013    0.36281    1.000
    H11      H        0.29778    0.13728    0.51516    1.000
    C44      C        0.35499    0.08947    0.91528    1.000
    O31      O        0.34635    0.04103    0.98293    1.000
    O32      O        0.37303    0.10438    0.73843    1.000
    O33      O        0.31447    0.06090    0.31433    1.000
    Zn12     Zn       0.94543    0.31599    0.51456    1.000
    C45      C        0.01043    0.46281    0.37888    1.000
    C46      C        0.99042    0.44627    0.57503    1.000
    C47      C        0.97998    0.48347    0.69615    1.000
    H12      H        0.96444    0.47062    0.84850    1.000
    C48      C        0.02165    0.42281    0.24862    1.000
    O34      O        0.01301    0.37437    0.31627    1.000
    O35      O        0.03969    0.43772    0.07177    1.000
    O36      O        0.98113    0.39424    0.64767    1.000
    Zn13     Zn       0.35068    0.96278    0.84789    1.000
    C49      C        0.20386    0.88096    0.71221    1.000
    C50      C        0.22040    0.87749    0.90836    1.000
    C51      C        0.18320    0.82985    0.02948    1.000
    H13      H        0.19605    0.82716    0.18183    1.000
    C52      C        0.24386    0.93218    0.58195    1.000
    O37      O        0.29230    0.97198    0.64960    1.000
    O38      O        0.22895    0.93531    0.40510    1.000
    O39      O        0.27243    0.92023    0.98100    1.000
    Zn14     Zn       0.01735    0.29611    0.18122    1.000
    C53      C        0.87053    0.21429    0.04554    1.000
    C54      C        0.88707    0.21082    0.24169    1.000
    C55      C        0.84987    0.16318    0.36281    1.000
    H14      H        0.86272    0.16049    0.51516    1.000
    C56      C        0.91053    0.26551    0.91528    1.000
    O40      O        0.95897    0.30531    0.98293    1.000
    O41      O        0.89562    0.26864    0.73843    1.000
    O42      O        0.93910    0.25356    0.31433    1.000
    Zn15     Zn       0.68401    0.62945    0.51456    1.000
    C57      C        0.53719    0.54763    0.37888    1.000
    C58      C        0.55373    0.54416    0.57503    1.000
    C59      C        0.51653    0.49652    0.69615    1.000
    H15      H        0.52938    0.49383    0.84850    1.000
    C60      C        0.57719    0.59885    0.24862    1.000
    O43      O        0.62563    0.63865    0.31627    1.000
    O44      O        0.56228    0.60198    0.07177    1.000
    O45      O        0.60576    0.58690    0.64767    1.000
    Zn16     Zn       0.03722    0.38790    0.84789    1.000
    C61      C        0.11904    0.32290    0.71221    1.000
    C62      C        0.12251    0.34291    0.90836    1.000
    C63      C        0.17015    0.35335    0.02948    1.000
    H16      H        0.17284    0.36889    0.18183    1.000
    C64      C        0.06782    0.31168    0.58195    1.000
    O46      O        0.02802    0.32032    0.64960    1.000
    O47      O        0.06469    0.29364    0.40510    1.000
    O48      O        0.07977    0.35220    0.98100    1.000
    Zn17     Zn       0.70389    0.72123    0.18122    1.000
    C65      C        0.78571    0.65623    0.04554    1.000
    C66      C        0.78918    0.67624    0.24169    1.000
    C67      C        0.83682    0.68668    0.36281    1.000
    H17      H        0.83951    0.70222    0.51516    1.000
    C68      C        0.73449    0.64501    0.91528    1.000
    O49      O        0.69469    0.65365    0.98293    1.000
    O50      O        0.73136    0.62697    0.73843    1.000
    O51      O        0.74644    0.68553    0.31433    1.000
    Zn18     Zn       0.37055    0.05457    0.51456    1.000
    C69      C        0.45237    0.98957    0.37888    1.000
    C70      C        0.45584    0.00958    0.57503    1.000
    C71      C        0.50348    0.02002    0.69615    1.000
    H18      H        0.50617    0.03556    0.84850    1.000
    C72      C        0.40115    0.97835    0.24862    1.000
    O52      O        0.36135    0.98699    0.31627    1.000
    O53      O        0.39802    0.96031    0.07177    1.000
    O54      O        0.41310    0.01887    0.64767    1.000
