# CIF file generated by openbabel 3.1.0, see https://openbabel.org
data_I
_chemical_name_common 'NABCIE_clean'
_cell_length_a 8.3837
_cell_length_b 8.3837
_cell_length_c 16.8473
_cell_angle_alpha 90
_cell_angle_beta 90
_cell_angle_gamma 90
_space_group_name_H-M_alt 'P 1'
_space_group_name_Hall 'P 1'
loop_
    _symmetry_equiv_pos_as_xyz
    x,y,z
loop_
    _atom_site_label
    _atom_site_type_symbol
    _atom_site_fract_x
    _atom_site_fract_y
    _atom_site_fract_z
    _atom_site_occupancy
    Co1      Co       0.50000    0.50000    0.75000    1.000
    Co2      Co       0.50000    0.50000    0.25000    1.000
    H1       H        0.53850    0.31140    0.91100    1.000
    H2       H        0.39120    0.17220    0.00280    1.000
    H3       H        0.99590    0.28720    0.87940    1.000
    H4       H        0.15480    0.42630    0.79220    1.000
    H5       H        0.10350    0.13210    0.06170    1.000
    H6       H        0.46150    0.68860    0.91100    1.000
    H7       H        0.60880    0.82780    0.00280    1.000
    H8       H        0.00410    0.71280    0.87940    1.000
    H9       H        0.84520    0.57370    0.79220    1.000
    H10      H        0.89650    0.86790    0.06170    1.000
    H11      H        0.31140    0.46150    0.08900    1.000
    H12      H        0.17220    0.60880    0.99720    1.000
    H13      H        0.28720    0.00410    0.12060    1.000
    H14      H        0.42630    0.84520    0.20780    1.000
    H15      H        0.13210    0.89650    0.93830    1.000
    H16      H        0.68860    0.53850    0.08900    1.000
    H17      H        0.82780    0.39120    0.99720    1.000
    H18      H        0.71280    0.99590    0.12060    1.000
    H19      H        0.57370    0.15480    0.20780    1.000
    H20      H        0.86790    0.10350    0.93830    1.000
    H21      H        0.53850    0.68860    0.41100    1.000
    H22      H        0.39120    0.82780    0.50280    1.000
    H23      H        0.99590    0.71280    0.37940    1.000
    H24      H        0.15480    0.57370    0.29220    1.000
    H25      H        0.10350    0.86790    0.56170    1.000
    H26      H        0.46150    0.31140    0.41100    1.000
    H27      H        0.60880    0.17220    0.50280    1.000
    H28      H        0.00410    0.28720    0.37940    1.000
    H29      H        0.84520    0.42630    0.29220    1.000
    H30      H        0.89650    0.13210    0.56170    1.000
    H31      H        0.31140    0.53850    0.58900    1.000
    H32      H        0.17220    0.39120    0.49720    1.000
    H33      H        0.28720    0.99590    0.62060    1.000
    H34      H        0.42630    0.15480    0.70780    1.000
    H35      H        0.13210    0.10350    0.43830    1.000
    H36      H        0.68860    0.46150    0.58900    1.000
    H37      H        0.82780    0.60880    0.49720    1.000
    H38      H        0.71280    0.00410    0.62060    1.000
    H39      H        0.57370    0.84520    0.70780    1.000
    H40      H        0.86790    0.89650    0.43830    1.000
    C1       C        0.42730    0.30550    0.90430    1.000
    C2       C        0.33981    0.22100    0.95959    1.000
    C3       C        0.17400    0.20823    0.95096    1.000
    C4       C        0.10698    0.28900    0.88706    1.000
    C5       C        0.20330    0.37220    0.83473    1.000
    C6       C        0.08071    0.10296    0.00590    1.000
    C7       C        0.57270    0.69450    0.90430    1.000
    C8       C        0.66019    0.77900    0.95959    1.000
    C9       C        0.82600    0.79177    0.95096    1.000
    C10      C        0.89302    0.71100    0.88706    1.000
    C11      C        0.79670    0.62780    0.83473    1.000
    C12      C        0.91929    0.89704    0.00590    1.000
    C13      C        0.30550    0.57270    0.09570    1.000
    C14      C        0.22100    0.66019    0.04041    1.000
    C15      C        0.20823    0.82600    0.04904    1.000
    C16      C        0.28900    0.89302    0.11294    1.000
    C17      C        0.37220    0.79670    0.16527    1.000
    C18      C        0.10296    0.91929    0.99410    1.000
    C19      C        0.69450    0.42730    0.09570    1.000
    C20      C        0.77900    0.33981    0.04041    1.000
    C21      C        0.79177    0.17400    0.04904    1.000
    C22      C        0.71100    0.10698    0.11294    1.000
    C23      C        0.62780    0.20330    0.16527    1.000
    C24      C        0.89704    0.08071    0.99410    1.000
    C25      C        0.42730    0.69450    0.40430    1.000
    C26      C        0.33981    0.77900    0.45959    1.000
    C27      C        0.17400    0.79177    0.45096    1.000
    C28      C        0.10698    0.71100    0.38706    1.000
    C29      C        0.20330    0.62780    0.33473    1.000
    C30      C        0.08071    0.89704    0.50590    1.000
    C31      C        0.57270    0.30550    0.40430    1.000
    C32      C        0.66019    0.22100    0.45959    1.000
    C33      C        0.82600    0.20823    0.45096    1.000
    C34      C        0.89302    0.28900    0.38706    1.000
    C35      C        0.79670    0.37220    0.33473    1.000
    C36      C        0.91929    0.10296    0.50590    1.000
    C37      C        0.30550    0.42730    0.59570    1.000
    C38      C        0.22100    0.33981    0.54041    1.000
    C39      C        0.20823    0.17400    0.54904    1.000
    C40      C        0.28900    0.10698    0.61294    1.000
    C41      C        0.37220    0.20330    0.66527    1.000
    C42      C        0.10296    0.08071    0.49410    1.000
    C43      C        0.69450    0.57270    0.59570    1.000
    C44      C        0.77900    0.66019    0.54041    1.000
    C45      C        0.79177    0.82600    0.54904    1.000
    C46      C        0.71100    0.89302    0.61294    1.000
    C47      C        0.62780    0.79670    0.66527    1.000
    C48      C        0.89704    0.91929    0.49410    1.000
    N1       N        0.36241    0.37952    0.84177    1.000
    N2       N        0.63759    0.62048    0.84177    1.000
    N3       N        0.37952    0.63759    0.15823    1.000
    N4       N        0.62048    0.36241    0.15823    1.000
    N5       N        0.36241    0.62048    0.34177    1.000
    N6       N        0.63759    0.37952    0.34177    1.000
    N7       N        0.37952    0.36241    0.65823    1.000
    N8       N        0.62048    0.63759    0.65823    1.000
    F1       F        0.33254    0.66746    0.75000    1.000
    F2       F        0.66746    0.33254    0.75000    1.000
    F3       F        0.66746    0.66746    0.25000    1.000
    F4       F        0.33254    0.33254    0.25000    1.000
