data_functionalizedCrystal
_audit_creation_method	'EQeq! by Chris Wilmer'
_symmetry_space_group_name_H-M	'P1'
_symmetry_Int_Tables_number	1
_symmetry_cell_setting	triclinic
loop_
_symmetry_equiv_pos_as_xyz
  x,y,z
_cell_length_a	36.061
_cell_length_b	18.233
_cell_length_c	25.146
_cell_angle_alpha	90
_cell_angle_beta	121.237
_cell_angle_gamma	90
loop_
_atom_site_label
_atom_site_type_symbol
_atom_site_fract_x
_atom_site_fract_y
_atom_site_fract_z
_atom_site_charge
Mof_Cd	Cd	0.20928	0.87224	0.30717	0.504
Mof_Cd	Cd	0.31805	0.86042	0.32623	0.456
Mof_Cd	Cd	0.3228	0.9276	0.45771	0.419
Mof_O 	O 	0.21725	0.9883	0.2751	-0.259
Mof_O 	O 	0.28083	0.9474	0.34769	-0.307
Mof_O 	O 	0.20204	0.2532	0.224	-0.269
Mof_O 	O 	0.2585	0.3218	0.24917	-0.285
Mof_O 	O 	0.62286	0.0666	0.5636	-0.304
Mof_O 	O 	0.61153	0.1553	0.6133	-0.283
Mof_O 	O 	0.28122	0.8902	0.4937	-0.277
Mof_O 	O 	0.22533	0.9246	0.4009	-0.265
Mof_O 	O 	0.25639	0.727	0.62969	-0.273
Mof_O 	O 	0.18866	0.6871	0.5922	-0.29
Mof_O 	O 	0.86425	0.9133	0.2233	-0.265
Mof_O 	O 	0.85329	0.8153	0.259	-0.281
Mof_C 	C 	0.27676	0.0711	0.314	-0.062
Mof_C 	C 	0.25148	0.1305	0.2817	0.003
Mof_H 	H 	0.2215	0.1254	0.257	0.067
Mof_C 	C 	0.27073	0.1984	0.2861	-0.054
Mof_C 	C 	0.31527	0.205	0.3217	-0.031
Mof_H 	H 	0.328	0.25	0.3235	0.069
Mof_C 	C 	0.34149	0.1464	0.3547	-0.006
Mof_C 	C 	0.32172	0.0795	0.3497	-0.035
Mof_H 	H 	0.3389	0.039	0.3706	0.057
Mof_C 	C 	0.25653	0.998	0.3112	0.303
Mof_C 	C 	0.24251	0.2626	0.2514	0.307
Mof_C 	C 	0.38931	0.1523	0.3958	0.073
Mof_C 	C 	0.40727	0.2097	0.4391	-0.101
Mof_H 	H 	0.3893	0.2457	0.44	0.074
Mof_C 	C 	0.45061	0.2128	0.4797	-0.009
Mof_H 	H 	0.4619	0.2513	0.5081	0.041
Mof_C 	C 	0.47889	0.1602	0.4802	-0.029
Mof_C 	C 	0.52437	0.1606	0.5237	-0.014
Mof_H 	H 	0.5361	0.1964	0.5545	0.055
Mof_C 	C 	0.55082	0.1103	0.5212	-0.09
Mof_C 	C 	0.5338	0.0566	0.4753	0.033
Mof_H 	H 	0.5523	0.0228	0.4732	0.03
Mof_C 	C 	0.4895	0.0527	0.4325	-0.13
Mof_H 	H 	0.4785	0.0159	0.4026	0.082
Mof_C 	C 	0.46141	0.1048	0.4345	0.089
Mof_C 	C 	0.41611	0.1014	0.3939	-0.148
Mof_H 	H 	0.4043	0.0634	0.3652	0.089
Mof_C 	C 	0.59853	0.1108	0.569	0.315
Mof_C 	C 	0.21103	0.8621	0.4717	-0.054
Mof_C 	C 	0.22729	0.8178	0.5238	0.001
Mof_H 	H 	0.2571	0.811	0.5491	0.062
Mof_C 	C 	0.19963	0.7835	0.5386	-0.055
Mof_C 	C 	0.15538	0.796	0.5022	-0.028
Mof_H 	H 	0.1368	0.7735	0.5125	0.056
Mof_C 	C 	0.13801	0.8425	0.4497	-0.007
Mof_C 	C 	0.16657	0.8732	0.4344	-0.032
Mof_H 	H 	0.1557	0.9016	0.3986	0.067
Mof_C 	C 	0.24052	0.895	0.4533	0.295
Mof_C 	C 	0.2167	0.7294	0.592	0.312
Mof_C 	C 	0.09022	0.8551	0.4104	0.073
Mof_C 	C 	0.0612	0.808	0.4083	-0.144
Mof_H 	H 	0.0712	0.7652	0.4317	0.086
Mof_C 	C 	0.01575	0.8203	0.3718	0.089
Mof_C 	C 	0.9856	0.767	0.3681	-0.123
Mof_H 	H 	0.9954	0.7224	0.3888	0.081
Mof_C 	C 	0.942	0.7819	0.3338	0.031
Mof_H 	H 	0.9223	0.7481	0.3329	0.039
Mof_C 	C 	0.92641	0.849	0.2992	-0.083
Mof_C 	C 	0.95481	0.8953	0.2989	-0.008
Mof_H 	H 	0.9447	0.937	0.274	0.052
Mof_C 	C 	0.00025	0.8827	0.3356	-0.024
Mof_C 	C 	0.0307	0.9344	0.3382	-0.013
Mof_H 	H 	0.021	0.9774	0.3151	0.04
Mof_C 	C 	0.0746	0.9209	0.3752	-0.094
Mof_H 	H 	0.0943	0.9553	0.377	0.074
Mof_C 	C 	0.87843	0.8614	0.2589	0.326
Mof_Cd	Cd	0.70928	0.37224	0.30717	0.503
Mof_Cd	Cd	0.81805	0.36042	0.32623	0.455
Mof_Cd	Cd	0.8228	0.4276	0.45771	0.418
Mof_O 	O 	0.71725	0.4883	0.2751	-0.26
Mof_O 	O 	0.78083	0.4474	0.34769	-0.308
Mof_O 	O 	0.70204	0.7532	0.224	-0.27
Mof_O 	O 	0.7585	0.8218	0.24917	-0.286
Mof_O 	O 	0.12286	0.5666	0.5636	-0.305
Mof_O 	O 	0.11153	0.6553	0.6133	-0.284
Mof_O 	O 	0.78122	0.3902	0.4937	-0.278
Mof_O 	O 	0.72533	0.4246	0.4009	-0.266
Mof_O 	O 	0.75639	0.227	0.62969	-0.275
Mof_O 	O 	0.68866	0.1871	0.5922	-0.291
Mof_O 	O 	0.36425	0.4133	0.2233	-0.266
Mof_O 	O 	0.35329	0.3153	0.259	-0.282
Mof_C 	C 	0.77676	0.5711	0.314	-0.063
Mof_C 	C 	0.75148	0.6305	0.2817	0.002
Mof_H 	H 	0.7215	0.6254	0.257	0.066
Mof_C 	C 	0.77073	0.6984	0.2861	-0.054
Mof_C 	C 	0.81527	0.705	0.3217	-0.031
Mof_H 	H 	0.828	0.75	0.3235	0.069
Mof_C 	C 	0.84149	0.6464	0.3547	-0.006
Mof_C 	C 	0.82172	0.5795	0.3497	-0.035
Mof_H 	H 	0.8389	0.539	0.3706	0.057
Mof_C 	C 	0.75653	0.498	0.3112	0.303
Mof_C 	C 	0.74251	0.7626	0.2514	0.307
Mof_C 	C 	0.88931	0.6523	0.3958	0.073
Mof_C 	C 	0.90727	0.7097	0.4391	-0.101
Mof_H 	H 	0.8893	0.7457	0.44	0.074
Mof_C 	C 	0.95061	0.7128	0.4797	-0.009
Mof_H 	H 	0.9619	0.7513	0.5081	0.041
Mof_C 	C 	0.97889	0.6602	0.4802	-0.029
Mof_C 	C 	0.02437	0.6606	0.5237	-0.014
Mof_H 	H 	0.0361	0.6964	0.5545	0.055
Mof_C 	C 	0.05082	0.6103	0.5212	-0.09
Mof_C 	C 	0.0338	0.5566	0.4753	0.033
Mof_H 	H 	0.0523	0.5228	0.4732	0.03
Mof_C 	C 	0.9895	0.5527	0.4325	-0.13
Mof_H 	H 	0.9785	0.5159	0.4026	0.081
Mof_C 	C 	0.96141	0.6048	0.4345	0.089
Mof_C 	C 	0.91611	0.6014	0.3939	-0.148
Mof_H 	H 	0.9043	0.5634	0.3652	0.089
Mof_C 	C 	0.09853	0.6108	0.569	0.315
Mof_C 	C 	0.71103	0.3621	0.4717	-0.054
Mof_C 	C 	0.72729	0.3178	0.5238	0.001
Mof_H 	H 	0.7571	0.311	0.5491	0.062
Mof_C 	C 	0.69963	0.2835	0.5386	-0.055
Mof_C 	C 	0.65538	0.296	0.5022	-0.028
Mof_H 	H 	0.6368	0.2735	0.5125	0.056
Mof_C 	C 	0.63801	0.3425	0.4497	-0.007
Mof_C 	C 	0.66657	0.3732	0.4344	-0.032
Mof_H 	H 	0.6557	0.4016	0.3986	0.067
Mof_C 	C 	0.74052	0.395	0.4533	0.295
Mof_C 	C 	0.7167	0.2294	0.592	0.312
Mof_C 	C 	0.59022	0.3551	0.4104	0.073
Mof_C 	C 	0.5612	0.308	0.4083	-0.144
Mof_H 	H 	0.5712	0.2652	0.4317	0.086
Mof_C 	C 	0.51575	0.3203	0.3718	0.089
Mof_C 	C 	0.4856	0.267	0.3681	-0.123
Mof_H 	H 	0.4954	0.2224	0.3888	0.081
Mof_C 	C 	0.442	0.2819	0.3338	0.031
Mof_H 	H 	0.4223	0.2481	0.3329	0.039
Mof_C 	C 	0.42641	0.349	0.2992	-0.083
Mof_C 	C 	0.45481	0.3953	0.2989	-0.008
Mof_H 	H 	0.4447	0.437	0.274	0.052
Mof_C 	C 	0.50025	0.3827	0.3356	-0.024
Mof_C 	C 	0.5307	0.4344	0.3382	-0.013
Mof_H 	H 	0.521	0.4774	0.3151	0.04
Mof_C 	C 	0.5746	0.4209	0.3752	-0.094
Mof_H 	H 	0.5943	0.4553	0.377	0.074
Mof_C 	C 	0.37843	0.3614	0.2589	0.326
Mof_Cd	Cd	0.79072	0.87224	0.19283	0.503
Mof_Cd	Cd	0.68195	0.86042	0.17377	0.455
Mof_Cd	Cd	0.6772	0.9276	0.04229	0.418
Mof_O 	O 	0.78275	0.9883	0.2249	-0.26
Mof_O 	O 	0.71917	0.9474	0.15231	-0.308
Mof_O 	O 	0.79796	0.2532	0.276	-0.27
Mof_O 	O 	0.7415	0.3218	0.25083	-0.286
Mof_O 	O 	0.37714	0.0666	0.9364	-0.305
Mof_O 	O 	0.38847	0.1553	0.8867	-0.284
Mof_O 	O 	0.71878	0.8902	0.0063	-0.278
Mof_O 	O 	0.77467	0.9246	0.0991	-0.266
Mof_O 	O 	0.74361	0.727	0.87031	-0.274
Mof_O 	O 	0.81134	0.6871	0.9078	-0.291
Mof_O 	O 	0.13575	0.9133	0.2767	-0.266
Mof_O 	O 	0.14671	0.8153	0.241	-0.282
Mof_C 	C 	0.72324	0.0711	0.186	-0.063
Mof_C 	C 	0.74852	0.1305	0.2183	0.002
Mof_H 	H 	0.7785	0.1254	0.243	0.066
Mof_C 	C 	0.72927	0.1984	0.2139	-0.054
Mof_C 	C 	0.68473	0.205	0.1783	-0.031
Mof_H 	H 	0.672	0.25	0.1765	0.069
Mof_C 	C 	0.65851	0.1464	0.1453	-0.006
Mof_C 	C 	0.67828	0.0795	0.1503	-0.035
Mof_H 	H 	0.6611	0.039	0.1294	0.057
Mof_C 	C 	0.74347	0.998	0.1888	0.303
Mof_C 	C 	0.75749	0.2626	0.2486	0.307
Mof_C 	C 	0.61069	0.1523	0.1042	0.073
Mof_C 	C 	0.59273	0.2097	0.0609	-0.101
Mof_H 	H 	0.6107	0.2457	0.06	0.074
Mof_C 	C 	0.54939	0.2128	0.0203	-0.01
Mof_H 	H 	0.5381	0.2513	0.9919	0.041
Mof_C 	C 	0.52111	0.1602	0.0198	-0.029
Mof_C 	C 	0.47563	0.1606	0.9763	-0.014
Mof_H 	H 	0.4639	0.1964	0.9455	0.055
Mof_C 	C 	0.44918	0.1103	0.9788	-0.09
Mof_C 	C 	0.4662	0.0566	0.0247	0.032
Mof_H 	H 	0.4477	0.0228	0.0268	0.03
Mof_C 	C 	0.5105	0.0527	0.0675	-0.13
Mof_H 	H 	0.5215	0.0159	0.0974	0.081
Mof_C 	C 	0.53859	0.1048	0.0655	0.089
Mof_C 	C 	0.58389	0.1014	0.1061	-0.148
Mof_H 	H 	0.5957	0.0634	0.1348	0.089
Mof_C 	C 	0.40147	0.1108	0.931	0.315
Mof_C 	C 	0.78897	0.8621	0.0283	-0.053
Mof_C 	C 	0.77271	0.8178	0.9762	0
Mof_H 	H 	0.7429	0.811	0.9509	0.062
Mof_C 	C 	0.80037	0.7835	0.9614	-0.055
Mof_C 	C 	0.84462	0.796	0.9978	-0.028
Mof_H 	H 	0.8632	0.7735	0.9875	0.056
Mof_C 	C 	0.86199	0.8425	0.0503	-0.007
Mof_C 	C 	0.83343	0.8732	0.0656	-0.032
Mof_H 	H 	0.8443	0.9016	0.1014	0.067
Mof_C 	C 	0.75948	0.895	0.0467	0.295
Mof_C 	C 	0.7833	0.7294	0.908	0.312
Mof_C 	C 	0.90978	0.8551	0.0896	0.073
Mof_C 	C 	0.9388	0.808	0.0917	-0.144
Mof_H 	H 	0.9288	0.7652	0.0683	0.086
Mof_C 	C 	0.98425	0.8203	0.1282	0.088
Mof_C 	C 	0.0144	0.767	0.1319	-0.123
Mof_H 	H 	0.0046	0.7224	0.1112	0.081
Mof_C 	C 	0.058	0.7819	0.1662	0.031
Mof_H 	H 	0.0777	0.7481	0.1671	0.039
Mof_C 	C 	0.07359	0.849	0.2008	-0.083
Mof_C 	C 	0.04519	0.8953	0.2011	-0.008
Mof_H 	H 	0.0553	0.937	0.226	0.052
Mof_C 	C 	0.99975	0.8827	0.1644	-0.024
Mof_C 	C 	0.9693	0.9344	0.1618	-0.013
Mof_H 	H 	0.979	0.9774	0.1849	0.04
Mof_C 	C 	0.9254	0.9209	0.1248	-0.094
Mof_H 	H 	0.9057	0.9553	0.123	0.074
Mof_C 	C 	0.12157	0.8614	0.2411	0.326
Mof_Cd	Cd	0.29072	0.37224	0.19283	0.503
Mof_Cd	Cd	0.18195	0.36042	0.17377	0.455
Mof_Cd	Cd	0.1772	0.4276	0.04229	0.418
Mof_O 	O 	0.28275	0.4883	0.2249	-0.26
Mof_O 	O 	0.21917	0.4474	0.15231	-0.308
Mof_O 	O 	0.29796	0.7532	0.276	-0.27
Mof_O 	O 	0.2415	0.8218	0.25083	-0.286
Mof_O 	O 	0.87714	0.5666	0.9364	-0.305
Mof_O 	O 	0.88847	0.6553	0.8867	-0.284
Mof_O 	O 	0.21878	0.3902	0.0063	-0.278
Mof_O 	O 	0.27467	0.4246	0.0991	-0.266
Mof_O 	O 	0.24361	0.227	0.87031	-0.275
Mof_O 	O 	0.31134	0.1871	0.9078	-0.291
Mof_O 	O 	0.63575	0.4133	0.2767	-0.266
Mof_O 	O 	0.64671	0.3153	0.241	-0.282
Mof_C 	C 	0.22324	0.5711	0.186	-0.063
Mof_C 	C 	0.24852	0.6305	0.2183	0.002
Mof_H 	H 	0.2785	0.6254	0.243	0.066
Mof_C 	C 	0.22927	0.6984	0.2139	-0.054
Mof_C 	C 	0.18473	0.705	0.1783	-0.031
Mof_H 	H 	0.172	0.75	0.1765	0.069
Mof_C 	C 	0.15851	0.6464	0.1453	-0.006
Mof_C 	C 	0.17828	0.5795	0.1503	-0.035
Mof_H 	H 	0.1611	0.539	0.1294	0.057
Mof_C 	C 	0.24347	0.498	0.1888	0.303
Mof_C 	C 	0.25749	0.7626	0.2486	0.307
Mof_C 	C 	0.11069	0.6523	0.1042	0.073
Mof_C 	C 	0.09273	0.7097	0.0609	-0.101
Mof_H 	H 	0.1107	0.7457	0.06	0.074
Mof_C 	C 	0.04939	0.7128	0.0203	-0.009
Mof_H 	H 	0.0381	0.7513	0.9919	0.04
Mof_C 	C 	0.02111	0.6602	0.0198	-0.029
Mof_C 	C 	0.97563	0.6606	0.9763	-0.014
Mof_H 	H 	0.9639	0.6964	0.9455	0.055
Mof_C 	C 	0.94918	0.6103	0.9788	-0.09
Mof_C 	C 	0.9662	0.5566	0.0247	0.032
Mof_H 	H 	0.9477	0.5228	0.0268	0.03
Mof_C 	C 	0.0105	0.5527	0.0675	-0.129
Mof_H 	H 	0.0215	0.5159	0.0974	0.081
Mof_C 	C 	0.03859	0.6048	0.0655	0.089
Mof_C 	C 	0.08389	0.6014	0.1061	-0.148
Mof_H 	H 	0.0957	0.5634	0.1348	0.089
Mof_C 	C 	0.90147	0.6108	0.931	0.315
Mof_C 	C 	0.28897	0.3621	0.0283	-0.054
Mof_C 	C 	0.27271	0.3178	0.9762	0.001
Mof_H 	H 	0.2429	0.311	0.9509	0.062
Mof_C 	C 	0.30037	0.2835	0.9614	-0.055
Mof_C 	C 	0.34462	0.296	0.9978	-0.028
Mof_H 	H 	0.3632	0.2735	0.9875	0.056
Mof_C 	C 	0.36199	0.3425	0.0503	-0.007
Mof_C 	C 	0.33343	0.3732	0.0656	-0.032
Mof_H 	H 	0.3443	0.4016	0.1014	0.067
Mof_C 	C 	0.25948	0.395	0.0467	0.295
Mof_C 	C 	0.2833	0.2294	0.908	0.312
Mof_C 	C 	0.40978	0.3551	0.0896	0.073
Mof_C 	C 	0.4388	0.308	0.0917	-0.144
Mof_H 	H 	0.4288	0.2652	0.0683	0.086
Mof_C 	C 	0.48425	0.3203	0.1282	0.089
Mof_C 	C 	0.5144	0.267	0.1319	-0.123
Mof_H 	H 	0.5046	0.2224	0.1112	0.081
Mof_C 	C 	0.558	0.2819	0.1662	0.031
Mof_H 	H 	0.5777	0.2481	0.1671	0.039
Mof_C 	C 	0.57359	0.349	0.2008	-0.083
Mof_C 	C 	0.54519	0.3953	0.2011	-0.008
Mof_H 	H 	0.5553	0.437	0.226	0.052
Mof_C 	C 	0.49975	0.3827	0.1644	-0.024
Mof_C 	C 	0.4693	0.4344	0.1618	-0.013
Mof_H 	H 	0.479	0.4774	0.1849	0.04
Mof_C 	C 	0.4254	0.4209	0.1248	-0.094
Mof_H 	H 	0.4057	0.4553	0.123	0.074
Mof_C 	C 	0.62157	0.3614	0.2411	0.326
Mof_Cd	Cd	0.79072	0.12776	0.69283	0.503
Mof_Cd	Cd	0.68195	0.13958	0.67377	0.455
Mof_Cd	Cd	0.6772	0.0724	0.54229	0.418
Mof_O 	O 	0.78275	0.0117	0.7249	-0.26
Mof_O 	O 	0.71917	0.0526	0.65231	-0.308
Mof_O 	O 	0.79796	0.7468	0.776	-0.27
Mof_O 	O 	0.7415	0.6782	0.75083	-0.286
Mof_O 	O 	0.37714	0.9334	0.4364	-0.305
Mof_O 	O 	0.38847	0.8447	0.3867	-0.284
Mof_O 	O 	0.71878	0.1098	0.5063	-0.278
Mof_O 	O 	0.77467	0.0754	0.5991	-0.266
Mof_O 	O 	0.74361	0.273	0.37031	-0.274
Mof_O 	O 	0.81134	0.3129	0.4078	-0.291
Mof_O 	O 	0.13575	0.0867	0.7767	-0.266
Mof_O 	O 	0.14671	0.1847	0.741	-0.282
Mof_C 	C 	0.72324	0.9289	0.686	-0.063
Mof_C 	C 	0.74852	0.8695	0.7183	0.002
Mof_H 	H 	0.7785	0.8746	0.743	0.066
Mof_C 	C 	0.72927	0.8016	0.7139	-0.054
Mof_C 	C 	0.68473	0.795	0.6783	-0.031
Mof_H 	H 	0.672	0.75	0.6765	0.069
Mof_C 	C 	0.65851	0.8536	0.6453	-0.006
Mof_C 	C 	0.67828	0.9205	0.6503	-0.035
Mof_H 	H 	0.6611	0.961	0.6294	0.057
Mof_C 	C 	0.74347	0.002	0.6888	0.303
Mof_C 	C 	0.75749	0.7374	0.7486	0.307
Mof_C 	C 	0.61069	0.8477	0.6042	0.073
Mof_C 	C 	0.59273	0.7903	0.5609	-0.101
Mof_H 	H 	0.6107	0.7543	0.56	0.074
Mof_C 	C 	0.54939	0.7872	0.5203	-0.009
Mof_H 	H 	0.5381	0.7487	0.4919	0.041
Mof_C 	C 	0.52111	0.8398	0.5198	-0.029
Mof_C 	C 	0.47563	0.8394	0.4763	-0.014
Mof_H 	H 	0.4639	0.8036	0.4455	0.055
Mof_C 	C 	0.44918	0.8897	0.4788	-0.09
Mof_C 	C 	0.4662	0.9434	0.5247	0.033
Mof_H 	H 	0.4477	0.9772	0.5268	0.03
Mof_C 	C 	0.5105	0.9473	0.5675	-0.13
Mof_H 	H 	0.5215	0.9841	0.5974	0.082
Mof_C 	C 	0.53859	0.8952	0.5655	0.089
Mof_C 	C 	0.58389	0.8986	0.6061	-0.148
Mof_H 	H 	0.5957	0.9366	0.6348	0.089
Mof_C 	C 	0.40147	0.8892	0.431	0.315
Mof_C 	C 	0.78897	0.1379	0.5283	-0.054
Mof_C 	C 	0.77271	0.1822	0.4762	0.001
Mof_H 	H 	0.7429	0.189	0.4509	0.062
Mof_C 	C 	0.80037	0.2165	0.4614	-0.055
Mof_C 	C 	0.84462	0.204	0.4978	-0.028
Mof_H 	H 	0.8632	0.2265	0.4875	0.056
Mof_C 	C 	0.86199	0.1575	0.5503	-0.007
Mof_C 	C 	0.83343	0.1268	0.5656	-0.032
Mof_H 	H 	0.8443	0.0984	0.6014	0.067
Mof_C 	C 	0.75948	0.105	0.5467	0.295
Mof_C 	C 	0.7833	0.2706	0.408	0.312
Mof_C 	C 	0.90978	0.1449	0.5896	0.073
Mof_C 	C 	0.9388	0.192	0.5917	-0.144
Mof_H 	H 	0.9288	0.2348	0.5683	0.086
Mof_C 	C 	0.98425	0.1797	0.6282	0.089
Mof_C 	C 	0.0144	0.233	0.6319	-0.123
Mof_H 	H 	0.0046	0.2776	0.6112	0.081
Mof_C 	C 	0.058	0.2181	0.6662	0.031
Mof_H 	H 	0.0777	0.2519	0.6671	0.039
Mof_C 	C 	0.07359	0.151	0.7008	-0.083
Mof_C 	C 	0.04519	0.1047	0.7011	-0.008
Mof_H 	H 	0.0553	0.063	0.726	0.052
Mof_C 	C 	0.99975	0.1173	0.6644	-0.024
Mof_C 	C 	0.9693	0.0656	0.6618	-0.013
Mof_H 	H 	0.979	0.0226	0.6849	0.04
Mof_C 	C 	0.9254	0.0791	0.6248	-0.094
Mof_H 	H 	0.9057	0.0447	0.623	0.074
Mof_C 	C 	0.12157	0.1386	0.7411	0.326
Mof_Cd	Cd	0.29072	0.62776	0.69283	0.503
Mof_Cd	Cd	0.18195	0.63958	0.67377	0.455
Mof_Cd	Cd	0.1772	0.5724	0.54229	0.418
Mof_O 	O 	0.28275	0.5117	0.7249	-0.26
Mof_O 	O 	0.21917	0.5526	0.65231	-0.308
Mof_O 	O 	0.29796	0.2468	0.776	-0.27
Mof_O 	O 	0.2415	0.1782	0.75083	-0.286
Mof_O 	O 	0.87714	0.4334	0.4364	-0.305
Mof_O 	O 	0.88847	0.3447	0.3867	-0.284
Mof_O 	O 	0.21878	0.6098	0.5063	-0.278
Mof_O 	O 	0.27467	0.5754	0.5991	-0.266
Mof_O 	O 	0.24361	0.773	0.37031	-0.275
Mof_O 	O 	0.31134	0.8129	0.4078	-0.291
Mof_O 	O 	0.63575	0.5867	0.7767	-0.266
Mof_O 	O 	0.64671	0.6847	0.741	-0.282
Mof_C 	C 	0.22324	0.4289	0.686	-0.063
Mof_C 	C 	0.24852	0.3695	0.7183	0.002
Mof_H 	H 	0.2785	0.3746	0.743	0.066
Mof_C 	C 	0.22927	0.3016	0.7139	-0.054
Mof_C 	C 	0.18473	0.295	0.6783	-0.031
Mof_H 	H 	0.172	0.25	0.6765	0.069
Mof_C 	C 	0.15851	0.3536	0.6453	-0.006
Mof_C 	C 	0.17828	0.4205	0.6503	-0.035
Mof_H 	H 	0.1611	0.461	0.6294	0.057
Mof_C 	C 	0.24347	0.502	0.6888	0.303
Mof_C 	C 	0.25749	0.2374	0.7486	0.307
Mof_C 	C 	0.11069	0.3477	0.6042	0.073
Mof_C 	C 	0.09273	0.2903	0.5609	-0.101
Mof_H 	H 	0.1107	0.2543	0.56	0.074
Mof_C 	C 	0.04939	0.2872	0.5203	-0.009
Mof_H 	H 	0.0381	0.2487	0.4919	0.041
Mof_C 	C 	0.02111	0.3398	0.5198	-0.029
Mof_C 	C 	0.97563	0.3394	0.4763	-0.014
Mof_H 	H 	0.9639	0.3036	0.4455	0.055
Mof_C 	C 	0.94918	0.3897	0.4788	-0.09
Mof_C 	C 	0.9662	0.4434	0.5247	0.033
Mof_H 	H 	0.9477	0.4772	0.5268	0.03
Mof_C 	C 	0.0105	0.4473	0.5675	-0.13
Mof_H 	H 	0.0215	0.4841	0.5974	0.081
Mof_C 	C 	0.03859	0.3952	0.5655	0.089
Mof_C 	C 	0.08389	0.3986	0.6061	-0.148
Mof_H 	H 	0.0957	0.4366	0.6348	0.089
Mof_C 	C 	0.90147	0.3892	0.431	0.315
Mof_C 	C 	0.28897	0.6379	0.5283	-0.054
Mof_C 	C 	0.27271	0.6822	0.4762	0.001
Mof_H 	H 	0.2429	0.689	0.4509	0.062
Mof_C 	C 	0.30037	0.7165	0.4614	-0.055
Mof_C 	C 	0.34462	0.704	0.4978	-0.028
Mof_H 	H 	0.3632	0.7265	0.4875	0.056
Mof_C 	C 	0.36199	0.6575	0.5503	-0.007
Mof_C 	C 	0.33343	0.6268	0.5656	-0.032
Mof_H 	H 	0.3443	0.5984	0.6014	0.067
Mof_C 	C 	0.25948	0.605	0.5467	0.295
Mof_C 	C 	0.2833	0.7706	0.408	0.312
Mof_C 	C 	0.40978	0.6449	0.5896	0.073
Mof_C 	C 	0.4388	0.692	0.5917	-0.144
Mof_H 	H 	0.4288	0.7348	0.5683	0.086
Mof_C 	C 	0.48425	0.6797	0.6282	0.089
Mof_C 	C 	0.5144	0.733	0.6319	-0.123
Mof_H 	H 	0.5046	0.7776	0.6112	0.081
Mof_C 	C 	0.558	0.7181	0.6662	0.031
Mof_H 	H 	0.5777	0.7519	0.6671	0.039
Mof_C 	C 	0.57359	0.651	0.7008	-0.083
Mof_C 	C 	0.54519	0.6047	0.7011	-0.008
Mof_H 	H 	0.5553	0.563	0.726	0.052
Mof_C 	C 	0.49975	0.6173	0.6644	-0.024
Mof_C 	C 	0.4693	0.5656	0.6618	-0.013
Mof_H 	H 	0.479	0.5226	0.6849	0.04
Mof_C 	C 	0.4254	0.5791	0.6248	-0.094
Mof_H 	H 	0.4057	0.5447	0.623	0.074
Mof_C 	C 	0.62157	0.6386	0.7411	0.326
Mof_Cd	Cd	0.20928	0.12776	0.80717	0.503
Mof_Cd	Cd	0.31805	0.13958	0.82623	0.455
Mof_Cd	Cd	0.3228	0.0724	0.95771	0.418
Mof_O 	O 	0.21725	0.0117	0.7751	-0.26
Mof_O 	O 	0.28083	0.0526	0.84769	-0.308
Mof_O 	O 	0.20204	0.7468	0.724	-0.27
Mof_O 	O 	0.2585	0.6782	0.74917	-0.286
Mof_O 	O 	0.62286	0.9334	0.0636	-0.305
Mof_O 	O 	0.61153	0.8447	0.1133	-0.284
Mof_O 	O 	0.28122	0.1098	0.9937	-0.278
Mof_O 	O 	0.22533	0.0754	0.9009	-0.266
Mof_O 	O 	0.25639	0.273	0.12969	-0.274
Mof_O 	O 	0.18866	0.3129	0.0922	-0.291
Mof_O 	O 	0.86425	0.0867	0.7233	-0.266
Mof_O 	O 	0.85329	0.1847	0.759	-0.282
Mof_C 	C 	0.27676	0.9289	0.814	-0.063
Mof_C 	C 	0.25148	0.8695	0.7817	0.002
Mof_H 	H 	0.2215	0.8746	0.757	0.066
Mof_C 	C 	0.27073	0.8016	0.7861	-0.054
Mof_C 	C 	0.31527	0.795	0.8217	-0.031
Mof_H 	H 	0.328	0.75	0.8235	0.069
Mof_C 	C 	0.34149	0.8536	0.8547	-0.006
Mof_C 	C 	0.32172	0.9205	0.8497	-0.035
Mof_H 	H 	0.3389	0.961	0.8706	0.057
Mof_C 	C 	0.25653	0.002	0.8112	0.303
Mof_C 	C 	0.24251	0.7374	0.7514	0.307
Mof_C 	C 	0.38931	0.8477	0.8958	0.073
Mof_C 	C 	0.40727	0.7903	0.9391	-0.101
Mof_H 	H 	0.3893	0.7543	0.94	0.074
Mof_C 	C 	0.45061	0.7872	0.9797	-0.01
Mof_H 	H 	0.4619	0.7487	0.0081	0.041
Mof_C 	C 	0.47889	0.8398	0.9802	-0.029
Mof_C 	C 	0.52437	0.8394	0.0237	-0.014
Mof_H 	H 	0.5361	0.8036	0.0545	0.055
Mof_C 	C 	0.55082	0.8897	0.0212	-0.09
Mof_C 	C 	0.5338	0.9434	0.9753	0.032
Mof_H 	H 	0.5523	0.9772	0.9732	0.03
Mof_C 	C 	0.4895	0.9473	0.9325	-0.13
Mof_H 	H 	0.4785	0.9841	0.9026	0.081
Mof_C 	C 	0.46141	0.8952	0.9345	0.089
Mof_C 	C 	0.41611	0.8986	0.8939	-0.148
Mof_H 	H 	0.4043	0.9366	0.8652	0.089
Mof_C 	C 	0.59853	0.8892	0.069	0.315
Mof_C 	C 	0.21103	0.1379	0.9717	-0.053
Mof_C 	C 	0.22729	0.1822	0.0238	0
Mof_H 	H 	0.2571	0.189	0.0491	0.062
Mof_C 	C 	0.19963	0.2165	0.0386	-0.055
Mof_C 	C 	0.15538	0.204	0.0022	-0.028
Mof_H 	H 	0.1368	0.2265	0.0125	0.056
Mof_C 	C 	0.13801	0.1575	0.9497	-0.007
Mof_C 	C 	0.16657	0.1268	0.9344	-0.032
Mof_H 	H 	0.1557	0.0984	0.8986	0.067
Mof_C 	C 	0.24052	0.105	0.9533	0.295
Mof_C 	C 	0.2167	0.2706	0.092	0.312
Mof_C 	C 	0.09022	0.1449	0.9104	0.073
Mof_C 	C 	0.0612	0.192	0.9083	-0.144
Mof_H 	H 	0.0712	0.2348	0.9317	0.086
Mof_C 	C 	0.01575	0.1797	0.8718	0.088
Mof_C 	C 	0.9856	0.233	0.8681	-0.123
Mof_H 	H 	0.9954	0.2776	0.8888	0.081
Mof_C 	C 	0.942	0.2181	0.8338	0.031
Mof_H 	H 	0.9223	0.2519	0.8329	0.039
Mof_C 	C 	0.92641	0.151	0.7992	-0.083
Mof_C 	C 	0.95481	0.1047	0.7989	-0.008
Mof_H 	H 	0.9447	0.063	0.774	0.052
Mof_C 	C 	0.00025	0.1173	0.8356	-0.024
Mof_C 	C 	0.0307	0.0656	0.8382	-0.013
Mof_H 	H 	0.021	0.0226	0.8151	0.04
Mof_C 	C 	0.0746	0.0791	0.8752	-0.094
Mof_H 	H 	0.0943	0.0447	0.877	0.074
Mof_C 	C 	0.87843	0.1386	0.7589	0.326
Mof_Cd	Cd	0.70928	0.62776	0.80717	0.503
Mof_Cd	Cd	0.81805	0.63958	0.82623	0.455
Mof_Cd	Cd	0.8228	0.5724	0.95771	0.418
Mof_O 	O 	0.71725	0.5117	0.7751	-0.26
Mof_O 	O 	0.78083	0.5526	0.84769	-0.308
Mof_O 	O 	0.70204	0.2468	0.724	-0.27
Mof_O 	O 	0.7585	0.1782	0.74917	-0.286
Mof_O 	O 	0.12286	0.4334	0.0636	-0.305
Mof_O 	O 	0.11153	0.3447	0.1133	-0.284
Mof_O 	O 	0.78122	0.6098	0.9937	-0.278
Mof_O 	O 	0.72533	0.5754	0.9009	-0.266
Mof_O 	O 	0.75639	0.773	0.12969	-0.275
Mof_O 	O 	0.68866	0.8129	0.0922	-0.291
Mof_O 	O 	0.36425	0.5867	0.7233	-0.266
Mof_O 	O 	0.35329	0.6847	0.759	-0.282
Mof_C 	C 	0.77676	0.4289	0.814	-0.063
Mof_C 	C 	0.75148	0.3695	0.7817	0.002
Mof_H 	H 	0.7215	0.3746	0.757	0.066
Mof_C 	C 	0.77073	0.3016	0.7861	-0.054
Mof_C 	C 	0.81527	0.295	0.8217	-0.031
Mof_H 	H 	0.828	0.25	0.8235	0.069
Mof_C 	C 	0.84149	0.3536	0.8547	-0.006
Mof_C 	C 	0.82172	0.4205	0.8497	-0.035
Mof_H 	H 	0.8389	0.461	0.8706	0.057
Mof_C 	C 	0.75653	0.502	0.8112	0.303
Mof_C 	C 	0.74251	0.2374	0.7514	0.307
Mof_C 	C 	0.88931	0.3477	0.8958	0.073
Mof_C 	C 	0.90727	0.2903	0.9391	-0.101
Mof_H 	H 	0.8893	0.2543	0.94	0.074
Mof_C 	C 	0.95061	0.2872	0.9797	-0.009
Mof_H 	H 	0.9619	0.2487	0.0081	0.04
Mof_C 	C 	0.97889	0.3398	0.9802	-0.029
Mof_C 	C 	0.02437	0.3394	0.0237	-0.014
Mof_H 	H 	0.0361	0.3036	0.0545	0.055
Mof_C 	C 	0.05082	0.3897	0.0212	-0.09
Mof_C 	C 	0.0338	0.4434	0.9753	0.032
Mof_H 	H 	0.0523	0.4772	0.9732	0.03
Mof_C 	C 	0.9895	0.4473	0.9325	-0.129
Mof_H 	H 	0.9785	0.4841	0.9026	0.081
Mof_C 	C 	0.96141	0.3952	0.9345	0.089
Mof_C 	C 	0.91611	0.3986	0.8939	-0.148
Mof_H 	H 	0.9043	0.4366	0.8652	0.089
Mof_C 	C 	0.09853	0.3892	0.069	0.315
Mof_C 	C 	0.71103	0.6379	0.9717	-0.054
Mof_C 	C 	0.72729	0.6822	0.0238	0.001
Mof_H 	H 	0.7571	0.689	0.0491	0.062
Mof_C 	C 	0.69963	0.7165	0.0386	-0.055
Mof_C 	C 	0.65538	0.704	0.0022	-0.028
Mof_H 	H 	0.6368	0.7265	0.0125	0.056
Mof_C 	C 	0.63801	0.6575	0.9497	-0.007
Mof_C 	C 	0.66657	0.6268	0.9344	-0.032
Mof_H 	H 	0.6557	0.5984	0.8986	0.067
Mof_C 	C 	0.74052	0.605	0.9533	0.295
Mof_C 	C 	0.7167	0.7706	0.092	0.312
Mof_C 	C 	0.59022	0.6449	0.9104	0.073
Mof_C 	C 	0.5612	0.692	0.9083	-0.144
Mof_H 	H 	0.5712	0.7348	0.9317	0.086
Mof_C 	C 	0.51575	0.6797	0.8718	0.089
Mof_C 	C 	0.4856	0.733	0.8681	-0.123
Mof_H 	H 	0.4954	0.7776	0.8888	0.081
Mof_C 	C 	0.442	0.7181	0.8338	0.031
Mof_H 	H 	0.4223	0.7519	0.8329	0.039
Mof_C 	C 	0.42641	0.651	0.7992	-0.083
Mof_C 	C 	0.45481	0.6047	0.7989	-0.008
Mof_H 	H 	0.4447	0.563	0.774	0.052
Mof_C 	C 	0.50025	0.6173	0.8356	-0.024
Mof_C 	C 	0.5307	0.5656	0.8382	-0.013
Mof_H 	H 	0.521	0.5226	0.8151	0.04
Mof_C 	C 	0.5746	0.5791	0.8752	-0.094
Mof_H 	H 	0.5943	0.5447	0.877	0.074
Mof_C 	C 	0.37843	0.6386	0.7589	0.326
_end
