data_functionalizedCrystal
_audit_creation_method	'EQeq! by Chris Wilmer'
_symmetry_space_group_name_H-M	'P1'
_symmetry_Int_Tables_number	1
_symmetry_cell_setting	triclinic
loop_
_symmetry_equiv_pos_as_xyz
  x,y,z
_cell_length_a	19.8319
_cell_length_b	19.8319
_cell_length_c	15.2208
_cell_angle_alpha	90
_cell_angle_beta	90
_cell_angle_gamma	120
loop_
_atom_site_label
_atom_site_type_symbol
_atom_site_fract_x
_atom_site_fract_y
_atom_site_fract_z
_atom_site_charge
Mof_C 	C 	0.4614	0.6065	0.4166	0.518
Mof_C 	C 	0.4297	0.4715	0.4548	0.016
Mof_C 	C 	0.481	0.551	0.4622	-0.158
Mof_C 	C 	0.5512	0.5804	0.5063	0.012
Mof_C 	C 	0.2752	0.4281	0.4809	-0.332
Mof_H 	H 	0.2229	0.4074	0.4563	0.103
Mof_H 	H 	0.2919	0.4789	0.508	0.089
Mof_H 	H 	0.2745	0.3921	0.5255	0.12
Mof_C 	C 	0.5832	0.7051	0.6108	-0.408
Mof_H 	H 	0.6056	0.7617	0.615	0.142
Mof_H 	H 	0.6009	0.6868	0.6607	0.144
Mof_H 	H 	0.5263	0.6797	0.6116	0.133
Mof_C 	C 	0.3192	0.5068	0.0854	0.511
Mof_C 	C 	0.3268	0.46	0.0142	-0.054
Mof_C 	C 	0.3077	0.3831	0.0272	-0.014
Mof_C 	C 	0.3245	0.3441	0.9626	-0.206
Mof_C 	C 	0.3604	0.3821	0.885	0.324
Mof_C 	C 	0.3794	0.459	0.872	-0.089
Mof_C 	C 	0.3627	0.498	0.9366	-0.123
Mof_S 	S 	0.2578	0.3357	0.1226	-0.14
Mof_S 	S 	0.3061	0.2469	0.9795	-0.373
Mof_S 	S 	0.4259	0.5092	0.7742	-0.104
Mof_S 	S 	0.3868	0.5962	0.9268	-0.196
Mof_C 	C 	0.3879	0.3412	0.8233	-1.056
Mof_O 	O 	0.3442	0.2959	0.7664	-0.512
Mof_O 	O 	0.4556	0.361	0.8321	-0.686
Mof_C 	C 	0.3344	0.3417	0.1892	0.306
Mof_H 	H 	0.3665	0.3269	0.1544	-0.072
Mof_H 	H 	0.3122	0.3063	0.2393	-0.055
Mof_H 	H 	0.3665	0.3952	0.2105	-0.6
Mof_C 	C 	0.2081	0.1919	0.945	0.277
Mof_H 	H 	0.1902	0.1363	0.9505	-0.038
Mof_H 	H 	0.1755	0.2051	0.981	0.011
Mof_H 	H 	0.2042	0.2039	0.883	-0.011
Mof_C 	C 	0.373	0.4449	0.6904	0.044
Mof_H 	H 	0.3959	0.4688	0.6335	0.001
Mof_H 	H 	0.3757	0.397	0.6972	0.04
Mof_H 	H 	0.3191	0.4326	0.693	0.021
Mof_C 	C 	0.4894	0.6454	0.9357	-0.091
Mof_H 	H 	0.51	0.7017	0.9311	-0.033
Mof_H 	H 	0.5041	0.6334	0.9926	-0.174
Mof_H 	H 	0.5109	0.6284	0.8883	0.023
Mof_C 	C 	0.3197	0.4556	0.0073	-0.076
Mof_C 	C 	0.2909	0.3767	0.0222	0.055
Mof_C 	C 	0.2731	0.3261	0.9516	0.228
Mof_C 	C 	0.2841	0.3543	0.8662	-0.125
Mof_C 	C 	0.3128	0.4332	0.8512	0.002
Mof_C 	C 	0.3307	0.4838	0.9218	0.145
Mof_C 	C 	0.2627	0.3	0.784	0.019
Mof_O 	O 	0.3186	0.289	0.765	0.58
Mof_O 	O 	0.2021	0.2768	0.7378	-0.173
Mof_O 	O 	0.54	0.639	0.15	-0.301
Mof_H 	H 	0.527	0.598	0.12	0.264
Mof_H 	H 	0.588	0.663	0.152	1.177
Mof_S 	S 	0.3588	0.5841	0.9049	0.2
Mof_C 	C 	0.3176	0.2254	0.016	0.469
Mof_H 	H 	0.3052	0.1719	0.0282	-0.099
Mof_H 	H 	0.3627	0.2505	0.977	-0.012
Mof_H 	H 	0.3297	0.2544	0.0717	-0.067
Mof_S 	S 	0.2371	0.2245	0.9662	-0.236
Mof_S 	S 	0.2764	0.344	0.139	0.033
Mof_S 	S 	0.3225	0.47	0.7358	0.014
Mof_C 	C 	0.373	0.381	0.1708	0.154
Mof_H 	H 	0.4069	0.4018	0.1193	-0.039
Mof_H 	H 	0.3793	0.3394	0.1972	-0.045
Mof_H 	H 	0.3872	0.4227	0.2139	0.45
Mof_C 	C 	0.4202	0.499	0.718	-0.408
Mof_H 	H 	0.4353	0.5207	0.6588	0.135
Mof_H 	H 	0.4524	0.5393	0.7614	0.197
Mof_H 	H 	0.4279	0.4544	0.7247	0.185
Mof_C 	C 	0.4602	0.6309	0.914	-0.351
Mof_H 	H 	0.4822	0.6871	0.9058	0.172
Mof_H 	H 	0.4743	0.6211	0.9724	0.326
Mof_H 	H 	0.4809	0.6109	0.8691	0.121
Mof_Eu	Eu	0.44228	0.66051	0.21252	2.417
Mof_O 	O 	0.4824	0.6223	0.339	-0.593
Mof_O 	O 	0.4245	0.6314	0.459	-0.627
Mof_O 	O 	0.3257	0.5834	0.3011	-0.974
Mof_H 	H 	0.3226	0.5345	0.3235	0.187
Mof_O 	O 	0.3464	0.6846	0.575	-0.252
Mof_H 	H 	0.3692	0.6707	0.6115	0.02
Mof_H 	H 	0.3277	0.7073	0.6044	0.168
Mof_O 	O 	0.2565	0.5048	0.0966	-0.609
Mof_O 	O 	0.3792	0.5436	0.1292	-0.618
Mof_S 	S 	0.34209	0.43902	0.39451	-0.033
Mof_S 	S 	0.61332	0.68241	0.5131	0.046
Mof_C 	C 	0.3935	0.8549	0.4166	0.519
Mof_C 	C 	0.5285	0.9582	0.4548	0.017
Mof_C 	C 	0.449	0.93	0.4622	-0.156
Mof_C 	C 	0.4196	0.9708	0.5063	0.013
Mof_C 	C 	0.5719	0.8471	0.4809	-0.331
Mof_H 	H 	0.5926	0.8155	0.4563	0.104
Mof_H 	H 	0.5211	0.813	0.508	0.09
Mof_H 	H 	0.6079	0.8824	0.5255	0.121
Mof_C 	C 	0.2949	0.8781	0.6108	-0.407
Mof_H 	H 	0.2383	0.8439	0.615	0.143
Mof_H 	H 	0.3132	0.9141	0.6607	0.145
Mof_H 	H 	0.3203	0.8466	0.6116	0.134
Mof_C 	C 	0.4932	0.8124	0.0854	0.511
Mof_C 	C 	0.54	0.8668	0.0142	-0.052
Mof_C 	C 	0.6169	0.9246	0.0272	-0.013
Mof_C 	C 	0.6559	0.9804	0.9626	-0.2
Mof_C 	C 	0.6179	0.9783	0.885	0.319
Mof_C 	C 	0.541	0.9204	0.872	-0.088
Mof_C 	C 	0.502	0.8647	0.9366	-0.121
Mof_S 	S 	0.6643	0.9221	0.1226	-0.137
Mof_S 	S 	0.7531	0.0592	0.9795	-0.387
Mof_S 	S 	0.4908	0.9167	0.7742	-0.102
Mof_S 	S 	0.4038	0.7906	0.9268	-0.196
Mof_C 	C 	0.6588	0.0467	0.8233	-1.049
Mof_O 	O 	0.7041	0.0483	0.7664	-0.508
Mof_O 	O 	0.639	0.0946	0.8321	-0.684
Mof_C 	C 	0.6583	0.9927	0.1892	0.298
Mof_H 	H 	0.6731	0.0396	0.1544	-0.069
Mof_H 	H 	0.6937	0.0059	0.2393	-0.054
Mof_H 	H 	0.6048	0.9713	0.2105	-0.585
Mof_C 	C 	0.8081	0.0162	0.945	0.292
Mof_H 	H 	0.8637	0.0539	0.9505	-0.041
Mof_H 	H 	0.7949	0.9704	0.981	0.005
Mof_H 	H 	0.7961	0.0003	0.883	-0.014
Mof_C 	C 	0.5551	0.9281	0.6904	0.044
Mof_H 	H 	0.5312	0.9271	0.6335	0.001
Mof_H 	H 	0.603	0.9787	0.6972	0.039
Mof_H 	H 	0.5674	0.8865	0.693	0.022
Mof_C 	C 	0.3546	0.844	0.9357	-0.092
Mof_H 	H 	0.2983	0.8083	0.9311	-0.033
Mof_H 	H 	0.3666	0.8707	0.9926	-0.175
Mof_H 	H 	0.3716	0.8825	0.8883	0.023
Mof_C 	C 	0.5444	0.8641	0.0073	-0.075
Mof_C 	C 	0.6233	0.9142	0.0222	0.054
Mof_C 	C 	0.6739	0.947	0.9516	0.225
Mof_C 	C 	0.6457	0.9298	0.8662	-0.123
Mof_C 	C 	0.5668	0.8796	0.8512	0.003
Mof_C 	C 	0.5162	0.8469	0.9218	0.142
Mof_C 	C 	0.7	0.9627	0.784	0.02
Mof_O 	O 	0.711	0.0296	0.765	0.575
Mof_O 	O 	0.7232	0.9253	0.7378	-0.174
Mof_O 	O 	0.361	0.901	0.15	-0.302
Mof_H 	H 	0.402	0.929	0.12	0.265
Mof_H 	H 	0.337	0.925	0.152	1.172
Mof_S 	S 	0.4159	0.7747	0.9049	0.199
Mof_C 	C 	0.7746	0.0922	0.016	0.484
Mof_H 	H 	0.8281	0.1333	0.0282	-0.105
Mof_H 	H 	0.7495	0.1122	0.977	-0.011
Mof_H 	H 	0.7456	0.0753	0.0717	-0.071
Mof_S 	S 	0.7755	0.0126	0.9662	-0.236
Mof_S 	S 	0.656	0.9324	0.139	0.033
Mof_S 	S 	0.53	0.8525	0.7358	0.013
Mof_C 	C 	0.619	0.992	0.1708	0.152
Mof_H 	H 	0.5982	0.0051	0.1193	-0.039
Mof_H 	H 	0.6606	0.0399	0.1972	-0.045
Mof_H 	H 	0.5773	0.9645	0.2139	0.44
Mof_C 	C 	0.501	0.9212	0.718	-0.407
Mof_H 	H 	0.4793	0.9146	0.6588	0.134
Mof_H 	H 	0.4607	0.9131	0.7614	0.196
Mof_H 	H 	0.5456	0.9735	0.7247	0.184
Mof_C 	C 	0.3691	0.8293	0.914	-0.352
Mof_H 	H 	0.3129	0.7951	0.9058	0.173
Mof_H 	H 	0.3789	0.8532	0.9724	0.327
Mof_H 	H 	0.3891	0.87	0.8691	0.121
Mof_Eu	Eu	0.33949	0.78177	0.21252	2.417
Mof_O 	O 	0.3777	0.8601	0.339	-0.593
Mof_O 	O 	0.3686	0.7931	0.459	-0.627
Mof_O 	O 	0.4166	0.7423	0.3011	-0.974
Mof_H 	H 	0.4655	0.7881	0.3235	0.187
Mof_O 	O 	0.3154	0.6618	0.575	-0.252
Mof_H 	H 	0.3293	0.6985	0.6115	0.02
Mof_H 	H 	0.2927	0.6204	0.6044	0.168
Mof_O 	O 	0.4952	0.7517	0.0966	-0.609
Mof_O 	O 	0.4564	0.8356	0.1292	-0.617
Mof_S 	S 	0.56098	0.90307	0.39451	-0.032
Mof_S 	S 	0.31759	0.93091	0.5131	0.046
Mof_C 	C 	0.1451	0.5386	0.4166	0.519
Mof_C 	C 	0.0418	0.5703	0.4548	0.017
Mof_C 	C 	0.07	0.519	0.4622	-0.156
Mof_C 	C 	0.0292	0.4488	0.5063	0.013
Mof_C 	C 	0.1529	0.7248	0.4809	-0.331
Mof_H 	H 	0.1845	0.7771	0.4563	0.104
Mof_H 	H 	0.187	0.7081	0.508	0.09
Mof_H 	H 	0.1176	0.7255	0.5255	0.121
Mof_C 	C 	0.1219	0.4168	0.6108	-0.407
Mof_H 	H 	0.1561	0.3944	0.615	0.143
Mof_H 	H 	0.0859	0.3991	0.6607	0.145
Mof_H 	H 	0.1534	0.4737	0.6116	0.134
Mof_C 	C 	0.1876	0.6808	0.0854	0.511
Mof_C 	C 	0.1332	0.6732	0.0142	-0.052
Mof_C 	C 	0.0754	0.6923	0.0272	-0.012
Mof_C 	C 	0.0196	0.6755	0.9626	-0.205
Mof_C 	C 	0.0217	0.6396	0.885	0.321
Mof_C 	C 	0.0796	0.6206	0.872	-0.089
Mof_C 	C 	0.1353	0.6373	0.9366	-0.122
Mof_S 	S 	0.0779	0.7422	0.1226	-0.138
Mof_S 	S 	0.9408	0.6939	0.9795	-0.377
Mof_S 	S 	0.0833	0.5741	0.7742	-0.103
Mof_S 	S 	0.2094	0.6132	0.9268	-0.196
Mof_C 	C 	0.9533	0.6121	0.8233	-1.052
Mof_O 	O 	0.9517	0.6558	0.7664	-0.509
Mof_O 	O 	0.9054	0.5444	0.8321	-0.685
Mof_C 	C 	0.0073	0.6656	0.1892	0.3
Mof_H 	H 	0.9604	0.6335	0.1544	-0.07
Mof_H 	H 	0.9941	0.6878	0.2393	-0.055
Mof_H 	H 	0.0287	0.6335	0.2105	-0.587
Mof_C 	C 	0.9838	0.7919	0.945	0.284
Mof_H 	H 	0.9461	0.8098	0.9505	-0.04
Mof_H 	H 	0.0296	0.8245	0.981	0.006
Mof_H 	H 	0.9997	0.7958	0.883	-0.012
Mof_C 	C 	0.0719	0.627	0.6904	0.044
Mof_H 	H 	0.0729	0.6041	0.6335	0.001
Mof_H 	H 	0.0213	0.6243	0.6972	0.039
Mof_H 	H 	0.1135	0.6809	0.693	0.022
Mof_C 	C 	0.156	0.5106	0.9357	-0.092
Mof_H 	H 	0.1917	0.49	0.9311	-0.033
Mof_H 	H 	0.1293	0.4959	0.9926	-0.174
Mof_H 	H 	0.1175	0.4891	0.8883	0.023
Mof_C 	C 	0.1359	0.6803	0.0073	-0.075
Mof_C 	C 	0.0858	0.7091	0.0222	0.056
Mof_C 	C 	0.053	0.7269	0.9516	0.225
Mof_C 	C 	0.0702	0.7159	0.8662	-0.124
Mof_C 	C 	0.1204	0.6872	0.8512	0.003
Mof_C 	C 	0.1531	0.6693	0.9218	0.143
Mof_C 	C 	0.0373	0.7373	0.784	0.019
Mof_O 	O 	0.9704	0.6814	0.765	0.576
Mof_O 	O 	0.0747	0.7979	0.7378	-0.174
Mof_O 	O 	0.099	0.46	0.15	-0.301
Mof_H 	H 	0.071	0.473	0.12	0.265
Mof_H 	H 	0.075	0.412	0.152	1.174
Mof_S 	S 	0.2253	0.6412	0.9049	0.199
Mof_C 	C 	0.9078	0.6824	0.016	0.473
Mof_H 	H 	0.8667	0.6948	0.0282	-0.1
Mof_H 	H 	0.8878	0.6373	0.977	-0.011
Mof_H 	H 	0.9247	0.6703	0.0717	-0.068
Mof_S 	S 	0.9874	0.7629	0.9662	-0.234
Mof_S 	S 	0.0676	0.7236	0.139	0.033
Mof_S 	S 	0.1475	0.6775	0.7358	0.013
Mof_C 	C 	0.008	0.627	0.1708	0.151
Mof_H 	H 	0.9949	0.5931	0.1193	-0.039
Mof_H 	H 	0.9601	0.6207	0.1972	-0.045
Mof_H 	H 	0.0355	0.6128	0.2139	0.441
Mof_C 	C 	0.0788	0.5798	0.718	-0.407
Mof_H 	H 	0.0854	0.5647	0.6588	0.134
Mof_H 	H 	0.0869	0.5476	0.7614	0.196
Mof_H 	H 	0.0265	0.5721	0.7247	0.184
Mof_C 	C 	0.1707	0.5398	0.914	-0.351
Mof_H 	H 	0.2049	0.5178	0.9058	0.172
Mof_H 	H 	0.1468	0.5257	0.9724	0.326
Mof_H 	H 	0.13	0.5191	0.8691	0.121
Mof_Eu	Eu	0.21823	0.55772	0.21252	2.417
Mof_O 	O 	0.1399	0.5176	0.339	-0.593
Mof_O 	O 	0.2069	0.5755	0.459	-0.627
Mof_O 	O 	0.2577	0.6743	0.3011	-0.974
Mof_H 	H 	0.2119	0.6774	0.3235	0.187
Mof_O 	O 	0.3382	0.6536	0.575	-0.252
Mof_H 	H 	0.3015	0.6308	0.6115	0.02
Mof_H 	H 	0.3796	0.6723	0.6044	0.168
Mof_O 	O 	0.2483	0.7435	0.0966	-0.609
Mof_O 	O 	0.1644	0.6208	0.1292	-0.617
Mof_S 	S 	0.09693	0.65791	0.39451	-0.032
Mof_S 	S 	0.06909	0.38668	0.5131	0.046
Mof_C 	C 	0.5386	0.3935	0.5834	0.519
Mof_C 	C 	0.5703	0.5285	0.5452	0.017
Mof_C 	C 	0.519	0.449	0.5378	-0.157
Mof_C 	C 	0.4488	0.4196	0.4937	0.013
Mof_C 	C 	0.7248	0.5719	0.5191	-0.331
Mof_H 	H 	0.7771	0.5926	0.5437	0.104
Mof_H 	H 	0.7081	0.5211	0.492	0.09
Mof_H 	H 	0.7255	0.6079	0.4745	0.121
Mof_C 	C 	0.4168	0.2949	0.3892	-0.407
Mof_H 	H 	0.3944	0.2383	0.385	0.143
Mof_H 	H 	0.3991	0.3132	0.3393	0.145
Mof_H 	H 	0.4737	0.3203	0.3884	0.134
Mof_C 	C 	0.6808	0.4932	0.9146	0.512
Mof_C 	C 	0.6732	0.54	0.9858	-0.053
Mof_C 	C 	0.6923	0.6169	0.9728	-0.013
Mof_C 	C 	0.6755	0.6559	0.0374	-0.205
Mof_C 	C 	0.6396	0.6179	0.115	0.324
Mof_C 	C 	0.6206	0.541	0.128	-0.089
Mof_C 	C 	0.6373	0.502	0.0634	-0.123
Mof_S 	S 	0.7422	0.6643	0.8774	-0.14
Mof_S 	S 	0.6939	0.7531	0.0205	-0.373
Mof_S 	S 	0.5741	0.4908	0.2258	-0.104
Mof_S 	S 	0.6132	0.4038	0.0732	-0.196
Mof_C 	C 	0.6121	0.6588	0.1767	-1.056
Mof_O 	O 	0.6558	0.7041	0.2336	-0.512
Mof_O 	O 	0.5444	0.639	0.1679	-0.686
Mof_C 	C 	0.6656	0.6583	0.8108	0.306
Mof_H 	H 	0.6335	0.6731	0.8456	-0.072
Mof_H 	H 	0.6878	0.6937	0.7607	-0.055
Mof_H 	H 	0.6335	0.6048	0.7895	-0.6
Mof_C 	C 	0.7919	0.8081	0.055	0.277
Mof_H 	H 	0.8098	0.8637	0.0495	-0.038
Mof_H 	H 	0.8245	0.7949	0.019	0.011
Mof_H 	H 	0.7958	0.7961	0.117	-0.011
Mof_C 	C 	0.627	0.5551	0.3096	0.044
Mof_H 	H 	0.6041	0.5312	0.3665	0.001
Mof_H 	H 	0.6243	0.603	0.3028	0.04
Mof_H 	H 	0.6809	0.5674	0.307	0.021
Mof_C 	C 	0.5106	0.3546	0.0643	-0.091
Mof_H 	H 	0.49	0.2983	0.0689	-0.033
Mof_H 	H 	0.4959	0.3666	0.0074	-0.174
Mof_H 	H 	0.4891	0.3716	0.1117	0.023
Mof_C 	C 	0.6803	0.5444	0.9927	-0.076
Mof_C 	C 	0.7091	0.6233	0.9778	0.055
Mof_C 	C 	0.7269	0.6739	0.0484	0.228
Mof_C 	C 	0.7159	0.6457	0.1338	-0.125
Mof_C 	C 	0.6872	0.5668	0.1488	0.002
Mof_C 	C 	0.6693	0.5162	0.0782	0.145
Mof_C 	C 	0.7373	0.7	0.216	0.019
Mof_O 	O 	0.6814	0.711	0.235	0.58
Mof_O 	O 	0.7979	0.7232	0.2622	-0.173
Mof_O 	O 	0.46	0.361	0.85	-0.301
Mof_H 	H 	0.473	0.402	0.88	0.264
Mof_H 	H 	0.412	0.337	0.848	1.177
Mof_S 	S 	0.6412	0.4159	0.0951	0.2
Mof_C 	C 	0.6824	0.7746	0.984	0.469
Mof_H 	H 	0.6948	0.8281	0.9718	-0.099
Mof_H 	H 	0.6373	0.7495	0.023	-0.012
Mof_H 	H 	0.6703	0.7456	0.9283	-0.067
Mof_S 	S 	0.7629	0.7755	0.0338	-0.236
Mof_S 	S 	0.7236	0.656	0.861	0.033
Mof_S 	S 	0.6775	0.53	0.2642	0.014
Mof_C 	C 	0.627	0.619	0.8292	0.154
Mof_H 	H 	0.5931	0.5982	0.8807	-0.039
Mof_H 	H 	0.6207	0.6606	0.8028	-0.045
Mof_H 	H 	0.6128	0.5773	0.7861	0.45
Mof_C 	C 	0.5798	0.501	0.282	-0.408
Mof_H 	H 	0.5647	0.4793	0.3412	0.135
Mof_H 	H 	0.5476	0.4607	0.2386	0.197
Mof_H 	H 	0.5721	0.5456	0.2753	0.185
Mof_C 	C 	0.5398	0.3691	0.086	-0.351
Mof_H 	H 	0.5178	0.3129	0.0942	0.172
Mof_H 	H 	0.5257	0.3789	0.0276	0.326
Mof_H 	H 	0.5191	0.3891	0.1309	0.121
Mof_Eu	Eu	0.55772	0.33949	0.78748	2.417
Mof_O 	O 	0.5176	0.3777	0.661	-0.593
Mof_O 	O 	0.5755	0.3686	0.541	-0.627
Mof_O 	O 	0.6743	0.4166	0.6989	-0.974
Mof_H 	H 	0.6774	0.4655	0.6765	0.187
Mof_O 	O 	0.6536	0.3154	0.425	-0.252
Mof_H 	H 	0.6308	0.3293	0.3885	0.02
Mof_H 	H 	0.6723	0.2927	0.3956	0.168
Mof_O 	O 	0.7435	0.4952	0.9034	-0.609
Mof_O 	O 	0.6208	0.4564	0.8708	-0.618
Mof_S 	S 	0.65791	0.56098	0.60549	-0.033
Mof_S 	S 	0.38668	0.31759	0.4869	0.046
Mof_C 	C 	0.6065	0.1451	0.5834	0.519
Mof_C 	C 	0.4715	0.0418	0.5452	0.017
Mof_C 	C 	0.551	0.07	0.5378	-0.156
Mof_C 	C 	0.5804	0.0292	0.4937	0.013
Mof_C 	C 	0.4281	0.1529	0.5191	-0.331
Mof_H 	H 	0.4074	0.1845	0.5437	0.104
Mof_H 	H 	0.4789	0.187	0.492	0.09
Mof_H 	H 	0.3921	0.1176	0.4745	0.121
Mof_C 	C 	0.7051	0.1219	0.3892	-0.407
Mof_H 	H 	0.7617	0.1561	0.385	0.143
Mof_H 	H 	0.6868	0.0859	0.3393	0.145
Mof_H 	H 	0.6797	0.1534	0.3884	0.134
Mof_C 	C 	0.5068	0.1876	0.9146	0.511
Mof_C 	C 	0.46	0.1332	0.9858	-0.052
Mof_C 	C 	0.3831	0.0754	0.9728	-0.013
Mof_C 	C 	0.3441	0.0196	0.0374	-0.2
Mof_C 	C 	0.3821	0.0217	0.115	0.319
Mof_C 	C 	0.459	0.0796	0.128	-0.088
Mof_C 	C 	0.498	0.1353	0.0634	-0.121
Mof_S 	S 	0.3357	0.0779	0.8774	-0.137
Mof_S 	S 	0.2469	0.9408	0.0205	-0.387
Mof_S 	S 	0.5092	0.0833	0.2258	-0.102
Mof_S 	S 	0.5962	0.2094	0.0732	-0.196
Mof_C 	C 	0.3412	0.9533	0.1767	-1.049
Mof_O 	O 	0.2959	0.9517	0.2336	-0.508
Mof_O 	O 	0.361	0.9054	0.1679	-0.684
Mof_C 	C 	0.3417	0.0073	0.8108	0.298
Mof_H 	H 	0.3269	0.9604	0.8456	-0.069
Mof_H 	H 	0.3063	0.9941	0.7607	-0.054
Mof_H 	H 	0.3952	0.0287	0.7895	-0.585
Mof_C 	C 	0.1919	0.9838	0.055	0.292
Mof_H 	H 	0.1363	0.9461	0.0495	-0.041
Mof_H 	H 	0.2051	0.0296	0.019	0.005
Mof_H 	H 	0.2039	0.9997	0.117	-0.014
Mof_C 	C 	0.4449	0.0719	0.3096	0.044
Mof_H 	H 	0.4688	0.0729	0.3665	0.001
Mof_H 	H 	0.397	0.0213	0.3028	0.039
Mof_H 	H 	0.4326	0.1135	0.307	0.022
Mof_C 	C 	0.6454	0.156	0.0643	-0.092
Mof_H 	H 	0.7017	0.1917	0.0689	-0.033
Mof_H 	H 	0.6334	0.1293	0.0074	-0.175
Mof_H 	H 	0.6284	0.1175	0.1117	0.023
Mof_C 	C 	0.4556	0.1359	0.9927	-0.075
Mof_C 	C 	0.3767	0.0858	0.9778	0.054
Mof_C 	C 	0.3261	0.053	0.0484	0.225
Mof_C 	C 	0.3543	0.0702	0.1338	-0.123
Mof_C 	C 	0.4332	0.1204	0.1488	0.003
Mof_C 	C 	0.4838	0.1531	0.0782	0.142
Mof_C 	C 	0.3	0.0373	0.216	0.02
Mof_O 	O 	0.289	0.9704	0.235	0.575
Mof_O 	O 	0.2768	0.0747	0.2622	-0.174
Mof_O 	O 	0.639	0.099	0.85	-0.302
Mof_H 	H 	0.598	0.071	0.88	0.265
Mof_H 	H 	0.663	0.075	0.848	1.172
Mof_S 	S 	0.5841	0.2253	0.0951	0.199
Mof_C 	C 	0.2254	0.9078	0.984	0.484
Mof_H 	H 	0.1719	0.8667	0.9718	-0.105
Mof_H 	H 	0.2505	0.8878	0.023	-0.011
Mof_H 	H 	0.2544	0.9247	0.9283	-0.071
Mof_S 	S 	0.2245	0.9874	0.0338	-0.236
Mof_S 	S 	0.344	0.0676	0.861	0.033
Mof_S 	S 	0.47	0.1475	0.2642	0.013
Mof_C 	C 	0.381	0.008	0.8292	0.152
Mof_H 	H 	0.4018	0.9949	0.8807	-0.039
Mof_H 	H 	0.3394	0.9601	0.8028	-0.045
Mof_H 	H 	0.4227	0.0355	0.7861	0.44
Mof_C 	C 	0.499	0.0788	0.282	-0.407
Mof_H 	H 	0.5207	0.0854	0.3412	0.134
Mof_H 	H 	0.5393	0.0869	0.2386	0.196
Mof_H 	H 	0.4544	0.0265	0.2753	0.184
Mof_C 	C 	0.6309	0.1707	0.086	-0.352
Mof_H 	H 	0.6871	0.2049	0.0942	0.173
Mof_H 	H 	0.6211	0.1468	0.0276	0.327
Mof_H 	H 	0.6109	0.13	0.1309	0.121
Mof_Eu	Eu	0.66051	0.21823	0.78748	2.417
Mof_O 	O 	0.6223	0.1399	0.661	-0.593
Mof_O 	O 	0.6314	0.2069	0.541	-0.627
Mof_O 	O 	0.5834	0.2577	0.6989	-0.974
Mof_H 	H 	0.5345	0.2119	0.6765	0.187
Mof_O 	O 	0.6846	0.3382	0.425	-0.252
Mof_H 	H 	0.6707	0.3015	0.3885	0.02
Mof_H 	H 	0.7073	0.3796	0.3956	0.168
Mof_O 	O 	0.5048	0.2483	0.9034	-0.609
Mof_O 	O 	0.5436	0.1644	0.8708	-0.617
Mof_S 	S 	0.43902	0.09693	0.60549	-0.032
Mof_S 	S 	0.68241	0.06909	0.4869	0.046
Mof_C 	C 	0.8549	0.4614	0.5834	0.519
Mof_C 	C 	0.9582	0.4297	0.5452	0.017
Mof_C 	C 	0.93	0.481	0.5378	-0.156
Mof_C 	C 	0.9708	0.5512	0.4937	0.013
Mof_C 	C 	0.8471	0.2752	0.5191	-0.331
Mof_H 	H 	0.8155	0.2229	0.5437	0.104
Mof_H 	H 	0.813	0.2919	0.492	0.09
Mof_H 	H 	0.8824	0.2745	0.4745	0.121
Mof_C 	C 	0.8781	0.5832	0.3892	-0.407
Mof_H 	H 	0.8439	0.6056	0.385	0.143
Mof_H 	H 	0.9141	0.6009	0.3393	0.145
Mof_H 	H 	0.8466	0.5263	0.3884	0.134
Mof_C 	C 	0.8124	0.3192	0.9146	0.511
Mof_C 	C 	0.8668	0.3268	0.9858	-0.052
Mof_C 	C 	0.9246	0.3077	0.9728	-0.012
Mof_C 	C 	0.9804	0.3245	0.0374	-0.205
Mof_C 	C 	0.9783	0.3604	0.115	0.321
Mof_C 	C 	0.9204	0.3794	0.128	-0.089
Mof_C 	C 	0.8647	0.3627	0.0634	-0.122
Mof_S 	S 	0.9221	0.2578	0.8774	-0.138
Mof_S 	S 	0.0592	0.3061	0.0205	-0.377
Mof_S 	S 	0.9167	0.4259	0.2258	-0.103
Mof_S 	S 	0.7906	0.3868	0.0732	-0.196
Mof_C 	C 	0.0467	0.3879	0.1767	-1.052
Mof_O 	O 	0.0483	0.3442	0.2336	-0.509
Mof_O 	O 	0.0946	0.4556	0.1679	-0.685
Mof_C 	C 	0.9927	0.3344	0.8108	0.3
Mof_H 	H 	0.0396	0.3665	0.8456	-0.07
Mof_H 	H 	0.0059	0.3122	0.7607	-0.055
Mof_H 	H 	0.9713	0.3665	0.7895	-0.587
Mof_C 	C 	0.0162	0.2081	0.055	0.284
Mof_H 	H 	0.0539	0.1902	0.0495	-0.04
Mof_H 	H 	0.9704	0.1755	0.019	0.006
Mof_H 	H 	0.0003	0.2042	0.117	-0.012
Mof_C 	C 	0.9281	0.373	0.3096	0.044
Mof_H 	H 	0.9271	0.3959	0.3665	0.001
Mof_H 	H 	0.9787	0.3757	0.3028	0.039
Mof_H 	H 	0.8865	0.3191	0.307	0.022
Mof_C 	C 	0.844	0.4894	0.0643	-0.092
Mof_H 	H 	0.8083	0.51	0.0689	-0.033
Mof_H 	H 	0.8707	0.5041	0.0074	-0.174
Mof_H 	H 	0.8825	0.5109	0.1117	0.023
Mof_C 	C 	0.8641	0.3197	0.9927	-0.075
Mof_C 	C 	0.9142	0.2909	0.9778	0.056
Mof_C 	C 	0.947	0.2731	0.0484	0.225
Mof_C 	C 	0.9298	0.2841	0.1338	-0.124
Mof_C 	C 	0.8796	0.3128	0.1488	0.003
Mof_C 	C 	0.8469	0.3307	0.0782	0.143
Mof_C 	C 	0.9627	0.2627	0.216	0.019
Mof_O 	O 	0.0296	0.3186	0.235	0.576
Mof_O 	O 	0.9253	0.2021	0.2622	-0.174
Mof_O 	O 	0.901	0.54	0.85	-0.301
Mof_H 	H 	0.929	0.527	0.88	0.265
Mof_H 	H 	0.925	0.588	0.848	1.174
Mof_S 	S 	0.7747	0.3588	0.0951	0.199
Mof_C 	C 	0.0922	0.3176	0.984	0.473
Mof_H 	H 	0.1333	0.3052	0.9718	-0.1
Mof_H 	H 	0.1122	0.3627	0.023	-0.011
Mof_H 	H 	0.0753	0.3297	0.9283	-0.068
Mof_S 	S 	0.0126	0.2371	0.0338	-0.234
Mof_S 	S 	0.9324	0.2764	0.861	0.033
Mof_S 	S 	0.8525	0.3225	0.2642	0.013
Mof_C 	C 	0.992	0.373	0.8292	0.151
Mof_H 	H 	0.0051	0.4069	0.8807	-0.039
Mof_H 	H 	0.0399	0.3793	0.8028	-0.045
Mof_H 	H 	0.9645	0.3872	0.7861	0.441
Mof_C 	C 	0.9212	0.4202	0.282	-0.407
Mof_H 	H 	0.9146	0.4353	0.3412	0.134
Mof_H 	H 	0.9131	0.4524	0.2386	0.196
Mof_H 	H 	0.9735	0.4279	0.2753	0.184
Mof_C 	C 	0.8293	0.4602	0.086	-0.351
Mof_H 	H 	0.7951	0.4822	0.0942	0.172
Mof_H 	H 	0.8532	0.4743	0.0276	0.326
Mof_H 	H 	0.87	0.4809	0.1309	0.121
Mof_Eu	Eu	0.78177	0.44228	0.78748	2.417
Mof_O 	O 	0.8601	0.4824	0.661	-0.593
Mof_O 	O 	0.7931	0.4245	0.541	-0.627
Mof_O 	O 	0.7423	0.3257	0.6989	-0.974
Mof_H 	H 	0.7881	0.3226	0.6765	0.187
Mof_O 	O 	0.6618	0.3464	0.425	-0.252
Mof_H 	H 	0.6985	0.3692	0.3885	0.02
Mof_H 	H 	0.6204	0.3277	0.3956	0.168
Mof_O 	O 	0.7517	0.2565	0.9034	-0.609
Mof_O 	O 	0.8356	0.3792	0.8708	-0.617
Mof_S 	S 	0.90307	0.34209	0.60549	-0.032
Mof_S 	S 	0.93091	0.61332	0.4869	0.046
Mof_Eu	Eu	0.33333	0.66667	0.41665	2.39
Mof_O 	O 	0.33333	0.66667	0.152	-0.94
Mof_H 	H 	0.33333	0.66667	0.0863	0.205
Mof_Eu	Eu	0.66667	0.33333	0.58335	2.39
Mof_O 	O 	0.66667	0.33333	0.848	-0.94
Mof_H 	H 	0.66667	0.33333	0.9137	0.205
_end
