data_functionalizedCrystal
_audit_creation_method	'EQeq! by Chris Wilmer'
_symmetry_space_group_name_H-M	'P1'
_symmetry_Int_Tables_number	1
_symmetry_cell_setting	triclinic
loop_
_symmetry_equiv_pos_as_xyz
  x,y,z
_cell_length_a	41.5947
_cell_length_b	41.5947
_cell_length_c	41.5947
_cell_angle_alpha	90
_cell_angle_beta	90
_cell_angle_gamma	90
loop_
_atom_site_label
_atom_site_type_symbol
_atom_site_fract_x
_atom_site_fract_y
_atom_site_fract_z
_atom_site_charge
Mof_Cd	Cd	0.44864	0.3257	0.17909	0.35
Mof_Cd	Cd	0.40612	0.2431	0.21271	0.37
Mof_Cd	Cd	0.51984	0.1703	0.99353	0.374
Mof_Cd	Cd	0.55674	0.28399	0.41298	0.344
Mof_Cd	Cd	0.05136	0.6743	0.67909	0.35
Mof_Cd	Cd	0.09388	0.7569	0.71271	0.37
Mof_Cd	Cd	0.98016	0.8297	0.49353	0.374
Mof_Cd	Cd	0.94326	0.71601	0.91298	0.344
Mof_Cd	Cd	0.55136	0.8257	0.32091	0.35
Mof_Cd	Cd	0.59388	0.7431	0.28729	0.37
Mof_Cd	Cd	0.48016	0.6703	0.50647	0.374
Mof_Cd	Cd	0.44326	0.78399	0.08702	0.344
Mof_Cd	Cd	0.94864	0.1743	0.82091	0.35
Mof_Cd	Cd	0.90612	0.2569	0.78729	0.37
Mof_Cd	Cd	0.01984	0.3297	0.00647	0.374
Mof_Cd	Cd	0.05674	0.21601	0.58702	0.344
Mof_Cd	Cd	0.17909	0.44864	0.3257	0.35
Mof_Cd	Cd	0.21271	0.40612	0.2431	0.37
Mof_Cd	Cd	0.99353	0.51984	0.1703	0.374
Mof_Cd	Cd	0.41298	0.55674	0.28399	0.344
Mof_Cd	Cd	0.67909	0.05136	0.6743	0.35
Mof_Cd	Cd	0.71271	0.09388	0.7569	0.37
Mof_Cd	Cd	0.49353	0.98016	0.8297	0.374
Mof_Cd	Cd	0.91298	0.94326	0.71601	0.344
Mof_Cd	Cd	0.32091	0.55136	0.8257	0.35
Mof_Cd	Cd	0.28729	0.59388	0.7431	0.37
Mof_Cd	Cd	0.50647	0.48016	0.6703	0.374
Mof_Cd	Cd	0.08702	0.44326	0.78399	0.344
Mof_Cd	Cd	0.82091	0.94864	0.1743	0.35
Mof_Cd	Cd	0.78729	0.90612	0.2569	0.37
Mof_Cd	Cd	0.00647	0.01984	0.3297	0.374
Mof_Cd	Cd	0.58702	0.05674	0.21601	0.344
Mof_Cd	Cd	0.3257	0.17909	0.44864	0.35
Mof_Cd	Cd	0.2431	0.21271	0.40612	0.37
Mof_Cd	Cd	0.1703	0.99353	0.51984	0.374
Mof_Cd	Cd	0.28399	0.41298	0.55674	0.344
Mof_Cd	Cd	0.6743	0.67909	0.05136	0.35
Mof_Cd	Cd	0.7569	0.71271	0.09388	0.37
Mof_Cd	Cd	0.8297	0.49353	0.98016	0.374
Mof_Cd	Cd	0.71601	0.91298	0.94326	0.344
Mof_Cd	Cd	0.8257	0.32091	0.55136	0.35
Mof_Cd	Cd	0.7431	0.28729	0.59388	0.37
Mof_Cd	Cd	0.6703	0.50647	0.48016	0.374
Mof_Cd	Cd	0.78399	0.08702	0.44326	0.344
Mof_Cd	Cd	0.1743	0.82091	0.94864	0.35
Mof_Cd	Cd	0.2569	0.78729	0.90612	0.37
Mof_Cd	Cd	0.3297	0.00647	0.01984	0.374
Mof_Cd	Cd	0.21601	0.58702	0.05674	0.344
Mof_Cd	Cd	0.55136	0.6743	0.82091	0.35
Mof_Cd	Cd	0.59388	0.7569	0.78729	0.37
Mof_Cd	Cd	0.48016	0.8297	0.00647	0.374
Mof_Cd	Cd	0.44326	0.71601	0.58702	0.344
Mof_Cd	Cd	0.94864	0.3257	0.32091	0.35
Mof_Cd	Cd	0.90612	0.2431	0.28729	0.37
Mof_Cd	Cd	0.01984	0.1703	0.50647	0.374
Mof_Cd	Cd	0.05674	0.28399	0.08702	0.344
Mof_Cd	Cd	0.44864	0.1743	0.67909	0.35
Mof_Cd	Cd	0.40612	0.2569	0.71271	0.37
Mof_Cd	Cd	0.51984	0.3297	0.49353	0.374
Mof_Cd	Cd	0.55674	0.21601	0.91298	0.344
Mof_Cd	Cd	0.05136	0.8257	0.17909	0.35
Mof_Cd	Cd	0.09388	0.7431	0.21271	0.37
Mof_Cd	Cd	0.98016	0.6703	0.99353	0.374
Mof_Cd	Cd	0.94326	0.78399	0.41298	0.344
Mof_Cd	Cd	0.82091	0.55136	0.6743	0.35
Mof_Cd	Cd	0.78729	0.59388	0.7569	0.37
Mof_Cd	Cd	0.00647	0.48016	0.8297	0.374
Mof_Cd	Cd	0.58702	0.44326	0.71601	0.344
Mof_Cd	Cd	0.32091	0.94864	0.3257	0.35
Mof_Cd	Cd	0.28729	0.90612	0.2431	0.37
Mof_Cd	Cd	0.50647	0.01984	0.1703	0.374
Mof_Cd	Cd	0.08702	0.05674	0.28399	0.344
Mof_Cd	Cd	0.67909	0.44864	0.1743	0.351
Mof_Cd	Cd	0.71271	0.40612	0.2569	0.371
Mof_Cd	Cd	0.49353	0.51984	0.3297	0.375
Mof_Cd	Cd	0.91298	0.55674	0.21601	0.345
Mof_Cd	Cd	0.17909	0.05136	0.8257	0.351
Mof_Cd	Cd	0.21271	0.09388	0.7431	0.371
Mof_Cd	Cd	0.99353	0.98016	0.6703	0.375
Mof_Cd	Cd	0.41298	0.94326	0.78399	0.345
Mof_Cd	Cd	0.6743	0.82091	0.55136	0.351
Mof_Cd	Cd	0.7569	0.78729	0.59388	0.371
Mof_Cd	Cd	0.8297	0.00647	0.48016	0.375
Mof_Cd	Cd	0.71601	0.58702	0.44326	0.345
Mof_Cd	Cd	0.3257	0.32091	0.94864	0.351
Mof_Cd	Cd	0.2431	0.28729	0.90612	0.371
Mof_Cd	Cd	0.1703	0.50647	0.01984	0.375
Mof_Cd	Cd	0.28399	0.08702	0.05674	0.345
Mof_Cd	Cd	0.1743	0.67909	0.44864	0.351
Mof_Cd	Cd	0.2569	0.71271	0.40612	0.371
Mof_Cd	Cd	0.3297	0.49353	0.51984	0.375
Mof_Cd	Cd	0.21601	0.91298	0.55674	0.345
Mof_Cd	Cd	0.8257	0.17909	0.05136	0.351
Mof_Cd	Cd	0.7431	0.21271	0.09388	0.371
Mof_Cd	Cd	0.6703	0.99353	0.98016	0.375
Mof_Cd	Cd	0.78399	0.41298	0.94326	0.345
Mof_H 	H 	0.4764	0.2454	0.3232	0.077
Mof_H 	H 	0.5264	0.3247	0.2965	0.076
Mof_H 	H 	0.506	0.2439	0.37	0.014
Mof_H 	H 	0.5521	0.3217	0.3464	0.014
Mof_H 	H 	0.332	0.3908	0.2018	0.078
Mof_H 	H 	0.2931	0.3089	0.2345	0.077
Mof_H 	H 	0.2846	0.4164	0.2157	0.016
Mof_H 	H 	0.2486	0.3378	0.2513	0.015
Mof_H 	H 	0.4777	0.1786	0.112	0.084
Mof_H 	H 	0.4924	0.2651	0.0707	0.083
Mof_H 	H 	0.5201	0.238	0.0305	0.015
Mof_H 	H 	0.4966	0.1553	0.0646	0.004
Mof_H 	H 	0.4139	0.4435	0.2042	0.076
Mof_H 	H 	0.4918	0.4144	0.2551	0.076
Mof_H 	H 	0.4885	0.3652	0.227	0.016
Mof_H 	H 	0.4107	0.393	0.1815	0.011
Mof_H 	H 	0.4371	0.1238	0.1956	0.092
Mof_H 	H 	0.5095	0.1727	0.2301	0.091
Mof_H 	H 	0.405	0.1679	0.2033	-0.005
Mof_H 	H 	0.4727	0.2159	0.2377	0.012
Mof_H 	H 	0.4993	0.0599	0.9256	0.077
Mof_H 	H 	0.5253	0.1019	0.8434	0.077
Mof_H 	H 	0.486	0.0148	0.8978	0.012
Mof_H 	H 	0.5121	0.0561	0.8171	0.019
Mof_H 	H 	0.0236	0.7546	0.8232	0.077
Mof_H 	H 	0.9736	0.6753	0.7965	0.076
Mof_H 	H 	0.994	0.7561	0.87	0.014
Mof_H 	H 	0.9479	0.6783	0.8464	0.014
Mof_H 	H 	0.168	0.6092	0.7018	0.078
Mof_H 	H 	0.2069	0.6911	0.7345	0.077
Mof_H 	H 	0.2154	0.5836	0.7157	0.016
Mof_H 	H 	0.2514	0.6622	0.7513	0.015
Mof_H 	H 	0.0223	0.8214	0.612	0.084
Mof_H 	H 	0.0076	0.7349	0.5707	0.083
Mof_H 	H 	0.9799	0.762	0.5305	0.015
Mof_H 	H 	0.0034	0.8447	0.5646	0.004
Mof_H 	H 	0.0861	0.5565	0.7042	0.076
Mof_H 	H 	0.0082	0.5856	0.7551	0.076
Mof_H 	H 	0.0115	0.6348	0.727	0.016
Mof_H 	H 	0.0893	0.607	0.6815	0.011
Mof_H 	H 	0.0629	0.8762	0.6956	0.092
Mof_H 	H 	0.9905	0.8273	0.7301	0.091
Mof_H 	H 	0.095	0.8321	0.7033	-0.005
Mof_H 	H 	0.0273	0.7841	0.7377	0.012
Mof_H 	H 	0.0007	0.9401	0.4256	0.077
Mof_H 	H 	0.9747	0.8981	0.3434	0.077
Mof_H 	H 	0.014	0.9852	0.3978	0.012
Mof_H 	H 	0.9879	0.9439	0.3171	0.019
Mof_H 	H 	0.5236	0.7454	0.1768	0.077
Mof_H 	H 	0.4736	0.8247	0.2035	0.076
Mof_H 	H 	0.494	0.7439	0.13	0.014
Mof_H 	H 	0.4479	0.8217	0.1536	0.014
Mof_H 	H 	0.668	0.8908	0.2982	0.078
Mof_H 	H 	0.7069	0.8089	0.2655	0.077
Mof_H 	H 	0.7154	0.9164	0.2843	0.016
Mof_H 	H 	0.7514	0.8378	0.2487	0.015
Mof_H 	H 	0.5223	0.6786	0.388	0.084
Mof_H 	H 	0.5076	0.7651	0.4293	0.083
Mof_H 	H 	0.4799	0.738	0.4695	0.015
Mof_H 	H 	0.5034	0.6553	0.4354	0.004
Mof_H 	H 	0.5861	0.9435	0.2958	0.076
Mof_H 	H 	0.5082	0.9144	0.2449	0.076
Mof_H 	H 	0.5115	0.8652	0.273	0.016
Mof_H 	H 	0.5893	0.893	0.3185	0.011
Mof_H 	H 	0.5629	0.6238	0.3044	0.092
Mof_H 	H 	0.4905	0.6727	0.2699	0.091
Mof_H 	H 	0.595	0.6679	0.2967	-0.005
Mof_H 	H 	0.5273	0.7159	0.2623	0.012
Mof_H 	H 	0.5007	0.5599	0.5744	0.077
Mof_H 	H 	0.4747	0.6019	0.6566	0.077
Mof_H 	H 	0.514	0.5148	0.6022	0.012
Mof_H 	H 	0.4879	0.5561	0.6829	0.019
Mof_H 	H 	0.9764	0.2546	0.6768	0.077
Mof_H 	H 	0.0264	0.1753	0.7035	0.076
Mof_H 	H 	0.006	0.2561	0.63	0.014
Mof_H 	H 	0.0521	0.1783	0.6536	0.014
Mof_H 	H 	0.832	0.1092	0.7982	0.078
Mof_H 	H 	0.7931	0.1911	0.7655	0.077
Mof_H 	H 	0.7846	0.0836	0.7843	0.016
Mof_H 	H 	0.7486	0.1622	0.7487	0.015
Mof_H 	H 	0.9777	0.3214	0.888	0.084
Mof_H 	H 	0.9924	0.2349	0.9293	0.083
Mof_H 	H 	0.0201	0.262	0.9695	0.015
Mof_H 	H 	0.9966	0.3447	0.9354	0.004
Mof_H 	H 	0.9139	0.0565	0.7958	0.076
Mof_H 	H 	0.9918	0.0856	0.7449	0.076
Mof_H 	H 	0.9885	0.1348	0.773	0.016
Mof_H 	H 	0.9107	0.107	0.8185	0.011
Mof_H 	H 	0.9371	0.3762	0.8044	0.092
Mof_H 	H 	0.0095	0.3273	0.7699	0.091
Mof_H 	H 	0.905	0.3321	0.7967	-0.005
Mof_H 	H 	0.9727	0.2841	0.7623	0.012
Mof_H 	H 	0.9993	0.4401	0.0744	0.077
Mof_H 	H 	0.0253	0.3981	0.1566	0.077
Mof_H 	H 	0.986	0.4852	0.1022	0.012
Mof_H 	H 	0.0121	0.4439	0.1829	0.019
Mof_H 	H 	0.3232	0.4764	0.2454	0.077
Mof_H 	H 	0.2965	0.5264	0.3247	0.076
Mof_H 	H 	0.37	0.506	0.2439	0.014
Mof_H 	H 	0.3464	0.5521	0.3217	0.014
Mof_H 	H 	0.2018	0.332	0.3908	0.078
Mof_H 	H 	0.2345	0.2931	0.3089	0.077
Mof_H 	H 	0.2157	0.2846	0.4164	0.016
Mof_H 	H 	0.2513	0.2486	0.3378	0.015
Mof_H 	H 	0.112	0.4777	0.1786	0.084
Mof_H 	H 	0.0707	0.4924	0.2651	0.083
Mof_H 	H 	0.0305	0.5201	0.238	0.015
Mof_H 	H 	0.0646	0.4966	0.1553	0.004
Mof_H 	H 	0.2042	0.4139	0.4435	0.076
Mof_H 	H 	0.2551	0.4918	0.4144	0.076
Mof_H 	H 	0.227	0.4885	0.3652	0.016
Mof_H 	H 	0.1815	0.4107	0.393	0.011
Mof_H 	H 	0.1956	0.4371	0.1238	0.092
Mof_H 	H 	0.2301	0.5095	0.1727	0.091
Mof_H 	H 	0.2033	0.405	0.1679	-0.005
Mof_H 	H 	0.2377	0.4727	0.2159	0.012
Mof_H 	H 	0.9256	0.4993	0.0599	0.077
Mof_H 	H 	0.8434	0.5253	0.1019	0.077
Mof_H 	H 	0.8978	0.486	0.0148	0.012
Mof_H 	H 	0.8171	0.5121	0.0561	0.019
Mof_H 	H 	0.8232	0.0236	0.7546	0.077
Mof_H 	H 	0.7965	0.9736	0.6753	0.076
Mof_H 	H 	0.87	0.994	0.7561	0.014
Mof_H 	H 	0.8464	0.9479	0.6783	0.014
Mof_H 	H 	0.7018	0.168	0.6092	0.078
Mof_H 	H 	0.7345	0.2069	0.6911	0.077
Mof_H 	H 	0.7157	0.2154	0.5836	0.016
Mof_H 	H 	0.7513	0.2514	0.6622	0.015
Mof_H 	H 	0.612	0.0223	0.8214	0.084
Mof_H 	H 	0.5707	0.0076	0.7349	0.083
Mof_H 	H 	0.5305	0.9799	0.762	0.015
Mof_H 	H 	0.5646	0.0034	0.8447	0.004
Mof_H 	H 	0.7042	0.0861	0.5565	0.076
Mof_H 	H 	0.7551	0.0082	0.5856	0.076
Mof_H 	H 	0.727	0.0115	0.6348	0.016
Mof_H 	H 	0.6815	0.0893	0.607	0.011
Mof_H 	H 	0.6956	0.0629	0.8762	0.092
Mof_H 	H 	0.7301	0.9905	0.8273	0.091
Mof_H 	H 	0.7033	0.095	0.8321	-0.005
Mof_H 	H 	0.7377	0.0273	0.7841	0.012
Mof_H 	H 	0.4256	0.0007	0.9401	0.077
Mof_H 	H 	0.3434	0.9747	0.8981	0.077
Mof_H 	H 	0.3978	0.014	0.9852	0.012
Mof_H 	H 	0.3171	0.9879	0.9439	0.019
Mof_H 	H 	0.1768	0.5236	0.7454	0.077
Mof_H 	H 	0.2035	0.4736	0.8247	0.076
Mof_H 	H 	0.13	0.494	0.7439	0.014
Mof_H 	H 	0.1536	0.4479	0.8217	0.014
Mof_H 	H 	0.2982	0.668	0.8908	0.078
Mof_H 	H 	0.2655	0.7069	0.8089	0.077
Mof_H 	H 	0.2843	0.7154	0.9164	0.016
Mof_H 	H 	0.2487	0.7514	0.8378	0.015
Mof_H 	H 	0.388	0.5223	0.6786	0.084
Mof_H 	H 	0.4293	0.5076	0.7651	0.083
Mof_H 	H 	0.4695	0.4799	0.738	0.015
Mof_H 	H 	0.4354	0.5034	0.6553	0.004
Mof_H 	H 	0.2958	0.5861	0.9435	0.076
Mof_H 	H 	0.2449	0.5082	0.9144	0.076
Mof_H 	H 	0.273	0.5115	0.8652	0.016
Mof_H 	H 	0.3185	0.5893	0.893	0.011
Mof_H 	H 	0.3044	0.5629	0.6238	0.092
Mof_H 	H 	0.2699	0.4905	0.6727	0.091
Mof_H 	H 	0.2967	0.595	0.6679	-0.005
Mof_H 	H 	0.2623	0.5273	0.7159	0.012
Mof_H 	H 	0.5744	0.5007	0.5599	0.077
Mof_H 	H 	0.6566	0.4747	0.6019	0.077
Mof_H 	H 	0.6022	0.514	0.5148	0.012
Mof_H 	H 	0.6829	0.4879	0.5561	0.019
Mof_H 	H 	0.6768	0.9764	0.2546	0.077
Mof_H 	H 	0.7035	0.0264	0.1753	0.076
Mof_H 	H 	0.63	0.006	0.2561	0.014
Mof_H 	H 	0.6536	0.0521	0.1783	0.014
Mof_H 	H 	0.7982	0.832	0.1092	0.078
Mof_H 	H 	0.7655	0.7931	0.1911	0.077
Mof_H 	H 	0.7843	0.7846	0.0836	0.016
Mof_H 	H 	0.7487	0.7486	0.1622	0.015
Mof_H 	H 	0.888	0.9777	0.3214	0.084
Mof_H 	H 	0.9293	0.9924	0.2349	0.083
Mof_H 	H 	0.9695	0.0201	0.262	0.015
Mof_H 	H 	0.9354	0.9966	0.3447	0.004
Mof_H 	H 	0.7958	0.9139	0.0565	0.076
Mof_H 	H 	0.7449	0.9918	0.0856	0.076
Mof_H 	H 	0.773	0.9885	0.1348	0.016
Mof_H 	H 	0.8185	0.9107	0.107	0.011
Mof_H 	H 	0.8044	0.9371	0.3762	0.092
Mof_H 	H 	0.7699	0.0095	0.3273	0.091
Mof_H 	H 	0.7967	0.905	0.3321	-0.005
Mof_H 	H 	0.7623	0.9727	0.2841	0.012
Mof_H 	H 	0.0744	0.9993	0.4401	0.077
Mof_H 	H 	0.1566	0.0253	0.3981	0.077
Mof_H 	H 	0.1022	0.986	0.4852	0.012
Mof_H 	H 	0.1829	0.0121	0.4439	0.019
Mof_H 	H 	0.2454	0.3232	0.4764	0.077
Mof_H 	H 	0.3247	0.2965	0.5264	0.076
Mof_H 	H 	0.2439	0.37	0.506	0.014
Mof_H 	H 	0.3217	0.3464	0.5521	0.014
Mof_H 	H 	0.3908	0.2018	0.332	0.078
Mof_H 	H 	0.3089	0.2345	0.2931	0.077
Mof_H 	H 	0.4164	0.2157	0.2846	0.016
Mof_H 	H 	0.3378	0.2513	0.2486	0.015
Mof_H 	H 	0.1786	0.112	0.4777	0.084
Mof_H 	H 	0.2651	0.0707	0.4924	0.083
Mof_H 	H 	0.238	0.0305	0.5201	0.015
Mof_H 	H 	0.1553	0.0646	0.4966	0.004
Mof_H 	H 	0.4435	0.2042	0.4139	0.076
Mof_H 	H 	0.4144	0.2551	0.4918	0.076
Mof_H 	H 	0.3652	0.227	0.4885	0.016
Mof_H 	H 	0.393	0.1815	0.4107	0.011
Mof_H 	H 	0.1238	0.1956	0.4371	0.092
Mof_H 	H 	0.1727	0.2301	0.5095	0.091
Mof_H 	H 	0.1679	0.2033	0.405	-0.005
Mof_H 	H 	0.2159	0.2377	0.4727	0.012
Mof_H 	H 	0.0599	0.9256	0.4993	0.077
Mof_H 	H 	0.1019	0.8434	0.5253	0.077
Mof_H 	H 	0.0148	0.8978	0.486	0.012
Mof_H 	H 	0.0561	0.8171	0.5121	0.019
Mof_H 	H 	0.7546	0.8232	0.0236	0.077
Mof_H 	H 	0.6753	0.7965	0.9736	0.076
Mof_H 	H 	0.7561	0.87	0.994	0.014
Mof_H 	H 	0.6783	0.8464	0.9479	0.014
Mof_H 	H 	0.6092	0.7018	0.168	0.078
Mof_H 	H 	0.6911	0.7345	0.2069	0.077
Mof_H 	H 	0.5836	0.7157	0.2154	0.016
Mof_H 	H 	0.6622	0.7513	0.2514	0.015
Mof_H 	H 	0.8214	0.612	0.0223	0.084
Mof_H 	H 	0.7349	0.5707	0.0076	0.083
Mof_H 	H 	0.762	0.5305	0.9799	0.015
Mof_H 	H 	0.8447	0.5646	0.0034	0.004
Mof_H 	H 	0.5565	0.7042	0.0861	0.076
Mof_H 	H 	0.5856	0.7551	0.0082	0.076
Mof_H 	H 	0.6348	0.727	0.0115	0.016
Mof_H 	H 	0.607	0.6815	0.0893	0.011
Mof_H 	H 	0.8762	0.6956	0.0629	0.092
Mof_H 	H 	0.8273	0.7301	0.9905	0.091
Mof_H 	H 	0.8321	0.7033	0.095	-0.005
Mof_H 	H 	0.7841	0.7377	0.0273	0.012
Mof_H 	H 	0.9401	0.4256	0.0007	0.077
Mof_H 	H 	0.8981	0.3434	0.9747	0.077
Mof_H 	H 	0.9852	0.3978	0.014	0.012
Mof_H 	H 	0.9439	0.3171	0.9879	0.019
Mof_H 	H 	0.7454	0.1768	0.5236	0.077
Mof_H 	H 	0.8247	0.2035	0.4736	0.076
Mof_H 	H 	0.7439	0.13	0.494	0.014
Mof_H 	H 	0.8217	0.1536	0.4479	0.014
Mof_H 	H 	0.8908	0.2982	0.668	0.078
Mof_H 	H 	0.8089	0.2655	0.7069	0.077
Mof_H 	H 	0.9164	0.2843	0.7154	0.016
Mof_H 	H 	0.8378	0.2487	0.7514	0.015
Mof_H 	H 	0.6786	0.388	0.5223	0.084
Mof_H 	H 	0.7651	0.4293	0.5076	0.083
Mof_H 	H 	0.738	0.4695	0.4799	0.015
Mof_H 	H 	0.6553	0.4354	0.5034	0.004
Mof_H 	H 	0.9435	0.2958	0.5861	0.076
Mof_H 	H 	0.9144	0.2449	0.5082	0.076
Mof_H 	H 	0.8652	0.273	0.5115	0.016
Mof_H 	H 	0.893	0.3185	0.5893	0.011
Mof_H 	H 	0.6238	0.3044	0.5629	0.092
Mof_H 	H 	0.6727	0.2699	0.4905	0.091
Mof_H 	H 	0.6679	0.2967	0.595	-0.005
Mof_H 	H 	0.7159	0.2623	0.5273	0.012
Mof_H 	H 	0.5599	0.5744	0.5007	0.077
Mof_H 	H 	0.6019	0.6566	0.4747	0.077
Mof_H 	H 	0.5148	0.6022	0.514	0.012
Mof_H 	H 	0.5561	0.6829	0.4879	0.019
Mof_H 	H 	0.2546	0.6768	0.9764	0.077
Mof_H 	H 	0.1753	0.7035	0.0264	0.076
Mof_H 	H 	0.2561	0.63	0.006	0.014
Mof_H 	H 	0.1783	0.6536	0.0521	0.014
Mof_H 	H 	0.1092	0.7982	0.832	0.078
Mof_H 	H 	0.1911	0.7655	0.7931	0.077
Mof_H 	H 	0.0836	0.7843	0.7846	0.016
Mof_H 	H 	0.1622	0.7487	0.7486	0.015
Mof_H 	H 	0.3214	0.888	0.9777	0.084
Mof_H 	H 	0.2349	0.9293	0.9924	0.083
Mof_H 	H 	0.262	0.9695	0.0201	0.015
Mof_H 	H 	0.3447	0.9354	0.9966	0.004
Mof_H 	H 	0.0565	0.7958	0.9139	0.076
Mof_H 	H 	0.0856	0.7449	0.9918	0.076
Mof_H 	H 	0.1348	0.773	0.9885	0.016
Mof_H 	H 	0.107	0.8185	0.9107	0.011
Mof_H 	H 	0.3762	0.8044	0.9371	0.092
Mof_H 	H 	0.3273	0.7699	0.0095	0.091
Mof_H 	H 	0.3321	0.7967	0.905	-0.005
Mof_H 	H 	0.2841	0.7623	0.9727	0.012
Mof_H 	H 	0.4401	0.0744	0.9993	0.077
Mof_H 	H 	0.3981	0.1566	0.0253	0.077
Mof_H 	H 	0.4852	0.1022	0.986	0.012
Mof_H 	H 	0.4439	0.1829	0.0121	0.019
Mof_H 	H 	0.5236	0.7546	0.6768	0.077
Mof_H 	H 	0.4736	0.6753	0.7035	0.076
Mof_H 	H 	0.494	0.7561	0.63	0.014
Mof_H 	H 	0.4479	0.6783	0.6536	0.014
Mof_H 	H 	0.668	0.6092	0.7982	0.078
Mof_H 	H 	0.7069	0.6911	0.7655	0.077
Mof_H 	H 	0.7154	0.5836	0.7843	0.016
Mof_H 	H 	0.7514	0.6622	0.7487	0.015
Mof_H 	H 	0.5223	0.8214	0.888	0.084
Mof_H 	H 	0.5076	0.7349	0.9293	0.083
Mof_H 	H 	0.4799	0.762	0.9695	0.015
Mof_H 	H 	0.5034	0.8447	0.9354	0.004
Mof_H 	H 	0.5861	0.5565	0.7958	0.076
Mof_H 	H 	0.5082	0.5856	0.7449	0.076
Mof_H 	H 	0.5115	0.6348	0.773	0.016
Mof_H 	H 	0.5893	0.607	0.8185	0.011
Mof_H 	H 	0.5629	0.8762	0.8044	0.092
Mof_H 	H 	0.4905	0.8273	0.7699	0.091
Mof_H 	H 	0.595	0.8321	0.7967	-0.005
Mof_H 	H 	0.5273	0.7841	0.7623	0.012
Mof_H 	H 	0.5007	0.9401	0.0744	0.077
Mof_H 	H 	0.4747	0.8981	0.1566	0.077
Mof_H 	H 	0.514	0.9852	0.1022	0.012
Mof_H 	H 	0.4879	0.9439	0.1829	0.019
Mof_H 	H 	0.9764	0.2454	0.1768	0.077
Mof_H 	H 	0.0264	0.3247	0.2035	0.076
Mof_H 	H 	0.006	0.2439	0.13	0.014
Mof_H 	H 	0.0521	0.3217	0.1536	0.014
Mof_H 	H 	0.832	0.3908	0.2982	0.078
Mof_H 	H 	0.7931	0.3089	0.2655	0.077
Mof_H 	H 	0.7846	0.4164	0.2843	0.016
Mof_H 	H 	0.7486	0.3378	0.2487	0.015
Mof_H 	H 	0.9777	0.1786	0.388	0.084
Mof_H 	H 	0.9924	0.2651	0.4293	0.083
Mof_H 	H 	0.0201	0.238	0.4695	0.015
Mof_H 	H 	0.9966	0.1553	0.4354	0.004
Mof_H 	H 	0.9139	0.4435	0.2958	0.076
Mof_H 	H 	0.9918	0.4144	0.2449	0.076
Mof_H 	H 	0.9885	0.3652	0.273	0.016
Mof_H 	H 	0.9107	0.393	0.3185	0.011
Mof_H 	H 	0.9371	0.1238	0.3044	0.092
Mof_H 	H 	0.0095	0.1727	0.2699	0.091
Mof_H 	H 	0.905	0.1679	0.2967	-0.005
Mof_H 	H 	0.9727	0.2159	0.2623	0.012
Mof_H 	H 	0.9993	0.0599	0.5744	0.077
Mof_H 	H 	0.0253	0.1019	0.6566	0.077
Mof_H 	H 	0.986	0.0148	0.6022	0.012
Mof_H 	H 	0.0121	0.0561	0.6829	0.019
Mof_H 	H 	0.4764	0.2546	0.8232	0.077
Mof_H 	H 	0.5264	0.1753	0.7965	0.076
Mof_H 	H 	0.506	0.2561	0.87	0.014
Mof_H 	H 	0.5521	0.1783	0.8464	0.014
Mof_H 	H 	0.332	0.1092	0.7018	0.078
Mof_H 	H 	0.2931	0.1911	0.7345	0.077
Mof_H 	H 	0.2846	0.0836	0.7157	0.016
Mof_H 	H 	0.2486	0.1622	0.7513	0.015
Mof_H 	H 	0.4777	0.3214	0.612	0.084
Mof_H 	H 	0.4924	0.2349	0.5707	0.083
Mof_H 	H 	0.5201	0.262	0.5305	0.015
Mof_H 	H 	0.4966	0.3447	0.5646	0.004
Mof_H 	H 	0.4139	0.0565	0.7042	0.076
Mof_H 	H 	0.4918	0.0856	0.7551	0.076
Mof_H 	H 	0.4885	0.1348	0.727	0.016
Mof_H 	H 	0.4107	0.107	0.6815	0.011
Mof_H 	H 	0.4371	0.3762	0.6956	0.092
Mof_H 	H 	0.5095	0.3273	0.7301	0.091
Mof_H 	H 	0.405	0.3321	0.7033	-0.005
Mof_H 	H 	0.4727	0.2841	0.7377	0.012
Mof_H 	H 	0.4993	0.4401	0.4256	0.077
Mof_H 	H 	0.5253	0.3981	0.3434	0.077
Mof_H 	H 	0.486	0.4852	0.3978	0.012
Mof_H 	H 	0.5121	0.4439	0.3171	0.019
Mof_H 	H 	0.0236	0.7454	0.3232	0.077
Mof_H 	H 	0.9736	0.8247	0.2965	0.076
Mof_H 	H 	0.994	0.7439	0.37	0.014
Mof_H 	H 	0.9479	0.8217	0.3464	0.014
Mof_H 	H 	0.168	0.8908	0.2018	0.078
Mof_H 	H 	0.2069	0.8089	0.2345	0.077
Mof_H 	H 	0.2154	0.9164	0.2157	0.016
Mof_H 	H 	0.2514	0.8378	0.2513	0.015
Mof_H 	H 	0.0223	0.6786	0.112	0.084
Mof_H 	H 	0.0076	0.7651	0.0707	0.083
Mof_H 	H 	0.9799	0.738	0.0305	0.015
Mof_H 	H 	0.0034	0.6553	0.0646	0.004
Mof_H 	H 	0.0861	0.9435	0.2042	0.076
Mof_H 	H 	0.0082	0.9144	0.2551	0.076
Mof_H 	H 	0.0115	0.8652	0.227	0.016
Mof_H 	H 	0.0893	0.893	0.1815	0.011
Mof_H 	H 	0.0629	0.6238	0.1956	0.092
Mof_H 	H 	0.9905	0.6727	0.2301	0.091
Mof_H 	H 	0.095	0.6679	0.2033	-0.005
Mof_H 	H 	0.0273	0.7159	0.2377	0.012
Mof_H 	H 	0.0007	0.5599	0.9256	0.077
Mof_H 	H 	0.9747	0.6019	0.8434	0.077
Mof_H 	H 	0.014	0.5148	0.8978	0.012
Mof_H 	H 	0.9879	0.5561	0.8171	0.019
Mof_H 	H 	0.6768	0.5236	0.7546	0.077
Mof_H 	H 	0.7035	0.4736	0.6753	0.076
Mof_H 	H 	0.63	0.494	0.7561	0.014
Mof_H 	H 	0.6536	0.4479	0.6783	0.014
Mof_H 	H 	0.7982	0.668	0.6092	0.078
Mof_H 	H 	0.7655	0.7069	0.6911	0.077
Mof_H 	H 	0.7843	0.7154	0.5836	0.016
Mof_H 	H 	0.7487	0.7514	0.6622	0.015
Mof_H 	H 	0.888	0.5223	0.8214	0.084
Mof_H 	H 	0.9293	0.5076	0.7349	0.083
Mof_H 	H 	0.9695	0.4799	0.762	0.015
Mof_H 	H 	0.9354	0.5034	0.8447	0.004
Mof_H 	H 	0.7958	0.5861	0.5565	0.076
Mof_H 	H 	0.7449	0.5082	0.5856	0.076
Mof_H 	H 	0.773	0.5115	0.6348	0.016
Mof_H 	H 	0.8185	0.5893	0.607	0.011
Mof_H 	H 	0.8044	0.5629	0.8762	0.092
Mof_H 	H 	0.7699	0.4905	0.8273	0.091
Mof_H 	H 	0.7967	0.595	0.8321	-0.005
Mof_H 	H 	0.7623	0.5273	0.7841	0.012
Mof_H 	H 	0.0744	0.5007	0.9401	0.077
Mof_H 	H 	0.1566	0.4747	0.8981	0.077
Mof_H 	H 	0.1022	0.514	0.9852	0.012
Mof_H 	H 	0.1829	0.4879	0.9439	0.019
Mof_H 	H 	0.1768	0.9764	0.2454	0.077
Mof_H 	H 	0.2035	0.0264	0.3247	0.076
Mof_H 	H 	0.13	0.006	0.2439	0.014
Mof_H 	H 	0.1536	0.0521	0.3217	0.014
Mof_H 	H 	0.2982	0.832	0.3908	0.078
Mof_H 	H 	0.2655	0.7931	0.3089	0.077
Mof_H 	H 	0.2843	0.7846	0.4164	0.016
Mof_H 	H 	0.2487	0.7486	0.3378	0.015
Mof_H 	H 	0.388	0.9777	0.1786	0.084
Mof_H 	H 	0.4293	0.9924	0.2651	0.083
Mof_H 	H 	0.4695	0.0201	0.238	0.015
Mof_H 	H 	0.4354	0.9966	0.1553	0.004
Mof_H 	H 	0.2958	0.9139	0.4435	0.076
Mof_H 	H 	0.2449	0.9918	0.4144	0.076
Mof_H 	H 	0.273	0.9885	0.3652	0.016
Mof_H 	H 	0.3185	0.9107	0.393	0.011
Mof_H 	H 	0.3044	0.9371	0.1238	0.092
Mof_H 	H 	0.2699	0.0095	0.1727	0.091
Mof_H 	H 	0.2967	0.905	0.1679	-0.005
Mof_H 	H 	0.2623	0.9727	0.2159	0.012
Mof_H 	H 	0.5744	0.9993	0.0599	0.077
Mof_H 	H 	0.6566	0.0253	0.1019	0.077
Mof_H 	H 	0.6022	0.986	0.0148	0.012
Mof_H 	H 	0.6829	0.0121	0.0561	0.019
Mof_H 	H 	0.8232	0.4764	0.2546	0.077
Mof_H 	H 	0.7965	0.5264	0.1753	0.076
Mof_H 	H 	0.87	0.506	0.2561	0.014
Mof_H 	H 	0.8464	0.5521	0.1783	0.014
Mof_H 	H 	0.7018	0.332	0.1092	0.078
Mof_H 	H 	0.7345	0.2931	0.1911	0.077
Mof_H 	H 	0.7157	0.2846	0.0836	0.016
Mof_H 	H 	0.7513	0.2486	0.1622	0.015
Mof_H 	H 	0.612	0.4777	0.3214	0.084
Mof_H 	H 	0.5707	0.4924	0.2349	0.083
Mof_H 	H 	0.5305	0.5201	0.262	0.015
Mof_H 	H 	0.5646	0.4966	0.3447	0.004
Mof_H 	H 	0.7042	0.4139	0.0565	0.076
Mof_H 	H 	0.7551	0.4918	0.0856	0.076
Mof_H 	H 	0.727	0.4885	0.1348	0.016
Mof_H 	H 	0.6815	0.4107	0.107	0.011
Mof_H 	H 	0.6956	0.4371	0.3762	0.092
Mof_H 	H 	0.7301	0.5095	0.3273	0.091
Mof_H 	H 	0.7033	0.405	0.3321	-0.005
Mof_H 	H 	0.7377	0.4727	0.2841	0.012
Mof_H 	H 	0.4256	0.4993	0.4401	0.077
Mof_H 	H 	0.3434	0.5253	0.3981	0.077
Mof_H 	H 	0.3978	0.486	0.4852	0.012
Mof_H 	H 	0.3171	0.5121	0.4439	0.019
Mof_H 	H 	0.3232	0.0236	0.7454	0.077
Mof_H 	H 	0.2965	0.9736	0.8247	0.076
Mof_H 	H 	0.37	0.994	0.7439	0.014
Mof_H 	H 	0.3464	0.9479	0.8217	0.014
Mof_H 	H 	0.2018	0.168	0.8908	0.078
Mof_H 	H 	0.2345	0.2069	0.8089	0.077
Mof_H 	H 	0.2157	0.2154	0.9164	0.016
Mof_H 	H 	0.2513	0.2514	0.8378	0.015
Mof_H 	H 	0.112	0.0223	0.6786	0.084
Mof_H 	H 	0.0707	0.0076	0.7651	0.083
Mof_H 	H 	0.0305	0.9799	0.738	0.015
Mof_H 	H 	0.0646	0.0034	0.6553	0.004
Mof_H 	H 	0.2042	0.0861	0.9435	0.076
Mof_H 	H 	0.2551	0.0082	0.9144	0.076
Mof_H 	H 	0.227	0.0115	0.8652	0.016
Mof_H 	H 	0.1815	0.0893	0.893	0.011
Mof_H 	H 	0.1956	0.0629	0.6238	0.092
Mof_H 	H 	0.2301	0.9905	0.6727	0.091
Mof_H 	H 	0.2033	0.095	0.6679	-0.005
Mof_H 	H 	0.2377	0.0273	0.7159	0.012
Mof_H 	H 	0.9256	0.0007	0.5599	0.077
Mof_H 	H 	0.8434	0.9747	0.6019	0.077
Mof_H 	H 	0.8978	0.014	0.5148	0.012
Mof_H 	H 	0.8171	0.9879	0.5561	0.019
Mof_H 	H 	0.7546	0.6768	0.5236	0.077
Mof_H 	H 	0.6753	0.7035	0.4736	0.076
Mof_H 	H 	0.7561	0.63	0.494	0.014
Mof_H 	H 	0.6783	0.6536	0.4479	0.014
Mof_H 	H 	0.6092	0.7982	0.668	0.078
Mof_H 	H 	0.6911	0.7655	0.7069	0.077
Mof_H 	H 	0.5836	0.7843	0.7154	0.016
Mof_H 	H 	0.6622	0.7487	0.7514	0.015
Mof_H 	H 	0.8214	0.888	0.5223	0.084
Mof_H 	H 	0.7349	0.9293	0.5076	0.083
Mof_H 	H 	0.762	0.9695	0.4799	0.015
Mof_H 	H 	0.8447	0.9354	0.5034	0.004
Mof_H 	H 	0.5565	0.7958	0.5861	0.076
Mof_H 	H 	0.5856	0.7449	0.5082	0.076
Mof_H 	H 	0.6348	0.773	0.5115	0.016
Mof_H 	H 	0.607	0.8185	0.5893	0.011
Mof_H 	H 	0.8762	0.8044	0.5629	0.092
Mof_H 	H 	0.8273	0.7699	0.4905	0.091
Mof_H 	H 	0.8321	0.7967	0.595	-0.005
Mof_H 	H 	0.7841	0.7623	0.5273	0.012
Mof_H 	H 	0.9401	0.0744	0.5007	0.077
Mof_H 	H 	0.8981	0.1566	0.4747	0.077
Mof_H 	H 	0.9852	0.1022	0.514	0.012
Mof_H 	H 	0.9439	0.1829	0.4879	0.019
Mof_H 	H 	0.2454	0.1768	0.9764	0.077
Mof_H 	H 	0.3247	0.2035	0.0264	0.076
Mof_H 	H 	0.2439	0.13	0.006	0.014
Mof_H 	H 	0.3217	0.1536	0.0521	0.014
Mof_H 	H 	0.3908	0.2982	0.832	0.078
Mof_H 	H 	0.3089	0.2655	0.7931	0.077
Mof_H 	H 	0.4164	0.2843	0.7846	0.016
Mof_H 	H 	0.3378	0.2487	0.7486	0.015
Mof_H 	H 	0.1786	0.388	0.9777	0.084
Mof_H 	H 	0.2651	0.4293	0.9924	0.083
Mof_H 	H 	0.238	0.4695	0.0201	0.015
Mof_H 	H 	0.1553	0.4354	0.9966	0.004
Mof_H 	H 	0.4435	0.2958	0.9139	0.076
Mof_H 	H 	0.4144	0.2449	0.9918	0.076
Mof_H 	H 	0.3652	0.273	0.9885	0.016
Mof_H 	H 	0.393	0.3185	0.9107	0.011
Mof_H 	H 	0.1238	0.3044	0.9371	0.092
Mof_H 	H 	0.1727	0.2699	0.0095	0.091
Mof_H 	H 	0.1679	0.2967	0.905	-0.005
Mof_H 	H 	0.2159	0.2623	0.9727	0.012
Mof_H 	H 	0.0599	0.5744	0.9993	0.077
Mof_H 	H 	0.1019	0.6566	0.0253	0.077
Mof_H 	H 	0.0148	0.6022	0.986	0.012
Mof_H 	H 	0.0561	0.6829	0.0121	0.019
Mof_H 	H 	0.2546	0.8232	0.4764	0.077
Mof_H 	H 	0.1753	0.7965	0.5264	0.076
Mof_H 	H 	0.2561	0.87	0.506	0.014
Mof_H 	H 	0.1783	0.8464	0.5521	0.014
Mof_H 	H 	0.1092	0.7018	0.332	0.078
Mof_H 	H 	0.1911	0.7345	0.2931	0.077
Mof_H 	H 	0.0836	0.7157	0.2846	0.016
Mof_H 	H 	0.1622	0.7513	0.2486	0.015
Mof_H 	H 	0.3214	0.612	0.4777	0.084
Mof_H 	H 	0.2349	0.5707	0.4924	0.083
Mof_H 	H 	0.262	0.5305	0.5201	0.015
Mof_H 	H 	0.3447	0.5646	0.4966	0.004
Mof_H 	H 	0.0565	0.7042	0.4139	0.076
Mof_H 	H 	0.0856	0.7551	0.4918	0.076
Mof_H 	H 	0.1348	0.727	0.4885	0.016
Mof_H 	H 	0.107	0.6815	0.4107	0.011
Mof_H 	H 	0.3762	0.6956	0.4371	0.092
Mof_H 	H 	0.3273	0.7301	0.5095	0.091
Mof_H 	H 	0.3321	0.7033	0.405	-0.005
Mof_H 	H 	0.2841	0.7377	0.4727	0.012
Mof_H 	H 	0.4401	0.4256	0.4993	0.077
Mof_H 	H 	0.3981	0.3434	0.5253	0.077
Mof_H 	H 	0.4852	0.3978	0.486	0.012
Mof_H 	H 	0.4439	0.3171	0.5121	0.019
Mof_H 	H 	0.7454	0.3232	0.0236	0.077
Mof_H 	H 	0.8247	0.2965	0.9736	0.076
Mof_H 	H 	0.7439	0.37	0.994	0.014
Mof_H 	H 	0.8217	0.3464	0.9479	0.014
Mof_H 	H 	0.8908	0.2018	0.168	0.078
Mof_H 	H 	0.8089	0.2345	0.2069	0.077
Mof_H 	H 	0.9164	0.2157	0.2154	0.016
Mof_H 	H 	0.8378	0.2513	0.2514	0.015
Mof_H 	H 	0.6786	0.112	0.0223	0.084
Mof_H 	H 	0.7651	0.0707	0.0076	0.083
Mof_H 	H 	0.738	0.0305	0.9799	0.015
Mof_H 	H 	0.6553	0.0646	0.0034	0.004
Mof_H 	H 	0.9435	0.2042	0.0861	0.076
Mof_H 	H 	0.9144	0.2551	0.0082	0.076
Mof_H 	H 	0.8652	0.227	0.0115	0.016
Mof_H 	H 	0.893	0.1815	0.0893	0.011
Mof_H 	H 	0.6238	0.1956	0.0629	0.092
Mof_H 	H 	0.6727	0.2301	0.9905	0.091
Mof_H 	H 	0.6679	0.2033	0.095	-0.005
Mof_H 	H 	0.7159	0.2377	0.0273	0.012
Mof_H 	H 	0.5599	0.9256	0.0007	0.077
Mof_H 	H 	0.6019	0.8434	0.9747	0.077
Mof_H 	H 	0.5148	0.8978	0.014	0.012
Mof_H 	H 	0.5561	0.8171	0.9879	0.019
Mof_C 	C 	0.4796	0.2864	0.2744	0.099
Mof_C 	C 	0.4982	0.2852	0.3041	0.048
Mof_C 	C 	0.4924	0.2612	0.327	-0.114
Mof_C 	C 	0.5212	0.308	0.3112	-0.113
Mof_C 	C 	0.51	0.2608	0.3551	0.071
Mof_C 	C 	0.5369	0.3055	0.3412	0.07
Mof_C 	C 	0.3474	0.3288	0.2085	0.096
Mof_C 	C 	0.3183	0.347	0.2178	0.056
Mof_C 	C 	0.3151	0.379	0.2117	-0.118
Mof_C 	C 	0.2924	0.3315	0.2313	-0.118
Mof_C 	C 	0.2865	0.3941	0.2203	0.072
Mof_C 	C 	0.2653	0.3489	0.2403	0.072
Mof_C 	C 	0.4647	0.2404	0.1227	0.093
Mof_C 	C 	0.4808	0.2244	0.0952	0.063
Mof_C 	C 	0.4839	0.1916	0.0943	-0.132
Mof_C 	C 	0.4937	0.2423	0.0707	-0.132
Mof_C 	C 	0.5088	0.2257	0.0461	0.088
Mof_C 	C 	0.4967	0.1781	0.0664	0.085
Mof_C 	C 	0.4524	0.4638	0.2528	0.107
Mof_C 	C 	0.451	0.4336	0.2341	0.045
Mof_C 	C 	0.4287	0.4273	0.2105	-0.116
Mof_C 	C 	0.475	0.4105	0.2402	-0.107
Mof_C 	C 	0.4728	0.3813	0.2231	0.065
Mof_C 	C 	0.4277	0.3977	0.196	0.075
Mof_C 	C 	0.4968	0.1142	0.2127	0.081
Mof_C 	C 	0.4766	0.1426	0.2165	0.09
Mof_C 	C 	0.4457	0.1424	0.2056	-0.155
Mof_C 	C 	0.4874	0.1698	0.2254	-0.154
Mof_C 	C 	0.427	0.1697	0.2091	0.106
Mof_C 	C 	0.4647	0.1967	0.2281	0.104
Mof_C 	C 	0.5244	0.1147	0.9062	0.098
Mof_C 	C 	0.5149	0.0864	0.8883	0.051
Mof_C 	C 	0.5025	0.0596	0.903	-0.118
Mof_C 	C 	0.5177	0.084	0.8554	-0.115
Mof_C 	C 	0.4947	0.0325	0.8862	0.074
Mof_C 	C 	0.5097	0.0566	0.8398	0.069
Mof_C 	C 	0.0204	0.7136	0.7744	0.099
Mof_C 	C 	0.0018	0.7148	0.8041	0.048
Mof_C 	C 	0.0076	0.7388	0.827	-0.114
Mof_C 	C 	0.9788	0.692	0.8112	-0.113
Mof_C 	C 	0.99	0.7392	0.8551	0.071
Mof_C 	C 	0.9631	0.6945	0.8412	0.07
Mof_C 	C 	0.1526	0.6712	0.7085	0.096
Mof_C 	C 	0.1817	0.653	0.7178	0.056
Mof_C 	C 	0.1849	0.621	0.7117	-0.118
Mof_C 	C 	0.2076	0.6685	0.7313	-0.118
Mof_C 	C 	0.2135	0.6059	0.7203	0.072
Mof_C 	C 	0.2347	0.6511	0.7403	0.072
Mof_C 	C 	0.0353	0.7596	0.6227	0.093
Mof_C 	C 	0.0192	0.7756	0.5952	0.063
Mof_C 	C 	0.0161	0.8084	0.5943	-0.132
Mof_C 	C 	0.0063	0.7577	0.5707	-0.132
Mof_C 	C 	0.9912	0.7743	0.5461	0.088
Mof_C 	C 	0.0033	0.8219	0.5664	0.085
Mof_C 	C 	0.0476	0.5362	0.7528	0.107
Mof_C 	C 	0.049	0.5664	0.7341	0.045
Mof_C 	C 	0.0713	0.5727	0.7105	-0.116
Mof_C 	C 	0.025	0.5895	0.7402	-0.107
Mof_C 	C 	0.0272	0.6187	0.7231	0.065
Mof_C 	C 	0.0723	0.6023	0.696	0.075
Mof_C 	C 	0.0032	0.8858	0.7127	0.081
Mof_C 	C 	0.0234	0.8574	0.7165	0.09
Mof_C 	C 	0.0543	0.8576	0.7056	-0.155
Mof_C 	C 	0.0126	0.8302	0.7254	-0.154
Mof_C 	C 	0.073	0.8303	0.7091	0.106
Mof_C 	C 	0.0353	0.8033	0.7281	0.104
Mof_C 	C 	0.9756	0.8853	0.4062	0.098
Mof_C 	C 	0.9851	0.9136	0.3883	0.051
Mof_C 	C 	0.9975	0.9404	0.403	-0.118
Mof_C 	C 	0.9823	0.916	0.3554	-0.115
Mof_C 	C 	0.0053	0.9675	0.3862	0.074
Mof_C 	C 	0.9903	0.9434	0.3398	0.069
Mof_C 	C 	0.5204	0.7864	0.2256	0.099
Mof_C 	C 	0.5018	0.7852	0.1959	0.048
Mof_C 	C 	0.5076	0.7612	0.173	-0.114
Mof_C 	C 	0.4788	0.808	0.1888	-0.113
Mof_C 	C 	0.49	0.7608	0.1449	0.071
Mof_C 	C 	0.4631	0.8055	0.1588	0.07
Mof_C 	C 	0.6526	0.8288	0.2915	0.096
Mof_C 	C 	0.6817	0.847	0.2822	0.056
Mof_C 	C 	0.6849	0.879	0.2883	-0.118
Mof_C 	C 	0.7076	0.8315	0.2687	-0.118
Mof_C 	C 	0.7135	0.8941	0.2797	0.072
Mof_C 	C 	0.7347	0.8489	0.2597	0.072
Mof_C 	C 	0.5353	0.7404	0.3773	0.093
Mof_C 	C 	0.5192	0.7244	0.4048	0.063
Mof_C 	C 	0.5161	0.6916	0.4057	-0.132
Mof_C 	C 	0.5063	0.7423	0.4293	-0.132
Mof_C 	C 	0.4912	0.7257	0.4539	0.088
Mof_C 	C 	0.5033	0.6781	0.4336	0.085
Mof_C 	C 	0.5476	0.9638	0.2472	0.107
Mof_C 	C 	0.549	0.9336	0.2659	0.045
Mof_C 	C 	0.5713	0.9273	0.2895	-0.116
Mof_C 	C 	0.525	0.9105	0.2598	-0.107
Mof_C 	C 	0.5272	0.8813	0.2769	0.065
Mof_C 	C 	0.5723	0.8977	0.304	0.075
Mof_C 	C 	0.5032	0.6142	0.2873	0.081
Mof_C 	C 	0.5234	0.6426	0.2835	0.09
Mof_C 	C 	0.5543	0.6424	0.2944	-0.155
Mof_C 	C 	0.5126	0.6698	0.2746	-0.154
Mof_C 	C 	0.573	0.6697	0.2909	0.106
Mof_C 	C 	0.5353	0.6967	0.2719	0.104
Mof_C 	C 	0.4756	0.6147	0.5938	0.098
Mof_C 	C 	0.4851	0.5864	0.6117	0.051
Mof_C 	C 	0.4975	0.5596	0.597	-0.118
Mof_C 	C 	0.4823	0.584	0.6446	-0.115
Mof_C 	C 	0.5053	0.5325	0.6138	0.074
Mof_C 	C 	0.4903	0.5566	0.6602	0.069
Mof_C 	C 	0.9796	0.2136	0.7256	0.099
Mof_C 	C 	0.9982	0.2148	0.6959	0.048
Mof_C 	C 	0.9924	0.2388	0.673	-0.114
Mof_C 	C 	0.0212	0.192	0.6888	-0.113
Mof_C 	C 	0.01	0.2392	0.6449	0.071
Mof_C 	C 	0.0369	0.1945	0.6588	0.07
Mof_C 	C 	0.8474	0.1712	0.7915	0.096
Mof_C 	C 	0.8183	0.153	0.7822	0.056
Mof_C 	C 	0.8151	0.121	0.7883	-0.118
Mof_C 	C 	0.7924	0.1685	0.7687	-0.118
Mof_C 	C 	0.7865	0.1059	0.7797	0.072
Mof_C 	C 	0.7653	0.1511	0.7597	0.072
Mof_C 	C 	0.9647	0.2596	0.8773	0.093
Mof_C 	C 	0.9808	0.2756	0.9048	0.063
Mof_C 	C 	0.9839	0.3084	0.9057	-0.132
Mof_C 	C 	0.9937	0.2577	0.9293	-0.132
Mof_C 	C 	0.0088	0.2743	0.9539	0.088
Mof_C 	C 	0.9967	0.3219	0.9336	0.085
Mof_C 	C 	0.9524	0.0362	0.7472	0.107
Mof_C 	C 	0.951	0.0664	0.7659	0.045
Mof_C 	C 	0.9287	0.0727	0.7895	-0.116
Mof_C 	C 	0.975	0.0895	0.7598	-0.107
Mof_C 	C 	0.9728	0.1187	0.7769	0.065
Mof_C 	C 	0.9277	0.1023	0.804	0.075
Mof_C 	C 	0.9968	0.3858	0.7873	0.081
Mof_C 	C 	0.9766	0.3574	0.7835	0.09
Mof_C 	C 	0.9457	0.3576	0.7944	-0.155
Mof_C 	C 	0.9874	0.3302	0.7746	-0.154
Mof_C 	C 	0.927	0.3303	0.7909	0.106
Mof_C 	C 	0.9647	0.3033	0.7719	0.104
Mof_C 	C 	0.0244	0.3853	0.0938	0.098
Mof_C 	C 	0.0149	0.4136	0.1117	0.051
Mof_C 	C 	0.0025	0.4404	0.097	-0.118
Mof_C 	C 	0.0177	0.416	0.1446	-0.115
Mof_C 	C 	0.9947	0.4675	0.1138	0.074
Mof_C 	C 	0.0097	0.4434	0.1602	0.069
Mof_C 	C 	0.2744	0.4796	0.2864	0.099
Mof_C 	C 	0.3041	0.4982	0.2852	0.048
Mof_C 	C 	0.327	0.4924	0.2612	-0.114
Mof_C 	C 	0.3112	0.5212	0.308	-0.113
Mof_C 	C 	0.3551	0.51	0.2608	0.071
Mof_C 	C 	0.3412	0.5369	0.3055	0.07
Mof_C 	C 	0.2085	0.3474	0.3288	0.096
Mof_C 	C 	0.2178	0.3183	0.347	0.056
Mof_C 	C 	0.2117	0.3151	0.379	-0.118
Mof_C 	C 	0.2313	0.2924	0.3315	-0.118
Mof_C 	C 	0.2203	0.2865	0.3941	0.072
Mof_C 	C 	0.2403	0.2653	0.3489	0.072
Mof_C 	C 	0.1227	0.4647	0.2404	0.093
Mof_C 	C 	0.0952	0.4808	0.2244	0.063
Mof_C 	C 	0.0943	0.4839	0.1916	-0.132
Mof_C 	C 	0.0707	0.4937	0.2423	-0.132
Mof_C 	C 	0.0461	0.5088	0.2257	0.088
Mof_C 	C 	0.0664	0.4967	0.1781	0.085
Mof_C 	C 	0.2528	0.4524	0.4638	0.107
Mof_C 	C 	0.2341	0.451	0.4336	0.045
Mof_C 	C 	0.2105	0.4287	0.4273	-0.116
Mof_C 	C 	0.2402	0.475	0.4105	-0.107
Mof_C 	C 	0.2231	0.4728	0.3813	0.065
Mof_C 	C 	0.196	0.4277	0.3977	0.075
Mof_C 	C 	0.2127	0.4968	0.1142	0.081
Mof_C 	C 	0.2165	0.4766	0.1426	0.09
Mof_C 	C 	0.2056	0.4457	0.1424	-0.155
Mof_C 	C 	0.2254	0.4874	0.1698	-0.154
Mof_C 	C 	0.2091	0.427	0.1697	0.106
Mof_C 	C 	0.2281	0.4647	0.1967	0.104
Mof_C 	C 	0.9062	0.5244	0.1147	0.098
Mof_C 	C 	0.8883	0.5149	0.0864	0.051
Mof_C 	C 	0.903	0.5025	0.0596	-0.118
Mof_C 	C 	0.8554	0.5177	0.084	-0.115
Mof_C 	C 	0.8862	0.4947	0.0325	0.074
Mof_C 	C 	0.8398	0.5097	0.0566	0.069
Mof_C 	C 	0.7744	0.0204	0.7136	0.099
Mof_C 	C 	0.8041	0.0018	0.7148	0.048
Mof_C 	C 	0.827	0.0076	0.7388	-0.114
Mof_C 	C 	0.8112	0.9788	0.692	-0.113
Mof_C 	C 	0.8551	0.99	0.7392	0.071
Mof_C 	C 	0.8412	0.9631	0.6945	0.07
Mof_C 	C 	0.7085	0.1526	0.6712	0.096
Mof_C 	C 	0.7178	0.1817	0.653	0.056
Mof_C 	C 	0.7117	0.1849	0.621	-0.118
Mof_C 	C 	0.7313	0.2076	0.6685	-0.118
Mof_C 	C 	0.7203	0.2135	0.6059	0.072
Mof_C 	C 	0.7403	0.2347	0.6511	0.072
Mof_C 	C 	0.6227	0.0353	0.7596	0.093
Mof_C 	C 	0.5952	0.0192	0.7756	0.063
Mof_C 	C 	0.5943	0.0161	0.8084	-0.132
Mof_C 	C 	0.5707	0.0063	0.7577	-0.132
Mof_C 	C 	0.5461	0.9912	0.7743	0.088
Mof_C 	C 	0.5664	0.0033	0.8219	0.085
Mof_C 	C 	0.7528	0.0476	0.5362	0.107
Mof_C 	C 	0.7341	0.049	0.5664	0.045
Mof_C 	C 	0.7105	0.0713	0.5727	-0.116
Mof_C 	C 	0.7402	0.025	0.5895	-0.107
Mof_C 	C 	0.7231	0.0272	0.6187	0.065
Mof_C 	C 	0.696	0.0723	0.6023	0.075
Mof_C 	C 	0.7127	0.0032	0.8858	0.081
Mof_C 	C 	0.7165	0.0234	0.8574	0.09
Mof_C 	C 	0.7056	0.0543	0.8576	-0.155
Mof_C 	C 	0.7254	0.0126	0.8302	-0.154
Mof_C 	C 	0.7091	0.073	0.8303	0.106
Mof_C 	C 	0.7281	0.0353	0.8033	0.104
Mof_C 	C 	0.4062	0.9756	0.8853	0.098
Mof_C 	C 	0.3883	0.9851	0.9136	0.051
Mof_C 	C 	0.403	0.9975	0.9404	-0.118
Mof_C 	C 	0.3554	0.9823	0.916	-0.115
Mof_C 	C 	0.3862	0.0053	0.9675	0.074
Mof_C 	C 	0.3398	0.9903	0.9434	0.069
Mof_C 	C 	0.2256	0.5204	0.7864	0.099
Mof_C 	C 	0.1959	0.5018	0.7852	0.048
Mof_C 	C 	0.173	0.5076	0.7612	-0.114
Mof_C 	C 	0.1888	0.4788	0.808	-0.113
Mof_C 	C 	0.1449	0.49	0.7608	0.071
Mof_C 	C 	0.1588	0.4631	0.8055	0.07
Mof_C 	C 	0.2915	0.6526	0.8288	0.096
Mof_C 	C 	0.2822	0.6817	0.847	0.056
Mof_C 	C 	0.2883	0.6849	0.879	-0.118
Mof_C 	C 	0.2687	0.7076	0.8315	-0.118
Mof_C 	C 	0.2797	0.7135	0.8941	0.072
Mof_C 	C 	0.2597	0.7347	0.8489	0.072
Mof_C 	C 	0.3773	0.5353	0.7404	0.093
Mof_C 	C 	0.4048	0.5192	0.7244	0.063
Mof_C 	C 	0.4057	0.5161	0.6916	-0.132
Mof_C 	C 	0.4293	0.5063	0.7423	-0.132
Mof_C 	C 	0.4539	0.4912	0.7257	0.088
Mof_C 	C 	0.4336	0.5033	0.6781	0.085
Mof_C 	C 	0.2472	0.5476	0.9638	0.107
Mof_C 	C 	0.2659	0.549	0.9336	0.045
Mof_C 	C 	0.2895	0.5713	0.9273	-0.116
Mof_C 	C 	0.2598	0.525	0.9105	-0.107
Mof_C 	C 	0.2769	0.5272	0.8813	0.065
Mof_C 	C 	0.304	0.5723	0.8977	0.075
Mof_C 	C 	0.2873	0.5032	0.6142	0.081
Mof_C 	C 	0.2835	0.5234	0.6426	0.09
Mof_C 	C 	0.2944	0.5543	0.6424	-0.155
Mof_C 	C 	0.2746	0.5126	0.6698	-0.154
Mof_C 	C 	0.2909	0.573	0.6697	0.106
Mof_C 	C 	0.2719	0.5353	0.6967	0.104
Mof_C 	C 	0.5938	0.4756	0.6147	0.098
Mof_C 	C 	0.6117	0.4851	0.5864	0.051
Mof_C 	C 	0.597	0.4975	0.5596	-0.118
Mof_C 	C 	0.6446	0.4823	0.584	-0.115
Mof_C 	C 	0.6138	0.5053	0.5325	0.074
Mof_C 	C 	0.6602	0.4903	0.5566	0.069
Mof_C 	C 	0.7256	0.9796	0.2136	0.099
Mof_C 	C 	0.6959	0.9982	0.2148	0.048
Mof_C 	C 	0.673	0.9924	0.2388	-0.114
Mof_C 	C 	0.6888	0.0212	0.192	-0.113
Mof_C 	C 	0.6449	0.01	0.2392	0.071
Mof_C 	C 	0.6588	0.0369	0.1945	0.07
Mof_C 	C 	0.7915	0.8474	0.1712	0.096
Mof_C 	C 	0.7822	0.8183	0.153	0.056
Mof_C 	C 	0.7883	0.8151	0.121	-0.118
Mof_C 	C 	0.7687	0.7924	0.1685	-0.118
Mof_C 	C 	0.7797	0.7865	0.1059	0.072
Mof_C 	C 	0.7597	0.7653	0.1511	0.072
Mof_C 	C 	0.8773	0.9647	0.2596	0.093
Mof_C 	C 	0.9048	0.9808	0.2756	0.063
Mof_C 	C 	0.9057	0.9839	0.3084	-0.132
Mof_C 	C 	0.9293	0.9937	0.2577	-0.132
Mof_C 	C 	0.9539	0.0088	0.2743	0.088
Mof_C 	C 	0.9336	0.9967	0.3219	0.085
Mof_C 	C 	0.7472	0.9524	0.0362	0.107
Mof_C 	C 	0.7659	0.951	0.0664	0.045
Mof_C 	C 	0.7895	0.9287	0.0727	-0.116
Mof_C 	C 	0.7598	0.975	0.0895	-0.107
Mof_C 	C 	0.7769	0.9728	0.1187	0.065
Mof_C 	C 	0.804	0.9277	0.1023	0.075
Mof_C 	C 	0.7873	0.9968	0.3858	0.081
Mof_C 	C 	0.7835	0.9766	0.3574	0.09
Mof_C 	C 	0.7944	0.9457	0.3576	-0.155
Mof_C 	C 	0.7746	0.9874	0.3302	-0.154
Mof_C 	C 	0.7909	0.927	0.3303	0.106
Mof_C 	C 	0.7719	0.9647	0.3033	0.104
Mof_C 	C 	0.0938	0.0244	0.3853	0.098
Mof_C 	C 	0.1117	0.0149	0.4136	0.051
Mof_C 	C 	0.097	0.0025	0.4404	-0.118
Mof_C 	C 	0.1446	0.0177	0.416	-0.115
Mof_C 	C 	0.1138	0.9947	0.4675	0.074
Mof_C 	C 	0.1602	0.0097	0.4434	0.069
Mof_C 	C 	0.2864	0.2744	0.4796	0.099
Mof_C 	C 	0.2852	0.3041	0.4982	0.048
Mof_C 	C 	0.2612	0.327	0.4924	-0.114
Mof_C 	C 	0.308	0.3112	0.5212	-0.113
Mof_C 	C 	0.2608	0.3551	0.51	0.071
Mof_C 	C 	0.3055	0.3412	0.5369	0.07
Mof_C 	C 	0.3288	0.2085	0.3474	0.096
Mof_C 	C 	0.347	0.2178	0.3183	0.056
Mof_C 	C 	0.379	0.2117	0.3151	-0.118
Mof_C 	C 	0.3315	0.2313	0.2924	-0.118
Mof_C 	C 	0.3941	0.2203	0.2865	0.072
Mof_C 	C 	0.3489	0.2403	0.2653	0.072
Mof_C 	C 	0.2404	0.1227	0.4647	0.093
Mof_C 	C 	0.2244	0.0952	0.4808	0.063
Mof_C 	C 	0.1916	0.0943	0.4839	-0.132
Mof_C 	C 	0.2423	0.0707	0.4937	-0.132
Mof_C 	C 	0.2257	0.0461	0.5088	0.088
Mof_C 	C 	0.1781	0.0664	0.4967	0.085
Mof_C 	C 	0.4638	0.2528	0.4524	0.107
Mof_C 	C 	0.4336	0.2341	0.451	0.045
Mof_C 	C 	0.4273	0.2105	0.4287	-0.116
Mof_C 	C 	0.4105	0.2402	0.475	-0.107
Mof_C 	C 	0.3813	0.2231	0.4728	0.065
Mof_C 	C 	0.3977	0.196	0.4277	0.075
Mof_C 	C 	0.1142	0.2127	0.4968	0.081
Mof_C 	C 	0.1426	0.2165	0.4766	0.09
Mof_C 	C 	0.1424	0.2056	0.4457	-0.155
Mof_C 	C 	0.1698	0.2254	0.4874	-0.154
Mof_C 	C 	0.1697	0.2091	0.427	0.106
Mof_C 	C 	0.1967	0.2281	0.4647	0.104
Mof_C 	C 	0.1147	0.9062	0.5244	0.098
Mof_C 	C 	0.0864	0.8883	0.5149	0.051
Mof_C 	C 	0.0596	0.903	0.5025	-0.118
Mof_C 	C 	0.084	0.8554	0.5177	-0.115
Mof_C 	C 	0.0325	0.8862	0.4947	0.074
Mof_C 	C 	0.0566	0.8398	0.5097	0.069
Mof_C 	C 	0.7136	0.7744	0.0204	0.099
Mof_C 	C 	0.7148	0.8041	0.0018	0.048
Mof_C 	C 	0.7388	0.827	0.0076	-0.114
Mof_C 	C 	0.692	0.8112	0.9788	-0.113
Mof_C 	C 	0.7392	0.8551	0.99	0.071
Mof_C 	C 	0.6945	0.8412	0.9631	0.07
Mof_C 	C 	0.6712	0.7085	0.1526	0.096
Mof_C 	C 	0.653	0.7178	0.1817	0.056
Mof_C 	C 	0.621	0.7117	0.1849	-0.118
Mof_C 	C 	0.6685	0.7313	0.2076	-0.118
Mof_C 	C 	0.6059	0.7203	0.2135	0.072
Mof_C 	C 	0.6511	0.7403	0.2347	0.072
Mof_C 	C 	0.7596	0.6227	0.0353	0.093
Mof_C 	C 	0.7756	0.5952	0.0192	0.063
Mof_C 	C 	0.8084	0.5943	0.0161	-0.132
Mof_C 	C 	0.7577	0.5707	0.0063	-0.132
Mof_C 	C 	0.7743	0.5461	0.9912	0.088
Mof_C 	C 	0.8219	0.5664	0.0033	0.085
Mof_C 	C 	0.5362	0.7528	0.0476	0.107
Mof_C 	C 	0.5664	0.7341	0.049	0.045
Mof_C 	C 	0.5727	0.7105	0.0713	-0.116
Mof_C 	C 	0.5895	0.7402	0.025	-0.107
Mof_C 	C 	0.6187	0.7231	0.0272	0.065
Mof_C 	C 	0.6023	0.696	0.0723	0.075
Mof_C 	C 	0.8858	0.7127	0.0032	0.081
Mof_C 	C 	0.8574	0.7165	0.0234	0.09
Mof_C 	C 	0.8576	0.7056	0.0543	-0.155
Mof_C 	C 	0.8302	0.7254	0.0126	-0.154
Mof_C 	C 	0.8303	0.7091	0.073	0.106
Mof_C 	C 	0.8033	0.7281	0.0353	0.104
Mof_C 	C 	0.8853	0.4062	0.9756	0.098
Mof_C 	C 	0.9136	0.3883	0.9851	0.051
Mof_C 	C 	0.9404	0.403	0.9975	-0.118
Mof_C 	C 	0.916	0.3554	0.9823	-0.115
Mof_C 	C 	0.9675	0.3862	0.0053	0.074
Mof_C 	C 	0.9434	0.3398	0.9903	0.069
Mof_C 	C 	0.7864	0.2256	0.5204	0.099
Mof_C 	C 	0.7852	0.1959	0.5018	0.048
Mof_C 	C 	0.7612	0.173	0.5076	-0.114
Mof_C 	C 	0.808	0.1888	0.4788	-0.113
Mof_C 	C 	0.7608	0.1449	0.49	0.071
Mof_C 	C 	0.8055	0.1588	0.4631	0.07
Mof_C 	C 	0.8288	0.2915	0.6526	0.096
Mof_C 	C 	0.847	0.2822	0.6817	0.056
Mof_C 	C 	0.879	0.2883	0.6849	-0.118
Mof_C 	C 	0.8315	0.2687	0.7076	-0.118
Mof_C 	C 	0.8941	0.2797	0.7135	0.072
Mof_C 	C 	0.8489	0.2597	0.7347	0.072
Mof_C 	C 	0.7404	0.3773	0.5353	0.093
Mof_C 	C 	0.7244	0.4048	0.5192	0.063
Mof_C 	C 	0.6916	0.4057	0.5161	-0.132
Mof_C 	C 	0.7423	0.4293	0.5063	-0.132
Mof_C 	C 	0.7257	0.4539	0.4912	0.088
Mof_C 	C 	0.6781	0.4336	0.5033	0.085
Mof_C 	C 	0.9638	0.2472	0.5476	0.107
Mof_C 	C 	0.9336	0.2659	0.549	0.045
Mof_C 	C 	0.9273	0.2895	0.5713	-0.116
Mof_C 	C 	0.9105	0.2598	0.525	-0.107
Mof_C 	C 	0.8813	0.2769	0.5272	0.065
Mof_C 	C 	0.8977	0.304	0.5723	0.075
Mof_C 	C 	0.6142	0.2873	0.5032	0.081
Mof_C 	C 	0.6426	0.2835	0.5234	0.09
Mof_C 	C 	0.6424	0.2944	0.5543	-0.155
Mof_C 	C 	0.6698	0.2746	0.5126	-0.154
Mof_C 	C 	0.6697	0.2909	0.573	0.106
Mof_C 	C 	0.6967	0.2719	0.5353	0.104
Mof_C 	C 	0.6147	0.5938	0.4756	0.098
Mof_C 	C 	0.5864	0.6117	0.4851	0.051
Mof_C 	C 	0.5596	0.597	0.4975	-0.118
Mof_C 	C 	0.584	0.6446	0.4823	-0.115
Mof_C 	C 	0.5325	0.6138	0.5053	0.074
Mof_C 	C 	0.5566	0.6602	0.4903	0.069
Mof_C 	C 	0.2136	0.7256	0.9796	0.099
Mof_C 	C 	0.2148	0.6959	0.9982	0.048
Mof_C 	C 	0.2388	0.673	0.9924	-0.114
Mof_C 	C 	0.192	0.6888	0.0212	-0.113
Mof_C 	C 	0.2392	0.6449	0.01	0.071
Mof_C 	C 	0.1945	0.6588	0.0369	0.07
Mof_C 	C 	0.1712	0.7915	0.8474	0.096
Mof_C 	C 	0.153	0.7822	0.8183	0.056
Mof_C 	C 	0.121	0.7883	0.8151	-0.118
Mof_C 	C 	0.1685	0.7687	0.7924	-0.118
Mof_C 	C 	0.1059	0.7797	0.7865	0.072
Mof_C 	C 	0.1511	0.7597	0.7653	0.072
Mof_C 	C 	0.2596	0.8773	0.9647	0.093
Mof_C 	C 	0.2756	0.9048	0.9808	0.063
Mof_C 	C 	0.3084	0.9057	0.9839	-0.132
Mof_C 	C 	0.2577	0.9293	0.9937	-0.132
Mof_C 	C 	0.2743	0.9539	0.0088	0.088
Mof_C 	C 	0.3219	0.9336	0.9967	0.085
Mof_C 	C 	0.0362	0.7472	0.9524	0.107
Mof_C 	C 	0.0664	0.7659	0.951	0.045
Mof_C 	C 	0.0727	0.7895	0.9287	-0.116
Mof_C 	C 	0.0895	0.7598	0.975	-0.107
Mof_C 	C 	0.1187	0.7769	0.9728	0.065
Mof_C 	C 	0.1023	0.804	0.9277	0.075
Mof_C 	C 	0.3858	0.7873	0.9968	0.081
Mof_C 	C 	0.3574	0.7835	0.9766	0.09
Mof_C 	C 	0.3576	0.7944	0.9457	-0.155
Mof_C 	C 	0.3302	0.7746	0.9874	-0.154
Mof_C 	C 	0.3303	0.7909	0.927	0.106
Mof_C 	C 	0.3033	0.7719	0.9647	0.104
Mof_C 	C 	0.3853	0.0938	0.0244	0.098
Mof_C 	C 	0.4136	0.1117	0.0149	0.051
Mof_C 	C 	0.4404	0.097	0.0025	-0.118
Mof_C 	C 	0.416	0.1446	0.0177	-0.115
Mof_C 	C 	0.4675	0.1138	0.9947	0.074
Mof_C 	C 	0.4434	0.1602	0.0097	0.069
Mof_C 	C 	0.5204	0.7136	0.7256	0.099
Mof_C 	C 	0.5018	0.7148	0.6959	0.048
Mof_C 	C 	0.5076	0.7388	0.673	-0.114
Mof_C 	C 	0.4788	0.692	0.6888	-0.113
Mof_C 	C 	0.49	0.7392	0.6449	0.071
Mof_C 	C 	0.4631	0.6945	0.6588	0.07
Mof_C 	C 	0.6526	0.6712	0.7915	0.096
Mof_C 	C 	0.6817	0.653	0.7822	0.056
Mof_C 	C 	0.6849	0.621	0.7883	-0.118
Mof_C 	C 	0.7076	0.6685	0.7687	-0.118
Mof_C 	C 	0.7135	0.6059	0.7797	0.072
Mof_C 	C 	0.7347	0.6511	0.7597	0.072
Mof_C 	C 	0.5353	0.7596	0.8773	0.093
Mof_C 	C 	0.5192	0.7756	0.9048	0.063
Mof_C 	C 	0.5161	0.8084	0.9057	-0.132
Mof_C 	C 	0.5063	0.7577	0.9293	-0.132
Mof_C 	C 	0.4912	0.7743	0.9539	0.088
Mof_C 	C 	0.5033	0.8219	0.9336	0.085
Mof_C 	C 	0.5476	0.5362	0.7472	0.107
Mof_C 	C 	0.549	0.5664	0.7659	0.045
Mof_C 	C 	0.5713	0.5727	0.7895	-0.116
Mof_C 	C 	0.525	0.5895	0.7598	-0.107
Mof_C 	C 	0.5272	0.6187	0.7769	0.065
Mof_C 	C 	0.5723	0.6023	0.804	0.075
Mof_C 	C 	0.5032	0.8858	0.7873	0.081
Mof_C 	C 	0.5234	0.8574	0.7835	0.09
Mof_C 	C 	0.5543	0.8576	0.7944	-0.155
Mof_C 	C 	0.5126	0.8302	0.7746	-0.154
Mof_C 	C 	0.573	0.8303	0.7909	0.106
Mof_C 	C 	0.5353	0.8033	0.7719	0.104
Mof_C 	C 	0.4756	0.8853	0.0938	0.098
Mof_C 	C 	0.4851	0.9136	0.1117	0.051
Mof_C 	C 	0.4975	0.9404	0.097	-0.118
Mof_C 	C 	0.4823	0.916	0.1446	-0.115
Mof_C 	C 	0.5053	0.9675	0.1138	0.074
Mof_C 	C 	0.4903	0.9434	0.1602	0.069
Mof_C 	C 	0.9796	0.2864	0.2256	0.099
Mof_C 	C 	0.9982	0.2852	0.1959	0.048
Mof_C 	C 	0.9924	0.2612	0.173	-0.114
Mof_C 	C 	0.0212	0.308	0.1888	-0.113
Mof_C 	C 	0.01	0.2608	0.1449	0.071
Mof_C 	C 	0.0369	0.3055	0.1588	0.07
Mof_C 	C 	0.8474	0.3288	0.2915	0.096
Mof_C 	C 	0.8183	0.347	0.2822	0.056
Mof_C 	C 	0.8151	0.379	0.2883	-0.118
Mof_C 	C 	0.7924	0.3315	0.2687	-0.118
Mof_C 	C 	0.7865	0.3941	0.2797	0.072
Mof_C 	C 	0.7653	0.3489	0.2597	0.072
Mof_C 	C 	0.9647	0.2404	0.3773	0.093
Mof_C 	C 	0.9808	0.2244	0.4048	0.063
Mof_C 	C 	0.9839	0.1916	0.4057	-0.132
Mof_C 	C 	0.9937	0.2423	0.4293	-0.132
Mof_C 	C 	0.0088	0.2257	0.4539	0.088
Mof_C 	C 	0.9967	0.1781	0.4336	0.085
Mof_C 	C 	0.9524	0.4638	0.2472	0.107
Mof_C 	C 	0.951	0.4336	0.2659	0.045
Mof_C 	C 	0.9287	0.4273	0.2895	-0.116
Mof_C 	C 	0.975	0.4105	0.2598	-0.107
Mof_C 	C 	0.9728	0.3813	0.2769	0.065
Mof_C 	C 	0.9277	0.3977	0.304	0.075
Mof_C 	C 	0.9968	0.1142	0.2873	0.081
Mof_C 	C 	0.9766	0.1426	0.2835	0.09
Mof_C 	C 	0.9457	0.1424	0.2944	-0.155
Mof_C 	C 	0.9874	0.1698	0.2746	-0.154
Mof_C 	C 	0.927	0.1697	0.2909	0.106
Mof_C 	C 	0.9647	0.1967	0.2719	0.104
Mof_C 	C 	0.0244	0.1147	0.5938	0.098
Mof_C 	C 	0.0149	0.0864	0.6117	0.051
Mof_C 	C 	0.0025	0.0596	0.597	-0.118
Mof_C 	C 	0.0177	0.084	0.6446	-0.115
Mof_C 	C 	0.9947	0.0325	0.6138	0.074
Mof_C 	C 	0.0097	0.0566	0.6602	0.069
Mof_C 	C 	0.4796	0.2136	0.7744	0.099
Mof_C 	C 	0.4982	0.2148	0.8041	0.048
Mof_C 	C 	0.4924	0.2388	0.827	-0.114
Mof_C 	C 	0.5212	0.192	0.8112	-0.113
Mof_C 	C 	0.51	0.2392	0.8551	0.071
Mof_C 	C 	0.5369	0.1945	0.8412	0.07
Mof_C 	C 	0.3474	0.1712	0.7085	0.096
Mof_C 	C 	0.3183	0.153	0.7178	0.056
Mof_C 	C 	0.3151	0.121	0.7117	-0.118
Mof_C 	C 	0.2924	0.1685	0.7313	-0.118
Mof_C 	C 	0.2865	0.1059	0.7203	0.072
Mof_C 	C 	0.2653	0.1511	0.7403	0.072
Mof_C 	C 	0.4647	0.2596	0.6227	0.093
Mof_C 	C 	0.4808	0.2756	0.5952	0.063
Mof_C 	C 	0.4839	0.3084	0.5943	-0.132
Mof_C 	C 	0.4937	0.2577	0.5707	-0.132
Mof_C 	C 	0.5088	0.2743	0.5461	0.088
Mof_C 	C 	0.4967	0.3219	0.5664	0.085
Mof_C 	C 	0.4524	0.0362	0.7528	0.107
Mof_C 	C 	0.451	0.0664	0.7341	0.045
Mof_C 	C 	0.4287	0.0727	0.7105	-0.116
Mof_C 	C 	0.475	0.0895	0.7402	-0.107
Mof_C 	C 	0.4728	0.1187	0.7231	0.065
Mof_C 	C 	0.4277	0.1023	0.696	0.075
Mof_C 	C 	0.4968	0.3858	0.7127	0.081
Mof_C 	C 	0.4766	0.3574	0.7165	0.09
Mof_C 	C 	0.4457	0.3576	0.7056	-0.155
Mof_C 	C 	0.4874	0.3302	0.7254	-0.154
Mof_C 	C 	0.427	0.3303	0.7091	0.106
Mof_C 	C 	0.4647	0.3033	0.7281	0.104
Mof_C 	C 	0.5244	0.3853	0.4062	0.098
Mof_C 	C 	0.5149	0.4136	0.3883	0.051
Mof_C 	C 	0.5025	0.4404	0.403	-0.118
Mof_C 	C 	0.5177	0.416	0.3554	-0.115
Mof_C 	C 	0.4947	0.4675	0.3862	0.074
Mof_C 	C 	0.5097	0.4434	0.3398	0.069
Mof_C 	C 	0.0204	0.7864	0.2744	0.099
Mof_C 	C 	0.0018	0.7852	0.3041	0.048
Mof_C 	C 	0.0076	0.7612	0.327	-0.114
Mof_C 	C 	0.9788	0.808	0.3112	-0.113
Mof_C 	C 	0.99	0.7608	0.3551	0.071
Mof_C 	C 	0.9631	0.8055	0.3412	0.07
Mof_C 	C 	0.1526	0.8288	0.2085	0.096
Mof_C 	C 	0.1817	0.847	0.2178	0.056
Mof_C 	C 	0.1849	0.879	0.2117	-0.118
Mof_C 	C 	0.2076	0.8315	0.2313	-0.118
Mof_C 	C 	0.2135	0.8941	0.2203	0.072
Mof_C 	C 	0.2347	0.8489	0.2403	0.072
Mof_C 	C 	0.0353	0.7404	0.1227	0.093
Mof_C 	C 	0.0192	0.7244	0.0952	0.063
Mof_C 	C 	0.0161	0.6916	0.0943	-0.132
Mof_C 	C 	0.0063	0.7423	0.0707	-0.132
Mof_C 	C 	0.9912	0.7257	0.0461	0.088
Mof_C 	C 	0.0033	0.6781	0.0664	0.085
Mof_C 	C 	0.0476	0.9638	0.2528	0.107
Mof_C 	C 	0.049	0.9336	0.2341	0.045
Mof_C 	C 	0.0713	0.9273	0.2105	-0.116
Mof_C 	C 	0.025	0.9105	0.2402	-0.107
Mof_C 	C 	0.0272	0.8813	0.2231	0.065
Mof_C 	C 	0.0723	0.8977	0.196	0.075
Mof_C 	C 	0.0032	0.6142	0.2127	0.081
Mof_C 	C 	0.0234	0.6426	0.2165	0.09
Mof_C 	C 	0.0543	0.6424	0.2056	-0.155
Mof_C 	C 	0.0126	0.6698	0.2254	-0.154
Mof_C 	C 	0.073	0.6697	0.2091	0.106
Mof_C 	C 	0.0353	0.6967	0.2281	0.104
Mof_C 	C 	0.9756	0.6147	0.9062	0.098
Mof_C 	C 	0.9851	0.5864	0.8883	0.051
Mof_C 	C 	0.9975	0.5596	0.903	-0.118
Mof_C 	C 	0.9823	0.584	0.8554	-0.115
Mof_C 	C 	0.0053	0.5325	0.8862	0.074
Mof_C 	C 	0.9903	0.5566	0.8398	0.069
Mof_C 	C 	0.7256	0.5204	0.7136	0.099
Mof_C 	C 	0.6959	0.5018	0.7148	0.048
Mof_C 	C 	0.673	0.5076	0.7388	-0.114
Mof_C 	C 	0.6888	0.4788	0.692	-0.113
Mof_C 	C 	0.6449	0.49	0.7392	0.071
Mof_C 	C 	0.6588	0.4631	0.6945	0.07
Mof_C 	C 	0.7915	0.6526	0.6712	0.096
Mof_C 	C 	0.7822	0.6817	0.653	0.056
Mof_C 	C 	0.7883	0.6849	0.621	-0.118
Mof_C 	C 	0.7687	0.7076	0.6685	-0.118
Mof_C 	C 	0.7797	0.7135	0.6059	0.072
Mof_C 	C 	0.7597	0.7347	0.6511	0.072
Mof_C 	C 	0.8773	0.5353	0.7596	0.093
Mof_C 	C 	0.9048	0.5192	0.7756	0.063
Mof_C 	C 	0.9057	0.5161	0.8084	-0.132
Mof_C 	C 	0.9293	0.5063	0.7577	-0.132
Mof_C 	C 	0.9539	0.4912	0.7743	0.088
Mof_C 	C 	0.9336	0.5033	0.8219	0.085
Mof_C 	C 	0.7472	0.5476	0.5362	0.107
Mof_C 	C 	0.7659	0.549	0.5664	0.045
Mof_C 	C 	0.7895	0.5713	0.5727	-0.116
Mof_C 	C 	0.7598	0.525	0.5895	-0.107
Mof_C 	C 	0.7769	0.5272	0.6187	0.065
Mof_C 	C 	0.804	0.5723	0.6023	0.075
Mof_C 	C 	0.7873	0.5032	0.8858	0.081
Mof_C 	C 	0.7835	0.5234	0.8574	0.09
Mof_C 	C 	0.7944	0.5543	0.8576	-0.155
Mof_C 	C 	0.7746	0.5126	0.8302	-0.154
Mof_C 	C 	0.7909	0.573	0.8303	0.106
Mof_C 	C 	0.7719	0.5353	0.8033	0.104
Mof_C 	C 	0.0938	0.4756	0.8853	0.098
Mof_C 	C 	0.1117	0.4851	0.9136	0.051
Mof_C 	C 	0.097	0.4975	0.9404	-0.118
Mof_C 	C 	0.1446	0.4823	0.916	-0.115
Mof_C 	C 	0.1138	0.5053	0.9675	0.074
Mof_C 	C 	0.1602	0.4903	0.9434	0.069
Mof_C 	C 	0.2256	0.9796	0.2864	0.099
Mof_C 	C 	0.1959	0.9982	0.2852	0.048
Mof_C 	C 	0.173	0.9924	0.2612	-0.114
Mof_C 	C 	0.1888	0.0212	0.308	-0.113
Mof_C 	C 	0.1449	0.01	0.2608	0.071
Mof_C 	C 	0.1588	0.0369	0.3055	0.07
Mof_C 	C 	0.2915	0.8474	0.3288	0.096
Mof_C 	C 	0.2822	0.8183	0.347	0.056
Mof_C 	C 	0.2883	0.8151	0.379	-0.118
Mof_C 	C 	0.2687	0.7924	0.3315	-0.118
Mof_C 	C 	0.2797	0.7865	0.3941	0.072
Mof_C 	C 	0.2597	0.7653	0.3489	0.072
Mof_C 	C 	0.3773	0.9647	0.2404	0.093
Mof_C 	C 	0.4048	0.9808	0.2244	0.063
Mof_C 	C 	0.4057	0.9839	0.1916	-0.132
Mof_C 	C 	0.4293	0.9937	0.2423	-0.132
Mof_C 	C 	0.4539	0.0088	0.2257	0.088
Mof_C 	C 	0.4336	0.9967	0.1781	0.085
Mof_C 	C 	0.2472	0.9524	0.4638	0.107
Mof_C 	C 	0.2659	0.951	0.4336	0.045
Mof_C 	C 	0.2895	0.9287	0.4273	-0.116
Mof_C 	C 	0.2598	0.975	0.4105	-0.107
Mof_C 	C 	0.2769	0.9728	0.3813	0.065
Mof_C 	C 	0.304	0.9277	0.3977	0.075
Mof_C 	C 	0.2873	0.9968	0.1142	0.081
Mof_C 	C 	0.2835	0.9766	0.1426	0.09
Mof_C 	C 	0.2944	0.9457	0.1424	-0.155
Mof_C 	C 	0.2746	0.9874	0.1698	-0.154
Mof_C 	C 	0.2909	0.927	0.1697	0.106
Mof_C 	C 	0.2719	0.9647	0.1967	0.104
Mof_C 	C 	0.5938	0.0244	0.1147	0.098
Mof_C 	C 	0.6117	0.0149	0.0864	0.051
Mof_C 	C 	0.597	0.0025	0.0596	-0.118
Mof_C 	C 	0.6446	0.0177	0.084	-0.115
Mof_C 	C 	0.6138	0.9947	0.0325	0.074
Mof_C 	C 	0.6602	0.0097	0.0566	0.069
Mof_C 	C 	0.7744	0.4796	0.2136	0.099
Mof_C 	C 	0.8041	0.4982	0.2148	0.048
Mof_C 	C 	0.827	0.4924	0.2388	-0.114
Mof_C 	C 	0.8112	0.5212	0.192	-0.113
Mof_C 	C 	0.8551	0.51	0.2392	0.071
Mof_C 	C 	0.8412	0.5369	0.1945	0.07
Mof_C 	C 	0.7085	0.3474	0.1712	0.096
Mof_C 	C 	0.7178	0.3183	0.153	0.056
Mof_C 	C 	0.7117	0.3151	0.121	-0.118
Mof_C 	C 	0.7313	0.2924	0.1685	-0.118
Mof_C 	C 	0.7203	0.2865	0.1059	0.072
Mof_C 	C 	0.7403	0.2653	0.1511	0.072
Mof_C 	C 	0.6227	0.4647	0.2596	0.093
Mof_C 	C 	0.5952	0.4808	0.2756	0.063
Mof_C 	C 	0.5943	0.4839	0.3084	-0.132
Mof_C 	C 	0.5707	0.4937	0.2577	-0.132
Mof_C 	C 	0.5461	0.5088	0.2743	0.088
Mof_C 	C 	0.5664	0.4967	0.3219	0.085
Mof_C 	C 	0.7528	0.4524	0.0362	0.107
Mof_C 	C 	0.7341	0.451	0.0664	0.045
Mof_C 	C 	0.7105	0.4287	0.0727	-0.116
Mof_C 	C 	0.7402	0.475	0.0895	-0.107
Mof_C 	C 	0.7231	0.4728	0.1187	0.065
Mof_C 	C 	0.696	0.4277	0.1023	0.075
Mof_C 	C 	0.7127	0.4968	0.3858	0.081
Mof_C 	C 	0.7165	0.4766	0.3574	0.09
Mof_C 	C 	0.7056	0.4457	0.3576	-0.155
Mof_C 	C 	0.7254	0.4874	0.3302	-0.154
Mof_C 	C 	0.7091	0.427	0.3303	0.106
Mof_C 	C 	0.7281	0.4647	0.3033	0.104
Mof_C 	C 	0.4062	0.5244	0.3853	0.098
Mof_C 	C 	0.3883	0.5149	0.4136	0.051
Mof_C 	C 	0.403	0.5025	0.4404	-0.118
Mof_C 	C 	0.3554	0.5177	0.416	-0.115
Mof_C 	C 	0.3862	0.4947	0.4675	0.074
Mof_C 	C 	0.3398	0.5097	0.4434	0.069
Mof_C 	C 	0.2744	0.0204	0.7864	0.099
Mof_C 	C 	0.3041	0.0018	0.7852	0.048
Mof_C 	C 	0.327	0.0076	0.7612	-0.114
Mof_C 	C 	0.3112	0.9788	0.808	-0.113
Mof_C 	C 	0.3551	0.99	0.7608	0.071
Mof_C 	C 	0.3412	0.9631	0.8055	0.07
Mof_C 	C 	0.2085	0.1526	0.8288	0.096
Mof_C 	C 	0.2178	0.1817	0.847	0.056
Mof_C 	C 	0.2117	0.1849	0.879	-0.118
Mof_C 	C 	0.2313	0.2076	0.8315	-0.118
Mof_C 	C 	0.2203	0.2135	0.8941	0.072
Mof_C 	C 	0.2403	0.2347	0.8489	0.072
Mof_C 	C 	0.1227	0.0353	0.7404	0.093
Mof_C 	C 	0.0952	0.0192	0.7244	0.063
Mof_C 	C 	0.0943	0.0161	0.6916	-0.132
Mof_C 	C 	0.0707	0.0063	0.7423	-0.132
Mof_C 	C 	0.0461	0.9912	0.7257	0.088
Mof_C 	C 	0.0664	0.0033	0.6781	0.085
Mof_C 	C 	0.2528	0.0476	0.9638	0.107
Mof_C 	C 	0.2341	0.049	0.9336	0.045
Mof_C 	C 	0.2105	0.0713	0.9273	-0.116
Mof_C 	C 	0.2402	0.025	0.9105	-0.107
Mof_C 	C 	0.2231	0.0272	0.8813	0.065
Mof_C 	C 	0.196	0.0723	0.8977	0.075
Mof_C 	C 	0.2127	0.0032	0.6142	0.081
Mof_C 	C 	0.2165	0.0234	0.6426	0.09
Mof_C 	C 	0.2056	0.0543	0.6424	-0.155
Mof_C 	C 	0.2254	0.0126	0.6698	-0.154
Mof_C 	C 	0.2091	0.073	0.6697	0.106
Mof_C 	C 	0.2281	0.0353	0.6967	0.104
Mof_C 	C 	0.9062	0.9756	0.6147	0.098
Mof_C 	C 	0.8883	0.9851	0.5864	0.051
Mof_C 	C 	0.903	0.9975	0.5596	-0.118
Mof_C 	C 	0.8554	0.9823	0.584	-0.115
Mof_C 	C 	0.8862	0.0053	0.5325	0.074
Mof_C 	C 	0.8398	0.9903	0.5566	0.069
Mof_C 	C 	0.7136	0.7256	0.5204	0.099
Mof_C 	C 	0.7148	0.6959	0.5018	0.048
Mof_C 	C 	0.7388	0.673	0.5076	-0.114
Mof_C 	C 	0.692	0.6888	0.4788	-0.113
Mof_C 	C 	0.7392	0.6449	0.49	0.071
Mof_C 	C 	0.6945	0.6588	0.4631	0.07
Mof_C 	C 	0.6712	0.7915	0.6526	0.096
Mof_C 	C 	0.653	0.7822	0.6817	0.056
Mof_C 	C 	0.621	0.7883	0.6849	-0.118
Mof_C 	C 	0.6685	0.7687	0.7076	-0.118
Mof_C 	C 	0.6059	0.7797	0.7135	0.072
Mof_C 	C 	0.6511	0.7597	0.7347	0.072
Mof_C 	C 	0.7596	0.8773	0.5353	0.093
Mof_C 	C 	0.7756	0.9048	0.5192	0.063
Mof_C 	C 	0.8084	0.9057	0.5161	-0.132
Mof_C 	C 	0.7577	0.9293	0.5063	-0.132
Mof_C 	C 	0.7743	0.9539	0.4912	0.088
Mof_C 	C 	0.8219	0.9336	0.5033	0.085
Mof_C 	C 	0.5362	0.7472	0.5476	0.107
Mof_C 	C 	0.5664	0.7659	0.549	0.045
Mof_C 	C 	0.5727	0.7895	0.5713	-0.116
Mof_C 	C 	0.5895	0.7598	0.525	-0.107
Mof_C 	C 	0.6187	0.7769	0.5272	0.065
Mof_C 	C 	0.6023	0.804	0.5723	0.075
Mof_C 	C 	0.8858	0.7873	0.5032	0.081
Mof_C 	C 	0.8574	0.7835	0.5234	0.09
Mof_C 	C 	0.8576	0.7944	0.5543	-0.155
Mof_C 	C 	0.8302	0.7746	0.5126	-0.154
Mof_C 	C 	0.8303	0.7909	0.573	0.106
Mof_C 	C 	0.8033	0.7719	0.5353	0.104
Mof_C 	C 	0.8853	0.0938	0.4756	0.098
Mof_C 	C 	0.9136	0.1117	0.4851	0.051
Mof_C 	C 	0.9404	0.097	0.4975	-0.118
Mof_C 	C 	0.916	0.1446	0.4823	-0.115
Mof_C 	C 	0.9675	0.1138	0.5053	0.074
Mof_C 	C 	0.9434	0.1602	0.4903	0.069
Mof_C 	C 	0.2864	0.2256	0.9796	0.099
Mof_C 	C 	0.2852	0.1959	0.9982	0.048
Mof_C 	C 	0.2612	0.173	0.9924	-0.114
Mof_C 	C 	0.308	0.1888	0.0212	-0.113
Mof_C 	C 	0.2608	0.1449	0.01	0.071
Mof_C 	C 	0.3055	0.1588	0.0369	0.07
Mof_C 	C 	0.3288	0.2915	0.8474	0.096
Mof_C 	C 	0.347	0.2822	0.8183	0.056
Mof_C 	C 	0.379	0.2883	0.8151	-0.118
Mof_C 	C 	0.3315	0.2687	0.7924	-0.118
Mof_C 	C 	0.3941	0.2797	0.7865	0.072
Mof_C 	C 	0.3489	0.2597	0.7653	0.072
Mof_C 	C 	0.2404	0.3773	0.9647	0.093
Mof_C 	C 	0.2244	0.4048	0.9808	0.063
Mof_C 	C 	0.1916	0.4057	0.9839	-0.132
Mof_C 	C 	0.2423	0.4293	0.9937	-0.132
Mof_C 	C 	0.2257	0.4539	0.0088	0.088
Mof_C 	C 	0.1781	0.4336	0.9967	0.085
Mof_C 	C 	0.4638	0.2472	0.9524	0.107
Mof_C 	C 	0.4336	0.2659	0.951	0.045
Mof_C 	C 	0.4273	0.2895	0.9287	-0.116
Mof_C 	C 	0.4105	0.2598	0.975	-0.107
Mof_C 	C 	0.3813	0.2769	0.9728	0.065
Mof_C 	C 	0.3977	0.304	0.9277	0.075
Mof_C 	C 	0.1142	0.2873	0.9968	0.081
Mof_C 	C 	0.1426	0.2835	0.9766	0.09
Mof_C 	C 	0.1424	0.2944	0.9457	-0.155
Mof_C 	C 	0.1698	0.2746	0.9874	-0.154
Mof_C 	C 	0.1697	0.2909	0.927	0.106
Mof_C 	C 	0.1967	0.2719	0.9647	0.104
Mof_C 	C 	0.1147	0.5938	0.0244	0.098
Mof_C 	C 	0.0864	0.6117	0.0149	0.051
Mof_C 	C 	0.0596	0.597	0.0025	-0.118
Mof_C 	C 	0.084	0.6446	0.0177	-0.115
Mof_C 	C 	0.0325	0.6138	0.9947	0.074
Mof_C 	C 	0.0566	0.6602	0.0097	0.069
Mof_C 	C 	0.2136	0.7744	0.4796	0.099
Mof_C 	C 	0.2148	0.8041	0.4982	0.048
Mof_C 	C 	0.2388	0.827	0.4924	-0.114
Mof_C 	C 	0.192	0.8112	0.5212	-0.113
Mof_C 	C 	0.2392	0.8551	0.51	0.071
Mof_C 	C 	0.1945	0.8412	0.5369	0.07
Mof_C 	C 	0.1712	0.7085	0.3474	0.096
Mof_C 	C 	0.153	0.7178	0.3183	0.056
Mof_C 	C 	0.121	0.7117	0.3151	-0.118
Mof_C 	C 	0.1685	0.7313	0.2924	-0.118
Mof_C 	C 	0.1059	0.7203	0.2865	0.072
Mof_C 	C 	0.1511	0.7403	0.2653	0.072
Mof_C 	C 	0.2596	0.6227	0.4647	0.093
Mof_C 	C 	0.2756	0.5952	0.4808	0.063
Mof_C 	C 	0.3084	0.5943	0.4839	-0.132
Mof_C 	C 	0.2577	0.5707	0.4937	-0.132
Mof_C 	C 	0.2743	0.5461	0.5088	0.088
Mof_C 	C 	0.3219	0.5664	0.4967	0.085
Mof_C 	C 	0.0362	0.7528	0.4524	0.107
Mof_C 	C 	0.0664	0.7341	0.451	0.045
Mof_C 	C 	0.0727	0.7105	0.4287	-0.116
Mof_C 	C 	0.0895	0.7402	0.475	-0.107
Mof_C 	C 	0.1187	0.7231	0.4728	0.065
Mof_C 	C 	0.1023	0.696	0.4277	0.075
Mof_C 	C 	0.3858	0.7127	0.4968	0.081
Mof_C 	C 	0.3574	0.7165	0.4766	0.09
Mof_C 	C 	0.3576	0.7056	0.4457	-0.155
Mof_C 	C 	0.3302	0.7254	0.4874	-0.154
Mof_C 	C 	0.3303	0.7091	0.427	0.106
Mof_C 	C 	0.3033	0.7281	0.4647	0.104
Mof_C 	C 	0.3853	0.4062	0.5244	0.098
Mof_C 	C 	0.4136	0.3883	0.5149	0.051
Mof_C 	C 	0.4404	0.403	0.5025	-0.118
Mof_C 	C 	0.416	0.3554	0.5177	-0.115
Mof_C 	C 	0.4675	0.3862	0.4947	0.074
Mof_C 	C 	0.4434	0.3398	0.5097	0.069
Mof_C 	C 	0.7864	0.2744	0.0204	0.099
Mof_C 	C 	0.7852	0.3041	0.0018	0.048
Mof_C 	C 	0.7612	0.327	0.0076	-0.114
Mof_C 	C 	0.808	0.3112	0.9788	-0.113
Mof_C 	C 	0.7608	0.3551	0.99	0.071
Mof_C 	C 	0.8055	0.3412	0.9631	0.07
Mof_C 	C 	0.8288	0.2085	0.1526	0.096
Mof_C 	C 	0.847	0.2178	0.1817	0.056
Mof_C 	C 	0.879	0.2117	0.1849	-0.118
Mof_C 	C 	0.8315	0.2313	0.2076	-0.118
Mof_C 	C 	0.8941	0.2203	0.2135	0.072
Mof_C 	C 	0.8489	0.2403	0.2347	0.072
Mof_C 	C 	0.7404	0.1227	0.0353	0.093
Mof_C 	C 	0.7244	0.0952	0.0192	0.063
Mof_C 	C 	0.6916	0.0943	0.0161	-0.132
Mof_C 	C 	0.7423	0.0707	0.0063	-0.132
Mof_C 	C 	0.7257	0.0461	0.9912	0.088
Mof_C 	C 	0.6781	0.0664	0.0033	0.085
Mof_C 	C 	0.9638	0.2528	0.0476	0.107
Mof_C 	C 	0.9336	0.2341	0.049	0.045
Mof_C 	C 	0.9273	0.2105	0.0713	-0.116
Mof_C 	C 	0.9105	0.2402	0.025	-0.107
Mof_C 	C 	0.8813	0.2231	0.0272	0.065
Mof_C 	C 	0.8977	0.196	0.0723	0.075
Mof_C 	C 	0.6142	0.2127	0.0032	0.081
Mof_C 	C 	0.6426	0.2165	0.0234	0.09
Mof_C 	C 	0.6424	0.2056	0.0543	-0.155
Mof_C 	C 	0.6698	0.2254	0.0126	-0.154
Mof_C 	C 	0.6697	0.2091	0.073	0.106
Mof_C 	C 	0.6967	0.2281	0.0353	0.104
Mof_C 	C 	0.6147	0.9062	0.9756	0.098
Mof_C 	C 	0.5864	0.8883	0.9851	0.051
Mof_C 	C 	0.5596	0.903	0.9975	-0.118
Mof_C 	C 	0.584	0.8554	0.9823	-0.115
Mof_C 	C 	0.5325	0.8862	0.0053	0.074
Mof_C 	C 	0.5566	0.8398	0.9903	0.069
Mof_N 	N 	0.4614	0.2996	0.2291	-0.069
Mof_N 	N 	0.4826	0.3088	0.2516	-0.093
Mof_N 	N 	0.446	0.2731	0.2385	-0.069
Mof_N 	N 	0.4575	0.2642	0.26709	-0.093
Mof_N 	N 	0.5322	0.2826	0.3626	-0.154
Mof_N 	N 	0.3942	0.3187	0.1932	-0.07
Mof_N 	N 	0.3737	0.3435	0.1959	-0.092
Mof_N 	N 	0.381	0.2914	0.2025	-0.075
Mof_N 	N 	0.3506	0.2972	0.2128	-0.095
Mof_N 	N 	0.2613	0.3799	0.2345	-0.151
Mof_N 	N 	0.4377	0.249	0.1648	-0.071
Mof_N 	N 	0.4467	0.226	0.1444	-0.091
Mof_N 	N 	0.4501	0.2776	0.1544	-0.079
Mof_N 	N 	0.467	0.2723	0.1278	-0.095
Mof_N 	N 	0.5087	0.1946	0.0429	-0.161
Mof_N 	N 	0.4653	0.4989	0.2862	-0.069
Mof_N 	N 	0.4397	0.5094	0.2713	-0.071
Mof_N 	N 	0.4308	0.4878	0.2492	-0.095
Mof_N 	N 	0.4734	0.4697	0.274	-0.099
Mof_N 	N 	0.4496	0.3754	0.2017	-0.155
Mof_N 	N 	0.5304	0.1471	0.9444	-0.073
Mof_N 	N 	0.54194	0.1609	0.9178	-0.069
Mof_N 	N 	0.52	0.1176	0.9378	-0.095
Mof_N 	N 	0.5384	0.1405	0.89337	-0.093
Mof_N 	N 	0.4984	0.0295	0.8547	-0.15
Mof_N 	N 	0.5111	0.0675	0.1984	-0.074
Mof_N 	N 	0.5357	0.0817	0.2121	-0.073
Mof_N 	N 	0.4855	0.0873	0.1984	-0.092
Mof_N 	N 	0.5277	0.1116	0.221	-0.092
Mof_N 	N 	0.4365	0.197	0.2193	-0.174
Mof_N 	N 	0.0386	0.7004	0.7291	-0.069
Mof_N 	N 	0.0174	0.6912	0.7516	-0.093
Mof_N 	N 	0.054	0.7269	0.7385	-0.069
Mof_N 	N 	0.0425	0.7358	0.76709	-0.093
Mof_N 	N 	0.9678	0.7174	0.8626	-0.154
Mof_N 	N 	0.1058	0.6813	0.6932	-0.07
Mof_N 	N 	0.1263	0.6565	0.6959	-0.092
Mof_N 	N 	0.119	0.7086	0.7025	-0.075
Mof_N 	N 	0.1494	0.7028	0.7128	-0.095
Mof_N 	N 	0.2387	0.6201	0.7345	-0.151
Mof_N 	N 	0.0623	0.751	0.6648	-0.071
Mof_N 	N 	0.0533	0.774	0.6444	-0.091
Mof_N 	N 	0.0499	0.7224	0.6544	-0.079
Mof_N 	N 	0.033	0.7277	0.6278	-0.095
Mof_N 	N 	0.9913	0.8054	0.5429	-0.161
Mof_N 	N 	0.0347	0.5011	0.7862	-0.069
Mof_N 	N 	0.0603	0.4906	0.7713	-0.071
Mof_N 	N 	0.0692	0.5122	0.7492	-0.095
Mof_N 	N 	0.0266	0.5303	0.774	-0.099
Mof_N 	N 	0.0504	0.6246	0.7017	-0.155
Mof_N 	N 	0.9696	0.8529	0.4444	-0.073
Mof_N 	N 	0.95806	0.8391	0.4178	-0.069
Mof_N 	N 	0.98	0.8824	0.4378	-0.095
Mof_N 	N 	0.9616	0.8595	0.39337	-0.093
Mof_N 	N 	0.0016	0.9705	0.3547	-0.15
Mof_N 	N 	0.9889	0.9325	0.6984	-0.074
Mof_N 	N 	0.9643	0.9183	0.7121	-0.073
Mof_N 	N 	0.0145	0.9127	0.6984	-0.092
Mof_N 	N 	0.9723	0.8884	0.721	-0.092
Mof_N 	N 	0.0635	0.803	0.7193	-0.174
Mof_N 	N 	0.5386	0.7996	0.2709	-0.069
Mof_N 	N 	0.5174	0.8088	0.2484	-0.093
Mof_N 	N 	0.554	0.7731	0.2615	-0.069
Mof_N 	N 	0.5425	0.7642	0.23291	-0.093
Mof_N 	N 	0.4678	0.7826	0.1374	-0.154
Mof_N 	N 	0.6058	0.8187	0.3068	-0.07
Mof_N 	N 	0.6263	0.8435	0.3041	-0.092
Mof_N 	N 	0.619	0.7914	0.2975	-0.075
Mof_N 	N 	0.6494	0.7972	0.2872	-0.095
Mof_N 	N 	0.7387	0.8799	0.2655	-0.151
Mof_N 	N 	0.5623	0.749	0.3352	-0.071
Mof_N 	N 	0.5533	0.726	0.3556	-0.091
Mof_N 	N 	0.5499	0.7776	0.3456	-0.079
Mof_N 	N 	0.533	0.7723	0.3722	-0.095
Mof_N 	N 	0.4913	0.6946	0.4571	-0.161
Mof_N 	N 	0.5347	0.9989	0.2138	-0.069
Mof_N 	N 	0.5603	0.0094	0.2287	-0.071
Mof_N 	N 	0.5692	0.9878	0.2508	-0.095
Mof_N 	N 	0.5266	0.9697	0.226	-0.099
Mof_N 	N 	0.5504	0.8754	0.2983	-0.155
Mof_N 	N 	0.4696	0.6471	0.5556	-0.073
Mof_N 	N 	0.45806	0.6609	0.5822	-0.069
Mof_N 	N 	0.48	0.6176	0.5622	-0.095
Mof_N 	N 	0.4616	0.6405	0.60663	-0.093
Mof_N 	N 	0.5016	0.5295	0.6453	-0.15
Mof_N 	N 	0.4889	0.5675	0.3016	-0.074
Mof_N 	N 	0.4643	0.5817	0.2879	-0.073
Mof_N 	N 	0.5145	0.5873	0.3016	-0.092
Mof_N 	N 	0.4723	0.6116	0.279	-0.092
Mof_N 	N 	0.5635	0.697	0.2807	-0.174
Mof_N 	N 	0.9614	0.2004	0.7709	-0.069
Mof_N 	N 	0.9826	0.1912	0.7484	-0.093
Mof_N 	N 	0.946	0.2269	0.7615	-0.069
Mof_N 	N 	0.9575	0.2358	0.73291	-0.093
Mof_N 	N 	0.0322	0.2174	0.6374	-0.154
Mof_N 	N 	0.8942	0.1813	0.8068	-0.07
Mof_N 	N 	0.8737	0.1565	0.8041	-0.092
Mof_N 	N 	0.881	0.2086	0.7975	-0.075
Mof_N 	N 	0.8506	0.2028	0.7872	-0.095
Mof_N 	N 	0.7613	0.1201	0.7655	-0.151
Mof_N 	N 	0.9377	0.251	0.8352	-0.071
Mof_N 	N 	0.9467	0.274	0.8556	-0.091
Mof_N 	N 	0.9501	0.2224	0.8456	-0.079
Mof_N 	N 	0.967	0.2277	0.8722	-0.095
Mof_N 	N 	0.0087	0.3054	0.9571	-0.161
Mof_N 	N 	0.9653	0.0011	0.7138	-0.069
Mof_N 	N 	0.9397	0.9906	0.7287	-0.071
Mof_N 	N 	0.9308	0.0122	0.7508	-0.095
Mof_N 	N 	0.9734	0.0303	0.726	-0.099
Mof_N 	N 	0.9496	0.1246	0.7983	-0.155
Mof_N 	N 	0.0304	0.3529	0.0556	-0.073
Mof_N 	N 	0.04194	0.3391	0.0822	-0.069
Mof_N 	N 	0.02	0.3824	0.0622	-0.095
Mof_N 	N 	0.0384	0.3595	0.10663	-0.093
Mof_N 	N 	0.9984	0.4705	0.1453	-0.15
Mof_N 	N 	0.0111	0.4325	0.8016	-0.074
Mof_N 	N 	0.0357	0.4183	0.7879	-0.073
Mof_N 	N 	0.9855	0.4127	0.8016	-0.092
Mof_N 	N 	0.0277	0.3884	0.779	-0.092
Mof_N 	N 	0.9365	0.303	0.7807	-0.174
Mof_N 	N 	0.2291	0.4614	0.2996	-0.069
Mof_N 	N 	0.2516	0.4826	0.3088	-0.093
Mof_N 	N 	0.2385	0.446	0.2731	-0.069
Mof_N 	N 	0.26709	0.4575	0.2642	-0.093
Mof_N 	N 	0.3626	0.5322	0.2826	-0.154
Mof_N 	N 	0.1932	0.3942	0.3187	-0.07
Mof_N 	N 	0.1959	0.3737	0.3435	-0.092
Mof_N 	N 	0.2025	0.381	0.2914	-0.075
Mof_N 	N 	0.2128	0.3506	0.2972	-0.095
Mof_N 	N 	0.2345	0.2613	0.3799	-0.151
Mof_N 	N 	0.1648	0.4377	0.249	-0.071
Mof_N 	N 	0.1444	0.4467	0.226	-0.091
Mof_N 	N 	0.1544	0.4501	0.2776	-0.079
Mof_N 	N 	0.1278	0.467	0.2723	-0.095
Mof_N 	N 	0.0429	0.5087	0.1946	-0.161
Mof_N 	N 	0.2862	0.4653	0.4989	-0.069
Mof_N 	N 	0.2713	0.4397	0.5094	-0.071
Mof_N 	N 	0.2492	0.4308	0.4878	-0.095
Mof_N 	N 	0.274	0.4734	0.4697	-0.099
Mof_N 	N 	0.2017	0.4496	0.3754	-0.155
Mof_N 	N 	0.9444	0.5304	0.1471	-0.073
Mof_N 	N 	0.9178	0.54194	0.1609	-0.069
Mof_N 	N 	0.9378	0.52	0.1176	-0.095
Mof_N 	N 	0.89337	0.5384	0.1405	-0.093
Mof_N 	N 	0.8547	0.4984	0.0295	-0.15
Mof_N 	N 	0.1984	0.5111	0.0675	-0.074
Mof_N 	N 	0.2121	0.5357	0.0817	-0.073
Mof_N 	N 	0.1984	0.4855	0.0873	-0.092
Mof_N 	N 	0.221	0.5277	0.1116	-0.092
Mof_N 	N 	0.2193	0.4365	0.197	-0.174
Mof_N 	N 	0.7291	0.0386	0.7004	-0.069
Mof_N 	N 	0.7516	0.0174	0.6912	-0.093
Mof_N 	N 	0.7385	0.054	0.7269	-0.069
Mof_N 	N 	0.76709	0.0425	0.7358	-0.093
Mof_N 	N 	0.8626	0.9678	0.7174	-0.154
Mof_N 	N 	0.6932	0.1058	0.6813	-0.07
Mof_N 	N 	0.6959	0.1263	0.6565	-0.092
Mof_N 	N 	0.7025	0.119	0.7086	-0.075
Mof_N 	N 	0.7128	0.1494	0.7028	-0.095
Mof_N 	N 	0.7345	0.2387	0.6201	-0.151
Mof_N 	N 	0.6648	0.0623	0.751	-0.071
Mof_N 	N 	0.6444	0.0533	0.774	-0.091
Mof_N 	N 	0.6544	0.0499	0.7224	-0.079
Mof_N 	N 	0.6278	0.033	0.7277	-0.095
Mof_N 	N 	0.5429	0.9913	0.8054	-0.161
Mof_N 	N 	0.7862	0.0347	0.5011	-0.069
Mof_N 	N 	0.7713	0.0603	0.4906	-0.071
Mof_N 	N 	0.7492	0.0692	0.5122	-0.095
Mof_N 	N 	0.774	0.0266	0.5303	-0.099
Mof_N 	N 	0.7017	0.0504	0.6246	-0.155
Mof_N 	N 	0.4444	0.9696	0.8529	-0.073
Mof_N 	N 	0.4178	0.95806	0.8391	-0.069
Mof_N 	N 	0.4378	0.98	0.8824	-0.095
Mof_N 	N 	0.39337	0.9616	0.8595	-0.093
Mof_N 	N 	0.3547	0.0016	0.9705	-0.15
Mof_N 	N 	0.6984	0.9889	0.9325	-0.074
Mof_N 	N 	0.7121	0.9643	0.9183	-0.073
Mof_N 	N 	0.6984	0.0145	0.9127	-0.092
Mof_N 	N 	0.721	0.9723	0.8884	-0.092
Mof_N 	N 	0.7193	0.0635	0.803	-0.174
Mof_N 	N 	0.2709	0.5386	0.7996	-0.069
Mof_N 	N 	0.2484	0.5174	0.8088	-0.093
Mof_N 	N 	0.2615	0.554	0.7731	-0.069
Mof_N 	N 	0.23291	0.5425	0.7642	-0.093
Mof_N 	N 	0.1374	0.4678	0.7826	-0.154
Mof_N 	N 	0.3068	0.6058	0.8187	-0.07
Mof_N 	N 	0.3041	0.6263	0.8435	-0.092
Mof_N 	N 	0.2975	0.619	0.7914	-0.075
Mof_N 	N 	0.2872	0.6494	0.7972	-0.095
Mof_N 	N 	0.2655	0.7387	0.8799	-0.151
Mof_N 	N 	0.3352	0.5623	0.749	-0.071
Mof_N 	N 	0.3556	0.5533	0.726	-0.091
Mof_N 	N 	0.3456	0.5499	0.7776	-0.079
Mof_N 	N 	0.3722	0.533	0.7723	-0.095
Mof_N 	N 	0.4571	0.4913	0.6946	-0.161
Mof_N 	N 	0.2138	0.5347	0.9989	-0.069
Mof_N 	N 	0.2287	0.5603	0.0094	-0.071
Mof_N 	N 	0.2508	0.5692	0.9878	-0.095
Mof_N 	N 	0.226	0.5266	0.9697	-0.099
Mof_N 	N 	0.2983	0.5504	0.8754	-0.155
Mof_N 	N 	0.5556	0.4696	0.6471	-0.073
Mof_N 	N 	0.5822	0.45806	0.6609	-0.069
Mof_N 	N 	0.5622	0.48	0.6176	-0.095
Mof_N 	N 	0.60663	0.4616	0.6405	-0.093
Mof_N 	N 	0.6453	0.5016	0.5295	-0.15
Mof_N 	N 	0.3016	0.4889	0.5675	-0.074
Mof_N 	N 	0.2879	0.4643	0.5817	-0.073
Mof_N 	N 	0.3016	0.5145	0.5873	-0.092
Mof_N 	N 	0.279	0.4723	0.6116	-0.092
Mof_N 	N 	0.2807	0.5635	0.697	-0.174
Mof_N 	N 	0.7709	0.9614	0.2004	-0.069
Mof_N 	N 	0.7484	0.9826	0.1912	-0.093
Mof_N 	N 	0.7615	0.946	0.2269	-0.069
Mof_N 	N 	0.73291	0.9575	0.2358	-0.093
Mof_N 	N 	0.6374	0.0322	0.2174	-0.154
Mof_N 	N 	0.8068	0.8942	0.1813	-0.07
Mof_N 	N 	0.8041	0.8737	0.1565	-0.092
Mof_N 	N 	0.7975	0.881	0.2086	-0.075
Mof_N 	N 	0.7872	0.8506	0.2028	-0.095
Mof_N 	N 	0.7655	0.7613	0.1201	-0.151
Mof_N 	N 	0.8352	0.9377	0.251	-0.071
Mof_N 	N 	0.8556	0.9467	0.274	-0.091
Mof_N 	N 	0.8456	0.9501	0.2224	-0.079
Mof_N 	N 	0.8722	0.967	0.2277	-0.095
Mof_N 	N 	0.9571	0.0087	0.3054	-0.161
Mof_N 	N 	0.7138	0.9653	0.0011	-0.069
Mof_N 	N 	0.7287	0.9397	0.9906	-0.071
Mof_N 	N 	0.7508	0.9308	0.0122	-0.095
Mof_N 	N 	0.726	0.9734	0.0303	-0.099
Mof_N 	N 	0.7983	0.9496	0.1246	-0.155
Mof_N 	N 	0.0556	0.0304	0.3529	-0.073
Mof_N 	N 	0.0822	0.04194	0.3391	-0.069
Mof_N 	N 	0.0622	0.02	0.3824	-0.095
Mof_N 	N 	0.10663	0.0384	0.3595	-0.093
Mof_N 	N 	0.1453	0.9984	0.4705	-0.15
Mof_N 	N 	0.8016	0.0111	0.4325	-0.074
Mof_N 	N 	0.7879	0.0357	0.4183	-0.073
Mof_N 	N 	0.8016	0.9855	0.4127	-0.092
Mof_N 	N 	0.779	0.0277	0.3884	-0.092
Mof_N 	N 	0.7807	0.9365	0.303	-0.174
Mof_N 	N 	0.2996	0.2291	0.4614	-0.069
Mof_N 	N 	0.3088	0.2516	0.4826	-0.093
Mof_N 	N 	0.2731	0.2385	0.446	-0.069
Mof_N 	N 	0.2642	0.26709	0.4575	-0.093
Mof_N 	N 	0.2826	0.3626	0.5322	-0.154
Mof_N 	N 	0.3187	0.1932	0.3942	-0.07
Mof_N 	N 	0.3435	0.1959	0.3737	-0.092
Mof_N 	N 	0.2914	0.2025	0.381	-0.075
Mof_N 	N 	0.2972	0.2128	0.3506	-0.095
Mof_N 	N 	0.3799	0.2345	0.2613	-0.151
Mof_N 	N 	0.249	0.1648	0.4377	-0.071
Mof_N 	N 	0.226	0.1444	0.4467	-0.091
Mof_N 	N 	0.2776	0.1544	0.4501	-0.079
Mof_N 	N 	0.2723	0.1278	0.467	-0.095
Mof_N 	N 	0.1946	0.0429	0.5087	-0.161
Mof_N 	N 	0.4989	0.2862	0.4653	-0.069
Mof_N 	N 	0.5094	0.2713	0.4397	-0.071
Mof_N 	N 	0.4878	0.2492	0.4308	-0.095
Mof_N 	N 	0.4697	0.274	0.4734	-0.099
Mof_N 	N 	0.3754	0.2017	0.4496	-0.155
Mof_N 	N 	0.1471	0.9444	0.5304	-0.073
Mof_N 	N 	0.1609	0.9178	0.54194	-0.069
Mof_N 	N 	0.1176	0.9378	0.52	-0.095
Mof_N 	N 	0.1405	0.89337	0.5384	-0.093
Mof_N 	N 	0.0295	0.8547	0.4984	-0.15
Mof_N 	N 	0.0675	0.1984	0.5111	-0.074
Mof_N 	N 	0.0817	0.2121	0.5357	-0.073
Mof_N 	N 	0.0873	0.1984	0.4855	-0.092
Mof_N 	N 	0.1116	0.221	0.5277	-0.092
Mof_N 	N 	0.197	0.2193	0.4365	-0.174
Mof_N 	N 	0.7004	0.7291	0.0386	-0.069
Mof_N 	N 	0.6912	0.7516	0.0174	-0.093
Mof_N 	N 	0.7269	0.7385	0.054	-0.069
Mof_N 	N 	0.7358	0.76709	0.0425	-0.093
Mof_N 	N 	0.7174	0.8626	0.9678	-0.154
Mof_N 	N 	0.6813	0.6932	0.1058	-0.07
Mof_N 	N 	0.6565	0.6959	0.1263	-0.092
Mof_N 	N 	0.7086	0.7025	0.119	-0.075
Mof_N 	N 	0.7028	0.7128	0.1494	-0.095
Mof_N 	N 	0.6201	0.7345	0.2387	-0.151
Mof_N 	N 	0.751	0.6648	0.0623	-0.071
Mof_N 	N 	0.774	0.6444	0.0533	-0.091
Mof_N 	N 	0.7224	0.6544	0.0499	-0.079
Mof_N 	N 	0.7277	0.6278	0.033	-0.095
Mof_N 	N 	0.8054	0.5429	0.9913	-0.161
Mof_N 	N 	0.5011	0.7862	0.0347	-0.069
Mof_N 	N 	0.4906	0.7713	0.0603	-0.071
Mof_N 	N 	0.5122	0.7492	0.0692	-0.095
Mof_N 	N 	0.5303	0.774	0.0266	-0.099
Mof_N 	N 	0.6246	0.7017	0.0504	-0.155
Mof_N 	N 	0.8529	0.4444	0.9696	-0.073
Mof_N 	N 	0.8391	0.4178	0.95806	-0.069
Mof_N 	N 	0.8824	0.4378	0.98	-0.095
Mof_N 	N 	0.8595	0.39337	0.9616	-0.093
Mof_N 	N 	0.9705	0.3547	0.0016	-0.15
Mof_N 	N 	0.9325	0.6984	0.9889	-0.074
Mof_N 	N 	0.9183	0.7121	0.9643	-0.073
Mof_N 	N 	0.9127	0.6984	0.0145	-0.092
Mof_N 	N 	0.8884	0.721	0.9723	-0.092
Mof_N 	N 	0.803	0.7193	0.0635	-0.174
Mof_N 	N 	0.7996	0.2709	0.5386	-0.069
Mof_N 	N 	0.8088	0.2484	0.5174	-0.093
Mof_N 	N 	0.7731	0.2615	0.554	-0.069
Mof_N 	N 	0.7642	0.23291	0.5425	-0.093
Mof_N 	N 	0.7826	0.1374	0.4678	-0.154
Mof_N 	N 	0.8187	0.3068	0.6058	-0.07
Mof_N 	N 	0.8435	0.3041	0.6263	-0.092
Mof_N 	N 	0.7914	0.2975	0.619	-0.075
Mof_N 	N 	0.7972	0.2872	0.6494	-0.095
Mof_N 	N 	0.8799	0.2655	0.7387	-0.151
Mof_N 	N 	0.749	0.3352	0.5623	-0.071
Mof_N 	N 	0.726	0.3556	0.5533	-0.091
Mof_N 	N 	0.7776	0.3456	0.5499	-0.079
Mof_N 	N 	0.7723	0.3722	0.533	-0.095
Mof_N 	N 	0.6946	0.4571	0.4913	-0.161
Mof_N 	N 	0.9989	0.2138	0.5347	-0.069
Mof_N 	N 	0.0094	0.2287	0.5603	-0.071
Mof_N 	N 	0.9878	0.2508	0.5692	-0.095
Mof_N 	N 	0.9697	0.226	0.5266	-0.099
Mof_N 	N 	0.8754	0.2983	0.5504	-0.155
Mof_N 	N 	0.6471	0.5556	0.4696	-0.073
Mof_N 	N 	0.6609	0.5822	0.45806	-0.069
Mof_N 	N 	0.6176	0.5622	0.48	-0.095
Mof_N 	N 	0.6405	0.60663	0.4616	-0.093
Mof_N 	N 	0.5295	0.6453	0.5016	-0.15
Mof_N 	N 	0.5675	0.3016	0.4889	-0.074
Mof_N 	N 	0.5817	0.2879	0.4643	-0.073
Mof_N 	N 	0.5873	0.3016	0.5145	-0.092
Mof_N 	N 	0.6116	0.279	0.4723	-0.092
Mof_N 	N 	0.697	0.2807	0.5635	-0.174
Mof_N 	N 	0.2004	0.7709	0.9614	-0.069
Mof_N 	N 	0.1912	0.7484	0.9826	-0.093
Mof_N 	N 	0.2269	0.7615	0.946	-0.069
Mof_N 	N 	0.2358	0.73291	0.9575	-0.093
Mof_N 	N 	0.2174	0.6374	0.0322	-0.154
Mof_N 	N 	0.1813	0.8068	0.8942	-0.07
Mof_N 	N 	0.1565	0.8041	0.8737	-0.092
Mof_N 	N 	0.2086	0.7975	0.881	-0.075
Mof_N 	N 	0.2028	0.7872	0.8506	-0.095
Mof_N 	N 	0.1201	0.7655	0.7613	-0.151
Mof_N 	N 	0.251	0.8352	0.9377	-0.071
Mof_N 	N 	0.274	0.8556	0.9467	-0.091
Mof_N 	N 	0.2224	0.8456	0.9501	-0.079
Mof_N 	N 	0.2277	0.8722	0.967	-0.095
Mof_N 	N 	0.3054	0.9571	0.0087	-0.161
Mof_N 	N 	0.0011	0.7138	0.9653	-0.069
Mof_N 	N 	0.9906	0.7287	0.9397	-0.071
Mof_N 	N 	0.0122	0.7508	0.9308	-0.095
Mof_N 	N 	0.0303	0.726	0.9734	-0.099
Mof_N 	N 	0.1246	0.7983	0.9496	-0.155
Mof_N 	N 	0.3529	0.0556	0.0304	-0.073
Mof_N 	N 	0.3391	0.0822	0.04194	-0.069
Mof_N 	N 	0.3824	0.0622	0.02	-0.095
Mof_N 	N 	0.3595	0.10663	0.0384	-0.093
Mof_N 	N 	0.4705	0.1453	0.9984	-0.15
Mof_N 	N 	0.4325	0.8016	0.0111	-0.074
Mof_N 	N 	0.4183	0.7879	0.0357	-0.073
Mof_N 	N 	0.4127	0.8016	0.9855	-0.092
Mof_N 	N 	0.3884	0.779	0.0277	-0.092
Mof_N 	N 	0.303	0.7807	0.9365	-0.174
Mof_N 	N 	0.5386	0.7004	0.7709	-0.069
Mof_N 	N 	0.5174	0.6912	0.7484	-0.093
Mof_N 	N 	0.554	0.7269	0.7615	-0.069
Mof_N 	N 	0.5425	0.7358	0.73291	-0.093
Mof_N 	N 	0.4678	0.7174	0.6374	-0.154
Mof_N 	N 	0.6058	0.6813	0.8068	-0.07
Mof_N 	N 	0.6263	0.6565	0.8041	-0.092
Mof_N 	N 	0.619	0.7086	0.7975	-0.075
Mof_N 	N 	0.6494	0.7028	0.7872	-0.095
Mof_N 	N 	0.7387	0.6201	0.7655	-0.151
Mof_N 	N 	0.5623	0.751	0.8352	-0.071
Mof_N 	N 	0.5533	0.774	0.8556	-0.091
Mof_N 	N 	0.5499	0.7224	0.8456	-0.079
Mof_N 	N 	0.533	0.7277	0.8722	-0.095
Mof_N 	N 	0.4913	0.8054	0.9571	-0.161
Mof_N 	N 	0.5347	0.5011	0.7138	-0.069
Mof_N 	N 	0.5603	0.4906	0.7287	-0.071
Mof_N 	N 	0.5692	0.5122	0.7508	-0.095
Mof_N 	N 	0.5266	0.5303	0.726	-0.099
Mof_N 	N 	0.5504	0.6246	0.7983	-0.155
Mof_N 	N 	0.4696	0.8529	0.0556	-0.073
Mof_N 	N 	0.45806	0.8391	0.0822	-0.069
Mof_N 	N 	0.48	0.8824	0.0622	-0.095
Mof_N 	N 	0.4616	0.8595	0.10663	-0.093
Mof_N 	N 	0.5016	0.9705	0.1453	-0.15
Mof_N 	N 	0.4889	0.9325	0.8016	-0.074
Mof_N 	N 	0.4643	0.9183	0.7879	-0.073
Mof_N 	N 	0.5145	0.9127	0.8016	-0.092
Mof_N 	N 	0.4723	0.8884	0.779	-0.092
Mof_N 	N 	0.5635	0.803	0.7807	-0.174
Mof_N 	N 	0.9614	0.2996	0.2709	-0.069
Mof_N 	N 	0.9826	0.3088	0.2484	-0.093
Mof_N 	N 	0.946	0.2731	0.2615	-0.069
Mof_N 	N 	0.9575	0.2642	0.23291	-0.093
Mof_N 	N 	0.0322	0.2826	0.1374	-0.154
Mof_N 	N 	0.8942	0.3187	0.3068	-0.07
Mof_N 	N 	0.8737	0.3435	0.3041	-0.092
Mof_N 	N 	0.881	0.2914	0.2975	-0.075
Mof_N 	N 	0.8506	0.2972	0.2872	-0.095
Mof_N 	N 	0.7613	0.3799	0.2655	-0.151
Mof_N 	N 	0.9377	0.249	0.3352	-0.071
Mof_N 	N 	0.9467	0.226	0.3556	-0.091
Mof_N 	N 	0.9501	0.2776	0.3456	-0.079
Mof_N 	N 	0.967	0.2723	0.3722	-0.095
Mof_N 	N 	0.0087	0.1946	0.4571	-0.161
Mof_N 	N 	0.9653	0.4989	0.2138	-0.069
Mof_N 	N 	0.9397	0.5094	0.2287	-0.071
Mof_N 	N 	0.9308	0.4878	0.2508	-0.095
Mof_N 	N 	0.9734	0.4697	0.226	-0.099
Mof_N 	N 	0.9496	0.3754	0.2983	-0.155
Mof_N 	N 	0.0304	0.1471	0.5556	-0.073
Mof_N 	N 	0.04194	0.1609	0.5822	-0.069
Mof_N 	N 	0.02	0.1176	0.5622	-0.095
Mof_N 	N 	0.0384	0.1405	0.60663	-0.093
Mof_N 	N 	0.9984	0.0295	0.6453	-0.15
Mof_N 	N 	0.0111	0.0675	0.3016	-0.074
Mof_N 	N 	0.0357	0.0817	0.2879	-0.073
Mof_N 	N 	0.9855	0.0873	0.3016	-0.092
Mof_N 	N 	0.0277	0.1116	0.279	-0.092
Mof_N 	N 	0.9365	0.197	0.2807	-0.174
Mof_N 	N 	0.4614	0.2004	0.7291	-0.069
Mof_N 	N 	0.4826	0.1912	0.7516	-0.093
Mof_N 	N 	0.446	0.2269	0.7385	-0.069
Mof_N 	N 	0.4575	0.2358	0.76709	-0.093
Mof_N 	N 	0.5322	0.2174	0.8626	-0.154
Mof_N 	N 	0.3942	0.1813	0.6932	-0.07
Mof_N 	N 	0.3737	0.1565	0.6959	-0.092
Mof_N 	N 	0.381	0.2086	0.7025	-0.075
Mof_N 	N 	0.3506	0.2028	0.7128	-0.095
Mof_N 	N 	0.2613	0.1201	0.7345	-0.151
Mof_N 	N 	0.4377	0.251	0.6648	-0.071
Mof_N 	N 	0.4467	0.274	0.6444	-0.091
Mof_N 	N 	0.4501	0.2224	0.6544	-0.079
Mof_N 	N 	0.467	0.2277	0.6278	-0.095
Mof_N 	N 	0.5087	0.3054	0.5429	-0.161
Mof_N 	N 	0.4653	0.0011	0.7862	-0.069
Mof_N 	N 	0.4397	0.9906	0.7713	-0.071
Mof_N 	N 	0.4308	0.0122	0.7492	-0.095
Mof_N 	N 	0.4734	0.0303	0.774	-0.099
Mof_N 	N 	0.4496	0.1246	0.7017	-0.155
Mof_N 	N 	0.5304	0.3529	0.4444	-0.073
Mof_N 	N 	0.54194	0.3391	0.4178	-0.069
Mof_N 	N 	0.52	0.3824	0.4378	-0.095
Mof_N 	N 	0.5384	0.3595	0.39337	-0.093
Mof_N 	N 	0.4984	0.4705	0.3547	-0.15
Mof_N 	N 	0.5111	0.4325	0.6984	-0.074
Mof_N 	N 	0.5357	0.4183	0.7121	-0.073
Mof_N 	N 	0.4855	0.4127	0.6984	-0.092
Mof_N 	N 	0.5277	0.3884	0.721	-0.092
Mof_N 	N 	0.4365	0.303	0.7193	-0.174
Mof_N 	N 	0.0386	0.7996	0.2291	-0.069
Mof_N 	N 	0.0174	0.8088	0.2516	-0.093
Mof_N 	N 	0.054	0.7731	0.2385	-0.069
Mof_N 	N 	0.0425	0.7642	0.26709	-0.093
Mof_N 	N 	0.9678	0.7826	0.3626	-0.154
Mof_N 	N 	0.1058	0.8187	0.1932	-0.07
Mof_N 	N 	0.1263	0.8435	0.1959	-0.092
Mof_N 	N 	0.119	0.7914	0.2025	-0.075
Mof_N 	N 	0.1494	0.7972	0.2128	-0.095
Mof_N 	N 	0.2387	0.8799	0.2345	-0.151
Mof_N 	N 	0.0623	0.749	0.1648	-0.071
Mof_N 	N 	0.0533	0.726	0.1444	-0.091
Mof_N 	N 	0.0499	0.7776	0.1544	-0.079
Mof_N 	N 	0.033	0.7723	0.1278	-0.095
Mof_N 	N 	0.9913	0.6946	0.0429	-0.161
Mof_N 	N 	0.0347	0.9989	0.2862	-0.069
Mof_N 	N 	0.0603	0.0094	0.2713	-0.071
Mof_N 	N 	0.0692	0.9878	0.2492	-0.095
Mof_N 	N 	0.0266	0.9697	0.274	-0.099
Mof_N 	N 	0.0504	0.8754	0.2017	-0.155
Mof_N 	N 	0.9696	0.6471	0.9444	-0.073
Mof_N 	N 	0.95806	0.6609	0.9178	-0.069
Mof_N 	N 	0.98	0.6176	0.9378	-0.095
Mof_N 	N 	0.9616	0.6405	0.89337	-0.093
Mof_N 	N 	0.0016	0.5295	0.8547	-0.15
Mof_N 	N 	0.9889	0.5675	0.1984	-0.074
Mof_N 	N 	0.9643	0.5817	0.2121	-0.073
Mof_N 	N 	0.0145	0.5873	0.1984	-0.092
Mof_N 	N 	0.9723	0.6116	0.221	-0.092
Mof_N 	N 	0.0635	0.697	0.2193	-0.174
Mof_N 	N 	0.7709	0.5386	0.7004	-0.069
Mof_N 	N 	0.7484	0.5174	0.6912	-0.093
Mof_N 	N 	0.7615	0.554	0.7269	-0.069
Mof_N 	N 	0.73291	0.5425	0.7358	-0.093
Mof_N 	N 	0.6374	0.4678	0.7174	-0.154
Mof_N 	N 	0.8068	0.6058	0.6813	-0.07
Mof_N 	N 	0.8041	0.6263	0.6565	-0.092
Mof_N 	N 	0.7975	0.619	0.7086	-0.075
Mof_N 	N 	0.7872	0.6494	0.7028	-0.095
Mof_N 	N 	0.7655	0.7387	0.6201	-0.151
Mof_N 	N 	0.8352	0.5623	0.751	-0.071
Mof_N 	N 	0.8556	0.5533	0.774	-0.091
Mof_N 	N 	0.8456	0.5499	0.7224	-0.079
Mof_N 	N 	0.8722	0.533	0.7277	-0.095
Mof_N 	N 	0.9571	0.4913	0.8054	-0.161
Mof_N 	N 	0.7138	0.5347	0.5011	-0.069
Mof_N 	N 	0.7287	0.5603	0.4906	-0.071
Mof_N 	N 	0.7508	0.5692	0.5122	-0.095
Mof_N 	N 	0.726	0.5266	0.5303	-0.099
Mof_N 	N 	0.7983	0.5504	0.6246	-0.155
Mof_N 	N 	0.0556	0.4696	0.8529	-0.073
Mof_N 	N 	0.0822	0.45806	0.8391	-0.069
Mof_N 	N 	0.0622	0.48	0.8824	-0.095
Mof_N 	N 	0.10663	0.4616	0.8595	-0.093
Mof_N 	N 	0.1453	0.5016	0.9705	-0.15
Mof_N 	N 	0.8016	0.4889	0.9325	-0.074
Mof_N 	N 	0.7879	0.4643	0.9183	-0.073
Mof_N 	N 	0.8016	0.5145	0.9127	-0.092
Mof_N 	N 	0.779	0.4723	0.8884	-0.092
Mof_N 	N 	0.7807	0.5635	0.803	-0.174
Mof_N 	N 	0.2709	0.9614	0.2996	-0.069
Mof_N 	N 	0.2484	0.9826	0.3088	-0.093
Mof_N 	N 	0.2615	0.946	0.2731	-0.069
Mof_N 	N 	0.23291	0.9575	0.2642	-0.093
Mof_N 	N 	0.1374	0.0322	0.2826	-0.154
Mof_N 	N 	0.3068	0.8942	0.3187	-0.07
Mof_N 	N 	0.3041	0.8737	0.3435	-0.092
Mof_N 	N 	0.2975	0.881	0.2914	-0.075
Mof_N 	N 	0.2872	0.8506	0.2972	-0.095
Mof_N 	N 	0.2655	0.7613	0.3799	-0.151
Mof_N 	N 	0.3352	0.9377	0.249	-0.071
Mof_N 	N 	0.3556	0.9467	0.226	-0.091
Mof_N 	N 	0.3456	0.9501	0.2776	-0.079
Mof_N 	N 	0.3722	0.967	0.2723	-0.095
Mof_N 	N 	0.4571	0.0087	0.1946	-0.161
Mof_N 	N 	0.2138	0.9653	0.4989	-0.069
Mof_N 	N 	0.2287	0.9397	0.5094	-0.071
Mof_N 	N 	0.2508	0.9308	0.4878	-0.095
Mof_N 	N 	0.226	0.9734	0.4697	-0.099
Mof_N 	N 	0.2983	0.9496	0.3754	-0.155
Mof_N 	N 	0.5556	0.0304	0.1471	-0.073
Mof_N 	N 	0.5822	0.04194	0.1609	-0.069
Mof_N 	N 	0.5622	0.02	0.1176	-0.095
Mof_N 	N 	0.60663	0.0384	0.1405	-0.093
Mof_N 	N 	0.6453	0.9984	0.0295	-0.15
Mof_N 	N 	0.3016	0.0111	0.0675	-0.074
Mof_N 	N 	0.2879	0.0357	0.0817	-0.073
Mof_N 	N 	0.3016	0.9855	0.0873	-0.092
Mof_N 	N 	0.279	0.0277	0.1116	-0.092
Mof_N 	N 	0.2807	0.9365	0.197	-0.174
Mof_N 	N 	0.7291	0.4614	0.2004	-0.069
Mof_N 	N 	0.7516	0.4826	0.1912	-0.093
Mof_N 	N 	0.7385	0.446	0.2269	-0.069
Mof_N 	N 	0.76709	0.4575	0.2358	-0.093
Mof_N 	N 	0.8626	0.5322	0.2174	-0.154
Mof_N 	N 	0.6932	0.3942	0.1813	-0.07
Mof_N 	N 	0.6959	0.3737	0.1565	-0.092
Mof_N 	N 	0.7025	0.381	0.2086	-0.075
Mof_N 	N 	0.7128	0.3506	0.2028	-0.095
Mof_N 	N 	0.7345	0.2613	0.1201	-0.151
Mof_N 	N 	0.6648	0.4377	0.251	-0.071
Mof_N 	N 	0.6444	0.4467	0.274	-0.091
Mof_N 	N 	0.6544	0.4501	0.2224	-0.079
Mof_N 	N 	0.6278	0.467	0.2277	-0.095
Mof_N 	N 	0.5429	0.5087	0.3054	-0.161
Mof_N 	N 	0.7862	0.4653	0.0011	-0.069
Mof_N 	N 	0.7713	0.4397	0.9906	-0.071
Mof_N 	N 	0.7492	0.4308	0.0122	-0.095
Mof_N 	N 	0.774	0.4734	0.0303	-0.099
Mof_N 	N 	0.7017	0.4496	0.1246	-0.155
Mof_N 	N 	0.4444	0.5304	0.3529	-0.073
Mof_N 	N 	0.4178	0.54194	0.3391	-0.069
Mof_N 	N 	0.4378	0.52	0.3824	-0.095
Mof_N 	N 	0.39337	0.5384	0.3595	-0.093
Mof_N 	N 	0.3547	0.4984	0.4705	-0.15
Mof_N 	N 	0.6984	0.5111	0.4325	-0.074
Mof_N 	N 	0.7121	0.5357	0.4183	-0.073
Mof_N 	N 	0.6984	0.4855	0.4127	-0.092
Mof_N 	N 	0.721	0.5277	0.3884	-0.092
Mof_N 	N 	0.7193	0.4365	0.303	-0.174
Mof_N 	N 	0.2291	0.0386	0.7996	-0.069
Mof_N 	N 	0.2516	0.0174	0.8088	-0.093
Mof_N 	N 	0.2385	0.054	0.7731	-0.069
Mof_N 	N 	0.26709	0.0425	0.7642	-0.093
Mof_N 	N 	0.3626	0.9678	0.7826	-0.154
Mof_N 	N 	0.1932	0.1058	0.8187	-0.07
Mof_N 	N 	0.1959	0.1263	0.8435	-0.092
Mof_N 	N 	0.2025	0.119	0.7914	-0.075
Mof_N 	N 	0.2128	0.1494	0.7972	-0.095
Mof_N 	N 	0.2345	0.2387	0.8799	-0.151
Mof_N 	N 	0.1648	0.0623	0.749	-0.071
Mof_N 	N 	0.1444	0.0533	0.726	-0.091
Mof_N 	N 	0.1544	0.0499	0.7776	-0.079
Mof_N 	N 	0.1278	0.033	0.7723	-0.095
Mof_N 	N 	0.0429	0.9913	0.6946	-0.161
Mof_N 	N 	0.2862	0.0347	0.9989	-0.069
Mof_N 	N 	0.2713	0.0603	0.0094	-0.071
Mof_N 	N 	0.2492	0.0692	0.9878	-0.095
Mof_N 	N 	0.274	0.0266	0.9697	-0.099
Mof_N 	N 	0.2017	0.0504	0.8754	-0.155
Mof_N 	N 	0.9444	0.9696	0.6471	-0.073
Mof_N 	N 	0.9178	0.95806	0.6609	-0.069
Mof_N 	N 	0.9378	0.98	0.6176	-0.095
Mof_N 	N 	0.89337	0.9616	0.6405	-0.093
Mof_N 	N 	0.8547	0.0016	0.5295	-0.15
Mof_N 	N 	0.1984	0.9889	0.5675	-0.074
Mof_N 	N 	0.2121	0.9643	0.5817	-0.073
Mof_N 	N 	0.1984	0.0145	0.5873	-0.092
Mof_N 	N 	0.221	0.9723	0.6116	-0.092
Mof_N 	N 	0.2193	0.0635	0.697	-0.174
Mof_N 	N 	0.7004	0.7709	0.5386	-0.069
Mof_N 	N 	0.6912	0.7484	0.5174	-0.093
Mof_N 	N 	0.7269	0.7615	0.554	-0.069
Mof_N 	N 	0.7358	0.73291	0.5425	-0.093
Mof_N 	N 	0.7174	0.6374	0.4678	-0.154
Mof_N 	N 	0.6813	0.8068	0.6058	-0.07
Mof_N 	N 	0.6565	0.8041	0.6263	-0.092
Mof_N 	N 	0.7086	0.7975	0.619	-0.075
Mof_N 	N 	0.7028	0.7872	0.6494	-0.095
Mof_N 	N 	0.6201	0.7655	0.7387	-0.151
Mof_N 	N 	0.751	0.8352	0.5623	-0.071
Mof_N 	N 	0.774	0.8556	0.5533	-0.091
Mof_N 	N 	0.7224	0.8456	0.5499	-0.079
Mof_N 	N 	0.7277	0.8722	0.533	-0.095
Mof_N 	N 	0.8054	0.9571	0.4913	-0.161
Mof_N 	N 	0.5011	0.7138	0.5347	-0.069
Mof_N 	N 	0.4906	0.7287	0.5603	-0.071
Mof_N 	N 	0.5122	0.7508	0.5692	-0.095
Mof_N 	N 	0.5303	0.726	0.5266	-0.099
Mof_N 	N 	0.6246	0.7983	0.5504	-0.155
Mof_N 	N 	0.8529	0.0556	0.4696	-0.073
Mof_N 	N 	0.8391	0.0822	0.45806	-0.069
Mof_N 	N 	0.8824	0.0622	0.48	-0.095
Mof_N 	N 	0.8595	0.10663	0.4616	-0.093
Mof_N 	N 	0.9705	0.1453	0.5016	-0.15
Mof_N 	N 	0.9325	0.8016	0.4889	-0.074
Mof_N 	N 	0.9183	0.7879	0.4643	-0.073
Mof_N 	N 	0.9127	0.8016	0.5145	-0.092
Mof_N 	N 	0.8884	0.779	0.4723	-0.092
Mof_N 	N 	0.803	0.7807	0.5635	-0.174
Mof_N 	N 	0.2996	0.2709	0.9614	-0.069
Mof_N 	N 	0.3088	0.2484	0.9826	-0.093
Mof_N 	N 	0.2731	0.2615	0.946	-0.069
Mof_N 	N 	0.2642	0.23291	0.9575	-0.093
Mof_N 	N 	0.2826	0.1374	0.0322	-0.154
Mof_N 	N 	0.3187	0.3068	0.8942	-0.07
Mof_N 	N 	0.3435	0.3041	0.8737	-0.092
Mof_N 	N 	0.2914	0.2975	0.881	-0.075
Mof_N 	N 	0.2972	0.2872	0.8506	-0.095
Mof_N 	N 	0.3799	0.2655	0.7613	-0.151
Mof_N 	N 	0.249	0.3352	0.9377	-0.071
Mof_N 	N 	0.226	0.3556	0.9467	-0.091
Mof_N 	N 	0.2776	0.3456	0.9501	-0.079
Mof_N 	N 	0.2723	0.3722	0.967	-0.095
Mof_N 	N 	0.1946	0.4571	0.0087	-0.161
Mof_N 	N 	0.4989	0.2138	0.9653	-0.069
Mof_N 	N 	0.5094	0.2287	0.9397	-0.071
Mof_N 	N 	0.4878	0.2508	0.9308	-0.095
Mof_N 	N 	0.4697	0.226	0.9734	-0.099
Mof_N 	N 	0.3754	0.2983	0.9496	-0.155
Mof_N 	N 	0.1471	0.5556	0.0304	-0.073
Mof_N 	N 	0.1609	0.5822	0.04194	-0.069
Mof_N 	N 	0.1176	0.5622	0.02	-0.095
Mof_N 	N 	0.1405	0.60663	0.0384	-0.093
Mof_N 	N 	0.0295	0.6453	0.9984	-0.15
Mof_N 	N 	0.0675	0.3016	0.0111	-0.074
Mof_N 	N 	0.0817	0.2879	0.0357	-0.073
Mof_N 	N 	0.0873	0.3016	0.9855	-0.092
Mof_N 	N 	0.1116	0.279	0.0277	-0.092
Mof_N 	N 	0.197	0.2807	0.9365	-0.174
Mof_N 	N 	0.2004	0.7291	0.4614	-0.069
Mof_N 	N 	0.1912	0.7516	0.4826	-0.093
Mof_N 	N 	0.2269	0.7385	0.446	-0.069
Mof_N 	N 	0.2358	0.76709	0.4575	-0.093
Mof_N 	N 	0.2174	0.8626	0.5322	-0.154
Mof_N 	N 	0.1813	0.6932	0.3942	-0.07
Mof_N 	N 	0.1565	0.6959	0.3737	-0.092
Mof_N 	N 	0.2086	0.7025	0.381	-0.075
Mof_N 	N 	0.2028	0.7128	0.3506	-0.095
Mof_N 	N 	0.1201	0.7345	0.2613	-0.151
Mof_N 	N 	0.251	0.6648	0.4377	-0.071
Mof_N 	N 	0.274	0.6444	0.4467	-0.091
Mof_N 	N 	0.2224	0.6544	0.4501	-0.079
Mof_N 	N 	0.2277	0.6278	0.467	-0.095
Mof_N 	N 	0.3054	0.5429	0.5087	-0.161
Mof_N 	N 	0.0011	0.7862	0.4653	-0.069
Mof_N 	N 	0.9906	0.7713	0.4397	-0.071
Mof_N 	N 	0.0122	0.7492	0.4308	-0.095
Mof_N 	N 	0.0303	0.774	0.4734	-0.099
Mof_N 	N 	0.1246	0.7017	0.4496	-0.155
Mof_N 	N 	0.3529	0.4444	0.5304	-0.073
Mof_N 	N 	0.3391	0.4178	0.54194	-0.069
Mof_N 	N 	0.3824	0.4378	0.52	-0.095
Mof_N 	N 	0.3595	0.39337	0.5384	-0.093
Mof_N 	N 	0.4705	0.3547	0.4984	-0.15
Mof_N 	N 	0.4325	0.6984	0.5111	-0.074
Mof_N 	N 	0.4183	0.7121	0.5357	-0.073
Mof_N 	N 	0.4127	0.6984	0.4855	-0.092
Mof_N 	N 	0.3884	0.721	0.5277	-0.092
Mof_N 	N 	0.303	0.7193	0.4365	-0.174
Mof_N 	N 	0.7996	0.2291	0.0386	-0.069
Mof_N 	N 	0.8088	0.2516	0.0174	-0.093
Mof_N 	N 	0.7731	0.2385	0.054	-0.069
Mof_N 	N 	0.7642	0.26709	0.0425	-0.093
Mof_N 	N 	0.7826	0.3626	0.9678	-0.154
Mof_N 	N 	0.8187	0.1932	0.1058	-0.07
Mof_N 	N 	0.8435	0.1959	0.1263	-0.092
Mof_N 	N 	0.7914	0.2025	0.119	-0.075
Mof_N 	N 	0.7972	0.2128	0.1494	-0.095
Mof_N 	N 	0.8799	0.2345	0.2387	-0.151
Mof_N 	N 	0.749	0.1648	0.0623	-0.071
Mof_N 	N 	0.726	0.1444	0.0533	-0.091
Mof_N 	N 	0.7776	0.1544	0.0499	-0.079
Mof_N 	N 	0.7723	0.1278	0.033	-0.095
Mof_N 	N 	0.6946	0.0429	0.9913	-0.161
Mof_N 	N 	0.9989	0.2862	0.0347	-0.069
Mof_N 	N 	0.0094	0.2713	0.0603	-0.071
Mof_N 	N 	0.9878	0.2492	0.0692	-0.095
Mof_N 	N 	0.9697	0.274	0.0266	-0.099
Mof_N 	N 	0.8754	0.2017	0.0504	-0.155
Mof_N 	N 	0.6471	0.9444	0.9696	-0.073
Mof_N 	N 	0.6609	0.9178	0.95806	-0.069
Mof_N 	N 	0.6176	0.9378	0.98	-0.095
Mof_N 	N 	0.6405	0.89337	0.9616	-0.093
Mof_N 	N 	0.5295	0.8547	0.0016	-0.15
Mof_N 	N 	0.5675	0.1984	0.9889	-0.074
Mof_N 	N 	0.5817	0.2121	0.9643	-0.073
Mof_N 	N 	0.5873	0.1984	0.0145	-0.092
Mof_N 	N 	0.6116	0.221	0.9723	-0.092
Mof_N 	N 	0.697	0.2193	0.0635	-0.174
_end
