data_functionalizedCrystal
_audit_creation_method	'EQeq! by Chris Wilmer'
_symmetry_space_group_name_H-M	'P1'
_symmetry_Int_Tables_number	1
_symmetry_cell_setting	triclinic
loop_
_symmetry_equiv_pos_as_xyz
  x,y,z
_cell_length_a	9.3663
_cell_length_b	34.9276
_cell_length_c	17.1862
_cell_angle_alpha	90
_cell_angle_beta	99.356
_cell_angle_gamma	90
loop_
_atom_site_label
_atom_site_type_symbol
_atom_site_fract_x
_atom_site_fract_y
_atom_site_fract_z
_atom_site_charge
Mof_C 	C 	0.3294	0.01798	0.5469	-0.308
Mof_C 	C 	0.2377	0.99475	0.4939	0.371
Mof_C 	C 	0.1293	0.01124	0.4387	-0.302
Mof_C 	C 	0.1132	0.05068	0.4363	0.366
Mof_C 	C 	0.1998	0.07323	0.4912	-0.29
Mof_C 	C 	0.3051	0.05702	0.548	0.366
Mof_C 	C 	0.3928	0.0827	0.6115	-0.859
Mof_H 	H 	0.4498	0.0669	0.6505	0.288
Mof_H 	H 	0.3277	0.098	0.6361	0.294
Mof_H 	H 	0.4554	0.0991	0.5874	0.278
Mof_C 	C 	0.4532	1e-05	0.6014	0.181
Mof_H 	H 	0.4958	0.9795	0.5748	-0.031
Mof_H 	H 	0.5274	0.0189	0.6188	-0.032
Mof_C 	C 	0.2609	0.95099	0.497	-0.871
Mof_H 	H 	0.3323	0.9446	0.5418	0.293
Mof_H 	H 	0.2936	0.9427	0.4496	0.296
Mof_H 	H 	0.1713	0.9385	0.5015	0.297
Mof_C 	C 	0.0289	0.98551	0.3844	0.165
Mof_H 	H 	0.9887	0.9657	0.414	-0.013
Mof_H 	H 	0.9501	0.0001	0.3548	-0.017
Mof_C 	C 	0.9962	0.06939	0.3748	-0.868
Mof_H 	H 	0.9821	0.0955	0.3896	0.292
Mof_H 	H 	0.907	0.0555	0.3724	0.289
Mof_H 	H 	0.0264	0.0689	0.324	0.294
Mof_C 	C 	0.1795	0.11695	0.4887	0.141
Mof_H 	H 	0.2652	0.1305	0.514	-0.017
Mof_H 	H 	0.1502	0.1265	0.4355	-0.022
Mof_C 	C 	0.4779	0.95989	0.7156	0.319
Mof_C 	C 	0.4129	0.9402	0.7702	-0.316
Mof_H 	H 	0.3161	0.9446	0.7734	0.146
Mof_C 	C 	0.4913	0.91407	0.8198	0.197
Mof_H 	H 	0.4484	0.902	0.8584	-0.027
Mof_C 	C 	0.6338	0.9055	0.813	-0.243
Mof_C 	C 	0.6959	0.92456	0.7592	0.205
Mof_H 	H 	0.7909	0.9188	0.7542	-0.036
Mof_C 	C 	0.6214	0.95284	0.7102	-0.324
Mof_H 	H 	0.6675	0.9665	0.675	0.152
Mof_C 	C 	0.7165	0.87644	0.8643	0.393
Mof_C 	C 	0.0558	0.94147	0.2797	0.3
Mof_C 	C 	0.1493	0.92258	0.2377	-0.281
Mof_H 	H 	0.2478	0.9281	0.2471	0.13
Mof_C 	C 	0.0952	0.89545	0.1815	0.155
Mof_H 	H 	0.1577	0.8827	0.1535	-0.012
Mof_C 	C 	0.9477	0.88728	0.1671	-0.196
Mof_C 	C 	0.8572	0.90584	0.2119	0.165
Mof_H 	H 	0.7592	0.8999	0.2042	-0.02
Mof_C 	C 	0.9115	0.93307	0.2677	-0.3
Mof_H 	H 	0.85	0.9455	0.2968	0.141
Mof_C 	C 	0.8848	0.85997	0.1028	0.385
Mof_C 	C 	0.0086	0.15547	0.5522	0.269
Mof_C 	C 	0.9189	0.15891	0.6079	-0.275
Mof_H 	H 	0.9079	0.1386	0.6414	0.135
Mof_C 	C 	0.8451	0.19295	0.6136	0.156
Mof_H 	H 	0.7838	0.1953	0.6508	-0.011
Mof_C 	C 	0.8616	0.22352	0.5641	-0.207
Mof_C 	C 	0.9609	0.2208	0.5153	0.173
Mof_H 	H 	0.9789	0.242	0.4855	-0.024
Mof_C 	C 	0.0361	0.18732	0.5087	-0.283
Mof_H 	H 	0.1048	0.1861	0.4753	0.129
Mof_C 	C 	0.7726	0.25857	0.5681	0.358
Mof_C 	C 	0.2462	0.81499	0.9713	0.086
Mof_H 	H 	0.2446	0.8142	0.0253	0.004
Mof_C 	C 	0.1744	0.81657	0.8459	0.065
Mof_C 	C 	0.1001	0.81963	0.7673	-0.091
Mof_H 	H 	0.9998	0.8217	0.7569	0.075
Mof_C 	C 	0.1809	0.81952	0.7061	-0.027
Mof_H 	H 	0.1336	0.8207	0.6542	0.037
Mof_C 	C 	0.3369	0.81753	0.722	-0.023
Mof_H 	H 	0.3892	0.8177	0.6804	0.04
Mof_C 	C 	0.4092	0.81533	0.7993	-0.09
Mof_H 	H 	0.5095	0.8134	0.8104	0.073
Mof_C 	C 	0.3263	0.81611	0.8595	0.062
Mof_Cd	Cd	0.57087	0.83199	0.01467	0.419
Mof_Cd	Cd	0.90322	0.82066	0.94028	0.464
Mof_N 	N 	0.3703	0.8151	0.94063	-0.161
Mof_N 	N 	0.1241	0.81605	0.9168	-0.152
Mof_O 	O 	0.6705	0.86577	0.92475	-0.32
Mof_O 	O 	0.832	0.8645	0.84792	-0.316
Mof_O 	O 	0.3927	0.98491	0.6692	-0.302
Mof_O 	O 	0.9668	0.84961	0.05701	-0.308
Mof_O 	O 	0.7587	0.84939	0.1032	-0.311
Mof_O 	O 	0.1211	0.96855	0.33098	-0.283
Mof_O 	O 	0.7756	0.28369	0.51548	-0.315
Mof_O 	O 	0.6948	0.26233	0.61875	-0.296
Mof_O 	O 	0.0589	0.11838	0.53646	-0.27
Mof_C 	C 	0.1706	0.51798	0.9531	-0.307
Mof_C 	C 	0.2623	0.49475	0.0061	0.372
Mof_C 	C 	0.3707	0.51124	0.0613	-0.301
Mof_C 	C 	0.3868	0.55068	0.0637	0.367
Mof_C 	C 	0.3002	0.57323	0.0088	-0.29
Mof_C 	C 	0.1949	0.55702	0.952	0.366
Mof_C 	C 	0.1072	0.5827	0.8885	-0.859
Mof_H 	H 	0.0502	0.5669	0.8495	0.288
Mof_H 	H 	0.1723	0.598	0.8639	0.294
Mof_H 	H 	0.0446	0.5991	0.9126	0.278
Mof_C 	C 	0.0468	0.50001	0.8986	0.182
Mof_H 	H 	0.0042	0.4795	0.9252	-0.031
Mof_H 	H 	0.9726	0.5189	0.8812	-0.032
Mof_C 	C 	0.2391	0.45099	0.003	-0.869
Mof_H 	H 	0.1677	0.4446	0.9582	0.292
Mof_H 	H 	0.2064	0.4427	0.0504	0.295
Mof_H 	H 	0.3287	0.4385	0.9985	0.296
Mof_C 	C 	0.4711	0.48551	0.1156	0.166
Mof_H 	H 	0.5113	0.4657	0.086	-0.013
Mof_H 	H 	0.5499	0.5001	0.1452	-0.017
Mof_C 	C 	0.5038	0.56939	0.1252	-0.867
Mof_H 	H 	0.5179	0.5955	0.1104	0.292
Mof_H 	H 	0.593	0.5555	0.1276	0.289
Mof_H 	H 	0.4736	0.5689	0.176	0.294
Mof_C 	C 	0.3205	0.61695	0.0113	0.14
Mof_H 	H 	0.2348	0.6305	0.986	-0.016
Mof_H 	H 	0.3498	0.6265	0.0645	-0.022
Mof_C 	C 	0.0221	0.45989	0.7844	0.32
Mof_C 	C 	0.0871	0.4402	0.7298	-0.316
Mof_H 	H 	0.1839	0.4446	0.7266	0.147
Mof_C 	C 	0.0087	0.41407	0.6802	0.198
Mof_H 	H 	0.0516	0.402	0.6416	-0.028
Mof_C 	C 	0.8662	0.4055	0.687	-0.243
Mof_C 	C 	0.8041	0.42456	0.7408	0.205
Mof_H 	H 	0.7091	0.4188	0.7458	-0.037
Mof_C 	C 	0.8786	0.45284	0.7898	-0.324
Mof_H 	H 	0.8325	0.4665	0.825	0.152
Mof_C 	C 	0.7835	0.37644	0.6357	0.393
Mof_C 	C 	0.4442	0.44147	0.2203	0.3
Mof_C 	C 	0.3507	0.42258	0.2623	-0.282
Mof_H 	H 	0.2522	0.4281	0.2529	0.131
Mof_C 	C 	0.4048	0.39545	0.3185	0.156
Mof_H 	H 	0.3423	0.3827	0.3465	-0.012
Mof_C 	C 	0.5523	0.38728	0.3329	-0.196
Mof_C 	C 	0.6428	0.40584	0.2881	0.165
Mof_H 	H 	0.7408	0.3999	0.2958	-0.02
Mof_C 	C 	0.5885	0.43307	0.2323	-0.3
Mof_H 	H 	0.65	0.4455	0.2032	0.141
Mof_C 	C 	0.6152	0.35997	0.3972	0.386
Mof_C 	C 	0.4914	0.65547	0.9478	0.269
Mof_C 	C 	0.5811	0.65891	0.8921	-0.275
Mof_H 	H 	0.5921	0.6386	0.8586	0.135
Mof_C 	C 	0.6549	0.69295	0.8864	0.156
Mof_H 	H 	0.7162	0.6953	0.8492	-0.011
Mof_C 	C 	0.6384	0.72352	0.9359	-0.207
Mof_C 	C 	0.5391	0.7208	0.9847	0.174
Mof_H 	H 	0.5211	0.742	0.0145	-0.025
Mof_C 	C 	0.4639	0.68732	0.9913	-0.283
Mof_H 	H 	0.3952	0.6861	0.0247	0.129
Mof_C 	C 	0.7274	0.75857	0.9319	0.359
Mof_C 	C 	0.2538	0.31499	0.5287	0.085
Mof_H 	H 	0.2554	0.3142	0.4747	0.005
Mof_C 	C 	0.3256	0.31657	0.6541	0.065
Mof_C 	C 	0.3999	0.31963	0.7327	-0.091
Mof_H 	H 	0.5002	0.3217	0.7431	0.075
Mof_C 	C 	0.3191	0.31952	0.7939	-0.026
Mof_H 	H 	0.3664	0.3207	0.8458	0.036
Mof_C 	C 	0.1631	0.31753	0.778	-0.023
Mof_H 	H 	0.1108	0.3177	0.8196	0.04
Mof_C 	C 	0.0908	0.31533	0.7007	-0.089
Mof_H 	H 	0.9905	0.3134	0.6896	0.073
Mof_C 	C 	0.1737	0.31611	0.6405	0.061
Mof_Cd	Cd	0.92913	0.33199	0.48533	0.419
Mof_Cd	Cd	0.59678	0.32066	0.55972	0.464
Mof_N 	N 	0.1297	0.3151	0.55937	-0.161
Mof_N 	N 	0.3759	0.31605	0.5832	-0.152
Mof_O 	O 	0.8295	0.36577	0.57525	-0.32
Mof_O 	O 	0.668	0.3645	0.65208	-0.316
Mof_O 	O 	0.1073	0.48491	0.8308	-0.302
Mof_O 	O 	0.5332	0.34961	0.44299	-0.308
Mof_O 	O 	0.7413	0.34939	0.3968	-0.311
Mof_O 	O 	0.3789	0.46855	0.16902	-0.284
Mof_O 	O 	0.7244	0.78369	0.98452	-0.315
Mof_O 	O 	0.8052	0.76233	0.88125	-0.296
Mof_O 	O 	0.4411	0.61838	0.96354	-0.269
Mof_C 	C 	0.6706	0.98202	0.4531	-0.307
Mof_C 	C 	0.7623	0.00525	0.5061	0.372
Mof_C 	C 	0.8707	0.98876	0.5613	-0.301
Mof_C 	C 	0.8868	0.94932	0.5637	0.367
Mof_C 	C 	0.8002	0.92677	0.5088	-0.29
Mof_C 	C 	0.6949	0.94298	0.452	0.366
Mof_C 	C 	0.6072	0.9173	0.3885	-0.859
Mof_H 	H 	0.5502	0.9331	0.3495	0.288
Mof_H 	H 	0.6723	0.902	0.3639	0.294
Mof_H 	H 	0.5446	0.9009	0.4126	0.278
Mof_C 	C 	0.5468	0.99999	0.3986	0.181
Mof_H 	H 	0.5042	0.0205	0.4252	-0.031
Mof_H 	H 	0.4726	0.9811	0.3812	-0.032
Mof_C 	C 	0.7391	0.04901	0.503	-0.871
Mof_H 	H 	0.6677	0.0554	0.4582	0.293
Mof_H 	H 	0.7064	0.0573	0.5504	0.296
Mof_H 	H 	0.8287	0.0615	0.4985	0.297
Mof_C 	C 	0.9711	0.01449	0.6156	0.165
Mof_H 	H 	0.0113	0.0343	0.586	-0.013
Mof_H 	H 	0.0499	0.9999	0.6452	-0.017
Mof_C 	C 	0.0038	0.93061	0.6252	-0.868
Mof_H 	H 	0.0179	0.9045	0.6104	0.292
Mof_H 	H 	0.093	0.9445	0.6276	0.289
Mof_H 	H 	0.9736	0.9311	0.676	0.294
Mof_C 	C 	0.8205	0.88305	0.5113	0.141
Mof_H 	H 	0.7348	0.8695	0.486	-0.017
Mof_H 	H 	0.8498	0.8735	0.5645	-0.022
Mof_C 	C 	0.5221	0.04011	0.2844	0.319
Mof_C 	C 	0.5871	0.0598	0.2298	-0.316
Mof_H 	H 	0.6839	0.0554	0.2266	0.146
Mof_C 	C 	0.5087	0.08593	0.1802	0.197
Mof_H 	H 	0.5516	0.098	0.1416	-0.027
Mof_C 	C 	0.3662	0.0945	0.187	-0.243
Mof_C 	C 	0.3041	0.07544	0.2408	0.205
Mof_H 	H 	0.2091	0.0812	0.2458	-0.036
Mof_C 	C 	0.3786	0.04716	0.2898	-0.324
Mof_H 	H 	0.3325	0.0335	0.325	0.152
Mof_C 	C 	0.2835	0.12356	0.1357	0.393
Mof_C 	C 	0.9442	0.05853	0.7203	0.3
Mof_C 	C 	0.8507	0.07742	0.7623	-0.281
Mof_H 	H 	0.7522	0.0719	0.7529	0.13
Mof_C 	C 	0.9048	0.10455	0.8185	0.155
Mof_H 	H 	0.8423	0.1173	0.8465	-0.012
Mof_C 	C 	0.0523	0.11272	0.8329	-0.196
Mof_C 	C 	0.1428	0.09416	0.7881	0.165
Mof_H 	H 	0.2408	0.1001	0.7958	-0.02
Mof_C 	C 	0.0885	0.06693	0.7323	-0.3
Mof_H 	H 	0.15	0.0545	0.7032	0.141
Mof_C 	C 	0.1152	0.14003	0.8972	0.385
Mof_C 	C 	0.9914	0.84453	0.4478	0.269
Mof_C 	C 	0.0811	0.84109	0.3921	-0.275
Mof_H 	H 	0.0921	0.8614	0.3586	0.135
Mof_C 	C 	0.1549	0.80705	0.3864	0.156
Mof_H 	H 	0.2162	0.8047	0.3492	-0.011
Mof_C 	C 	0.1384	0.77648	0.4359	-0.207
Mof_C 	C 	0.0391	0.7792	0.4847	0.173
Mof_H 	H 	0.0211	0.758	0.5145	-0.024
Mof_C 	C 	0.9639	0.81268	0.4913	-0.283
Mof_H 	H 	0.8952	0.8139	0.5247	0.129
Mof_C 	C 	0.2274	0.74143	0.4319	0.358
Mof_C 	C 	0.7538	0.18501	0.0287	0.086
Mof_H 	H 	0.7554	0.1858	0.9747	0.004
Mof_C 	C 	0.8256	0.18343	0.1541	0.065
Mof_C 	C 	0.8999	0.18037	0.2327	-0.091
Mof_H 	H 	0.0002	0.1783	0.2431	0.075
Mof_C 	C 	0.8191	0.18048	0.2939	-0.027
Mof_H 	H 	0.8664	0.1793	0.3458	0.037
Mof_C 	C 	0.6631	0.18247	0.278	-0.023
Mof_H 	H 	0.6108	0.1823	0.3196	0.04
Mof_C 	C 	0.5908	0.18467	0.2007	-0.09
Mof_H 	H 	0.4905	0.1866	0.1896	0.073
Mof_C 	C 	0.6737	0.18389	0.1405	0.062
Mof_Cd	Cd	0.42913	0.16801	0.98533	0.419
Mof_Cd	Cd	0.09678	0.17934	0.05972	0.464
Mof_N 	N 	0.6297	0.1849	0.05937	-0.161
Mof_N 	N 	0.8759	0.18395	0.0832	-0.152
Mof_O 	O 	0.3295	0.13423	0.07525	-0.32
Mof_O 	O 	0.168	0.1355	0.15208	-0.316
Mof_O 	O 	0.6073	0.01509	0.3308	-0.302
Mof_O 	O 	0.0332	0.15039	0.94299	-0.308
Mof_O 	O 	0.2413	0.15061	0.8968	-0.311
Mof_O 	O 	0.8789	0.03145	0.66902	-0.283
Mof_O 	O 	0.2244	0.71631	0.48452	-0.315
Mof_O 	O 	0.3052	0.73767	0.38125	-0.296
Mof_O 	O 	0.9411	0.88162	0.46354	-0.27
Mof_C 	C 	0.8294	0.48202	0.0469	-0.307
Mof_C 	C 	0.7377	0.50525	0.9939	0.372
Mof_C 	C 	0.6293	0.48876	0.9387	-0.301
Mof_C 	C 	0.6132	0.44932	0.9363	0.367
Mof_C 	C 	0.6998	0.42677	0.9912	-0.29
Mof_C 	C 	0.8051	0.44298	0.048	0.366
Mof_C 	C 	0.8928	0.4173	0.1115	-0.859
Mof_H 	H 	0.9498	0.4331	0.1505	0.288
Mof_H 	H 	0.8277	0.402	0.1361	0.294
Mof_H 	H 	0.9554	0.4009	0.0874	0.278
Mof_C 	C 	0.9532	0.49999	0.1014	0.182
Mof_H 	H 	0.9958	0.5205	0.0748	-0.031
Mof_H 	H 	0.0274	0.4811	0.1188	-0.032
Mof_C 	C 	0.7609	0.54901	0.997	-0.869
Mof_H 	H 	0.8323	0.5554	0.0418	0.292
Mof_H 	H 	0.7936	0.5573	0.9496	0.295
Mof_H 	H 	0.6713	0.5615	0.0015	0.296
Mof_C 	C 	0.5289	0.51449	0.8844	0.166
Mof_H 	H 	0.4887	0.5343	0.914	-0.013
Mof_H 	H 	0.4501	0.4999	0.8548	-0.017
Mof_C 	C 	0.4962	0.43061	0.8748	-0.867
Mof_H 	H 	0.4821	0.4045	0.8896	0.292
Mof_H 	H 	0.407	0.4445	0.8724	0.289
Mof_H 	H 	0.5264	0.4311	0.824	0.294
Mof_C 	C 	0.6795	0.38305	0.9887	0.14
Mof_H 	H 	0.7652	0.3695	0.014	-0.016
Mof_H 	H 	0.6502	0.3735	0.9355	-0.022
Mof_C 	C 	0.9779	0.54011	0.2156	0.32
Mof_C 	C 	0.9129	0.5598	0.2702	-0.316
Mof_H 	H 	0.8161	0.5554	0.2734	0.147
Mof_C 	C 	0.9913	0.58593	0.3198	0.198
Mof_H 	H 	0.9484	0.598	0.3584	-0.028
Mof_C 	C 	0.1338	0.5945	0.313	-0.243
Mof_C 	C 	0.1959	0.57544	0.2592	0.205
Mof_H 	H 	0.2909	0.5812	0.2542	-0.037
Mof_C 	C 	0.1214	0.54716	0.2102	-0.324
Mof_H 	H 	0.1675	0.5335	0.175	0.152
Mof_C 	C 	0.2165	0.62356	0.3643	0.393
Mof_C 	C 	0.5558	0.55853	0.7797	0.3
Mof_C 	C 	0.6493	0.57742	0.7377	-0.282
Mof_H 	H 	0.7478	0.5719	0.7471	0.131
Mof_C 	C 	0.5952	0.60455	0.6815	0.156
Mof_H 	H 	0.6577	0.6173	0.6535	-0.012
Mof_C 	C 	0.4477	0.61272	0.6671	-0.196
Mof_C 	C 	0.3572	0.59416	0.7119	0.165
Mof_H 	H 	0.2592	0.6001	0.7042	-0.02
Mof_C 	C 	0.4115	0.56693	0.7677	-0.3
Mof_H 	H 	0.35	0.5545	0.7968	0.141
Mof_C 	C 	0.3848	0.64003	0.6028	0.386
Mof_C 	C 	0.5086	0.34453	0.0522	0.269
Mof_C 	C 	0.4189	0.34109	0.1079	-0.275
Mof_H 	H 	0.4079	0.3614	0.1414	0.135
Mof_C 	C 	0.3451	0.30705	0.1136	0.156
Mof_H 	H 	0.2838	0.3047	0.1508	-0.011
Mof_C 	C 	0.3616	0.27648	0.0641	-0.207
Mof_C 	C 	0.4609	0.2792	0.0153	0.174
Mof_H 	H 	0.4789	0.258	0.9855	-0.025
Mof_C 	C 	0.5361	0.31268	0.0087	-0.283
Mof_H 	H 	0.6048	0.3139	0.9753	0.129
Mof_C 	C 	0.2726	0.24143	0.0681	0.359
Mof_C 	C 	0.7462	0.68501	0.4713	0.085
Mof_H 	H 	0.7446	0.6858	0.5253	0.005
Mof_C 	C 	0.6744	0.68343	0.3459	0.065
Mof_C 	C 	0.6001	0.68037	0.2673	-0.091
Mof_H 	H 	0.4998	0.6783	0.2569	0.075
Mof_C 	C 	0.6809	0.68048	0.2061	-0.026
Mof_H 	H 	0.6336	0.6793	0.1542	0.036
Mof_C 	C 	0.8369	0.68247	0.222	-0.023
Mof_H 	H 	0.8892	0.6823	0.1804	0.04
Mof_C 	C 	0.9092	0.68467	0.2993	-0.089
Mof_H 	H 	0.0095	0.6866	0.3104	0.073
Mof_C 	C 	0.8263	0.68389	0.3595	0.061
Mof_Cd	Cd	0.07087	0.66801	0.51467	0.419
Mof_Cd	Cd	0.40322	0.67934	0.44028	0.464
Mof_N 	N 	0.8703	0.6849	0.44063	-0.161
Mof_N 	N 	0.6241	0.68395	0.4168	-0.152
Mof_O 	O 	0.1705	0.63423	0.42475	-0.32
Mof_O 	O 	0.332	0.6355	0.34792	-0.316
Mof_O 	O 	0.8927	0.51509	0.1692	-0.302
Mof_O 	O 	0.4668	0.65039	0.55701	-0.308
Mof_O 	O 	0.2587	0.65061	0.6032	-0.311
Mof_O 	O 	0.6211	0.53145	0.83098	-0.284
Mof_O 	O 	0.2756	0.21631	0.01548	-0.315
Mof_O 	O 	0.1948	0.23767	0.11875	-0.296
Mof_O 	O 	0.5589	0.38162	0.03646	-0.269
_end
