data_functionalizedCrystal
_audit_creation_method	'EQeq! by Chris Wilmer'
_symmetry_space_group_name_H-M	'P1'
_symmetry_Int_Tables_number	1
_symmetry_cell_setting	triclinic
loop_
_symmetry_equiv_pos_as_xyz
  x,y,z
_cell_length_a	18.473
_cell_length_b	18.473
_cell_length_c	52.11
_cell_angle_alpha	90
_cell_angle_beta	90
_cell_angle_gamma	120
loop_
_atom_site_label
_atom_site_type_symbol
_atom_site_fract_x
_atom_site_fract_y
_atom_site_fract_z
_atom_site_charge
Mof_Cu	Cu	0.47545	0.95077	0.02074	0.91
Mof_O 	O 	0.1108	0.6272	0.00202	-0.403
Mof_O 	O 	0.027	0.587	0.96715	-0.403
Mof_O 	O 	0.3721	0.889	0.00189	-0.396
Mof_O 	O 	0.4139	0.9726	0.96692	-0.406
Mof_C 	C 	0.3581	0.9076	0.97927	0.33
Mof_C 	C 	0.2806	0.8497	0.96671	-0.09
Mof_C 	C 	0.2171	0.7832	0.97935	0.032
Mof_H 	H 	0.2197	0.7811	0.9971	0.042
Mof_C 	C 	0.2666	0.8622	0.94102	-0.052
Mof_H 	H 	0.3076	0.9079	0.9321	0.045
Mof_C 	C 	0.1922	0.8072	0.92878	0.005
Mof_C 	C 	0.1824	0.8162	0.90116	-0.027
Mof_C 	C 	0.1069	0.8064	0.8906	-0.805
Mof_C 	C 	0.1021	0.8144	0.8639	1.587
Mof_H 	H 	0.0536	0.8094	0.8568	-1.221
Mof_C 	C 	0.1693	0.83	0.84797	-0.031
Mof_C 	C 	0.2445	0.843	0.8585	1.715
Mof_C 	C 	0.2475	0.8279	0.8844	-1.415
Mof_H 	H 	0.2931	0.8254	0.8909	0.521
Mof_C 	C 	0.0327	0.7944	0.9083	0.376
Mof_H 	H 	0.0459	0.7905	0.9259	-0.087
Mof_H 	H 	0.9827	0.7441	0.9035	-0.096
Mof_H 	H 	0.0243	0.8414	0.9063	-0.104
Mof_C 	C 	0.3201	0.8681	0.8414	-3.622
Mof_H 	H 	0.306	0.8724	0.824	1.665
Mof_H 	H 	0.3369	0.8267	0.8426	1.124
Mof_H 	H 	0.3653	0.9212	0.847	1.1
Mof_C 	C 	0.0918	0.6414	0.97946	0.339
Mof_C 	C 	0.1489	0.7189	0.96671	-0.096
Mof_C 	C 	0.1366	0.734	0.94082	-0.02
Mof_H 	H 	0.0903	0.6939	0.9319	0.053
Mof_C 	C 	0.2128	0.9683	0.9087	-1.498
Mof_H 	H 	0.2165	0.9538	0.9262	0.47
Mof_H 	H 	0.1683	0.9807	0.9072	0.459
Mof_H 	H 	0.2646	0.0164	0.9038	0.457
Mof_C 	C 	0.1945	0.8926	0.8906	1.045
Mof_H 	H 	0.124	0.6965	0.823	-1.431
Mof_H 	H 	0.0777	0.6339	0.8455	-0.785
Mof_H 	H 	0.1724	0.6653	0.8402	-0.826
Mof_C 	C 	0.1545	0.7546	0.8584	-1.425
Mof_C 	C 	0.1692	0.7507	0.8846	1.166
Mof_H 	H 	0.1702	0.7043	0.8911	-0.387
Mof_C 	C 	0.1869	0.8983	0.864	-1.815
Mof_H 	H 	0.1936	0.9475	0.8569	1.376
Mof_C 	C 	0.1298	0.6806	0.84	2.635
Mof_Cu	Cu	0.14212	0.2841	0.35407	0.91
Mof_O 	O 	0.77747	0.96053	0.33535	-0.403
Mof_O 	O 	0.69367	0.92033	0.30048	-0.403
Mof_O 	O 	0.03877	0.22233	0.33522	-0.396
Mof_O 	O 	0.08057	0.30593	0.30025	-0.406
Mof_C 	C 	0.02477	0.24093	0.3126	0.323
Mof_C 	C 	0.94727	0.18303	0.30004	-0.082
Mof_C 	C 	0.88377	0.11653	0.31268	0.023
Mof_H 	H 	0.88637	0.11443	0.33043	0.045
Mof_C 	C 	0.93327	0.19553	0.27435	-0.061
Mof_H 	H 	0.97427	0.24123	0.26543	0.047
Mof_C 	C 	0.85887	0.14053	0.26211	0.012
Mof_C 	C 	0.84907	0.14953	0.23449	-0.039
Mof_C 	C 	0.77357	0.13973	0.22393	-0.801
Mof_C 	C 	0.76877	0.14773	0.19723	1.585
Mof_H 	H 	0.72027	0.14273	0.19013	-1.229
Mof_C 	C 	0.83597	0.16333	0.1813	-0.017
Mof_C 	C 	0.91117	0.17633	0.19183	1.698
Mof_C 	C 	0.91417	0.16123	0.21773	-1.405
Mof_H 	H 	0.95977	0.15873	0.22423	0.519
Mof_C 	C 	0.69937	0.12773	0.24163	0.363
Mof_H 	H 	0.71257	0.12383	0.25923	-0.084
Mof_H 	H 	0.64937	0.07743	0.23683	-0.09
Mof_H 	H 	0.69097	0.17473	0.23963	-0.101
Mof_C 	C 	0.98677	0.20143	0.17473	-3.57
Mof_H 	H 	0.97267	0.20573	0.15733	1.646
Mof_H 	H 	0.00357	0.16003	0.17593	1.107
Mof_H 	H 	0.03197	0.25453	0.18033	1.082
Mof_C 	C 	0.75847	0.97473	0.31279	0.333
Mof_C 	C 	0.81557	0.05223	0.30004	-0.087
Mof_C 	C 	0.80327	0.06733	0.27415	-0.027
Mof_H 	H 	0.75697	0.02723	0.26523	0.056
Mof_C 	C 	0.87947	0.30163	0.24203	-1.509
Mof_H 	H 	0.88317	0.28713	0.25953	0.473
Mof_H 	H 	0.83497	0.31403	0.24053	0.461
Mof_H 	H 	0.93127	0.34973	0.23713	0.462
Mof_C 	C 	0.86117	0.22593	0.22393	1.048
Mof_H 	H 	0.79067	0.02983	0.15633	-1.457
Mof_H 	H 	0.74437	0.96723	0.17883	-0.806
Mof_H 	H 	0.83907	0.99863	0.17353	-0.846
Mof_C 	C 	0.82117	0.08793	0.19173	-1.442
Mof_C 	C 	0.83587	0.08403	0.21793	1.176
Mof_H 	H 	0.83687	0.03763	0.22443	-0.39
Mof_C 	C 	0.85357	0.23163	0.19733	-1.811
Mof_H 	H 	0.86027	0.28083	0.19023	1.363
Mof_C 	C 	0.79647	0.01393	0.17333	2.696
Mof_Cu	Cu	0.80878	0.61744	0.6874	0.909
Mof_O 	O 	0.44413	0.29387	0.66869	-0.404
Mof_O 	O 	0.36033	0.25367	0.63382	-0.403
Mof_O 	O 	0.70543	0.55567	0.66856	-0.397
Mof_O 	O 	0.74723	0.63927	0.63359	-0.407
Mof_C 	C 	0.69143	0.57427	0.64594	0.328
Mof_C 	C 	0.61393	0.51637	0.63338	-0.089
Mof_C 	C 	0.55043	0.44987	0.64602	0.029
Mof_H 	H 	0.55303	0.44777	0.66377	0.041
Mof_C 	C 	0.59993	0.52887	0.60769	-0.057
Mof_H 	H 	0.64093	0.57457	0.59877	0.044
Mof_C 	C 	0.52553	0.47387	0.59545	0.007
Mof_C 	C 	0.51573	0.48287	0.56783	-0.034
Mof_C 	C 	0.44023	0.47307	0.55727	-0.903
Mof_C 	C 	0.43543	0.48107	0.53057	1.768
Mof_H 	H 	0.38693	0.47607	0.52347	-1.358
Mof_C 	C 	0.50263	0.49667	0.51464	-0.023
Mof_C 	C 	0.57783	0.50967	0.52517	1.885
Mof_C 	C 	0.58083	0.49457	0.55107	-1.555
Mof_H 	H 	0.62643	0.49207	0.55757	0.572
Mof_C 	C 	0.36603	0.46107	0.57497	0.469
Mof_H 	H 	0.37923	0.45717	0.59257	-0.116
Mof_H 	H 	0.31603	0.41077	0.57017	-0.121
Mof_H 	H 	0.35763	0.50807	0.57297	-0.134
Mof_C 	C 	0.65343	0.53477	0.50807	-3.949
Mof_H 	H 	0.63933	0.53907	0.49067	1.82
Mof_H 	H 	0.67023	0.49337	0.50927	1.231
Mof_H 	H 	0.69863	0.58787	0.51367	1.202
Mof_C 	C 	0.42513	0.30807	0.64613	0.339
Mof_C 	C 	0.48223	0.38557	0.63338	-0.095
Mof_C 	C 	0.46993	0.40067	0.60749	-0.02
Mof_H 	H 	0.42363	0.36057	0.59857	0.054
Mof_C 	C 	0.54613	0.63497	0.57537	-1.613
Mof_H 	H 	0.54983	0.62047	0.59287	0.503
Mof_H 	H 	0.50163	0.64737	0.57387	0.492
Mof_H 	H 	0.59793	0.68307	0.57047	0.493
Mof_C 	C 	0.52783	0.55927	0.55727	1.152
Mof_H 	H 	0.45733	0.36317	0.48967	-1.625
Mof_H 	H 	0.41103	0.30057	0.51217	-0.897
Mof_H 	H 	0.50573	0.33197	0.50687	-0.941
Mof_C 	C 	0.48783	0.42127	0.52507	-1.605
Mof_C 	C 	0.50253	0.41737	0.55127	1.313
Mof_H 	H 	0.50353	0.37097	0.55777	-0.438
Mof_C 	C 	0.52023	0.56497	0.53067	-2.007
Mof_H 	H 	0.52693	0.61417	0.52357	1.524
Mof_C 	C 	0.46313	0.34727	0.50667	3.011
Mof_Cu	Cu	0.04923	0.52468	0.02074	0.909
Mof_O 	O 	0.3728	0.4836	0.00202	-0.403
Mof_O 	O 	0.413	0.44	0.96715	-0.402
Mof_O 	O 	0.111	0.4831	0.00189	-0.397
Mof_O 	O 	0.0274	0.4413	0.96692	-0.407
Mof_C 	C 	0.0924	0.4505	0.97927	0.328
Mof_C 	C 	0.1503	0.4309	0.96671	-0.089
Mof_C 	C 	0.2168	0.4339	0.97935	0.029
Mof_H 	H 	0.2189	0.4386	0.9971	0.042
Mof_C 	C 	0.1378	0.4044	0.94102	-0.058
Mof_H 	H 	0.0921	0.3997	0.9321	0.044
Mof_C 	C 	0.1928	0.385	0.92878	0.007
Mof_C 	C 	0.1838	0.3662	0.90116	-0.034
Mof_C 	C 	0.1936	0.3005	0.8906	-0.909
Mof_C 	C 	0.1856	0.2877	0.8639	1.781
Mof_H 	H 	0.1906	0.2442	0.8568	-1.367
Mof_C 	C 	0.17	0.3393	0.84797	-0.024
Mof_C 	C 	0.157	0.4015	0.8585	1.893
Mof_C 	C 	0.1721	0.4196	0.8844	-1.561
Mof_H 	H 	0.1746	0.4677	0.8909	0.574
Mof_C 	C 	0.2056	0.2383	0.9083	0.474
Mof_H 	H 	0.2095	0.2554	0.9259	-0.117
Mof_H 	H 	0.2559	0.2386	0.9035	-0.123
Mof_H 	H 	0.1586	0.1829	0.9063	-0.135
Mof_C 	C 	0.1319	0.452	0.8414	-3.962
Mof_H 	H 	0.1276	0.4336	0.824	1.828
Mof_H 	H 	0.1733	0.5102	0.8426	1.233
Mof_H 	H 	0.0788	0.4441	0.847	1.204
Mof_C 	C 	0.3586	0.4504	0.97946	0.339
Mof_C 	C 	0.2811	0.43	0.96671	-0.094
Mof_C 	C 	0.266	0.4026	0.94082	-0.02
Mof_H 	H 	0.3061	0.3964	0.9319	0.055
Mof_C 	C 	0.0317	0.2445	0.9087	-1.612
Mof_H 	H 	0.0462	0.2627	0.9262	0.503
Mof_H 	H 	0.0193	0.1876	0.9072	0.491
Mof_H 	H 	0.9836	0.2482	0.9038	0.49
Mof_C 	C 	0.1074	0.3019	0.8906	1.158
Mof_H 	H 	0.3035	0.4275	0.823	-1.63
Mof_H 	H 	0.3661	0.4438	0.8455	-0.895
Mof_H 	H 	0.3347	0.5071	0.8402	-0.937
Mof_C 	C 	0.2454	0.3999	0.8584	-1.609
Mof_C 	C 	0.2493	0.4185	0.8846	1.317
Mof_H 	H 	0.2957	0.4659	0.8911	-0.437
Mof_C 	C 	0.1017	0.2886	0.864	-2.024
Mof_H 	H 	0.0525	0.2461	0.8569	1.543
Mof_C 	C 	0.3194	0.4492	0.84	3.016
Mof_Cu	Cu	0.7159	0.85801	0.35407	0.91
Mof_O 	O 	0.03947	0.81693	0.33535	-0.403
Mof_O 	O 	0.07967	0.77333	0.30048	-0.403
Mof_O 	O 	0.77767	0.81643	0.33522	-0.396
Mof_O 	O 	0.69407	0.77463	0.30025	-0.407
Mof_C 	C 	0.75907	0.78383	0.3126	0.328
Mof_C 	C 	0.81697	0.76423	0.30004	-0.087
Mof_C 	C 	0.88347	0.76723	0.31268	0.026
Mof_H 	H 	0.88557	0.77193	0.33043	0.043
Mof_C 	C 	0.80447	0.73773	0.27435	-0.06
Mof_H 	H 	0.75877	0.73303	0.26543	0.045
Mof_C 	C 	0.85947	0.71833	0.26211	0.01
Mof_C 	C 	0.85047	0.69953	0.23449	-0.037
Mof_C 	C 	0.86027	0.63383	0.22393	-0.907
Mof_C 	C 	0.85227	0.62103	0.19723	1.779
Mof_H 	H 	0.85727	0.57753	0.19013	-1.366
Mof_C 	C 	0.83667	0.67263	0.1813	-0.02
Mof_C 	C 	0.82367	0.73483	0.19183	1.895
Mof_C 	C 	0.83877	0.75293	0.21773	-1.563
Mof_H 	H 	0.84127	0.80103	0.22423	0.574
Mof_C 	C 	0.87227	0.57163	0.24163	0.472
Mof_H 	H 	0.87617	0.58873	0.25923	-0.116
Mof_H 	H 	0.92257	0.57193	0.23683	-0.121
Mof_H 	H 	0.82527	0.51623	0.23963	-0.135
Mof_C 	C 	0.79857	0.78533	0.17473	-3.966
Mof_H 	H 	0.79427	0.76693	0.15733	1.829
Mof_H 	H 	0.83997	0.84353	0.17593	1.234
Mof_H 	H 	0.74547	0.77743	0.18033	1.205
Mof_C 	C 	0.02527	0.78373	0.31279	0.335
Mof_C 	C 	0.94777	0.76333	0.30004	-0.09
Mof_C 	C 	0.93267	0.73593	0.27415	-0.023
Mof_H 	H 	0.97277	0.72973	0.26523	0.057
Mof_C 	C 	0.69837	0.57783	0.24203	-1.617
Mof_H 	H 	0.71287	0.59603	0.25953	0.504
Mof_H 	H 	0.68597	0.52093	0.24053	0.493
Mof_H 	H 	0.65027	0.58153	0.23713	0.493
Mof_C 	C 	0.77407	0.63523	0.22393	1.159
Mof_H 	H 	0.97017	0.76083	0.15633	-1.65
Mof_H 	H 	0.03277	0.77713	0.17883	-0.91
Mof_H 	H 	0.00137	0.84043	0.17353	-0.953
Mof_C 	C 	0.91207	0.73323	0.19173	-1.623
Mof_C 	C 	0.91597	0.75183	0.21793	1.326
Mof_H 	H 	0.96237	0.79923	0.22443	-0.44
Mof_C 	C 	0.76837	0.62193	0.19733	-2.02
Mof_H 	H 	0.71917	0.57943	0.19023	1.532
Mof_C 	C 	0.98607	0.78253	0.17333	3.063
Mof_Cu	Cu	0.38256	0.19135	0.6874	0.909
Mof_O 	O 	0.70613	0.15027	0.66869	-0.403
Mof_O 	O 	0.74633	0.10667	0.63382	-0.403
Mof_O 	O 	0.44433	0.14977	0.66856	-0.397
Mof_O 	O 	0.36073	0.10797	0.63359	-0.407
Mof_C 	C 	0.42573	0.11717	0.64594	0.328
Mof_C 	C 	0.48363	0.09757	0.63338	-0.089
Mof_C 	C 	0.55013	0.10057	0.64602	0.028
Mof_H 	H 	0.55223	0.10527	0.66377	0.042
Mof_C 	C 	0.47113	0.07107	0.60769	-0.059
Mof_H 	H 	0.42543	0.06637	0.59877	0.044
Mof_C 	C 	0.52613	0.05167	0.59545	0.009
Mof_C 	C 	0.51713	0.03287	0.56783	-0.039
Mof_C 	C 	0.52693	0.96717	0.55727	-0.907
Mof_C 	C 	0.51893	0.95437	0.53057	1.779
Mof_H 	H 	0.52393	0.91087	0.52347	-1.365
Mof_C 	C 	0.50333	0.00597	0.51464	-0.021
Mof_C 	C 	0.49033	0.06817	0.52517	1.895
Mof_C 	C 	0.50543	0.08627	0.55107	-1.563
Mof_H 	H 	0.50793	0.13437	0.55757	0.575
Mof_C 	C 	0.53893	0.90497	0.57497	0.473
Mof_H 	H 	0.54283	0.92207	0.59257	-0.116
Mof_H 	H 	0.58923	0.90527	0.57017	-0.122
Mof_H 	H 	0.49193	0.84957	0.57297	-0.135
Mof_C 	C 	0.46523	0.11867	0.50807	-3.966
Mof_H 	H 	0.46093	0.10027	0.49067	1.828
Mof_H 	H 	0.50663	0.17687	0.50927	1.237
Mof_H 	H 	0.41213	0.11077	0.51367	1.207
Mof_C 	C 	0.69193	0.11707	0.64613	0.338
Mof_C 	C 	0.61443	0.09667	0.63338	-0.094
Mof_C 	C 	0.59933	0.06927	0.60749	-0.021
Mof_H 	H 	0.63943	0.06307	0.59857	0.055
Mof_C 	C 	0.36503	0.91117	0.57537	-1.624
Mof_H 	H 	0.37953	0.92937	0.59287	0.507
Mof_H 	H 	0.35263	0.85427	0.57387	0.495
Mof_H 	H 	0.31693	0.91487	0.57047	0.496
Mof_C 	C 	0.44073	0.96857	0.55727	1.162
Mof_H 	H 	0.63683	0.09417	0.48967	-1.641
Mof_H 	H 	0.69943	0.11047	0.51217	-0.906
Mof_H 	H 	0.66803	0.17377	0.50687	-0.95
Mof_C 	C 	0.57873	0.06657	0.52507	-1.619
Mof_C 	C 	0.58263	0.08517	0.55127	1.325
Mof_H 	H 	0.62903	0.13257	0.55777	-0.442
Mof_C 	C 	0.43503	0.95527	0.53067	-2.023
Mof_H 	H 	0.38583	0.91277	0.52357	1.537
Mof_C 	C 	0.65273	0.11587	0.50667	3.042
Mof_Cu	Cu	0.47532	0.52455	0.02074	0.91
Mof_O 	O 	0.5164	0.8892	0.00202	-0.404
Mof_O 	O 	0.56	0.973	0.96715	-0.405
Mof_O 	O 	0.5169	0.6279	0.00189	-0.397
Mof_O 	O 	0.5587	0.5861	0.96692	-0.406
Mof_C 	C 	0.5495	0.6419	0.97927	0.331
Mof_C 	C 	0.5691	0.7194	0.96671	-0.095
Mof_C 	C 	0.5661	0.7829	0.97935	0.035
Mof_H 	H 	0.5614	0.7803	0.9971	0.04
Mof_C 	C 	0.5956	0.7334	0.94102	-0.042
Mof_H 	H 	0.6003	0.6924	0.9321	0.043
Mof_C 	C 	0.615	0.8078	0.92878	-0.009
Mof_C 	C 	0.6338	0.8176	0.90116	0
Mof_C 	C 	0.6995	0.8931	0.8906	-0.666
Mof_C 	C 	0.7123	0.8979	0.8639	1.326
Mof_H 	H 	0.7558	0.9464	0.8568	-1.043
Mof_C 	C 	0.6607	0.8307	0.84797	-0.061
Mof_C 	C 	0.5985	0.7555	0.8585	1.48
Mof_C 	C 	0.5804	0.7525	0.8844	-1.218
Mof_H 	H 	0.5323	0.7069	0.8909	0.455
Mof_C 	C 	0.7617	0.9673	0.9083	0.235
Mof_H 	H 	0.7446	0.9541	0.9259	-0.046
Mof_H 	H 	0.7614	0.0173	0.9035	-0.055
Mof_H 	H 	0.8171	0.9757	0.9063	-0.063
Mof_C 	C 	0.548	0.6799	0.8414	-3.197
Mof_H 	H 	0.5664	0.694	0.824	1.462
Mof_H 	H 	0.4898	0.6631	0.8426	1.003
Mof_H 	H 	0.5559	0.6347	0.847	0.978
Mof_C 	C 	0.5496	0.9082	0.97946	0.34
Mof_C 	C 	0.57	0.8511	0.96671	-0.1
Mof_C 	C 	0.5974	0.8634	0.94082	-0.014
Mof_H 	H 	0.6036	0.9097	0.9319	0.049
Mof_C 	C 	0.7555	0.7872	0.9087	-1.325
Mof_H 	H 	0.7373	0.7835	0.9262	0.419
Mof_H 	H 	0.8124	0.8317	0.9072	0.407
Mof_H 	H 	0.7518	0.7354	0.9038	0.408
Mof_C 	C 	0.6981	0.8055	0.8906	0.868
Mof_H 	H 	0.5725	0.876	0.823	-1.107
Mof_H 	H 	0.5562	0.9223	0.8455	-0.599
Mof_H 	H 	0.4929	0.8276	0.8402	-0.632
Mof_C 	C 	0.6001	0.8455	0.8584	-1.134
Mof_C 	C 	0.5815	0.8308	0.8846	0.931
Mof_H 	H 	0.5341	0.8298	0.8911	-0.305
Mof_C 	C 	0.7114	0.8131	0.864	-1.483
Mof_H 	H 	0.7539	0.8064	0.8569	1.092
Mof_C 	C 	0.5508	0.8702	0.84	2.011
Mof_Cu	Cu	0.14199	0.85788	0.35407	0.909
Mof_O 	O 	0.18307	0.22253	0.33535	-0.404
Mof_O 	O 	0.22667	0.30633	0.30048	-0.405
Mof_O 	O 	0.18357	0.96123	0.33522	-0.397
Mof_O 	O 	0.22537	0.91943	0.30025	-0.406
Mof_C 	C 	0.21617	0.97523	0.3126	0.328
Mof_C 	C 	0.23577	0.05273	0.30004	-0.091
Mof_C 	C 	0.23277	0.11623	0.31268	0.032
Mof_H 	H 	0.22807	0.11363	0.33043	0.041
Mof_C 	C 	0.26227	0.06673	0.27435	-0.045
Mof_H 	H 	0.26697	0.02573	0.26543	0.044
Mof_C 	C 	0.28167	0.14113	0.26211	-0.006
Mof_C 	C 	0.30047	0.15093	0.23449	-0.004
Mof_C 	C 	0.36617	0.22643	0.22393	-0.664
Mof_C 	C 	0.37897	0.23123	0.19723	1.326
Mof_H 	H 	0.42247	0.27973	0.19013	-1.049
Mof_C 	C 	0.32737	0.16403	0.1813	-0.056
Mof_C 	C 	0.26517	0.08883	0.19183	1.467
Mof_C 	C 	0.24707	0.08583	0.21773	-1.209
Mof_H 	H 	0.19897	0.04023	0.22423	0.453
Mof_C 	C 	0.42837	0.30063	0.24163	0.228
Mof_H 	H 	0.41127	0.28743	0.25923	-0.044
Mof_H 	H 	0.42807	0.35063	0.23683	-0.052
Mof_H 	H 	0.48377	0.30903	0.23963	-0.061
Mof_C 	C 	0.21467	0.01323	0.17473	-3.16
Mof_H 	H 	0.23307	0.02733	0.15733	1.448
Mof_H 	H 	0.15647	0.99643	0.17593	0.991
Mof_H 	H 	0.22257	0.96803	0.18033	0.966
Mof_C 	C 	0.21627	0.24153	0.31279	0.339
Mof_C 	C 	0.23667	0.18443	0.30004	-0.098
Mof_C 	C 	0.26407	0.19673	0.27415	-0.016
Mof_H 	H 	0.27027	0.24303	0.26523	0.05
Mof_C 	C 	0.42217	0.12053	0.24203	-1.327
Mof_H 	H 	0.40397	0.11683	0.25953	0.419
Mof_H 	H 	0.47907	0.16503	0.24053	0.408
Mof_H 	H 	0.41847	0.06873	0.23713	0.409
Mof_C 	C 	0.36477	0.13883	0.22393	0.869
Mof_H 	H 	0.23917	0.20933	0.15633	-1.106
Mof_H 	H 	0.22287	0.25563	0.17883	-0.598
Mof_H 	H 	0.15957	0.16093	0.17353	-0.63
Mof_C 	C 	0.26677	0.17883	0.19173	-1.133
Mof_C 	C 	0.24817	0.16413	0.21793	0.929
Mof_H 	H 	0.20077	0.16313	0.22443	-0.304
Mof_C 	C 	0.37807	0.14643	0.19733	-1.484
Mof_H 	H 	0.42057	0.13973	0.19023	1.093
Mof_C 	C 	0.21747	0.20353	0.17333	2.008
Mof_Cu	Cu	0.80865	0.19122	0.6874	0.91
Mof_O 	O 	0.84973	0.55587	0.66869	-0.404
Mof_O 	O 	0.89333	0.63967	0.63382	-0.403
Mof_O 	O 	0.85023	0.29457	0.66856	-0.397
Mof_O 	O 	0.89203	0.25277	0.63359	-0.407
Mof_C 	C 	0.88283	0.30857	0.64594	0.328
Mof_C 	C 	0.90243	0.38607	0.63338	-0.089
Mof_C 	C 	0.89943	0.44957	0.64602	0.029
Mof_H 	H 	0.89473	0.44697	0.66377	0.042
Mof_C 	C 	0.92893	0.40007	0.60769	-0.058
Mof_H 	H 	0.93363	0.35907	0.59877	0.044
Mof_C 	C 	0.94833	0.47447	0.59545	0.008
Mof_C 	C 	0.96713	0.48427	0.56783	-0.037
Mof_C 	C 	0.03283	0.55977	0.55727	-0.902
Mof_C 	C 	0.04563	0.56457	0.53057	1.769
Mof_H 	H 	0.08913	0.61307	0.52347	-1.359
Mof_C 	C 	0.99403	0.49737	0.51464	-0.023
Mof_C 	C 	0.93183	0.42217	0.52517	1.886
Mof_C 	C 	0.91373	0.41917	0.55107	-1.555
Mof_H 	H 	0.86563	0.37357	0.55757	0.572
Mof_C 	C 	0.09503	0.63397	0.57497	0.467
Mof_H 	H 	0.07793	0.62077	0.59257	-0.114
Mof_H 	H 	0.09473	0.68397	0.57017	-0.121
Mof_H 	H 	0.15043	0.64237	0.57297	-0.133
Mof_C 	C 	0.88133	0.34657	0.50807	-3.951
Mof_H 	H 	0.89973	0.36067	0.49067	1.821
Mof_H 	H 	0.82313	0.32977	0.50927	1.232
Mof_H 	H 	0.88923	0.30137	0.51367	1.203
Mof_C 	C 	0.88293	0.57487	0.64613	0.338
Mof_C 	C 	0.90333	0.51777	0.63338	-0.095
Mof_C 	C 	0.93073	0.53007	0.60749	-0.021
Mof_H 	H 	0.93693	0.57637	0.59857	0.054
Mof_C 	C 	0.08883	0.45387	0.57537	-1.615
Mof_H 	H 	0.07063	0.45017	0.59287	0.505
Mof_H 	H 	0.14573	0.49837	0.57387	0.493
Mof_H 	H 	0.08513	0.40207	0.57047	0.493
Mof_C 	C 	0.03143	0.47217	0.55727	1.154
Mof_H 	H 	0.90583	0.54267	0.48967	-1.625
Mof_H 	H 	0.88953	0.58897	0.51217	-0.897
Mof_H 	H 	0.82623	0.49427	0.50687	-0.941
Mof_C 	C 	0.93343	0.51217	0.52507	-1.605
Mof_C 	C 	0.91483	0.49747	0.55127	1.314
Mof_H 	H 	0.86743	0.49647	0.55777	-0.438
Mof_C 	C 	0.04473	0.47977	0.53067	-2.008
Mof_H 	H 	0.08723	0.47307	0.52357	1.524
Mof_C 	C 	0.88413	0.53687	0.50667	3.012
Mof_Cu	Cu	0.52455	0.04923	0.97926	0.909
Mof_O 	O 	0.8892	0.3728	0.99798	-0.404
Mof_O 	O 	0.973	0.413	0.03285	-0.404
Mof_O 	O 	0.6279	0.111	0.99811	-0.397
Mof_O 	O 	0.5861	0.0274	0.03308	-0.407
Mof_C 	C 	0.6419	0.0924	0.02073	0.329
Mof_C 	C 	0.7194	0.1503	0.03329	-0.091
Mof_C 	C 	0.7829	0.2168	0.02065	0.031
Mof_H 	H 	0.7803	0.2189	0.0029	0.041
Mof_C 	C 	0.7334	0.1378	0.05898	-0.053
Mof_H 	H 	0.6924	0.0921	0.0679	0.044
Mof_C 	C 	0.8078	0.1928	0.07122	0.004
Mof_C 	C 	0.8176	0.1838	0.09884	-0.028
Mof_C 	C 	0.8931	0.1936	0.1094	-0.806
Mof_C 	C 	0.8979	0.1856	0.1361	1.587
Mof_H 	H 	0.9464	0.1906	0.1432	-1.221
Mof_C 	C 	0.8307	0.17	0.15203	-0.031
Mof_C 	C 	0.7555	0.157	0.1415	1.715
Mof_C 	C 	0.7525	0.1721	0.1156	-1.415
Mof_H 	H 	0.7069	0.1746	0.1091	0.521
Mof_C 	C 	0.9673	0.2056	0.0917	0.376
Mof_H 	H 	0.9541	0.2095	0.0741	-0.087
Mof_H 	H 	0.0173	0.2559	0.0965	-0.096
Mof_H 	H 	0.9757	0.1586	0.0937	-0.104
Mof_C 	C 	0.6799	0.1319	0.1586	-3.622
Mof_H 	H 	0.694	0.1276	0.176	1.665
Mof_H 	H 	0.6631	0.1733	0.1574	1.124
Mof_H 	H 	0.6347	0.0788	0.153	1.1
Mof_C 	C 	0.9082	0.3586	0.02054	0.339
Mof_C 	C 	0.8511	0.2811	0.03329	-0.096
Mof_C 	C 	0.8634	0.266	0.05918	-0.02
Mof_H 	H 	0.9097	0.3061	0.0681	0.053
Mof_C 	C 	0.7872	0.0317	0.0913	-1.498
Mof_H 	H 	0.7835	0.0462	0.0738	0.47
Mof_H 	H 	0.8317	0.0193	0.0928	0.459
Mof_H 	H 	0.7354	0.9836	0.0962	0.457
Mof_C 	C 	0.8055	0.1074	0.1094	1.045
Mof_H 	H 	0.876	0.3035	0.177	-1.431
Mof_H 	H 	0.9223	0.3661	0.1545	-0.785
Mof_H 	H 	0.8276	0.3347	0.1598	-0.826
Mof_C 	C 	0.8455	0.2454	0.1416	-1.425
Mof_C 	C 	0.8308	0.2493	0.1154	1.166
Mof_H 	H 	0.8298	0.2957	0.1089	-0.387
Mof_C 	C 	0.8131	0.1017	0.136	-1.815
Mof_H 	H 	0.8064	0.0525	0.1431	1.376
Mof_C 	C 	0.8702	0.3194	0.16	2.635
Mof_Cu	Cu	0.19122	0.38256	0.3126	0.909
Mof_O 	O 	0.55587	0.70613	0.33131	-0.404
Mof_O 	O 	0.63967	0.74633	0.36618	-0.403
Mof_O 	O 	0.29457	0.44433	0.33144	-0.397
Mof_O 	O 	0.25277	0.36073	0.36641	-0.407
Mof_C 	C 	0.30857	0.42573	0.35406	0.328
Mof_C 	C 	0.38607	0.48363	0.36662	-0.089
Mof_C 	C 	0.44957	0.55013	0.35398	0.029
Mof_H 	H 	0.44697	0.55223	0.33623	0.041
Mof_C 	C 	0.40007	0.47113	0.39231	-0.057
Mof_H 	H 	0.35907	0.42543	0.40123	0.044
Mof_C 	C 	0.47447	0.52613	0.40455	0.007
Mof_C 	C 	0.48427	0.51713	0.43217	-0.034
Mof_C 	C 	0.55977	0.52693	0.44273	-0.903
Mof_C 	C 	0.56457	0.51893	0.46943	1.768
Mof_H 	H 	0.61307	0.52393	0.47653	-1.358
Mof_C 	C 	0.49737	0.50333	0.48536	-0.023
Mof_C 	C 	0.42217	0.49033	0.47483	1.885
Mof_C 	C 	0.41917	0.50543	0.44893	-1.555
Mof_H 	H 	0.37357	0.50793	0.44243	0.572
Mof_C 	C 	0.63397	0.53893	0.42503	0.469
Mof_H 	H 	0.62077	0.54283	0.40743	-0.116
Mof_H 	H 	0.68397	0.58923	0.42983	-0.121
Mof_H 	H 	0.64237	0.49193	0.42703	-0.134
Mof_C 	C 	0.34657	0.46523	0.49193	-3.949
Mof_H 	H 	0.36067	0.46093	0.50933	1.82
Mof_H 	H 	0.32977	0.50663	0.49073	1.231
Mof_H 	H 	0.30137	0.41213	0.48633	1.202
Mof_C 	C 	0.57487	0.69193	0.35387	0.339
Mof_C 	C 	0.51777	0.61443	0.36662	-0.095
Mof_C 	C 	0.53007	0.59933	0.39251	-0.02
Mof_H 	H 	0.57637	0.63943	0.40143	0.054
Mof_C 	C 	0.45387	0.36503	0.42463	-1.613
Mof_H 	H 	0.45017	0.37953	0.40713	0.503
Mof_H 	H 	0.49837	0.35263	0.42613	0.492
Mof_H 	H 	0.40207	0.31693	0.42953	0.493
Mof_C 	C 	0.47217	0.44073	0.44273	1.152
Mof_H 	H 	0.54267	0.63683	0.51033	-1.625
Mof_H 	H 	0.58897	0.69943	0.48783	-0.897
Mof_H 	H 	0.49427	0.66803	0.49313	-0.941
Mof_C 	C 	0.51217	0.57873	0.47493	-1.605
Mof_C 	C 	0.49747	0.58263	0.44873	1.313
Mof_H 	H 	0.49647	0.62903	0.44223	-0.438
Mof_C 	C 	0.47977	0.43503	0.46933	-2.007
Mof_H 	H 	0.47307	0.38583	0.47643	1.524
Mof_C 	C 	0.53687	0.65273	0.49333	3.011
Mof_Cu	Cu	0.85788	0.7159	0.64593	0.91
Mof_O 	O 	0.22253	0.03947	0.66465	-0.403
Mof_O 	O 	0.30633	0.07967	0.69952	-0.403
Mof_O 	O 	0.96123	0.77767	0.66478	-0.396
Mof_O 	O 	0.91943	0.69407	0.69975	-0.406
Mof_C 	C 	0.97523	0.75907	0.6874	0.323
Mof_C 	C 	0.05273	0.81697	0.69996	-0.082
Mof_C 	C 	0.11623	0.88347	0.68732	0.023
Mof_H 	H 	0.11363	0.88557	0.66957	0.045
Mof_C 	C 	0.06673	0.80447	0.72565	-0.061
Mof_H 	H 	0.02573	0.75877	0.73457	0.047
Mof_C 	C 	0.14113	0.85947	0.73789	0.012
Mof_C 	C 	0.15093	0.85047	0.76551	-0.039
Mof_C 	C 	0.22643	0.86027	0.77607	-0.801
Mof_C 	C 	0.23123	0.85227	0.80277	1.585
Mof_H 	H 	0.27973	0.85727	0.80987	-1.229
Mof_C 	C 	0.16403	0.83667	0.8187	-0.017
Mof_C 	C 	0.08883	0.82367	0.80817	1.698
Mof_C 	C 	0.08583	0.83877	0.78227	-1.405
Mof_H 	H 	0.04023	0.84127	0.77577	0.519
Mof_C 	C 	0.30063	0.87227	0.75837	0.363
Mof_H 	H 	0.28743	0.87617	0.74077	-0.084
Mof_H 	H 	0.35063	0.92257	0.76317	-0.09
Mof_H 	H 	0.30903	0.82527	0.76037	-0.101
Mof_C 	C 	0.01323	0.79857	0.82527	-3.57
Mof_H 	H 	0.02733	0.79427	0.84267	1.646
Mof_H 	H 	0.99643	0.83997	0.82407	1.107
Mof_H 	H 	0.96803	0.74547	0.81967	1.082
Mof_C 	C 	0.24153	0.02527	0.68721	0.333
Mof_C 	C 	0.18443	0.94777	0.69996	-0.087
Mof_C 	C 	0.19673	0.93267	0.72585	-0.027
Mof_H 	H 	0.24303	0.97277	0.73477	0.056
Mof_C 	C 	0.12053	0.69837	0.75797	-1.509
Mof_H 	H 	0.11683	0.71287	0.74047	0.473
Mof_H 	H 	0.16503	0.68597	0.75947	0.461
Mof_H 	H 	0.06873	0.65027	0.76287	0.462
Mof_C 	C 	0.13883	0.77407	0.77607	1.048
Mof_H 	H 	0.20933	0.97017	0.84367	-1.457
Mof_H 	H 	0.25563	0.03277	0.82117	-0.806
Mof_H 	H 	0.16093	0.00137	0.82647	-0.846
Mof_C 	C 	0.17883	0.91207	0.80827	-1.442
Mof_C 	C 	0.16413	0.91597	0.78207	1.176
Mof_H 	H 	0.16313	0.96237	0.77557	-0.39
Mof_C 	C 	0.14643	0.76837	0.80267	-1.811
Mof_H 	H 	0.13973	0.71917	0.80977	1.363
Mof_C 	C 	0.20353	0.98607	0.82667	2.696
Mof_Cu	Cu	0.95077	0.47532	0.97926	0.909
Mof_O 	O 	0.6272	0.5164	0.99798	-0.403
Mof_O 	O 	0.587	0.56	0.03285	-0.402
Mof_O 	O 	0.889	0.5169	0.99811	-0.397
Mof_O 	O 	0.9726	0.5587	0.03308	-0.407
Mof_C 	C 	0.9076	0.5495	0.02073	0.328
Mof_C 	C 	0.8497	0.5691	0.03329	-0.089
Mof_C 	C 	0.7832	0.5661	0.02065	0.029
Mof_H 	H 	0.7811	0.5614	0.0029	0.042
Mof_C 	C 	0.8622	0.5956	0.05898	-0.058
Mof_H 	H 	0.9079	0.6003	0.0679	0.044
Mof_C 	C 	0.8072	0.615	0.07122	0.007
Mof_C 	C 	0.8162	0.6338	0.09884	-0.034
Mof_C 	C 	0.8064	0.6995	0.1094	-0.909
Mof_C 	C 	0.8144	0.7123	0.1361	1.781
Mof_H 	H 	0.8094	0.7558	0.1432	-1.367
Mof_C 	C 	0.83	0.6607	0.15203	-0.024
Mof_C 	C 	0.843	0.5985	0.1415	1.893
Mof_C 	C 	0.8279	0.5804	0.1156	-1.561
Mof_H 	H 	0.8254	0.5323	0.1091	0.574
Mof_C 	C 	0.7944	0.7617	0.0917	0.474
Mof_H 	H 	0.7905	0.7446	0.0741	-0.117
Mof_H 	H 	0.7441	0.7614	0.0965	-0.123
Mof_H 	H 	0.8414	0.8171	0.0937	-0.135
Mof_C 	C 	0.8681	0.548	0.1586	-3.962
Mof_H 	H 	0.8724	0.5664	0.176	1.828
Mof_H 	H 	0.8267	0.4898	0.1574	1.233
Mof_H 	H 	0.9212	0.5559	0.153	1.204
Mof_C 	C 	0.6414	0.5496	0.02054	0.339
Mof_C 	C 	0.7189	0.57	0.03329	-0.094
Mof_C 	C 	0.734	0.5974	0.05918	-0.02
Mof_H 	H 	0.6939	0.6036	0.0681	0.055
Mof_C 	C 	0.9683	0.7555	0.0913	-1.612
Mof_H 	H 	0.9538	0.7373	0.0738	0.503
Mof_H 	H 	0.9807	0.8124	0.0928	0.491
Mof_H 	H 	0.0164	0.7518	0.0962	0.49
Mof_C 	C 	0.8926	0.6981	0.1094	1.158
Mof_H 	H 	0.6965	0.5725	0.177	-1.63
Mof_H 	H 	0.6339	0.5562	0.1545	-0.895
Mof_H 	H 	0.6653	0.4929	0.1598	-0.937
Mof_C 	C 	0.7546	0.6001	0.1416	-1.609
Mof_C 	C 	0.7507	0.5815	0.1154	1.317
Mof_H 	H 	0.7043	0.5341	0.1089	-0.437
Mof_C 	C 	0.8983	0.7114	0.136	-2.024
Mof_H 	H 	0.9475	0.7539	0.1431	1.543
Mof_C 	C 	0.6806	0.5508	0.16	3.016
Mof_Cu	Cu	0.61744	0.80865	0.3126	0.909
Mof_O 	O 	0.29387	0.84973	0.33131	-0.403
Mof_O 	O 	0.25367	0.89333	0.36618	-0.403
Mof_O 	O 	0.55567	0.85023	0.33144	-0.397
Mof_O 	O 	0.63927	0.89203	0.36641	-0.407
Mof_C 	C 	0.57427	0.88283	0.35406	0.328
Mof_C 	C 	0.51637	0.90243	0.36662	-0.089
Mof_C 	C 	0.44987	0.89943	0.35398	0.028
Mof_H 	H 	0.44777	0.89473	0.33623	0.042
Mof_C 	C 	0.52887	0.92893	0.39231	-0.059
Mof_H 	H 	0.57457	0.93363	0.40123	0.044
Mof_C 	C 	0.47387	0.94833	0.40455	0.009
Mof_C 	C 	0.48287	0.96713	0.43217	-0.039
Mof_C 	C 	0.47307	0.03283	0.44273	-0.907
Mof_C 	C 	0.48107	0.04563	0.46943	1.779
Mof_H 	H 	0.47607	0.08913	0.47653	-1.365
Mof_C 	C 	0.49667	0.99403	0.48536	-0.021
Mof_C 	C 	0.50967	0.93183	0.47483	1.895
Mof_C 	C 	0.49457	0.91373	0.44893	-1.563
Mof_H 	H 	0.49207	0.86563	0.44243	0.575
Mof_C 	C 	0.46107	0.09503	0.42503	0.473
Mof_H 	H 	0.45717	0.07793	0.40743	-0.116
Mof_H 	H 	0.41077	0.09473	0.42983	-0.122
Mof_H 	H 	0.50807	0.15043	0.42703	-0.135
Mof_C 	C 	0.53477	0.88133	0.49193	-3.966
Mof_H 	H 	0.53907	0.89973	0.50933	1.828
Mof_H 	H 	0.49337	0.82313	0.49073	1.237
Mof_H 	H 	0.58787	0.88923	0.48633	1.207
Mof_C 	C 	0.30807	0.88293	0.35387	0.338
Mof_C 	C 	0.38557	0.90333	0.36662	-0.094
Mof_C 	C 	0.40067	0.93073	0.39251	-0.021
Mof_H 	H 	0.36057	0.93693	0.40143	0.055
Mof_C 	C 	0.63497	0.08883	0.42463	-1.624
Mof_H 	H 	0.62047	0.07063	0.40713	0.507
Mof_H 	H 	0.64737	0.14573	0.42613	0.495
Mof_H 	H 	0.68307	0.08513	0.42953	0.496
Mof_C 	C 	0.55927	0.03143	0.44273	1.162
Mof_H 	H 	0.36317	0.90583	0.51033	-1.641
Mof_H 	H 	0.30057	0.88953	0.48783	-0.906
Mof_H 	H 	0.33197	0.82623	0.49313	-0.95
Mof_C 	C 	0.42127	0.93343	0.47493	-1.619
Mof_C 	C 	0.41737	0.91483	0.44873	1.325
Mof_H 	H 	0.37097	0.86743	0.44223	-0.442
Mof_C 	C 	0.56497	0.04473	0.46933	-2.023
Mof_H 	H 	0.61417	0.08723	0.47643	1.537
Mof_C 	C 	0.34727	0.88413	0.49333	3.042
Mof_Cu	Cu	0.2841	0.14199	0.64593	0.91
Mof_O 	O 	0.96053	0.18307	0.66465	-0.403
Mof_O 	O 	0.92033	0.22667	0.69952	-0.403
Mof_O 	O 	0.22233	0.18357	0.66478	-0.396
Mof_O 	O 	0.30593	0.22537	0.69975	-0.407
Mof_C 	C 	0.24093	0.21617	0.6874	0.328
Mof_C 	C 	0.18303	0.23577	0.69996	-0.087
Mof_C 	C 	0.11653	0.23277	0.68732	0.026
Mof_H 	H 	0.11443	0.22807	0.66957	0.043
Mof_C 	C 	0.19553	0.26227	0.72565	-0.06
Mof_H 	H 	0.24123	0.26697	0.73457	0.045
Mof_C 	C 	0.14053	0.28167	0.73789	0.01
Mof_C 	C 	0.14953	0.30047	0.76551	-0.037
Mof_C 	C 	0.13973	0.36617	0.77607	-0.907
Mof_C 	C 	0.14773	0.37897	0.80277	1.779
Mof_H 	H 	0.14273	0.42247	0.80987	-1.366
Mof_C 	C 	0.16333	0.32737	0.8187	-0.02
Mof_C 	C 	0.17633	0.26517	0.80817	1.895
Mof_C 	C 	0.16123	0.24707	0.78227	-1.563
Mof_H 	H 	0.15873	0.19897	0.77577	0.574
Mof_C 	C 	0.12773	0.42837	0.75837	0.472
Mof_H 	H 	0.12383	0.41127	0.74077	-0.116
Mof_H 	H 	0.07743	0.42807	0.76317	-0.121
Mof_H 	H 	0.17473	0.48377	0.76037	-0.135
Mof_C 	C 	0.20143	0.21467	0.82527	-3.966
Mof_H 	H 	0.20573	0.23307	0.84267	1.829
Mof_H 	H 	0.16003	0.15647	0.82407	1.234
Mof_H 	H 	0.25453	0.22257	0.81967	1.205
Mof_C 	C 	0.97473	0.21627	0.68721	0.335
Mof_C 	C 	0.05223	0.23667	0.69996	-0.09
Mof_C 	C 	0.06733	0.26407	0.72585	-0.023
Mof_H 	H 	0.02723	0.27027	0.73477	0.057
Mof_C 	C 	0.30163	0.42217	0.75797	-1.617
Mof_H 	H 	0.28713	0.40397	0.74047	0.504
Mof_H 	H 	0.31403	0.47907	0.75947	0.493
Mof_H 	H 	0.34973	0.41847	0.76287	0.493
Mof_C 	C 	0.22593	0.36477	0.77607	1.159
Mof_H 	H 	0.02983	0.23917	0.84367	-1.65
Mof_H 	H 	0.96723	0.22287	0.82117	-0.91
Mof_H 	H 	0.99863	0.15957	0.82647	-0.953
Mof_C 	C 	0.08793	0.26677	0.80827	-1.623
Mof_C 	C 	0.08403	0.24817	0.78207	1.326
Mof_H 	H 	0.03763	0.20077	0.77557	-0.44
Mof_C 	C 	0.23163	0.37807	0.80267	-2.02
Mof_H 	H 	0.28083	0.42057	0.80977	1.532
Mof_C 	C 	0.01393	0.21747	0.82667	3.063
Mof_Cu	Cu	0.52468	0.47545	0.97926	0.91
Mof_O 	O 	0.4836	0.1108	0.99798	-0.404
Mof_O 	O 	0.44	0.027	0.03285	-0.405
Mof_O 	O 	0.4831	0.3721	0.99811	-0.397
Mof_O 	O 	0.4413	0.4139	0.03308	-0.406
Mof_C 	C 	0.4505	0.3581	0.02073	0.331
Mof_C 	C 	0.4309	0.2806	0.03329	-0.095
Mof_C 	C 	0.4339	0.2171	0.02065	0.035
Mof_H 	H 	0.4386	0.2197	0.0029	0.04
Mof_C 	C 	0.4044	0.2666	0.05898	-0.042
Mof_H 	H 	0.3997	0.3076	0.0679	0.043
Mof_C 	C 	0.385	0.1922	0.07122	-0.009
Mof_C 	C 	0.3662	0.1824	0.09884	0
Mof_C 	C 	0.3005	0.1069	0.1094	-0.666
Mof_C 	C 	0.2877	0.1021	0.1361	1.326
Mof_H 	H 	0.2442	0.0536	0.1432	-1.043
Mof_C 	C 	0.3393	0.1693	0.15203	-0.061
Mof_C 	C 	0.4015	0.2445	0.1415	1.48
Mof_C 	C 	0.4196	0.2475	0.1156	-1.218
Mof_H 	H 	0.4677	0.2931	0.1091	0.455
Mof_C 	C 	0.2383	0.0327	0.0917	0.235
Mof_H 	H 	0.2554	0.0459	0.0741	-0.046
Mof_H 	H 	0.2386	0.9827	0.0965	-0.055
Mof_H 	H 	0.1829	0.0243	0.0937	-0.063
Mof_C 	C 	0.452	0.3201	0.1586	-3.197
Mof_H 	H 	0.4336	0.306	0.176	1.462
Mof_H 	H 	0.5102	0.3369	0.1574	1.003
Mof_H 	H 	0.4441	0.3653	0.153	0.978
Mof_C 	C 	0.4504	0.0918	0.02054	0.34
Mof_C 	C 	0.43	0.1489	0.03329	-0.1
Mof_C 	C 	0.4026	0.1366	0.05918	-0.014
Mof_H 	H 	0.3964	0.0903	0.0681	0.049
Mof_C 	C 	0.2445	0.2128	0.0913	-1.325
Mof_H 	H 	0.2627	0.2165	0.0738	0.419
Mof_H 	H 	0.1876	0.1683	0.0928	0.407
Mof_H 	H 	0.2482	0.2646	0.0962	0.408
Mof_C 	C 	0.3019	0.1945	0.1094	0.868
Mof_H 	H 	0.4275	0.124	0.177	-1.107
Mof_H 	H 	0.4438	0.0777	0.1545	-0.599
Mof_H 	H 	0.5071	0.1724	0.1598	-0.632
Mof_C 	C 	0.3999	0.1545	0.1416	-1.134
Mof_C 	C 	0.4185	0.1692	0.1154	0.931
Mof_H 	H 	0.4659	0.1702	0.1089	-0.305
Mof_C 	C 	0.2886	0.1869	0.136	-1.483
Mof_H 	H 	0.2461	0.1936	0.1431	1.092
Mof_C 	C 	0.4492	0.1298	0.16	2.011
Mof_Cu	Cu	0.19135	0.80878	0.3126	0.91
Mof_O 	O 	0.15027	0.44413	0.33131	-0.404
Mof_O 	O 	0.10667	0.36033	0.36618	-0.403
Mof_O 	O 	0.14977	0.70543	0.33144	-0.397
Mof_O 	O 	0.10797	0.74723	0.36641	-0.407
Mof_C 	C 	0.11717	0.69143	0.35406	0.328
Mof_C 	C 	0.09757	0.61393	0.36662	-0.089
Mof_C 	C 	0.10057	0.55043	0.35398	0.029
Mof_H 	H 	0.10527	0.55303	0.33623	0.042
Mof_C 	C 	0.07107	0.59993	0.39231	-0.058
Mof_H 	H 	0.06637	0.64093	0.40123	0.044
Mof_C 	C 	0.05167	0.52553	0.40455	0.008
Mof_C 	C 	0.03287	0.51573	0.43217	-0.037
Mof_C 	C 	0.96717	0.44023	0.44273	-0.902
Mof_C 	C 	0.95437	0.43543	0.46943	1.769
Mof_H 	H 	0.91087	0.38693	0.47653	-1.359
Mof_C 	C 	0.00597	0.50263	0.48536	-0.023
Mof_C 	C 	0.06817	0.57783	0.47483	1.886
Mof_C 	C 	0.08627	0.58083	0.44893	-1.555
Mof_H 	H 	0.13437	0.62643	0.44243	0.572
Mof_C 	C 	0.90497	0.36603	0.42503	0.467
Mof_H 	H 	0.92207	0.37923	0.40743	-0.114
Mof_H 	H 	0.90527	0.31603	0.42983	-0.121
Mof_H 	H 	0.84957	0.35763	0.42703	-0.133
Mof_C 	C 	0.11867	0.65343	0.49193	-3.951
Mof_H 	H 	0.10027	0.63933	0.50933	1.821
Mof_H 	H 	0.17687	0.67023	0.49073	1.232
Mof_H 	H 	0.11077	0.69863	0.48633	1.203
Mof_C 	C 	0.11707	0.42513	0.35387	0.338
Mof_C 	C 	0.09667	0.48223	0.36662	-0.095
Mof_C 	C 	0.06927	0.46993	0.39251	-0.021
Mof_H 	H 	0.06307	0.42363	0.40143	0.054
Mof_C 	C 	0.91117	0.54613	0.42463	-1.615
Mof_H 	H 	0.92937	0.54983	0.40713	0.505
Mof_H 	H 	0.85427	0.50163	0.42613	0.493
Mof_H 	H 	0.91487	0.59793	0.42953	0.493
Mof_C 	C 	0.96857	0.52783	0.44273	1.154
Mof_H 	H 	0.09417	0.45733	0.51033	-1.625
Mof_H 	H 	0.11047	0.41103	0.48783	-0.897
Mof_H 	H 	0.17377	0.50573	0.49313	-0.941
Mof_C 	C 	0.06657	0.48783	0.47493	-1.605
Mof_C 	C 	0.08517	0.50253	0.44873	1.314
Mof_H 	H 	0.13257	0.50353	0.44223	-0.438
Mof_C 	C 	0.95527	0.52023	0.46933	-2.008
Mof_H 	H 	0.91277	0.52693	0.47643	1.524
Mof_C 	C 	0.11587	0.46313	0.49333	3.012
Mof_Cu	Cu	0.85801	0.14212	0.64593	0.909
Mof_O 	O 	0.81693	0.77747	0.66465	-0.404
Mof_O 	O 	0.77333	0.69367	0.69952	-0.405
Mof_O 	O 	0.81643	0.03877	0.66478	-0.397
Mof_O 	O 	0.77463	0.08057	0.69975	-0.406
Mof_C 	C 	0.78383	0.02477	0.6874	0.328
Mof_C 	C 	0.76423	0.94727	0.69996	-0.091
Mof_C 	C 	0.76723	0.88377	0.68732	0.032
Mof_H 	H 	0.77193	0.88637	0.66957	0.041
Mof_C 	C 	0.73773	0.93327	0.72565	-0.045
Mof_H 	H 	0.73303	0.97427	0.73457	0.044
Mof_C 	C 	0.71833	0.85887	0.73789	-0.006
Mof_C 	C 	0.69953	0.84907	0.76551	-0.004
Mof_C 	C 	0.63383	0.77357	0.77607	-0.664
Mof_C 	C 	0.62103	0.76877	0.80277	1.326
Mof_H 	H 	0.57753	0.72027	0.80987	-1.049
Mof_C 	C 	0.67263	0.83597	0.8187	-0.056
Mof_C 	C 	0.73483	0.91117	0.80817	1.467
Mof_C 	C 	0.75293	0.91417	0.78227	-1.209
Mof_H 	H 	0.80103	0.95977	0.77577	0.453
Mof_C 	C 	0.57163	0.69937	0.75837	0.228
Mof_H 	H 	0.58873	0.71257	0.74077	-0.044
Mof_H 	H 	0.57193	0.64937	0.76317	-0.052
Mof_H 	H 	0.51623	0.69097	0.76037	-0.061
Mof_C 	C 	0.78533	0.98677	0.82527	-3.16
Mof_H 	H 	0.76693	0.97267	0.84267	1.448
Mof_H 	H 	0.84353	0.00357	0.82407	0.991
Mof_H 	H 	0.77743	0.03197	0.81967	0.966
Mof_C 	C 	0.78373	0.75847	0.68721	0.339
Mof_C 	C 	0.76333	0.81557	0.69996	-0.098
Mof_C 	C 	0.73593	0.80327	0.72585	-0.016
Mof_H 	H 	0.72973	0.75697	0.73477	0.05
Mof_C 	C 	0.57783	0.87947	0.75797	-1.327
Mof_H 	H 	0.59603	0.88317	0.74047	0.419
Mof_H 	H 	0.52093	0.83497	0.75947	0.408
Mof_H 	H 	0.58153	0.93127	0.76287	0.409
Mof_C 	C 	0.63523	0.86117	0.77607	0.869
Mof_H 	H 	0.76083	0.79067	0.84367	-1.106
Mof_H 	H 	0.77713	0.74437	0.82117	-0.598
Mof_H 	H 	0.84043	0.83907	0.82647	-0.63
Mof_C 	C 	0.73323	0.82117	0.80827	-1.133
Mof_C 	C 	0.75183	0.83587	0.78207	0.929
Mof_H 	H 	0.79923	0.83687	0.77557	-0.304
Mof_C 	C 	0.62193	0.85357	0.80267	-1.484
Mof_H 	H 	0.57943	0.86027	0.80977	1.093
Mof_C 	C 	0.78253	0.79647	0.82667	2.008
_end
