data_functionalizedCrystal
_audit_creation_method	'EQeq! by Chris Wilmer'
_symmetry_space_group_name_H-M	'P1'
_symmetry_Int_Tables_number	1
_symmetry_cell_setting	triclinic
loop_
_symmetry_equiv_pos_as_xyz
  x,y,z
_cell_length_a	7.9129
_cell_length_b	20.418
_cell_length_c	33.5158
_cell_angle_alpha	89.8903
_cell_angle_beta	90
_cell_angle_gamma	90
loop_
_atom_site_label
_atom_site_type_symbol
_atom_site_fract_x
_atom_site_fract_y
_atom_site_fract_z
_atom_site_charge
Mof_Y 	Y 	0.74007	0.48777	0.01649	1.592
Mof_Y 	Y 	0.25993	0.98777	0.51649	1.593
Mof_Y 	Y 	0.74007	0.01223	0.48351	1.593
Mof_Y 	Y 	0.25993	0.51223	0.98351	1.592
Mof_H 	H 	0.8253	0.1976	0.4557	-0.03
Mof_H 	H 	0.103	0.4245	0.3091	0.041
Mof_H 	H 	0.3755	0.9915	0.3776	-0.007
Mof_H 	H 	0.9614	0.5385	0.7476	0.126
Mof_H 	H 	0.3641	0.8186	0.4863	-0.005
Mof_H 	H 	0.8804	0.033	0.3067	0.132
Mof_H 	H 	0.1747	0.6976	0.9557	-0.03
Mof_H 	H 	0.0386	0.0385	0.2476	0.126
Mof_H 	H 	0.897	0.9245	0.8091	0.041
Mof_H 	H 	0.2957	0.7126	0.4626	0.132
Mof_H 	H 	0.6116	0.3367	0.6368	0.128
Mof_H 	H 	0.8253	0.3024	0.0443	-0.03
Mof_H 	H 	0.3641	0.6814	0.0137	-0.005
Mof_H 	H 	0.6116	0.1633	0.8632	0.129
Mof_H 	H 	0.3884	0.6633	0.3632	0.128
Mof_H 	H 	0.7043	0.2126	0.9626	0.132
Mof_H 	H 	0.8714	0.2093	0.0815	0.142
Mof_H 	H 	0.7071	0.7917	0.5011	-0.011
Mof_H 	H 	0.7043	0.2874	0.5374	0.132
Mof_H 	H 	0.8532	0.0033	0.9193	0.044
Mof_H 	H 	0.6268	0.0049	0.6926	0.146
Mof_H 	H 	0.9614	0.9615	0.7524	0.126
Mof_H 	H 	0.6359	0.1814	0.5137	-0.005
Mof_H 	H 	0.6245	0.0085	0.6224	-0.007
Mof_H 	H 	0.2929	0.2917	0.0011	-0.011
Mof_H 	H 	0.3884	0.8367	0.1368	0.129
Mof_H 	H 	0.5152	0.2323	0.6459	0.109
Mof_H 	H 	0.1292	0.9699	0.6264	-0.029
Mof_H 	H 	0.4787	0.3707	0.8771	0.003
Mof_H 	H 	0.7953	0.9009	0.9338	0.126
Mof_H 	H 	0.3732	0.9951	0.3074	0.146
Mof_H 	H 	0.1747	0.8024	0.5443	-0.03
Mof_H 	H 	0.7071	0.7083	0.9989	-0.011
Mof_H 	H 	0.6784	0.6867	0.5284	0.124
Mof_H 	H 	0.2929	0.2083	0.4989	-0.011
Mof_H 	H 	0.7297	0.1073	0.819	0.04
Mof_H 	H 	0.4787	0.1293	0.6229	0.003
Mof_H 	H 	0.3216	0.3133	0.4716	0.124
Mof_H 	H 	0.8708	0.4699	0.1264	-0.029
Mof_H 	H 	0.8708	0.0301	0.3736	-0.029
Mof_H 	H 	0.7297	0.3927	0.681	0.04
Mof_H 	H 	0.2703	0.8927	0.181	0.04
Mof_H 	H 	0.7953	0.5991	0.5662	0.126
Mof_H 	H 	0.3216	0.1867	0.0284	0.124
Mof_H 	H 	0.1286	0.7907	0.9185	0.142
Mof_H 	H 	0.2703	0.6073	0.319	0.04
Mof_H 	H 	0.6268	0.4951	0.8074	0.145
Mof_H 	H 	0.1468	0.5033	0.4193	0.044
Mof_H 	H 	0.1292	0.5301	0.8736	-0.029
Mof_H 	H 	0.5213	0.8707	0.3771	0.003
Mof_H 	H 	0.5213	0.6293	0.1229	0.003
Mof_H 	H 	0.897	0.5755	0.6909	0.041
Mof_H 	H 	0.6245	0.4915	0.8776	-0.007
Mof_H 	H 	0.103	0.0755	0.1909	0.041
Mof_H 	H 	0.6359	0.3186	0.9863	-0.005
Mof_H 	H 	0.3732	0.5049	0.1926	0.145
Mof_H 	H 	0.1196	0.533	0.8067	0.132
Mof_H 	H 	0.2047	0.0991	0.0662	0.126
Mof_H 	H 	0.1196	0.967	0.6933	0.132
Mof_H 	H 	0.8714	0.2907	0.4185	0.142
Mof_H 	H 	0.3755	0.5085	0.1224	-0.007
Mof_H 	H 	0.4848	0.7323	0.1459	0.109
Mof_H 	H 	0.4848	0.7677	0.3541	0.109
Mof_H 	H 	0.1468	0.9967	0.0807	0.044
Mof_H 	H 	0.5152	0.2677	0.8541	0.109
Mof_H 	H 	0.0386	0.4615	0.2524	0.126
Mof_H 	H 	0.1286	0.7093	0.5815	0.142
Mof_H 	H 	0.6784	0.8133	0.9716	0.124
Mof_H 	H 	0.2047	0.4009	0.4338	0.126
Mof_H 	H 	0.2957	0.7874	0.0374	0.132
Mof_H 	H 	0.8804	0.467	0.1933	0.132
Mof_H 	H 	0.8532	0.4967	0.5807	0.044
Mof_C 	C 	0.9534	0.2238	0.0632	-0.264
Mof_C 	C 	0.2333	0.9312	0.1683	0.008
Mof_C 	C 	0.8378	0.4935	0.6085	0.005
Mof_C 	C 	0.8728	0.9502	0.8667	-0.068
Mof_C 	C 	0.5257	0.3515	0.9362	-0.195
Mof_C 	C 	0.081	0.3855	0.3831	0.238
Mof_C 	C 	0.8378	0.0065	0.8915	0.005
Mof_C 	C 	0.8079	0.0148	0.8098	-0.066
Mof_C 	C 	0.8755	0.5132	0.8844	-0.224
Mof_C 	C 	0.053	0.3082	0.0169	-0.24
Mof_C 	C 	0.4579	0.7225	0.1193	-0.209
Mof_C 	C 	0.2013	0.2733	0.0151	0.166
Mof_C 	C 	0.6194	0.2748	0.5933	0.214
Mof_C 	C 	0.2749	0.0006	0.3637	0.157
Mof_C 	C 	0.081	0.1145	0.1169	0.238
Mof_C 	C 	0.6079	0.193	0.54	0.137
Mof_C 	C 	0.511	0.1626	0.6052	0.137
Mof_C 	C 	0.7555	0.1178	0.9027	0.249
Mof_C 	C 	0.9297	0.2808	0.0419	0.173
Mof_C 	C 	0.2193	0.9339	0.1254	-0.078
Mof_C 	C 	0.1272	0.0498	0.1333	-0.068
Mof_C 	C 	0.5257	0.1485	0.5638	-0.195
Mof_C 	C 	0.053	0.1918	0.4831	-0.24
Mof_C 	C 	0.3921	0.807	0.46	0.137
Mof_C 	C 	0.8079	0.4852	0.6902	-0.067
Mof_C 	C 	0.8692	0.9872	0.6983	0.257
Mof_C 	C 	0.9534	0.2762	0.4368	-0.264
Mof_C 	C 	0.511	0.3374	0.8948	0.137
Mof_C 	C 	0.947	0.8082	0.5169	-0.24
Mof_C 	C 	0.6522	0.2429	0.9453	-0.22
Mof_C 	C 	0.3478	0.7571	0.0547	-0.22
Mof_C 	C 	0.0978	0.1889	0.0573	0.24
Mof_C 	C 	0.9678	0.6254	0.999	0.464
Mof_C 	C 	0.7804	0.4777	0.7347	0.228
Mof_C 	C 	0.947	0.6918	0.9831	-0.24
Mof_C 	C 	0.4738	0.0855	0.5488	0.418
Mof_C 	C 	0.8755	0.9868	0.6156	-0.224
Mof_C 	C 	0.7667	0.0688	0.8317	0.008
Mof_C 	C 	0.7987	0.7733	0.5151	0.166
Mof_C 	C 	0.9022	0.8111	0.9427	0.24
Mof_C 	C 	0.9748	0.4763	0.1394	0.187
Mof_C 	C 	0.1366	0.0412	0.174	0.009
Mof_C 	C 	0.1921	0.9852	0.1902	-0.066
Mof_C 	C 	0.1308	0.4872	0.1983	0.257
Mof_C 	C 	0.3478	0.7429	0.4453	-0.22
Mof_C 	C 	0.8842	0.9901	0.5712	0.453
Mof_C 	C 	0.6522	0.2571	0.5547	-0.22
Mof_C 	C 	0.7987	0.7267	0.9849	0.166
Mof_C 	C 	0.2333	0.5688	0.3317	0.008
Mof_C 	C 	0.8634	0.5412	0.674	0.01
Mof_C 	C 	0.4579	0.7775	0.3807	-0.209
Mof_C 	C 	0.489	0.8374	0.3948	0.137
Mof_C 	C 	0.7667	0.4312	0.6683	0.008
Mof_C 	C 	0.6079	0.307	0.96	0.137
Mof_C 	C 	0.0466	0.7762	0.9368	-0.264
Mof_C 	C 	0.0207	0.5244	0.8214	-0.281
Mof_C 	C 	0.2723	0.498	0.1784	-0.267
Mof_C 	C 	0.1245	0.0132	0.3844	-0.224
Mof_C 	C 	0.2445	0.6178	0.4027	0.249
Mof_C 	C 	0.8692	0.5128	0.8017	0.257
Mof_C 	C 	0.7277	0.998	0.6784	-0.267
Mof_C 	C 	0.1622	0.5065	0.3915	0.005
Mof_C 	C 	0.4743	0.8515	0.4362	-0.195
Mof_C 	C 	0.9022	0.6889	0.5573	0.24
Mof_C 	C 	0.2236	0.2884	0.467	-0.255
Mof_C 	C 	0.0466	0.7238	0.5632	-0.264
Mof_C 	C 	0.2749	0.4994	0.1363	0.158
Mof_C 	C 	0.3806	0.7748	0.0933	0.214
Mof_C 	C 	0.9793	0.0244	0.3214	-0.28
Mof_C 	C 	0.5262	0.5855	0.0488	0.418
Mof_C 	C 	0.2196	0.9777	0.2347	0.228
Mof_C 	C 	0.2236	0.2116	0.033	-0.255
Mof_C 	C 	0.3921	0.693	0.04	0.137
Mof_C 	C 	0.919	0.8855	0.8831	0.238
Mof_C 	C 	0.2193	0.5661	0.3746	-0.078
Mof_C 	C 	0.5421	0.2775	0.8807	-0.209
Mof_C 	C 	0.1921	0.5148	0.3098	-0.067
Mof_C 	C 	0.7277	0.502	0.8216	-0.267
Mof_C 	C 	0.5262	0.9145	0.4512	0.418
Mof_C 	C 	0.0703	0.7808	0.5419	0.173
Mof_C 	C 	0.1272	0.4502	0.3667	-0.068
Mof_C 	C 	0.1622	0.9935	0.1085	0.005
Mof_C 	C 	0.1245	0.4868	0.1156	-0.224
Mof_C 	C 	0.2723	0.002	0.3216	-0.267
Mof_C 	C 	0.0322	0.1254	0.499	0.464
Mof_C 	C 	0.1366	0.4588	0.326	0.01
Mof_C 	C 	0.7804	0.0223	0.7653	0.228
Mof_C 	C 	0.9748	0.0237	0.3606	0.188
Mof_C 	C 	0.2013	0.2267	0.4849	0.166
Mof_C 	C 	0.2445	0.8822	0.0973	0.249
Mof_C 	C 	0.919	0.6145	0.6169	0.238
Mof_C 	C 	0.0322	0.3746	0.001	0.464
Mof_C 	C 	0.1158	0.0099	0.4288	0.453
Mof_C 	C 	0.3806	0.7252	0.4067	0.214
Mof_C 	C 	0.0703	0.7192	0.9581	0.173
Mof_C 	C 	0.1308	0.0128	0.3017	0.257
Mof_C 	C 	0.4738	0.4145	0.9512	0.418
Mof_C 	C 	0.7764	0.7116	0.533	-0.255
Mof_C 	C 	0.0252	0.9763	0.6394	0.188
Mof_C 	C 	0.8842	0.5099	0.9288	0.453
Mof_C 	C 	0.8634	0.9588	0.826	0.009
Mof_C 	C 	0.0207	0.9756	0.6786	-0.28
Mof_C 	C 	0.7764	0.7884	0.967	-0.255
Mof_C 	C 	0.1158	0.4901	0.0712	0.453
Mof_C 	C 	0.4743	0.6485	0.0638	-0.195
Mof_C 	C 	0.5421	0.2225	0.6193	-0.209
Mof_C 	C 	0.7807	0.0661	0.8746	-0.078
Mof_C 	C 	0.0252	0.5237	0.8606	0.187
Mof_C 	C 	0.8728	0.5498	0.6333	-0.068
Mof_C 	C 	0.9297	0.2192	0.4581	0.173
Mof_C 	C 	0.7807	0.4339	0.6254	-0.078
Mof_C 	C 	0.7251	0.5006	0.8637	0.158
Mof_C 	C 	0.0978	0.3111	0.4427	0.24
Mof_C 	C 	0.2196	0.5223	0.2653	0.228
Mof_C 	C 	0.6194	0.2252	0.9067	0.214
Mof_C 	C 	0.489	0.6626	0.1052	0.137
Mof_C 	C 	0.7555	0.3822	0.5973	0.249
Mof_C 	C 	0.9678	0.8746	0.501	0.464
Mof_C 	C 	0.9793	0.4756	0.1786	-0.281
Mof_C 	C 	0.7251	0.9994	0.6363	0.157
Mof_N 	N 	0.3439	0.6691	0.3876	-0.25
Mof_N 	N 	0.1387	0.3713	0.4215	-0.243
Mof_N 	N 	0.1182	0.487	0.241	-0.25
Mof_N 	N 	0.6561	0.3309	0.6124	-0.25
Mof_N 	N 	0.8613	0.6287	0.5785	-0.243
Mof_N 	N 	0.8818	0.987	0.741	-0.25
Mof_N 	N 	0.1387	0.1287	0.0785	-0.243
Mof_N 	N 	0.6561	0.1691	0.8876	-0.25
Mof_N 	N 	0.8818	0.513	0.759	-0.25
Mof_N 	N 	0.1182	0.013	0.259	-0.25
Mof_N 	N 	0.3439	0.8309	0.1124	-0.25
Mof_N 	N 	0.8613	0.8713	0.9215	-0.243
Mof_O 	O 	0.3757	0.05007	0.56973	-0.402
Mof_O 	O 	0.0277	0.51242	0.94498	-0.483
Mof_O 	O 	0.8786	0.10372	0.50228	-0.453
Mof_O 	O 	0.8396	0.59455	0.00955	-0.438
Mof_O 	O 	0.9973	0.6508	0.6374	-0.241
Mof_O 	O 	0.6243	0.94993	0.43027	-0.402
Mof_O 	O 	0.8786	0.39628	0.99772	-0.453
Mof_O 	O 	0.3304	0.5579	0.2517	-0.233
Mof_O 	O 	0.9723	0.48758	0.05502	-0.483
Mof_O 	O 	0.0027	0.1508	0.1374	-0.241
Mof_O 	O 	0.8396	0.90545	0.49045	-0.438
Mof_O 	O 	0.504	0.43472	0.98688	-0.502
Mof_O 	O 	0.9973	0.8492	0.8626	-0.241
Mof_O 	O 	0.0027	0.3492	0.3626	-0.241
Mof_O 	O 	0.1604	0.09455	0.50955	-0.438
Mof_O 	O 	0.6243	0.55007	0.06973	-0.402
Mof_O 	O 	0.0277	0.98758	0.55502	-0.482
Mof_O 	O 	0.6696	0.0579	0.7517	-0.232
Mof_O 	O 	0.811	0.3821	0.5646	-0.246
Mof_O 	O 	0.504	0.06528	0.51312	-0.502
Mof_O 	O 	0.496	0.56528	0.01312	-0.502
Mof_O 	O 	0.6696	0.4421	0.7483	-0.233
Mof_O 	O 	0.496	0.93472	0.48688	-0.502
Mof_O 	O 	0.9723	0.01242	0.44498	-0.482
Mof_O 	O 	0.3304	0.9421	0.2483	-0.232
Mof_O 	O 	0.1214	0.60372	0.00228	-0.453
Mof_O 	O 	0.7492	0.49414	0.94866	-0.439
Mof_O 	O 	0.1604	0.40545	0.99045	-0.438
Mof_O 	O 	0.1214	0.89628	0.49772	-0.453
Mof_O 	O 	0.2508	0.99414	0.44866	-0.438
Mof_O 	O 	0.189	0.6179	0.4354	-0.246
Mof_O 	O 	0.2508	0.50586	0.05134	-0.439
Mof_O 	O 	0.811	0.1179	0.9354	-0.245
Mof_O 	O 	0.7492	0.00586	0.55134	-0.438
Mof_O 	O 	0.189	0.8821	0.0646	-0.245
Mof_O 	O 	0.3757	0.44993	0.93027	-0.402
_end
