# CIF file generated by openbabel 3.1.0, see https://openbabel.org
data_I
_chemical_name_common 'OCUGEZ01_clean'
_cell_length_a 8.6742
_cell_length_b 9.9686
_cell_length_c 11.756
_cell_angle_alpha 74.81
_cell_angle_beta 69.699
_cell_angle_gamma 85.93
_space_group_name_H-M_alt 'P 1'
_space_group_name_Hall 'P 1'
loop_
    _symmetry_equiv_pos_as_xyz
    x,y,z
loop_
    _atom_site_label
    _atom_site_type_symbol
    _atom_site_fract_x
    _atom_site_fract_y
    _atom_site_fract_z
    _atom_site_occupancy
    Nd1      Nd       0.25445    0.52242    0.48809    1.000
    Nd2      Nd       0.74555    0.47758    0.51191    1.000
    H1       H        0.76730    0.70020    0.13750    1.000
    H2       H        0.79540    0.53970    0.16270    1.000
    H3       H        0.62450    0.52800    0.04310    1.000
    H4       H        0.62310    0.69080    0.00750    1.000
    H5       H        0.91490    0.53920    0.93930    1.000
    H6       H        0.90540    0.70160    0.89720    1.000
    H7       H        0.73450    0.52530    0.82870    1.000
    H8       H        0.75440    0.68650    0.77560    1.000
    H9       H        0.27840    0.03040    0.40090    1.000
    H10      H        0.24480    0.01580    0.28210    1.000
    H11      H        0.02400    0.12200    0.40050    1.000
    H12      H        0.96520    0.97880    0.39660    1.000
    H13      H        0.23270    0.29980    0.86250    1.000
    H14      H        0.20460    0.46030    0.83730    1.000
    H15      H        0.37550    0.47200    0.95690    1.000
    H16      H        0.37690    0.30920    0.99250    1.000
    H17      H        0.08510    0.46080    0.06070    1.000
    H18      H        0.09460    0.29840    0.10280    1.000
    H19      H        0.26550    0.47470    0.17130    1.000
    H20      H        0.24560    0.31350    0.22440    1.000
    H21      H        0.72160    0.96960    0.59910    1.000
    H22      H        0.75520    0.98420    0.71790    1.000
    H23      H        0.97600    0.87800    0.59950    1.000
    H24      H        0.03480    0.02120    0.60340    1.000
    C1       C        0.56490    0.58740    0.26320    1.000
    C2       C        0.71750    0.61140    0.14860    1.000
    C3       C        0.68800    0.61100    0.02840    1.000
    C4       C        0.84580    0.61510    0.91700    1.000
    C5       C        0.81030    0.60330    0.80330    1.000
    C6       C        0.95570    0.58430    0.69250    1.000
    C7       C        0.23870    0.82920    0.40710    1.000
    C8       C        0.21020    0.98310    0.37270    1.000
    C9       C        0.03300    0.02210    0.42810    1.000
    C10      C        0.43510    0.41260    0.73680    1.000
    C11      C        0.28250    0.38860    0.85140    1.000
    C12      C        0.31200    0.38900    0.97160    1.000
    C13      C        0.15420    0.38490    0.08300    1.000
    C14      C        0.18970    0.39670    0.19670    1.000
    C15      C        0.04430    0.41570    0.30750    1.000
    C16      C        0.76130    0.17080    0.59290    1.000
    C17      C        0.78980    0.01690    0.62730    1.000
    C18      C        0.96700    0.97790    0.57190    1.000
    O1       O        0.42460    0.60730    0.25360    1.000
    O2       O        0.57720    0.54430    0.37200    1.000
    O3       O        0.09900    0.61640    0.68120    1.000
    O4       O        0.93210    0.53520    0.61050    1.000
    O5       O        0.13730    0.74710    0.40160    1.000
    O6       O        0.35760    0.78160    0.44100    1.000
    O7       O        0.57540    0.39270    0.74640    1.000
    O8       O        0.42280    0.45570    0.62800    1.000
    O9       O        0.90100    0.38360    0.31880    1.000
    O10      O        0.06790    0.46480    0.38950    1.000
    O11      O        0.86270    0.25290    0.59840    1.000
    O12      O        0.64240    0.21840    0.55900    1.000
