data_functionalizedCrystal
_audit_creation_method	'EQeq! by Chris Wilmer'
_symmetry_space_group_name_H-M	'P1'
_symmetry_Int_Tables_number	1
_symmetry_cell_setting	triclinic
loop_
_symmetry_equiv_pos_as_xyz
  x,y,z
_cell_length_a	7.696
_cell_length_b	21.222
_cell_length_c	19.668
_cell_angle_alpha	90
_cell_angle_beta	97.801
_cell_angle_gamma	90
loop_
_atom_site_label
_atom_site_type_symbol
_atom_site_fract_x
_atom_site_fract_y
_atom_site_fract_z
_atom_site_charge
Mof_Ce	Ce	0.00903	0.22313	0.24502	2.721
Mof_C 	C 	0.2831	0.2147	0.3687	0.437
Mof_C 	C 	0.3967	0.2148	0.436	-0.152
Mof_C 	C 	0.4439	0.1574	0.469	0.098
Mof_N 	N 	0.366	0.1002	0.4468	-0.067
Mof_N 	N 	0.396	0.3254	0.4414	-0.081
Mof_C 	C 	0.4487	0.2715	0.468	0.096
Mof_C 	C 	0.7449	0.1892	0.1237	0.447
Mof_C 	C 	0.6206	0.1773	0.0599	-0.134
Mof_C 	C 	0.6826	0.1746	0.9962	0.107
Mof_C 	C 	0.4422	0.1755	0.0627	-0.018
Mof_H 	H 	0.4034	0.1749	0.1055	0.03
Mof_N 	N 	0.851	0.1599	0.9906	-0.086
Mof_C 	C 	0.8877	0.3646	0.2497	0.46
Mof_C 	C 	0.8779	0.4349	0.2505	-0.163
Mof_C 	C 	0.7544	0.467	0.2033	0.073
Mof_C 	C 	0.9947	0.4674	0.2984	0.099
Mof_N 	N 	0.631	0.4438	0.1498	-0.104
Mof_N 	N 	0.128	0.4397	0.3381	-0.066
Mof_O 	O 	0.8686	0.1166	0.2656	-0.759
Mof_H 	H 	0.8306	0.0933	0.2316	0.328
Mof_H 	H 	0.978	0.1081	0.2739	0.238
Mof_O 	O 	0.1718	0.1722	0.3534	-0.486
Mof_O 	O 	0.2963	0.2601	0.3269	-0.673
Mof_O 	O 	0.6844	0.2092	0.1773	-0.699
Mof_O 	O 	0.9068	0.1813	0.1256	-0.503
Mof_O 	O 	0.7688	0.333	0.2139	-0.645
Mof_O 	O 	0.0172	0.3382	0.2829	-0.493
Mof_Ce	Ce	0.50903	0.72313	0.24502	2.734
Mof_C 	C 	0.7831	0.7147	0.3687	0.436
Mof_C 	C 	0.8967	0.7148	0.436	-0.152
Mof_C 	C 	0.9439	0.6574	0.469	0.096
Mof_N 	N 	0.866	0.6002	0.4468	-0.068
Mof_N 	N 	0.896	0.8254	0.4414	-0.081
Mof_C 	C 	0.9487	0.7715	0.468	0.095
Mof_C 	C 	0.2449	0.6892	0.1237	0.448
Mof_C 	C 	0.1206	0.6773	0.0599	-0.142
Mof_C 	C 	0.1826	0.6746	0.9962	0.11
Mof_C 	C 	0.9422	0.6755	0.0627	-0.012
Mof_H 	H 	0.9034	0.6749	0.1055	0.029
Mof_N 	N 	0.351	0.6599	0.9906	-0.086
Mof_C 	C 	0.3877	0.8646	0.2497	0.454
Mof_C 	C 	0.3779	0.9349	0.2505	-0.162
Mof_C 	C 	0.2544	0.967	0.2033	0.072
Mof_C 	C 	0.4947	0.9674	0.2984	0.095
Mof_N 	N 	0.131	0.9438	0.1498	-0.105
Mof_N 	N 	0.628	0.9397	0.3381	-0.064
Mof_O 	O 	0.3686	0.6166	0.2656	-0.759
Mof_H 	H 	0.3306	0.5933	0.2316	0.327
Mof_H 	H 	0.478	0.6081	0.2739	0.236
Mof_O 	O 	0.6718	0.6722	0.3534	-0.486
Mof_O 	O 	0.7963	0.7601	0.3269	-0.671
Mof_O 	O 	0.1844	0.7092	0.1773	-0.701
Mof_O 	O 	0.4068	0.6813	0.1256	-0.508
Mof_O 	O 	0.2688	0.833	0.2139	-0.644
Mof_O 	O 	0.5172	0.8382	0.2829	-0.49
Mof_Ce	Ce	0.99097	0.22313	0.75498	2.72
Mof_C 	C 	0.7169	0.2147	0.6313	0.436
Mof_C 	C 	0.6033	0.2148	0.564	-0.153
Mof_C 	C 	0.5561	0.1574	0.531	0.097
Mof_N 	N 	0.634	0.1002	0.5532	-0.068
Mof_N 	N 	0.604	0.3254	0.5586	-0.082
Mof_C 	C 	0.5513	0.2715	0.532	0.095
Mof_C 	C 	0.2551	0.1892	0.8763	0.446
Mof_C 	C 	0.3794	0.1773	0.9401	-0.134
Mof_C 	C 	0.3174	0.1746	0.0038	0.107
Mof_C 	C 	0.5578	0.1755	0.9373	-0.018
Mof_H 	H 	0.5966	0.1749	0.8945	0.03
Mof_N 	N 	0.149	0.1599	0.0094	-0.086
Mof_C 	C 	0.1123	0.3646	0.7503	0.46
Mof_C 	C 	0.1221	0.4349	0.7495	-0.163
Mof_C 	C 	0.2456	0.467	0.7967	0.073
Mof_C 	C 	0.0053	0.4674	0.7016	0.099
Mof_N 	N 	0.369	0.4438	0.8502	-0.104
Mof_N 	N 	0.872	0.4397	0.6619	-0.066
Mof_O 	O 	0.1314	0.1166	0.7344	-0.759
Mof_H 	H 	0.1694	0.0933	0.7684	0.328
Mof_H 	H 	0.022	0.1081	0.7261	0.238
Mof_O 	O 	0.8282	0.1722	0.6466	-0.486
Mof_O 	O 	0.7037	0.2601	0.6731	-0.673
Mof_O 	O 	0.3156	0.2092	0.8227	-0.699
Mof_O 	O 	0.0932	0.1813	0.8744	-0.503
Mof_O 	O 	0.2312	0.333	0.7861	-0.645
Mof_O 	O 	0.9828	0.3382	0.7171	-0.493
Mof_Ce	Ce	0.49097	0.72313	0.75498	2.734
Mof_C 	C 	0.2169	0.7147	0.6313	0.436
Mof_C 	C 	0.1033	0.7148	0.564	-0.152
Mof_C 	C 	0.0561	0.6574	0.531	0.096
Mof_N 	N 	0.134	0.6002	0.5532	-0.068
Mof_N 	N 	0.104	0.8254	0.5586	-0.081
Mof_C 	C 	0.0513	0.7715	0.532	0.095
Mof_C 	C 	0.7551	0.6892	0.8763	0.448
Mof_C 	C 	0.8794	0.6773	0.9401	-0.142
Mof_C 	C 	0.8174	0.6746	0.0038	0.11
Mof_C 	C 	0.0578	0.6755	0.9373	-0.012
Mof_H 	H 	0.0966	0.6749	0.8945	0.029
Mof_N 	N 	0.649	0.6599	0.0094	-0.086
Mof_C 	C 	0.6123	0.8646	0.7503	0.454
Mof_C 	C 	0.6221	0.9349	0.7495	-0.162
Mof_C 	C 	0.7456	0.967	0.7967	0.072
Mof_C 	C 	0.5053	0.9674	0.7016	0.095
Mof_N 	N 	0.869	0.9438	0.8502	-0.105
Mof_N 	N 	0.372	0.9397	0.6619	-0.064
Mof_O 	O 	0.6314	0.6166	0.7344	-0.759
Mof_H 	H 	0.6694	0.5933	0.7684	0.327
Mof_H 	H 	0.522	0.6081	0.7261	0.236
Mof_O 	O 	0.3282	0.6722	0.6466	-0.486
Mof_O 	O 	0.2037	0.7601	0.6731	-0.671
Mof_O 	O 	0.8156	0.7092	0.8227	-0.701
Mof_O 	O 	0.5932	0.6813	0.8744	-0.508
Mof_O 	O 	0.7312	0.833	0.7861	-0.644
Mof_O 	O 	0.4828	0.8382	0.7171	-0.49
Mof_Ce	Ce	0.99097	0.77687	0.75498	2.72
Mof_C 	C 	0.7169	0.7853	0.6313	0.436
Mof_C 	C 	0.6033	0.7852	0.564	-0.153
Mof_C 	C 	0.5561	0.8426	0.531	0.097
Mof_N 	N 	0.634	0.8998	0.5532	-0.068
Mof_N 	N 	0.604	0.6746	0.5586	-0.082
Mof_C 	C 	0.5513	0.7285	0.532	0.095
Mof_C 	C 	0.2551	0.8108	0.8763	0.446
Mof_C 	C 	0.3794	0.8227	0.9401	-0.134
Mof_C 	C 	0.3174	0.8254	0.0038	0.107
Mof_C 	C 	0.5578	0.8245	0.9373	-0.018
Mof_H 	H 	0.5966	0.8251	0.8945	0.03
Mof_N 	N 	0.149	0.8401	0.0094	-0.086
Mof_C 	C 	0.1123	0.6354	0.7503	0.46
Mof_C 	C 	0.1221	0.5651	0.7495	-0.163
Mof_C 	C 	0.2456	0.533	0.7967	0.073
Mof_C 	C 	0.0053	0.5326	0.7016	0.099
Mof_N 	N 	0.369	0.5562	0.8502	-0.104
Mof_N 	N 	0.872	0.5603	0.6619	-0.066
Mof_O 	O 	0.1314	0.8834	0.7344	-0.759
Mof_H 	H 	0.1694	0.9067	0.7684	0.328
Mof_H 	H 	0.022	0.8919	0.7261	0.238
Mof_O 	O 	0.8282	0.8278	0.6466	-0.486
Mof_O 	O 	0.7037	0.7399	0.6731	-0.673
Mof_O 	O 	0.3156	0.7908	0.8227	-0.699
Mof_O 	O 	0.0932	0.8187	0.8744	-0.503
Mof_O 	O 	0.2312	0.667	0.7861	-0.645
Mof_O 	O 	0.9828	0.6618	0.7171	-0.493
Mof_Ce	Ce	0.49097	0.27687	0.75498	2.734
Mof_C 	C 	0.2169	0.2853	0.6313	0.436
Mof_C 	C 	0.1033	0.2852	0.564	-0.152
Mof_C 	C 	0.0561	0.3426	0.531	0.096
Mof_N 	N 	0.134	0.3998	0.5532	-0.068
Mof_N 	N 	0.104	0.1746	0.5586	-0.081
Mof_C 	C 	0.0513	0.2285	0.532	0.095
Mof_C 	C 	0.7551	0.3108	0.8763	0.448
Mof_C 	C 	0.8794	0.3227	0.9401	-0.142
Mof_C 	C 	0.8174	0.3254	0.0038	0.11
Mof_C 	C 	0.0578	0.3245	0.9373	-0.012
Mof_H 	H 	0.0966	0.3251	0.8945	0.029
Mof_N 	N 	0.649	0.3401	0.0094	-0.086
Mof_C 	C 	0.6123	0.1354	0.7503	0.454
Mof_C 	C 	0.6221	0.0651	0.7495	-0.162
Mof_C 	C 	0.7456	0.033	0.7967	0.072
Mof_C 	C 	0.5053	0.0326	0.7016	0.095
Mof_N 	N 	0.869	0.0562	0.8502	-0.105
Mof_N 	N 	0.372	0.0603	0.6619	-0.064
Mof_O 	O 	0.6314	0.3834	0.7344	-0.759
Mof_H 	H 	0.6694	0.4067	0.7684	0.327
Mof_H 	H 	0.522	0.3919	0.7261	0.236
Mof_O 	O 	0.3282	0.3278	0.6466	-0.486
Mof_O 	O 	0.2037	0.2399	0.6731	-0.671
Mof_O 	O 	0.8156	0.2908	0.8227	-0.701
Mof_O 	O 	0.5932	0.3187	0.8744	-0.508
Mof_O 	O 	0.7312	0.167	0.7861	-0.644
Mof_O 	O 	0.4828	0.1618	0.7171	-0.49
Mof_Ce	Ce	0.00903	0.77687	0.24502	2.72
Mof_C 	C 	0.2831	0.7853	0.3687	0.436
Mof_C 	C 	0.3967	0.7852	0.436	-0.153
Mof_C 	C 	0.4439	0.8426	0.469	0.097
Mof_N 	N 	0.366	0.8998	0.4468	-0.068
Mof_N 	N 	0.396	0.6746	0.4414	-0.082
Mof_C 	C 	0.4487	0.7285	0.468	0.095
Mof_C 	C 	0.7449	0.8108	0.1237	0.446
Mof_C 	C 	0.6206	0.8227	0.0599	-0.134
Mof_C 	C 	0.6826	0.8254	0.9962	0.107
Mof_C 	C 	0.4422	0.8245	0.0627	-0.018
Mof_H 	H 	0.4034	0.8251	0.1055	0.03
Mof_N 	N 	0.851	0.8401	0.9906	-0.086
Mof_C 	C 	0.8877	0.6354	0.2497	0.46
Mof_C 	C 	0.8779	0.5651	0.2505	-0.163
Mof_C 	C 	0.7544	0.533	0.2033	0.073
Mof_C 	C 	0.9947	0.5326	0.2984	0.099
Mof_N 	N 	0.631	0.5562	0.1498	-0.104
Mof_N 	N 	0.128	0.5603	0.3381	-0.066
Mof_O 	O 	0.8686	0.8834	0.2656	-0.759
Mof_H 	H 	0.8306	0.9067	0.2316	0.328
Mof_H 	H 	0.978	0.8919	0.2739	0.238
Mof_O 	O 	0.1718	0.8278	0.3534	-0.486
Mof_O 	O 	0.2963	0.7399	0.3269	-0.673
Mof_O 	O 	0.6844	0.7908	0.1773	-0.699
Mof_O 	O 	0.9068	0.8187	0.1256	-0.503
Mof_O 	O 	0.7688	0.667	0.2139	-0.645
Mof_O 	O 	0.0172	0.6618	0.2829	-0.493
Mof_Ce	Ce	0.50903	0.27687	0.24502	2.734
Mof_C 	C 	0.7831	0.2853	0.3687	0.436
Mof_C 	C 	0.8967	0.2852	0.436	-0.152
Mof_C 	C 	0.9439	0.3426	0.469	0.096
Mof_N 	N 	0.866	0.3998	0.4468	-0.068
Mof_N 	N 	0.896	0.1746	0.4414	-0.081
Mof_C 	C 	0.9487	0.2285	0.468	0.095
Mof_C 	C 	0.2449	0.3108	0.1237	0.448
Mof_C 	C 	0.1206	0.3227	0.0599	-0.142
Mof_C 	C 	0.1826	0.3254	0.9962	0.11
Mof_C 	C 	0.9422	0.3245	0.0627	-0.012
Mof_H 	H 	0.9034	0.3251	0.1055	0.029
Mof_N 	N 	0.351	0.3401	0.9906	-0.086
Mof_C 	C 	0.3877	0.1354	0.2497	0.454
Mof_C 	C 	0.3779	0.0651	0.2505	-0.162
Mof_C 	C 	0.2544	0.033	0.2033	0.072
Mof_C 	C 	0.4947	0.0326	0.2984	0.095
Mof_N 	N 	0.131	0.0562	0.1498	-0.105
Mof_N 	N 	0.628	0.0603	0.3381	-0.064
Mof_O 	O 	0.3686	0.3834	0.2656	-0.759
Mof_H 	H 	0.3306	0.4067	0.2316	0.327
Mof_H 	H 	0.478	0.3919	0.2739	0.236
Mof_O 	O 	0.6718	0.3278	0.3534	-0.486
Mof_O 	O 	0.7963	0.2399	0.3269	-0.671
Mof_O 	O 	0.1844	0.2908	0.1773	-0.701
Mof_O 	O 	0.4068	0.3187	0.1256	-0.508
Mof_O 	O 	0.2688	0.167	0.2139	-0.644
Mof_O 	O 	0.5172	0.1618	0.2829	-0.49
_end
