# CIF file generated by openbabel 3.1.0, see https://openbabel.org
data_I
_chemical_name_common 'VURYOX_clean'
_cell_length_a 4.7083
_cell_length_b 10.98
_cell_length_c 31.011
_cell_angle_alpha 90
_cell_angle_beta 90
_cell_angle_gamma 96.145
_space_group_name_H-M_alt 'P 1'
_space_group_name_Hall 'P 1'
loop_
    _symmetry_equiv_pos_as_xyz
    x,y,z
loop_
    _atom_site_label
    _atom_site_type_symbol
    _atom_site_fract_x
    _atom_site_fract_y
    _atom_site_fract_z
    _atom_site_occupancy
    Cu1      Cu       0.51873    0.39726    0.80617    1.000
    Cu2      Cu       0.48127    0.10274    0.30617    1.000
    Cu3      Cu       0.48127    0.60274    0.19383    1.000
    Cu4      Cu       0.51873    0.89726    0.69383    1.000
    H1       H        0.63000    0.46100    0.70800    1.000
    H2       H        0.45000    0.36400    0.64600    1.000
    H3       H        0.77000    0.29700    0.86940    1.000
    H4       H        0.45580    0.61070    0.87800    1.000
    H5       H        0.65620    0.63660    0.94660    1.000
    H6       H        0.95860    0.32070    0.93760    1.000
    H7       H        0.37000    0.03900    0.20800    1.000
    H8       H        0.55000    0.13600    0.14600    1.000
    H9       H        0.23000    0.20300    0.36940    1.000
    H10      H        0.54420    0.88930    0.37800    1.000
    H11      H        0.34380    0.86340    0.44660    1.000
    H12      H        0.04140    0.17930    0.43760    1.000
    H13      H        0.37000    0.53900    0.29200    1.000
    H14      H        0.55000    0.63600    0.35400    1.000
    H15      H        0.23000    0.70300    0.13060    1.000
    H16      H        0.54420    0.38930    0.12200    1.000
    H17      H        0.34380    0.36340    0.05340    1.000
    H18      H        0.04140    0.67930    0.06240    1.000
    H19      H        0.63000    0.96100    0.79200    1.000
    H20      H        0.45000    0.86400    0.85400    1.000
    H21      H        0.77000    0.79700    0.63060    1.000
    H22      H        0.45580    0.11070    0.62200    1.000
    H23      H        0.65620    0.13660    0.55340    1.000
    H24      H        0.95860    0.82070    0.56240    1.000
    C1       C        0.21650    0.17700    0.79470    1.000
    C2       C        0.26740    0.22940    0.74930    1.000
    C3       C        0.50950    0.38670    0.70980    1.000
    C4       C        0.39750    0.32860    0.67330    1.000
    C5       C        0.15520    0.17530    0.71210    1.000
    C6       C        0.96830    0.05720    0.70840    1.000
    C7       C        0.74634    0.36942    0.88553    1.000
    C8       C        0.56497    0.55038    0.88955    1.000
    C9       C        0.67621    0.56402    0.93070    1.000
    C10      C        0.85281    0.38183    0.92582    1.000
    C11      C        0.81099    0.47591    0.94812    1.000
    C12      C        0.78350    0.32300    0.29470    1.000
    C13      C        0.73260    0.27060    0.24930    1.000
    C14      C        0.49050    0.11330    0.20980    1.000
    C15      C        0.60250    0.17140    0.17330    1.000
    C16      C        0.84480    0.32470    0.21210    1.000
    C17      C        0.03170    0.44280    0.20840    1.000
    C18      C        0.25366    0.13058    0.38553    1.000
    C19      C        0.43503    0.94962    0.38955    1.000
    C20      C        0.32379    0.93598    0.43070    1.000
    C21      C        0.14719    0.11817    0.42582    1.000
    C22      C        0.18901    0.02409    0.44812    1.000
    C23      C        0.78350    0.82300    0.20530    1.000
    C24      C        0.73260    0.77060    0.25070    1.000
    C25      C        0.49050    0.61330    0.29020    1.000
    C26      C        0.60250    0.67140    0.32670    1.000
    C27      C        0.84480    0.82470    0.28790    1.000
    C28      C        0.03170    0.94280    0.29160    1.000
    C29      C        0.25366    0.63058    0.11447    1.000
    C30      C        0.43503    0.44962    0.11045    1.000
    C31      C        0.32379    0.43598    0.06930    1.000
    C32      C        0.14719    0.61817    0.07418    1.000
    C33      C        0.18901    0.52409    0.05188    1.000
    C34      C        0.21650    0.67700    0.70530    1.000
    C35      C        0.26740    0.72940    0.75070    1.000
    C36      C        0.50950    0.88670    0.79020    1.000
    C37      C        0.39750    0.82860    0.82670    1.000
    C38      C        0.15520    0.67530    0.78790    1.000
    C39      C        0.96830    0.55720    0.79160    1.000
    C40      C        0.74634    0.86942    0.61447    1.000
    C41      C        0.56497    0.05038    0.61045    1.000
    C42      C        0.67621    0.06402    0.56930    1.000
    C43      C        0.85281    0.88183    0.57418    1.000
    C44      C        0.81099    0.97591    0.55188    1.000
    N1       N        0.43950    0.33400    0.74810    1.000
    N2       N        0.22330    0.22640    0.67430    1.000
    N3       N        0.60688    0.46060    0.86788    1.000
    N4       N        0.87775    0.47905    0.99583    1.000
    N5       N        0.56050    0.16600    0.24810    1.000
    N6       N        0.77670    0.27360    0.17430    1.000
    N7       N        0.39312    0.03940    0.36788    1.000
    N8       N        0.12225    0.02095    0.49583    1.000
    N9       N        0.56050    0.66600    0.25190    1.000
    N10      N        0.77670    0.77360    0.32570    1.000
    N11      N        0.39312    0.53940    0.13212    1.000
    N12      N        0.12225    0.52095    0.00417    1.000
    N13      N        0.43950    0.83400    0.75190    1.000
    N14      N        0.22330    0.72640    0.82570    1.000
    N15      N        0.60688    0.96060    0.63212    1.000
    N16      N        0.87775    0.97905    0.50417    1.000
    O1       O        0.31340    0.24805    0.82424    1.000
    O2       O        0.04382    0.06731    0.79999    1.000
    O3       O        0.68242    0.01007    0.70859    1.000
    O4       O        0.12691    0.97811    0.70316    1.000
    O5       O        0.68660    0.25195    0.32424    1.000
    O6       O        0.95618    0.43269    0.29999    1.000
    O7       O        0.31758    0.48993    0.20859    1.000
    O8       O        0.87309    0.52189    0.20316    1.000
    O9       O        0.68660    0.75195    0.17576    1.000
    O10      O        0.95618    0.93269    0.20001    1.000
    O11      O        0.31758    0.98993    0.29141    1.000
    O12      O        0.87309    0.02189    0.29684    1.000
    O13      O        0.31340    0.74805    0.67576    1.000
    O14      O        0.04382    0.56731    0.70001    1.000
    O15      O        0.68242    0.51007    0.79141    1.000
    O16      O        0.12691    0.47811    0.79684    1.000
