# CIF file generated by openbabel 3.1.0, see https://openbabel.org
data_I
_chemical_name_common 'image0'
_cell_length_a 10.5136
_cell_length_b 11.465
_cell_length_c 13.4175
_cell_angle_alpha 69.084
_cell_angle_beta 78.607
_cell_angle_gamma 63.542
_space_group_name_H-M_alt 'P 1'
_space_group_name_Hall 'P 1'
loop_
    _symmetry_equiv_pos_as_xyz
    x,y,z
loop_
    _atom_site_label
    _atom_site_type_symbol
    _atom_site_fract_x
    _atom_site_fract_y
    _atom_site_fract_z
    _atom_site_occupancy
    U1       U        0.62304    0.71343    0.83640    1.000
    Er1      Er       0.59886    0.23045    0.75015    1.000
    O1       O        0.84950    0.53740    0.91370    1.000
    O2       O        0.76080    0.49640    0.80170    1.000
    O3       O        0.81310    0.23570    0.77090    1.000
    O4       O        0.88610    0.36360    0.62690    1.000
    O5       O        0.41850    0.92000    0.81930    1.000
    O6       O        0.50390    0.07840    0.75360    1.000
    O7       O        0.48410    0.17690    0.91680    1.000
    O8       O        0.32700    0.19710    0.05140    1.000
    O9       O        0.50080    0.69390    0.71810    1.000
    O10      O        0.40970    0.70160    0.58080    1.000
    O11      O        0.73290    0.63400    0.53400    1.000
    O12      O        0.86540    0.74960    0.47880    1.000
    C1       C        0.99790    0.34350    0.85280    1.000
    C2       C        0.11110    0.31290    0.90950    1.000
    H1       H        0.09680    0.35860    0.95840    1.000
    C3       C        0.24600    0.21510    0.89480    1.000
    C4       C        0.26570    0.14130    0.82470    1.000
    C5       C        0.14680    0.16610    0.77450    1.000
    H2       H        0.15800    0.11260    0.73250    1.000
    C6       C        0.01330    0.26730    0.78540    1.000
    C7       C        0.62630    0.99940    0.45010    1.000
    H3       H        0.71260    0.99850    0.41580    1.000
    C8       C        0.61640    0.87590    0.50540    1.000
    C9       C        0.48700    0.87620    0.55610    1.000
    C10      C        0.86090    0.46180    0.85920    1.000
    C11      C        0.36220    0.19440    0.95570    1.000
    C12      C        0.40680    0.04160    0.79580    1.000
    C13      C        0.89370    0.29120    0.72550    1.000
    C14      C        0.46800    0.74750    0.62130    1.000
    C15      C        0.74450    0.74540    0.50790    1.000
    U2       U        0.37696    0.28657    0.16360    1.000
    Er2      Er       0.40114    0.76955    0.24985    1.000
    O13      O        0.15050    0.46260    0.08630    1.000
    O14      O        0.23920    0.50360    0.19830    1.000
    O15      O        0.18690    0.76430    0.22910    1.000
    O16      O        0.11390    0.63640    0.37310    1.000
    O17      O        0.58150    0.08000    0.18070    1.000
    O18      O        0.49610    0.92160    0.24640    1.000
    O19      O        0.51590    0.82310    0.08320    1.000
    O20      O        0.67300    0.80290    0.94860    1.000
    O21      O        0.49920    0.30610    0.28190    1.000
    O22      O        0.59030    0.29840    0.41920    1.000
    O23      O        0.26710    0.36600    0.46600    1.000
    O24      O        0.13460    0.25040    0.52120    1.000
    C16      C        0.00210    0.65650    0.14720    1.000
    C17      C        0.88890    0.68710    0.09050    1.000
    H4       H        0.90320    0.64140    0.04160    1.000
    C18      C        0.75400    0.78490    0.10520    1.000
    C19      C        0.73430    0.85870    0.17530    1.000
    C20      C        0.85320    0.83390    0.22550    1.000
    H5       H        0.84200    0.88740    0.26750    1.000
    C21      C        0.98670    0.73270    0.21460    1.000
    C22      C        0.37370    0.00060    0.54990    1.000
    H6       H        0.28740    0.00150    0.58420    1.000
    C23      C        0.38360    0.12410    0.49460    1.000
    C24      C        0.51300    0.12380    0.44390    1.000
    C25      C        0.13910    0.53820    0.14080    1.000
    C26      C        0.63780    0.80560    0.04430    1.000
    C27      C        0.59320    0.95840    0.20420    1.000
    C28      C        0.10630    0.70880    0.27450    1.000
    C29      C        0.53200    0.25250    0.37870    1.000
    C30      C        0.25550    0.25460    0.49210    1.000
    U3       U        0.00000    0.50000    0.50000    1.000
