# CIF file generated by openbabel 3.1.0, see https://openbabel.org
data_I
_chemical_name_common 'MAFDII'
_cell_length_a 19.2396
_cell_length_b 20.3017
_cell_length_c 46.143
_cell_angle_alpha 90
_cell_angle_beta 90
_cell_angle_gamma 90
_space_group_name_H-M_alt 'P 1'
_space_group_name_Hall 'P 1'
loop_
    _symmetry_equiv_pos_as_xyz
    x,y,z
loop_
    _atom_site_label
    _atom_site_type_symbol
    _atom_site_fract_x
    _atom_site_fract_y
    _atom_site_fract_z
    _atom_site_occupancy
    C1       C        0.15590    0.73840    0.08269    1.000
    C2       C        0.15330    0.76940    0.05280    1.000
    C3       C        0.11850    0.73900    0.03050    1.000
    H4       H        0.09680    0.69870    0.03360    1.000
    C5       C        0.18670    0.82970    0.04840    1.000
    H6       H        0.20890    0.85100    0.06370    1.000
    C7       C        0.11600    0.76790    0.00360    1.000
    H8       H        0.09090    0.74860    0.98870    1.000
    C9       C        0.18630    0.85730    0.02110    1.000
    H10      H        0.20970    0.89660    0.01770    1.000
    C11      C        0.15190    0.82710    0.99920    1.000
    C12      C        0.19940    0.89010    0.96030    1.000
    C13      C        0.26450    0.87030    0.96200    1.000
    H14      H        0.27570    0.83320    0.97290    1.000
    C15      C        0.18150    0.94660    0.94530    1.000
    H16      H        0.13580    0.96140    0.94510    1.000
    C17      C        0.31730    0.90540    0.94750    1.000
    H18      H        0.36320    0.89130    0.94840    1.000
    C19      C        0.23170    0.98030    0.93100    1.000
    H20      H        0.21980    0.01730    0.92020    1.000
    C21      C        0.29940    0.96090    0.93220    1.000
    C22      C        0.35460    0.99830    0.91540    1.000
    O23      O        0.13360    0.68070    0.08534    1.000
    O24      O        0.17930    0.77240    0.10318    1.000
    O25      O        0.14460    0.85460    0.97210    1.000
    O26      O        0.41640    0.98040    0.91850    1.000
    O27      O        0.33320    0.04310    0.89931    1.000
    O28      O        0.22480    0.65060    0.13801    1.000
    H29      H        0.52678    0.37597    0.60115    1.000
    C30      C        0.15590    0.23840    0.58269    1.000
    C31      C        0.15330    0.26940    0.55280    1.000
    C32      C        0.11850    0.23900    0.53050    1.000
    H33      H        0.09680    0.19870    0.53360    1.000
    C34      C        0.18670    0.32970    0.54840    1.000
    H35      H        0.20890    0.35100    0.56370    1.000
    C36      C        0.11600    0.26790    0.50360    1.000
    H37      H        0.09090    0.24860    0.48870    1.000
    C38      C        0.18630    0.35730    0.52110    1.000
    H39      H        0.20970    0.39660    0.51770    1.000
    C40      C        0.15190    0.32710    0.49920    1.000
    C41      C        0.19940    0.39010    0.46030    1.000
    C42      C        0.26450    0.37030    0.46200    1.000
    H43      H        0.27570    0.33320    0.47290    1.000
    C44      C        0.18150    0.44660    0.44530    1.000
    H45      H        0.13580    0.46140    0.44510    1.000
    C46      C        0.31730    0.40540    0.44750    1.000
    H47      H        0.36320    0.39130    0.44840    1.000
    C48      C        0.23170    0.48030    0.43100    1.000
    H49      H        0.21980    0.51730    0.42020    1.000
    C50      C        0.29940    0.46090    0.43220    1.000
    C51      C        0.35460    0.49830    0.41540    1.000
    O52      O        0.13360    0.18070    0.58534    1.000
    O53      O        0.17930    0.27240    0.60318    1.000
    O54      O        0.14460    0.35460    0.47210    1.000
    O55      O        0.41640    0.48040    0.41850    1.000
    O56      O        0.33320    0.54310    0.39931    1.000
    O57      O        0.22480    0.15060    0.63801    1.000
    H58      H        0.52678    0.87597    0.10115    1.000
    C59      C        0.65590    0.73840    0.58269    1.000
    C60      C        0.65330    0.76940    0.55280    1.000
    C61      C        0.61850    0.73900    0.53050    1.000
    H62      H        0.59680    0.69870    0.53360    1.000
    C63      C        0.68670    0.82970    0.54840    1.000
    H64      H        0.70890    0.85100    0.56370    1.000
    C65      C        0.61600    0.76790    0.50360    1.000
    H66      H        0.59090    0.74860    0.48870    1.000
    C67      C        0.68630    0.85730    0.52110    1.000
    H68      H        0.70970    0.89660    0.51770    1.000
    C69      C        0.65190    0.82710    0.49920    1.000
    C70      C        0.69940    0.89010    0.46030    1.000
    C71      C        0.76450    0.87030    0.46200    1.000
    H72      H        0.77570    0.83320    0.47290    1.000
    C73      C        0.68150    0.94660    0.44530    1.000
    H74      H        0.63580    0.96140    0.44510    1.000
    C75      C        0.81730    0.90540    0.44750    1.000
    H76      H        0.86320    0.89130    0.44840    1.000
    C77      C        0.73170    0.98030    0.43100    1.000
    H78      H        0.71980    0.01730    0.42020    1.000
    C79      C        0.79940    0.96090    0.43220    1.000
    C80      C        0.85460    0.99830    0.41540    1.000
    O81      O        0.63360    0.68070    0.58534    1.000
    O82      O        0.67930    0.77240    0.60318    1.000
    O83      O        0.64460    0.85460    0.47210    1.000
    O84      O        0.91640    0.98040    0.41850    1.000
    O85      O        0.83320    0.04310    0.39931    1.000
    O86      O        0.72480    0.65060    0.63801    1.000
    H87      H        0.02678    0.37597    0.10115    1.000
    C88      C        0.65590    0.23840    0.08269    1.000
    C89      C        0.65330    0.26940    0.05280    1.000
    C90      C        0.61850    0.23900    0.03050    1.000
    H91      H        0.59680    0.19870    0.03360    1.000
    C92      C        0.68670    0.32970    0.04840    1.000
    H93      H        0.70890    0.35100    0.06370    1.000
    C94      C        0.61600    0.26790    0.00360    1.000
    H95      H        0.59090    0.24860    0.98870    1.000
    C96      C        0.68630    0.35730    0.02110    1.000
    H97      H        0.70970    0.39660    0.01770    1.000
    C98      C        0.65190    0.32710    0.99920    1.000
    C99      C        0.69940    0.39010    0.96030    1.000
    C100     C        0.76450    0.37030    0.96200    1.000
    H101     H        0.77570    0.33320    0.97290    1.000
    C102     C        0.68150    0.44660    0.94530    1.000
    H103     H        0.63580    0.46140    0.94510    1.000
    C104     C        0.81730    0.40540    0.94750    1.000
    H105     H        0.86320    0.39130    0.94840    1.000
    C106     C        0.73170    0.48030    0.93100    1.000
    H107     H        0.71980    0.51730    0.92020    1.000
    C108     C        0.79940    0.46090    0.93220    1.000
    C109     C        0.85460    0.49830    0.91540    1.000
    O110     O        0.63360    0.18070    0.08534    1.000
    O111     O        0.67930    0.27240    0.10318    1.000
    O112     O        0.64460    0.35460    0.97210    1.000
    O113     O        0.91640    0.48040    0.91850    1.000
    O114     O        0.83320    0.54310    0.89931    1.000
    O115     O        0.72480    0.15060    0.13801    1.000
    H116     H        0.02678    0.87597    0.60115    1.000
    C117     C        0.84410    0.26160    0.08269    1.000
    C118     C        0.84670    0.23060    0.05280    1.000
    C119     C        0.88150    0.26100    0.03050    1.000
    H120     H        0.90320    0.30130    0.03360    1.000
    C121     C        0.81330    0.17030    0.04840    1.000
    H122     H        0.79110    0.14900    0.06370    1.000
    C123     C        0.88400    0.23210    0.00360    1.000
    H124     H        0.90910    0.25140    0.98870    1.000
    C125     C        0.81370    0.14270    0.02110    1.000
    H126     H        0.79030    0.10340    0.01770    1.000
    C127     C        0.84810    0.17290    0.99920    1.000
    C128     C        0.80060    0.10990    0.96030    1.000
    C129     C        0.73550    0.12970    0.96200    1.000
    H130     H        0.72430    0.16680    0.97290    1.000
    C131     C        0.81850    0.05340    0.94530    1.000
    H132     H        0.86420    0.03860    0.94510    1.000
    C133     C        0.68270    0.09460    0.94750    1.000
    H134     H        0.63680    0.10870    0.94840    1.000
    C135     C        0.76830    0.01970    0.93100    1.000
    H136     H        0.78020    0.98270    0.92020    1.000
    C137     C        0.70060    0.03910    0.93220    1.000
    C138     C        0.64540    0.00170    0.91540    1.000
    O139     O        0.86640    0.31930    0.08534    1.000
    O140     O        0.82070    0.22760    0.10318    1.000
    O141     O        0.85540    0.14540    0.97210    1.000
    O142     O        0.58360    0.01960    0.91850    1.000
    O143     O        0.66680    0.95690    0.89931    1.000
    O144     O        0.77520    0.34940    0.13801    1.000
    H145     H        0.47322    0.62403    0.60115    1.000
    C146     C        0.84410    0.76160    0.58269    1.000
    C147     C        0.84670    0.73060    0.55280    1.000
    C148     C        0.88150    0.76100    0.53050    1.000
    H149     H        0.90320    0.80130    0.53360    1.000
    C150     C        0.81330    0.67030    0.54840    1.000
    H151     H        0.79110    0.64900    0.56370    1.000
    C152     C        0.88400    0.73210    0.50360    1.000
    H153     H        0.90910    0.75140    0.48870    1.000
    C154     C        0.81370    0.64270    0.52110    1.000
    H155     H        0.79030    0.60340    0.51770    1.000
    C156     C        0.84810    0.67290    0.49920    1.000
    C157     C        0.80060    0.60990    0.46030    1.000
    C158     C        0.73550    0.62970    0.46200    1.000
    H159     H        0.72430    0.66680    0.47290    1.000
    C160     C        0.81850    0.55340    0.44530    1.000
    H161     H        0.86420    0.53860    0.44510    1.000
    C162     C        0.68270    0.59460    0.44750    1.000
    H163     H        0.63680    0.60870    0.44840    1.000
    C164     C        0.76830    0.51970    0.43100    1.000
    H165     H        0.78020    0.48270    0.42020    1.000
    C166     C        0.70060    0.53910    0.43220    1.000
    C167     C        0.64540    0.50170    0.41540    1.000
    O168     O        0.86640    0.81930    0.58534    1.000
    O169     O        0.82070    0.72760    0.60318    1.000
    O170     O        0.85540    0.64540    0.47210    1.000
    O171     O        0.58360    0.51960    0.41850    1.000
    O172     O        0.66680    0.45690    0.39931    1.000
    O173     O        0.77520    0.84940    0.63801    1.000
    H174     H        0.47322    0.12403    0.10115    1.000
    C175     C        0.34410    0.26160    0.58269    1.000
    C176     C        0.34670    0.23060    0.55280    1.000
    C177     C        0.38150    0.26100    0.53050    1.000
    H178     H        0.40320    0.30130    0.53360    1.000
    C179     C        0.31330    0.17030    0.54840    1.000
    H180     H        0.29110    0.14900    0.56370    1.000
    C181     C        0.38400    0.23210    0.50360    1.000
    H182     H        0.40910    0.25140    0.48870    1.000
    C183     C        0.31370    0.14270    0.52110    1.000
    H184     H        0.29030    0.10340    0.51770    1.000
    C185     C        0.34810    0.17290    0.49920    1.000
    C186     C        0.30060    0.10990    0.46030    1.000
    C187     C        0.23550    0.12970    0.46200    1.000
    H188     H        0.22430    0.16680    0.47290    1.000
    C189     C        0.31850    0.05340    0.44530    1.000
    H190     H        0.36420    0.03860    0.44510    1.000
    C191     C        0.18270    0.09460    0.44750    1.000
    H192     H        0.13680    0.10870    0.44840    1.000
    C193     C        0.26830    0.01970    0.43100    1.000
    H194     H        0.28020    0.98270    0.42020    1.000
    C195     C        0.20060    0.03910    0.43220    1.000
    C196     C        0.14540    0.00170    0.41540    1.000
    O197     O        0.36640    0.31930    0.58534    1.000
    O198     O        0.32070    0.22760    0.60318    1.000
    O199     O        0.35540    0.14540    0.47210    1.000
    O200     O        0.08360    0.01960    0.41850    1.000
    O201     O        0.16680    0.95690    0.39931    1.000
    O202     O        0.27520    0.34940    0.63801    1.000
    H203     H        0.97322    0.62403    0.10115    1.000
    C204     C        0.34410    0.76160    0.08269    1.000
    C205     C        0.34670    0.73060    0.05280    1.000
    C206     C        0.38150    0.76100    0.03050    1.000
    H207     H        0.40320    0.80130    0.03360    1.000
    C208     C        0.31330    0.67030    0.04840    1.000
    H209     H        0.29110    0.64900    0.06370    1.000
    C210     C        0.38400    0.73210    0.00360    1.000
    H211     H        0.40910    0.75140    0.98870    1.000
    C212     C        0.31370    0.64270    0.02110    1.000
    H213     H        0.29030    0.60340    0.01770    1.000
    C214     C        0.34810    0.67290    0.99920    1.000
    C215     C        0.30060    0.60990    0.96030    1.000
    C216     C        0.23550    0.62970    0.96200    1.000
    H217     H        0.22430    0.66680    0.97290    1.000
    C218     C        0.31850    0.55340    0.94530    1.000
    H219     H        0.36420    0.53860    0.94510    1.000
    C220     C        0.18270    0.59460    0.94750    1.000
    H221     H        0.13680    0.60870    0.94840    1.000
    C222     C        0.26830    0.51970    0.93100    1.000
    H223     H        0.28020    0.48270    0.92020    1.000
    C224     C        0.20060    0.53910    0.93220    1.000
    C225     C        0.14540    0.50170    0.91540    1.000
    O226     O        0.36640    0.81930    0.08534    1.000
    O227     O        0.32070    0.72760    0.10318    1.000
    O228     O        0.35540    0.64540    0.97210    1.000
    O229     O        0.08360    0.51960    0.91850    1.000
    O230     O        0.16680    0.45690    0.89931    1.000
    O231     O        0.27520    0.84940    0.13801    1.000
    H232     H        0.97322    0.12403    0.60115    1.000
    C233     C        0.84410    0.73840    0.91731    1.000
    C234     C        0.84670    0.76940    0.94720    1.000
    C235     C        0.88150    0.73900    0.96950    1.000
    H236     H        0.90320    0.69870    0.96640    1.000
    C237     C        0.81330    0.82970    0.95160    1.000
    H238     H        0.79110    0.85100    0.93630    1.000
    C239     C        0.88400    0.76790    0.99640    1.000
    H240     H        0.90910    0.74860    0.01130    1.000
    C241     C        0.81370    0.85730    0.97890    1.000
    H242     H        0.79030    0.89660    0.98230    1.000
    C243     C        0.84810    0.82710    0.00080    1.000
    C244     C        0.80060    0.89010    0.03970    1.000
    C245     C        0.73550    0.87030    0.03800    1.000
    H246     H        0.72430    0.83320    0.02710    1.000
    C247     C        0.81850    0.94660    0.05470    1.000
    H248     H        0.86420    0.96140    0.05490    1.000
    C249     C        0.68270    0.90540    0.05250    1.000
    H250     H        0.63680    0.89130    0.05160    1.000
    C251     C        0.76830    0.98030    0.06900    1.000
    H252     H        0.78020    0.01730    0.07980    1.000
    C253     C        0.70060    0.96090    0.06780    1.000
    C254     C        0.64540    0.99830    0.08460    1.000
    O255     O        0.86640    0.68070    0.91466    1.000
    O256     O        0.82070    0.77240    0.89682    1.000
    O257     O        0.85540    0.85460    0.02790    1.000
    O258     O        0.58360    0.98040    0.08150    1.000
    O259     O        0.66680    0.04310    0.10069    1.000
    O260     O        0.77520    0.65060    0.86199    1.000
    H261     H        0.47322    0.37597    0.39885    1.000
    C262     C        0.84410    0.23840    0.41731    1.000
    C263     C        0.84670    0.26940    0.44720    1.000
    C264     C        0.88150    0.23900    0.46950    1.000
    H265     H        0.90320    0.19870    0.46640    1.000
    C266     C        0.81330    0.32970    0.45160    1.000
    H267     H        0.79110    0.35100    0.43630    1.000
    C268     C        0.88400    0.26790    0.49640    1.000
    H269     H        0.90910    0.24860    0.51130    1.000
    C270     C        0.81370    0.35730    0.47890    1.000
    H271     H        0.79030    0.39660    0.48230    1.000
    C272     C        0.84810    0.32710    0.50080    1.000
    C273     C        0.80060    0.39010    0.53970    1.000
    C274     C        0.73550    0.37030    0.53800    1.000
    H275     H        0.72430    0.33320    0.52710    1.000
    C276     C        0.81850    0.44660    0.55470    1.000
    H277     H        0.86420    0.46140    0.55490    1.000
    C278     C        0.68270    0.40540    0.55250    1.000
    H279     H        0.63680    0.39130    0.55160    1.000
    C280     C        0.76830    0.48030    0.56900    1.000
    H281     H        0.78020    0.51730    0.57980    1.000
    C282     C        0.70060    0.46090    0.56780    1.000
    C283     C        0.64540    0.49830    0.58460    1.000
    O284     O        0.86640    0.18070    0.41466    1.000
    O285     O        0.82070    0.27240    0.39682    1.000
    O286     O        0.85540    0.35460    0.52790    1.000
    O287     O        0.58360    0.48040    0.58150    1.000
    O288     O        0.66680    0.54310    0.60069    1.000
    O289     O        0.77520    0.15060    0.36199    1.000
    H290     H        0.47322    0.87597    0.89885    1.000
    C291     C        0.34410    0.73840    0.41731    1.000
    C292     C        0.34670    0.76940    0.44720    1.000
    C293     C        0.38150    0.73900    0.46950    1.000
    H294     H        0.40320    0.69870    0.46640    1.000
    C295     C        0.31330    0.82970    0.45160    1.000
    H296     H        0.29110    0.85100    0.43630    1.000
    C297     C        0.38400    0.76790    0.49640    1.000
    H298     H        0.40910    0.74860    0.51130    1.000
    C299     C        0.31370    0.85730    0.47890    1.000
    H300     H        0.29030    0.89660    0.48230    1.000
    C301     C        0.34810    0.82710    0.50080    1.000
    C302     C        0.30060    0.89010    0.53970    1.000
    C303     C        0.23550    0.87030    0.53800    1.000
    H304     H        0.22430    0.83320    0.52710    1.000
    C305     C        0.31850    0.94660    0.55470    1.000
    H306     H        0.36420    0.96140    0.55490    1.000
    C307     C        0.18270    0.90540    0.55250    1.000
    H308     H        0.13680    0.89130    0.55160    1.000
    C309     C        0.26830    0.98030    0.56900    1.000
    H310     H        0.28020    0.01730    0.57980    1.000
    C311     C        0.20060    0.96090    0.56780    1.000
    C312     C        0.14540    0.99830    0.58460    1.000
    O313     O        0.36640    0.68070    0.41466    1.000
    O314     O        0.32070    0.77240    0.39682    1.000
    O315     O        0.35540    0.85460    0.52790    1.000
    O316     O        0.08360    0.98040    0.58150    1.000
    O317     O        0.16680    0.04310    0.60069    1.000
    O318     O        0.27520    0.65060    0.36199    1.000
    H319     H        0.97322    0.37597    0.89885    1.000
    C320     C        0.34410    0.23840    0.91731    1.000
    C321     C        0.34670    0.26940    0.94720    1.000
    C322     C        0.38150    0.23900    0.96950    1.000
    H323     H        0.40320    0.19870    0.96640    1.000
    C324     C        0.31330    0.32970    0.95160    1.000
    H325     H        0.29110    0.35100    0.93630    1.000
    C326     C        0.38400    0.26790    0.99640    1.000
    H327     H        0.40910    0.24860    0.01130    1.000
    C328     C        0.31370    0.35730    0.97890    1.000
    H329     H        0.29030    0.39660    0.98230    1.000
    C330     C        0.34810    0.32710    0.00080    1.000
    C331     C        0.30060    0.39010    0.03970    1.000
    C332     C        0.23550    0.37030    0.03800    1.000
    H333     H        0.22430    0.33320    0.02710    1.000
    C334     C        0.31850    0.44660    0.05470    1.000
    H335     H        0.36420    0.46140    0.05490    1.000
    C336     C        0.18270    0.40540    0.05250    1.000
    H337     H        0.13680    0.39130    0.05160    1.000
    C338     C        0.26830    0.48030    0.06900    1.000
    H339     H        0.28020    0.51730    0.07980    1.000
    C340     C        0.20060    0.46090    0.06780    1.000
    C341     C        0.14540    0.49830    0.08460    1.000
    O342     O        0.36640    0.18070    0.91466    1.000
    O343     O        0.32070    0.27240    0.89682    1.000
    O344     O        0.35540    0.35460    0.02790    1.000
    O345     O        0.08360    0.48040    0.08150    1.000
    O346     O        0.16680    0.54310    0.10069    1.000
    O347     O        0.27520    0.15060    0.86199    1.000
    H348     H        0.97322    0.87597    0.39885    1.000
    C349     C        0.15590    0.26160    0.91731    1.000
    C350     C        0.15330    0.23060    0.94720    1.000
    C351     C        0.11850    0.26100    0.96950    1.000
    H352     H        0.09680    0.30130    0.96640    1.000
    C353     C        0.18670    0.17030    0.95160    1.000
    H354     H        0.20890    0.14900    0.93630    1.000
    C355     C        0.11600    0.23210    0.99640    1.000
    H356     H        0.09090    0.25140    0.01130    1.000
    C357     C        0.18630    0.14270    0.97890    1.000
    H358     H        0.20970    0.10340    0.98230    1.000
    C359     C        0.15190    0.17290    0.00080    1.000
    C360     C        0.19940    0.10990    0.03970    1.000
    C361     C        0.26450    0.12970    0.03800    1.000
    H362     H        0.27570    0.16680    0.02710    1.000
    C363     C        0.18150    0.05340    0.05470    1.000
    H364     H        0.13580    0.03860    0.05490    1.000
    C365     C        0.31730    0.09460    0.05250    1.000
    H366     H        0.36320    0.10870    0.05160    1.000
    C367     C        0.23170    0.01970    0.06900    1.000
    H368     H        0.21980    0.98270    0.07980    1.000
    C369     C        0.29940    0.03910    0.06780    1.000
    C370     C        0.35460    0.00170    0.08460    1.000
    O371     O        0.13360    0.31930    0.91466    1.000
    O372     O        0.17930    0.22760    0.89682    1.000
    O373     O        0.14460    0.14540    0.02790    1.000
    O374     O        0.41640    0.01960    0.08150    1.000
    O375     O        0.33320    0.95690    0.10069    1.000
    O376     O        0.22480    0.34940    0.86199    1.000
    H377     H        0.52678    0.62403    0.39885    1.000
    C378     C        0.15590    0.76160    0.41731    1.000
    C379     C        0.15330    0.73060    0.44720    1.000
    C380     C        0.11850    0.76100    0.46950    1.000
    H381     H        0.09680    0.80130    0.46640    1.000
    C382     C        0.18670    0.67030    0.45160    1.000
    H383     H        0.20890    0.64900    0.43630    1.000
    C384     C        0.11600    0.73210    0.49640    1.000
    H385     H        0.09090    0.75140    0.51130    1.000
    C386     C        0.18630    0.64270    0.47890    1.000
    H387     H        0.20970    0.60340    0.48230    1.000
    C388     C        0.15190    0.67290    0.50080    1.000
    C389     C        0.19940    0.60990    0.53970    1.000
    C390     C        0.26450    0.62970    0.53800    1.000
    H391     H        0.27570    0.66680    0.52710    1.000
    C392     C        0.18150    0.55340    0.55470    1.000
    H393     H        0.13580    0.53860    0.55490    1.000
    C394     C        0.31730    0.59460    0.55250    1.000
    H395     H        0.36320    0.60870    0.55160    1.000
    C396     C        0.23170    0.51970    0.56900    1.000
    H397     H        0.21980    0.48270    0.57980    1.000
    C398     C        0.29940    0.53910    0.56780    1.000
    C399     C        0.35460    0.50170    0.58460    1.000
    O400     O        0.13360    0.81930    0.41466    1.000
    O401     O        0.17930    0.72760    0.39682    1.000
    O402     O        0.14460    0.64540    0.52790    1.000
    O403     O        0.41640    0.51960    0.58150    1.000
    O404     O        0.33320    0.45690    0.60069    1.000
    O405     O        0.22480    0.84940    0.36199    1.000
    H406     H        0.52678    0.12403    0.89885    1.000
    C407     C        0.65590    0.26160    0.41731    1.000
    C408     C        0.65330    0.23060    0.44720    1.000
    C409     C        0.61850    0.26100    0.46950    1.000
    H410     H        0.59680    0.30130    0.46640    1.000
    C411     C        0.68670    0.17030    0.45160    1.000
    H412     H        0.70890    0.14900    0.43630    1.000
    C413     C        0.61600    0.23210    0.49640    1.000
    H414     H        0.59090    0.25140    0.51130    1.000
    C415     C        0.68630    0.14270    0.47890    1.000
    H416     H        0.70970    0.10340    0.48230    1.000
    C417     C        0.65190    0.17290    0.50080    1.000
    C418     C        0.69940    0.10990    0.53970    1.000
    C419     C        0.76450    0.12970    0.53800    1.000
    H420     H        0.77570    0.16680    0.52710    1.000
    C421     C        0.68150    0.05340    0.55470    1.000
    H422     H        0.63580    0.03860    0.55490    1.000
    C423     C        0.81730    0.09460    0.55250    1.000
    H424     H        0.86320    0.10870    0.55160    1.000
    C425     C        0.73170    0.01970    0.56900    1.000
    H426     H        0.71980    0.98270    0.57980    1.000
    C427     C        0.79940    0.03910    0.56780    1.000
    C428     C        0.85460    0.00170    0.58460    1.000
    O429     O        0.63360    0.31930    0.41466    1.000
    O430     O        0.67930    0.22760    0.39682    1.000
    O431     O        0.64460    0.14540    0.52790    1.000
    O432     O        0.91640    0.01960    0.58150    1.000
    O433     O        0.83320    0.95690    0.60069    1.000
    O434     O        0.72480    0.34940    0.36199    1.000
    H435     H        0.02678    0.62403    0.89885    1.000
    C436     C        0.65590    0.76160    0.91731    1.000
    C437     C        0.65330    0.73060    0.94720    1.000
    C438     C        0.61850    0.76100    0.96950    1.000
    H439     H        0.59680    0.80130    0.96640    1.000
    C440     C        0.68670    0.67030    0.95160    1.000
    H441     H        0.70890    0.64900    0.93630    1.000
    C442     C        0.61600    0.73210    0.99640    1.000
    H443     H        0.59090    0.75140    0.01130    1.000
    C444     C        0.68630    0.64270    0.97890    1.000
    H445     H        0.70970    0.60340    0.98230    1.000
    C446     C        0.65190    0.67290    0.00080    1.000
    C447     C        0.69940    0.60990    0.03970    1.000
    C448     C        0.76450    0.62970    0.03800    1.000
    H449     H        0.77570    0.66680    0.02710    1.000
    C450     C        0.68150    0.55340    0.05470    1.000
    H451     H        0.63580    0.53860    0.05490    1.000
    C452     C        0.81730    0.59460    0.05250    1.000
    H453     H        0.86320    0.60870    0.05160    1.000
    C454     C        0.73170    0.51970    0.06900    1.000
    H455     H        0.71980    0.48270    0.07980    1.000
    C456     C        0.79940    0.53910    0.06780    1.000
    C457     C        0.85460    0.50170    0.08460    1.000
    O458     O        0.63360    0.81930    0.91466    1.000
    O459     O        0.67930    0.72760    0.89682    1.000
    O460     O        0.64460    0.64540    0.02790    1.000
    O461     O        0.91640    0.51960    0.08150    1.000
    O462     O        0.83320    0.45690    0.10069    1.000
    O463     O        0.72480    0.84940    0.86199    1.000
    H464     H        0.02678    0.12403    0.39885    1.000
    C465     C        0.09410    0.51160    0.16731    1.000
    C466     C        0.09670    0.48060    0.19720    1.000
    C467     C        0.13150    0.51100    0.21950    1.000
    H468     H        0.15320    0.55130    0.21640    1.000
    C469     C        0.06330    0.42030    0.20160    1.000
    H470     H        0.04110    0.39900    0.18630    1.000
    C471     C        0.13400    0.48210    0.24640    1.000
    H472     H        0.15910    0.50140    0.26130    1.000
    C473     C        0.06370    0.39270    0.22890    1.000
    H474     H        0.04030    0.35340    0.23230    1.000
    C475     C        0.09810    0.42290    0.25080    1.000
    C476     C        0.05060    0.35990    0.28970    1.000
    C477     C        0.98550    0.37970    0.28800    1.000
    H478     H        0.97430    0.41680    0.27710    1.000
    C479     C        0.06850    0.30340    0.30470    1.000
    H480     H        0.11420    0.28860    0.30490    1.000
    C481     C        0.93270    0.34460    0.30250    1.000
    H482     H        0.88680    0.35870    0.30160    1.000
    C483     C        0.01830    0.26970    0.31900    1.000
    H484     H        0.03020    0.23270    0.32980    1.000
    C485     C        0.95060    0.28910    0.31780    1.000
    C486     C        0.89540    0.25170    0.33460    1.000
    O487     O        0.11640    0.56930    0.16466    1.000
    O488     O        0.07070    0.47760    0.14682    1.000
    O489     O        0.10540    0.39540    0.27790    1.000
    O490     O        0.83360    0.26960    0.33150    1.000
    O491     O        0.91680    0.20690    0.35069    1.000
    O492     O        0.02520    0.59940    0.11199    1.000
    H493     H        0.72322    0.87403    0.64885    1.000
    C494     C        0.09410    0.01160    0.66731    1.000
    C495     C        0.09670    0.98060    0.69720    1.000
    C496     C        0.13150    0.01100    0.71950    1.000
    H497     H        0.15320    0.05130    0.71640    1.000
    C498     C        0.06330    0.92030    0.70160    1.000
    H499     H        0.04110    0.89900    0.68630    1.000
    C500     C        0.13400    0.98210    0.74640    1.000
    H501     H        0.15910    0.00140    0.76130    1.000
    C502     C        0.06370    0.89270    0.72890    1.000
    H503     H        0.04030    0.85340    0.73230    1.000
    C504     C        0.09810    0.92290    0.75080    1.000
    C505     C        0.05060    0.85990    0.78970    1.000
    C506     C        0.98550    0.87970    0.78800    1.000
    H507     H        0.97430    0.91680    0.77710    1.000
    C508     C        0.06850    0.80340    0.80470    1.000
    H509     H        0.11420    0.78860    0.80490    1.000
    C510     C        0.93270    0.84460    0.80250    1.000
    H511     H        0.88680    0.85870    0.80160    1.000
    C512     C        0.01830    0.76970    0.81900    1.000
    H513     H        0.03020    0.73270    0.82980    1.000
    C514     C        0.95060    0.78910    0.81780    1.000
    C515     C        0.89540    0.75170    0.83460    1.000
    O516     O        0.11640    0.06930    0.66466    1.000
    O517     O        0.07070    0.97760    0.64682    1.000
    O518     O        0.10540    0.89540    0.77790    1.000
    O519     O        0.83360    0.76960    0.83150    1.000
    O520     O        0.91680    0.70690    0.85069    1.000
    O521     O        0.02520    0.09940    0.61199    1.000
    H522     H        0.72322    0.37403    0.14885    1.000
    C523     C        0.59410    0.51160    0.66731    1.000
    C524     C        0.59670    0.48060    0.69720    1.000
    C525     C        0.63150    0.51100    0.71950    1.000
    H526     H        0.65320    0.55130    0.71640    1.000
    C527     C        0.56330    0.42030    0.70160    1.000
    H528     H        0.54110    0.39900    0.68630    1.000
    C529     C        0.63400    0.48210    0.74640    1.000
    H530     H        0.65910    0.50140    0.76130    1.000
    C531     C        0.56370    0.39270    0.72890    1.000
    H532     H        0.54030    0.35340    0.73230    1.000
    C533     C        0.59810    0.42290    0.75080    1.000
    C534     C        0.55060    0.35990    0.78970    1.000
    C535     C        0.48550    0.37970    0.78800    1.000
    H536     H        0.47430    0.41680    0.77710    1.000
    C537     C        0.56850    0.30340    0.80470    1.000
    H538     H        0.61420    0.28860    0.80490    1.000
    C539     C        0.43270    0.34460    0.80250    1.000
    H540     H        0.38680    0.35870    0.80160    1.000
    C541     C        0.51830    0.26970    0.81900    1.000
    H542     H        0.53020    0.23270    0.82980    1.000
    C543     C        0.45060    0.28910    0.81780    1.000
    C544     C        0.39540    0.25170    0.83460    1.000
    O545     O        0.61640    0.56930    0.66466    1.000
    O546     O        0.57070    0.47760    0.64682    1.000
    O547     O        0.60540    0.39540    0.77790    1.000
    O548     O        0.33360    0.26960    0.83150    1.000
    O549     O        0.41680    0.20690    0.85069    1.000
    O550     O        0.52520    0.59940    0.61199    1.000
    H551     H        0.22322    0.87403    0.14885    1.000
    C552     C        0.59410    0.01160    0.16731    1.000
    C553     C        0.59670    0.98060    0.19720    1.000
    C554     C        0.63150    0.01100    0.21950    1.000
    H555     H        0.65320    0.05130    0.21640    1.000
    C556     C        0.56330    0.92030    0.20160    1.000
    H557     H        0.54110    0.89900    0.18630    1.000
    C558     C        0.63400    0.98210    0.24640    1.000
    H559     H        0.65910    0.00140    0.26130    1.000
    C560     C        0.56370    0.89270    0.22890    1.000
    H561     H        0.54030    0.85340    0.23230    1.000
    C562     C        0.59810    0.92290    0.25080    1.000
    C563     C        0.55060    0.85990    0.28970    1.000
    C564     C        0.48550    0.87970    0.28800    1.000
    H565     H        0.47430    0.91680    0.27710    1.000
    C566     C        0.56850    0.80340    0.30470    1.000
    H567     H        0.61420    0.78860    0.30490    1.000
    C568     C        0.43270    0.84460    0.30250    1.000
    H569     H        0.38680    0.85870    0.30160    1.000
    C570     C        0.51830    0.76970    0.31900    1.000
    H571     H        0.53020    0.73270    0.32980    1.000
    C572     C        0.45060    0.78910    0.31780    1.000
    C573     C        0.39540    0.75170    0.33460    1.000
    O574     O        0.61640    0.06930    0.16466    1.000
    O575     O        0.57070    0.97760    0.14682    1.000
    O576     O        0.60540    0.89540    0.27790    1.000
    O577     O        0.33360    0.76960    0.33150    1.000
    O578     O        0.41680    0.70690    0.35069    1.000
    O579     O        0.52520    0.09940    0.11199    1.000
    H580     H        0.22322    0.37403    0.64885    1.000
    C581     C        0.40590    0.98840    0.16731    1.000
    C582     C        0.40330    0.01940    0.19720    1.000
    C583     C        0.36850    0.98900    0.21950    1.000
    H584     H        0.34680    0.94870    0.21640    1.000
    C585     C        0.43670    0.07970    0.20160    1.000
    H586     H        0.45890    0.10100    0.18630    1.000
    C587     C        0.36600    0.01790    0.24640    1.000
    H588     H        0.34090    0.99860    0.26130    1.000
    C589     C        0.43630    0.10730    0.22890    1.000
    H590     H        0.45970    0.14660    0.23230    1.000
    C591     C        0.40190    0.07710    0.25080    1.000
    C592     C        0.44940    0.14010    0.28970    1.000
    C593     C        0.51450    0.12030    0.28800    1.000
    H594     H        0.52570    0.08320    0.27710    1.000
    C595     C        0.43150    0.19660    0.30470    1.000
    H596     H        0.38580    0.21140    0.30490    1.000
    C597     C        0.56730    0.15540    0.30250    1.000
    H598     H        0.61320    0.14130    0.30160    1.000
    C599     C        0.48170    0.23030    0.31900    1.000
    H600     H        0.46980    0.26730    0.32980    1.000
    C601     C        0.54940    0.21090    0.31780    1.000
    C602     C        0.60460    0.24830    0.33460    1.000
    O603     O        0.38360    0.93070    0.16466    1.000
    O604     O        0.42930    0.02240    0.14682    1.000
    O605     O        0.39460    0.10460    0.27790    1.000
    O606     O        0.66640    0.23040    0.33150    1.000
    O607     O        0.58320    0.29310    0.35069    1.000
    O608     O        0.47480    0.90060    0.11199    1.000
    H609     H        0.77678    0.62597    0.64885    1.000
    C610     C        0.40590    0.48840    0.66731    1.000
    C611     C        0.40330    0.51940    0.69720    1.000
    C612     C        0.36850    0.48900    0.71950    1.000
    H613     H        0.34680    0.44870    0.71640    1.000
    C614     C        0.43670    0.57970    0.70160    1.000
    H615     H        0.45890    0.60100    0.68630    1.000
    C616     C        0.36600    0.51790    0.74640    1.000
    H617     H        0.34090    0.49860    0.76130    1.000
    C618     C        0.43630    0.60730    0.72890    1.000
    H619     H        0.45970    0.64660    0.73230    1.000
    C620     C        0.40190    0.57710    0.75080    1.000
    C621     C        0.44940    0.64010    0.78970    1.000
    C622     C        0.51450    0.62030    0.78800    1.000
    H623     H        0.52570    0.58320    0.77710    1.000
    C624     C        0.43150    0.69660    0.80470    1.000
    H625     H        0.38580    0.71140    0.80490    1.000
    C626     C        0.56730    0.65540    0.80250    1.000
    H627     H        0.61320    0.64130    0.80160    1.000
    C628     C        0.48170    0.73030    0.81900    1.000
    H629     H        0.46980    0.76730    0.82980    1.000
    C630     C        0.54940    0.71090    0.81780    1.000
    C631     C        0.60460    0.74830    0.83460    1.000
    O632     O        0.38360    0.43070    0.66466    1.000
    O633     O        0.42930    0.52240    0.64682    1.000
    O634     O        0.39460    0.60460    0.77790    1.000
    O635     O        0.66640    0.73040    0.83150    1.000
    O636     O        0.58320    0.79310    0.85069    1.000
    O637     O        0.47480    0.40060    0.61199    1.000
    H638     H        0.77678    0.12597    0.14885    1.000
    C639     C        0.90590    0.98840    0.66731    1.000
    C640     C        0.90330    0.01940    0.69720    1.000
    C641     C        0.86850    0.98900    0.71950    1.000
    H642     H        0.84680    0.94870    0.71640    1.000
    C643     C        0.93670    0.07970    0.70160    1.000
    H644     H        0.95890    0.10100    0.68630    1.000
    C645     C        0.86600    0.01790    0.74640    1.000
    H646     H        0.84090    0.99860    0.76130    1.000
    C647     C        0.93630    0.10730    0.72890    1.000
    H648     H        0.95970    0.14660    0.73230    1.000
    C649     C        0.90190    0.07710    0.75080    1.000
    C650     C        0.94940    0.14010    0.78970    1.000
    C651     C        0.01450    0.12030    0.78800    1.000
    H652     H        0.02570    0.08320    0.77710    1.000
    C653     C        0.93150    0.19660    0.80470    1.000
    H654     H        0.88580    0.21140    0.80490    1.000
    C655     C        0.06730    0.15540    0.80250    1.000
    H656     H        0.11320    0.14130    0.80160    1.000
    C657     C        0.98170    0.23030    0.81900    1.000
    H658     H        0.96980    0.26730    0.82980    1.000
    C659     C        0.04940    0.21090    0.81780    1.000
    C660     C        0.10460    0.24830    0.83460    1.000
    O661     O        0.88360    0.93070    0.66466    1.000
    O662     O        0.92930    0.02240    0.64682    1.000
    O663     O        0.89460    0.10460    0.77790    1.000
    O664     O        0.16640    0.23040    0.83150    1.000
    O665     O        0.08320    0.29310    0.85069    1.000
    O666     O        0.97480    0.90060    0.61199    1.000
    H667     H        0.27678    0.62597    0.14885    1.000
    C668     C        0.90590    0.48840    0.16731    1.000
    C669     C        0.90330    0.51940    0.19720    1.000
    C670     C        0.86850    0.48900    0.21950    1.000
    H671     H        0.84680    0.44870    0.21640    1.000
    C672     C        0.93670    0.57970    0.20160    1.000
    H673     H        0.95890    0.60100    0.18630    1.000
    C674     C        0.86600    0.51790    0.24640    1.000
    H675     H        0.84090    0.49860    0.26130    1.000
    C676     C        0.93630    0.60730    0.22890    1.000
    H677     H        0.95970    0.64660    0.23230    1.000
    C678     C        0.90190    0.57710    0.25080    1.000
    C679     C        0.94940    0.64010    0.28970    1.000
    C680     C        0.01450    0.62030    0.28800    1.000
    H681     H        0.02570    0.58320    0.27710    1.000
    C682     C        0.93150    0.69660    0.30470    1.000
    H683     H        0.88580    0.71140    0.30490    1.000
    C684     C        0.06730    0.65540    0.30250    1.000
    H685     H        0.11320    0.64130    0.30160    1.000
    C686     C        0.98170    0.73030    0.31900    1.000
    H687     H        0.96980    0.76730    0.32980    1.000
    C688     C        0.04940    0.71090    0.31780    1.000
    C689     C        0.10460    0.74830    0.33460    1.000
    O690     O        0.88360    0.43070    0.16466    1.000
    O691     O        0.92930    0.52240    0.14682    1.000
    O692     O        0.89460    0.60460    0.27790    1.000
    O693     O        0.16640    0.73040    0.33150    1.000
    O694     O        0.08320    0.79310    0.35069    1.000
    O695     O        0.97480    0.40060    0.11199    1.000
    H696     H        0.27678    0.12597    0.64885    1.000
    C697     C        0.40590    0.51160    0.33269    1.000
    C698     C        0.40330    0.48060    0.30280    1.000
    C699     C        0.36850    0.51100    0.28050    1.000
    H700     H        0.34680    0.55130    0.28360    1.000
    C701     C        0.43670    0.42030    0.29840    1.000
    H702     H        0.45890    0.39900    0.31370    1.000
    C703     C        0.36600    0.48210    0.25360    1.000
    H704     H        0.34090    0.50140    0.23870    1.000
    C705     C        0.43630    0.39270    0.27110    1.000
    H706     H        0.45970    0.35340    0.26770    1.000
    C707     C        0.40190    0.42290    0.24920    1.000
    C708     C        0.44940    0.35990    0.21030    1.000
    C709     C        0.51450    0.37970    0.21200    1.000
    H710     H        0.52570    0.41680    0.22290    1.000
    C711     C        0.43150    0.30340    0.19530    1.000
    H712     H        0.38580    0.28860    0.19510    1.000
    C713     C        0.56730    0.34460    0.19750    1.000
    H714     H        0.61320    0.35870    0.19840    1.000
    C715     C        0.48170    0.26970    0.18100    1.000
    H716     H        0.46980    0.23270    0.17020    1.000
    C717     C        0.54940    0.28910    0.18220    1.000
    C718     C        0.60460    0.25170    0.16540    1.000
    O719     O        0.38360    0.56930    0.33534    1.000
    O720     O        0.42930    0.47760    0.35318    1.000
    O721     O        0.39460    0.39540    0.22210    1.000
    O722     O        0.66640    0.26960    0.16850    1.000
    O723     O        0.58320    0.20690    0.14931    1.000
    O724     O        0.47480    0.59940    0.38801    1.000
    H725     H        0.77678    0.87403    0.85115    1.000
    C726     C        0.40590    0.01160    0.83269    1.000
    C727     C        0.40330    0.98060    0.80280    1.000
    C728     C        0.36850    0.01100    0.78050    1.000
    H729     H        0.34680    0.05130    0.78360    1.000
    C730     C        0.43670    0.92030    0.79840    1.000
    H731     H        0.45890    0.89900    0.81370    1.000
    C732     C        0.36600    0.98210    0.75360    1.000
    H733     H        0.34090    0.00140    0.73870    1.000
    C734     C        0.43630    0.89270    0.77110    1.000
    H735     H        0.45970    0.85340    0.76770    1.000
    C736     C        0.40190    0.92290    0.74920    1.000
    C737     C        0.44940    0.85990    0.71030    1.000
    C738     C        0.51450    0.87970    0.71200    1.000
    H739     H        0.52570    0.91680    0.72290    1.000
    C740     C        0.43150    0.80340    0.69530    1.000
    H741     H        0.38580    0.78860    0.69510    1.000
    C742     C        0.56730    0.84460    0.69750    1.000
    H743     H        0.61320    0.85870    0.69840    1.000
    C744     C        0.48170    0.76970    0.68100    1.000
    H745     H        0.46980    0.73270    0.67020    1.000
    C746     C        0.54940    0.78910    0.68220    1.000
    C747     C        0.60460    0.75170    0.66540    1.000
    O748     O        0.38360    0.06930    0.83534    1.000
    O749     O        0.42930    0.97760    0.85318    1.000
    O750     O        0.39460    0.89540    0.72210    1.000
    O751     O        0.66640    0.76960    0.66850    1.000
    O752     O        0.58320    0.70690    0.64931    1.000
    O753     O        0.47480    0.09940    0.88801    1.000
    H754     H        0.77678    0.37403    0.35115    1.000
    C755     C        0.90590    0.51160    0.83269    1.000
    C756     C        0.90330    0.48060    0.80280    1.000
    C757     C        0.86850    0.51100    0.78050    1.000
    H758     H        0.84680    0.55130    0.78360    1.000
    C759     C        0.93670    0.42030    0.79840    1.000
    H760     H        0.95890    0.39900    0.81370    1.000
    C761     C        0.86600    0.48210    0.75360    1.000
    H762     H        0.84090    0.50140    0.73870    1.000
    C763     C        0.93630    0.39270    0.77110    1.000
    H764     H        0.95970    0.35340    0.76770    1.000
    C765     C        0.90190    0.42290    0.74920    1.000
    C766     C        0.94940    0.35990    0.71030    1.000
    C767     C        0.01450    0.37970    0.71200    1.000
    H768     H        0.02570    0.41680    0.72290    1.000
    C769     C        0.93150    0.30340    0.69530    1.000
    H770     H        0.88580    0.28860    0.69510    1.000
    C771     C        0.06730    0.34460    0.69750    1.000
    H772     H        0.11320    0.35870    0.69840    1.000
    C773     C        0.98170    0.26970    0.68100    1.000
    H774     H        0.96980    0.23270    0.67020    1.000
    C775     C        0.04940    0.28910    0.68220    1.000
    C776     C        0.10460    0.25170    0.66540    1.000
    O777     O        0.88360    0.56930    0.83534    1.000
    O778     O        0.92930    0.47760    0.85318    1.000
    O779     O        0.89460    0.39540    0.72210    1.000
    O780     O        0.16640    0.26960    0.66850    1.000
    O781     O        0.08320    0.20690    0.64931    1.000
    O782     O        0.97480    0.59940    0.88801    1.000
    H783     H        0.27678    0.87403    0.35115    1.000
    C784     C        0.90590    0.01160    0.33269    1.000
    C785     C        0.90330    0.98060    0.30280    1.000
    C786     C        0.86850    0.01100    0.28050    1.000
    H787     H        0.84680    0.05130    0.28360    1.000
    C788     C        0.93670    0.92030    0.29840    1.000
    H789     H        0.95890    0.89900    0.31370    1.000
    C790     C        0.86600    0.98210    0.25360    1.000
    H791     H        0.84090    0.00140    0.23870    1.000
    C792     C        0.93630    0.89270    0.27110    1.000
    H793     H        0.95970    0.85340    0.26770    1.000
    C794     C        0.90190    0.92290    0.24920    1.000
    C795     C        0.94940    0.85990    0.21030    1.000
    C796     C        0.01450    0.87970    0.21200    1.000
    H797     H        0.02570    0.91680    0.22290    1.000
    C798     C        0.93150    0.80340    0.19530    1.000
    H799     H        0.88580    0.78860    0.19510    1.000
    C800     C        0.06730    0.84460    0.19750    1.000
    H801     H        0.11320    0.85870    0.19840    1.000
    C802     C        0.98170    0.76970    0.18100    1.000
    H803     H        0.96980    0.73270    0.17020    1.000
    C804     C        0.04940    0.78910    0.18220    1.000
    C805     C        0.10460    0.75170    0.16540    1.000
    O806     O        0.88360    0.06930    0.33534    1.000
    O807     O        0.92930    0.97760    0.35318    1.000
    O808     O        0.89460    0.89540    0.22210    1.000
    O809     O        0.16640    0.76960    0.16850    1.000
    O810     O        0.08320    0.70690    0.14931    1.000
    O811     O        0.97480    0.09940    0.38801    1.000
    H812     H        0.27678    0.37403    0.85115    1.000
    C813     C        0.09410    0.98840    0.33269    1.000
    C814     C        0.09670    0.01940    0.30280    1.000
    C815     C        0.13150    0.98900    0.28050    1.000
    H816     H        0.15320    0.94870    0.28360    1.000
    C817     C        0.06330    0.07970    0.29840    1.000
    H818     H        0.04110    0.10100    0.31370    1.000
    C819     C        0.13400    0.01790    0.25360    1.000
    H820     H        0.15910    0.99860    0.23870    1.000
    C821     C        0.06370    0.10730    0.27110    1.000
    H822     H        0.04030    0.14660    0.26770    1.000
    C823     C        0.09810    0.07710    0.24920    1.000
    C824     C        0.05060    0.14010    0.21030    1.000
    C825     C        0.98550    0.12030    0.21200    1.000
    H826     H        0.97430    0.08320    0.22290    1.000
    C827     C        0.06850    0.19660    0.19530    1.000
    H828     H        0.11420    0.21140    0.19510    1.000
    C829     C        0.93270    0.15540    0.19750    1.000
    H830     H        0.88680    0.14130    0.19840    1.000
    C831     C        0.01830    0.23030    0.18100    1.000
    H832     H        0.03020    0.26730    0.17020    1.000
    C833     C        0.95060    0.21090    0.18220    1.000
    C834     C        0.89540    0.24830    0.16540    1.000
    O835     O        0.11640    0.93070    0.33534    1.000
    O836     O        0.07070    0.02240    0.35318    1.000
    O837     O        0.10540    0.10460    0.22210    1.000
    O838     O        0.83360    0.23040    0.16850    1.000
    O839     O        0.91680    0.29310    0.14931    1.000
    O840     O        0.02520    0.90060    0.38801    1.000
    H841     H        0.72322    0.62597    0.85115    1.000
    C842     C        0.09410    0.48840    0.83269    1.000
    C843     C        0.09670    0.51940    0.80280    1.000
    C844     C        0.13150    0.48900    0.78050    1.000
    H845     H        0.15320    0.44870    0.78360    1.000
    C846     C        0.06330    0.57970    0.79840    1.000
    H847     H        0.04110    0.60100    0.81370    1.000
    C848     C        0.13400    0.51790    0.75360    1.000
    H849     H        0.15910    0.49860    0.73870    1.000
    C850     C        0.06370    0.60730    0.77110    1.000
    H851     H        0.04030    0.64660    0.76770    1.000
    C852     C        0.09810    0.57710    0.74920    1.000
    C853     C        0.05060    0.64010    0.71030    1.000
    C854     C        0.98550    0.62030    0.71200    1.000
    H855     H        0.97430    0.58320    0.72290    1.000
    C856     C        0.06850    0.69660    0.69530    1.000
    H857     H        0.11420    0.71140    0.69510    1.000
    C858     C        0.93270    0.65540    0.69750    1.000
    H859     H        0.88680    0.64130    0.69840    1.000
    C860     C        0.01830    0.73030    0.68100    1.000
    H861     H        0.03020    0.76730    0.67020    1.000
    C862     C        0.95060    0.71090    0.68220    1.000
    C863     C        0.89540    0.74830    0.66540    1.000
    O864     O        0.11640    0.43070    0.83534    1.000
    O865     O        0.07070    0.52240    0.85318    1.000
    O866     O        0.10540    0.60460    0.72210    1.000
    O867     O        0.83360    0.73040    0.66850    1.000
    O868     O        0.91680    0.79310    0.64931    1.000
    O869     O        0.02520    0.40060    0.88801    1.000
    H870     H        0.72322    0.12597    0.35115    1.000
    C871     C        0.59410    0.98840    0.83269    1.000
    C872     C        0.59670    0.01940    0.80280    1.000
    C873     C        0.63150    0.98900    0.78050    1.000
    H874     H        0.65320    0.94870    0.78360    1.000
    C875     C        0.56330    0.07970    0.79840    1.000
    H876     H        0.54110    0.10100    0.81370    1.000
    C877     C        0.63400    0.01790    0.75360    1.000
    H878     H        0.65910    0.99860    0.73870    1.000
    C879     C        0.56370    0.10730    0.77110    1.000
    H880     H        0.54030    0.14660    0.76770    1.000
    C881     C        0.59810    0.07710    0.74920    1.000
    C882     C        0.55060    0.14010    0.71030    1.000
    C883     C        0.48550    0.12030    0.71200    1.000
    H884     H        0.47430    0.08320    0.72290    1.000
    C885     C        0.56850    0.19660    0.69530    1.000
    H886     H        0.61420    0.21140    0.69510    1.000
    C887     C        0.43270    0.15540    0.69750    1.000
    H888     H        0.38680    0.14130    0.69840    1.000
    C889     C        0.51830    0.23030    0.68100    1.000
    H890     H        0.53020    0.26730    0.67020    1.000
    C891     C        0.45060    0.21090    0.68220    1.000
    C892     C        0.39540    0.24830    0.66540    1.000
    O893     O        0.61640    0.93070    0.83534    1.000
    O894     O        0.57070    0.02240    0.85318    1.000
    O895     O        0.60540    0.10460    0.72210    1.000
    O896     O        0.33360    0.23040    0.66850    1.000
    O897     O        0.41680    0.29310    0.64931    1.000
    O898     O        0.52520    0.90060    0.88801    1.000
    H899     H        0.22322    0.62597    0.35115    1.000
    C900     C        0.59410    0.48840    0.33269    1.000
    C901     C        0.59670    0.51940    0.30280    1.000
    C902     C        0.63150    0.48900    0.28050    1.000
    H903     H        0.65320    0.44870    0.28360    1.000
    C904     C        0.56330    0.57970    0.29840    1.000
    H905     H        0.54110    0.60100    0.31370    1.000
    C906     C        0.63400    0.51790    0.25360    1.000
    H907     H        0.65910    0.49860    0.23870    1.000
    C908     C        0.56370    0.60730    0.27110    1.000
    H909     H        0.54030    0.64660    0.26770    1.000
    C910     C        0.59810    0.57710    0.24920    1.000
    C911     C        0.55060    0.64010    0.21030    1.000
    C912     C        0.48550    0.62030    0.21200    1.000
    H913     H        0.47430    0.58320    0.22290    1.000
    C914     C        0.56850    0.69660    0.19530    1.000
    H915     H        0.61420    0.71140    0.19510    1.000
    C916     C        0.43270    0.65540    0.19750    1.000
    H917     H        0.38680    0.64130    0.19840    1.000
    C918     C        0.51830    0.73030    0.18100    1.000
    H919     H        0.53020    0.76730    0.17020    1.000
    C920     C        0.45060    0.71090    0.18220    1.000
    C921     C        0.39540    0.74830    0.16540    1.000
    O922     O        0.61640    0.43070    0.33534    1.000
    O923     O        0.57070    0.52240    0.35318    1.000
    O924     O        0.60540    0.60460    0.22210    1.000
    O925     O        0.33360    0.73040    0.16850    1.000
    O926     O        0.41680    0.79310    0.14931    1.000
    O927     O        0.52520    0.40060    0.38801    1.000
    H928     H        0.22322    0.12597    0.85115    1.000
    In929    In       0.12500    0.62500    0.12500    1.000
    In930    In       0.12500    0.12500    0.62500    1.000
    In931    In       0.62500    0.62500    0.62500    1.000
    In932    In       0.62500    0.12500    0.12500    1.000
    In933    In       0.87500    0.37500    0.12500    1.000
    In934    In       0.87500    0.87500    0.62500    1.000
    In935    In       0.87500    0.62500    0.87500    1.000
    In936    In       0.87500    0.12500    0.37500    1.000
    In937    In       0.12500    0.37500    0.87500    1.000
    In938    In       0.62500    0.37500    0.37500    1.000
    In939    In       0.37500    0.87500    0.12500    1.000
    In940    In       0.37500    0.37500    0.62500    1.000
    In941    In       0.37500    0.62500    0.37500    1.000
    In942    In       0.37500    0.12500    0.87500    1.000
    In943    In       0.12500    0.87500    0.37500    1.000
    In944    In       0.62500    0.87500    0.87500    1.000
    In945    In       0.25000    0.75000    0.13843    1.000
    In946    In       0.25000    0.25000    0.63843    1.000
    In947    In       0.75000    0.25000    0.13843    1.000
    In948    In       0.75000    0.75000    0.63843    1.000
    In949    In       0.75000    0.75000    0.86157    1.000
    In950    In       0.75000    0.25000    0.36157    1.000
    In951    In       0.25000    0.25000    0.86157    1.000
    In952    In       0.25000    0.75000    0.36157    1.000
    In953    In       0.00000    0.50000    0.11157    1.000
    In954    In       0.00000    0.00000    0.61157    1.000
    In955    In       0.50000    0.00000    0.11157    1.000
    In956    In       0.50000    0.50000    0.61157    1.000
    In957    In       0.50000    0.50000    0.38843    1.000
    In958    In       0.50000    0.00000    0.88843    1.000
    In959    In       0.00000    0.00000    0.38843    1.000
    In960    In       0.00000    0.50000    0.88843    1.000
