# CIF file generated by openbabel 3.1.0, see https://openbabel.org
data_I
_chemical_name_common 'image0'
_cell_length_a 8.735
_cell_length_b 15.1704
_cell_length_c 13.0851
_cell_angle_alpha 90
_cell_angle_beta 101.223
_cell_angle_gamma 90
_space_group_name_H-M_alt 'P 1'
_space_group_name_Hall 'P 1'
loop_
    _symmetry_equiv_pos_as_xyz
    x,y,z
loop_
    _atom_site_label
    _atom_site_type_symbol
    _atom_site_fract_x
    _atom_site_fract_y
    _atom_site_fract_z
    _atom_site_occupancy
    P1       P        0.05972    0.09744    0.11929    1.000
    H1       H        0.20290    0.07870    0.20300    1.000
    O1       O        0.12230    0.10665    0.01898    1.000
    O2       O        0.94520    0.02280    0.11880    1.000
    O3       O        0.98750    0.18452    0.14460    1.000
    Be1      Be       0.05620    0.08240    0.89680    1.000
    O4       O        0.31930    0.37120    0.16310    1.000
    O5       O        0.38450    0.37390    0.36100    1.000
    O6       O        0.11630    0.32330    0.26590    1.000
    P2       P        0.27300    0.35670    0.26239    1.000
    H2       H        0.16450    0.44200    0.26090    1.000
    O7       O        0.18320    0.27740    0.27510    1.000
    P3       P        0.55972    0.59744    0.11929    1.000
    H3       H        0.70290    0.57870    0.20300    1.000
    O8       O        0.62230    0.60665    0.01898    1.000
    O9       O        0.44520    0.52280    0.11880    1.000
    O10      O        0.48750    0.68452    0.14460    1.000
    Be2      Be       0.55620    0.58240    0.89680    1.000
    O11      O        0.81930    0.87120    0.16310    1.000
    O12      O        0.88450    0.87390    0.36100    1.000
    O13      O        0.61630    0.82330    0.26590    1.000
    P4       P        0.77300    0.85670    0.26239    1.000
    H4       H        0.66450    0.94200    0.26090    1.000
    O14      O        0.68320    0.77740    0.27510    1.000
    P5       P        0.94028    0.09744    0.38071    1.000
    H5       H        0.79710    0.07870    0.29700    1.000
    O15      O        0.87770    0.10665    0.48102    1.000
    O16      O        0.05480    0.02280    0.38120    1.000
    O17      O        0.01250    0.18452    0.35540    1.000
    Be3      Be       0.94380    0.08240    0.60320    1.000
    O18      O        0.68070    0.37120    0.33690    1.000
    O19      O        0.61550    0.37390    0.13900    1.000
    O20      O        0.88370    0.32330    0.23410    1.000
    P6       P        0.72700    0.35670    0.23761    1.000
    H6       H        0.83550    0.44200    0.23910    1.000
    O21      O        0.81680    0.27740    0.22490    1.000
    P7       P        0.44028    0.59744    0.38071    1.000
    H7       H        0.29710    0.57870    0.29700    1.000
    O22      O        0.37770    0.60665    0.48102    1.000
    O23      O        0.55480    0.52280    0.38120    1.000
    O24      O        0.51250    0.68452    0.35540    1.000
    Be4      Be       0.44380    0.58240    0.60320    1.000
    O25      O        0.18070    0.87120    0.33690    1.000
    O26      O        0.11550    0.87390    0.13900    1.000
    O27      O        0.38370    0.82330    0.23410    1.000
    P8       P        0.22700    0.85670    0.23761    1.000
    H8       H        0.33550    0.94200    0.23910    1.000
    O28      O        0.31680    0.77740    0.22490    1.000
    P9       P        0.94028    0.90256    0.88071    1.000
    H9       H        0.79710    0.92130    0.79700    1.000
    O29      O        0.87770    0.89335    0.98102    1.000
    O30      O        0.05480    0.97720    0.88120    1.000
    O31      O        0.01250    0.81548    0.85540    1.000
    Be5      Be       0.94380    0.91760    0.10320    1.000
    O32      O        0.68070    0.62880    0.83690    1.000
    O33      O        0.61550    0.62610    0.63900    1.000
    O34      O        0.88370    0.67670    0.73410    1.000
    P10      P        0.72700    0.64330    0.73761    1.000
    H10      H        0.83550    0.55800    0.73910    1.000
    O35      O        0.81680    0.72260    0.72490    1.000
    P11      P        0.44028    0.40256    0.88071    1.000
    H11      H        0.29710    0.42130    0.79700    1.000
    O36      O        0.37770    0.39335    0.98102    1.000
    O37      O        0.55480    0.47720    0.88120    1.000
    O38      O        0.51250    0.31548    0.85540    1.000
    Be6      Be       0.44380    0.41760    0.10320    1.000
    O39      O        0.18070    0.12880    0.83690    1.000
    O40      O        0.11550    0.12610    0.63900    1.000
    O41      O        0.38370    0.17670    0.73410    1.000
    P12      P        0.22700    0.14330    0.73761    1.000
    H12      H        0.33550    0.05800    0.73910    1.000
    O42      O        0.31680    0.22260    0.72490    1.000
    P13      P        0.05972    0.90256    0.61929    1.000
    H13      H        0.20290    0.92130    0.70300    1.000
    O43      O        0.12230    0.89335    0.51898    1.000
    O44      O        0.94520    0.97720    0.61880    1.000
    O45      O        0.98750    0.81548    0.64460    1.000
    Be7      Be       0.05620    0.91760    0.39680    1.000
    O46      O        0.31930    0.62880    0.66310    1.000
    O47      O        0.38450    0.62610    0.86100    1.000
    O48      O        0.11630    0.67670    0.76590    1.000
    P14      P        0.27300    0.64330    0.76239    1.000
    H14      H        0.16450    0.55800    0.76090    1.000
    O49      O        0.18320    0.72260    0.77510    1.000
    P15      P        0.55972    0.40256    0.61929    1.000
    H15      H        0.70290    0.42130    0.70300    1.000
    O50      O        0.62230    0.39335    0.51898    1.000
    O51      O        0.44520    0.47720    0.61880    1.000
    O52      O        0.48750    0.31548    0.64460    1.000
    Be8      Be       0.55620    0.41760    0.39680    1.000
    O53      O        0.81930    0.12880    0.66310    1.000
    O54      O        0.88450    0.12610    0.86100    1.000
    O55      O        0.61630    0.17670    0.76590    1.000
    P16      P        0.77300    0.14330    0.76239    1.000
    H16      H        0.66450    0.05800    0.76090    1.000
    O56      O        0.68320    0.22260    0.77510    1.000
    Be9      Be       0.00000    0.24270    0.25000    1.000
    Be10     Be       0.50000    0.74270    0.25000    1.000
    Be11     Be       0.00000    0.75730    0.75000    1.000
    Be12     Be       0.50000    0.25730    0.75000    1.000
