data_functionalizedCrystal
_audit_creation_method	'EQeq! by Chris Wilmer'
_symmetry_space_group_name_H-M	'P1'
_symmetry_Int_Tables_number	1
_symmetry_cell_setting	triclinic
loop_
_symmetry_equiv_pos_as_xyz
  x,y,z
_cell_length_a	6.9997
_cell_length_b	16.0597
_cell_length_c	16.0597
_cell_angle_alpha	62.0735
_cell_angle_beta	81.6462
_cell_angle_gamma	98.3538
loop_
_atom_site_label
_atom_site_type_symbol
_atom_site_fract_x
_atom_site_fract_y
_atom_site_fract_z
_atom_site_charge
Mof_Gd	Gd	0.27787	0.91304	0.93372	1.636
Mof_Gd	Gd	0.21159	0.93372	0.15324	1.635
Mof_Gd	Gd	0.36483	0.15324	0.91304	1.72
Mof_Gd	Gd	0.72213	0.08696	0.06628	1.925
Mof_Gd	Gd	0.78841	0.06628	0.84676	1.839
Mof_Gd	Gd	0.63517	0.84676	0.08696	1.777
Mof_Cu	Cu	1.85708e-17	0.5	-0	0.886
Mof_Cu	Cu	-1.85708e-17	0	0.5	0.889
Mof_Cu	Cu	0.5	0.5	0.5	0.89
Mof_H 	H 	0.5658	0.4883	0.089	0.05
Mof_H 	H 	0.4174	0.5934	0.1197	-0.003
Mof_H 	H 	0.6548	0.089	0.4227	0.053
Mof_H 	H 	0.5371	0.1197	0.2869	-0.001
Mof_H 	H 	0.0775	0.4227	0.4883	0.058
Mof_H 	H 	0.824	0.2869	0.5934	-0.023
Mof_H 	H 	0.4342	0.5117	0.911	0.042
Mof_H 	H 	0.5826	0.4066	0.8803	-0.007
Mof_H 	H 	0.3452	0.911	0.5773	0.039
Mof_H 	H 	0.4629	0.8803	0.7131	-0.007
Mof_H 	H 	0.9225	0.5773	0.5117	0.032
Mof_H 	H 	0.176	0.7131	0.4066	0.016
Mof_C 	C 	0.9461	0.6616	0.0109	-0.107
Mof_C 	C 	0.6413	0.5485	0.0736	-0.044
Mof_C 	C 	0.1626	0.6799	0.9662	0.322
Mof_C 	C 	0.5533	0.6118	0.0916	0.092
Mof_C 	C 	0.8543	0.7278	0.027	0.28
Mof_C 	C 	0.957	0.0109	0.3275	-0.098
Mof_C 	C 	0.7149	0.0736	0.3779	-0.044
Mof_C 	C 	0.1288	0.9662	0.3539	0.31
Mof_C 	C 	0.6449	0.0916	0.2966	0.096
Mof_C 	C 	0.8813	0.027	0.2452	0.278
Mof_C 	C 	0.2845	0.3275	0.6616	-0.196
Mof_C 	C 	0.0928	0.3779	0.5485	-0.126
Mof_C 	C 	0.4827	0.3539	0.6799	0.405
Mof_C 	C 	0.9415	0.2966	0.6118	0.165
Mof_C 	C 	0.1265	0.2452	0.7278	0.273
Mof_C 	C 	0.0539	0.3384	0.9891	-0.294
Mof_C 	C 	0.3587	0.4515	0.9264	-0.066
Mof_C 	C 	0.8374	0.3201	0.0338	0.504
Mof_C 	C 	0.4467	0.3882	0.9084	0.086
Mof_C 	C 	0.1457	0.2722	0.973	0.325
Mof_C 	C 	0.043	0.9891	0.6725	-0.285
Mof_C 	C 	0.2851	0.9264	0.6221	-0.065
Mof_C 	C 	0.8712	0.0338	0.6461	0.492
Mof_C 	C 	0.3551	0.9084	0.7034	0.083
Mof_C 	C 	0.1187	0.973	0.7548	0.32
Mof_C 	C 	0.7155	0.6725	0.3384	-0.199
Mof_C 	C 	0.9072	0.6221	0.4515	0.021
Mof_C 	C 	0.5173	0.6461	0.3201	0.41
Mof_C 	C 	0.0585	0.7034	0.3882	0.009
Mof_C 	C 	0.8735	0.7548	0.2722	0.332
Mof_N 	N 	0.8367	0.5747	0.0338	-0.163
Mof_N 	N 	0.6568	0.6973	0.07	-0.25
Mof_N 	N 	0.8705	0.0338	0.3915	-0.164
Mof_N 	N 	0.7268	0.07	0.2327	-0.253
Mof_N 	N 	0.262	0.3915	0.5747	-0.159
Mof_N 	N 	0.9595	0.2327	0.6973	-0.251
Mof_N 	N 	0.1633	0.4253	0.9662	-0.167
Mof_N 	N 	0.3432	0.3027	0.93	-0.267
Mof_N 	N 	0.1295	0.9662	0.6085	-0.17
Mof_N 	N 	0.2732	0.93	0.7673	-0.263
Mof_N 	N 	0.738	0.6085	0.4253	-0.175
Mof_N 	N 	0.0405	0.7673	0.3027	-0.265
Mof_O 	O 	0.9429	0.8126	0.0062	-0.479
Mof_O 	O 	0.2792	0.7566	0.9445	-0.426
Mof_O 	O 	0.2153	0.6133	0.9548	-0.435
Mof_O 	O 	0.2919	0.822	0.0984	-0.61
Mof_O 	O 	0.9491	0.0062	0.1812	-0.472
Mof_O 	O 	0.2237	0.9445	0.2989	-0.431
Mof_O 	O 	0.1701	0.9548	0.4319	-0.437
Mof_O 	O 	0.3903	0.0984	0.0796	-0.597
Mof_O 	O 	0.1303	0.1812	0.8126	-0.535
Mof_O 	O 	0.5226	0.2989	0.7566	-0.433
Mof_O 	O 	0.602	0.4319	0.6133	-0.426
Mof_O 	O 	0.4699	0.0796	0.822	-0.608
Mof_O 	O 	0.0571	0.1874	0.9938	-0.59
Mof_O 	O 	0.7208	0.2434	0.0555	-0.453
Mof_O 	O 	0.7847	0.3867	0.0452	-0.426
Mof_O 	O 	0.7081	0.178	0.9016	-0.646
Mof_O 	O 	0.0509	0.9938	0.8188	-0.577
Mof_O 	O 	0.7763	0.0555	0.7011	-0.445
Mof_O 	O 	0.8299	0.0452	0.5681	-0.423
Mof_O 	O 	0.6097	0.9016	0.9204	-0.642
Mof_O 	O 	0.8697	0.8188	0.1874	-0.524
Mof_O 	O 	0.4774	0.7011	0.2434	-0.443
Mof_O 	O 	0.398	0.5681	0.3867	-0.435
Mof_O 	O 	0.5301	0.9204	0.178	-0.646
Mof_O 	O 	0.5	0	-0	-0.656
Mof_O 	O 	0.17533	0	-0	-0.679
Mof_O 	O 	0.82467	0	-0	-0.704
_end
