data_functionalizedCrystal
_audit_creation_method	'EQeq! by Chris Wilmer'
_symmetry_space_group_name_H-M	'P1'
_symmetry_Int_Tables_number	1
_symmetry_cell_setting	triclinic
loop_
_symmetry_equiv_pos_as_xyz
  x,y,z
_cell_length_a	18.9153
_cell_length_b	18.9153
_cell_length_c	18.9153
_cell_angle_alpha	90
_cell_angle_beta	90
_cell_angle_gamma	90
loop_
_atom_site_label
_atom_site_type_symbol
_atom_site_fract_x
_atom_site_fract_y
_atom_site_fract_z
_atom_site_charge
Mof_N 	N 	0.41677	0.36733	0.92018	-0.113
Mof_N 	N 	0.40639	0.32334	0.86722	-0.178
Mof_N 	N 	0.58323	0.63267	0.92018	-0.112
Mof_N 	N 	0.59361	0.67666	0.86722	-0.175
Mof_N 	N 	0.58323	0.36733	0.07982	-0.13
Mof_N 	N 	0.59361	0.32334	0.13278	-0.179
Mof_N 	N 	0.41677	0.63267	0.07982	-0.13
Mof_N 	N 	0.40639	0.67666	0.13278	-0.179
Mof_N 	N 	0.92018	0.41677	0.36733	-0.112
Mof_N 	N 	0.86722	0.40639	0.32334	-0.177
Mof_N 	N 	0.92018	0.58323	0.63267	-0.111
Mof_N 	N 	0.86722	0.59361	0.67666	-0.175
Mof_N 	N 	0.07982	0.58323	0.36733	-0.13
Mof_N 	N 	0.13278	0.59361	0.32334	-0.179
Mof_N 	N 	0.07982	0.41677	0.63267	-0.13
Mof_N 	N 	0.13278	0.40639	0.67666	-0.179
Mof_N 	N 	0.36733	0.92018	0.41677	-0.112
Mof_N 	N 	0.32334	0.86722	0.40639	-0.177
Mof_N 	N 	0.63267	0.92018	0.58323	-0.111
Mof_N 	N 	0.67666	0.86722	0.59361	-0.175
Mof_N 	N 	0.36733	0.07982	0.58323	-0.13
Mof_N 	N 	0.32334	0.13278	0.59361	-0.179
Mof_N 	N 	0.63267	0.07982	0.41677	-0.13
Mof_N 	N 	0.67666	0.13278	0.40639	-0.179
Mof_N 	N 	0.36733	0.41677	0.07982	-0.131
Mof_N 	N 	0.32334	0.40639	0.13278	-0.18
Mof_N 	N 	0.63267	0.58323	0.07982	-0.13
Mof_N 	N 	0.67666	0.59361	0.13278	-0.178
Mof_N 	N 	0.36733	0.58323	0.92018	-0.111
Mof_N 	N 	0.32334	0.59361	0.86722	-0.176
Mof_N 	N 	0.63267	0.41677	0.92018	-0.111
Mof_N 	N 	0.67666	0.40639	0.86722	-0.176
Mof_N 	N 	0.41677	0.92018	0.63267	-0.111
Mof_N 	N 	0.40639	0.86722	0.67666	-0.176
Mof_N 	N 	0.58323	0.92018	0.36733	-0.111
Mof_N 	N 	0.59361	0.86722	0.32334	-0.176
Mof_N 	N 	0.58323	0.07982	0.63267	-0.13
Mof_N 	N 	0.59361	0.13278	0.67666	-0.178
Mof_N 	N 	0.41677	0.07982	0.36733	-0.131
Mof_N 	N 	0.40639	0.13278	0.32334	-0.18
Mof_N 	N 	0.92018	0.36733	0.58323	-0.111
Mof_N 	N 	0.86722	0.32334	0.59361	-0.176
Mof_N 	N 	0.92018	0.63267	0.41677	-0.111
Mof_N 	N 	0.86722	0.67666	0.40639	-0.176
Mof_N 	N 	0.07982	0.36733	0.41677	-0.131
Mof_N 	N 	0.13278	0.32334	0.40639	-0.18
Mof_N 	N 	0.07982	0.63267	0.58323	-0.13
Mof_N 	N 	0.13278	0.67666	0.59361	-0.178
Mof_N 	N 	0.58323	0.63267	0.07982	-0.13
Mof_N 	N 	0.59361	0.67666	0.13278	-0.178
Mof_N 	N 	0.41677	0.36733	0.07982	-0.131
Mof_N 	N 	0.40639	0.32334	0.13278	-0.18
Mof_N 	N 	0.41677	0.63267	0.92018	-0.111
Mof_N 	N 	0.40639	0.67666	0.86722	-0.176
Mof_N 	N 	0.58323	0.36733	0.92018	-0.111
Mof_N 	N 	0.59361	0.32334	0.86722	-0.176
Mof_N 	N 	0.07982	0.58323	0.63267	-0.13
Mof_N 	N 	0.13278	0.59361	0.67666	-0.178
Mof_N 	N 	0.07982	0.41677	0.36733	-0.131
Mof_N 	N 	0.13278	0.40639	0.32334	-0.18
Mof_N 	N 	0.92018	0.41677	0.63267	-0.111
Mof_N 	N 	0.86722	0.40639	0.67666	-0.176
Mof_N 	N 	0.92018	0.58323	0.36733	-0.111
Mof_N 	N 	0.86722	0.59361	0.32334	-0.176
Mof_N 	N 	0.63267	0.07982	0.58323	-0.13
Mof_N 	N 	0.67666	0.13278	0.59361	-0.178
Mof_N 	N 	0.36733	0.07982	0.41677	-0.131
Mof_N 	N 	0.32334	0.13278	0.40639	-0.18
Mof_N 	N 	0.63267	0.92018	0.41677	-0.111
Mof_N 	N 	0.67666	0.86722	0.40639	-0.176
Mof_N 	N 	0.36733	0.92018	0.58323	-0.111
Mof_N 	N 	0.32334	0.86722	0.59361	-0.176
Mof_N 	N 	0.63267	0.58323	0.92018	-0.111
Mof_N 	N 	0.67666	0.59361	0.86722	-0.175
Mof_N 	N 	0.36733	0.41677	0.92018	-0.112
Mof_N 	N 	0.32334	0.40639	0.86722	-0.177
Mof_N 	N 	0.63267	0.41677	0.07982	-0.13
Mof_N 	N 	0.67666	0.40639	0.13278	-0.179
Mof_N 	N 	0.36733	0.58323	0.07982	-0.13
Mof_N 	N 	0.32334	0.59361	0.13278	-0.179
Mof_N 	N 	0.58323	0.07982	0.36733	-0.13
Mof_N 	N 	0.59361	0.13278	0.32334	-0.179
Mof_N 	N 	0.41677	0.07982	0.63267	-0.13
Mof_N 	N 	0.40639	0.13278	0.67666	-0.179
Mof_N 	N 	0.41677	0.92018	0.36733	-0.112
Mof_N 	N 	0.40639	0.86722	0.32334	-0.177
Mof_N 	N 	0.58323	0.92018	0.63267	-0.111
Mof_N 	N 	0.59361	0.86722	0.67666	-0.175
Mof_N 	N 	0.07982	0.63267	0.41677	-0.13
Mof_N 	N 	0.13278	0.67666	0.40639	-0.179
Mof_N 	N 	0.07982	0.36733	0.58323	-0.13
Mof_N 	N 	0.13278	0.32334	0.59361	-0.179
Mof_N 	N 	0.92018	0.63267	0.58323	-0.111
Mof_N 	N 	0.86722	0.67666	0.59361	-0.175
Mof_N 	N 	0.92018	0.36733	0.41677	-0.112
Mof_N 	N 	0.86722	0.32334	0.40639	-0.177
Mof_Cl	Cl	0.5	0.5	-0	-0.583
Mof_Cl	Cl	1.8747e-33	0.5	0.5	-0.583
Mof_Cl	Cl	0.5	0	0.5	-0.583
Mof_Mn	Mn	0.5	0.35958	-0	0.551
Mof_Mn	Mn	0.5	0.64042	-0	0.555
Mof_Mn	Mn	1.34821e-33	0.5	0.35958	0.551
Mof_Mn	Mn	2.40119e-33	0.5	0.64042	0.555
Mof_Mn	Mn	0.35958	0	0.5	0.551
Mof_Mn	Mn	0.64042	0	0.5	0.555
Mof_Mn	Mn	0.35958	0.5	-0	0.551
Mof_Mn	Mn	0.64042	0.5	-0	0.555
Mof_Mn	Mn	0.5	0	0.64042	0.555
Mof_Mn	Mn	0.5	0	0.35958	0.551
Mof_Mn	Mn	-1.85532e-33	0.35958	0.5	0.551
Mof_Mn	Mn	1.8747e-33	0.64042	0.5	0.555
Mof_C 	C 	0.3488	0.3488	0.8344	0.122
Mof_C 	C 	0.3169	0.3169	0.7721	-0.108
Mof_C 	C 	0.6512	0.6512	0.8344	0.127
Mof_C 	C 	0.6831	0.6831	0.7721	-0.106
Mof_C 	C 	0.6512	0.3488	0.1656	0.118
Mof_C 	C 	0.6831	0.3169	0.2279	-0.108
Mof_C 	C 	0.3488	0.6512	0.1656	0.118
Mof_C 	C 	0.3169	0.6831	0.2279	-0.108
Mof_C 	C 	0.8344	0.3488	0.3488	0.122
Mof_C 	C 	0.7721	0.3169	0.3169	-0.108
Mof_C 	C 	0.8344	0.6512	0.6512	0.127
Mof_C 	C 	0.7721	0.6831	0.6831	-0.106
Mof_C 	C 	0.1656	0.6512	0.3488	0.118
Mof_C 	C 	0.2279	0.6831	0.3169	-0.108
Mof_C 	C 	0.1656	0.3488	0.6512	0.118
Mof_C 	C 	0.2279	0.3169	0.6831	-0.108
Mof_C 	C 	0.3488	0.8344	0.3488	0.122
Mof_C 	C 	0.3169	0.7721	0.3169	-0.108
Mof_C 	C 	0.6512	0.8344	0.6512	0.127
Mof_C 	C 	0.6831	0.7721	0.6831	-0.106
Mof_C 	C 	0.3488	0.1656	0.6512	0.118
Mof_C 	C 	0.3169	0.2279	0.6831	-0.108
Mof_C 	C 	0.6512	0.1656	0.3488	0.118
Mof_C 	C 	0.6831	0.2279	0.3169	-0.108
Mof_C 	C 	0.3488	0.3488	0.1656	0.115
Mof_C 	C 	0.3169	0.3169	0.2279	-0.109
Mof_C 	C 	0.6512	0.6512	0.1656	0.12
Mof_C 	C 	0.6831	0.6831	0.2279	-0.108
Mof_C 	C 	0.3488	0.6512	0.8344	0.125
Mof_C 	C 	0.3169	0.6831	0.7721	-0.107
Mof_C 	C 	0.6512	0.3488	0.8344	0.125
Mof_C 	C 	0.6831	0.3169	0.7721	-0.107
Mof_C 	C 	0.3488	0.8344	0.6512	0.125
Mof_C 	C 	0.3169	0.7721	0.6831	-0.107
Mof_C 	C 	0.6512	0.8344	0.3488	0.125
Mof_C 	C 	0.6831	0.7721	0.3169	-0.107
Mof_C 	C 	0.6512	0.1656	0.6512	0.12
Mof_C 	C 	0.6831	0.2279	0.6831	-0.108
Mof_C 	C 	0.3488	0.1656	0.3488	0.115
Mof_C 	C 	0.3169	0.2279	0.3169	-0.109
Mof_C 	C 	0.8344	0.3488	0.6512	0.125
Mof_C 	C 	0.7721	0.3169	0.6831	-0.107
Mof_C 	C 	0.8344	0.6512	0.3488	0.125
Mof_C 	C 	0.7721	0.6831	0.3169	-0.107
Mof_C 	C 	0.1656	0.3488	0.3488	0.115
Mof_C 	C 	0.2279	0.3169	0.3169	-0.109
Mof_C 	C 	0.1656	0.6512	0.6512	0.12
Mof_C 	C 	0.2279	0.6831	0.6831	-0.108
Mof_C 	C 	0.3468	0.2576	0.7424	0.023
Mof_H 	H 	0.3871	0.2377	0.7623	-0.041
Mof_C 	C 	0.6532	0.7424	0.7424	0.03
Mof_H 	H 	0.6129	0.7623	0.7623	-0.039
Mof_C 	C 	0.6532	0.2576	0.2576	0.022
Mof_H 	H 	0.6129	0.2377	0.2377	-0.041
Mof_C 	C 	0.3468	0.7424	0.2576	0.023
Mof_H 	H 	0.3871	0.7623	0.2377	-0.041
Mof_C 	C 	0.7424	0.3468	0.2576	0.023
Mof_H 	H 	0.7623	0.3871	0.2377	-0.041
Mof_C 	C 	0.7424	0.6532	0.7424	0.03
Mof_H 	H 	0.7623	0.6129	0.7623	-0.039
Mof_C 	C 	0.2576	0.6532	0.2576	0.022
Mof_H 	H 	0.2377	0.6129	0.2377	-0.041
Mof_C 	C 	0.2576	0.3468	0.7424	0.023
Mof_H 	H 	0.2377	0.3871	0.7623	-0.041
Mof_C 	C 	0.2576	0.7424	0.3468	0.023
Mof_H 	H 	0.2377	0.7623	0.3871	-0.041
Mof_C 	C 	0.7424	0.7424	0.6532	0.03
Mof_H 	H 	0.7623	0.7623	0.6129	-0.039
Mof_C 	C 	0.2576	0.2576	0.6532	0.022
Mof_H 	H 	0.2377	0.2377	0.6129	-0.041
Mof_C 	C 	0.7424	0.2576	0.3468	0.023
Mof_H 	H 	0.7623	0.2377	0.3871	-0.041
Mof_C 	C 	0.2576	0.3468	0.2576	0.019
Mof_H 	H 	0.2377	0.3871	0.2377	-0.041
Mof_C 	C 	0.7424	0.6532	0.2576	0.026
Mof_H 	H 	0.7623	0.6129	0.2377	-0.04
Mof_C 	C 	0.2576	0.6532	0.7424	0.026
Mof_H 	H 	0.2377	0.6129	0.7623	-0.04
Mof_C 	C 	0.7424	0.3468	0.7424	0.027
Mof_H 	H 	0.7623	0.3871	0.7623	-0.04
Mof_C 	C 	0.3468	0.7424	0.7424	0.027
Mof_H 	H 	0.3871	0.7623	0.7623	-0.04
Mof_C 	C 	0.6532	0.7424	0.2576	0.026
Mof_H 	H 	0.6129	0.7623	0.2377	-0.04
Mof_C 	C 	0.6532	0.2576	0.7424	0.026
Mof_H 	H 	0.6129	0.2377	0.7623	-0.04
Mof_C 	C 	0.3468	0.2576	0.2576	0.019
Mof_H 	H 	0.3871	0.2377	0.2377	-0.041
Mof_C 	C 	0.7424	0.2576	0.6532	0.026
Mof_H 	H 	0.7623	0.2377	0.6129	-0.04
Mof_C 	C 	0.7424	0.7424	0.3468	0.027
Mof_H 	H 	0.7623	0.7623	0.3871	-0.04
Mof_C 	C 	0.2576	0.2576	0.3468	0.019
Mof_H 	H 	0.2377	0.2377	0.3871	-0.041
Mof_C 	C 	0.2576	0.7424	0.6532	0.026
Mof_H 	H 	0.2377	0.7623	0.6129	-0.04
Mof_Mn	Mn	0.5	0.2584	0.8574	0.406
Mof_Mn	Mn	0.5	0.7416	0.8574	0.42
Mof_Mn	Mn	0.5	0.2584	0.1426	0.371
Mof_Mn	Mn	0.5	0.7416	0.1426	0.384
Mof_Mn	Mn	0.8574	0.5	0.2584	0.406
Mof_Mn	Mn	0.8574	0.5	0.7416	0.42
Mof_Mn	Mn	0.1426	0.5	0.2584	0.371
Mof_Mn	Mn	0.1426	0.5	0.7416	0.384
Mof_Mn	Mn	0.2584	0.8574	0.5	0.406
Mof_Mn	Mn	0.7416	0.8574	0.5	0.42
Mof_Mn	Mn	0.2584	0.1426	0.5	0.371
Mof_Mn	Mn	0.7416	0.1426	0.5	0.384
Mof_Mn	Mn	0.2584	0.5	0.1426	0.371
Mof_Mn	Mn	0.7416	0.5	0.1426	0.384
Mof_Mn	Mn	0.2584	0.5	0.8574	0.406
Mof_Mn	Mn	0.7416	0.5	0.8574	0.42
Mof_Mn	Mn	0.5	0.8574	0.7416	0.42
Mof_Mn	Mn	0.5	0.8574	0.2584	0.406
Mof_Mn	Mn	0.5	0.1426	0.7416	0.384
Mof_Mn	Mn	0.5	0.1426	0.2584	0.371
Mof_Mn	Mn	0.8574	0.2584	0.5	0.406
Mof_Mn	Mn	0.8574	0.7416	0.5	0.42
Mof_Mn	Mn	0.1426	0.2584	0.5	0.371
Mof_Mn	Mn	0.1426	0.7416	0.5	0.384
_end
