data_functionalizedCrystal
_audit_creation_method	'EQeq! by Chris Wilmer'
_symmetry_space_group_name_H-M	'P1'
_symmetry_Int_Tables_number	1
_symmetry_cell_setting	triclinic
loop_
_symmetry_equiv_pos_as_xyz
  x,y,z
_cell_length_a	8.7627
_cell_length_b	13.8117
_cell_length_c	16.6187
_cell_angle_alpha	90
_cell_angle_beta	92.68
_cell_angle_gamma	90
loop_
_atom_site_label
_atom_site_type_symbol
_atom_site_fract_x
_atom_site_fract_y
_atom_site_fract_z
_atom_site_charge
Mof_Zn	Zn	0.43729	0.3991	0.07522	1.23
Mof_Zn	Zn	0.54837	0.10993	0.07748	1.229
Mof_Zn	Zn	0.52121	0.24936	0.74927	1.234
Mof_P 	P 	0.515	0.38328	0.89473	0.428
Mof_H 	H 	0.6114	0.3146	0.9189	-0.069
Mof_P 	P 	0.5098	0.10673	0.88955	0.427
Mof_H 	H 	0.4016	0.1704	0.903	-0.062
Mof_P 	P 	0.7552	0.28658	0.12036	0.449
Mof_H 	H 	0.8271	0.2698	0.0537	-0.052
Mof_P 	P 	0.2348	0.22513	0.11389	0.432
Mof_H 	H 	0.1208	0.2414	0.0609	-0.045
Mof_O 	O 	0.4019	0.3963	0.9601	-0.462
Mof_O 	O 	0.432	0.3479	0.8178	-0.403
Mof_O 	O 	0.6087	0.4739	0.8793	-0.419
Mof_O 	O 	0.6033	0.1472	0.8216	-0.4
Mof_O 	O 	0.6075	0.0973	0.9667	-0.458
Mof_O 	O 	0.4305	0.0121	0.8643	-0.415
Mof_O 	O 	0.6821	0.1918	0.1437	-0.458
Mof_O 	O 	0.6468	0.3706	0.1022	-0.445
Mof_O 	O 	0.8755	0.3204	0.1831	-0.419
Mof_O 	O 	0.2998	0.3232	0.1371	-0.457
Mof_O 	O 	0.1644	0.1775	0.1872	-0.414
Mof_O 	O 	0.3428	0.1558	0.0738	-0.46
Mof_Zn	Zn	0.06271	0.8991	0.42478	1.232
Mof_Zn	Zn	0.95163	0.60993	0.42252	1.231
Mof_Zn	Zn	0.97879	0.74936	0.75073	1.234
Mof_P 	P 	0.985	0.88328	0.60527	0.427
Mof_H 	H 	0.8886	0.8146	0.5811	-0.068
Mof_P 	P 	0.9902	0.60673	0.61045	0.427
Mof_H 	H 	0.0984	0.6704	0.597	-0.061
Mof_P 	P 	0.7448	0.78658	0.37964	0.45
Mof_H 	H 	0.6729	0.7698	0.4463	-0.051
Mof_P 	P 	0.2652	0.72513	0.38611	0.433
Mof_H 	H 	0.3792	0.7414	0.4391	-0.043
Mof_O 	O 	0.0981	0.8963	0.5399	-0.462
Mof_O 	O 	0.068	0.8479	0.6822	-0.402
Mof_O 	O 	0.8913	0.9739	0.6207	-0.42
Mof_O 	O 	0.8967	0.6472	0.6784	-0.4
Mof_O 	O 	0.8925	0.5973	0.5333	-0.459
Mof_O 	O 	0.0695	0.5121	0.6357	-0.415
Mof_O 	O 	0.8179	0.6918	0.3563	-0.457
Mof_O 	O 	0.8532	0.8706	0.3978	-0.445
Mof_O 	O 	0.6245	0.8204	0.3169	-0.42
Mof_O 	O 	0.2002	0.8232	0.3629	-0.456
Mof_O 	O 	0.3356	0.6775	0.3128	-0.413
Mof_O 	O 	0.1572	0.6558	0.4262	-0.458
Mof_Zn	Zn	0.56271	0.6009	0.92478	1.231
Mof_Zn	Zn	0.45163	0.89007	0.92252	1.23
Mof_Zn	Zn	0.47879	0.75064	0.25073	1.235
Mof_P 	P 	0.485	0.61672	0.10527	0.429
Mof_H 	H 	0.3886	0.6854	0.0811	-0.068
Mof_P 	P 	0.4902	0.89327	0.11045	0.428
Mof_H 	H 	0.5984	0.8296	0.097	-0.061
Mof_P 	P 	0.2448	0.71342	0.87964	0.45
Mof_H 	H 	0.1729	0.7302	0.9463	-0.051
Mof_P 	P 	0.7652	0.77487	0.88611	0.433
Mof_H 	H 	0.8792	0.7586	0.9391	-0.045
Mof_O 	O 	0.5981	0.6037	0.0399	-0.462
Mof_O 	O 	0.568	0.6521	0.1822	-0.403
Mof_O 	O 	0.3913	0.5261	0.1207	-0.419
Mof_O 	O 	0.3967	0.8528	0.1784	-0.4
Mof_O 	O 	0.3925	0.9027	0.0333	-0.458
Mof_O 	O 	0.5695	0.9879	0.1357	-0.415
Mof_O 	O 	0.3179	0.8082	0.8563	-0.458
Mof_O 	O 	0.3532	0.6294	0.8978	-0.445
Mof_O 	O 	0.1245	0.6796	0.8169	-0.419
Mof_O 	O 	0.7002	0.6768	0.8629	-0.457
Mof_O 	O 	0.8356	0.8225	0.8128	-0.414
Mof_O 	O 	0.6572	0.8442	0.9262	-0.46
Mof_Zn	Zn	0.93729	0.1009	0.57522	1.232
Mof_Zn	Zn	0.04837	0.39007	0.57748	1.231
Mof_Zn	Zn	0.02121	0.25064	0.24927	1.234
Mof_P 	P 	0.015	0.11672	0.39473	0.427
Mof_H 	H 	0.1114	0.1854	0.4189	-0.068
Mof_P 	P 	0.0098	0.39327	0.38955	0.427
Mof_H 	H 	0.9016	0.3296	0.403	-0.061
Mof_P 	P 	0.2552	0.21342	0.62036	0.45
Mof_H 	H 	0.3271	0.2302	0.5537	-0.051
Mof_P 	P 	0.7348	0.27487	0.61389	0.433
Mof_H 	H 	0.6208	0.2586	0.5609	-0.043
Mof_O 	O 	0.9019	0.1037	0.4601	-0.462
Mof_O 	O 	0.932	0.1521	0.3178	-0.402
Mof_O 	O 	0.1087	0.0261	0.3793	-0.42
Mof_O 	O 	0.1033	0.3528	0.3216	-0.4
Mof_O 	O 	0.1075	0.4027	0.4667	-0.459
Mof_O 	O 	0.9305	0.4879	0.3643	-0.415
Mof_O 	O 	0.1821	0.3082	0.6437	-0.457
Mof_O 	O 	0.1468	0.1294	0.6022	-0.445
Mof_O 	O 	0.3755	0.1796	0.6831	-0.42
Mof_O 	O 	0.7998	0.1768	0.6371	-0.456
Mof_O 	O 	0.6644	0.3225	0.6872	-0.413
Mof_O 	O 	0.8428	0.3442	0.5738	-0.458
_end
