data_functionalizedCrystal
_audit_creation_method	'EQeq! by Chris Wilmer'
_symmetry_space_group_name_H-M	'P1'
_symmetry_Int_Tables_number	1
_symmetry_cell_setting	triclinic
loop_
_symmetry_equiv_pos_as_xyz
  x,y,z
_cell_length_a	35.1105
_cell_length_b	14.808
_cell_length_c	31.4241
_cell_angle_alpha	90
_cell_angle_beta	102.544
_cell_angle_gamma	90
loop_
_atom_site_label
_atom_site_type_symbol
_atom_site_fract_x
_atom_site_fract_y
_atom_site_fract_z
_atom_site_charge
Mof_O 	O 	0.6101	0.3502	0.6293	-0.25
Mof_C 	C 	0.6467	0.309	0.634	0.213
Mof_H 	H 	0.6554	0.3109	0.6061	-0.026
Mof_H 	H 	0.6453	0.245	0.6427	0.002
Mof_C 	C 	0.6746	0.36	0.6684	-0.369
Mof_C 	C 	0.651	0.4365	0.6827	-0.167
Mof_H 	H 	0.641	0.415	0.7084	0.162
Mof_C 	C 	0.6728	0.527	0.6953	0.151
Mof_H 	H 	0.6977	0.5174	0.7167	0.002
Mof_H 	H 	0.6565	0.57	0.7077	0.045
Mof_C 	C 	0.6811	0.5666	0.6466	0.064
Mof_C 	C 	0.6545	0.549	0.6096	0.072
Mof_H 	H 	0.6584	0.5773	0.5839	0.024
Mof_C 	C 	0.6246	0.497	0.6053	-0.302
Mof_H 	H 	0.6075	0.4921	0.5775	0.138
Mof_C 	C 	0.6158	0.444	0.6432	0.683
Mof_O 	O 	0.7076	0.621	0.6527	-0.202
Mof_C 	C 	0.5809	0.483	0.655	-0.276
Mof_S 	S 	0.5441	0.4126	0.6621	0.18
Mof_C 	C 	0.5162	0.495	0.6712	1.368
Mof_H 	H 	0.4902	0.4868	0.6748	-0.399
Mof_C 	C 	0.537	0.587	0.6734	-2.852
Mof_H 	H 	0.5277	0.6433	0.6814	0.817
Mof_C 	C 	0.5723	0.57	0.6611	4.679
Mof_H 	H 	0.5894	0.6177	0.6573	-1.508
Mof_C 	C 	0.711	0.341	0.6814	0.904
Mof_H 	H 	0.7257	0.3823	0.7016	-0.089
Mof_C 	C 	0.7331	0.264	0.6694	-0.922
Mof_O 	O 	0.7159	0.2035	0.6453	0.095
Mof_O 	O 	0.7703	0.267	0.6788	9.503
Mof_C 	C 	0.796	0.205	0.669	-9.323
Mof_H 	H 	0.8203	0.204	0.6926	3.572
Mof_H 	H 	0.8041	0.2226	0.6416	2.556
Mof_C 	C 	0.779	0.113	0.664	8.528
Mof_H 	H 	0.7977	0.07	0.6569	-2.506
Mof_H 	H 	0.7716	0.0954	0.6911	-1.94
Mof_H 	H 	0.7554	0.1139	0.6402	-2.498
Mof_O 	O 	0.2474	0.492	0.2017	-0.447
Mof_C 	C 	0.2285	0.411	0.198	0.554
Mof_H 	H 	0.2177	0.3991	0.2237	-0.53
Mof_H 	H 	0.2468	0.3615	0.1948	-0.13
Mof_C 	C 	0.1957	0.415	0.157	-0.077
Mof_C 	C 	0.1987	0.517	0.152	0.031
Mof_H 	H 	0.2149	0.5232	0.1293	0.042
Mof_C 	C 	0.1599	0.567	0.13	-0.302
Mof_H 	H 	0.166	0.6165	0.1111	0.173
Mof_H 	H 	0.1423	0.5241	0.111	0.224
Mof_C 	C 	0.14	0.604	0.161	0.2
Mof_C 	C 	0.1637	0.599	0.205	0.328
Mof_H 	H 	0.1492	0.6171	0.226	-0.054
Mof_C 	C 	0.1959	0.577	0.223	-0.416
Mof_H 	H 	0.2062	0.5697	0.2528	0.198
Mof_C 	C 	0.2181	0.564	0.184	0.007
Mof_O 	O 	0.1033	0.61	0.155	-0.255
Mof_C 	C 	0.2411	0.645	0.18	-0.031
Mof_S 	S 	0.2881	0.638	0.1729	-0.133
Mof_C 	C 	0.2906	0.748	0.1646	0.649
Mof_H 	H 	0.3115	0.7778	0.1557	-0.185
Mof_C 	C 	0.2573	0.79	0.1727	-0.393
Mof_H 	H 	0.2546	0.8542	0.1719	0.223
Mof_C 	C 	0.2279	0.734	0.182	0.091
Mof_H 	H 	0.2038	0.7525	0.1884	-0.013
Mof_C 	C 	0.17	0.345	0.152	-0.252
Mof_H 	H 	0.1451	0.3502	0.1591	0.134
Mof_C 	C 	0.1827	0.267	0.1355	0.492
Mof_O 	O 	0.1595	0.206	0.114	-0.356
Mof_O 	O 	0.2047	0.233	0.1731	-0.901
Mof_C 	C 	0.216	0.142	0.166	0.385
Mof_H 	H 	0.1921	0.1074	0.1686	-0.106
Mof_H 	H 	0.2161	0.1412	0.1349	-0.046
Mof_C 	C 	0.2414	0.09	0.181	-0.03
Mof_H 	H 	0.2367	0.0323	0.1657	-0.681
Mof_H 	H 	0.2664	0.1149	0.178	0.044
Mof_H 	H 	0.242	0.0804	0.2122	-0.009
Mof_C 	C 	0.0232	0.476	0.155	-0.106
Mof_H 	H 	0.036	0.5183	0.1387	0.092
Mof_H 	H 	0.0063	0.5098	0.1711	0.052
Mof_C 	C 	0.0531	0.419	0.1866	-0.01
Mof_H 	H 	0.0392	0.377	0.2023	0.028
Mof_H 	H 	0.0691	0.4598	0.2084	0.025
Mof_C 	C 	0.0803	0.365	0.164	-0.221
Mof_H 	H 	0.0953	0.4072	0.1495	0.146
Mof_H 	H 	0.0991	0.3309	0.1863	0.073
Mof_C 	C 	0.0581	0.299	0.13	0.011
Mof_H 	H 	0.0469	0.2502	0.1451	0.039
Mof_H 	H 	0.076	0.2725	0.1135	-0.027
Mof_C 	C 	0.0254	0.352	0.0998	-0.123
Mof_H 	H 	0.037	0.3951	0.0824	0.038
Mof_H 	H 	0.0091	0.3088	0.0795	0.077
Mof_C 	C 	0.9996	0.403	0.125	-0.062
Mof_H 	H 	0.9882	0.3596	0.143	0.051
Mof_H 	H 	0.9779	0.4321	0.1044	0.051
Mof_O 	O 	0.9338	0.665	0.9587	-0.457
Mof_C 	C 	0.9237	0.573	0.959	0.655
Mof_H 	H 	0.9211	0.5458	0.93	-0.486
Mof_H 	H 	0.8989	0.5654	0.9689	-0.119
Mof_C 	C 	0.9571	0.534	0.9911	-1.089
Mof_C 	C 	0.9869	0.602	0.0076	0.241
Mof_H 	H 	0.9805	0.6285	0.0345	0.064
Mof_C 	C 	0.0281	0.581	0.0178	-0.362
Mof_H 	H 	0.0323	0.528	0.0372	0.367
Mof_H 	H 	0.0423	0.6328	0.0341	0.448
Mof_C 	C 	0.0455	0.562	0.9782	1.066
Mof_C 	C 	0.0281	0.601	0.9405	-0.959
Mof_H 	H 	0.0378	0.589	0.9152	0.362
Mof_C 	C 	0.9969	0.658	0.9371	0.405
Mof_H 	H 	0.9891	0.6889	0.91	-0.108
Mof_C 	C 	0.9745	0.677	0.9691	-0.437
Mof_O 	O 	0.0729	0.507	0.9767	-0.419
Mof_C 	C 	0.9844	0.772	0.987	0.156
Mof_S 	S 	0.9588	0.8219	0.0214	-0.084
Mof_C 	C 	0.985	0.922	0.0219	0.035
Mof_H 	H 	0.9832	0.9698	0.0415	0.042
Mof_C 	C 	0.008	0.926	0.9909	-0.021
Mof_H 	H 	0.0213	0.9784	0.9836	0.033
Mof_C 	C 	0.0086	0.836	0.9719	-0.137
Mof_H 	H 	0.0239	0.8208	0.9513	0.122
Mof_C 	C 	0.9583	0.446	0.004	0.505
Mof_H 	H 	0.98	0.4274	0.0256	-0.145
Mof_C 	C 	0.9295	0.379	0.9868	-0.231
Mof_O 	O 	0.8972	0.393	0.9609	-0.109
Mof_O 	O 	0.9404	0.29	0.003	0.828
Mof_C 	C 	0.915	0.222	0.988	-0.82
Mof_H 	H 	0.9043	0.2398	0.9579	0.452
Mof_H 	H 	0.8939	0.2333	0.0039	0.256
Mof_C 	C 	0.915	0.119	0.985	0.446
Mof_H 	H 	0.8891	0.0975	0.9718	-0.127
Mof_H 	H 	0.9338	0.0998	0.9679	-0.088
Mof_H 	H 	0.9232	0.0932	0.0148	-0.137
Mof_C 	C 	0.9442	0.156	0.982	-0.042
Mof_H 	H 	0.9665	0.1187	0.9776	0.036
Mof_H 	H 	0.9377	0.1393	0.0097	0.043
Mof_C 	C 	0.954	0.258	0.981	0.247
Mof_H 	H 	0.9527	0.2855	0.0093	-0.687
Mof_H 	H 	0.9815	0.2649	0.9773	-0.017
Mof_C 	C 	0.9262	0.305	0.944	-0.376
Mof_H 	H 	0.9277	0.2774	0.9157	0.144
Mof_H 	H 	0.9334	0.3698	0.943	0.177
Mof_C 	C 	0.8844	0.297	0.951	-0.219
Mof_H 	H 	0.866	0.3304	0.9279	0.118
Mof_H 	H 	0.8828	0.3235	0.9796	0.123
Mof_C 	C 	0.8734	0.195	0.95	-0.229
Mof_H 	H 	0.8658	0.178	0.9771	0.078
Mof_H 	H 	0.8512	0.1836	0.925	0.184
Mof_C 	C 	0.9091	0.141	0.944	-0.183
Mof_H 	H 	0.9024	0.0757	0.9424	0.054
Mof_H 	H 	0.9162	0.1581	0.9164	0.083
Mof_C 	C 	0.801	0.177	0.708	0.129
Mof_H 	H 	0.8162	0.1987	0.6872	-0.859
Mof_H 	H 	0.7854	0.1239	0.6952	-0.848
Mof_C 	C 	0.829	0.148	0.751	-0.373
Mof_H 	H 	0.836	0.0831	0.749	0.146
Mof_H 	H 	0.8536	0.1832	0.7547	-0.022
Mof_C 	C 	0.811	0.162	0.791	-0.318
Mof_H 	H 	0.8283	0.1349	0.8168	0.176
Mof_H 	H 	0.7855	0.1317	0.7859	0.129
Mof_C 	C 	0.806	0.264	0.799	0.961
Mof_H 	H 	0.7851	0.2729	0.8145	0.213
Mof_H 	H 	0.8306	0.2886	0.8164	-0.229
Mof_C 	C 	0.796	0.312	0.754	-1.85
Mof_H 	H 	0.7798	0.366	0.7569	0.957
Mof_H 	H 	0.8203	0.3337	0.7466	0.501
Mof_C 	C 	0.774	0.251	0.718	2.628
Mof_H 	H 	0.751	0.2241	0.7267	-0.541
Mof_H 	H 	0.7643	0.2875	0.6911	-7.522
Mof_C 	C 	0.549	0.349	0.649	-1.125
Mof_H 	H 	0.5377	0.3369	0.6753	0.278
Mof_H 	H 	0.5581	0.2905	0.6401	0.39
Mof_C 	C 	0.517	0.387	0.612	0.377
Mof_H 	H 	0.527	0.3961	0.5859	-0.065
Mof_C 	C 	0.502	0.477	0.627	-0.229
Mof_H 	H 	0.4914	0.4675	0.6535	-0.103
Mof_H 	H 	0.4815	0.5024	0.604	0.119
Mof_C 	C 	0.537	0.543	0.638	-1.217
Mof_H 	H 	0.5477	0.5529	0.6117	0.094
Mof_H 	H 	0.5279	0.6024	0.6467	1.159
Mof_C 	C 	0.569	0.506	0.675	-2.393
Mof_H 	H 	0.591	0.5486	0.6816	-0.811
Mof_H 	H 	0.5585	0.4984	0.7016	0.813
Mof_C 	C 	0.583	0.414	0.662	1.629
Mof_H 	H 	0.6029	0.3889	0.6867	-0.453
Mof_H 	H 	0.596	0.4221	0.637	-0.691
Mof_C 	C 	0.763	0.552	0.778	0.478
Mof_H 	H 	0.7698	0.5703	0.809	-0.02
Mof_H 	H 	0.7745	0.4924	0.775	-0.011
Mof_C 	C 	0.777	0.623	0.749	-0.379
Mof_H 	H 	0.8038	0.6073	0.746	0.115
Mof_H 	H 	0.7777	0.6833	0.7625	0.155
Mof_C 	C 	0.748	0.622	0.704	0.075
Mof_H 	H 	0.7248	0.657	0.7053	0.036
Mof_H 	H 	0.761	0.6489	0.6818	0.028
Mof_C 	C 	0.737	0.522	0.692	-0.23
Mof_H 	H 	0.7251	0.5175	0.6603	0.109
Mof_H 	H 	0.7607	0.4833	0.6982	0.111
Mof_C 	C 	0.708	0.494	0.719	0.124
Mof_H 	H 	0.6809	0.5071	0.7037	-0.109
Mof_H 	H 	0.71	0.4278	0.7253	0.023
Mof_C 	C 	0.718	0.546	0.763	-0.299
Mof_H 	H 	0.7063	0.515	0.7849	0.179
Mof_H 	H 	0.7063	0.6077	0.7584	0.121
Mof_C 	C 	0.146	0.527	0.161	0.218
Mof_H 	H 	0.1469	0.5706	0.1852	-0.213
Mof_H 	H 	0.1699	0.488	0.169	-0
Mof_C 	C 	0.109	0.468	0.154	-0.379
Mof_H 	H 	0.107	0.4295	0.1283	0.093
Mof_H 	H 	0.1097	0.4289	0.18	0.123
Mof_C 	C 	0.073	0.532	0.148	0.235
Mof_H 	H 	0.0765	0.5756	0.1727	0.025
Mof_H 	H 	0.0491	0.4975	0.1468	-0.093
Mof_C 	C 	0.071	0.584	0.105	-0.4
Mof_H 	H 	0.0674	0.54	0.0803	0.439
Mof_H 	H 	0.0491	0.626	0.0996	0.143
Mof_C 	C 	0.109	0.636	0.107	0.139
Mof_H 	H 	0.1085	0.665	0.078	0.023
Mof_H 	H 	0.1115	0.6846	0.1287	0.026
Mof_C 	C 	0.146	0.577	0.118	-0.131
Mof_H 	H 	0.1694	0.6143	0.121	-0.014
Mof_H 	H 	0.1455	0.5322	0.0945	-0.049
Mof_C 	C 	0.2289	0.83	0.1433	-0.411
Mof_H 	H 	0.2186	0.874	0.12	0.137
Mof_H 	H 	0.2127	0.7746	0.1379	0.158
Mof_C 	C 	0.2717	0.807	0.143	0.489
Mof_H 	H 	0.2756	0.7411	0.1476	-0.409
Mof_H 	H 	0.2767	0.8219	0.1142	-0.097
Mof_C 	C 	0.3015	0.857	0.178	-0.702
Mof_H 	H 	0.3271	0.8563	0.1696	0.264
Mof_H 	H 	0.3045	0.824	0.206	0.217
Mof_C 	C 	0.289	0.954	0.184	0.559
Mof_H 	H 	0.2897	0.9889	0.1571	-0.09
Mof_H 	H 	0.3086	0.9822	0.2081	-0.116
Mof_C 	C 	0.249	0.961	0.194	-0.922
Mof_H 	H 	0.2509	0.9818	0.2244	0.36
Mof_H 	H 	0.2329	0.0062	0.1745	0.892
Mof_C 	C 	0.227	0.87	0.188	0.284
Mof_H 	H 	0.2	0.8781	0.1902	-0.038
Mof_H 	H 	0.2401	0.8279	0.2114	-0.029
Mof_H 	H 	0.4945	0.3436	0.6053	-0.081
Mof_O 	O 	0.3899	0.3502	0.3707	-0.251
Mof_C 	C 	0.3533	0.309	0.366	0.212
Mof_H 	H 	0.3446	0.3109	0.3939	-0.027
Mof_H 	H 	0.3547	0.245	0.3573	0.001
Mof_C 	C 	0.3254	0.36	0.3316	-0.37
Mof_C 	C 	0.349	0.4365	0.3173	-0.168
Mof_H 	H 	0.359	0.415	0.2916	0.162
Mof_C 	C 	0.3272	0.527	0.3047	0.151
Mof_H 	H 	0.3023	0.5174	0.2833	0.002
Mof_H 	H 	0.3435	0.57	0.2923	0.045
Mof_C 	C 	0.3189	0.5666	0.3534	0.064
Mof_C 	C 	0.3455	0.549	0.3904	0.072
Mof_H 	H 	0.3416	0.5773	0.4161	0.024
Mof_C 	C 	0.3754	0.497	0.3947	-0.302
Mof_H 	H 	0.3925	0.4921	0.4225	0.138
Mof_C 	C 	0.3842	0.444	0.3568	0.683
Mof_O 	O 	0.2924	0.621	0.3473	-0.202
Mof_C 	C 	0.4191	0.483	0.345	-0.276
Mof_S 	S 	0.4559	0.4126	0.3379	0.18
Mof_C 	C 	0.4838	0.495	0.3288	1.368
Mof_H 	H 	0.5098	0.4868	0.3252	-0.399
Mof_C 	C 	0.463	0.587	0.3266	-2.852
Mof_H 	H 	0.4723	0.6433	0.3186	0.817
Mof_C 	C 	0.4277	0.57	0.3389	4.679
Mof_H 	H 	0.4106	0.6177	0.3427	-1.508
Mof_C 	C 	0.289	0.341	0.3186	0.904
Mof_H 	H 	0.2743	0.3823	0.2984	-0.089
Mof_C 	C 	0.2669	0.264	0.3306	-0.922
Mof_O 	O 	0.2841	0.2035	0.3547	0.095
Mof_O 	O 	0.2297	0.267	0.3212	9.503
Mof_C 	C 	0.204	0.205	0.331	-9.323
Mof_H 	H 	0.1797	0.204	0.3074	3.572
Mof_H 	H 	0.1959	0.2226	0.3584	2.556
Mof_C 	C 	0.221	0.113	0.336	8.528
Mof_H 	H 	0.2023	0.07	0.3431	-2.506
Mof_H 	H 	0.2284	0.0954	0.3089	-1.94
Mof_H 	H 	0.2446	0.1139	0.3598	-2.498
Mof_O 	O 	0.7526	0.492	0.7983	-0.447
Mof_C 	C 	0.7715	0.411	0.802	0.554
Mof_H 	H 	0.7823	0.3991	0.7763	-0.53
Mof_H 	H 	0.7532	0.3615	0.8052	-0.13
Mof_C 	C 	0.8043	0.415	0.843	-0.077
Mof_C 	C 	0.8013	0.517	0.848	0.031
Mof_H 	H 	0.7851	0.5232	0.8707	0.042
Mof_C 	C 	0.8401	0.567	0.87	-0.302
Mof_H 	H 	0.834	0.6165	0.8889	0.173
Mof_H 	H 	0.8577	0.5241	0.889	0.224
Mof_C 	C 	0.86	0.604	0.839	0.2
Mof_C 	C 	0.8363	0.599	0.795	0.328
Mof_H 	H 	0.8508	0.6171	0.774	-0.054
Mof_C 	C 	0.8041	0.577	0.777	-0.416
Mof_H 	H 	0.7938	0.5697	0.7472	0.198
Mof_C 	C 	0.7819	0.564	0.816	0.007
Mof_O 	O 	0.8967	0.61	0.845	-0.255
Mof_C 	C 	0.7589	0.645	0.82	-0.031
Mof_S 	S 	0.7119	0.638	0.8271	-0.133
Mof_C 	C 	0.7094	0.748	0.8354	0.649
Mof_H 	H 	0.6885	0.7778	0.8443	-0.185
Mof_C 	C 	0.7427	0.79	0.8273	-0.393
Mof_H 	H 	0.7454	0.8542	0.8281	0.223
Mof_C 	C 	0.7721	0.734	0.818	0.091
Mof_H 	H 	0.7962	0.7525	0.8116	-0.013
Mof_C 	C 	0.83	0.345	0.848	-0.252
Mof_H 	H 	0.8549	0.3502	0.8409	0.134
Mof_C 	C 	0.8173	0.267	0.8645	0.492
Mof_O 	O 	0.8405	0.206	0.886	-0.356
Mof_O 	O 	0.7953	0.233	0.8269	-0.901
Mof_C 	C 	0.784	0.142	0.834	0.385
Mof_H 	H 	0.8079	0.1074	0.8314	-0.106
Mof_H 	H 	0.7839	0.1412	0.8651	-0.046
Mof_C 	C 	0.7586	0.09	0.819	-0.03
Mof_H 	H 	0.7633	0.0323	0.8343	-0.681
Mof_H 	H 	0.7336	0.1149	0.822	0.044
Mof_H 	H 	0.758	0.0804	0.7878	-0.009
Mof_C 	C 	0.9768	0.476	0.845	-0.106
Mof_H 	H 	0.964	0.5183	0.8613	0.092
Mof_H 	H 	0.9937	0.5098	0.8289	0.052
Mof_C 	C 	0.9469	0.419	0.8134	-0.01
Mof_H 	H 	0.9608	0.377	0.7977	0.028
Mof_H 	H 	0.9309	0.4598	0.7916	0.025
Mof_C 	C 	0.9197	0.365	0.836	-0.221
Mof_H 	H 	0.9047	0.4072	0.8505	0.146
Mof_H 	H 	0.9009	0.3309	0.8137	0.073
Mof_C 	C 	0.9419	0.299	0.87	0.011
Mof_H 	H 	0.9531	0.2502	0.8549	0.039
Mof_H 	H 	0.924	0.2725	0.8865	-0.027
Mof_C 	C 	0.9746	0.352	0.9002	-0.123
Mof_H 	H 	0.963	0.3951	0.9176	0.038
Mof_H 	H 	0.9909	0.3088	0.9205	0.077
Mof_C 	C 	0.0004	0.403	0.875	-0.062
Mof_H 	H 	0.0118	0.3596	0.857	0.051
Mof_H 	H 	0.0221	0.4321	0.8956	0.051
Mof_O 	O 	0.0662	0.665	0.0413	-0.457
Mof_C 	C 	0.0763	0.573	0.041	0.655
Mof_H 	H 	0.0789	0.5458	0.07	-0.486
Mof_H 	H 	0.1011	0.5654	0.0311	-0.119
Mof_C 	C 	0.0429	0.534	0.0089	-1.089
Mof_C 	C 	0.0131	0.602	0.9924	0.241
Mof_H 	H 	0.0195	0.6285	0.9655	0.064
Mof_C 	C 	0.9719	0.581	0.9822	-0.362
Mof_H 	H 	0.9677	0.528	0.9628	0.367
Mof_H 	H 	0.9577	0.6328	0.9659	0.448
Mof_C 	C 	0.9545	0.562	0.0218	1.066
Mof_C 	C 	0.9719	0.601	0.0595	-0.959
Mof_H 	H 	0.9622	0.589	0.0848	0.362
Mof_C 	C 	0.0031	0.658	0.0629	0.405
Mof_H 	H 	0.0109	0.6889	0.09	-0.108
Mof_C 	C 	0.0255	0.677	0.0309	-0.437
Mof_O 	O 	0.9271	0.507	0.0233	-0.419
Mof_C 	C 	0.0156	0.772	0.013	0.156
Mof_S 	S 	0.0412	0.8219	0.9786	-0.084
Mof_C 	C 	0.015	0.922	0.9781	0.035
Mof_H 	H 	0.0168	0.9698	0.9585	0.042
Mof_C 	C 	0.992	0.926	0.0091	-0.021
Mof_H 	H 	0.9787	0.9784	0.0164	0.033
Mof_C 	C 	0.9914	0.836	0.0281	-0.137
Mof_H 	H 	0.9761	0.8208	0.0487	0.122
Mof_C 	C 	0.0417	0.446	0.996	0.505
Mof_H 	H 	0.02	0.4274	0.9744	-0.145
Mof_C 	C 	0.0705	0.379	0.0132	-0.231
Mof_O 	O 	0.1028	0.393	0.0391	-0.109
Mof_O 	O 	0.0596	0.29	0.997	0.828
Mof_C 	C 	0.085	0.222	0.012	-0.82
Mof_H 	H 	0.0957	0.2398	0.0421	0.452
Mof_H 	H 	0.1061	0.2333	0.9961	0.256
Mof_C 	C 	0.085	0.119	0.015	0.446
Mof_H 	H 	0.1109	0.0975	0.0282	-0.127
Mof_H 	H 	0.0662	0.0998	0.0321	-0.088
Mof_H 	H 	0.0768	0.0932	0.9852	-0.137
Mof_C 	C 	0.0558	0.156	0.018	-0.042
Mof_H 	H 	0.0335	0.1187	0.0224	0.036
Mof_H 	H 	0.0623	0.1393	0.9903	0.043
Mof_C 	C 	0.046	0.258	0.019	0.247
Mof_H 	H 	0.0473	0.2855	0.9907	-0.687
Mof_H 	H 	0.0185	0.2649	0.0227	-0.017
Mof_C 	C 	0.0738	0.305	0.056	-0.376
Mof_H 	H 	0.0723	0.2774	0.0843	0.144
Mof_H 	H 	0.0666	0.3698	0.057	0.177
Mof_C 	C 	0.1156	0.297	0.049	-0.219
Mof_H 	H 	0.134	0.3304	0.0721	0.118
Mof_H 	H 	0.1172	0.3235	0.0204	0.123
Mof_C 	C 	0.1266	0.195	0.05	-0.229
Mof_H 	H 	0.1342	0.178	0.0229	0.078
Mof_H 	H 	0.1488	0.1836	0.075	0.184
Mof_C 	C 	0.0909	0.141	0.056	-0.183
Mof_H 	H 	0.0976	0.0757	0.0576	0.054
Mof_H 	H 	0.0838	0.1581	0.0836	0.083
Mof_C 	C 	0.199	0.177	0.292	0.129
Mof_H 	H 	0.1838	0.1987	0.3128	-0.859
Mof_H 	H 	0.2146	0.1239	0.3048	-0.848
Mof_C 	C 	0.171	0.148	0.249	-0.373
Mof_H 	H 	0.164	0.0831	0.251	0.146
Mof_H 	H 	0.1464	0.1832	0.2453	-0.022
Mof_C 	C 	0.189	0.162	0.209	-0.318
Mof_H 	H 	0.1717	0.1349	0.1832	0.176
Mof_H 	H 	0.2145	0.1317	0.2141	0.129
Mof_C 	C 	0.194	0.264	0.201	0.961
Mof_H 	H 	0.2149	0.2729	0.1855	0.213
Mof_H 	H 	0.1694	0.2886	0.1836	-0.229
Mof_C 	C 	0.204	0.312	0.246	-1.85
Mof_H 	H 	0.2202	0.366	0.2431	0.957
Mof_H 	H 	0.1797	0.3337	0.2534	0.501
Mof_C 	C 	0.226	0.251	0.282	2.628
Mof_H 	H 	0.249	0.2241	0.2733	-0.541
Mof_H 	H 	0.2357	0.2875	0.3089	-7.522
Mof_C 	C 	0.451	0.349	0.351	-1.125
Mof_H 	H 	0.4623	0.3369	0.3247	0.278
Mof_H 	H 	0.4419	0.2905	0.3599	0.39
Mof_C 	C 	0.483	0.387	0.388	0.377
Mof_H 	H 	0.473	0.3961	0.4141	-0.065
Mof_C 	C 	0.498	0.477	0.373	-0.229
Mof_H 	H 	0.5086	0.4675	0.3465	-0.103
Mof_H 	H 	0.5185	0.5024	0.396	0.119
Mof_C 	C 	0.463	0.543	0.362	-1.217
Mof_H 	H 	0.4523	0.5529	0.3883	0.094
Mof_H 	H 	0.4721	0.6024	0.3533	1.159
Mof_C 	C 	0.431	0.506	0.325	-2.393
Mof_H 	H 	0.409	0.5486	0.3184	-0.811
Mof_H 	H 	0.4415	0.4984	0.2984	0.813
Mof_C 	C 	0.417	0.414	0.338	1.629
Mof_H 	H 	0.3971	0.3889	0.3133	-0.453
Mof_H 	H 	0.404	0.4221	0.363	-0.691
Mof_C 	C 	0.237	0.552	0.222	0.478
Mof_H 	H 	0.2302	0.5703	0.191	-0.02
Mof_H 	H 	0.2255	0.4924	0.225	-0.011
Mof_C 	C 	0.223	0.623	0.251	-0.379
Mof_H 	H 	0.1962	0.6073	0.254	0.115
Mof_H 	H 	0.2223	0.6833	0.2375	0.155
Mof_C 	C 	0.252	0.622	0.296	0.075
Mof_H 	H 	0.2752	0.657	0.2947	0.036
Mof_H 	H 	0.239	0.6489	0.3182	0.028
Mof_C 	C 	0.263	0.522	0.308	-0.23
Mof_H 	H 	0.2749	0.5175	0.3397	0.109
Mof_H 	H 	0.2393	0.4833	0.3018	0.111
Mof_C 	C 	0.292	0.494	0.281	0.124
Mof_H 	H 	0.3191	0.5071	0.2963	-0.109
Mof_H 	H 	0.29	0.4278	0.2747	0.023
Mof_C 	C 	0.282	0.546	0.237	-0.299
Mof_H 	H 	0.2937	0.515	0.2151	0.179
Mof_H 	H 	0.2937	0.6077	0.2416	0.121
Mof_C 	C 	0.854	0.527	0.839	0.218
Mof_H 	H 	0.8531	0.5706	0.8148	-0.213
Mof_H 	H 	0.8301	0.488	0.831	-0
Mof_C 	C 	0.891	0.468	0.846	-0.379
Mof_H 	H 	0.893	0.4295	0.8717	0.093
Mof_H 	H 	0.8903	0.4289	0.82	0.123
Mof_C 	C 	0.927	0.532	0.852	0.235
Mof_H 	H 	0.9235	0.5756	0.8273	0.025
Mof_H 	H 	0.9509	0.4975	0.8532	-0.093
Mof_C 	C 	0.929	0.584	0.895	-0.4
Mof_H 	H 	0.9326	0.54	0.9197	0.439
Mof_H 	H 	0.9509	0.626	0.9004	0.143
Mof_C 	C 	0.891	0.636	0.893	0.139
Mof_H 	H 	0.8915	0.665	0.922	0.023
Mof_H 	H 	0.8885	0.6846	0.8713	0.026
Mof_C 	C 	0.854	0.577	0.882	-0.131
Mof_H 	H 	0.8306	0.6143	0.879	-0.014
Mof_H 	H 	0.8545	0.5322	0.9055	-0.049
Mof_C 	C 	0.7711	0.83	0.8567	-0.411
Mof_H 	H 	0.7814	0.874	0.88	0.137
Mof_H 	H 	0.7873	0.7746	0.8621	0.158
Mof_C 	C 	0.7283	0.807	0.857	0.489
Mof_H 	H 	0.7244	0.7411	0.8524	-0.409
Mof_H 	H 	0.7233	0.8219	0.8858	-0.097
Mof_C 	C 	0.6985	0.857	0.822	-0.702
Mof_H 	H 	0.6729	0.8563	0.8304	0.264
Mof_H 	H 	0.6955	0.824	0.794	0.217
Mof_C 	C 	0.711	0.954	0.816	0.559
Mof_H 	H 	0.7103	0.9889	0.8429	-0.09
Mof_H 	H 	0.6914	0.9822	0.7919	-0.116
Mof_C 	C 	0.751	0.961	0.806	-0.922
Mof_H 	H 	0.7491	0.9818	0.7756	0.36
Mof_H 	H 	0.7671	0.0062	0.8255	0.892
Mof_C 	C 	0.773	0.87	0.812	0.284
Mof_H 	H 	0.8	0.8781	0.8098	-0.038
Mof_H 	H 	0.7599	0.8279	0.7886	-0.029
Mof_H 	H 	0.5055	0.3436	0.3947	-0.081
Mof_O 	O 	0.1101	0.8502	0.6293	-0.349
Mof_C 	C 	0.1467	0.809	0.634	0.481
Mof_H 	H 	0.1554	0.8109	0.6061	-0.095
Mof_H 	H 	0.1453	0.745	0.6427	-0.066
Mof_C 	C 	0.1746	0.86	0.6684	-0.7
Mof_C 	C 	0.151	0.9365	0.6827	0.729
Mof_H 	H 	0.141	0.915	0.7084	-0.24
Mof_C 	C 	0.1728	0.027	0.6953	0.256
Mof_H 	H 	0.1977	0.0174	0.7167	0.308
Mof_H 	H 	0.1565	0.07	0.7077	-0.106
Mof_C 	C 	0.1811	0.0666	0.6466	0.381
Mof_C 	C 	0.1545	0.049	0.6096	-0.913
Mof_H 	H 	0.1584	0.0773	0.5839	0.334
Mof_C 	C 	0.1246	0.997	0.6053	1.007
Mof_H 	H 	0.1075	0.9921	0.5775	-0.285
Mof_C 	C 	0.1158	0.944	0.6432	-1.536
Mof_O 	O 	0.2076	0.121	0.6527	-0.317
Mof_C 	C 	0.0809	0.983	0.655	-0.661
Mof_S 	S 	0.0441	0.9126	0.6621	-0.659
Mof_C 	C 	0.0162	0.995	0.6712	-1.441
Mof_H 	H 	0.9902	0.9868	0.6748	0.578
Mof_C 	C 	0.037	0.087	0.6734	2.601
Mof_H 	H 	0.0277	0.1433	0.6814	-0.722
Mof_C 	C 	0.0723	0.07	0.6611	-6.026
Mof_H 	H 	0.0894	0.1177	0.6573	2.049
Mof_C 	C 	0.211	0.841	0.6814	1.133
Mof_H 	H 	0.2257	0.8823	0.7016	-0.171
Mof_C 	C 	0.2331	0.764	0.6694	-0.985
Mof_O 	O 	0.2159	0.7035	0.6453	0.119
Mof_O 	O 	0.2703	0.767	0.6788	9.354
Mof_C 	C 	0.296	0.705	0.669	-9.129
Mof_H 	H 	0.3203	0.704	0.6926	3.51
Mof_H 	H 	0.3041	0.7226	0.6416	2.504
Mof_C 	C 	0.279	0.613	0.664	8.303
Mof_H 	H 	0.2977	0.57	0.6569	-2.421
Mof_H 	H 	0.2716	0.5954	0.6911	-1.903
Mof_H 	H 	0.2554	0.6139	0.6402	-2.426
Mof_O 	O 	0.7474	0.992	0.2017	-0.46
Mof_C 	C 	0.7285	0.911	0.198	0.573
Mof_H 	H 	0.7177	0.8991	0.2237	-0.531
Mof_H 	H 	0.7468	0.8615	0.1948	-0.133
Mof_C 	C 	0.6957	0.915	0.157	-0.039
Mof_C 	C 	0.6987	0.017	0.152	0.19
Mof_H 	H 	0.7149	0.0232	0.1293	-0.033
Mof_C 	C 	0.6599	0.067	0.13	-0.374
Mof_H 	H 	0.666	0.1165	0.1111	0.231
Mof_H 	H 	0.6423	0.0241	0.111	0.32
Mof_C 	C 	0.64	0.104	0.161	0.293
Mof_C 	C 	0.6637	0.099	0.205	2.833
Mof_H 	H 	0.6492	0.1171	0.226	-0.809
Mof_C 	C 	0.6959	0.077	0.223	-2.077
Mof_H 	H 	0.7062	0.0697	0.2528	0.71
Mof_C 	C 	0.7181	0.064	0.184	-0.416
Mof_O 	O 	0.6033	0.11	0.155	-0.238
Mof_C 	C 	0.7411	0.145	0.18	-0.059
Mof_S 	S 	0.7881	0.138	0.1729	-0.134
Mof_C 	C 	0.7906	0.248	0.1646	0.506
Mof_H 	H 	0.8115	0.2778	0.1557	-0.14
Mof_C 	C 	0.7573	0.29	0.1727	-0.346
Mof_H 	H 	0.7546	0.3542	0.1719	0.205
Mof_C 	C 	0.7279	0.234	0.182	0.092
Mof_H 	H 	0.7038	0.2525	0.1884	-0.036
Mof_C 	C 	0.67	0.845	0.152	-0.276
Mof_H 	H 	0.6451	0.8502	0.1591	0.142
Mof_C 	C 	0.6827	0.767	0.1355	0.529
Mof_O 	O 	0.6595	0.706	0.114	-0.362
Mof_O 	O 	0.7047	0.733	0.1731	-1.017
Mof_C 	C 	0.716	0.642	0.166	0.67
Mof_H 	H 	0.6921	0.6074	0.1686	-0.183
Mof_H 	H 	0.7161	0.6412	0.1349	-0.116
Mof_C 	C 	0.7414	0.59	0.181	-0.333
Mof_H 	H 	0.7367	0.5323	0.1657	-0.675
Mof_H 	H 	0.7664	0.6149	0.178	0.15
Mof_H 	H 	0.742	0.5804	0.2122	0.092
Mof_C 	C 	0.5232	0.976	0.155	0.373
Mof_H 	H 	0.536	0.0183	0.1387	-0.317
Mof_H 	H 	0.5063	0.0098	0.1711	-0.126
Mof_C 	C 	0.5531	0.919	0.1866	-0.37
Mof_H 	H 	0.5392	0.877	0.2023	0.135
Mof_H 	H 	0.5691	0.9598	0.2084	0.151
Mof_C 	C 	0.5803	0.865	0.164	0.021
Mof_H 	H 	0.5953	0.9072	0.1495	0.069
Mof_H 	H 	0.5991	0.8309	0.1863	-0.003
Mof_C 	C 	0.5581	0.799	0.13	-0.213
Mof_H 	H 	0.5469	0.7502	0.1451	0.104
Mof_H 	H 	0.576	0.7725	0.1135	0.061
Mof_C 	C 	0.5254	0.852	0.0998	0.095
Mof_H 	H 	0.537	0.8951	0.0824	-0.02
Mof_H 	H 	0.5091	0.8088	0.0795	0.015
Mof_C 	C 	0.4996	0.903	0.125	-0.343
Mof_H 	H 	0.4882	0.8596	0.143	0.135
Mof_H 	H 	0.4779	0.9321	0.1044	0.16
Mof_O 	O 	0.4338	0.165	0.9587	-0.54
Mof_C 	C 	0.4237	0.073	0.959	0.986
Mof_H 	H 	0.4211	0.0458	0.93	-0.764
Mof_H 	H 	0.3989	0.0654	0.9689	-0.222
Mof_C 	C 	0.4571	0.034	0.9911	-1.502
Mof_C 	C 	0.4869	0.102	0.0076	0.463
Mof_H 	H 	0.4805	0.1285	0.0345	-0.014
Mof_C 	C 	0.5281	0.081	0.0178	-0.604
Mof_H 	H 	0.5323	0.028	0.0372	0.494
Mof_H 	H 	0.5423	0.1328	0.0341	0.578
Mof_C 	C 	0.5455	0.062	0.9782	1.365
Mof_C 	C 	0.5281	0.101	0.9405	-1.172
Mof_H 	H 	0.5378	0.089	0.9152	0.424
Mof_C 	C 	0.4969	0.158	0.9371	0.583
Mof_H 	H 	0.4891	0.1889	0.91	-0.166
Mof_C 	C 	0.4745	0.177	0.9691	-0.604
Mof_O 	O 	0.5729	0.007	0.9767	-0.541
Mof_C 	C 	0.4844	0.272	0.987	0.201
Mof_S 	S 	0.4588	0.3219	0.0214	-0.088
Mof_C 	C 	0.485	0.422	0.0219	0.004
Mof_H 	H 	0.4832	0.4698	0.0415	0.034
Mof_C 	C 	0.508	0.426	0.9909	0.009
Mof_H 	H 	0.5213	0.4784	0.9836	0.011
Mof_C 	C 	0.5086	0.336	0.9719	-0.168
Mof_H 	H 	0.5239	0.3208	0.9513	0.134
Mof_C 	C 	0.4583	0.946	0.004	0.798
Mof_H 	H 	0.48	0.9274	0.0256	-0.234
Mof_C 	C 	0.4295	0.879	0.9868	-0.318
Mof_O 	O 	0.3972	0.893	0.9609	-0.061
Mof_O 	O 	0.4404	0.79	0.003	0.819
Mof_C 	C 	0.415	0.722	0.988	-0.766
Mof_H 	H 	0.4043	0.7398	0.9579	0.435
Mof_H 	H 	0.3939	0.7333	0.0039	0.243
Mof_C 	C 	0.415	0.619	0.985	0.325
Mof_H 	H 	0.3891	0.5975	0.9718	-0.078
Mof_H 	H 	0.4338	0.5998	0.9679	-0.053
Mof_H 	H 	0.4232	0.5932	0.0148	-0.086
Mof_C 	C 	0.4442	0.656	0.982	0.004
Mof_H 	H 	0.4665	0.6187	0.9776	0.032
Mof_H 	H 	0.4377	0.6393	0.0097	0.043
Mof_C 	C 	0.454	0.758	0.981	0.176
Mof_H 	H 	0.4527	0.7855	0.0093	-0.654
Mof_H 	H 	0.4815	0.7649	0.9773	0.007
Mof_C 	C 	0.4262	0.805	0.944	-0.286
Mof_H 	H 	0.4277	0.7774	0.9157	0.09
Mof_H 	H 	0.4334	0.8698	0.943	0.163
Mof_C 	C 	0.3844	0.797	0.951	-0.271
Mof_H 	H 	0.366	0.8304	0.9279	0.13
Mof_H 	H 	0.3828	0.8235	0.9796	0.141
Mof_C 	C 	0.3734	0.695	0.95	-0.202
Mof_H 	H 	0.3658	0.678	0.9771	0.075
Mof_H 	H 	0.3512	0.6836	0.925	0.181
Mof_C 	C 	0.4091	0.641	0.944	-0.195
Mof_H 	H 	0.4024	0.5757	0.9424	0.079
Mof_H 	H 	0.4162	0.6581	0.9164	0.09
Mof_C 	C 	0.301	0.677	0.708	0.059
Mof_H 	H 	0.3162	0.6987	0.6872	-0.833
Mof_H 	H 	0.2854	0.6239	0.6952	-0.783
Mof_C 	C 	0.329	0.648	0.751	-0.317
Mof_H 	H 	0.336	0.5831	0.749	0.145
Mof_H 	H 	0.3536	0.6832	0.7547	-0.034
Mof_C 	C 	0.311	0.662	0.791	-0.375
Mof_H 	H 	0.3283	0.6349	0.8168	0.212
Mof_H 	H 	0.2855	0.6317	0.7859	0.129
Mof_C 	C 	0.306	0.764	0.799	1.031
Mof_H 	H 	0.2851	0.7729	0.8145	0.243
Mof_H 	H 	0.3306	0.7886	0.8164	-0.245
Mof_C 	C 	0.296	0.812	0.754	-1.894
Mof_H 	H 	0.2798	0.866	0.7569	0.974
Mof_H 	H 	0.3203	0.8337	0.7466	0.521
Mof_C 	C 	0.274	0.751	0.718	2.637
Mof_H 	H 	0.251	0.7241	0.7267	-0.547
Mof_H 	H 	0.2643	0.7875	0.6911	-7.406
Mof_C 	C 	0.049	0.849	0.649	1.732
Mof_H 	H 	0.0377	0.8369	0.6753	-0.281
Mof_H 	H 	0.0581	0.7905	0.6401	-0.494
Mof_C 	C 	0.017	0.887	0.612	-0.991
Mof_H 	H 	0.027	0.8961	0.5859	0.323
Mof_C 	C 	0.002	0.977	0.627	0.76
Mof_H 	H 	0.9914	0.9675	0.6535	-0.04
Mof_H 	H 	0.9815	0.0024	0.604	-0.29
Mof_C 	C 	0.037	0.043	0.638	0.701
Mof_H 	H 	0.0477	0.0529	0.6117	0.186
Mof_H 	H 	0.0279	0.1024	0.6467	-0.792
Mof_C 	C 	0.069	0.006	0.675	4.69
Mof_H 	H 	0.091	0.0486	0.6816	0.774
Mof_H 	H 	0.0585	0.9984	0.7016	-1.343
Mof_C 	C 	0.083	0.914	0.662	-2.177
Mof_H 	H 	0.1029	0.8889	0.6867	0.747
Mof_H 	H 	0.096	0.9221	0.637	1.714
Mof_C 	C 	0.263	0.052	0.778	0.735
Mof_H 	H 	0.2698	0.0703	0.809	0.282
Mof_H 	H 	0.2745	0.9924	0.775	0.059
Mof_C 	C 	0.277	0.123	0.749	-0.13
Mof_H 	H 	0.3038	0.1073	0.746	0.055
Mof_H 	H 	0.2777	0.1833	0.7625	0.093
Mof_C 	C 	0.248	0.122	0.704	-0.099
Mof_H 	H 	0.2248	0.157	0.7053	0.074
Mof_H 	H 	0.261	0.1489	0.6818	0.068
Mof_C 	C 	0.237	0.022	0.692	-0.298
Mof_H 	H 	0.2251	0.0175	0.6603	0.094
Mof_H 	H 	0.2607	0.9833	0.6982	0.163
Mof_C 	C 	0.208	0.994	0.719	-0.053
Mof_H 	H 	0.1809	0.0071	0.7037	-0.468
Mof_H 	H 	0.21	0.9278	0.7253	0.098
Mof_C 	C 	0.218	0.046	0.763	-0.516
Mof_H 	H 	0.2063	0.015	0.7849	0.21
Mof_H 	H 	0.2063	0.1077	0.7584	0.16
Mof_C 	C 	0.646	0.027	0.161	0.967
Mof_H 	H 	0.6469	0.0706	0.1852	-1.508
Mof_H 	H 	0.6699	0.988	0.169	-0.184
Mof_C 	C 	0.609	0.968	0.154	-0.467
Mof_H 	H 	0.607	0.9295	0.1283	0.141
Mof_H 	H 	0.6097	0.9289	0.18	0.161
Mof_C 	C 	0.573	0.032	0.148	0.101
Mof_H 	H 	0.5765	0.0756	0.1727	0.066
Mof_H 	H 	0.5491	0.9975	0.1468	0.213
Mof_C 	C 	0.571	0.084	0.105	-0.541
Mof_H 	H 	0.5674	0.04	0.0803	0.64
Mof_H 	H 	0.5491	0.126	0.0996	0.187
Mof_C 	C 	0.609	0.136	0.107	0.397
Mof_H 	H 	0.6085	0.165	0.078	-0.048
Mof_H 	H 	0.6115	0.1846	0.1287	-0.069
Mof_C 	C 	0.646	0.077	0.118	-0.6
Mof_H 	H 	0.6694	0.1143	0.121	0.068
Mof_H 	H 	0.6455	0.0322	0.0945	-0.009
Mof_C 	C 	0.7289	0.33	0.1433	-0.509
Mof_H 	H 	0.7186	0.374	0.12	0.16
Mof_H 	H 	0.7127	0.2746	0.1379	0.178
Mof_C 	C 	0.7717	0.307	0.143	0.531
Mof_H 	H 	0.7756	0.2411	0.1476	-0.349
Mof_H 	H 	0.7767	0.3219	0.1142	-0.116
Mof_C 	C 	0.8015	0.357	0.178	-0.769
Mof_H 	H 	0.8271	0.3563	0.1696	0.269
Mof_H 	H 	0.8045	0.324	0.206	0.236
Mof_C 	C 	0.789	0.454	0.184	0.716
Mof_H 	H 	0.7897	0.4889	0.1571	-0.162
Mof_H 	H 	0.8086	0.4822	0.2081	-0.186
Mof_C 	C 	0.749	0.461	0.194	-1.194
Mof_H 	H 	0.7509	0.4818	0.2244	0.403
Mof_H 	H 	0.7329	0.5062	0.1745	1.069
Mof_C 	C 	0.727	0.37	0.188	0.438
Mof_H 	H 	0.7	0.3781	0.1902	-0.099
Mof_H 	H 	0.7401	0.3279	0.2114	-0.078
Mof_H 	H 	0.9945	0.8436	0.6053	0.308
Mof_O 	O 	0.8899	0.8502	0.3707	-0.349
Mof_C 	C 	0.8533	0.809	0.366	0.481
Mof_H 	H 	0.8446	0.8109	0.3939	-0.095
Mof_H 	H 	0.8547	0.745	0.3573	-0.066
Mof_C 	C 	0.8254	0.86	0.3316	-0.7
Mof_C 	C 	0.849	0.9365	0.3173	0.729
Mof_H 	H 	0.859	0.915	0.2916	-0.24
Mof_C 	C 	0.8272	0.027	0.3047	0.256
Mof_H 	H 	0.8023	0.0174	0.2833	0.308
Mof_H 	H 	0.8435	0.07	0.2923	-0.106
Mof_C 	C 	0.8189	0.0666	0.3534	0.381
Mof_C 	C 	0.8455	0.049	0.3904	-0.913
Mof_H 	H 	0.8416	0.0773	0.4161	0.334
Mof_C 	C 	0.8754	0.997	0.3947	1.007
Mof_H 	H 	0.8925	0.9921	0.4225	-0.285
Mof_C 	C 	0.8842	0.944	0.3568	-1.536
Mof_O 	O 	0.7924	0.121	0.3473	-0.317
Mof_C 	C 	0.9191	0.983	0.345	-0.661
Mof_S 	S 	0.9559	0.9126	0.3379	-0.659
Mof_C 	C 	0.9838	0.995	0.3288	-1.441
Mof_H 	H 	0.0098	0.9868	0.3252	0.578
Mof_C 	C 	0.963	0.087	0.3266	2.601
Mof_H 	H 	0.9723	0.1433	0.3186	-0.722
Mof_C 	C 	0.9277	0.07	0.3389	-6.026
Mof_H 	H 	0.9106	0.1177	0.3427	2.049
Mof_C 	C 	0.789	0.841	0.3186	1.133
Mof_H 	H 	0.7743	0.8823	0.2984	-0.171
Mof_C 	C 	0.7669	0.764	0.3306	-0.985
Mof_O 	O 	0.7841	0.7035	0.3547	0.119
Mof_O 	O 	0.7297	0.767	0.3212	9.354
Mof_C 	C 	0.704	0.705	0.331	-9.129
Mof_H 	H 	0.6797	0.704	0.3074	3.51
Mof_H 	H 	0.6959	0.7226	0.3584	2.504
Mof_C 	C 	0.721	0.613	0.336	8.303
Mof_H 	H 	0.7023	0.57	0.3431	-2.421
Mof_H 	H 	0.7284	0.5954	0.3089	-1.903
Mof_H 	H 	0.7446	0.6139	0.3598	-2.426
Mof_O 	O 	0.2526	0.992	0.7983	-0.46
Mof_C 	C 	0.2715	0.911	0.802	0.573
Mof_H 	H 	0.2823	0.8991	0.7763	-0.531
Mof_H 	H 	0.2532	0.8615	0.8052	-0.133
Mof_C 	C 	0.3043	0.915	0.843	-0.039
Mof_C 	C 	0.3013	0.017	0.848	0.19
Mof_H 	H 	0.2851	0.0232	0.8707	-0.033
Mof_C 	C 	0.3401	0.067	0.87	-0.374
Mof_H 	H 	0.334	0.1165	0.8889	0.231
Mof_H 	H 	0.3577	0.0241	0.889	0.32
Mof_C 	C 	0.36	0.104	0.839	0.293
Mof_C 	C 	0.3363	0.099	0.795	2.833
Mof_H 	H 	0.3508	0.1171	0.774	-0.809
Mof_C 	C 	0.3041	0.077	0.777	-2.077
Mof_H 	H 	0.2938	0.0697	0.7472	0.71
Mof_C 	C 	0.2819	0.064	0.816	-0.416
Mof_O 	O 	0.3967	0.11	0.845	-0.238
Mof_C 	C 	0.2589	0.145	0.82	-0.059
Mof_S 	S 	0.2119	0.138	0.8271	-0.134
Mof_C 	C 	0.2094	0.248	0.8354	0.506
Mof_H 	H 	0.1885	0.2778	0.8443	-0.14
Mof_C 	C 	0.2427	0.29	0.8273	-0.346
Mof_H 	H 	0.2454	0.3542	0.8281	0.205
Mof_C 	C 	0.2721	0.234	0.818	0.092
Mof_H 	H 	0.2962	0.2525	0.8116	-0.036
Mof_C 	C 	0.33	0.845	0.848	-0.276
Mof_H 	H 	0.3549	0.8502	0.8409	0.142
Mof_C 	C 	0.3173	0.767	0.8645	0.529
Mof_O 	O 	0.3405	0.706	0.886	-0.362
Mof_O 	O 	0.2953	0.733	0.8269	-1.017
Mof_C 	C 	0.284	0.642	0.834	0.67
Mof_H 	H 	0.3079	0.6074	0.8314	-0.183
Mof_H 	H 	0.2839	0.6412	0.8651	-0.116
Mof_C 	C 	0.2586	0.59	0.819	-0.333
Mof_H 	H 	0.2633	0.5323	0.8343	-0.675
Mof_H 	H 	0.2336	0.6149	0.822	0.15
Mof_H 	H 	0.258	0.5804	0.7878	0.092
Mof_C 	C 	0.4768	0.976	0.845	0.373
Mof_H 	H 	0.464	0.0183	0.8613	-0.317
Mof_H 	H 	0.4937	0.0098	0.8289	-0.126
Mof_C 	C 	0.4469	0.919	0.8134	-0.37
Mof_H 	H 	0.4608	0.877	0.7977	0.135
Mof_H 	H 	0.4309	0.9598	0.7916	0.151
Mof_C 	C 	0.4197	0.865	0.836	0.021
Mof_H 	H 	0.4047	0.9072	0.8505	0.069
Mof_H 	H 	0.4009	0.8309	0.8137	-0.003
Mof_C 	C 	0.4419	0.799	0.87	-0.213
Mof_H 	H 	0.4531	0.7502	0.8549	0.104
Mof_H 	H 	0.424	0.7725	0.8865	0.061
Mof_C 	C 	0.4746	0.852	0.9002	0.095
Mof_H 	H 	0.463	0.8951	0.9176	-0.02
Mof_H 	H 	0.4909	0.8088	0.9205	0.015
Mof_C 	C 	0.5004	0.903	0.875	-0.343
Mof_H 	H 	0.5118	0.8596	0.857	0.135
Mof_H 	H 	0.5221	0.9321	0.8956	0.16
Mof_O 	O 	0.5662	0.165	0.0413	-0.54
Mof_C 	C 	0.5763	0.073	0.041	0.986
Mof_H 	H 	0.5789	0.0458	0.07	-0.764
Mof_H 	H 	0.6011	0.0654	0.0311	-0.222
Mof_C 	C 	0.5429	0.034	0.0089	-1.502
Mof_C 	C 	0.5131	0.102	0.9924	0.463
Mof_H 	H 	0.5195	0.1285	0.9655	-0.014
Mof_C 	C 	0.4719	0.081	0.9822	-0.604
Mof_H 	H 	0.4677	0.028	0.9628	0.494
Mof_H 	H 	0.4577	0.1328	0.9659	0.578
Mof_C 	C 	0.4545	0.062	0.0218	1.365
Mof_C 	C 	0.4719	0.101	0.0595	-1.172
Mof_H 	H 	0.4622	0.089	0.0848	0.424
Mof_C 	C 	0.5031	0.158	0.0629	0.583
Mof_H 	H 	0.5109	0.1889	0.09	-0.166
Mof_C 	C 	0.5255	0.177	0.0309	-0.604
Mof_O 	O 	0.4271	0.007	0.0233	-0.541
Mof_C 	C 	0.5156	0.272	0.013	0.201
Mof_S 	S 	0.5412	0.3219	0.9786	-0.088
Mof_C 	C 	0.515	0.422	0.9781	0.004
Mof_H 	H 	0.5168	0.4698	0.9585	0.034
Mof_C 	C 	0.492	0.426	0.0091	0.009
Mof_H 	H 	0.4787	0.4784	0.0164	0.011
Mof_C 	C 	0.4914	0.336	0.0281	-0.168
Mof_H 	H 	0.4761	0.3208	0.0487	0.134
Mof_C 	C 	0.5417	0.946	0.996	0.798
Mof_H 	H 	0.52	0.9274	0.9744	-0.234
Mof_C 	C 	0.5705	0.879	0.0132	-0.318
Mof_O 	O 	0.6028	0.893	0.0391	-0.061
Mof_O 	O 	0.5596	0.79	0.997	0.819
Mof_C 	C 	0.585	0.722	0.012	-0.766
Mof_H 	H 	0.5957	0.7398	0.0421	0.435
Mof_H 	H 	0.6061	0.7333	0.9961	0.243
Mof_C 	C 	0.585	0.619	0.015	0.325
Mof_H 	H 	0.6109	0.5975	0.0282	-0.078
Mof_H 	H 	0.5662	0.5998	0.0321	-0.053
Mof_H 	H 	0.5768	0.5932	0.9852	-0.086
Mof_C 	C 	0.5558	0.656	0.018	0.004
Mof_H 	H 	0.5335	0.6187	0.0224	0.032
Mof_H 	H 	0.5623	0.6393	0.9903	0.043
Mof_C 	C 	0.546	0.758	0.019	0.176
Mof_H 	H 	0.5473	0.7855	0.9907	-0.654
Mof_H 	H 	0.5185	0.7649	0.0227	0.007
Mof_C 	C 	0.5738	0.805	0.056	-0.286
Mof_H 	H 	0.5723	0.7774	0.0843	0.09
Mof_H 	H 	0.5666	0.8698	0.057	0.163
Mof_C 	C 	0.6156	0.797	0.049	-0.271
Mof_H 	H 	0.634	0.8304	0.0721	0.13
Mof_H 	H 	0.6172	0.8235	0.0204	0.141
Mof_C 	C 	0.6266	0.695	0.05	-0.202
Mof_H 	H 	0.6342	0.678	0.0229	0.075
Mof_H 	H 	0.6488	0.6836	0.075	0.181
Mof_C 	C 	0.5909	0.641	0.056	-0.195
Mof_H 	H 	0.5976	0.5757	0.0576	0.079
Mof_H 	H 	0.5838	0.6581	0.0836	0.09
Mof_C 	C 	0.699	0.677	0.292	0.059
Mof_H 	H 	0.6838	0.6987	0.3128	-0.833
Mof_H 	H 	0.7146	0.6239	0.3048	-0.783
Mof_C 	C 	0.671	0.648	0.249	-0.317
Mof_H 	H 	0.664	0.5831	0.251	0.145
Mof_H 	H 	0.6464	0.6832	0.2453	-0.034
Mof_C 	C 	0.689	0.662	0.209	-0.375
Mof_H 	H 	0.6717	0.6349	0.1832	0.212
Mof_H 	H 	0.7145	0.6317	0.2141	0.129
Mof_C 	C 	0.694	0.764	0.201	1.031
Mof_H 	H 	0.7149	0.7729	0.1855	0.243
Mof_H 	H 	0.6694	0.7886	0.1836	-0.245
Mof_C 	C 	0.704	0.812	0.246	-1.894
Mof_H 	H 	0.7202	0.866	0.2431	0.974
Mof_H 	H 	0.6797	0.8337	0.2534	0.521
Mof_C 	C 	0.726	0.751	0.282	2.637
Mof_H 	H 	0.749	0.7241	0.2733	-0.547
Mof_H 	H 	0.7357	0.7875	0.3089	-7.406
Mof_C 	C 	0.951	0.849	0.351	1.732
Mof_H 	H 	0.9623	0.8369	0.3247	-0.281
Mof_H 	H 	0.9419	0.7905	0.3599	-0.494
Mof_C 	C 	0.983	0.887	0.388	-0.991
Mof_H 	H 	0.973	0.8961	0.4141	0.323
Mof_C 	C 	0.998	0.977	0.373	0.76
Mof_H 	H 	0.0086	0.9675	0.3465	-0.04
Mof_H 	H 	0.0185	0.0024	0.396	-0.29
Mof_C 	C 	0.963	0.043	0.362	0.701
Mof_H 	H 	0.9523	0.0529	0.3883	0.186
Mof_H 	H 	0.9721	0.1024	0.3533	-0.792
Mof_C 	C 	0.931	0.006	0.325	4.69
Mof_H 	H 	0.909	0.0486	0.3184	0.774
Mof_H 	H 	0.9415	0.9984	0.2984	-1.343
Mof_C 	C 	0.917	0.914	0.338	-2.177
Mof_H 	H 	0.8971	0.8889	0.3133	0.747
Mof_H 	H 	0.904	0.9221	0.363	1.714
Mof_C 	C 	0.737	0.052	0.222	0.735
Mof_H 	H 	0.7302	0.0703	0.191	0.282
Mof_H 	H 	0.7255	0.9924	0.225	0.059
Mof_C 	C 	0.723	0.123	0.251	-0.13
Mof_H 	H 	0.6962	0.1073	0.254	0.055
Mof_H 	H 	0.7223	0.1833	0.2375	0.093
Mof_C 	C 	0.752	0.122	0.296	-0.099
Mof_H 	H 	0.7752	0.157	0.2947	0.074
Mof_H 	H 	0.739	0.1489	0.3182	0.068
Mof_C 	C 	0.763	0.022	0.308	-0.298
Mof_H 	H 	0.7749	0.0175	0.3397	0.094
Mof_H 	H 	0.7393	0.9833	0.3018	0.163
Mof_C 	C 	0.792	0.994	0.281	-0.053
Mof_H 	H 	0.8191	0.0071	0.2963	-0.468
Mof_H 	H 	0.79	0.9278	0.2747	0.098
Mof_C 	C 	0.782	0.046	0.237	-0.516
Mof_H 	H 	0.7937	0.015	0.2151	0.21
Mof_H 	H 	0.7937	0.1077	0.2416	0.16
Mof_C 	C 	0.354	0.027	0.839	0.967
Mof_H 	H 	0.3531	0.0706	0.8148	-1.508
Mof_H 	H 	0.3301	0.988	0.831	-0.184
Mof_C 	C 	0.391	0.968	0.846	-0.467
Mof_H 	H 	0.393	0.9295	0.8717	0.141
Mof_H 	H 	0.3903	0.9289	0.82	0.161
Mof_C 	C 	0.427	0.032	0.852	0.101
Mof_H 	H 	0.4235	0.0756	0.8273	0.066
Mof_H 	H 	0.4509	0.9975	0.8532	0.213
Mof_C 	C 	0.429	0.084	0.895	-0.541
Mof_H 	H 	0.4326	0.04	0.9197	0.64
Mof_H 	H 	0.4509	0.126	0.9004	0.187
Mof_C 	C 	0.391	0.136	0.893	0.397
Mof_H 	H 	0.3915	0.165	0.922	-0.048
Mof_H 	H 	0.3885	0.1846	0.8713	-0.069
Mof_C 	C 	0.354	0.077	0.882	-0.6
Mof_H 	H 	0.3306	0.1143	0.879	0.068
Mof_H 	H 	0.3545	0.0322	0.9055	-0.009
Mof_C 	C 	0.2711	0.33	0.8567	-0.509
Mof_H 	H 	0.2814	0.374	0.88	0.16
Mof_H 	H 	0.2873	0.2746	0.8621	0.178
Mof_C 	C 	0.2283	0.307	0.857	0.531
Mof_H 	H 	0.2244	0.2411	0.8524	-0.349
Mof_H 	H 	0.2233	0.3219	0.8858	-0.116
Mof_C 	C 	0.1985	0.357	0.822	-0.769
Mof_H 	H 	0.1729	0.3563	0.8304	0.269
Mof_H 	H 	0.1955	0.324	0.794	0.236
Mof_C 	C 	0.211	0.454	0.816	0.716
Mof_H 	H 	0.2103	0.4889	0.8429	-0.162
Mof_H 	H 	0.1914	0.4822	0.7919	-0.186
Mof_C 	C 	0.251	0.461	0.806	-1.194
Mof_H 	H 	0.2491	0.4818	0.7756	0.403
Mof_H 	H 	0.2671	0.5062	0.8255	1.069
Mof_C 	C 	0.273	0.37	0.812	0.438
Mof_H 	H 	0.3	0.3781	0.8098	-0.099
Mof_H 	H 	0.2599	0.3279	0.7886	-0.078
Mof_H 	H 	0.0055	0.8436	0.3947	0.308
Mof_Zn	Zn	0.17019	0.60991	0.52292	1.155
Mof_Zn	Zn	0.0818	0.1252	0.84009	1.152
Mof_Zn	Zn	0.87457	0.84772	0.69057	1.174
Mof_Zn	Zn	0.58781	0.87561	0.33791	1.16
Mof_Zn	Zn	0.37449	0.15709	0.18674	1.157
Mof_Zn	Zn	0.16932	0.8939	0.01812	1.161
Mof_I 	I 	0.5294	0.90739	0.36935	-0.331
Mof_I 	I 	0.62426	0.99009	0.30505	-0.394
Mof_N 	N 	0.138	0.5959	0.571	-0.271
Mof_C 	C 	0.1512	0.545	0.6066	0.068
Mof_H 	H 	0.1766	0.5193	0.6108	0.028
Mof_C 	C 	0.1296	0.5289	0.6368	-0.104
Mof_H 	H 	0.1392	0.49	0.6607	0.085
Mof_C 	C 	0.0931	0.5699	0.6325	0.063
Mof_C 	C 	0.0815	0.6274	0.5971	-0.109
Mof_H 	H 	0.0582	0.6616	0.5941	0.091
Mof_C 	C 	0.1046	0.6348	0.5655	0.083
Mof_H 	H 	0.0952	0.6691	0.5398	-0.024
Mof_N 	N 	0.0699	0.2338	0.7958	-0.262
Mof_C 	C 	0.0377	0.2845	0.7931	0.055
Mof_H 	H 	0.0186	0.2673	0.8089	-0.011
Mof_C 	C 	0.0319	0.3617	0.7672	-0.103
Mof_H 	H 	0.0087	0.3963	0.7647	0.062
Mof_C 	C 	0.0599	0.3874	0.7454	0.048
Mof_C 	C 	0.0935	0.3378	0.7501	-0.111
Mof_H 	H 	0.1139	0.3585	0.7371	0.064
Mof_C 	C 	0.0979	0.2586	0.7732	0.044
Mof_H 	H 	0.12	0.2212	0.7737	-0.028
Mof_N 	N 	0.9214	0.7616	0.6934	-0.27
Mof_C 	C 	0.9365	0.7104	0.7284	0.067
Mof_H 	H 	0.9244	0.7109	0.7527	-0.003
Mof_C 	C 	0.9691	0.657	0.7301	-0.115
Mof_H 	H 	0.9796	0.6229	0.7555	0.071
Mof_C 	C 	0.9862	0.6537	0.6946	0.049
Mof_C 	C 	0.9695	0.7019	0.6577	-0.107
Mof_H 	H 	0.9796	0.6985	0.632	0.071
Mof_C 	C 	0.9368	0.7567	0.6594	0.072
Mof_H 	H 	0.9256	0.7917	0.6345	-0.02
Mof_C 	C 	0.0691	0.5526	0.6641	0.103
Mof_N 	N 	0.0763	0.4776	0.6901	-0.137
Mof_C 	C 	0.0547	0.4691	0.7184	0.097
Mof_N 	N 	0.0258	0.5267	0.7232	-0.146
Mof_C 	C 	0.0192	0.5957	0.6943	0.097
Mof_N 	N 	0.0394	0.6103	0.6641	-0.128
Mof_N 	N 	0.8317	0.7841	0.6445	-0.261
Mof_C 	C 	0.823	0.701	0.6511	0.072
Mof_H 	H 	0.8361	0.672	0.6771	-0.01
Mof_C 	C 	0.7944	0.6518	0.6212	-0.108
Mof_H 	H 	0.7896	0.5898	0.6257	0.066
Mof_C 	C 	0.7736	0.6983	0.5846	0.05
Mof_C 	C 	0.7846	0.7843	0.5782	-0.114
Mof_H 	H 	0.7718	0.8163	0.5529	0.098
Mof_C 	C 	0.8137	0.825	0.6075	0.082
Mof_H 	H 	0.8215	0.8844	0.6016	0.04
Mof_N 	N 	0.6264	0.8074	0.3862	-0.293
Mof_C 	C 	0.6215	0.7222	0.392	0.003
Mof_H 	H 	0.6011	0.6926	0.372	-0.006
Mof_C 	C 	0.6435	0.6711	0.4247	-0.14
Mof_H 	H 	0.6393	0.6079	0.4263	0.101
Mof_C 	C 	0.6721	0.7142	0.4555	0.022
Mof_C 	C 	0.6784	0.8043	0.451	-0.136
Mof_H 	H 	0.698	0.8352	0.4715	0.076
Mof_C 	C 	0.6553	0.8507	0.415	-0.043
Mof_H 	H 	0.6601	0.9129	0.411	0.013
Mof_N 	N 	0.684	0.2472	0.5271	-0.267
Mof_C 	C 	0.6582	0.3043	0.5031	0.057
Mof_H 	H 	0.6347	0.2806	0.4861	-0.015
Mof_C 	C 	0.6647	0.395	0.5023	-0.114
Mof_H 	H 	0.647	0.4332	0.4833	0.079
Mof_C 	C 	0.6979	0.4306	0.5301	0.048
Mof_C 	C 	0.7245	0.3712	0.5553	-0.13
Mof_H 	H 	0.7479	0.3924	0.5736	0.018
Mof_C 	C 	0.7153	0.2798	0.5525	0.063
Mof_H 	H 	0.7328	0.2389	0.5701	-0.045
Mof_C 	C 	0.7426	0.6513	0.5527	0.088
Mof_N 	N 	0.7364	0.5636	0.5584	-0.148
Mof_C 	C 	0.7069	0.5293	0.5289	0.098
Mof_N 	N 	0.6845	0.5754	0.4962	-0.135
Mof_C 	C 	0.6939	0.6618	0.4932	0.104
Mof_N 	N 	0.7232	0.7052	0.5204	-0.141
Mof_N 	N 	0.5733	0.7701	0.2947	-0.311
Mof_C 	C 	0.543	0.7203	0.2922	0.105
Mof_H 	H 	0.5248	0.7365	0.3093	-0.061
Mof_C 	C 	0.535	0.6415	0.2652	-0.172
Mof_H 	H 	0.5118	0.6075	0.2641	0.081
Mof_C 	C 	0.5604	0.6167	0.2415	0.09
Mof_C 	C 	0.5933	0.6741	0.2409	-0.213
Mof_H 	H 	0.611	0.6638	0.2224	0.098
Mof_C 	C 	0.5967	0.745	0.2695	0.1
Mof_H 	H 	0.6193	0.7813	0.2713	-0.163
Mof_N 	N 	0.4216	0.2419	0.1901	-0.281
Mof_C 	C 	0.4384	0.2849	0.2266	0.058
Mof_H 	H 	0.4286	0.2769	0.2523	-0.019
Mof_C 	C 	0.4701	0.3411	0.2274	-0.118
Mof_H 	H 	0.4817	0.3724	0.2533	0.036
Mof_C 	C 	0.4848	0.3514	0.1905	0.051
Mof_C 	C 	0.4661	0.3051	0.1553	-0.141
Mof_H 	H 	0.4751	0.3104	0.129	0.089
Mof_C 	C 	0.4353	0.2521	0.1555	0.095
Mof_H 	H 	0.4232	0.2212	0.1295	-0.03
Mof_N 	N 	0.6379	0.4104	0.0659	-0.299
Mof_C 	C 	0.6069	0.3624	0.0696	0.123
Mof_H 	H 	0.6007	0.3124	0.0504	-0.003
Mof_C 	C 	0.5842	0.376	0.0963	-0.194
Mof_H 	H 	0.5616	0.3394	0.0945	0.12
Mof_C 	C 	0.5922	0.4397	0.1259	0.125
Mof_C 	C 	0.6228	0.485	0.1247	-0.181
Mof_H 	H 	0.6309	0.5283	0.147	0.103
Mof_C 	C 	0.6449	0.476	0.0944	0.097
Mof_H 	H 	0.6654	0.5177	0.0938	-0.018
Mof_C 	C 	0.5539	0.5332	0.2137	0.079
Mof_N 	N 	0.5268	0.4778	0.2195	-0.154
Mof_C 	C 	0.5195	0.4129	0.1899	0.093
Mof_N 	N 	0.5392	0.3963	0.1595	-0.136
Mof_C 	C 	0.5668	0.4537	0.1582	0.09
Mof_N 	N 	0.5763	0.5249	0.1839	-0.134
Mof_N 	N 	0.3325	0.22	0.1404	-0.27
Mof_C 	C 	0.3113	0.1749	0.1062	0.055
Mof_H 	H 	0.3171	0.1134	0.1018	-0.012
Mof_C 	C 	0.281	0.2175	0.0771	-0.109
Mof_H 	H 	0.266	0.1849	0.0533	0.075
Mof_C 	C 	0.2724	0.3095	0.0833	0.032
Mof_C 	C 	0.2945	0.3523	0.1186	-0.113
Mof_H 	H 	0.2895	0.4139	0.1238	0.081
Mof_C 	C 	0.3228	0.3096	0.1457	0.059
Mof_H 	H 	0.3372	0.3419	0.17	0.002
Mof_N 	N 	0.1817	0.7583	0.0241	-0.279
Mof_C 	C 	0.1574	0.6988	0.0005	0.073
Mof_H 	H 	0.1347	0.7218	0.9814	-0.011
Mof_C 	C 	0.1627	0.6053	0.0018	-0.127
Mof_H 	H 	0.1436	0.5654	0.9857	0.106
Mof_C 	C 	0.1972	0.574	0.0277	0.065
Mof_C 	C 	0.2221	0.6333	0.0522	-0.131
Mof_H 	H 	0.245	0.6115	0.0713	0.085
Mof_C 	C 	0.2148	0.7243	0.0496	0.062
Mof_H 	H 	0.2333	0.7645	0.0662	-0.005
Mof_N 	N 	0.1213	0.193	0.8883	-0.279
Mof_C 	C 	0.1517	0.1557	0.9145	0.08
Mof_H 	H 	0.1581	0.0952	0.9089	-0.038
Mof_C 	C 	0.1744	0.1996	0.9492	-0.146
Mof_H 	H 	0.1957	0.1694	0.9675	0.068
Mof_C 	C 	0.1661	0.2881	0.9572	0.057
Mof_C 	C 	0.1349	0.3288	0.931	-0.135
Mof_H 	H 	0.1282	0.3895	0.936	0.104
Mof_C 	C 	0.1129	0.2795	0.8966	0.063
Mof_H 	H 	0.0911	0.3077	0.8782	-0.007
Mof_C 	C 	0.2398	0.3518	0.0515	0.095
Mof_N 	N 	0.2204	0.3027	0.02	-0.15
Mof_C 	C 	0.191	0.3402	0.9934	0.095
Mof_N 	N 	0.1806	0.4275	0.9955	-0.128
Mof_C 	C 	0.2045	0.4758	0.027	0.095
Mof_N 	N 	0.2342	0.4397	0.0568	-0.143
Mof_I 	I 	0.12472	0.58981	0.44757	-0.305
Mof_I 	I 	0.23041	0.5141	0.54615	0.126
Mof_I 	I 	0.0221	0.1036	0.87864	-0.401
Mof_I 	I 	0.11411	0.0074	0.8052	-0.128
Mof_I 	I 	0.8527	0.8458	0.7643	-0.34
Mof_I 	I 	0.8954	0.9886	0.65534	-0.443
Mof_I 	I 	0.3967	0.0102	0.1499	-0.351
Mof_I 	I 	0.3535	0.174	0.2584	-0.182
Mof_I 	I 	0.1208	0.9059	0.9432	-0.246
Mof_I 	I 	0.22999	0.9873	0.0377	-0.042
Mof_I 	I 	0.1272	0.5776	0.4573	-0.083
Mof_I 	I 	0.2399	0.5259	0.5573	-0.331
Mof_I 	I 	0.0306	0.103	0.8713	-0.002
Mof_I 	I 	0.1215	0.0147	0.797	-0.303
Mof_I 	I 	0.8566	0.8517	0.7537	0.018
Mof_I 	I 	0.8843	0.0005	0.6541	0.141
Mof_I 	I 	0.385	0.0171	0.1539	-0.091
Mof_I 	I 	0.3521	0.1544	0.2575	-0.14
Mof_I 	I 	0.1289	0.9326	0.9476	-0.086
Mof_I 	I 	0.2332	0.9846	0.0548	-0.229
Mof_Zn	Zn	0.67019	0.10991	0.52292	1.154
Mof_Zn	Zn	0.5818	0.6252	0.84009	1.153
Mof_Zn	Zn	0.37457	0.34772	0.69057	1.166
Mof_Zn	Zn	0.08781	0.37561	0.33791	1.16
Mof_Zn	Zn	0.87449	0.65709	0.18674	1.159
Mof_Zn	Zn	0.66932	0.3939	0.01812	1.157
Mof_I 	I 	0.0294	0.40739	0.36935	-0.345
Mof_I 	I 	0.12426	0.49009	0.30505	-0.492
Mof_N 	N 	0.638	0.0959	0.571	-0.297
Mof_C 	C 	0.6512	0.045	0.6066	0.164
Mof_H 	H 	0.6766	0.0193	0.6108	-0.018
Mof_C 	C 	0.6296	0.0289	0.6368	-0.319
Mof_H 	H 	0.6392	0.99	0.6607	0.218
Mof_C 	C 	0.5931	0.0699	0.6325	0.147
Mof_C 	C 	0.5815	0.1274	0.5971	-0.177
Mof_H 	H 	0.5582	0.1616	0.5941	0.088
Mof_C 	C 	0.6046	0.1348	0.5655	0.109
Mof_H 	H 	0.5952	0.1691	0.5398	-0.036
Mof_N 	N 	0.5699	0.7338	0.7958	-0.258
Mof_C 	C 	0.5377	0.7845	0.7931	0.045
Mof_H 	H 	0.5186	0.7673	0.8089	-0.016
Mof_C 	C 	0.5319	0.8617	0.7672	-0.093
Mof_H 	H 	0.5087	0.8963	0.7647	0.067
Mof_C 	C 	0.5599	0.8874	0.7454	0.029
Mof_C 	C 	0.5935	0.8378	0.7501	-0.094
Mof_H 	H 	0.6139	0.8585	0.7371	0.077
Mof_C 	C 	0.5979	0.7586	0.7732	0.041
Mof_H 	H 	0.62	0.7212	0.7737	-0.002
Mof_N 	N 	0.4214	0.2616	0.6934	-0.275
Mof_C 	C 	0.4365	0.2104	0.7284	0.058
Mof_H 	H 	0.4244	0.2109	0.7527	0.004
Mof_C 	C 	0.4691	0.157	0.7301	-0.121
Mof_H 	H 	0.4796	0.1229	0.7555	0.066
Mof_C 	C 	0.4862	0.1537	0.6946	0.037
Mof_C 	C 	0.4695	0.2019	0.6577	-0.128
Mof_H 	H 	0.4796	0.1985	0.632	0.08
Mof_C 	C 	0.4368	0.2567	0.6594	0.072
Mof_H 	H 	0.4256	0.2917	0.6345	-0.022
Mof_C 	C 	0.5691	0.0526	0.6641	0.005
Mof_N 	N 	0.5763	0.9776	0.6901	-0.098
Mof_C 	C 	0.5547	0.9691	0.7184	0.164
Mof_N 	N 	0.5258	0.0267	0.7232	-0.192
Mof_C 	C 	0.5192	0.0957	0.6943	0.08
Mof_N 	N 	0.5394	0.1103	0.6641	-0.133
Mof_N 	N 	0.3317	0.2841	0.6445	-0.263
Mof_C 	C 	0.323	0.201	0.6511	0.059
Mof_H 	H 	0.3361	0.172	0.6771	-0.012
Mof_C 	C 	0.2944	0.1518	0.6212	-0.106
Mof_H 	H 	0.2896	0.0898	0.6257	0.046
Mof_C 	C 	0.2736	0.1983	0.5846	0.042
Mof_C 	C 	0.2846	0.2843	0.5782	-0.115
Mof_H 	H 	0.2718	0.3163	0.5529	0.086
Mof_C 	C 	0.3137	0.325	0.6075	0.073
Mof_H 	H 	0.3215	0.3844	0.6016	0.025
Mof_N 	N 	0.1264	0.3074	0.3862	-0.293
Mof_C 	C 	0.1215	0.2222	0.392	-0.005
Mof_H 	H 	0.1011	0.1926	0.372	-0.005
Mof_C 	C 	0.1435	0.1711	0.4247	-0.136
Mof_H 	H 	0.1393	0.1079	0.4263	0.083
Mof_C 	C 	0.1721	0.2142	0.4555	0.012
Mof_C 	C 	0.1784	0.3043	0.451	-0.137
Mof_H 	H 	0.198	0.3352	0.4715	0.063
Mof_C 	C 	0.1553	0.3507	0.415	-0.051
Mof_H 	H 	0.1601	0.4129	0.411	-0.004
Mof_N 	N 	0.184	0.7472	0.5271	-0.28
Mof_C 	C 	0.1582	0.8043	0.5031	0.095
Mof_H 	H 	0.1347	0.7806	0.4861	-0.025
Mof_C 	C 	0.1647	0.895	0.5023	-0.173
Mof_H 	H 	0.147	0.9332	0.4833	0.123
Mof_C 	C 	0.1979	0.9306	0.5301	0.167
Mof_C 	C 	0.2245	0.8712	0.5553	-0.183
Mof_H 	H 	0.2479	0.8924	0.5736	0.056
Mof_C 	C 	0.2153	0.7798	0.5525	0.099
Mof_H 	H 	0.2328	0.7389	0.5701	-0.055
Mof_C 	C 	0.2426	0.1513	0.5527	0.083
Mof_N 	N 	0.2364	0.0636	0.5584	-0.146
Mof_C 	C 	0.2069	0.0293	0.5289	0.002
Mof_N 	N 	0.1845	0.0754	0.4962	-0.137
Mof_C 	C 	0.1939	0.1618	0.4932	0.097
Mof_N 	N 	0.2232	0.2052	0.5204	-0.143
Mof_N 	N 	0.0733	0.2701	0.2947	-0.304
Mof_C 	C 	0.043	0.2203	0.2922	0.079
Mof_H 	H 	0.0248	0.2365	0.3093	0.012
Mof_C 	C 	0.035	0.1415	0.2652	-0.153
Mof_H 	H 	0.0118	0.1075	0.2641	0.063
Mof_C 	C 	0.0604	0.1167	0.2415	0.087
Mof_C 	C 	0.0933	0.1741	0.2409	-0.216
Mof_H 	H 	0.111	0.1638	0.2224	0.096
Mof_C 	C 	0.0967	0.245	0.2695	0.096
Mof_H 	H 	0.1193	0.2813	0.2713	-0.166
Mof_N 	N 	0.9216	0.7419	0.1901	-0.29
Mof_C 	C 	0.9384	0.7849	0.2266	0.107
Mof_H 	H 	0.9286	0.7769	0.2523	-0.006
Mof_C 	C 	0.9701	0.8411	0.2274	-0.149
Mof_H 	H 	0.9817	0.8724	0.2533	0.142
Mof_C 	C 	0.9848	0.8514	0.1905	0.087
Mof_C 	C 	0.9661	0.8051	0.1553	-0.158
Mof_H 	H 	0.9751	0.8104	0.129	0.098
Mof_C 	C 	0.9353	0.7521	0.1555	0.113
Mof_H 	H 	0.9232	0.7212	0.1295	-0.034
Mof_N 	N 	0.1379	0.9104	0.0659	-0.295
Mof_C 	C 	0.1069	0.8624	0.0696	0.091
Mof_H 	H 	0.1007	0.8124	0.0504	0.003
Mof_C 	C 	0.0842	0.876	0.0963	-0.129
Mof_H 	H 	0.0616	0.8394	0.0945	0.097
Mof_C 	C 	0.0922	0.9397	0.1259	0.039
Mof_C 	C 	0.1228	0.985	0.1247	-0.022
Mof_H 	H 	0.1309	0.0283	0.147	0.004
Mof_C 	C 	0.1449	0.976	0.0944	0.162
Mof_H 	H 	0.1654	0.0177	0.0938	-0.092
Mof_C 	C 	0.0539	0.0332	0.2137	0.006
Mof_N 	N 	0.0268	0.9778	0.2195	-0.094
Mof_C 	C 	0.0195	0.9129	0.1899	0.103
Mof_N 	N 	0.0392	0.8963	0.1595	-0.147
Mof_C 	C 	0.0668	0.9537	0.1582	0.191
Mof_N 	N 	0.0763	0.0249	0.1839	-0.174
Mof_N 	N 	0.8325	0.72	0.1404	-0.269
Mof_C 	C 	0.8113	0.6749	0.1062	0.058
Mof_H 	H 	0.8171	0.6134	0.1018	0.004
Mof_C 	C 	0.781	0.7175	0.0771	-0.11
Mof_H 	H 	0.766	0.6849	0.0533	0.087
Mof_C 	C 	0.7724	0.8095	0.0833	0.039
Mof_C 	C 	0.7945	0.8523	0.1186	-0.117
Mof_H 	H 	0.7895	0.9139	0.1238	0.103
Mof_C 	C 	0.8228	0.8096	0.1457	0.063
Mof_H 	H 	0.8372	0.8419	0.17	0.014
Mof_N 	N 	0.6817	0.2583	0.0241	-0.267
Mof_C 	C 	0.6574	0.1988	0.0005	0.044
Mof_H 	H 	0.6347	0.2218	0.9814	-0
Mof_C 	C 	0.6627	0.1053	0.0018	-0.069
Mof_H 	H 	0.6436	0.0654	0.9857	0.073
Mof_C 	C 	0.6972	0.074	0.0277	-0.053
Mof_C 	C 	0.7221	0.1333	0.0522	-0.068
Mof_H 	H 	0.745	0.1115	0.0713	0.049
Mof_C 	C 	0.7148	0.2243	0.0496	0.023
Mof_H 	H 	0.7333	0.2645	0.0662	0.006
Mof_N 	N 	0.6213	0.693	0.8883	-0.278
Mof_C 	C 	0.6517	0.6557	0.9145	0.085
Mof_H 	H 	0.6581	0.5952	0.9089	-0.022
Mof_C 	C 	0.6744	0.6996	0.9492	-0.148
Mof_H 	H 	0.6957	0.6694	0.9675	0.08
Mof_C 	C 	0.6661	0.7881	0.9572	0.066
Mof_C 	C 	0.6349	0.8288	0.931	-0.141
Mof_H 	H 	0.6282	0.8895	0.936	0.126
Mof_C 	C 	0.6129	0.7795	0.8966	0.073
Mof_H 	H 	0.5911	0.8077	0.8782	-0.003
Mof_C 	C 	0.7398	0.8518	0.0515	0.095
Mof_N 	N 	0.7204	0.8027	0.02	-0.149
Mof_C 	C 	0.691	0.8402	0.9934	0.095
Mof_N 	N 	0.6806	0.9275	0.9955	-0.127
Mof_C 	C 	0.7045	0.9758	0.027	0.186
Mof_N 	N 	0.7342	0.9397	0.0568	-0.14
Mof_I 	I 	0.62472	0.08981	0.44757	-0.33
Mof_I 	I 	0.73041	0.0141	0.54615	0.114
Mof_I 	I 	0.5221	0.6036	0.87864	-0.387
Mof_I 	I 	0.61411	0.5074	0.8052	-0.055
Mof_I 	I 	0.3527	0.3458	0.7643	-0.36
Mof_I 	I 	0.3954	0.4886	0.65534	-0.073
Mof_I 	I 	0.8967	0.5102	0.1499	-0.315
Mof_I 	I 	0.8535	0.674	0.2584	-0.155
Mof_I 	I 	0.6208	0.4059	0.9432	-0.298
Mof_I 	I 	0.72999	0.4873	0.0377	-0.077
Mof_I 	I 	0.6272	0.0776	0.4573	-0.103
Mof_I 	I 	0.7399	0.0259	0.5573	-0.366
Mof_I 	I 	0.5306	0.603	0.8713	0.022
Mof_I 	I 	0.6215	0.5147	0.797	-0.288
Mof_I 	I 	0.3566	0.3517	0.7537	0.006
Mof_I 	I 	0.3843	0.5005	0.6541	-0.207
Mof_I 	I 	0.885	0.5171	0.1539	-0.052
Mof_I 	I 	0.8521	0.6544	0.2575	-0.137
Mof_I 	I 	0.6289	0.4326	0.9476	-0.089
Mof_I 	I 	0.7332	0.4846	0.0548	-0.262
Mof_Zn	Zn	0.82981	0.60991	0.47708	1.155
Mof_Zn	Zn	0.9182	0.1252	0.15991	1.152
Mof_Zn	Zn	0.12543	0.84772	0.30943	1.174
Mof_Zn	Zn	0.41219	0.87561	0.66209	1.16
Mof_Zn	Zn	0.62551	0.15709	0.81326	1.157
Mof_Zn	Zn	0.83068	0.8939	0.98188	1.161
Mof_I 	I 	0.4706	0.90739	0.63065	-0.331
Mof_I 	I 	0.37574	0.99009	0.69495	-0.394
Mof_N 	N 	0.862	0.5959	0.429	-0.271
Mof_C 	C 	0.8488	0.545	0.3934	0.068
Mof_H 	H 	0.8234	0.5193	0.3892	0.028
Mof_C 	C 	0.8704	0.5289	0.3632	-0.104
Mof_H 	H 	0.8608	0.49	0.3393	0.085
Mof_C 	C 	0.9069	0.5699	0.3675	0.063
Mof_C 	C 	0.9185	0.6274	0.4029	-0.109
Mof_H 	H 	0.9418	0.6616	0.4059	0.091
Mof_C 	C 	0.8954	0.6348	0.4345	0.083
Mof_H 	H 	0.9048	0.6691	0.4602	-0.024
Mof_N 	N 	0.9301	0.2338	0.2042	-0.262
Mof_C 	C 	0.9623	0.2845	0.2069	0.055
Mof_H 	H 	0.9814	0.2673	0.1911	-0.011
Mof_C 	C 	0.9681	0.3617	0.2328	-0.103
Mof_H 	H 	0.9913	0.3963	0.2353	0.062
Mof_C 	C 	0.9401	0.3874	0.2546	0.048
Mof_C 	C 	0.9065	0.3378	0.2499	-0.111
Mof_H 	H 	0.8861	0.3585	0.2629	0.064
Mof_C 	C 	0.9021	0.2586	0.2268	0.044
Mof_H 	H 	0.88	0.2212	0.2263	-0.028
Mof_N 	N 	0.0786	0.7616	0.3066	-0.27
Mof_C 	C 	0.0635	0.7104	0.2716	0.067
Mof_H 	H 	0.0756	0.7109	0.2473	-0.003
Mof_C 	C 	0.0309	0.657	0.2699	-0.115
Mof_H 	H 	0.0204	0.6229	0.2445	0.071
Mof_C 	C 	0.0138	0.6537	0.3054	0.049
Mof_C 	C 	0.0305	0.7019	0.3423	-0.107
Mof_H 	H 	0.0204	0.6985	0.368	0.071
Mof_C 	C 	0.0632	0.7567	0.3406	0.072
Mof_H 	H 	0.0744	0.7917	0.3655	-0.02
Mof_C 	C 	0.9309	0.5526	0.3359	0.103
Mof_N 	N 	0.9237	0.4776	0.3099	-0.137
Mof_C 	C 	0.9453	0.4691	0.2816	0.097
Mof_N 	N 	0.9742	0.5267	0.2768	-0.146
Mof_C 	C 	0.9808	0.5957	0.3057	0.097
Mof_N 	N 	0.9606	0.6103	0.3359	-0.128
Mof_N 	N 	0.1683	0.7841	0.3555	-0.261
Mof_C 	C 	0.177	0.701	0.3489	0.072
Mof_H 	H 	0.1639	0.672	0.3229	-0.01
Mof_C 	C 	0.2056	0.6518	0.3788	-0.108
Mof_H 	H 	0.2104	0.5898	0.3743	0.066
Mof_C 	C 	0.2264	0.6983	0.4154	0.05
Mof_C 	C 	0.2154	0.7843	0.4218	-0.114
Mof_H 	H 	0.2282	0.8163	0.4471	0.098
Mof_C 	C 	0.1863	0.825	0.3925	0.082
Mof_H 	H 	0.1785	0.8844	0.3984	0.04
Mof_N 	N 	0.3736	0.8074	0.6138	-0.293
Mof_C 	C 	0.3785	0.7222	0.608	0.003
Mof_H 	H 	0.3989	0.6926	0.628	-0.006
Mof_C 	C 	0.3565	0.6711	0.5753	-0.14
Mof_H 	H 	0.3607	0.6079	0.5737	0.101
Mof_C 	C 	0.3279	0.7142	0.5445	0.022
Mof_C 	C 	0.3216	0.8043	0.549	-0.136
Mof_H 	H 	0.302	0.8352	0.5285	0.076
Mof_C 	C 	0.3447	0.8507	0.585	-0.043
Mof_H 	H 	0.3399	0.9129	0.589	0.013
Mof_N 	N 	0.316	0.2472	0.4729	-0.267
Mof_C 	C 	0.3418	0.3043	0.4969	0.057
Mof_H 	H 	0.3653	0.2806	0.5139	-0.015
Mof_C 	C 	0.3353	0.395	0.4977	-0.114
Mof_H 	H 	0.353	0.4332	0.5167	0.079
Mof_C 	C 	0.3021	0.4306	0.4699	0.048
Mof_C 	C 	0.2755	0.3712	0.4447	-0.13
Mof_H 	H 	0.2521	0.3924	0.4264	0.018
Mof_C 	C 	0.2847	0.2798	0.4475	0.063
Mof_H 	H 	0.2672	0.2389	0.4299	-0.045
Mof_C 	C 	0.2574	0.6513	0.4473	0.088
Mof_N 	N 	0.2636	0.5636	0.4416	-0.148
Mof_C 	C 	0.2931	0.5293	0.4711	0.098
Mof_N 	N 	0.3155	0.5754	0.5038	-0.135
Mof_C 	C 	0.3061	0.6618	0.5068	0.104
Mof_N 	N 	0.2768	0.7052	0.4796	-0.141
Mof_N 	N 	0.4267	0.7701	0.7053	-0.311
Mof_C 	C 	0.457	0.7203	0.7078	0.105
Mof_H 	H 	0.4752	0.7365	0.6907	-0.061
Mof_C 	C 	0.465	0.6415	0.7348	-0.172
Mof_H 	H 	0.4882	0.6075	0.7359	0.081
Mof_C 	C 	0.4396	0.6167	0.7585	0.09
Mof_C 	C 	0.4067	0.6741	0.7591	-0.213
Mof_H 	H 	0.389	0.6638	0.7776	0.098
Mof_C 	C 	0.4033	0.745	0.7305	0.1
Mof_H 	H 	0.3807	0.7813	0.7287	-0.163
Mof_N 	N 	0.5784	0.2419	0.8099	-0.281
Mof_C 	C 	0.5616	0.2849	0.7734	0.058
Mof_H 	H 	0.5714	0.2769	0.7477	-0.019
Mof_C 	C 	0.5299	0.3411	0.7726	-0.118
Mof_H 	H 	0.5183	0.3724	0.7467	0.036
Mof_C 	C 	0.5152	0.3514	0.8095	0.051
Mof_C 	C 	0.5339	0.3051	0.8447	-0.141
Mof_H 	H 	0.5249	0.3104	0.871	0.089
Mof_C 	C 	0.5647	0.2521	0.8445	0.095
Mof_H 	H 	0.5768	0.2212	0.8705	-0.03
Mof_N 	N 	0.3621	0.4104	0.9341	-0.299
Mof_C 	C 	0.3931	0.3624	0.9304	0.123
Mof_H 	H 	0.3993	0.3124	0.9496	-0.003
Mof_C 	C 	0.4158	0.376	0.9037	-0.194
Mof_H 	H 	0.4384	0.3394	0.9055	0.12
Mof_C 	C 	0.4078	0.4397	0.8741	0.125
Mof_C 	C 	0.3772	0.485	0.8753	-0.181
Mof_H 	H 	0.3691	0.5283	0.853	0.103
Mof_C 	C 	0.3551	0.476	0.9056	0.097
Mof_H 	H 	0.3346	0.5177	0.9062	-0.018
Mof_C 	C 	0.4461	0.5332	0.7863	0.079
Mof_N 	N 	0.4732	0.4778	0.7805	-0.154
Mof_C 	C 	0.4805	0.4129	0.8101	0.093
Mof_N 	N 	0.4608	0.3963	0.8405	-0.136
Mof_C 	C 	0.4332	0.4537	0.8418	0.09
Mof_N 	N 	0.4237	0.5249	0.8161	-0.134
Mof_N 	N 	0.6675	0.22	0.8596	-0.27
Mof_C 	C 	0.6887	0.1749	0.8938	0.055
Mof_H 	H 	0.6829	0.1134	0.8982	-0.012
Mof_C 	C 	0.719	0.2175	0.9229	-0.109
Mof_H 	H 	0.734	0.1849	0.9467	0.075
Mof_C 	C 	0.7276	0.3095	0.9167	0.032
Mof_C 	C 	0.7055	0.3523	0.8814	-0.113
Mof_H 	H 	0.7105	0.4139	0.8762	0.081
Mof_C 	C 	0.6772	0.3096	0.8543	0.059
Mof_H 	H 	0.6628	0.3419	0.83	0.002
Mof_N 	N 	0.8183	0.7583	0.9759	-0.279
Mof_C 	C 	0.8426	0.6988	0.9995	0.073
Mof_H 	H 	0.8653	0.7218	0.0186	-0.011
Mof_C 	C 	0.8373	0.6053	0.9982	-0.127
Mof_H 	H 	0.8564	0.5654	0.0143	0.106
Mof_C 	C 	0.8028	0.574	0.9723	0.065
Mof_C 	C 	0.7779	0.6333	0.9478	-0.131
Mof_H 	H 	0.755	0.6115	0.9287	0.085
Mof_C 	C 	0.7852	0.7243	0.9504	0.062
Mof_H 	H 	0.7667	0.7645	0.9338	-0.005
Mof_N 	N 	0.8787	0.193	0.1117	-0.279
Mof_C 	C 	0.8483	0.1557	0.0855	0.08
Mof_H 	H 	0.8419	0.0952	0.0911	-0.038
Mof_C 	C 	0.8256	0.1996	0.0508	-0.146
Mof_H 	H 	0.8043	0.1694	0.0325	0.068
Mof_C 	C 	0.8339	0.2881	0.0428	0.057
Mof_C 	C 	0.8651	0.3288	0.069	-0.135
Mof_H 	H 	0.8718	0.3895	0.064	0.104
Mof_C 	C 	0.8871	0.2795	0.1034	0.063
Mof_H 	H 	0.9089	0.3077	0.1218	-0.007
Mof_C 	C 	0.7602	0.3518	0.9485	0.095
Mof_N 	N 	0.7796	0.3027	0.98	-0.15
Mof_C 	C 	0.809	0.3402	0.0066	0.095
Mof_N 	N 	0.8194	0.4275	0.0045	-0.128
Mof_C 	C 	0.7955	0.4758	0.973	0.095
Mof_N 	N 	0.7658	0.4397	0.9432	-0.143
Mof_I 	I 	0.87528	0.58981	0.55243	-0.305
Mof_I 	I 	0.76959	0.5141	0.45385	0.126
Mof_I 	I 	0.9779	0.1036	0.12136	-0.401
Mof_I 	I 	0.88589	0.0074	0.1948	-0.128
Mof_I 	I 	0.1473	0.8458	0.2357	-0.34
Mof_I 	I 	0.1046	0.9886	0.34466	-0.443
Mof_I 	I 	0.6033	0.0102	0.8501	-0.351
Mof_I 	I 	0.6465	0.174	0.7416	-0.182
Mof_I 	I 	0.8792	0.9059	0.0568	-0.246
Mof_I 	I 	0.77001	0.9873	0.9623	-0.042
Mof_I 	I 	0.8728	0.5776	0.5427	-0.083
Mof_I 	I 	0.7601	0.5259	0.4427	-0.331
Mof_I 	I 	0.9694	0.103	0.1287	-0.002
Mof_I 	I 	0.8785	0.0147	0.203	-0.303
Mof_I 	I 	0.1434	0.8517	0.2463	0.018
Mof_I 	I 	0.1157	0.0005	0.3459	0.141
Mof_I 	I 	0.615	0.0171	0.8461	-0.091
Mof_I 	I 	0.6479	0.1544	0.7425	-0.14
Mof_I 	I 	0.8711	0.9326	0.0524	-0.086
Mof_I 	I 	0.7668	0.9846	0.9452	-0.229
Mof_Zn	Zn	0.32981	0.10991	0.47708	1.154
Mof_Zn	Zn	0.4182	0.6252	0.15991	1.153
Mof_Zn	Zn	0.62543	0.34772	0.30943	1.166
Mof_Zn	Zn	0.91219	0.37561	0.66209	1.16
Mof_Zn	Zn	0.12551	0.65709	0.81326	1.159
Mof_Zn	Zn	0.33068	0.3939	0.98188	1.157
Mof_I 	I 	0.9706	0.40739	0.63065	-0.345
Mof_I 	I 	0.87574	0.49009	0.69495	-0.492
Mof_N 	N 	0.362	0.0959	0.429	-0.297
Mof_C 	C 	0.3488	0.045	0.3934	0.164
Mof_H 	H 	0.3234	0.0193	0.3892	-0.018
Mof_C 	C 	0.3704	0.0289	0.3632	-0.319
Mof_H 	H 	0.3608	0.99	0.3393	0.218
Mof_C 	C 	0.4069	0.0699	0.3675	0.147
Mof_C 	C 	0.4185	0.1274	0.4029	-0.177
Mof_H 	H 	0.4418	0.1616	0.4059	0.088
Mof_C 	C 	0.3954	0.1348	0.4345	0.109
Mof_H 	H 	0.4048	0.1691	0.4602	-0.036
Mof_N 	N 	0.4301	0.7338	0.2042	-0.258
Mof_C 	C 	0.4623	0.7845	0.2069	0.045
Mof_H 	H 	0.4814	0.7673	0.1911	-0.016
Mof_C 	C 	0.4681	0.8617	0.2328	-0.093
Mof_H 	H 	0.4913	0.8963	0.2353	0.067
Mof_C 	C 	0.4401	0.8874	0.2546	0.029
Mof_C 	C 	0.4065	0.8378	0.2499	-0.094
Mof_H 	H 	0.3861	0.8585	0.2629	0.077
Mof_C 	C 	0.4021	0.7586	0.2268	0.041
Mof_H 	H 	0.38	0.7212	0.2263	-0.002
Mof_N 	N 	0.5786	0.2616	0.3066	-0.275
Mof_C 	C 	0.5635	0.2104	0.2716	0.058
Mof_H 	H 	0.5756	0.2109	0.2473	0.004
Mof_C 	C 	0.5309	0.157	0.2699	-0.121
Mof_H 	H 	0.5204	0.1229	0.2445	0.066
Mof_C 	C 	0.5138	0.1537	0.3054	0.037
Mof_C 	C 	0.5305	0.2019	0.3423	-0.128
Mof_H 	H 	0.5204	0.1985	0.368	0.08
Mof_C 	C 	0.5632	0.2567	0.3406	0.072
Mof_H 	H 	0.5744	0.2917	0.3655	-0.022
Mof_C 	C 	0.4309	0.0526	0.3359	0.005
Mof_N 	N 	0.4237	0.9776	0.3099	-0.098
Mof_C 	C 	0.4453	0.9691	0.2816	0.164
Mof_N 	N 	0.4742	0.0267	0.2768	-0.192
Mof_C 	C 	0.4808	0.0957	0.3057	0.08
Mof_N 	N 	0.4606	0.1103	0.3359	-0.133
Mof_N 	N 	0.6683	0.2841	0.3555	-0.263
Mof_C 	C 	0.677	0.201	0.3489	0.059
Mof_H 	H 	0.6639	0.172	0.3229	-0.012
Mof_C 	C 	0.7056	0.1518	0.3788	-0.106
Mof_H 	H 	0.7104	0.0898	0.3743	0.046
Mof_C 	C 	0.7264	0.1983	0.4154	0.042
Mof_C 	C 	0.7154	0.2843	0.4218	-0.115
Mof_H 	H 	0.7282	0.3163	0.4471	0.086
Mof_C 	C 	0.6863	0.325	0.3925	0.073
Mof_H 	H 	0.6785	0.3844	0.3984	0.025
Mof_N 	N 	0.8736	0.3074	0.6138	-0.293
Mof_C 	C 	0.8785	0.2222	0.608	-0.005
Mof_H 	H 	0.8989	0.1926	0.628	-0.005
Mof_C 	C 	0.8565	0.1711	0.5753	-0.136
Mof_H 	H 	0.8607	0.1079	0.5737	0.083
Mof_C 	C 	0.8279	0.2142	0.5445	0.012
Mof_C 	C 	0.8216	0.3043	0.549	-0.137
Mof_H 	H 	0.802	0.3352	0.5285	0.063
Mof_C 	C 	0.8447	0.3507	0.585	-0.051
Mof_H 	H 	0.8399	0.4129	0.589	-0.004
Mof_N 	N 	0.816	0.7472	0.4729	-0.28
Mof_C 	C 	0.8418	0.8043	0.4969	0.095
Mof_H 	H 	0.8653	0.7806	0.5139	-0.025
Mof_C 	C 	0.8353	0.895	0.4977	-0.173
Mof_H 	H 	0.853	0.9332	0.5167	0.123
Mof_C 	C 	0.8021	0.9306	0.4699	0.167
Mof_C 	C 	0.7755	0.8712	0.4447	-0.183
Mof_H 	H 	0.7521	0.8924	0.4264	0.056
Mof_C 	C 	0.7847	0.7798	0.4475	0.099
Mof_H 	H 	0.7672	0.7389	0.4299	-0.055
Mof_C 	C 	0.7574	0.1513	0.4473	0.083
Mof_N 	N 	0.7636	0.0636	0.4416	-0.146
Mof_C 	C 	0.7931	0.0293	0.4711	0.002
Mof_N 	N 	0.8155	0.0754	0.5038	-0.137
Mof_C 	C 	0.8061	0.1618	0.5068	0.097
Mof_N 	N 	0.7768	0.2052	0.4796	-0.143
Mof_N 	N 	0.9267	0.2701	0.7053	-0.304
Mof_C 	C 	0.957	0.2203	0.7078	0.079
Mof_H 	H 	0.9752	0.2365	0.6907	0.012
Mof_C 	C 	0.965	0.1415	0.7348	-0.153
Mof_H 	H 	0.9882	0.1075	0.7359	0.063
Mof_C 	C 	0.9396	0.1167	0.7585	0.087
Mof_C 	C 	0.9067	0.1741	0.7591	-0.216
Mof_H 	H 	0.889	0.1638	0.7776	0.096
Mof_C 	C 	0.9033	0.245	0.7305	0.096
Mof_H 	H 	0.8807	0.2813	0.7287	-0.166
Mof_N 	N 	0.0784	0.7419	0.8099	-0.29
Mof_C 	C 	0.0616	0.7849	0.7734	0.107
Mof_H 	H 	0.0714	0.7769	0.7477	-0.006
Mof_C 	C 	0.0299	0.8411	0.7726	-0.149
Mof_H 	H 	0.0183	0.8724	0.7467	0.142
Mof_C 	C 	0.0152	0.8514	0.8095	0.087
Mof_C 	C 	0.0339	0.8051	0.8447	-0.158
Mof_H 	H 	0.0249	0.8104	0.871	0.098
Mof_C 	C 	0.0647	0.7521	0.8445	0.113
Mof_H 	H 	0.0768	0.7212	0.8705	-0.034
Mof_N 	N 	0.8621	0.9104	0.9341	-0.295
Mof_C 	C 	0.8931	0.8624	0.9304	0.091
Mof_H 	H 	0.8993	0.8124	0.9496	0.003
Mof_C 	C 	0.9158	0.876	0.9037	-0.129
Mof_H 	H 	0.9384	0.8394	0.9055	0.097
Mof_C 	C 	0.9078	0.9397	0.8741	0.039
Mof_C 	C 	0.8772	0.985	0.8753	-0.022
Mof_H 	H 	0.8691	0.0283	0.853	0.004
Mof_C 	C 	0.8551	0.976	0.9056	0.162
Mof_H 	H 	0.8346	0.0177	0.9062	-0.092
Mof_C 	C 	0.9461	0.0332	0.7863	0.006
Mof_N 	N 	0.9732	0.9778	0.7805	-0.094
Mof_C 	C 	0.9805	0.9129	0.8101	0.103
Mof_N 	N 	0.9608	0.8963	0.8405	-0.147
Mof_C 	C 	0.9332	0.9537	0.8418	0.191
Mof_N 	N 	0.9237	0.0249	0.8161	-0.174
Mof_N 	N 	0.1675	0.72	0.8596	-0.269
Mof_C 	C 	0.1887	0.6749	0.8938	0.058
Mof_H 	H 	0.1829	0.6134	0.8982	0.004
Mof_C 	C 	0.219	0.7175	0.9229	-0.11
Mof_H 	H 	0.234	0.6849	0.9467	0.087
Mof_C 	C 	0.2276	0.8095	0.9167	0.039
Mof_C 	C 	0.2055	0.8523	0.8814	-0.117
Mof_H 	H 	0.2105	0.9139	0.8762	0.103
Mof_C 	C 	0.1772	0.8096	0.8543	0.063
Mof_H 	H 	0.1628	0.8419	0.83	0.014
Mof_N 	N 	0.3183	0.2583	0.9759	-0.267
Mof_C 	C 	0.3426	0.1988	0.9995	0.044
Mof_H 	H 	0.3653	0.2218	0.0186	-0
Mof_C 	C 	0.3373	0.1053	0.9982	-0.069
Mof_H 	H 	0.3564	0.0654	0.0143	0.073
Mof_C 	C 	0.3028	0.074	0.9723	-0.053
Mof_C 	C 	0.2779	0.1333	0.9478	-0.068
Mof_H 	H 	0.255	0.1115	0.9287	0.049
Mof_C 	C 	0.2852	0.2243	0.9504	0.023
Mof_H 	H 	0.2667	0.2645	0.9338	0.006
Mof_N 	N 	0.3787	0.693	0.1117	-0.278
Mof_C 	C 	0.3483	0.6557	0.0855	0.085
Mof_H 	H 	0.3419	0.5952	0.0911	-0.022
Mof_C 	C 	0.3256	0.6996	0.0508	-0.148
Mof_H 	H 	0.3043	0.6694	0.0325	0.08
Mof_C 	C 	0.3339	0.7881	0.0428	0.066
Mof_C 	C 	0.3651	0.8288	0.069	-0.141
Mof_H 	H 	0.3718	0.8895	0.064	0.126
Mof_C 	C 	0.3871	0.7795	0.1034	0.073
Mof_H 	H 	0.4089	0.8077	0.1218	-0.003
Mof_C 	C 	0.2602	0.8518	0.9485	0.095
Mof_N 	N 	0.2796	0.8027	0.98	-0.149
Mof_C 	C 	0.309	0.8402	0.0066	0.095
Mof_N 	N 	0.3194	0.9275	0.0045	-0.127
Mof_C 	C 	0.2955	0.9758	0.973	0.186
Mof_N 	N 	0.2658	0.9397	0.9432	-0.14
Mof_I 	I 	0.37528	0.08981	0.55243	-0.33
Mof_I 	I 	0.26959	0.0141	0.45385	0.114
Mof_I 	I 	0.4779	0.6036	0.12136	-0.387
Mof_I 	I 	0.38589	0.5074	0.1948	-0.055
Mof_I 	I 	0.6473	0.3458	0.2357	-0.36
Mof_I 	I 	0.6046	0.4886	0.34466	-0.073
Mof_I 	I 	0.1033	0.5102	0.8501	-0.315
Mof_I 	I 	0.1465	0.674	0.7416	-0.155
Mof_I 	I 	0.3792	0.4059	0.0568	-0.298
Mof_I 	I 	0.27001	0.4873	0.9623	-0.077
Mof_I 	I 	0.3728	0.0776	0.5427	-0.103
Mof_I 	I 	0.2601	0.0259	0.4427	-0.366
Mof_I 	I 	0.4694	0.603	0.1287	0.022
Mof_I 	I 	0.3785	0.5147	0.203	-0.288
Mof_I 	I 	0.6434	0.3517	0.2463	0.006
Mof_I 	I 	0.6157	0.5005	0.3459	-0.207
Mof_I 	I 	0.115	0.5171	0.8461	-0.052
Mof_I 	I 	0.1479	0.6544	0.7425	-0.137
Mof_I 	I 	0.3711	0.4326	0.0524	-0.089
Mof_I 	I 	0.2668	0.4846	0.9452	-0.262
_end
