data_functionalizedCrystal
_audit_creation_method	'EQeq! by Chris Wilmer'
_symmetry_space_group_name_H-M	'P1'
_symmetry_Int_Tables_number	1
_symmetry_cell_setting	triclinic
loop_
_symmetry_equiv_pos_as_xyz
  x,y,z
_cell_length_a	15.205
_cell_length_b	18.005
_cell_length_c	21.5
_cell_angle_alpha	71.21
_cell_angle_beta	84.47
_cell_angle_gamma	67.15
loop_
_atom_site_label
_atom_site_type_symbol
_atom_site_fract_x
_atom_site_fract_y
_atom_site_fract_z
_atom_site_charge
Mof_Co	Co	0.52463	0.63577	0.73048	1.192
Mof_Co	Co	0.23781	0.34905	0.5169	1.189
Mof_Co	Co	0.14182	0.03117	0.60305	1.186
Mof_Co	Co	0.21963	0.17517	0.52077	1.199
Mof_Co	Co	0.63672	0.5926	0.60374	1.207
Mof_Co	Co	0.90477	0.01579	0.8503	1.205
Mof_Co	Co	0.69684	0.74029	0.06311	1.198
Mof_Co	Co	0.80882	0.69777	0.93635	1.202
Mof_Co	Co	0.44693	0.49087	0.81228	1.207
Mof_Co	Co	0.8861	0.84225	0.85437	1.219
Mof_Co	Co	0.02982	0.07364	0.72977	1.182
Mof_Co	Co	0.57117	0.68248	0.18358	1.193
Mof_Co	Co	0.3337	0.33328	0.66664	1.214
Mof_Co	Co	0.3335	0.8334	0.6669	1.216
Mof_Co	Co	0.6667	0.66663	0.83316	1.21
Mof_Co	Co	0.6664	0.16668	0.83342	1.211
Mof_Co	Co	0.47537	0.36423	0.26952	1.191
Mof_Co	Co	0.76219	0.65095	0.4831	1.189
Mof_Co	Co	0.85818	0.96883	0.39695	1.2
Mof_Co	Co	0.78037	0.82483	0.47923	1.197
Mof_Co	Co	0.36328	0.4074	0.39626	1.207
Mof_Co	Co	0.09523	0.98421	0.1497	1.181
Mof_Co	Co	0.30316	0.25971	0.93689	1.211
Mof_Co	Co	0.19118	0.30223	0.06365	1.187
Mof_Co	Co	0.55307	0.50913	0.18772	1.207
Mof_Co	Co	0.1139	0.15775	0.14563	1.189
Mof_Co	Co	0.97018	0.92636	0.27023	1.222
Mof_Co	Co	0.42883	0.31752	0.81642	1.193
Mof_Co	Co	0.6663	0.66672	0.33336	1.215
Mof_Co	Co	0.6665	0.1666	0.3331	1.209
Mof_Co	Co	0.3333	0.33337	0.16684	1.208
Mof_Co	Co	0.3336	0.83332	0.16658	1.215
Mof_Co	Co	-0	0	-0	1.127
Mof_Co	Co	4.43033e-17	0.5	-0	1.152
Mof_Co	Co	1.10758e-17	4.43033e-17	0.5	1.15
Mof_Co	Co	2.21516e-17	0.5	0.5	1.17
Mof_H 	H 	0.7897	0.6111	0.6774	-0.113
Mof_H 	H 	0.5838	0.5514	0.9178	-0.091
Mof_H 	H 	0.7484	0.7831	0.7507	-0.103
Mof_H 	H 	0.6083	0.3508	0.9075	-0.112
Mof_H 	H 	0.1837	0.8012	0.6208	-0.107
Mof_H 	H 	0.4239	0.6858	0.5571	-0.097
Mof_H 	H 	0.3542	0.5372	0.6766	-0.13
Mof_H 	H 	0.7144	0.9918	0.7592	-0.03
Mof_H 	H 	0.935	0.3174	0.1143	-0.193
Mof_H 	H 	0.4853	0.8627	0.7182	-0.095
Mof_H 	H 	0.5442	0.7273	0.9863	-0.112
Mof_H 	H 	0.8423	0.4655	0.9628	-0.067
Mof_H 	H 	0.3138	0.1297	0.6589	-0.132
Mof_H 	H 	0.6094	0.2325	0.6973	-0.107
Mof_H 	H 	0.7546	0.5521	0.0793	-0.122
Mof_H 	H 	0.4006	0.0117	0.539	-0.193
Mof_H 	H 	0.8387	0.2346	0.7067	-0.089
Mof_H 	H 	0.2474	0.9692	0.7807	-0.125
Mof_H 	H 	0.7169	0.9374	0.9326	-0.094
Mof_H 	H 	0.7226	0.1062	0.9717	-0.087
Mof_H 	H 	0.6119	0.3999	0.7316	-0.127
Mof_H 	H 	0.0569	0.4367	0.6401	-0.137
Mof_H 	H 	0.177	0.5657	0.3789	-0.137
Mof_H 	H 	0.0875	0.8814	0.7505	-0.112
Mof_H 	H 	0.4963	0.0978	0.9574	-0.114
Mof_H 	H 	0.0475	0.2698	0.5968	-0.133
Mof_H 	H 	0.9057	0.6453	0.1117	-0.09
Mof_H 	H 	0.2623	0.6595	0.7831	-0.109
Mof_H 	H 	0.4329	0.2107	0.421	-0.102
Mof_H 	H 	0.0213	0.2051	0.0085	-0.075
Mof_H 	H 	0.1109	0.0653	0.8973	-0.106
Mof_H 	H 	0.2265	0.2608	0.7718	-0.096
Mof_H 	H 	0.4352	0.4103	0.5598	-0.107
Mof_H 	H 	0.0734	0.1215	0.4181	-0.128
Mof_H 	H 	0.0473	0.3148	0.4305	-0.133
Mof_H 	H 	0.8807	0.052	0.6543	-0.161
Mof_H 	H 	0.2103	0.3889	0.3226	-0.133
Mof_H 	H 	0.4162	0.4486	0.0822	-0.109
Mof_H 	H 	0.2516	0.2169	0.2493	-0.117
Mof_H 	H 	0.3917	0.6492	0.0925	-0.132
Mof_H 	H 	0.8163	0.1988	0.3792	-0.085
Mof_H 	H 	0.5761	0.3142	0.4429	-0.094
Mof_H 	H 	0.6458	0.4628	0.3234	-0.122
Mof_H 	H 	0.2856	0.0082	0.2408	-0.206
Mof_H 	H 	0.065	0.6826	0.8857	-0.093
Mof_H 	H 	0.5147	0.1373	0.2818	-0.111
Mof_H 	H 	0.4558	0.2727	0.0137	-0.155
Mof_H 	H 	0.1577	0.5345	0.0372	-0.127
Mof_H 	H 	0.6862	0.8703	0.3411	-0.116
Mof_H 	H 	0.3906	0.7675	0.3027	-0.105
Mof_H 	H 	0.2454	0.4479	0.9207	-0.106
Mof_H 	H 	0.5994	0.9883	0.461	-0.021
Mof_H 	H 	0.1613	0.7654	0.2933	-0.137
Mof_H 	H 	0.7526	0.0308	0.2193	-0.115
Mof_H 	H 	0.2831	0.0626	0.0674	-0.087
Mof_H 	H 	0.2774	0.8938	0.0283	-0.103
Mof_H 	H 	0.3881	0.6001	0.2684	-0.131
Mof_H 	H 	0.9431	0.5633	0.3599	-0.069
Mof_H 	H 	0.823	0.4343	0.6211	-0.099
Mof_H 	H 	0.9125	0.1186	0.2495	-0.11
Mof_H 	H 	0.5037	0.9022	0.0426	-0.117
Mof_H 	H 	0.9525	0.7302	0.4032	-0.093
Mof_H 	H 	0.0943	0.3547	0.8883	-0.117
Mof_H 	H 	0.7377	0.3405	0.2169	-0.101
Mof_H 	H 	0.5671	0.7893	0.579	-0.095
Mof_H 	H 	0.9787	0.7949	0.9915	-0.151
Mof_H 	H 	0.8891	0.9347	0.1027	-0.079
Mof_H 	H 	0.7735	0.7392	0.2282	-0.086
Mof_H 	H 	0.5648	0.5897	0.4402	-0.107
Mof_H 	H 	0.9266	0.8785	0.5819	-0.063
Mof_H 	H 	0.9527	0.6852	0.5695	-0.085
Mof_H 	H 	0.1193	0.948	0.3457	-0.077
Mof_C 	C 	0.7389	0.6194	0.7056	0.496
Mof_C 	C 	0.558	0.5552	0.8789	0.479
Mof_C 	C 	0.7747	0.7788	0.7896	0.519
Mof_C 	C 	0.5929	0.3218	0.8842	0.543
Mof_C 	C 	0.1545	0.8599	0.6042	0.475
Mof_C 	C 	0.4254	0.7004	0.5947	0.47
Mof_C 	C 	0.361	0.4808	0.6944	0.509
Mof_C 	C 	0.7341	0.0185	0.7825	0.379
Mof_C 	C 	0.9798	0.3403	0.0947	0.795
Mof_C 	C 	0.5165	0.804	0.7316	0.52
Mof_C 	C 	0.5963	0.715	0.9596	0.522
Mof_C 	C 	0.8189	0.5236	0.9415	0.461
Mof_C 	C 	0.3068	0.1862	0.6409	0.52
Mof_C 	C 	0.5485	0.256	0.7123	0.506
Mof_C 	C 	0.7062	0.5617	0.1092	0.487
Mof_C 	C 	0.3593	0.9904	0.5667	0.66
Mof_C 	C 	0.8251	0.1968	0.7436	0.514
Mof_C 	C 	0.2452	0.961	0.7404	0.614
Mof_C 	C 	0.7263	0.8805	0.9512	0.485
Mof_C 	C 	0.7829	0.0796	0.9574	0.457
Mof_C 	C 	0.6049	0.4565	0.7142	0.541
Mof_C 	C 	0.1173	0.4124	0.6248	0.503
Mof_C 	C 	0.1615	0.5268	0.4138	0.564
Mof_C 	C 	0.0376	0.8924	0.7791	0.493
Mof_C 	C 	0.5101	0.1364	0.9213	0.533
Mof_C 	C 	0.0588	0.2126	0.6165	0.495
Mof_C 	C 	0.9049	0.6333	0.0728	0.474
Mof_C 	C 	0.3086	0.6797	0.7621	0.508
Mof_C 	C 	0.378	0.2239	0.4452	0.444
Mof_C 	C 	0.0275	0.1488	0.0265	0.22
Mof_C 	C 	0.0706	0.0622	0.8691	0.474
Mof_C 	C 	0.2648	0.2679	0.799	0.469
Mof_C 	C 	0.3997	0.4	0.533	0.511
Mof_C 	C 	0.1054	0.1129	0.4561	0.477
Mof_C 	C 	0.0673	0.3454	0.4496	0.507
Mof_C 	C 	0.9302	0.046	0.625	0.651
Mof_C 	C 	0.2611	0.3806	0.2944	0.5
Mof_C 	C 	0.442	0.4448	0.1211	0.482
Mof_C 	C 	0.2253	0.2212	0.2104	0.524
Mof_C 	C 	0.4071	0.6782	0.1158	0.545
Mof_C 	C 	0.8455	0.1401	0.3958	0.459
Mof_C 	C 	0.5746	0.2996	0.4053	0.47
Mof_C 	C 	0.639	0.5192	0.3056	0.509
Mof_C 	C 	0.2659	0.9815	0.2175	0.726
Mof_C 	C 	0.0202	0.6597	0.9053	0.416
Mof_C 	C 	0.4835	0.196	0.2684	0.525
Mof_C 	C 	0.4037	0.285	0.0404	0.54
Mof_C 	C 	0.1811	0.4764	0.0585	0.472
Mof_C 	C 	0.6932	0.8138	0.3591	0.516
Mof_C 	C 	0.4515	0.744	0.2877	0.509
Mof_C 	C 	0.2938	0.4383	0.8908	0.485
Mof_C 	C 	0.6407	0.0096	0.4333	0.329
Mof_C 	C 	0.1749	0.8032	0.2564	0.537
Mof_C 	C 	0.7548	0.039	0.2596	0.482
Mof_C 	C 	0.2737	0.1195	0.0488	0.345
Mof_C 	C 	0.2171	0.9204	0.0426	0.468
Mof_C 	C 	0.3951	0.5435	0.2858	0.54
Mof_C 	C 	0.8827	0.5876	0.3752	0.487
Mof_C 	C 	0.8385	0.4732	0.5862	0.529
Mof_C 	C 	0.9624	0.1076	0.2209	0.489
Mof_C 	C 	0.4899	0.8636	0.0787	0.529
Mof_C 	C 	0.9412	0.7874	0.3835	0.482
Mof_C 	C 	0.0951	0.3667	0.9272	0.487
Mof_C 	C 	0.6914	0.3203	0.2379	0.505
Mof_C 	C 	0.622	0.7761	0.5548	0.444
Mof_C 	C 	0.9725	0.8512	0.9735	0.694
Mof_C 	C 	0.9294	0.9378	0.1309	0.463
Mof_C 	C 	0.7352	0.7321	0.201	0.471
Mof_C 	C 	0.6003	0.6	0.467	0.514
Mof_C 	C 	0.8946	0.8871	0.5439	0.459
Mof_C 	C 	0.9327	0.6546	0.5504	0.478
Mof_C 	C 	0.0698	0.954	0.375	0.351
Mof_O 	O 	0.0133	0.4203	0.445	-0.471
Mof_O 	O 	0.3114	0.9067	0.7284	-0.477
Mof_O 	O 	0.3544	0.7624	0.602	-0.417
Mof_O 	O 	0.3305	0.4519	0.6597	-0.441
Mof_O 	O 	0.997	0.1181	0.994	-0.237
Mof_O 	O 	0.6792	0.0873	0.7791	-0.429
Mof_O 	O 	0.3369	0.2145	0.6755	-0.448
Mof_O 	O 	0.6524	0.2489	0.8883	-0.428
Mof_O 	O 	0.9485	0.4201	0.0703	-0.478
Mof_O 	O 	0.976	0.5722	0.0619	-0.377
Mof_O 	O 	0.3889	0.9136	0.5968	-0.46
Mof_O 	O 	0.7499	0.6296	0.7577	-0.426
Mof_O 	O 	0.913	0.0371	0.5751	-0.463
Mof_O 	O 	0.7494	0.2233	0.7671	-0.442
Mof_O 	O 	0.5821	0.7019	0.9082	-0.432
Mof_O 	O 	0.2811	0.7552	0.7378	-0.456
Mof_O 	O 	0.0828	0.5554	0.435	-0.503
Mof_O 	O 	0.3462	0.2952	0.4562	-0.539
Mof_O 	O 	0.5856	0.1112	0.8987	-0.472
Mof_O 	O 	0.6715	0.5038	0.1335	-0.424
Mof_O 	O 	0.8519	0.0463	0.9974	-0.388
Mof_O 	O 	0.8904	0.1215	0.7637	-0.512
Mof_O 	O 	0.3385	0.1692	0.4657	-0.414
Mof_O 	O 	0.7491	0.5537	0.902	-0.41
Mof_O 	O 	0.6897	0.858	0.0068	-0.444
Mof_O 	O 	0.5865	0.7804	0.7631	-0.46
Mof_O 	O 	0.015	0.9622	0.7906	-0.565
Mof_O 	O 	0.2484	0.2484	0.858	-0.433
Mof_O 	O 	0.081	0.889	0.5678	-0.448
Mof_O 	O 	0.6806	0.6292	0.1222	-0.565
Mof_O 	O 	0.5113	0.5099	0.8824	-0.413
Mof_O 	O 	0.0214	0.1928	0.6708	-0.457
Mof_O 	O 	0.0042	0.8365	0.7996	-0.482
Mof_O 	O 	0.1857	0.3799	0.664	-0.45
Mof_O 	O 	0.1694	0.0108	0.7031	-0.597
Mof_O 	O 	0.4817	0.2874	0.6706	-0.438
Mof_O 	O 	0.8338	0.6783	0.0341	-0.575
Mof_O 	O 	0.4988	0.6553	0.6326	-0.554
Mof_O 	O 	0.2253	0.454	0.4307	-0.584
Mof_O 	O 	0.4178	0.4174	0.4753	-0.45
Mof_O 	O 	0.8203	0.8226	0.7853	-0.428
Mof_O 	O 	0.4434	0.2126	0.9015	-0.545
Mof_O 	O 	0.0851	0.084	0.8095	-0.447
Mof_O 	O 	0.155	0.156	0.4519	-0.44
Mof_O 	O 	0.0952	0.0582	0.5085	-0.577
Mof_O 	O 	0.6431	0.4759	0.662	-0.45
Mof_O 	O 	0.7905	0.0792	0.8968	-0.531
Mof_O 	O 	0.148	0.3098	0.4794	-0.561
Mof_O 	O 	0.7594	0.7277	0.8419	-0.554
Mof_O 	O 	0.6712	0.7134	0.9789	-0.545
Mof_O 	O 	0.5725	0.6059	0.826	-0.545
Mof_O 	O 	0.1104	0.1622	0.5862	-0.564
Mof_O 	O 	0.0684	0.1064	0.0854	-0.53
Mof_O 	O 	0.0074	0.0485	0.6446	-0.654
Mof_O 	O 	0.3935	0.6217	0.7637	-0.549
Mof_O 	O 	0.2676	0.2235	0.5841	-0.561
Mof_O 	O 	0.3286	0.2971	0.7701	-0.542
Mof_O 	O 	0.6596	0.6196	0.6882	-0.545
Mof_O 	O 	0.1932	0.9027	0.6209	-0.53
Mof_O 	O 	0.5168	0.3591	0.8531	-0.581
Mof_O 	O 	0.3383	0.3692	0.5622	-0.558
Mof_O 	O 	0.8162	0.973	0.8125	-0.479
Mof_O 	O 	0.123	0.4152	0.5641	-0.562
Mof_O 	O 	0.8606	0.567	0.9547	-0.49
Mof_O 	O 	0.5443	0.252	0.7718	-0.566
Mof_O 	O 	0.2747	0.0423	0.5717	-0.611
Mof_O 	O 	0.5577	0.5044	0.7467	-0.567
Mof_O 	O 	0.0039	0.0358	0.895	-0.591
Mof_O 	O 	0.4727	0.7662	0.7113	-0.55
Mof_O 	O 	0.0591	0.2912	0.0957	-0.738
Mof_O 	O 	0.4004	0.4421	0.7511	-0.563
Mof_O 	O 	0.7761	0.8282	0.919	-0.533
Mof_O 	O 	0.9867	0.5797	0.555	-0.371
Mof_O 	O 	0.6886	0.0933	0.2716	-0.457
Mof_O 	O 	0.6456	0.2376	0.398	-0.418
Mof_O 	O 	0.6695	0.5481	0.3403	-0.43
Mof_O 	O 	0.003	0.8819	0.006	-0.586
Mof_O 	O 	0.3208	0.9127	0.2209	-0.518
Mof_O 	O 	0.6631	0.7855	0.3245	-0.438
Mof_O 	O 	0.3476	0.7511	0.1117	-0.446
Mof_O 	O 	0.0515	0.5799	0.9297	-0.414
Mof_O 	O 	0.024	0.4278	0.9381	-0.442
Mof_O 	O 	0.6111	0.0864	0.4032	-0.39
Mof_O 	O 	0.2501	0.3704	0.2423	-0.448
Mof_O 	O 	0.087	0.9629	0.4249	-0.401
Mof_O 	O 	0.2506	0.7767	0.2329	-0.461
Mof_O 	O 	0.4179	0.2981	0.0918	-0.451
Mof_O 	O 	0.7189	0.2448	0.2622	-0.453
Mof_O 	O 	0.9172	0.4446	0.565	-0.402
Mof_O 	O 	0.6538	0.7048	0.5438	-0.538
Mof_O 	O 	0.4144	0.8888	0.1013	-0.461
Mof_O 	O 	0.3285	0.4962	0.8665	-0.416
Mof_O 	O 	0.1481	0.9537	0.0026	-0.433
Mof_O 	O 	0.1096	0.8785	0.2363	-0.595
Mof_O 	O 	0.6615	0.8308	0.5343	-0.405
Mof_O 	O 	0.2509	0.4463	0.098	-0.437
Mof_O 	O 	0.3103	0.142	0.9932	-0.356
Mof_O 	O 	0.4135	0.2196	0.2369	-0.469
Mof_O 	O 	0.985	0.0378	0.2094	-0.544
Mof_O 	O 	0.7516	0.7516	0.142	-0.424
Mof_O 	O 	0.919	0.111	0.4322	-0.387
Mof_O 	O 	0.3194	0.3708	0.8778	-0.558
Mof_O 	O 	0.4887	0.4901	0.1176	-0.431
Mof_O 	O 	0.9786	0.8072	0.3292	-0.393
Mof_O 	O 	0.9958	0.1635	0.2004	-0.383
Mof_O 	O 	0.8143	0.6201	0.336	-0.427
Mof_O 	O 	0.8306	0.9892	0.2969	-0.512
Mof_O 	O 	0.5183	0.7126	0.3294	-0.436
Mof_O 	O 	0.1662	0.3217	0.9659	-0.542
Mof_O 	O 	0.5012	0.3447	0.3674	-0.553
Mof_O 	O 	0.7747	0.546	0.5693	-0.564
Mof_O 	O 	0.5822	0.5826	0.5247	-0.45
Mof_O 	O 	0.1797	0.1774	0.2147	-0.465
Mof_O 	O 	0.5566	0.7874	0.0985	-0.552
Mof_O 	O 	0.9149	0.916	0.1905	-0.398
Mof_O 	O 	0.845	0.844	0.5481	-0.414
Mof_O 	O 	0.9048	0.9418	0.4915	-0.503
Mof_O 	O 	0.3569	0.5241	0.338	-0.457
Mof_O 	O 	0.2095	0.9208	0.1032	-0.538
Mof_O 	O 	0.852	0.6902	0.5206	-0.543
Mof_O 	O 	0.2406	0.2723	0.1581	-0.567
Mof_O 	O 	0.3288	0.2866	0.0211	-0.597
Mof_O 	O 	0.4275	0.3941	0.174	-0.551
Mof_O 	O 	0.8896	0.8378	0.4138	-0.551
Mof_O 	O 	0.9316	0.8936	0.9146	-0.55
Mof_O 	O 	0.9926	0.9515	0.3554	-0.457
Mof_O 	O 	0.6065	0.3783	0.2363	-0.548
Mof_O 	O 	0.7324	0.7765	0.4159	-0.557
Mof_O 	O 	0.6714	0.7029	0.2299	-0.537
Mof_O 	O 	0.3404	0.3804	0.3118	-0.551
Mof_O 	O 	0.8068	0.0973	0.3791	-0.553
Mof_O 	O 	0.4832	0.6409	0.1469	-0.59
Mof_O 	O 	0.6617	0.6308	0.4378	-0.555
Mof_O 	O 	0.1838	0.027	0.1875	-0.658
Mof_O 	O 	0.877	0.5848	0.4359	-0.516
Mof_O 	O 	0.1394	0.433	0.0453	-0.568
Mof_O 	O 	0.4557	0.748	0.2282	-0.562
Mof_O 	O 	0.7253	0.9577	0.4283	-0.476
Mof_O 	O 	0.4423	0.4956	0.2533	-0.57
Mof_O 	O 	0.9961	0.9642	0.105	-0.47
Mof_O 	O 	0.5273	0.2338	0.2887	-0.557
Mof_O 	O 	0.9409	0.7088	0.9043	-0.493
Mof_O 	O 	0.5996	0.5579	0.2489	-0.56
Mof_O 	O 	0.2239	0.1718	0.081	-0.516
_end
