data_functionalizedCrystal
_audit_creation_method	'EQeq! by Chris Wilmer'
_symmetry_space_group_name_H-M	'P1'
_symmetry_Int_Tables_number	1
_symmetry_cell_setting	triclinic
loop_
_symmetry_equiv_pos_as_xyz
  x,y,z
_cell_length_a	15.3827
_cell_length_b	20.9671
_cell_length_c	19.23
_cell_angle_alpha	90
_cell_angle_beta	109.487
_cell_angle_gamma	90
loop_
_atom_site_label
_atom_site_type_symbol
_atom_site_fract_x
_atom_site_fract_y
_atom_site_fract_z
_atom_site_charge
Mof_Zn	Zn	0.78537	0.74659	0.06359	1.217
Mof_Zn	Zn	0.70245	0.75435	0.90116	1.216
Mof_O 	O 	0.6952	0.67137	0.0436	-0.454
Mof_O 	O 	0.6118	0.69512	0.9268	-0.456
Mof_O 	O 	0.8713	0.6867	0.0353	-0.454
Mof_O 	O 	0.7861	0.6758	0.9159	-0.459
Mof_O 	O 	0.8479	0.8212	0.0294	-0.459
Mof_O 	O 	0.8063	0.8152	0.9061	-0.449
Mof_O 	O 	0.6841	0.8082	0.0607	-0.455
Mof_O 	O 	0.6429	0.82823	0.939	-0.456
Mof_N 	N 	0.8536	0.7457	0.1737	-0.268
Mof_N 	N 	0.6345	0.7465	0.29	-0.268
Mof_C 	C 	0.8394	0.7895	0.2187	0.119
Mof_H 	H 	0.795	0.8206	0.1988	-0.013
Mof_C 	C 	0.9166	0.7016	0.2045	0.114
Mof_H 	H 	0.9271	0.67	0.1743	-0.011
Mof_C 	C 	0.8872	0.7912	0.2935	-0.201
Mof_H 	H 	0.8732	0.8219	0.323	0.114
Mof_C 	C 	0.9676	0.6998	0.279	-0.192
Mof_H 	H 	0.0094	0.6669	0.2981	0.103
Mof_C 	C 	0.9559	0.747	0.3244	0.154
Mof_C 	C 	0.0097	0.749	0.4016	-0.073
Mof_C 	C 	0.0556	0.7502	0.4648	0.039
Mof_C 	C 	0.1206	0.7414	0.54	-0.013
Mof_C 	C 	0.0774	0.7543	0.5911	0.01
Mof_C 	C 	0.216	0.7333	0.5628	-0
Mof_C 	C 	0.1317	0.7541	0.6678	0.011
Mof_C 	C 	0.2674	0.7358	0.6367	-0.004
Mof_C 	C 	0.2284	0.7453	0.6904	-0.008
Mof_C 	C 	0.281	0.7464	0.7701	-0
Mof_C 	C 	0.2481	0.7194	0.8217	0.01
Mof_C 	C 	0.357	0.764	0.7959	-0.007
Mof_C 	C 	0.2998	0.7207	0.8963	-0.011
Mof_C 	C 	0.409	0.7607	0.8693	-0.006
Mof_C 	C 	0.0996	0.7601	0.5447	-0.004
Mof_C 	C 	0.067	0.726	0.5949	-0.003
Mof_C 	C 	0.1706	0.7984	0.5708	-0.001
Mof_C 	C 	0.118	0.7253	0.6687	-0.018
Mof_C 	C 	0.2238	0.7992	0.6472	-0.007
Mof_C 	C 	0.2023	0.7606	0.6946	0.006
Mof_C 	C 	0.2585	0.7605	0.7755	-0.002
Mof_C 	C 	0.2186	0.7509	0.8287	-0.017
Mof_C 	C 	0.37	0.7787	0.7931	-0
Mof_C 	C 	0.2738	0.7481	0.9046	0.01
Mof_C 	C 	0.4223	0.7797	0.8682	0.01
Mof_C 	C 	0.3786	0.752	0.9225	-0.014
Mof_C 	C 	0.4332	0.7506	0.9993	0.038
Mof_C 	C 	0.4805	0.7495	0.0631	-0.073
Mof_C 	C 	0.5341	0.7484	0.1398	0.16
Mof_C 	C 	0.6049	0.7062	0.1689	-0.214
Mof_H 	H 	0.6207	0.6772	0.1385	0.118
Mof_C 	C 	0.5188	0.7926	0.1877	-0.197
Mof_H 	H 	0.4747	0.8243	0.1699	0.106
Mof_C 	C 	0.5684	0.7898	0.2616	0.114
Mof_H 	H 	0.5556	0.8192	0.293	-0.009
Mof_C 	C 	0.6523	0.7069	0.2433	0.131
Mof_H 	H 	0.7	0.6777	0.2619	-0.018
Mof_C 	C 	0.6291	0.6625	0.9837	0.373
Mof_C 	C 	0.5688	0.6047	0.9806	-0.078
Mof_C 	C 	0.4905	0.5956	0.9177	0.013
Mof_H 	H 	0.4743	0.6261	0.8805	0.043
Mof_C 	C 	0.5914	0.5615	0.037	-0.038
Mof_H 	H 	0.6418	0.5694	0.079	0.058
Mof_C 	C 	0.4378	0.5411	0.9113	-0.089
Mof_H 	H 	0.3867	0.5348	0.8694	0.065
Mof_C 	C 	0.5391	0.5047	0.0324	0.028
Mof_C 	C 	0.8484	0.6586	0.9744	0.371
Mof_C 	C 	0.8977	0.5968	0.9709	-0.081
Mof_C 	C 	0.8672	0.5577	0.908	0.015
Mof_H 	H 	0.8184	0.5708	0.867	0.037
Mof_C 	C 	0.9705	0.5789	0.0309	-0.034
Mof_H 	H 	0.9906	0.6056	0.0717	0.061
Mof_C 	C 	0.9091	0.5008	0.907	-0.09
Mof_H 	H 	0.8882	0.475	0.8655	0.065
Mof_C 	C 	0.0157	0.5196	0.0312	0.026
Mof_C 	C 	0.8496	0.8399	0.968	0.372
Mof_C 	C 	0.9073	0.8979	0.9681	-0.077
Mof_C 	C 	0.9181	0.9202	0.9016	0.013
Mof_H 	H 	0.8921	0.8975	0.8581	0.041
Mof_C 	C 	0.9464	0.932	0.0325	-0.038
Mof_H 	H 	0.9403	0.9168	0.0761	0.062
Mof_C 	C 	0.9664	0.975	0.9012	-0.093
Mof_H 	H 	0.9739	0.9885	0.8575	0.064
Mof_C 	C 	0.995	0.9886	0.034	0.031
Mof_C 	C 	0.6422	0.8394	0.0029	0.374
Mof_C 	C 	0.5894	0.8968	0.0136	-0.074
Mof_C 	C 	0.5476	0.9367	0.955	-0.04
Mof_H 	H 	0.5496	0.9265	0.9085	0.062
Mof_C 	C 	0.585	0.9116	0.0843	0.011
Mof_H 	H 	0.6131	0.8848	0.1239	0.043
Mof_C 	C 	0.5014	0.9932	0.9643	0.028
Mof_C 	C 	0.5399	0.9648	0.0947	-0.087
Mof_H 	H 	0.5363	0.9735	0.1412	0.063
Mof_Zn	Zn	0.21463	0.24659	0.43641	1.216
Mof_Zn	Zn	0.29755	0.25435	0.59884	1.215
Mof_O 	O 	0.3048	0.17137	0.4564	-0.455
Mof_O 	O 	0.3882	0.19512	0.5732	-0.457
Mof_O 	O 	0.1287	0.1867	0.4647	-0.456
Mof_O 	O 	0.2139	0.1758	0.5841	-0.459
Mof_O 	O 	0.1521	0.3212	0.4706	-0.46
Mof_O 	O 	0.1937	0.3152	0.5939	-0.449
Mof_O 	O 	0.3159	0.3082	0.4393	-0.455
Mof_O 	O 	0.3571	0.32823	0.561	-0.455
Mof_N 	N 	0.1464	0.2457	0.3263	-0.268
Mof_N 	N 	0.3655	0.2465	0.21	-0.268
Mof_C 	C 	0.1606	0.2895	0.2813	0.118
Mof_H 	H 	0.205	0.3206	0.3012	-0.013
Mof_C 	C 	0.0834	0.2016	0.2955	0.115
Mof_H 	H 	0.0729	0.17	0.3257	-0.012
Mof_C 	C 	0.1128	0.2912	0.2065	-0.201
Mof_H 	H 	0.1268	0.3219	0.177	0.114
Mof_C 	C 	0.0324	0.1998	0.221	-0.194
Mof_H 	H 	0.9906	0.1669	0.2019	0.104
Mof_C 	C 	0.0441	0.247	0.1756	0.153
Mof_C 	C 	0.9903	0.249	0.0984	-0.072
Mof_C 	C 	0.9444	0.2502	0.0352	0.039
Mof_C 	C 	0.8794	0.2414	0.96	-0.013
Mof_C 	C 	0.9226	0.2543	0.9089	0.01
Mof_C 	C 	0.784	0.2333	0.9372	-0
Mof_C 	C 	0.8683	0.2541	0.8322	0.012
Mof_C 	C 	0.7326	0.2358	0.8633	-0.003
Mof_C 	C 	0.7716	0.2453	0.8096	-0.009
Mof_C 	C 	0.719	0.2464	0.7299	-0
Mof_C 	C 	0.7519	0.2194	0.6783	0.01
Mof_C 	C 	0.643	0.264	0.7041	-0.007
Mof_C 	C 	0.7002	0.2207	0.6037	-0.011
Mof_C 	C 	0.591	0.2607	0.6307	-0.006
Mof_C 	C 	0.9004	0.2601	0.9553	-0.004
Mof_C 	C 	0.933	0.226	0.9051	-0.004
Mof_C 	C 	0.8294	0.2984	0.9292	-0.001
Mof_C 	C 	0.882	0.2253	0.8313	-0.02
Mof_C 	C 	0.7762	0.2992	0.8528	-0.008
Mof_C 	C 	0.7977	0.2606	0.8054	0.007
Mof_C 	C 	0.7415	0.2605	0.7245	-0.002
Mof_C 	C 	0.7814	0.2509	0.6713	-0.017
Mof_C 	C 	0.63	0.2787	0.7069	-0
Mof_C 	C 	0.7262	0.2481	0.5954	0.01
Mof_C 	C 	0.5777	0.2797	0.6318	0.01
Mof_C 	C 	0.6214	0.252	0.5775	-0.014
Mof_C 	C 	0.5668	0.2506	0.5007	0.038
Mof_C 	C 	0.5195	0.2495	0.4369	-0.074
Mof_C 	C 	0.4659	0.2484	0.3602	0.161
Mof_C 	C 	0.3951	0.2062	0.3311	-0.214
Mof_H 	H 	0.3793	0.1772	0.3615	0.118
Mof_C 	C 	0.4812	0.2926	0.3123	-0.198
Mof_H 	H 	0.5253	0.3243	0.3301	0.106
Mof_C 	C 	0.4316	0.2898	0.2384	0.114
Mof_H 	H 	0.4444	0.3192	0.207	-0.009
Mof_C 	C 	0.3477	0.2069	0.2567	0.131
Mof_H 	H 	0.3	0.1777	0.2381	-0.018
Mof_C 	C 	0.3709	0.1625	0.5163	0.374
Mof_C 	C 	0.4312	0.1047	0.5194	-0.077
Mof_C 	C 	0.5095	0.0956	0.5823	0.012
Mof_H 	H 	0.5257	0.1261	0.6195	0.043
Mof_C 	C 	0.4086	0.0615	0.463	-0.039
Mof_H 	H 	0.3582	0.0694	0.421	0.058
Mof_C 	C 	0.5622	0.0411	0.5887	-0.089
Mof_H 	H 	0.6133	0.0348	0.6306	0.065
Mof_C 	C 	0.4609	0.0047	0.4676	0.028
Mof_C 	C 	0.1516	0.1586	0.5256	0.372
Mof_C 	C 	0.1023	0.0968	0.5291	-0.078
Mof_C 	C 	0.1328	0.0577	0.592	0.013
Mof_H 	H 	0.1816	0.0708	0.633	0.038
Mof_C 	C 	0.0295	0.0789	0.4691	-0.037
Mof_H 	H 	0.0094	0.1056	0.4283	0.062
Mof_C 	C 	0.0909	0.0008	0.593	-0.087
Mof_H 	H 	0.1118	0.975	0.6345	0.063
Mof_C 	C 	0.9843	0.0196	0.4688	0.026
Mof_C 	C 	0.1504	0.3399	0.532	0.373
Mof_C 	C 	0.0927	0.3979	0.5319	-0.075
Mof_C 	C 	0.0819	0.4202	0.5984	0.011
Mof_H 	H 	0.1079	0.3975	0.6419	0.042
Mof_C 	C 	0.0536	0.432	0.4675	-0.04
Mof_H 	H 	0.0597	0.4168	0.4239	0.062
Mof_C 	C 	0.0336	0.475	0.5988	-0.089
Mof_H 	H 	0.0261	0.4885	0.6425	0.064
Mof_C 	C 	0.005	0.4886	0.466	0.029
Mof_C 	C 	0.3578	0.3394	0.4971	0.373
Mof_C 	C 	0.4106	0.3968	0.4864	-0.075
Mof_C 	C 	0.4524	0.4367	0.545	-0.039
Mof_H 	H 	0.4504	0.4265	0.5915	0.062
Mof_C 	C 	0.415	0.4116	0.4157	0.011
Mof_H 	H 	0.3869	0.3848	0.3761	0.043
Mof_C 	C 	0.4986	0.4932	0.5357	0.028
Mof_C 	C 	0.4601	0.4648	0.4053	-0.089
Mof_H 	H 	0.4637	0.4735	0.3588	0.063
Mof_Zn	Zn	0.21463	0.25341	0.93641	1.216
Mof_Zn	Zn	0.29755	0.24565	0.09884	1.215
Mof_O 	O 	0.3048	0.32863	0.9564	-0.455
Mof_O 	O 	0.3882	0.30488	0.0732	-0.457
Mof_O 	O 	0.1287	0.3133	0.9647	-0.454
Mof_O 	O 	0.2139	0.3242	0.0841	-0.459
Mof_O 	O 	0.1521	0.1788	0.9706	-0.459
Mof_O 	O 	0.1937	0.1848	0.0939	-0.449
Mof_O 	O 	0.3159	0.1918	0.9393	-0.455
Mof_O 	O 	0.3571	0.17177	0.061	-0.456
Mof_N 	N 	0.1464	0.2543	0.8263	-0.268
Mof_N 	N 	0.3655	0.2535	0.71	-0.268
Mof_C 	C 	0.1606	0.2105	0.7813	0.119
Mof_H 	H 	0.205	0.1794	0.8012	-0.013
Mof_C 	C 	0.0834	0.2984	0.7955	0.114
Mof_H 	H 	0.0729	0.33	0.8257	-0.011
Mof_C 	C 	0.1128	0.2088	0.7065	-0.201
Mof_H 	H 	0.1268	0.1781	0.677	0.114
Mof_C 	C 	0.0324	0.3002	0.721	-0.192
Mof_H 	H 	0.9906	0.3331	0.7019	0.103
Mof_C 	C 	0.0441	0.253	0.6756	0.154
Mof_C 	C 	0.9903	0.251	0.5984	-0.073
Mof_C 	C 	0.9444	0.2498	0.5352	0.039
Mof_C 	C 	0.8794	0.2586	0.46	-0.013
Mof_C 	C 	0.9226	0.2457	0.4089	0.01
Mof_C 	C 	0.784	0.2667	0.4372	-0
Mof_C 	C 	0.8683	0.2459	0.3322	0.011
Mof_C 	C 	0.7326	0.2642	0.3633	-0.004
Mof_C 	C 	0.7716	0.2547	0.3096	-0.008
Mof_C 	C 	0.719	0.2536	0.2299	-0
Mof_C 	C 	0.7519	0.2806	0.1783	0.01
Mof_C 	C 	0.643	0.236	0.2041	-0.007
Mof_C 	C 	0.7002	0.2793	0.1037	-0.011
Mof_C 	C 	0.591	0.2393	0.1307	-0.006
Mof_C 	C 	0.9004	0.2399	0.4553	-0.004
Mof_C 	C 	0.933	0.274	0.4051	-0.003
Mof_C 	C 	0.8294	0.2016	0.4292	-0.001
Mof_C 	C 	0.882	0.2747	0.3313	-0.018
Mof_C 	C 	0.7762	0.2008	0.3528	-0.007
Mof_C 	C 	0.7977	0.2394	0.3054	0.006
Mof_C 	C 	0.7415	0.2395	0.2245	-0.002
Mof_C 	C 	0.7814	0.2491	0.1713	-0.017
Mof_C 	C 	0.63	0.2213	0.2069	-0
Mof_C 	C 	0.7262	0.2519	0.0954	0.01
Mof_C 	C 	0.5777	0.2203	0.1318	0.01
Mof_C 	C 	0.6214	0.248	0.0775	-0.014
Mof_C 	C 	0.5668	0.2494	0.0007	0.038
Mof_C 	C 	0.5195	0.2505	0.9369	-0.073
Mof_C 	C 	0.4659	0.2516	0.8602	0.16
Mof_C 	C 	0.3951	0.2938	0.8311	-0.214
Mof_H 	H 	0.3793	0.3228	0.8615	0.118
Mof_C 	C 	0.4812	0.2074	0.8123	-0.197
Mof_H 	H 	0.5253	0.1757	0.8301	0.106
Mof_C 	C 	0.4316	0.2102	0.7384	0.114
Mof_H 	H 	0.4444	0.1808	0.707	-0.009
Mof_C 	C 	0.3477	0.2931	0.7567	0.131
Mof_H 	H 	0.3	0.3223	0.7381	-0.018
Mof_C 	C 	0.3709	0.3375	0.0163	0.373
Mof_C 	C 	0.4312	0.3953	0.0194	-0.078
Mof_C 	C 	0.5095	0.4044	0.0823	0.013
Mof_H 	H 	0.5257	0.3739	0.1195	0.043
Mof_C 	C 	0.4086	0.4385	0.963	-0.038
Mof_H 	H 	0.3582	0.4306	0.921	0.058
Mof_C 	C 	0.5622	0.4589	0.0887	-0.089
Mof_H 	H 	0.6133	0.4652	0.1306	0.065
Mof_C 	C 	0.4609	0.4953	0.9676	0.028
Mof_C 	C 	0.1516	0.3414	0.0256	0.371
Mof_C 	C 	0.1023	0.4032	0.0291	-0.081
Mof_C 	C 	0.1328	0.4423	0.092	0.015
Mof_H 	H 	0.1816	0.4292	0.133	0.037
Mof_C 	C 	0.0295	0.4211	0.9691	-0.034
Mof_H 	H 	0.0094	0.3944	0.9283	0.061
Mof_C 	C 	0.0909	0.4992	0.093	-0.09
Mof_H 	H 	0.1118	0.525	0.1345	0.065
Mof_C 	C 	0.9843	0.4804	0.9688	0.026
Mof_C 	C 	0.1504	0.1601	0.032	0.372
Mof_C 	C 	0.0927	0.1021	0.0319	-0.077
Mof_C 	C 	0.0819	0.0798	0.0984	0.013
Mof_H 	H 	0.1079	0.1025	0.1419	0.041
Mof_C 	C 	0.0536	0.068	0.9675	-0.038
Mof_H 	H 	0.0597	0.0832	0.9239	0.062
Mof_C 	C 	0.0336	0.025	0.0988	-0.093
Mof_H 	H 	0.0261	0.0115	0.1425	0.064
Mof_C 	C 	0.005	0.0114	0.966	0.031
Mof_C 	C 	0.3578	0.1606	0.9971	0.374
Mof_C 	C 	0.4106	0.1032	0.9864	-0.074
Mof_C 	C 	0.4524	0.0633	0.045	-0.04
Mof_H 	H 	0.4504	0.0735	0.0915	0.062
Mof_C 	C 	0.415	0.0884	0.9157	0.011
Mof_H 	H 	0.3869	0.1152	0.8761	0.043
Mof_C 	C 	0.4986	0.0068	0.0357	0.028
Mof_C 	C 	0.4601	0.0352	0.9053	-0.087
Mof_H 	H 	0.4637	0.0265	0.8588	0.063
Mof_Zn	Zn	0.78537	0.75341	0.56359	1.216
Mof_Zn	Zn	0.70245	0.74565	0.40116	1.215
Mof_O 	O 	0.6952	0.82863	0.5436	-0.455
Mof_O 	O 	0.6118	0.80488	0.4268	-0.457
Mof_O 	O 	0.8713	0.8133	0.5353	-0.456
Mof_O 	O 	0.7861	0.8242	0.4159	-0.459
Mof_O 	O 	0.8479	0.6788	0.5294	-0.46
Mof_O 	O 	0.8063	0.6848	0.4061	-0.449
Mof_O 	O 	0.6841	0.6918	0.5607	-0.455
Mof_O 	O 	0.6429	0.67177	0.439	-0.455
Mof_N 	N 	0.8536	0.7543	0.6737	-0.268
Mof_N 	N 	0.6345	0.7535	0.79	-0.268
Mof_C 	C 	0.8394	0.7105	0.7187	0.118
Mof_H 	H 	0.795	0.6794	0.6988	-0.013
Mof_C 	C 	0.9166	0.7984	0.7045	0.115
Mof_H 	H 	0.9271	0.83	0.6743	-0.012
Mof_C 	C 	0.8872	0.7088	0.7935	-0.201
Mof_H 	H 	0.8732	0.6781	0.823	0.114
Mof_C 	C 	0.9676	0.8002	0.779	-0.194
Mof_H 	H 	0.0094	0.8331	0.7981	0.104
Mof_C 	C 	0.9559	0.753	0.8244	0.153
Mof_C 	C 	0.0097	0.751	0.9016	-0.072
Mof_C 	C 	0.0556	0.7498	0.9648	0.039
Mof_C 	C 	0.1206	0.7586	0.04	-0.013
Mof_C 	C 	0.0774	0.7457	0.0911	0.01
Mof_C 	C 	0.216	0.7667	0.0628	-0
Mof_C 	C 	0.1317	0.7459	0.1678	0.012
Mof_C 	C 	0.2674	0.7642	0.1367	-0.003
Mof_C 	C 	0.2284	0.7547	0.1904	-0.009
Mof_C 	C 	0.281	0.7536	0.2701	-0
Mof_C 	C 	0.2481	0.7806	0.3217	0.01
Mof_C 	C 	0.357	0.736	0.2959	-0.007
Mof_C 	C 	0.2998	0.7793	0.3963	-0.011
Mof_C 	C 	0.409	0.7393	0.3693	-0.006
Mof_C 	C 	0.0996	0.7399	0.0447	-0.004
Mof_C 	C 	0.067	0.774	0.0949	-0.004
Mof_C 	C 	0.1706	0.7016	0.0708	-0.001
Mof_C 	C 	0.118	0.7747	0.1687	-0.02
Mof_C 	C 	0.2238	0.7008	0.1472	-0.008
Mof_C 	C 	0.2023	0.7394	0.1946	0.007
Mof_C 	C 	0.2585	0.7395	0.2755	-0.002
Mof_C 	C 	0.2186	0.7491	0.3287	-0.017
Mof_C 	C 	0.37	0.7213	0.2931	-0
Mof_C 	C 	0.2738	0.7519	0.4046	0.01
Mof_C 	C 	0.4223	0.7203	0.3682	0.01
Mof_C 	C 	0.3786	0.748	0.4225	-0.014
Mof_C 	C 	0.4332	0.7494	0.4993	0.038
Mof_C 	C 	0.4805	0.7505	0.5631	-0.074
Mof_C 	C 	0.5341	0.7516	0.6398	0.161
Mof_C 	C 	0.6049	0.7938	0.6689	-0.214
Mof_H 	H 	0.6207	0.8228	0.6385	0.118
Mof_C 	C 	0.5188	0.7074	0.6877	-0.198
Mof_H 	H 	0.4747	0.6757	0.6699	0.106
Mof_C 	C 	0.5684	0.7102	0.7616	0.114
Mof_H 	H 	0.5556	0.6808	0.793	-0.009
Mof_C 	C 	0.6523	0.7931	0.7433	0.131
Mof_H 	H 	0.7	0.8223	0.7619	-0.018
Mof_C 	C 	0.6291	0.8375	0.4837	0.374
Mof_C 	C 	0.5688	0.8953	0.4806	-0.077
Mof_C 	C 	0.4905	0.9044	0.4177	0.012
Mof_H 	H 	0.4743	0.8739	0.3805	0.043
Mof_C 	C 	0.5914	0.9385	0.537	-0.039
Mof_H 	H 	0.6418	0.9306	0.579	0.058
Mof_C 	C 	0.4378	0.9589	0.4113	-0.089
Mof_H 	H 	0.3867	0.9652	0.3694	0.065
Mof_C 	C 	0.5391	0.9953	0.5324	0.028
Mof_C 	C 	0.8484	0.8414	0.4744	0.372
Mof_C 	C 	0.8977	0.9032	0.4709	-0.078
Mof_C 	C 	0.8672	0.9423	0.408	0.013
Mof_H 	H 	0.8184	0.9292	0.367	0.038
Mof_C 	C 	0.9705	0.9211	0.5309	-0.037
Mof_H 	H 	0.9906	0.8944	0.5717	0.062
Mof_C 	C 	0.9091	0.9992	0.407	-0.087
Mof_H 	H 	0.8882	0.025	0.3655	0.063
Mof_C 	C 	0.0157	0.9804	0.5312	0.026
Mof_C 	C 	0.8496	0.6601	0.468	0.373
Mof_C 	C 	0.9073	0.6021	0.4681	-0.075
Mof_C 	C 	0.9181	0.5798	0.4016	0.011
Mof_H 	H 	0.8921	0.6025	0.3581	0.042
Mof_C 	C 	0.9464	0.568	0.5325	-0.04
Mof_H 	H 	0.9403	0.5832	0.5761	0.062
Mof_C 	C 	0.9664	0.525	0.4012	-0.089
Mof_H 	H 	0.9739	0.5115	0.3575	0.064
Mof_C 	C 	0.995	0.5114	0.534	0.029
Mof_C 	C 	0.6422	0.6606	0.5029	0.373
Mof_C 	C 	0.5894	0.6032	0.5136	-0.075
Mof_C 	C 	0.5476	0.5633	0.455	-0.039
Mof_H 	H 	0.5496	0.5735	0.4085	0.062
Mof_C 	C 	0.585	0.5884	0.5843	0.011
Mof_H 	H 	0.6131	0.6152	0.6239	0.043
Mof_C 	C 	0.5014	0.5068	0.4643	0.028
Mof_C 	C 	0.5399	0.5352	0.5947	-0.089
Mof_H 	H 	0.5363	0.5265	0.6412	0.063
_end
