# CIF file generated by openbabel 3.1.0, see https://openbabel.org
data_I
_chemical_name_common 'UFASEA_ion_b'
_cell_length_a 19.374
_cell_length_b 14.8874
_cell_length_c 15.3721
_cell_angle_alpha 90
_cell_angle_beta 111.753
_cell_angle_gamma 90
_space_group_name_H-M_alt 'P 1'
_space_group_name_Hall 'P 1'
loop_
    _symmetry_equiv_pos_as_xyz
    x,y,z
loop_
    _atom_site_label
    _atom_site_type_symbol
    _atom_site_fract_x
    _atom_site_fract_y
    _atom_site_fract_z
    _atom_site_occupancy
    Cd1      Cd       0.81809    0.08663    0.17834    1.000
    Cd2      Cd       0.81936    0.31636    0.54457    1.000
    Cd3      Cd       0.18033    0.18117    0.74532    1.000
    Cd4      Cd       0.81554    0.41939    0.11364    1.000
    C6       C        0.82520    0.09950    0.55600    1.000
    C7       C        0.81960    0.12350    0.46190    1.000
    C8       C        0.81380    0.07750    0.38140    1.000
    C9       C        0.81680    0.98100    0.35790    1.000
    C10      C        0.80760    0.21870    0.34990    1.000
    H11      H        0.80320    0.27370    0.31680    1.000
    C12      C        0.82880    0.39880    0.74750    1.000
    C13      C        0.82320    0.37470    0.83720    1.000
    C14      C        0.82050    0.42350    0.91390    1.000
    C15      C        0.82240    0.51970    0.93670    1.000
    C16      C        0.81390    0.28170    0.93940    1.000
    H17      H        0.81120    0.22700    0.97000    1.000
    C18      C        0.90490    0.27230    0.19510    1.000
    C19      C        0.95940    0.20540    0.22780    1.000
    C20      C        0.66060    0.36920    0.55960    1.000
    H21      H        0.69470    0.38450    0.62040    1.000
    C22      C        0.58640    0.38500    0.54070    1.000
    H23      H        0.57050    0.41300    0.58560    1.000
    C24      C        0.53690    0.35940    0.45620    1.000
    C25      C        0.56050    0.31840    0.39500    1.000
    H26      H        0.52630    0.29640    0.33700    1.000
    C27      C        0.63710    0.30880    0.41890    1.000
    H28      H        0.65430    0.28210    0.37450    1.000
    C29      C        0.45530    0.37220    0.43460    1.000
    C30      C        0.42820    0.36770    0.50910    1.000
    H31      H        0.46100    0.35660    0.57160    1.000
    C32      C        0.35190    0.38030    0.48750    1.000
    H33      H        0.33360    0.37570    0.53680    1.000
    C34      C        0.33110    0.40220    0.33210    1.000
    H35      H        0.29670    0.41280    0.27030    1.000
    C36      C        0.40470    0.39160    0.34550    1.000
    H37      H        0.42070    0.39760    0.29450    1.000
    C38      C        0.36270    0.19570    0.79120    1.000
    H39      H        0.34500    0.22650    0.73290    1.000
    C40      C        0.43980    0.18450    0.83520    1.000
    H41      H        0.47300    0.20510    0.80710    1.000
    C42      C        0.46520    0.14240    0.92120    1.000
    C43      C        0.41300    0.11210    0.95580    1.000
    H44      H        0.42930    0.08300    0.01500    1.000
    C45      C        0.33900    0.12290    0.90700    1.000
    H46      H        0.30450    0.09900    0.93160    1.000
    C47      C        0.54630    0.13140    0.97450    1.000
    C48      C        0.59640    0.11320    0.93570    1.000
    H49      H        0.57980    0.10840    0.86940    1.000
    C50      C        0.66960    0.10150    0.98670    1.000
    H51      H        0.70250    0.08840    0.95540    1.000
    C52      C        0.64730    0.12570    0.12000    1.000
    H53      H        0.66520    0.13090    0.18630    1.000
    C54      C        0.57400    0.13660    0.07250    1.000
    H55      H        0.54150    0.14780    0.10490    1.000
    N56      N        0.81470    0.21580    0.43790    1.000
    N57      N        0.80690    0.13940    0.30990    1.000
    N58      N        0.81850    0.28510    0.85620    1.000
    N59      N        0.81340    0.36390    0.97730    1.000
    N60      N        0.93640    0.12090    0.21650    1.000
    N61      N        0.68780    0.33540    0.50170    1.000
    N62      N        0.30460    0.39820    0.40290    1.000
    N63      N        0.31350    0.16720    0.82390    1.000
    N64      N        0.69680    0.10800    0.08050    1.000
    O65      O        0.82830    0.01920    0.57780    1.000
    O66      O        0.82810    0.16460    0.61100    1.000
    O67      O        0.81640    0.92040    0.40940    1.000
    O68      O        0.81980    0.96720    0.27760    1.000
    O69      O        0.82890    0.33390    0.69440    1.000
    O70      O        0.83480    0.48000    0.72880    1.000
    O71      O        0.82590    0.57990    0.88660    1.000
    O72      O        0.82250    0.53620    0.01870    1.000
    O73      O        0.83890    0.25140    0.15740    1.000
    O74      O        0.92280    0.35650    0.20190    1.000
    Cd83     Cd       0.18191    0.08663    0.32166    1.000
    Cd84     Cd       0.18064    0.31636    0.95543    1.000
    Cd85     Cd       0.81967    0.18117    0.75468    1.000
    Cd86     Cd       0.18446    0.41939    0.38636    1.000
    C88      C        0.17480    0.09950    0.94400    1.000
    C89      C        0.18040    0.12350    0.03810    1.000
    C90      C        0.18620    0.07750    0.11860    1.000
    C91      C        0.18320    0.98100    0.14210    1.000
    C92      C        0.19240    0.21870    0.15010    1.000
    H93      H        0.19680    0.27370    0.18320    1.000
    C94      C        0.17120    0.39880    0.75250    1.000
    C95      C        0.17680    0.37470    0.66280    1.000
    C96      C        0.17950    0.42350    0.58610    1.000
    C97      C        0.17760    0.51970    0.56330    1.000
    C98      C        0.18610    0.28170    0.56060    1.000
    H99      H        0.18880    0.22700    0.53000    1.000
    C100     C        0.09510    0.27230    0.30490    1.000
    C101     C        0.04060    0.20540    0.27220    1.000
    C102     C        0.33940    0.36920    0.94040    1.000
    H103     H        0.30530    0.38450    0.87960    1.000
    C104     C        0.41360    0.38500    0.95930    1.000
    H105     H        0.42950    0.41300    0.91440    1.000
    C106     C        0.46310    0.35940    0.04380    1.000
    C107     C        0.43950    0.31840    0.10500    1.000
    H108     H        0.47370    0.29640    0.16300    1.000
    C109     C        0.36290    0.30880    0.08110    1.000
    H110     H        0.34570    0.28210    0.12550    1.000
    C111     C        0.54470    0.37220    0.06540    1.000
    C112     C        0.57180    0.36770    0.99090    1.000
    H113     H        0.53900    0.35660    0.92840    1.000
    C114     C        0.64810    0.38030    0.01250    1.000
    H115     H        0.66640    0.37570    0.96320    1.000
    C116     C        0.66890    0.40220    0.16790    1.000
    H117     H        0.70330    0.41280    0.22970    1.000
    C118     C        0.59530    0.39160    0.15450    1.000
    H119     H        0.57930    0.39760    0.20550    1.000
    C120     C        0.63730    0.19570    0.70880    1.000
    H121     H        0.65500    0.22650    0.76710    1.000
    C122     C        0.56020    0.18450    0.66480    1.000
    H123     H        0.52700    0.20510    0.69290    1.000
    C124     C        0.53480    0.14240    0.57880    1.000
    C125     C        0.58700    0.11210    0.54420    1.000
    H126     H        0.57070    0.08300    0.48500    1.000
    C127     C        0.66100    0.12290    0.59300    1.000
    H128     H        0.69550    0.09900    0.56840    1.000
    C129     C        0.45370    0.13140    0.52550    1.000
    C130     C        0.40360    0.11320    0.56430    1.000
    H131     H        0.42020    0.10840    0.63060    1.000
    C132     C        0.33040    0.10150    0.51330    1.000
    H133     H        0.29750    0.08840    0.54460    1.000
    C134     C        0.35270    0.12570    0.38000    1.000
    H135     H        0.33480    0.13090    0.31370    1.000
    C136     C        0.42600    0.13660    0.42750    1.000
    H137     H        0.45850    0.14780    0.39510    1.000
    N138     N        0.18530    0.21580    0.06210    1.000
    N139     N        0.19310    0.13940    0.19010    1.000
    N140     N        0.18150    0.28510    0.64380    1.000
    N141     N        0.18660    0.36390    0.52270    1.000
    N142     N        0.06360    0.12090    0.28350    1.000
    N143     N        0.31220    0.33540    0.99830    1.000
    N144     N        0.69540    0.39820    0.09710    1.000
    N145     N        0.68650    0.16720    0.67610    1.000
    N146     N        0.30320    0.10800    0.41950    1.000
    O147     O        0.17170    0.01920    0.92220    1.000
    O148     O        0.17190    0.16460    0.88900    1.000
    O149     O        0.18360    0.92040    0.09060    1.000
    O150     O        0.18020    0.96720    0.22240    1.000
    O151     O        0.17110    0.33390    0.80560    1.000
    O152     O        0.16520    0.48000    0.77120    1.000
    O153     O        0.17410    0.57990    0.61340    1.000
    O154     O        0.17750    0.53620    0.48130    1.000
    O155     O        0.16110    0.25140    0.34260    1.000
    O156     O        0.07720    0.35650    0.29810    1.000
    Cd165    Cd       0.18191    0.91337    0.82166    1.000
    Cd166    Cd       0.18064    0.68364    0.45543    1.000
    Cd167    Cd       0.81967    0.81883    0.25468    1.000
    Cd168    Cd       0.18446    0.58061    0.88636    1.000
    C170     C        0.17480    0.90050    0.44400    1.000
    C171     C        0.18040    0.87650    0.53810    1.000
    C172     C        0.18620    0.92250    0.61860    1.000
    C173     C        0.18320    0.01900    0.64210    1.000
    C174     C        0.19240    0.78130    0.65010    1.000
    H175     H        0.19680    0.72630    0.68320    1.000
    C176     C        0.17120    0.60120    0.25250    1.000
    C177     C        0.17680    0.62530    0.16280    1.000
    C178     C        0.17950    0.57650    0.08610    1.000
    C179     C        0.17760    0.48030    0.06330    1.000
    C180     C        0.18610    0.71830    0.06060    1.000
    H181     H        0.18880    0.77300    0.03000    1.000
    C182     C        0.09510    0.72770    0.80490    1.000
    C183     C        0.04060    0.79460    0.77220    1.000
    C184     C        0.33940    0.63080    0.44040    1.000
    H185     H        0.30530    0.61550    0.37960    1.000
    C186     C        0.41360    0.61500    0.45930    1.000
    H187     H        0.42950    0.58700    0.41440    1.000
    C188     C        0.46310    0.64060    0.54380    1.000
    C189     C        0.43950    0.68160    0.60500    1.000
    H190     H        0.47370    0.70360    0.66300    1.000
    C191     C        0.36290    0.69120    0.58110    1.000
    H192     H        0.34570    0.71790    0.62550    1.000
    C193     C        0.54470    0.62780    0.56540    1.000
    C194     C        0.57180    0.63230    0.49090    1.000
    H195     H        0.53900    0.64340    0.42840    1.000
    C196     C        0.64810    0.61970    0.51250    1.000
    H197     H        0.66640    0.62430    0.46320    1.000
    C198     C        0.66890    0.59780    0.66790    1.000
    H199     H        0.70330    0.58720    0.72970    1.000
    C200     C        0.59530    0.60840    0.65450    1.000
    H201     H        0.57930    0.60240    0.70550    1.000
    C202     C        0.63730    0.80430    0.20880    1.000
    H203     H        0.65500    0.77350    0.26710    1.000
    C204     C        0.56020    0.81550    0.16480    1.000
    H205     H        0.52700    0.79490    0.19290    1.000
    C206     C        0.53480    0.85760    0.07880    1.000
    C207     C        0.58700    0.88790    0.04420    1.000
    H208     H        0.57070    0.91700    0.98500    1.000
    C209     C        0.66100    0.87710    0.09300    1.000
    H210     H        0.69550    0.90100    0.06840    1.000
    C211     C        0.45370    0.86860    0.02550    1.000
    C212     C        0.40360    0.88680    0.06430    1.000
    H213     H        0.42020    0.89160    0.13060    1.000
    C214     C        0.33040    0.89850    0.01330    1.000
    H215     H        0.29750    0.91160    0.04460    1.000
    C216     C        0.35270    0.87430    0.88000    1.000
    H217     H        0.33480    0.86910    0.81370    1.000
    C218     C        0.42600    0.86340    0.92750    1.000
    H219     H        0.45850    0.85220    0.89510    1.000
    N220     N        0.18530    0.78420    0.56210    1.000
    N221     N        0.19310    0.86060    0.69010    1.000
    N222     N        0.18150    0.71490    0.14380    1.000
    N223     N        0.18660    0.63610    0.02270    1.000
    N224     N        0.06360    0.87910    0.78350    1.000
    N225     N        0.31220    0.66460    0.49830    1.000
    N226     N        0.69540    0.60180    0.59710    1.000
    N227     N        0.68650    0.83280    0.17610    1.000
    N228     N        0.30320    0.89200    0.91950    1.000
    O229     O        0.17170    0.98080    0.42220    1.000
    O230     O        0.17190    0.83540    0.38900    1.000
    O231     O        0.18360    0.07960    0.59060    1.000
    O232     O        0.18020    0.03280    0.72240    1.000
    O233     O        0.17110    0.66610    0.30560    1.000
    O234     O        0.16520    0.52000    0.27120    1.000
    O235     O        0.17410    0.42010    0.11340    1.000
    O236     O        0.17750    0.46380    0.98130    1.000
    O237     O        0.16110    0.74860    0.84260    1.000
    O238     O        0.07720    0.64350    0.79810    1.000
    Cd247    Cd       0.81809    0.91337    0.67834    1.000
    Cd248    Cd       0.81936    0.68364    0.04457    1.000
    Cd249    Cd       0.18033    0.81883    0.24532    1.000
    Cd250    Cd       0.81554    0.58061    0.61364    1.000
    C252     C        0.82520    0.90050    0.05600    1.000
    C253     C        0.81960    0.87650    0.96190    1.000
    C254     C        0.81380    0.92250    0.88140    1.000
    C255     C        0.81680    0.01900    0.85790    1.000
    C256     C        0.80760    0.78130    0.84990    1.000
    H257     H        0.80320    0.72630    0.81680    1.000
    C258     C        0.82880    0.60120    0.24750    1.000
    C259     C        0.82320    0.62530    0.33720    1.000
    C260     C        0.82050    0.57650    0.41390    1.000
    C261     C        0.82240    0.48030    0.43670    1.000
    C262     C        0.81390    0.71830    0.43940    1.000
    H263     H        0.81120    0.77300    0.47000    1.000
    C264     C        0.90490    0.72770    0.69510    1.000
    C265     C        0.95940    0.79460    0.72780    1.000
    C266     C        0.66060    0.63080    0.05960    1.000
    H267     H        0.69470    0.61550    0.12040    1.000
    C268     C        0.58640    0.61500    0.04070    1.000
    H269     H        0.57050    0.58700    0.08560    1.000
    C270     C        0.53690    0.64060    0.95620    1.000
    C271     C        0.56050    0.68160    0.89500    1.000
    H272     H        0.52630    0.70360    0.83700    1.000
    C273     C        0.63710    0.69120    0.91890    1.000
    H274     H        0.65430    0.71790    0.87450    1.000
    C275     C        0.45530    0.62780    0.93460    1.000
    C276     C        0.42820    0.63230    0.00910    1.000
    H277     H        0.46100    0.64340    0.07160    1.000
    C278     C        0.35190    0.61970    0.98750    1.000
    H279     H        0.33360    0.62430    0.03680    1.000
    C280     C        0.33110    0.59780    0.83210    1.000
    H281     H        0.29670    0.58720    0.77030    1.000
    C282     C        0.40470    0.60840    0.84550    1.000
    H283     H        0.42070    0.60240    0.79450    1.000
    C284     C        0.36270    0.80430    0.29120    1.000
    H285     H        0.34500    0.77350    0.23290    1.000
    C286     C        0.43980    0.81550    0.33520    1.000
    H287     H        0.47300    0.79490    0.30710    1.000
    C288     C        0.46520    0.85760    0.42120    1.000
    C289     C        0.41300    0.88790    0.45580    1.000
    H290     H        0.42930    0.91700    0.51500    1.000
    C291     C        0.33900    0.87710    0.40700    1.000
    H292     H        0.30450    0.90100    0.43160    1.000
    C293     C        0.54630    0.86860    0.47450    1.000
    C294     C        0.59640    0.88680    0.43570    1.000
    H295     H        0.57980    0.89160    0.36940    1.000
    C296     C        0.66960    0.89850    0.48670    1.000
    H297     H        0.70250    0.91160    0.45540    1.000
    C298     C        0.64730    0.87430    0.62000    1.000
    H299     H        0.66520    0.86910    0.68630    1.000
    C300     C        0.57400    0.86340    0.57250    1.000
    H301     H        0.54150    0.85220    0.60490    1.000
    N302     N        0.81470    0.78420    0.93790    1.000
    N303     N        0.80690    0.86060    0.80990    1.000
    N304     N        0.81850    0.71490    0.35620    1.000
    N305     N        0.81340    0.63610    0.47730    1.000
    N306     N        0.93640    0.87910    0.71650    1.000
    N307     N        0.68780    0.66460    0.00170    1.000
    N308     N        0.30460    0.60180    0.90290    1.000
    N309     N        0.31350    0.83280    0.32390    1.000
    N310     N        0.69680    0.89200    0.58050    1.000
    O311     O        0.82830    0.98080    0.07780    1.000
    O312     O        0.82810    0.83540    0.11100    1.000
    O313     O        0.81640    0.07960    0.90940    1.000
    O314     O        0.81980    0.03280    0.77760    1.000
    O315     O        0.82890    0.66610    0.19440    1.000
    O316     O        0.83480    0.52000    0.22880    1.000
    O317     O        0.82590    0.42010    0.38660    1.000
    O318     O        0.82250    0.46380    0.51870    1.000
    O319     O        0.83890    0.74860    0.65740    1.000
    O320     O        0.92280    0.64350    0.70190    1.000
    C329     C        0.00000    0.06790    0.25000    1.000
    H330     H        0.00000    0.00410    0.25000    1.000
    C332     C        0.00000    0.93210    0.75000    1.000
    H333     H        0.00000    0.99590    0.75000    1.000
