# CIF file generated by openbabel 3.1.0, see https://openbabel.org
data_I
_chemical_name_common 'CEHWIX_clean'
_cell_length_a 7.8651
_cell_length_b 10.545
_cell_length_c 11.2
_cell_angle_alpha 90
_cell_angle_beta 90
_cell_angle_gamma 90
_space_group_name_H-M_alt 'P 1'
_space_group_name_Hall 'P 1'
loop_
    _symmetry_equiv_pos_as_xyz
    x,y,z
loop_
    _atom_site_label
    _atom_site_type_symbol
    _atom_site_fract_x
    _atom_site_fract_y
    _atom_site_fract_z
    _atom_site_occupancy
    Ni1      Ni       0.74308    0.21545    0.32108    1.000
    Ni2      Ni       0.24308    0.78455    0.67892    1.000
    Ni3      Ni       0.74308    0.71545    0.17892    1.000
    Ni4      Ni       0.24308    0.28455    0.82108    1.000
    H1       H        0.96390    0.03770    0.14440    1.000
    H2       H        0.99590    0.42810    0.98210    1.000
    H3       H        0.12550    0.07230    0.97950    1.000
    H4       H        0.46390    0.96230    0.85560    1.000
    H5       H        0.49590    0.57190    0.01790    1.000
    H6       H        0.62550    0.92770    0.02050    1.000
    H7       H        0.96390    0.53770    0.35560    1.000
    H8       H        0.99590    0.92810    0.51790    1.000
    H9       H        0.12550    0.57230    0.52050    1.000
    H10      H        0.46390    0.46230    0.64440    1.000
    H11      H        0.49590    0.07190    0.48210    1.000
    H12      H        0.62550    0.42770    0.47950    1.000
    C1       C        0.78860    0.42890    0.17300    1.000
    C2       C        0.96920    0.11900    0.11240    1.000
    C3       C        0.89090    0.32580    0.11220    1.000
    C4       C        0.99150    0.34700    0.01460    1.000
    C5       C        0.06770    0.14020    0.01350    1.000
    C6       C        0.28860    0.57110    0.82700    1.000
    C7       C        0.46920    0.88100    0.88760    1.000
    C8       C        0.39090    0.67420    0.88780    1.000
    C9       C        0.49150    0.65300    0.98540    1.000
    C10      C        0.56770    0.85980    0.98650    1.000
    C11      C        0.78860    0.92890    0.32700    1.000
    C12      C        0.96920    0.61900    0.38760    1.000
    C13      C        0.89090    0.82580    0.38780    1.000
    C14      C        0.99150    0.84700    0.48540    1.000
    C15      C        0.06770    0.64020    0.48650    1.000
    C16      C        0.28860    0.07110    0.67300    1.000
    C17      C        0.46920    0.38100    0.61240    1.000
    C18      C        0.39090    0.17420    0.61220    1.000
    C19      C        0.49150    0.15300    0.51460    1.000
    C20      C        0.56770    0.35980    0.51350    1.000
    N1       N        0.88200    0.21070    0.16320    1.000
    N2       N        0.08370    0.25460    0.96440    1.000
    N3       N        0.38200    0.78930    0.83680    1.000
    N4       N        0.58370    0.74540    0.03560    1.000
    N5       N        0.88200    0.71070    0.33680    1.000
    N6       N        0.08370    0.75460    0.53560    1.000
    N7       N        0.38200    0.28930    0.66320    1.000
    N8       N        0.58370    0.24540    0.46440    1.000
    Cl1      Cl       0.99210    0.28146    0.43893    1.000
    Cl2      Cl       0.49210    0.71854    0.56107    1.000
    Cl3      Cl       0.99210    0.78146    0.06107    1.000
    Cl4      Cl       0.49210    0.21854    0.93893    1.000
    O1       O        0.71420    0.40040    0.26740    1.000
    O2       O        0.79270    0.53530    0.12420    1.000
    O3       O        0.21420    0.59960    0.73260    1.000
    O4       O        0.29270    0.46470    0.87580    1.000
    O5       O        0.71420    0.90040    0.23260    1.000
    O6       O        0.79270    0.03530    0.37580    1.000
    O7       O        0.21420    0.09960    0.76740    1.000
    O8       O        0.29270    0.96470    0.62420    1.000
