# CIF file generated by openbabel 3.1.0, see https://openbabel.org
data_I
_chemical_name_common 'image0'
_cell_length_a 8.8694
_cell_length_b 17.827
_cell_length_c 9.4062
_cell_angle_alpha 90
_cell_angle_beta 107.25
_cell_angle_gamma 90
_space_group_name_H-M_alt 'P 1'
_space_group_name_Hall 'P 1'
loop_
    _symmetry_equiv_pos_as_xyz
    x,y,z
loop_
    _atom_site_label
    _atom_site_type_symbol
    _atom_site_fract_x
    _atom_site_fract_y
    _atom_site_fract_z
    _atom_site_occupancy
    Cd1      Cd       0.42282    0.57294    0.84954    1.000
    Cl1      Cl       0.69792    0.51416    0.98770    1.000
    N1       N        0.45630    0.66832    0.02290    1.000
    N2       N        0.49360    0.77058    0.20070    1.000
    N3       N        0.67780    0.87420    0.22800    1.000
    N4       N        0.37740    0.48435    0.66080    1.000
    N5       N        0.33520    0.38170    0.48780    1.000
    N6       N        0.45820    0.35308    0.29670    1.000
    C1       C        0.47900    0.71707    0.10380    1.000
    C2       C        0.59370    0.82407    0.21030    1.000
    C3       C        0.36720    0.43761    0.57880    1.000
    C4       C        0.40490    0.36966    0.38780    1.000
    Cd2      Cd       0.07718    0.07294    0.65046    1.000
    Cl2      Cl       0.80208    0.01416    0.51230    1.000
    N7       N        0.04370    0.16832    0.47710    1.000
    N8       N        0.00640    0.27058    0.29930    1.000
    N9       N        0.82220    0.37420    0.27200    1.000
    N10      N        0.12260    0.98435    0.83920    1.000
    N11      N        0.16480    0.88170    0.01220    1.000
    N12      N        0.04180    0.85308    0.20330    1.000
    C5       C        0.02100    0.21707    0.39620    1.000
    C6       C        0.90630    0.32407    0.28970    1.000
    C7       C        0.13280    0.93761    0.92120    1.000
    C8       C        0.09510    0.86966    0.11220    1.000
    Cd3      Cd       0.57718    0.42706    0.15046    1.000
    Cl3      Cl       0.30208    0.48584    0.01230    1.000
    N13      N        0.54370    0.33168    0.97710    1.000
    N14      N        0.50640    0.22942    0.79930    1.000
    N15      N        0.32220    0.12580    0.77200    1.000
    N16      N        0.62260    0.51565    0.33920    1.000
    N17      N        0.66480    0.61830    0.51220    1.000
    N18      N        0.54180    0.64692    0.70330    1.000
    C9       C        0.52100    0.28293    0.89620    1.000
    C10      C        0.40630    0.17593    0.78970    1.000
    C11      C        0.63280    0.56239    0.42120    1.000
    C12      C        0.59510    0.63034    0.61220    1.000
    Cd4      Cd       0.92282    0.92706    0.34954    1.000
    Cl4      Cl       0.19792    0.98584    0.48770    1.000
    N19      N        0.95630    0.83168    0.52290    1.000
    N20      N        0.99360    0.72942    0.70070    1.000
    N21      N        0.17780    0.62580    0.72800    1.000
    N22      N        0.87740    0.01565    0.16080    1.000
    N23      N        0.83520    0.11830    0.98780    1.000
    N24      N        0.95820    0.14692    0.79670    1.000
    C13      C        0.97900    0.78293    0.60380    1.000
    C14      C        0.09370    0.67593    0.71030    1.000
    C15      C        0.86720    0.06239    0.07880    1.000
    C16      C        0.90490    0.13034    0.88780    1.000
