# CIF file generated by openbabel 3.1.0, see https://openbabel.org
data_I
_chemical_name_common 'image0'
_cell_length_a 16.0324
_cell_length_b 6.3798
_cell_length_c 15.1705
_cell_angle_alpha 90
_cell_angle_beta 90
_cell_angle_gamma 90
_space_group_name_H-M_alt 'P 1'
_space_group_name_Hall 'P 1'
loop_
    _symmetry_equiv_pos_as_xyz
    x,y,z
loop_
    _atom_site_label
    _atom_site_type_symbol
    _atom_site_fract_x
    _atom_site_fract_y
    _atom_site_fract_z
    _atom_site_occupancy
    N1       N        0.37270    0.92290    0.14520    1.000
    N2       N        0.42610    0.85190    0.08520    1.000
    H1       H        0.22340    0.81530    0.22810    1.000
    H2       H        0.29370    0.82930    0.30270    1.000
    H3       H        0.26200    0.60540    0.26900    1.000
    N3       N        0.12730    0.07710    0.64520    1.000
    N4       N        0.07390    0.14810    0.58520    1.000
    H4       H        0.27660    0.18470    0.72810    1.000
    H5       H        0.20630    0.17070    0.80270    1.000
    H6       H        0.23800    0.39460    0.76900    1.000
    N5       N        0.62730    0.42290    0.85480    1.000
    N6       N        0.57390    0.35190    0.91480    1.000
    H7       H        0.77660    0.31530    0.77190    1.000
    H8       H        0.70630    0.32930    0.69730    1.000
    H9       H        0.73800    0.10540    0.73100    1.000
    N7       N        0.87270    0.57710    0.35480    1.000
    N8       N        0.92610    0.64810    0.41480    1.000
    H10      H        0.72340    0.68470    0.27190    1.000
    H11      H        0.79370    0.67070    0.19730    1.000
    H12      H        0.76200    0.89460    0.23100    1.000
    N9       N        0.62730    0.07710    0.85480    1.000
    N10      N        0.57390    0.14810    0.91480    1.000
    H13      H        0.77660    0.18470    0.77190    1.000
    H14      H        0.70630    0.17070    0.69730    1.000
    H15      H        0.73800    0.39460    0.73100    1.000
    N11      N        0.87270    0.92290    0.35480    1.000
    N12      N        0.92610    0.85190    0.41480    1.000
    H16      H        0.72340    0.81530    0.27190    1.000
    H17      H        0.79370    0.82930    0.19730    1.000
    H18      H        0.76200    0.60540    0.23100    1.000
    N13      N        0.37270    0.57710    0.14520    1.000
    N14      N        0.42610    0.64810    0.08520    1.000
    H19      H        0.22340    0.68470    0.22810    1.000
    H20      H        0.29370    0.67070    0.30270    1.000
    H21      H        0.26200    0.89460    0.26900    1.000
    N15      N        0.12730    0.42290    0.64520    1.000
    N16      N        0.07390    0.35190    0.58520    1.000
    H22      H        0.27660    0.31530    0.72810    1.000
    H23      H        0.20630    0.32930    0.80270    1.000
    H24      H        0.23800    0.10540    0.76900    1.000
    Cu1      Cu       0.36766    0.25000    0.15893    1.000
    O1       O        0.47230    0.25000    0.23230    1.000
    O2       O        0.36140    0.25000    0.31720    1.000
    O3       O        0.43780    0.25000    0.02680    1.000
    C1       C        0.43890    0.25000    0.30910    1.000
    O4       O        0.75150    0.25000    0.36750    1.000
    H25      H        0.39220    0.25000    0.98200    1.000
    C2       C        0.49440    0.25000    0.38760    1.000
    C3       C        0.57930    0.25000    0.37940    1.000
    C4       C        0.45840    0.25000    0.47150    1.000
    H26      H        0.60350    0.25000    0.32230    1.000
    C5       C        0.63240    0.25000    0.45550    1.000
    C6       C        0.50930    0.25000    0.54450    1.000
    H27      H        0.39950    0.25000    0.47810    1.000
    C7       C        0.59540    0.25000    0.53760    1.000
    C8       C        0.72530    0.25000    0.44700    1.000
    N17      N        0.47050    0.25000    0.63070    1.000
    H28      H        0.62900    0.25000    0.58930    1.000
    O5       O        0.76900    0.25000    0.51240    1.000
    O6       O        0.51740    0.25000    0.69670    1.000
    O7       O        0.39480    0.25000    0.63660    1.000
    Cu2      Cu       0.13234    0.75000    0.65893    1.000
    O8       O        0.02770    0.75000    0.73230    1.000
    O9       O        0.13860    0.75000    0.81720    1.000
    O10      O        0.06220    0.75000    0.52680    1.000
    C9       C        0.06110    0.75000    0.80910    1.000
    O11      O        0.74850    0.75000    0.86750    1.000
    H29      H        0.10780    0.75000    0.48200    1.000
    C10      C        0.00560    0.75000    0.88760    1.000
    C11      C        0.92070    0.75000    0.87940    1.000
    C12      C        0.04160    0.75000    0.97150    1.000
    H30      H        0.89650    0.75000    0.82230    1.000
    C13      C        0.86760    0.75000    0.95550    1.000
    C14      C        0.99070    0.75000    0.04450    1.000
    H31      H        0.10050    0.75000    0.97810    1.000
    C15      C        0.90460    0.75000    0.03760    1.000
    C16      C        0.77470    0.75000    0.94700    1.000
    N18      N        0.02950    0.75000    0.13070    1.000
    H32      H        0.87100    0.75000    0.08930    1.000
    O12      O        0.73100    0.75000    0.01240    1.000
    O13      O        0.98260    0.75000    0.19670    1.000
    O14      O        0.10520    0.75000    0.13660    1.000
    Cu3      Cu       0.63234    0.75000    0.84107    1.000
    O15      O        0.52770    0.75000    0.76770    1.000
    O16      O        0.63860    0.75000    0.68280    1.000
    O17      O        0.56220    0.75000    0.97320    1.000
    C17      C        0.56110    0.75000    0.69090    1.000
    O18      O        0.24850    0.75000    0.63250    1.000
    H33      H        0.60780    0.75000    0.01800    1.000
    C18      C        0.50560    0.75000    0.61240    1.000
    C19      C        0.42070    0.75000    0.62060    1.000
    C20      C        0.54160    0.75000    0.52850    1.000
    H34      H        0.39650    0.75000    0.67770    1.000
    C21      C        0.36760    0.75000    0.54450    1.000
    C22      C        0.49070    0.75000    0.45550    1.000
    H35      H        0.60050    0.75000    0.52190    1.000
    C23      C        0.40460    0.75000    0.46240    1.000
    C24      C        0.27470    0.75000    0.55300    1.000
    N19      N        0.52950    0.75000    0.36930    1.000
    H36      H        0.37100    0.75000    0.41070    1.000
    O19      O        0.23100    0.75000    0.48760    1.000
    O20      O        0.48260    0.75000    0.30330    1.000
    O21      O        0.60520    0.75000    0.36340    1.000
    Cu4      Cu       0.86766    0.25000    0.34107    1.000
    O22      O        0.97230    0.25000    0.26770    1.000
    O23      O        0.86140    0.25000    0.18280    1.000
    O24      O        0.93780    0.25000    0.47320    1.000
    C25      C        0.93890    0.25000    0.19090    1.000
    O25      O        0.25150    0.25000    0.13250    1.000
    H37      H        0.89220    0.25000    0.51800    1.000
    C26      C        0.99440    0.25000    0.11240    1.000
    C27      C        0.07930    0.25000    0.12060    1.000
    C28      C        0.95840    0.25000    0.02850    1.000
    H38      H        0.10350    0.25000    0.17770    1.000
    C29      C        0.13240    0.25000    0.04450    1.000
    C30      C        0.00930    0.25000    0.95550    1.000
    H39      H        0.89950    0.25000    0.02190    1.000
    C31      C        0.09540    0.25000    0.96240    1.000
    C32      C        0.22530    0.25000    0.05300    1.000
    N20      N        0.97050    0.25000    0.86930    1.000
    H40      H        0.12900    0.25000    0.91070    1.000
    O26      O        0.26900    0.25000    0.98760    1.000
    O27      O        0.01740    0.25000    0.80330    1.000
    O28      O        0.89480    0.25000    0.86340    1.000
    Cu5      Cu       0.50000    0.00000    0.00000    1.000
    Cu6      Cu       0.00000    0.00000    0.50000    1.000
    Cu7      Cu       0.50000    0.50000    0.00000    1.000
    Cu8      Cu       0.00000    0.50000    0.50000    1.000
    C33      C        0.33840    0.75000    0.18380    1.000
    C34      C        0.27410    0.75000    0.25140    1.000
    C35      C        0.16160    0.25000    0.68380    1.000
    C36      C        0.22590    0.25000    0.75140    1.000
    C37      C        0.66160    0.25000    0.81620    1.000
    C38      C        0.72590    0.25000    0.74860    1.000
    C39      C        0.83840    0.75000    0.31620    1.000
    C40      C        0.77410    0.75000    0.24860    1.000
