data_functionalizedCrystal
_audit_creation_method	'EQeq! by Chris Wilmer'
_symmetry_space_group_name_H-M	'P1'
_symmetry_Int_Tables_number	1
_symmetry_cell_setting	triclinic
loop_
_symmetry_equiv_pos_as_xyz
  x,y,z
_cell_length_a	18.001
_cell_length_b	18.001
_cell_length_c	12.946
_cell_angle_alpha	90
_cell_angle_beta	90
_cell_angle_gamma	90
loop_
_atom_site_label
_atom_site_type_symbol
_atom_site_fract_x
_atom_site_fract_y
_atom_site_fract_z
_atom_site_charge
Mof_N 	N 	0.5574	0.0437	0.3075	-0.14
Mof_N 	N 	0.514	0.0112	0.1539	-0.268
Mof_N 	N 	0.9129	0.0661	0.4742	-0.216
Mof_N 	N 	0.7985	0.1065	0.456	-0.138
Mof_C 	C 	0.6013	0.0778	0.3855	0.17
Mof_C 	C 	0.8421	0.0472	0.4709	0.038
Mof_H 	H 	0.8247	0.9989	0.4781	0.042
Mof_C 	C 	0.6076	0.1512	0.5396	0.048
Mof_C 	C 	0.6788	0.0728	0.3825	-0.233
Mof_H 	H 	0.7026	0.0465	0.3303	0.135
Mof_C 	C 	0.7188	0.108	0.4589	0.18
Mof_C 	C 	0.5686	0.0438	0.2046	0.09
Mof_H 	H 	0.6101	0.0645	0.1728	-0.005
Mof_O 	O 	0.4997	0.1988	0.6279	-0.225
Mof_C 	C 	0.4647	0.9884	0.2299	0.122
Mof_H 	H 	0.4205	0.963	0.2179	-0.005
Mof_C 	C 	0.5662	0.1176	0.4624	-0.174
Mof_H 	H 	0.5147	0.1218	0.4625	0.1
Mof_C 	C 	0.6851	0.1462	0.5374	-0.181
Mof_H 	H 	0.7134	0.1686	0.5888	0.113
Mof_C 	C 	0.4901	0.0084	0.3237	-0.092
Mof_H 	H 	0.467	0.0001	0.3869	0.054
Mof_C 	C 	0.9143	0.1415	0.4592	0.006
Mof_H 	H 	0.957	0.1705	0.4569	0.026
Mof_O 	O 	0.6098	0.2345	0.6809	-0.232
Mof_C 	C 	0.8447	0.1672	0.4484	0.015
Mof_H 	H 	0.8306	0.2163	0.4378	0.041
Mof_C 	C 	0.5718	0.1961	0.6235	0.237
Mof_N 	N 	0.9426	0.4563	0.3075	-0.134
Mof_N 	N 	0.986	0.4888	0.1539	-0.204
Mof_N 	N 	0.5871	0.4339	0.4742	-0.232
Mof_N 	N 	0.7015	0.3935	0.456	-0.15
Mof_C 	C 	0.8987	0.4222	0.3855	0.184
Mof_C 	C 	0.6579	0.4528	0.4709	0.111
Mof_H 	H 	0.6753	0.5011	0.4781	-0.016
Mof_C 	C 	0.8924	0.3488	0.5396	0.045
Mof_C 	C 	0.8212	0.4272	0.3825	-0.237
Mof_H 	H 	0.7974	0.4535	0.3303	0.145
Mof_C 	C 	0.7812	0.392	0.4589	0.19
Mof_C 	C 	0.9314	0.4562	0.2046	0.105
Mof_H 	H 	0.8899	0.4355	0.1728	-0.003
Mof_O 	O 	0.0003	0.3012	0.6279	-0.267
Mof_C 	C 	0.0353	0.5116	0.2299	-0.033
Mof_H 	H 	0.0795	0.537	0.2179	0.035
Mof_C 	C 	0.9338	0.3824	0.4624	-0.171
Mof_H 	H 	0.9853	0.3782	0.4625	0.116
Mof_C 	C 	0.8149	0.3538	0.5374	-0.179
Mof_H 	H 	0.7866	0.3314	0.5888	0.114
Mof_C 	C 	0.0099	0.4916	0.3237	-0.022
Mof_H 	H 	0.033	0.4999	0.3869	0.034
Mof_C 	C 	0.5857	0.3585	0.4592	0.005
Mof_H 	H 	0.543	0.3295	0.4569	0.018
Mof_O 	O 	0.8902	0.2655	0.6809	-0.239
Mof_C 	C 	0.6553	0.3328	0.4484	0.014
Mof_H 	H 	0.6694	0.2837	0.4378	0.041
Mof_C 	C 	0.9282	0.3039	0.6235	0.281
Mof_N 	N 	0.9563	0.0574	0.8075	-0.175
Mof_N 	N 	0.9888	0.014	0.6539	-0.212
Mof_N 	N 	0.9339	0.4129	0.9742	-0.224
Mof_N 	N 	0.8935	0.2985	0.956	-0.168
Mof_C 	C 	0.9222	0.1013	0.8855	0.193
Mof_C 	C 	0.9528	0.3421	0.9709	0.187
Mof_H 	H 	0.0011	0.3247	0.9781	-0.063
Mof_C 	C 	0.8488	0.1076	0.0396	0.04
Mof_C 	C 	0.9272	0.1788	0.8825	-0.263
Mof_H 	H 	0.9535	0.2026	0.8303	0.16
Mof_C 	C 	0.892	0.2188	0.9589	0.259
Mof_C 	C 	0.9562	0.0686	0.7046	0.103
Mof_H 	H 	0.9355	0.1101	0.6728	0.006
Mof_O 	O 	0.8012	0.9997	0.1279	-0.175
Mof_C 	C 	0.0116	0.9647	0.7299	-0.074
Mof_H 	H 	0.037	0.9205	0.7179	0.055
Mof_C 	C 	0.8824	0.0662	0.9624	-0.142
Mof_H 	H 	0.8782	0.0147	0.9625	0.1
Mof_C 	C 	0.8538	0.1851	0.0374	-0.256
Mof_H 	H 	0.8314	0.2134	0.0888	0.131
Mof_C 	C 	0.9916	0.9901	0.8237	0.122
Mof_H 	H 	0.9999	0.967	0.8869	0.028
Mof_C 	C 	0.8585	0.4143	0.9592	0.009
Mof_H 	H 	0.8295	0.457	0.9569	0.035
Mof_O 	O 	0.7655	0.1098	0.1809	-0.227
Mof_C 	C 	0.8328	0.3447	0.9484	0.026
Mof_H 	H 	0.7837	0.3306	0.9378	0.047
Mof_C 	C 	0.8039	0.0718	0.1235	0.193
Mof_N 	N 	0.5437	0.4426	0.8075	-0.148
Mof_N 	N 	0.5112	0.486	0.6539	-0.227
Mof_N 	N 	0.5661	0.0871	0.9742	-0.224
Mof_N 	N 	0.6065	0.2015	0.956	-0.156
Mof_C 	C 	0.5778	0.3987	0.8855	0.181
Mof_C 	C 	0.5472	0.1579	0.9709	0.118
Mof_H 	H 	0.4989	0.1753	0.9781	-0.015
Mof_C 	C 	0.6512	0.3924	0.0396	0.02
Mof_C 	C 	0.5728	0.3212	0.8825	-0.253
Mof_H 	H 	0.5465	0.2974	0.8303	0.149
Mof_C 	C 	0.608	0.2812	0.9589	0.244
Mof_C 	C 	0.5438	0.4314	0.7046	0.102
Mof_H 	H 	0.5645	0.3899	0.6728	0.004
Mof_O 	O 	0.6988	0.5003	0.1279	-0.228
Mof_C 	C 	0.4884	0.5353	0.7299	0.002
Mof_H 	H 	0.463	0.5795	0.7179	0.031
Mof_C 	C 	0.6176	0.4338	0.9624	-0.126
Mof_H 	H 	0.6218	0.4853	0.9625	0.104
Mof_C 	C 	0.6462	0.3149	0.0374	-0.243
Mof_H 	H 	0.6686	0.2866	0.0888	0.125
Mof_C 	C 	0.5084	0.5099	0.8237	0.01
Mof_H 	H 	0.5001	0.533	0.8869	0.045
Mof_C 	C 	0.6415	0.0857	0.9592	0.009
Mof_H 	H 	0.6705	0.043	0.9569	0.025
Mof_O 	O 	0.7345	0.3902	0.1809	-0.237
Mof_C 	C 	0.6672	0.1553	0.9484	0.022
Mof_H 	H 	0.7163	0.1694	0.9378	0.047
Mof_C 	C 	0.6961	0.4282	0.1235	0.241
Mof_N 	N 	0.4426	0.9563	0.6925	-0.163
Mof_N 	N 	0.486	0.9888	0.8461	-0.179
Mof_N 	N 	0.0871	0.9339	0.5258	-0.239
Mof_N 	N 	0.2015	0.8935	0.544	-0.165
Mof_C 	C 	0.3987	0.9222	0.6145	0.2
Mof_C 	C 	0.1579	0.9528	0.5291	0.187
Mof_H 	H 	0.1753	0.0011	0.5219	-0.08
Mof_C 	C 	0.3924	0.8488	0.4604	0.068
Mof_C 	C 	0.3212	0.9272	0.6175	-0.249
Mof_H 	H 	0.2974	0.9535	0.6697	0.156
Mof_C 	C 	0.2812	0.892	0.5411	0.207
Mof_C 	C 	0.4314	0.9562	0.7954	0.111
Mof_H 	H 	0.3899	0.9355	0.8272	0.013
Mof_O 	O 	0.5003	0.8012	0.3721	-0.211
Mof_C 	C 	0.5353	0.0116	0.7701	-0.115
Mof_H 	H 	0.5795	0.037	0.7821	0.064
Mof_C 	C 	0.4338	0.8824	0.5376	-0.189
Mof_H 	H 	0.4853	0.8782	0.5375	0.116
Mof_C 	C 	0.3149	0.8538	0.4626	-0.196
Mof_H 	H 	0.2866	0.8314	0.4112	0.12
Mof_C 	C 	0.5099	0.9916	0.6763	0.105
Mof_H 	H 	0.533	0.9999	0.6131	0.017
Mof_C 	C 	0.0857	0.8585	0.5408	0.004
Mof_H 	H 	0.043	0.8295	0.5431	0.018
Mof_O 	O 	0.3902	0.7655	0.3191	-0.229
Mof_C 	C 	0.1553	0.8328	0.5516	0.015
Mof_H 	H 	0.1694	0.7837	0.5622	0.041
Mof_C 	C 	0.4282	0.8039	0.3765	0.234
Mof_N 	N 	0.0574	0.5437	0.6925	-0.168
Mof_N 	N 	0.014	0.5112	0.8461	-0.236
Mof_N 	N 	0.4129	0.5661	0.5258	-0.233
Mof_N 	N 	0.2985	0.6065	0.544	-0.152
Mof_C 	C 	0.1013	0.5778	0.6145	0.186
Mof_C 	C 	0.3421	0.5472	0.5291	0.111
Mof_H 	H 	0.3247	0.4989	0.5219	-0.021
Mof_C 	C 	0.1076	0.6512	0.4604	0.071
Mof_C 	C 	0.1788	0.5728	0.6175	-0.246
Mof_H 	H 	0.2026	0.5465	0.6697	0.146
Mof_C 	C 	0.2188	0.608	0.5411	0.196
Mof_C 	C 	0.0686	0.5438	0.7954	0.098
Mof_H 	H 	0.1101	0.5645	0.8272	0.013
Mof_O 	O 	0.9997	0.6988	0.3721	-0.169
Mof_C 	C 	0.9647	0.4884	0.7701	0.028
Mof_H 	H 	0.9205	0.463	0.7821	0.027
Mof_C 	C 	0.0662	0.6176	0.5376	-0.192
Mof_H 	H 	0.0147	0.6218	0.5375	0.101
Mof_C 	C 	0.1851	0.6462	0.4626	-0.197
Mof_H 	H 	0.2134	0.6686	0.4112	0.119
Mof_C 	C 	0.9901	0.5084	0.6763	0.041
Mof_H 	H 	0.967	0.5001	0.6131	0.035
Mof_C 	C 	0.4143	0.6415	0.5408	0.005
Mof_H 	H 	0.457	0.6705	0.5431	0.023
Mof_O 	O 	0.1098	0.7345	0.3191	-0.221
Mof_C 	C 	0.3447	0.6672	0.5516	0.015
Mof_H 	H 	0.3306	0.7163	0.5622	0.041
Mof_C 	C 	0.0718	0.6961	0.3765	0.191
Mof_N 	N 	0.0437	0.9426	0.1925	-0.122
Mof_N 	N 	0.0112	0.986	0.3461	-0.233
Mof_N 	N 	0.0661	0.5871	0.0258	-0.23
Mof_N 	N 	0.1065	0.7015	0.044	-0.133
Mof_C 	C 	0.0778	0.8987	0.1145	0.177
Mof_C 	C 	0.0472	0.6579	0.0291	0.028
Mof_H 	H 	0.9989	0.6753	0.0219	0.034
Mof_C 	C 	0.1512	0.8924	0.9604	0.074
Mof_C 	C 	0.0728	0.8212	0.1175	-0.219
Mof_H 	H 	0.0465	0.7974	0.1697	0.13
Mof_C 	C 	0.108	0.7812	0.0411	0.126
Mof_C 	C 	0.0438	0.9314	0.2954	0.1
Mof_H 	H 	0.0645	0.8899	0.3272	0.003
Mof_O 	O 	0.1988	0.0003	0.8721	-0.257
Mof_C 	C 	0.9884	0.0353	0.2701	0.086
Mof_H 	H 	0.963	0.0795	0.2821	0.002
Mof_C 	C 	0.1176	0.9338	0.0376	-0.219
Mof_H 	H 	0.1218	0.9853	0.0375	0.118
Mof_C 	C 	0.1462	0.8149	0.9626	-0.119
Mof_H 	H 	0.1686	0.7866	0.9112	0.102
Mof_C 	C 	0.0084	0.0099	0.1763	-0.12
Mof_H 	H 	0.0001	0.033	0.1131	0.044
Mof_C 	C 	0.1415	0.5857	0.0408	0.001
Mof_H 	H 	0.1705	0.543	0.0431	0.008
Mof_O 	O 	0.2345	0.8902	0.8191	-0.232
Mof_C 	C 	0.1672	0.6553	0.0516	0.003
Mof_H 	H 	0.2163	0.6694	0.0622	0.035
Mof_C 	C 	0.1961	0.9282	0.8765	0.277
Mof_N 	N 	0.4563	0.5574	0.1925	-0.154
Mof_N 	N 	0.4888	0.514	0.3461	-0.226
Mof_N 	N 	0.4339	0.9129	0.0258	-0.229
Mof_N 	N 	0.3935	0.7985	0.044	-0.147
Mof_C 	C 	0.4222	0.6013	0.1145	0.19
Mof_C 	C 	0.4528	0.8421	0.0291	0.104
Mof_H 	H 	0.5011	0.8247	0.0219	-0.019
Mof_C 	C 	0.3488	0.6076	0.9604	0.098
Mof_C 	C 	0.4272	0.6788	0.1175	-0.231
Mof_H 	H 	0.4535	0.7026	0.1697	0.142
Mof_C 	C 	0.392	0.7188	0.0411	0.145
Mof_C 	C 	0.4562	0.5686	0.2954	0.1
Mof_H 	H 	0.4355	0.6101	0.3272	0.003
Mof_O 	O 	0.3012	0.4997	0.8721	-0.207
Mof_C 	C 	0.5116	0.4647	0.2701	-0.005
Mof_H 	H 	0.537	0.4205	0.2821	0.028
Mof_C 	C 	0.3824	0.5662	0.0376	-0.238
Mof_H 	H 	0.3782	0.5147	0.0375	0.112
Mof_C 	C 	0.3538	0.6851	0.9626	-0.136
Mof_H 	H 	0.3314	0.7134	0.9112	0.109
Mof_C 	C 	0.4916	0.4901	0.1763	0.01
Mof_H 	H 	0.4999	0.467	0.1131	0.024
Mof_C 	C 	0.3585	0.9143	0.0408	0.002
Mof_H 	H 	0.3295	0.957	0.0431	0.02
Mof_O 	O 	0.2655	0.6098	0.8191	-0.223
Mof_C 	C 	0.3328	0.8447	0.0516	0.008
Mof_H 	H 	0.2837	0.8306	0.0622	0.035
Mof_C 	C 	0.3039	0.5718	0.8765	0.23
Mof_Cu	Cu	4.35704e-33	3.00879e-33	0.5	0.823
Mof_Cu	Cu	0.5	0.5	0.5	0.856
Mof_Cu	Cu	-0	0.5	-0	0.822
Mof_Cu	Cu	0.5	0	-0	0.821
_end
