data_functionalizedCrystal
_audit_creation_method	'EQeq! by Chris Wilmer'
_symmetry_space_group_name_H-M	'P1'
_symmetry_Int_Tables_number	1
_symmetry_cell_setting	triclinic
loop_
_symmetry_equiv_pos_as_xyz
  x,y,z
_cell_length_a	25.801
_cell_length_b	16.7844
_cell_length_c	18.9522
_cell_angle_alpha	90
_cell_angle_beta	128.764
_cell_angle_gamma	90
loop_
_atom_site_label
_atom_site_type_symbol
_atom_site_fract_x
_atom_site_fract_y
_atom_site_fract_z
_atom_site_charge
Mof_Zn	Zn	0.26811	0.99028	0.29253	1.209
Mof_O 	O 	0.14802	0.08122	0.21264	-0.318
Mof_O 	O 	0.17737	0.96845	0.18604	-0.458
Mof_O 	O 	0.02094	0.91561	0.17615	-0.481
Mof_O 	O 	0.08721	0.83866	0.29325	-0.343
Mof_C 	C 	0.08562	0.82208	0.16803	-0.154
Mof_C 	C 	0.03766	0.93065	0.04626	-0.067
Mof_N 	N 	0.27664	0.95699	0.40269	-0.256
Mof_C 	C 	0.06454	0.00629	0.08235	-0.011
Mof_C 	C 	0.07301	0.8534	0.08968	0.12
Mof_N 	N 	0.07965	0.02446	0.351	-0.262
Mof_N 	N 	0.25486	0.90541	0.48797	-0.108
Mof_C 	C 	0.06368	0.86106	0.21706	0.369
Mof_C 	C 	0.97405	0.92683	0.9645	0.064
Mof_H 	H 	0.9562	0.8769	0.9396	0.031
Mof_C 	C 	0.13458	0.02047	0.16741	0.311
Mof_N 	N 	0.17417	0.08877	0.4358	-0.116
Mof_C 	C 	0.11771	0.7491	0.20134	0.07
Mof_H 	H 	0.1268	0.7293	0.2539	0.025
Mof_C 	C 	0.1067	0.0152	0.4395	0.001
Mof_H 	H 	0.088	0.9859	0.4602	0.027
Mof_N 	N 	0.31699	0.90744	0.27442	-0.258
Mof_C 	C 	0.25367	0.7716	0.538	-0.095
Mof_H 	H 	0.2334	0.7395	0.5575	0.063
Mof_H 	H 	0.3006	0.7763	0.5888	0.077
Mof_C 	C 	0.223	0.8534	0.5136	-0.06
Mof_H 	H 	0.1758	0.8495	0.4635	0.064
Mof_H 	H 	0.2284	0.8763	0.5648	0.064
Mof_C 	C 	0.12181	0.0695	0.3515	0.084
Mof_H 	H 	0.1158	0.0857	0.2999	0.001
Mof_C 	C 	0.23376	0.91538	0.4034	0.089
Mof_H 	H 	0.1939	0.8954	0.3518	-0
Mof_C 	C 	0.22188	0.223	0.4863	-0.099
Mof_H 	H 	0.1803	0.2461	0.4351	0.057
Mof_H 	H 	0.2202	0.2189	0.536	0.062
Mof_C 	C 	0.37291	0.9174	0.2868	0.09
Mof_H 	H 	0.3921	0.9667	0.2939	-0.006
Mof_C 	C 	0.31491	0.9429	0.5447	-0.008
Mof_H 	H 	0.3416	0.9456	0.6075	0.047
Mof_C 	C 	0.32807	0.9749	0.4925	0.008
Mof_H 	H 	0.3657	0.0044	0.5133	0.02
Mof_N 	N 	0.39848	0.8478	0.2879	-0.118
Mof_C 	C 	0.2288	0.1405	0.4613	-0.052
Mof_H 	H 	0.2299	0.1443	0.4111	0.053
Mof_H 	H 	0.2705	0.1173	0.5123	0.052
Mof_C 	C 	0.3557	0.7884	0.272	-0.018
Mof_H 	H 	0.3599	0.7339	0.2678	0.052
Mof_C 	C 	0.3062	0.8265	0.2637	0.014
Mof_H 	H 	0.2695	0.8013	0.2523	0.018
Mof_C 	C 	0.1644	0.0546	0.4921	-0.003
Mof_H 	H 	0.1924	0.0582	0.5549	0.038
Mof_C 	C 	0.13665	0.70496	0.15953	-0.142
Mof_O 	O 	0.18621	0.60199	0.26983	-0.34
Mof_C 	C 	0.09102	0.80824	0.04706	-0.163
Mof_H 	H 	0.0821	0.8276	0.9945	0.079
Mof_C 	C 	0.12201	0.73487	0.0806	0.07
Mof_H 	H 	0.133	0.7056	0.05	0.01
Mof_C 	C 	0.17055	0.62541	0.1984	0.363
Mof_O 	O 	0.18115	0.5868	0.15088	-0.475
Mof_C 	C 	0.4635	0.8411	0.2349	-0.113
Mof_H 	H 	0.4404	0.8888	0.1999	0.064
Mof_H 	H 	0.4393	0.7953	0.1964	0.061
Mof_C 	C 	0.4648	0.8384	0.3107	-0.037
Mof_H 	H 	0.4939	0.8803	0.3525	0.043
Mof_H 	H 	0.4837	0.7879	0.3414	0.043
Mof_Zn	Zn	0.76811	0.49028	0.29253	1.211
Mof_O 	O 	0.64802	0.58122	0.21264	-0.321
Mof_O 	O 	0.67737	0.46845	0.18604	-0.461
Mof_O 	O 	0.52094	0.41561	0.17615	-0.461
Mof_O 	O 	0.58721	0.33866	0.29325	-0.332
Mof_C 	C 	0.58562	0.32208	0.16803	-0.127
Mof_C 	C 	0.53766	0.43065	0.04626	0.031
Mof_N 	N 	0.77664	0.45699	0.40269	-0.254
Mof_C 	C 	0.56454	0.50629	0.08235	-0.073
Mof_C 	C 	0.57301	0.3534	0.08968	0.083
Mof_N 	N 	0.57965	0.52446	0.351	-0.256
Mof_N 	N 	0.75486	0.40541	0.48797	-0.108
Mof_C 	C 	0.56368	0.36106	0.21706	0.36
Mof_C 	C 	0.47405	0.42683	0.9645	-0.05
Mof_H 	H 	0.4562	0.3769	0.9396	0.059
Mof_C 	C 	0.63458	0.52047	0.16741	0.33
Mof_N 	N 	0.67417	0.58877	0.4358	-0.115
Mof_C 	C 	0.61771	0.2491	0.20134	0.055
Mof_H 	H 	0.6268	0.2293	0.2539	0.034
Mof_C 	C 	0.6067	0.5152	0.4395	0.002
Mof_H 	H 	0.588	0.4859	0.4602	0.035
Mof_N 	N 	0.81699	0.40744	0.27442	-0.256
Mof_C 	C 	0.75367	0.2716	0.538	-0.095
Mof_H 	H 	0.7334	0.2395	0.5575	0.064
Mof_H 	H 	0.8006	0.2763	0.5888	0.079
Mof_C 	C 	0.723	0.3534	0.5136	-0.06
Mof_H 	H 	0.6758	0.3495	0.4635	0.066
Mof_H 	H 	0.7284	0.3763	0.5648	0.065
Mof_C 	C 	0.62181	0.5695	0.3515	0.086
Mof_H 	H 	0.6158	0.5857	0.2999	0.003
Mof_C 	C 	0.73376	0.41538	0.4034	0.09
Mof_H 	H 	0.6939	0.3954	0.3518	-0.001
Mof_C 	C 	0.72188	0.723	0.4863	-0.1
Mof_H 	H 	0.6803	0.7461	0.4351	0.06
Mof_H 	H 	0.7202	0.7189	0.536	0.063
Mof_C 	C 	0.87291	0.4174	0.2868	0.089
Mof_H 	H 	0.8921	0.4667	0.2939	0.001
Mof_C 	C 	0.81491	0.4429	0.5447	-0.006
Mof_H 	H 	0.8416	0.4456	0.6075	0.05
Mof_C 	C 	0.82807	0.4749	0.4925	0.009
Mof_H 	H 	0.8657	0.5044	0.5133	0.027
Mof_N 	N 	0.89848	0.3478	0.2879	-0.104
Mof_C 	C 	0.7288	0.6405	0.4613	-0.052
Mof_H 	H 	0.7299	0.6443	0.4111	0.053
Mof_H 	H 	0.7705	0.6173	0.5123	0.053
Mof_C 	C 	0.8557	0.2884	0.272	-0.021
Mof_H 	H 	0.8599	0.2339	0.2678	0.056
Mof_C 	C 	0.8062	0.3265	0.2637	0.017
Mof_H 	H 	0.7695	0.3013	0.2523	0.017
Mof_C 	C 	0.6644	0.5546	0.4921	-0.002
Mof_H 	H 	0.6924	0.5582	0.5549	0.038
Mof_C 	C 	0.63665	0.20496	0.15953	-0.124
Mof_O 	O 	0.68621	0.10199	0.26983	-0.336
Mof_C 	C 	0.59102	0.30824	0.04706	-0.124
Mof_H 	H 	0.5821	0.3276	0.9945	0.072
Mof_C 	C 	0.62201	0.23487	0.0806	0.051
Mof_H 	H 	0.633	0.2056	0.05	0.023
Mof_C 	C 	0.67055	0.12541	0.1984	0.358
Mof_O 	O 	0.68115	0.0868	0.15088	-0.469
Mof_C 	C 	0.9635	0.3411	0.2349	0.017
Mof_H 	H 	0.9404	0.3888	0.1999	0.036
Mof_H 	H 	0.9393	0.2953	0.1964	0.032
Mof_C 	C 	0.9648	0.3384	0.3107	-0.12
Mof_H 	H 	0.9939	0.3803	0.3525	0.081
Mof_H 	H 	0.9837	0.2879	0.3414	0.08
Mof_Zn	Zn	0.73189	0.99028	0.20747	1.21
Mof_O 	O 	0.85198	0.08122	0.28736	-0.324
Mof_O 	O 	0.82263	0.96845	0.31396	-0.469
Mof_O 	O 	0.97906	0.91561	0.32385	-0.439
Mof_O 	O 	0.91279	0.83866	0.20675	-0.32
Mof_C 	C 	0.91438	0.82208	0.33197	-0.109
Mof_C 	C 	0.96234	0.93065	0.45374	0.112
Mof_N 	N 	0.72336	0.95699	0.09731	-0.256
Mof_C 	C 	0.93546	0.00629	0.41765	-0.127
Mof_C 	C 	0.92699	0.8534	0.41032	0.059
Mof_N 	N 	0.92035	0.02446	0.149	-0.246
Mof_N 	N 	0.74514	0.90541	0.01203	-0.108
Mof_C 	C 	0.93632	0.86106	0.28294	0.352
Mof_C 	C 	0.02595	0.92683	0.5355	-0.151
Mof_H 	H 	0.0438	0.8769	0.5604	0.084
Mof_C 	C 	0.86542	0.02047	0.33259	0.353
Mof_N 	N 	0.82583	0.08877	0.0642	-0.117
Mof_C 	C 	0.88229	0.7491	0.29866	0.047
Mof_H 	H 	0.8732	0.7293	0.2461	0.039
Mof_C 	C 	0.8933	0.0152	0.0605	0.009
Mof_H 	H 	0.912	0.9859	0.0398	0.038
Mof_N 	N 	0.68301	0.90744	0.22558	-0.258
Mof_C 	C 	0.74633	0.7716	0.962	-0.089
Mof_H 	H 	0.7666	0.7395	0.9425	0.064
Mof_H 	H 	0.6994	0.7763	0.9112	0.075
Mof_C 	C 	0.777	0.8534	0.9864	-0.067
Mof_H 	H 	0.8242	0.8495	0.0365	0.07
Mof_H 	H 	0.7716	0.8763	0.9352	0.068
Mof_C 	C 	0.87819	0.0695	0.1485	0.089
Mof_H 	H 	0.8842	0.0857	0.2001	0.007
Mof_C 	C 	0.76624	0.91538	0.0966	0.088
Mof_H 	H 	0.8061	0.8954	0.1482	-0.001
Mof_C 	C 	0.77812	0.223	0.0137	-0.085
Mof_H 	H 	0.8197	0.2461	0.0649	0.059
Mof_H 	H 	0.7798	0.2189	0.964	0.056
Mof_C 	C 	0.62709	0.9174	0.2132	0.09
Mof_H 	H 	0.6079	0.9667	0.2061	-0.006
Mof_C 	C 	0.68509	0.9429	0.9553	-0.01
Mof_H 	H 	0.6584	0.9456	0.8925	0.047
Mof_C 	C 	0.67193	0.9749	0.0075	0.011
Mof_H 	H 	0.6343	0.0044	0.9867	0.016
Mof_N 	N 	0.60152	0.8478	0.2121	-0.118
Mof_C 	C 	0.7712	0.1405	0.0387	-0.045
Mof_H 	H 	0.7701	0.1443	0.0889	0.052
Mof_H 	H 	0.7295	0.1173	0.9877	0.045
Mof_C 	C 	0.6443	0.7884	0.228	-0.019
Mof_H 	H 	0.6401	0.7339	0.2322	0.052
Mof_C 	C 	0.6938	0.8265	0.2363	0.014
Mof_H 	H 	0.7305	0.8013	0.2477	0.017
Mof_C 	C 	0.8356	0.0546	0.0079	0.009
Mof_H 	H 	0.8076	0.0582	0.9451	0.031
Mof_C 	C 	0.86335	0.70496	0.34047	-0.115
Mof_O 	O 	0.81379	0.60199	0.23017	-0.335
Mof_C 	C 	0.90898	0.80824	0.45294	-0.111
Mof_H 	H 	0.9179	0.8276	0.5055	0.078
Mof_C 	C 	0.87799	0.73487	0.4194	0.046
Mof_H 	H 	0.867	0.7056	0.45	0.028
Mof_C 	C 	0.82945	0.62541	0.3016	0.357
Mof_O 	O 	0.81885	0.5868	0.34912	-0.468
Mof_C 	C 	0.5365	0.8411	0.2651	-0.113
Mof_H 	H 	0.5596	0.8888	0.3001	0.064
Mof_H 	H 	0.5607	0.7953	0.3036	0.061
Mof_C 	C 	0.5352	0.8384	0.1893	-0.037
Mof_H 	H 	0.5061	0.8803	0.1475	0.043
Mof_H 	H 	0.5163	0.7879	0.1586	0.043
Mof_Zn	Zn	0.23189	0.49028	0.20747	1.21
Mof_O 	O 	0.35198	0.58122	0.28736	-0.32
Mof_O 	O 	0.32263	0.46845	0.31396	-0.461
Mof_O 	O 	0.47906	0.41561	0.32385	-0.462
Mof_O 	O 	0.41279	0.33866	0.20675	-0.332
Mof_C 	C 	0.41438	0.32208	0.33197	-0.132
Mof_C 	C 	0.46234	0.43065	0.45374	0.022
Mof_N 	N 	0.22336	0.45699	0.09731	-0.258
Mof_C 	C 	0.43546	0.50629	0.41765	-0.068
Mof_C 	C 	0.42699	0.3534	0.41032	0.091
Mof_N 	N 	0.42035	0.52446	0.149	-0.256
Mof_N 	N 	0.24514	0.40541	0.01203	-0.1
Mof_C 	C 	0.43632	0.36106	0.28294	0.361
Mof_C 	C 	0.52595	0.42683	0.5355	-0.04
Mof_H 	H 	0.5438	0.3769	0.5604	0.057
Mof_C 	C 	0.36542	0.52047	0.33259	0.328
Mof_N 	N 	0.32583	0.58877	0.0642	-0.117
Mof_C 	C 	0.38229	0.2491	0.29866	0.059
Mof_H 	H 	0.3732	0.2293	0.2461	0.032
Mof_C 	C 	0.3933	0.5152	0.0605	-0.001
Mof_H 	H 	0.412	0.4859	0.0398	0.037
Mof_N 	N 	0.18301	0.40744	0.22558	-0.259
Mof_C 	C 	0.24633	0.2716	0.962	-0.081
Mof_H 	H 	0.2666	0.2395	0.9425	0.059
Mof_H 	H 	0.1994	0.2763	0.9112	0.071
Mof_C 	C 	0.277	0.3534	0.9864	-0.082
Mof_H 	H 	0.3242	0.3495	0.0365	0.075
Mof_H 	H 	0.2716	0.3763	0.9352	0.071
Mof_C 	C 	0.37819	0.5695	0.1485	0.086
Mof_H 	H 	0.3842	0.5857	0.2001	0.003
Mof_C 	C 	0.26624	0.41538	0.0966	0.087
Mof_H 	H 	0.3061	0.3954	0.1482	0
Mof_C 	C 	0.27812	0.723	0.0137	-0.103
Mof_H 	H 	0.3197	0.7461	0.0649	0.061
Mof_H 	H 	0.2798	0.7189	0.964	0.063
Mof_C 	C 	0.12709	0.4174	0.2132	0.092
Mof_H 	H 	0.1079	0.4667	0.2061	-0.011
Mof_C 	C 	0.18509	0.4429	0.9553	-0.029
Mof_H 	H 	0.1584	0.4456	0.8925	0.049
Mof_C 	C 	0.17193	0.4749	0.0075	0.026
Mof_H 	H 	0.1343	0.5044	0.9867	0.004
Mof_N 	N 	0.10152	0.3478	0.2121	-0.131
Mof_C 	C 	0.2712	0.6405	0.0387	-0.044
Mof_H 	H 	0.2701	0.6443	0.0889	0.05
Mof_H 	H 	0.2295	0.6173	0.9877	0.046
Mof_C 	C 	0.1443	0.2884	0.228	-0.016
Mof_H 	H 	0.1401	0.2339	0.2322	0.048
Mof_C 	C 	0.1938	0.3265	0.2363	0.011
Mof_H 	H 	0.2305	0.3013	0.2477	0.018
Mof_C 	C 	0.3356	0.5546	0.0079	0.005
Mof_H 	H 	0.3076	0.5582	0.9451	0.034
Mof_C 	C 	0.36335	0.20496	0.34047	-0.129
Mof_O 	O 	0.31379	0.10199	0.23017	-0.337
Mof_C 	C 	0.40898	0.30824	0.45294	-0.139
Mof_H 	H 	0.4179	0.3276	0.5055	0.08
Mof_C 	C 	0.37799	0.23487	0.4194	0.059
Mof_H 	H 	0.367	0.2056	0.45	0.018
Mof_C 	C 	0.32945	0.12541	0.3016	0.36
Mof_O 	O 	0.31885	0.0868	0.34912	-0.471
Mof_C 	C 	0.0365	0.3411	0.2651	-0.243
Mof_H 	H 	0.0596	0.3888	0.3001	0.093
Mof_H 	H 	0.0607	0.2953	0.3036	0.09
Mof_C 	C 	0.0352	0.3384	0.1893	0.044
Mof_H 	H 	0.0061	0.3803	0.1475	0.006
Mof_H 	H 	0.0163	0.2879	0.1586	0.007
Mof_Zn	Zn	0.73189	0.00972	0.70747	1.21
Mof_O 	O 	0.85198	0.91878	0.78736	-0.324
Mof_O 	O 	0.82263	0.03155	0.81396	-0.467
Mof_O 	O 	0.97906	0.08439	0.82385	-0.439
Mof_O 	O 	0.91279	0.16134	0.70675	-0.32
Mof_C 	C 	0.91438	0.17792	0.83197	-0.115
Mof_C 	C 	0.96234	0.06935	0.95374	0.097
Mof_N 	N 	0.72336	0.04301	0.59731	-0.255
Mof_C 	C 	0.93546	0.99371	0.91765	-0.119
Mof_C 	C 	0.92699	0.1466	0.91032	0.071
Mof_N 	N 	0.92035	0.97554	0.649	-0.246
Mof_N 	N 	0.74514	0.09459	0.51203	-0.107
Mof_C 	C 	0.93632	0.13894	0.78294	0.354
Mof_C 	C 	0.02595	0.07317	0.0355	-0.135
Mof_H 	H 	0.0438	0.1231	0.0604	0.08
Mof_C 	C 	0.86542	0.97953	0.83259	0.349
Mof_N 	N 	0.82583	0.91123	0.5642	-0.116
Mof_C 	C 	0.88229	0.2509	0.79866	0.053
Mof_H 	H 	0.8732	0.2707	0.7461	0.037
Mof_C 	C 	0.8933	0.9848	0.5605	0.003
Mof_H 	H 	0.912	0.0141	0.5398	0.044
Mof_N 	N 	0.68301	0.09256	0.72558	-0.258
Mof_C 	C 	0.74633	0.2284	0.462	-0.09
Mof_H 	H 	0.7666	0.2605	0.4425	0.064
Mof_H 	H 	0.6994	0.2237	0.4112	0.076
Mof_C 	C 	0.777	0.1466	0.4864	-0.065
Mof_H 	H 	0.8242	0.1505	0.5365	0.07
Mof_H 	H 	0.7716	0.1237	0.4352	0.068
Mof_C 	C 	0.87819	0.9305	0.6485	0.088
Mof_H 	H 	0.8842	0.9143	0.7001	0.007
Mof_C 	C 	0.76624	0.08462	0.5966	0.089
Mof_H 	H 	0.8061	0.1046	0.6482	-0.001
Mof_C 	C 	0.77812	0.777	0.5137	-0.109
Mof_H 	H 	0.8197	0.7539	0.5649	0.066
Mof_H 	H 	0.7798	0.7811	0.464	0.066
Mof_C 	C 	0.62709	0.0826	0.7132	0.09
Mof_H 	H 	0.6079	0.0333	0.7061	-0.005
Mof_C 	C 	0.68509	0.0571	0.4553	-0.01
Mof_H 	H 	0.6584	0.0544	0.3925	0.048
Mof_C 	C 	0.67193	0.0251	0.5075	0.011
Mof_H 	H 	0.6343	0.9956	0.4867	0.018
Mof_N 	N 	0.60152	0.1522	0.7121	-0.118
Mof_C 	C 	0.7712	0.8595	0.5387	-0.045
Mof_H 	H 	0.7701	0.8557	0.5889	0.051
Mof_H 	H 	0.7295	0.8827	0.4877	0.049
Mof_C 	C 	0.6443	0.2116	0.728	-0.019
Mof_H 	H 	0.6401	0.2661	0.7322	0.052
Mof_C 	C 	0.6938	0.1735	0.7363	0.014
Mof_H 	H 	0.7305	0.1987	0.7477	0.017
Mof_C 	C 	0.8356	0.9454	0.5079	0.001
Mof_H 	H 	0.8076	0.9418	0.4451	0.037
Mof_C 	C 	0.86335	0.29504	0.84047	-0.122
Mof_O 	O 	0.81379	0.39801	0.73017	-0.336
Mof_C 	C 	0.90898	0.19176	0.95294	-0.132
Mof_H 	H 	0.9179	0.1724	0.0055	0.089
Mof_C 	C 	0.87799	0.26513	0.9194	0.058
Mof_H 	H 	0.867	0.2944	0.95	0.022
Mof_C 	C 	0.82945	0.37459	0.8016	0.36
Mof_O 	O 	0.81885	0.4132	0.84912	-0.469
Mof_C 	C 	0.5365	0.1589	0.7651	-0.111
Mof_H 	H 	0.5596	0.1112	0.8001	0.063
Mof_H 	H 	0.5607	0.2047	0.8036	0.06
Mof_C 	C 	0.5352	0.1616	0.6893	-0.038
Mof_H 	H 	0.5061	0.1197	0.6475	0.043
Mof_H 	H 	0.5163	0.2121	0.6586	0.043
Mof_Zn	Zn	0.23189	0.50972	0.70747	1.21
Mof_O 	O 	0.35198	0.41878	0.78736	-0.32
Mof_O 	O 	0.32263	0.53155	0.81396	-0.46
Mof_O 	O 	0.47906	0.58439	0.82385	-0.462
Mof_O 	O 	0.41279	0.66134	0.70675	-0.332
Mof_C 	C 	0.41438	0.67792	0.83197	-0.134
Mof_C 	C 	0.46234	0.56935	0.95374	0.014
Mof_N 	N 	0.22336	0.54301	0.59731	-0.256
Mof_C 	C 	0.43546	0.49371	0.91765	-0.063
Mof_C 	C 	0.42699	0.6466	0.91032	0.095
Mof_N 	N 	0.42035	0.47554	0.649	-0.257
Mof_N 	N 	0.24514	0.59459	0.51203	-0.108
Mof_C 	C 	0.43632	0.63894	0.78294	0.362
Mof_C 	C 	0.52595	0.57317	0.0355	-0.032
Mof_H 	H 	0.5438	0.6231	0.0604	0.054
Mof_C 	C 	0.36542	0.47953	0.83259	0.326
Mof_N 	N 	0.32583	0.41123	0.5642	-0.116
Mof_C 	C 	0.38229	0.7509	0.79866	0.061
Mof_H 	H 	0.3732	0.7707	0.7461	0.031
Mof_C 	C 	0.3933	0.4848	0.5605	0.002
Mof_H 	H 	0.412	0.5141	0.5398	0.035
Mof_N 	N 	0.18301	0.59256	0.72558	-0.259
Mof_C 	C 	0.24633	0.7284	0.462	-0.091
Mof_H 	H 	0.2666	0.7605	0.4425	0.063
Mof_H 	H 	0.1994	0.7237	0.4112	0.075
Mof_C 	C 	0.277	0.6466	0.4864	-0.064
Mof_H 	H 	0.3242	0.6505	0.5365	0.067
Mof_H 	H 	0.2716	0.6237	0.4352	0.066
Mof_C 	C 	0.37819	0.4305	0.6485	0.086
Mof_H 	H 	0.3842	0.4143	0.7001	0.003
Mof_C 	C 	0.26624	0.58462	0.5966	0.088
Mof_H 	H 	0.3061	0.6046	0.6482	-0
Mof_C 	C 	0.27812	0.277	0.5137	-0.108
Mof_H 	H 	0.3197	0.2539	0.5649	0.063
Mof_H 	H 	0.2798	0.2811	0.464	0.065
Mof_C 	C 	0.12709	0.5826	0.7132	0.092
Mof_H 	H 	0.1079	0.5333	0.7061	-0.012
Mof_C 	C 	0.18509	0.5571	0.4553	-0.012
Mof_H 	H 	0.1584	0.5544	0.3925	0.044
Mof_C 	C 	0.17193	0.5251	0.5075	0.008
Mof_H 	H 	0.1343	0.4956	0.4867	0.012
Mof_N 	N 	0.10152	0.6522	0.7121	-0.132
Mof_C 	C 	0.2712	0.3595	0.5387	-0.046
Mof_H 	H 	0.2701	0.3557	0.5889	0.051
Mof_H 	H 	0.2295	0.3827	0.4877	0.049
Mof_C 	C 	0.1443	0.7116	0.728	-0.016
Mof_H 	H 	0.1401	0.7661	0.7322	0.048
Mof_C 	C 	0.1938	0.6735	0.7363	0.011
Mof_H 	H 	0.2305	0.6987	0.7477	0.018
Mof_C 	C 	0.3356	0.4454	0.5079	-0.001
Mof_H 	H 	0.3076	0.4418	0.4451	0.038
Mof_C 	C 	0.36335	0.79504	0.84047	-0.132
Mof_O 	O 	0.31379	0.89801	0.73017	-0.338
Mof_C 	C 	0.40898	0.69176	0.95294	-0.146
Mof_H 	H 	0.4179	0.6724	0.0055	0.083
Mof_C 	C 	0.37799	0.76513	0.9194	0.063
Mof_H 	H 	0.367	0.7944	0.95	0.017
Mof_C 	C 	0.32945	0.87459	0.8016	0.361
Mof_O 	O 	0.31885	0.9132	0.84912	-0.471
Mof_C 	C 	0.0365	0.6589	0.7651	-0.243
Mof_H 	H 	0.0596	0.6112	0.8001	0.093
Mof_H 	H 	0.0607	0.7047	0.8036	0.09
Mof_C 	C 	0.0352	0.6616	0.6893	0.045
Mof_H 	H 	0.0061	0.6197	0.6475	0.005
Mof_H 	H 	0.0163	0.7121	0.6586	0.006
Mof_Zn	Zn	0.26811	0.00972	0.79253	1.21
Mof_O 	O 	0.14802	0.91878	0.71264	-0.316
Mof_O 	O 	0.17737	0.03155	0.68604	-0.455
Mof_O 	O 	0.02094	0.08439	0.67615	-0.481
Mof_O 	O 	0.08721	0.16134	0.79325	-0.343
Mof_C 	C 	0.08562	0.17792	0.66803	-0.155
Mof_C 	C 	0.03766	0.06935	0.54626	-0.072
Mof_N 	N 	0.27664	0.04301	0.90269	-0.253
Mof_C 	C 	0.06454	0.99371	0.58235	-0.007
Mof_C 	C 	0.07301	0.1466	0.58968	0.124
Mof_N 	N 	0.07965	0.97554	0.851	-0.264
Mof_N 	N 	0.25486	0.09459	0.98797	-0.119
Mof_C 	C 	0.06368	0.13894	0.71706	0.37
Mof_C 	C 	0.97405	0.07317	0.4645	0.074
Mof_H 	H 	0.9562	0.1231	0.4396	0.029
Mof_C 	C 	0.13458	0.97953	0.66741	0.308
Mof_N 	N 	0.17417	0.91123	0.9358	-0.115
Mof_C 	C 	0.11771	0.2509	0.70134	0.072
Mof_H 	H 	0.1268	0.2707	0.7539	0.025
Mof_C 	C 	0.1067	0.9848	0.9395	0.009
Mof_H 	H 	0.088	0.0141	0.9602	0.021
Mof_N 	N 	0.31699	0.09256	0.77442	-0.258
Mof_C 	C 	0.25367	0.2284	0.038	-0.107
Mof_H 	H 	0.2334	0.2605	0.0575	0.068
Mof_H 	H 	0.3006	0.2237	0.0888	0.081
Mof_C 	C 	0.223	0.1466	0.0136	-0.035
Mof_H 	H 	0.1758	0.1505	0.9635	0.053
Mof_H 	H 	0.2284	0.1237	0.0648	0.058
Mof_C 	C 	0.12181	0.9305	0.8515	0.084
Mof_H 	H 	0.1158	0.9143	0.7999	0.001
Mof_C 	C 	0.23376	0.08462	0.9034	0.09
Mof_H 	H 	0.1939	0.1046	0.8518	-0.001
Mof_C 	C 	0.22188	0.777	0.9863	-0.106
Mof_H 	H 	0.1803	0.7539	0.9351	0.059
Mof_H 	H 	0.2202	0.7811	0.036	0.065
Mof_C 	C 	0.37291	0.0826	0.7868	0.09
Mof_H 	H 	0.3921	0.0333	0.7939	-0.006
Mof_C 	C 	0.31491	0.0571	0.0447	0.015
Mof_H 	H 	0.3416	0.0544	0.1075	0.039
Mof_C 	C 	0.32807	0.0251	0.9925	-0.014
Mof_H 	H 	0.3657	0.9956	0.0133	0.028
Mof_N 	N 	0.39848	0.1522	0.7879	-0.118
Mof_C 	C 	0.2288	0.8595	0.9613	-0.05
Mof_H 	H 	0.2299	0.8557	0.9111	0.052
Mof_H 	H 	0.2705	0.8827	0.0123	0.051
Mof_C 	C 	0.3557	0.2116	0.772	-0.019
Mof_H 	H 	0.3599	0.2661	0.7678	0.052
Mof_C 	C 	0.3062	0.1735	0.7637	0.014
Mof_H 	H 	0.2695	0.1987	0.7523	0.018
Mof_C 	C 	0.1644	0.9454	0.9921	-0.007
Mof_H 	H 	0.1924	0.9418	0.0549	0.04
Mof_C 	C 	0.13665	0.29504	0.65953	-0.144
Mof_O 	O 	0.18621	0.39801	0.76983	-0.341
Mof_C 	C 	0.09102	0.19176	0.54706	-0.169
Mof_H 	H 	0.0821	0.1724	0.4945	0.082
Mof_C 	C 	0.12201	0.26513	0.5806	0.074
Mof_H 	H 	0.133	0.2944	0.55	0.009
Mof_C 	C 	0.17055	0.37459	0.6984	0.363
Mof_O 	O 	0.18115	0.4132	0.65088	-0.476
Mof_C 	C 	0.4635	0.1589	0.7349	-0.115
Mof_H 	H 	0.4404	0.1112	0.6999	0.065
Mof_H 	H 	0.4393	0.2047	0.6964	0.061
Mof_C 	C 	0.4648	0.1616	0.8107	-0.036
Mof_H 	H 	0.4939	0.1197	0.8525	0.042
Mof_H 	H 	0.4837	0.2121	0.8414	0.042
Mof_Zn	Zn	0.76811	0.50972	0.79253	1.21
Mof_O 	O 	0.64802	0.41878	0.71264	-0.321
Mof_O 	O 	0.67737	0.53155	0.68604	-0.461
Mof_O 	O 	0.52094	0.58439	0.67615	-0.462
Mof_O 	O 	0.58721	0.66134	0.79325	-0.332
Mof_C 	C 	0.58562	0.67792	0.66803	-0.131
Mof_C 	C 	0.53766	0.56935	0.54626	0.022
Mof_N 	N 	0.77664	0.54301	0.90269	-0.252
Mof_C 	C 	0.56454	0.49371	0.58235	-0.068
Mof_C 	C 	0.57301	0.6466	0.58968	0.091
Mof_N 	N 	0.57965	0.47554	0.851	-0.257
Mof_N 	N 	0.75486	0.59459	0.98797	-0.113
Mof_C 	C 	0.56368	0.63894	0.71706	0.361
Mof_C 	C 	0.47405	0.57317	0.4645	-0.04
Mof_H 	H 	0.4562	0.6231	0.4396	0.057
Mof_C 	C 	0.63458	0.47953	0.66741	0.328
Mof_N 	N 	0.67417	0.41123	0.9358	-0.115
Mof_C 	C 	0.61771	0.7509	0.70134	0.059
Mof_H 	H 	0.6268	0.7707	0.7539	0.032
Mof_C 	C 	0.6067	0.4848	0.9395	0.007
Mof_H 	H 	0.588	0.5141	0.9602	0.032
Mof_N 	N 	0.81699	0.59256	0.77442	-0.257
Mof_C 	C 	0.75367	0.7284	0.038	-0.098
Mof_H 	H 	0.7334	0.7605	0.0575	0.065
Mof_H 	H 	0.8006	0.7237	0.0888	0.079
Mof_C 	C 	0.723	0.6466	0.0136	-0.053
Mof_H 	H 	0.6758	0.6505	0.9635	0.063
Mof_H 	H 	0.7284	0.6237	0.0648	0.063
Mof_C 	C 	0.62181	0.4305	0.8515	0.086
Mof_H 	H 	0.6158	0.4143	0.7999	0.003
Mof_C 	C 	0.73376	0.58462	0.9034	0.09
Mof_H 	H 	0.6939	0.6046	0.8518	-0.001
Mof_C 	C 	0.72188	0.277	0.9863	-0.126
Mof_H 	H 	0.6803	0.2539	0.9351	0.067
Mof_H 	H 	0.7202	0.2811	0.036	0.073
Mof_C 	C 	0.87291	0.5826	0.7868	0.089
Mof_H 	H 	0.8921	0.5333	0.7939	0
Mof_C 	C 	0.81491	0.5571	0.0447	0.006
Mof_H 	H 	0.8416	0.5544	0.1075	0.045
Mof_C 	C 	0.82807	0.5251	0.9925	-0.006
Mof_H 	H 	0.8657	0.4956	0.0133	0.033
Mof_N 	N 	0.89848	0.6522	0.7879	-0.104
Mof_C 	C 	0.7288	0.3595	0.9613	-0.048
Mof_H 	H 	0.7299	0.3557	0.9111	0.052
Mof_H 	H 	0.7705	0.3827	0.0123	0.054
Mof_C 	C 	0.8557	0.7116	0.772	-0.021
Mof_H 	H 	0.8599	0.7661	0.7678	0.056
Mof_C 	C 	0.8062	0.6735	0.7637	0.017
Mof_H 	H 	0.7695	0.6987	0.7523	0.017
Mof_C 	C 	0.6644	0.4454	0.9921	-0.01
Mof_H 	H 	0.6924	0.4418	0.0549	0.043
Mof_C 	C 	0.63665	0.79504	0.65953	-0.129
Mof_O 	O 	0.68621	0.89801	0.76983	-0.337
Mof_C 	C 	0.59102	0.69176	0.54706	-0.139
Mof_H 	H 	0.5821	0.6724	0.4945	0.08
Mof_C 	C 	0.62201	0.76513	0.5806	0.06
Mof_H 	H 	0.633	0.7944	0.55	0.018
Mof_C 	C 	0.67055	0.87459	0.6984	0.36
Mof_O 	O 	0.68115	0.9132	0.65088	-0.471
Mof_C 	C 	0.9635	0.6589	0.7349	0.017
Mof_H 	H 	0.9404	0.6112	0.6999	0.035
Mof_H 	H 	0.9393	0.7047	0.6964	0.032
Mof_C 	C 	0.9648	0.6616	0.8107	-0.119
Mof_H 	H 	0.9939	0.6197	0.8525	0.08
Mof_H 	H 	0.9837	0.7121	0.8414	0.08
Mof_Zn	Zn	1.11963e-33	0.96097	0.25	1.2
Mof_Zn	Zn	0.5	0.46097	0.25	1.213
Mof_Zn	Zn	3.3589e-33	0.03903	0.75	1.2
Mof_Zn	Zn	0.5	0.53903	0.75	1.213
_end
