# CIF file generated by openbabel 3.1.0, see https://openbabel.org
data_I
_chemical_name_common 'image0'
_cell_length_a 8.8871
_cell_length_b 11.4931
_cell_length_c 16.457
_cell_angle_alpha 90
_cell_angle_beta 90
_cell_angle_gamma 90
_space_group_name_H-M_alt 'P 1'
_space_group_name_Hall 'P 1'
loop_
    _symmetry_equiv_pos_as_xyz
    x,y,z
loop_
    _atom_site_label
    _atom_site_type_symbol
    _atom_site_fract_x
    _atom_site_fract_y
    _atom_site_fract_z
    _atom_site_occupancy
    O1       O        0.01560    0.88510    0.08920    1.000
    O2       O        0.25410    0.88350    0.04920    1.000
    O3       O        0.47110    0.61550    0.08650    1.000
    O4       O        0.23060    0.61580    0.05070    1.000
    C1       C        0.19590    0.79620    0.17490    1.000
    C2       C        0.29470    0.70130    0.17770    1.000
    C3       C        0.15450    0.85700    0.09850    1.000
    C4       C        0.33420    0.64020    0.09760    1.000
    O5       O        0.51560    0.38510    0.08920    1.000
    O6       O        0.75410    0.38350    0.04920    1.000
    O7       O        0.97110    0.11550    0.08650    1.000
    O8       O        0.73060    0.11580    0.05070    1.000
    C5       C        0.69590    0.29620    0.17490    1.000
    C6       C        0.79470    0.20130    0.17770    1.000
    C7       C        0.65450    0.35700    0.09850    1.000
    C8       C        0.83420    0.14020    0.09760    1.000
    O9       O        0.98440    0.88510    0.91080    1.000
    O10      O        0.74590    0.88350    0.95080    1.000
    O11      O        0.52890    0.61550    0.91350    1.000
    O12      O        0.76940    0.61580    0.94930    1.000
    C9       C        0.80410    0.79620    0.82510    1.000
    C10      C        0.70530    0.70130    0.82230    1.000
    C11      C        0.84550    0.85700    0.90150    1.000
    C12      C        0.66580    0.64020    0.90240    1.000
    O13      O        0.48440    0.38510    0.91080    1.000
    O14      O        0.24590    0.38350    0.95080    1.000
    O15      O        0.02890    0.11550    0.91350    1.000
    O16      O        0.26940    0.11580    0.94930    1.000
    C13      C        0.30410    0.29620    0.82510    1.000
    C14      C        0.20530    0.20130    0.82230    1.000
    C15      C        0.34550    0.35700    0.90150    1.000
    C16      C        0.16580    0.14020    0.90240    1.000
    O17      O        0.98440    0.88510    0.58920    1.000
    O18      O        0.74590    0.88350    0.54920    1.000
    O19      O        0.52890    0.61550    0.58650    1.000
    O20      O        0.76940    0.61580    0.55070    1.000
    C17      C        0.80410    0.79620    0.67490    1.000
    C18      C        0.70530    0.70130    0.67770    1.000
    C19      C        0.84550    0.85700    0.59850    1.000
    C20      C        0.66580    0.64020    0.59760    1.000
    O21      O        0.48440    0.38510    0.58920    1.000
    O22      O        0.24590    0.38350    0.54920    1.000
    O23      O        0.02890    0.11550    0.58650    1.000
    O24      O        0.26940    0.11580    0.55070    1.000
    C21      C        0.30410    0.29620    0.67490    1.000
    C22      C        0.20530    0.20130    0.67770    1.000
    C23      C        0.34550    0.35700    0.59850    1.000
    C24      C        0.16580    0.14020    0.59760    1.000
    O25      O        0.01560    0.88510    0.41080    1.000
    O26      O        0.25410    0.88350    0.45080    1.000
    O27      O        0.47110    0.61550    0.41350    1.000
    O28      O        0.23060    0.61580    0.44930    1.000
    C25      C        0.19590    0.79620    0.32510    1.000
    C26      C        0.29470    0.70130    0.32230    1.000
    C27      C        0.15450    0.85700    0.40150    1.000
    C28      C        0.33420    0.64020    0.40240    1.000
    O29      O        0.51560    0.38510    0.41080    1.000
    O30      O        0.75410    0.38350    0.45080    1.000
    O31      O        0.97110    0.11550    0.41350    1.000
    O32      O        0.73060    0.11580    0.44930    1.000
    C29      C        0.69590    0.29620    0.32510    1.000
    C30      C        0.79470    0.20130    0.32230    1.000
    C31      C        0.65450    0.35700    0.40150    1.000
    C32      C        0.83420    0.14020    0.40240    1.000
    Cu1      Cu       0.00000    0.00191    0.00000    1.000
    Cu2      Cu       0.50000    0.50191    0.00000    1.000
    Cu3      Cu       0.00000    0.00191    0.50000    1.000
    Cu4      Cu       0.50000    0.50191    0.50000    1.000
    C33      C        0.14820    0.84570    0.25000    1.000
    H1       H        0.08560    0.91060    0.25000    1.000
    C34      C        0.34070    0.65900    0.25000    1.000
    H2       H        0.40810    0.59710    0.25000    1.000
    C35      C        0.64820    0.34570    0.25000    1.000
    H3       H        0.58560    0.41060    0.25000    1.000
    C36      C        0.84070    0.15900    0.25000    1.000
    H4       H        0.90810    0.09710    0.25000    1.000
    C37      C        0.85180    0.84570    0.75000    1.000
    H5       H        0.91440    0.91060    0.75000    1.000
    C38      C        0.65930    0.65900    0.75000    1.000
    H6       H        0.59190    0.59710    0.75000    1.000
    C39      C        0.35180    0.34570    0.75000    1.000
    H7       H        0.41440    0.41060    0.75000    1.000
    C40      C        0.15930    0.15900    0.75000    1.000
    H8       H        0.09190    0.09710    0.75000    1.000
