data_functionalizedCrystal
_audit_creation_method	'EQeq! by Chris Wilmer'
_symmetry_space_group_name_H-M	'P1'
_symmetry_Int_Tables_number	1
_symmetry_cell_setting	triclinic
loop_
_symmetry_equiv_pos_as_xyz
  x,y,z
_cell_length_a	8.8965
_cell_length_b	11.7193
_cell_length_c	52.414
_cell_angle_alpha	90
_cell_angle_beta	97.734
_cell_angle_gamma	90
loop_
_atom_site_label
_atom_site_type_symbol
_atom_site_fract_x
_atom_site_fract_y
_atom_site_fract_z
_atom_site_charge
Mof_Cd	Cd	0.32424	0.11561	0.06917	0.388
Mof_Cd	Cd	0.36123	0.15717	0.17937	0.339
Mof_Cd	Cd	0.88661	0.44135	0.18323	0.303
Mof_Cd	Cd	0.83484	0.41036	0.07268	0.273
Mof_Cd	Cd	0.8751	0.90377	0.21059	0.289
Mof_Cd	Cd	0.78286	0.8656	0.03895	0.291
Mof_C 	C 	0.3469	0.1238	0.1356	0.029
Mof_N 	N 	0.3402	0.116	0.114	-0.136
Mof_C 	C 	0.6408	0.2926	0.0686	-0.009
Mof_N 	N 	0.5361	0.2323	0.0698	-0.127
Mof_C 	C 	0.9952	0.9523	0.0548	-0.004
Mof_N 	N 	0.1044	0.9978	0.0629	-0.129
Mof_C 	C 	0.2705	0.1312	0.0031	-0.007
Mof_N 	N 	0.2958	0.1265	0.0253	-0.131
Mof_C 	C 	0.5904	0.9215	0.059	-0.002
Mof_N 	N 	0.4881	0.9587	0.0675	-0.129
Mof_C 	C 	0.0524	0.3277	0.0684	-0.003
Mof_N 	N 	0.1599	0.2769	0.0676	-0.128
Mof_C 	C 	0.1052	0.374	0.1746	-0.006
Mof_N 	N 	0.2131	0.3245	0.171	-0.137
Mof_C 	C 	0.0436	0.0015	0.1912	-0.004
Mof_N 	N 	0.1406	0.0538	0.1844	-0.139
Mof_C 	C 	0.6412	0.9714	0.2013	-0.001
Mof_N 	N 	0.5283	0.013	0.194	-0.133
Mof_C 	C 	0.6878	0.3317	0.1803	-0.009
Mof_N 	N 	0.5783	0.2716	0.1783	-0.133
Mof_C 	C 	0.8358	0.453	0.1145	-0
Mof_N 	N 	0.8253	0.4664	0.1361	-0.132
Mof_C 	C 	0.8737	0.6267	0.191	0.001
Mof_N 	N 	0.8723	0.7218	0.1963	-0.142
Mof_C 	C 	0.0269	0.3977	0.2489	-0.016
Mof_N 	N 	0.9628	0.4036	0.228	-0.14
Mof_C 	C 	0.8144	0.5811	0.0543	-0.01
Mof_N 	N 	0.8099	0.6779	0.0488	-0.14
Mof_N 	N 	0.3541	0.2295	0.2225	-0.334
Mof_H 	H 	0.2642	0.203	0.2182	0.145
Mof_H 	H 	0.3867	0.2846	0.2139	0.146
Mof_C 	C 	0.4507	0.1814	0.2444	0.234
Mof_C 	C 	0.398	0.0937	0.258	-0.255
Mof_H 	H 	0.2991	0.0673	0.2541	0.117
Mof_C 	C 	0.5	0.0436	0.2786	0.148
Mof_H 	H 	0.465	0.9873	0.2888	-0.03
Mof_C 	C 	0.651	0.0796	0.2831	-0.245
Mof_H 	H 	0.7186	0.0454	0.2958	0.116
Mof_C 	C 	0.695	0.164	0.2686	0.182
Mof_H 	H 	0.795	0.1902	0.2721	-0.036
Mof_C 	C 	0.6	0.2146	0.2491	-0.279
Mof_H 	H 	0.6363	0.2709	0.239	0.127
Mof_Cd	Cd	0.67576	0.61561	0.43083	0.387
Mof_Cd	Cd	0.63877	0.65717	0.32063	0.339
Mof_Cd	Cd	0.11339	0.94135	0.31677	0.302
Mof_Cd	Cd	0.16516	0.91036	0.42732	0.272
Mof_Cd	Cd	0.1249	0.40377	0.28941	0.291
Mof_Cd	Cd	0.21714	0.3656	0.46105	0.291
Mof_C 	C 	0.6531	0.6238	0.3644	0.028
Mof_N 	N 	0.6598	0.616	0.386	-0.136
Mof_C 	C 	0.3592	0.7926	0.4314	-0.009
Mof_N 	N 	0.4639	0.7323	0.4302	-0.128
Mof_C 	C 	0.0048	0.4523	0.4452	-0.004
Mof_N 	N 	0.8956	0.4978	0.4371	-0.128
Mof_C 	C 	0.7295	0.6312	0.4969	-0.007
Mof_N 	N 	0.7042	0.6265	0.4747	-0.131
Mof_C 	C 	0.4096	0.4215	0.441	-0.002
Mof_N 	N 	0.5119	0.4587	0.4325	-0.129
Mof_C 	C 	0.9476	0.8277	0.4316	-0.003
Mof_N 	N 	0.8401	0.7769	0.4324	-0.128
Mof_C 	C 	0.8948	0.874	0.3254	-0.006
Mof_N 	N 	0.7869	0.8245	0.329	-0.137
Mof_C 	C 	0.9564	0.5015	0.3088	-0.005
Mof_N 	N 	0.8594	0.5538	0.3156	-0.139
Mof_C 	C 	0.3588	0.4714	0.2987	0.002
Mof_N 	N 	0.4717	0.513	0.306	-0.135
Mof_C 	C 	0.3122	0.8317	0.3197	-0.009
Mof_N 	N 	0.4217	0.7716	0.3217	-0.133
Mof_C 	C 	0.1642	0.953	0.3855	-0.001
Mof_N 	N 	0.1747	0.9664	0.3639	-0.132
Mof_C 	C 	0.1263	0.1267	0.309	0.003
Mof_N 	N 	0.1277	0.2218	0.3037	-0.142
Mof_C 	C 	0.9731	0.8977	0.2511	-0.017
Mof_N 	N 	0.0372	0.9036	0.272	-0.14
Mof_C 	C 	0.1856	0.0811	0.4457	-0.009
Mof_N 	N 	0.1901	0.1779	0.4512	-0.14
Mof_N 	N 	0.6459	0.7295	0.2775	-0.334
Mof_H 	H 	0.7358	0.703	0.2818	0.145
Mof_H 	H 	0.6133	0.7846	0.2861	0.146
Mof_C 	C 	0.5493	0.6814	0.2556	0.23
Mof_C 	C 	0.602	0.5937	0.242	-0.249
Mof_H 	H 	0.7009	0.5673	0.2459	0.114
Mof_C 	C 	0.5	0.5436	0.2214	0.137
Mof_H 	H 	0.535	0.4873	0.2112	-0.024
Mof_C 	C 	0.349	0.5796	0.2169	-0.236
Mof_H 	H 	0.2814	0.5454	0.2042	0.112
Mof_C 	C 	0.305	0.664	0.2314	0.175
Mof_H 	H 	0.205	0.6902	0.2279	-0.034
Mof_C 	C 	0.4	0.7146	0.2509	-0.274
Mof_H 	H 	0.3637	0.7709	0.261	0.125
Mof_Cd	Cd	0.67576	0.88439	0.93083	0.388
Mof_Cd	Cd	0.63877	0.84283	0.82063	0.339
Mof_Cd	Cd	0.11339	0.55865	0.81677	0.303
Mof_Cd	Cd	0.16516	0.58964	0.92732	0.273
Mof_Cd	Cd	0.1249	0.09623	0.78941	0.289
Mof_Cd	Cd	0.21714	0.1344	0.96105	0.291
Mof_C 	C 	0.6531	0.8762	0.8644	0.029
Mof_N 	N 	0.6598	0.884	0.886	-0.136
Mof_C 	C 	0.3592	0.7074	0.9314	-0.009
Mof_N 	N 	0.4639	0.7677	0.9302	-0.127
Mof_C 	C 	0.0048	0.0477	0.9452	-0.004
Mof_N 	N 	0.8956	0.0022	0.9371	-0.129
Mof_C 	C 	0.7295	0.8688	0.9969	-0.007
Mof_N 	N 	0.7042	0.8735	0.9747	-0.131
Mof_C 	C 	0.4096	0.0785	0.941	-0.002
Mof_N 	N 	0.5119	0.0413	0.9325	-0.129
Mof_C 	C 	0.9476	0.6723	0.9316	-0.003
Mof_N 	N 	0.8401	0.7231	0.9324	-0.128
Mof_C 	C 	0.8948	0.626	0.8254	-0.006
Mof_N 	N 	0.7869	0.6755	0.829	-0.137
Mof_C 	C 	0.9564	0.9985	0.8088	-0.004
Mof_N 	N 	0.8594	0.9462	0.8156	-0.139
Mof_C 	C 	0.3588	0.0286	0.7987	-0.001
Mof_N 	N 	0.4717	0.987	0.806	-0.133
Mof_C 	C 	0.3122	0.6683	0.8197	-0.009
Mof_N 	N 	0.4217	0.7284	0.8217	-0.133
Mof_C 	C 	0.1642	0.547	0.8855	-0
Mof_N 	N 	0.1747	0.5336	0.8639	-0.132
Mof_C 	C 	0.1263	0.3733	0.809	0.001
Mof_N 	N 	0.1277	0.2782	0.8037	-0.142
Mof_C 	C 	0.9731	0.6023	0.7511	-0.016
Mof_N 	N 	0.0372	0.5964	0.772	-0.14
Mof_C 	C 	0.1856	0.4189	0.9457	-0.01
Mof_N 	N 	0.1901	0.3221	0.9512	-0.14
Mof_N 	N 	0.6459	0.7705	0.7775	-0.334
Mof_H 	H 	0.7358	0.797	0.7818	0.145
Mof_H 	H 	0.6133	0.7154	0.7861	0.146
Mof_C 	C 	0.5493	0.8186	0.7556	0.234
Mof_C 	C 	0.602	0.9063	0.742	-0.255
Mof_H 	H 	0.7009	0.9327	0.7459	0.117
Mof_C 	C 	0.5	0.9564	0.7214	0.148
Mof_H 	H 	0.535	0.0127	0.7112	-0.03
Mof_C 	C 	0.349	0.9204	0.7169	-0.245
Mof_H 	H 	0.2814	0.9546	0.7042	0.116
Mof_C 	C 	0.305	0.836	0.7314	0.182
Mof_H 	H 	0.205	0.8098	0.7279	-0.036
Mof_C 	C 	0.4	0.7854	0.7509	-0.279
Mof_H 	H 	0.3637	0.7291	0.761	0.127
Mof_Cd	Cd	0.32424	0.38439	0.56917	0.387
Mof_Cd	Cd	0.36123	0.34283	0.67937	0.339
Mof_Cd	Cd	0.88661	0.05865	0.68323	0.302
Mof_Cd	Cd	0.83484	0.08964	0.57268	0.272
Mof_Cd	Cd	0.8751	0.59623	0.71059	0.291
Mof_Cd	Cd	0.78286	0.6344	0.53895	0.291
Mof_C 	C 	0.3469	0.3762	0.6356	0.028
Mof_N 	N 	0.3402	0.384	0.614	-0.136
Mof_C 	C 	0.6408	0.2074	0.5686	-0.009
Mof_N 	N 	0.5361	0.2677	0.5698	-0.128
Mof_C 	C 	0.9952	0.5477	0.5548	-0.004
Mof_N 	N 	0.1044	0.5022	0.5629	-0.128
Mof_C 	C 	0.2705	0.3688	0.5031	-0.007
Mof_N 	N 	0.2958	0.3735	0.5253	-0.131
Mof_C 	C 	0.5904	0.5785	0.559	-0.002
Mof_N 	N 	0.4881	0.5413	0.5675	-0.129
Mof_C 	C 	0.0524	0.1723	0.5684	-0.003
Mof_N 	N 	0.1599	0.2231	0.5676	-0.128
Mof_C 	C 	0.1052	0.126	0.6746	-0.006
Mof_N 	N 	0.2131	0.1755	0.671	-0.137
Mof_C 	C 	0.0436	0.4985	0.6912	-0.005
Mof_N 	N 	0.1406	0.4462	0.6844	-0.139
Mof_C 	C 	0.6412	0.5286	0.7013	0.002
Mof_N 	N 	0.5283	0.487	0.694	-0.135
Mof_C 	C 	0.6878	0.1683	0.6803	-0.009
Mof_N 	N 	0.5783	0.2284	0.6783	-0.133
Mof_C 	C 	0.8358	0.047	0.6145	-0.001
Mof_N 	N 	0.8253	0.0336	0.6361	-0.132
Mof_C 	C 	0.8737	0.8733	0.691	0.003
Mof_N 	N 	0.8723	0.7782	0.6963	-0.142
Mof_C 	C 	0.0269	0.1023	0.7489	-0.017
Mof_N 	N 	0.9628	0.0964	0.728	-0.14
Mof_C 	C 	0.8144	0.9189	0.5543	-0.009
Mof_N 	N 	0.8099	0.8221	0.5488	-0.14
Mof_N 	N 	0.3541	0.2705	0.7225	-0.334
Mof_H 	H 	0.2642	0.297	0.7182	0.145
Mof_H 	H 	0.3867	0.2154	0.7139	0.146
Mof_C 	C 	0.4507	0.3186	0.7444	0.23
Mof_C 	C 	0.398	0.4063	0.758	-0.249
Mof_H 	H 	0.2991	0.4327	0.7541	0.114
Mof_C 	C 	0.5	0.4564	0.7786	0.137
Mof_H 	H 	0.465	0.5127	0.7888	-0.024
Mof_C 	C 	0.651	0.4204	0.7831	-0.236
Mof_H 	H 	0.7186	0.4546	0.7958	0.112
Mof_C 	C 	0.695	0.336	0.7686	0.175
Mof_H 	H 	0.795	0.3098	0.7721	-0.034
Mof_C 	C 	0.6	0.2854	0.7491	-0.274
Mof_H 	H 	0.6363	0.2291	0.739	0.125
_end
