data_functionalizedCrystal
_audit_creation_method	'EQeq! by Chris Wilmer'
_symmetry_space_group_name_H-M	'P1'
_symmetry_Int_Tables_number	1
_symmetry_cell_setting	triclinic
loop_
_symmetry_equiv_pos_as_xyz
  x,y,z
_cell_length_a	22.0501
_cell_length_b	16.5079
_cell_length_c	25.596
_cell_angle_alpha	90
_cell_angle_beta	115.291
_cell_angle_gamma	90
loop_
_atom_site_label
_atom_site_type_symbol
_atom_site_fract_x
_atom_site_fract_y
_atom_site_fract_z
_atom_site_charge
Mof_Ag	Ag	0.34423	0.54263	0.36755	0.523
Mof_Ag	Ag	0.32266	0.24611	0.867	0.534
Mof_C 	C 	0.1238	0.2435	0.5014	0.096
Mof_C 	C 	0.598	0.0293	0.0002	0.099
Mof_C 	C 	0.7203	0.8477	0.8917	0.066
Mof_H 	H 	0.7006	0.8431	0.8516	-0.027
Mof_C 	C 	0.0328	0.1885	0.4102	-0.147
Mof_H 	H 	0.0543	0.2095	0.3888	0.081
Mof_C 	C 	0.0597	0.1987	0.4692	0.062
Mof_C 	C 	0.7778	0.8616	0.009	-0.132
Mof_H 	H 	0.7986	0.865	0.0491	0.072
Mof_C 	C 	0.444	0.1558	0.9641	0.089
Mof_H 	H 	0.4239	0.1835	0.9842	-0.015
Mof_C 	C 	0.2352	0.4355	0.3882	0.084
Mof_H 	H 	0.2134	0.4425	0.3483	-0.01
Mof_C 	C 	0.2978	0.416	0.5046	-0.136
Mof_H 	H 	0.32	0.4118	0.5446	0.085
Mof_C 	C 	0.243	0.2632	0.6506	0.06
Mof_C 	C 	0.6824	0.9478	0.0061	0.095
Mof_C 	C 	0.5036	0.1155	0.9958	-0.138
Mof_H 	H 	0.5232	0.1167	0.036	0.087
Mof_C 	C 	0.2097	0.2739	0.587	0.101
Mof_C 	C 	0.0258	0.1649	0.499	-0.148
Mof_H 	H 	0.0431	0.1694	0.539	0.076
Mof_C 	C 	0.5335	0.0734	0.9661	0.069
Mof_C 	C 	0.2357	0.3787	0.474	0.07
Mof_C 	C 	0.2054	0.328	0.5044	0.101
Mof_C 	C 	0.6792	0.0441	0.1806	-0.139
Mof_H 	H 	0.6352	0.0619	0.1605	0.082
Mof_C 	C 	0.204	0.3903	0.4146	-0.135
Mof_H 	H 	0.162	0.3677	0.393	0.085
Mof_C 	C 	0.9669	0.125	0.4686	0.077
Mof_H 	H 	0.9447	0.1028	0.489	-0.022
Mof_C 	C 	0.7153	0.8981	0.9769	0.051
Mof_C 	C 	0.6802	0.9979	0.0874	0.096
Mof_C 	C 	0.7125	0.0083	0.1513	0.056
Mof_C 	C 	0.8078	0.8199	0.9788	0.072
Mof_H 	H 	0.8492	0.7955	0.9997	-0.011
Mof_C 	C 	0.3253	0.4594	0.4734	0.092
Mof_H 	H 	0.3674	0.4826	0.4938	-0.015
Mof_C 	C 	0.9733	0.1464	0.3836	0.075
Mof_H 	H 	0.956	0.1387	0.3438	-0.021
Mof_C 	C 	0.502	0.0727	0.9065	-0.143
Mof_H 	H 	0.5198	0.0433	0.8854	0.082
Mof_C 	C 	0.8071	0.9951	0.2419	0.075
Mof_H 	H 	0.8513	0.9785	0.2628	-0.025
Mof_C 	C 	0.6863	0.8901	0.9175	-0.134
Mof_H 	H 	0.6445	0.9127	0.8952	0.077
Mof_C 	C 	0.7122	0.0533	0.2402	0.082
Mof_H 	H 	0.6895	0.0774	0.2595	-0.017
Mof_C 	C 	0.4439	0.1164	0.8789	0.087
Mof_H 	H 	0.4244	0.1179	0.8388	-0.008
Mof_C 	C 	0.2453	0.2047	0.7366	0.07
Mof_H 	H 	0.2263	0.17	0.7541	-0.017
Mof_C 	C 	0.3023	0.3015	0.6844	-0.142
Mof_H 	H 	0.3243	0.3332	0.6678	0.084
Mof_C 	C 	0.3283	0.292	0.7436	0.086
Mof_H 	H 	0.3675	0.3197	0.7662	-0.021
Mof_C 	C 	0.7781	0.9835	0.1829	-0.144
Mof_H 	H 	0.8021	0.9595	0.1647	0.074
Mof_C 	C 	0.2151	0.2113	0.6773	-0.134
Mof_H 	H 	0.1767	0.1816	0.6554	0.069
Mof_N 	N 	0.9392	0.1162	0.4114	-0.216
Mof_N 	N 	0.2956	0.47	0.4169	-0.194
Mof_N 	N 	0.3008	0.2457	0.7704	-0.199
Mof_N 	N 	0.1478	0.2896	0.4718	-0.137
Mof_N 	N 	0.238	0.3226	0.56214	-0.137
Mof_N 	N 	0.1529	0.2328	0.5588	-0.142
Mof_N 	N 	0.78	0.8133	0.9213	-0.208
Mof_N 	N 	0.4136	0.1572	0.9067	-0.19
Mof_N 	N 	0.7754	0.029	0.2708	-0.2
Mof_N 	N 	0.6261	0.9879	0.97254	-0.142
Mof_N 	N 	0.6229	0.037	0.058	-0.137
Mof_N 	N 	0.7115	0.9505	0.0641	-0.149
Mof_Ag	Ag	0.84423	0.04263	0.36755	0.524
Mof_Ag	Ag	0.82266	0.74611	0.867	0.535
Mof_C 	C 	0.6238	0.7435	0.5014	0.097
Mof_C 	C 	0.098	0.5293	0.0002	0.099
Mof_C 	C 	0.2203	0.3477	0.8917	0.07
Mof_H 	H 	0.2006	0.3431	0.8516	-0.027
Mof_C 	C 	0.5328	0.6885	0.4102	-0.146
Mof_H 	H 	0.5543	0.7095	0.3888	0.082
Mof_C 	C 	0.5597	0.6987	0.4692	0.063
Mof_C 	C 	0.2778	0.3616	0.009	-0.139
Mof_H 	H 	0.2986	0.365	0.0491	0.075
Mof_C 	C 	0.944	0.6558	0.9641	0.086
Mof_H 	H 	0.9239	0.6835	0.9842	-0.013
Mof_C 	C 	0.7352	0.9355	0.3882	0.085
Mof_H 	H 	0.7134	0.9425	0.3483	-0.01
Mof_C 	C 	0.7978	0.916	0.5046	-0.136
Mof_H 	H 	0.82	0.9118	0.5446	0.085
Mof_C 	C 	0.743	0.7632	0.6506	0.06
Mof_C 	C 	0.1824	0.4478	0.0061	0.09
Mof_C 	C 	0.0036	0.6155	0.9958	-0.132
Mof_H 	H 	0.0232	0.6167	0.036	0.084
Mof_C 	C 	0.7097	0.7739	0.587	0.101
Mof_C 	C 	0.5258	0.6649	0.499	-0.148
Mof_H 	H 	0.5431	0.6694	0.539	0.076
Mof_C 	C 	0.0335	0.5734	0.9661	0.068
Mof_C 	C 	0.7357	0.8787	0.474	0.07
Mof_C 	C 	0.7054	0.828	0.5044	0.101
Mof_C 	C 	0.1792	0.5441	0.1806	-0.139
Mof_H 	H 	0.1352	0.5619	0.1605	0.082
Mof_C 	C 	0.704	0.8903	0.4146	-0.135
Mof_H 	H 	0.662	0.8677	0.393	0.085
Mof_C 	C 	0.4669	0.625	0.4686	0.077
Mof_H 	H 	0.4447	0.6028	0.489	-0.022
Mof_C 	C 	0.2153	0.3981	0.9769	0.058
Mof_C 	C 	0.1802	0.4979	0.0874	0.095
Mof_C 	C 	0.2125	0.5083	0.1513	0.057
Mof_C 	C 	0.3078	0.3199	0.9788	0.078
Mof_H 	H 	0.3492	0.2955	0.9997	-0.013
Mof_C 	C 	0.8253	0.9594	0.4734	0.092
Mof_H 	H 	0.8674	0.9826	0.4938	-0.015
Mof_C 	C 	0.4733	0.6464	0.3836	0.075
Mof_H 	H 	0.456	0.6387	0.3438	-0.021
Mof_C 	C 	0.002	0.5727	0.9065	-0.14
Mof_H 	H 	0.0198	0.5433	0.8854	0.081
Mof_C 	C 	0.3071	0.4951	0.2419	0.075
Mof_H 	H 	0.3513	0.4785	0.2628	-0.025
Mof_C 	C 	0.1863	0.3901	0.9175	-0.138
Mof_H 	H 	0.1445	0.4127	0.8952	0.079
Mof_C 	C 	0.2122	0.5533	0.2402	0.082
Mof_H 	H 	0.1895	0.5774	0.2595	-0.017
Mof_C 	C 	0.9439	0.6164	0.8789	0.084
Mof_H 	H 	0.9244	0.6179	0.8388	-0.007
Mof_C 	C 	0.7453	0.7047	0.7366	0.07
Mof_H 	H 	0.7263	0.67	0.7541	-0.017
Mof_C 	C 	0.8023	0.8015	0.6844	-0.142
Mof_H 	H 	0.8243	0.8332	0.6678	0.084
Mof_C 	C 	0.8283	0.792	0.7436	0.086
Mof_H 	H 	0.8675	0.8197	0.7662	-0.021
Mof_C 	C 	0.2781	0.4835	0.1829	-0.145
Mof_H 	H 	0.3021	0.4595	0.1647	0.074
Mof_C 	C 	0.7151	0.7113	0.6773	-0.134
Mof_H 	H 	0.6767	0.6816	0.6554	0.069
Mof_N 	N 	0.4392	0.6162	0.4114	-0.215
Mof_N 	N 	0.7956	0.97	0.4169	-0.194
Mof_N 	N 	0.8008	0.7457	0.7704	-0.199
Mof_N 	N 	0.6478	0.7896	0.4718	-0.137
Mof_N 	N 	0.738	0.8226	0.56214	-0.137
Mof_N 	N 	0.6529	0.7328	0.5588	-0.142
Mof_N 	N 	0.28	0.3133	0.9213	-0.21
Mof_N 	N 	0.9136	0.6572	0.9067	-0.188
Mof_N 	N 	0.2754	0.529	0.2708	-0.2
Mof_N 	N 	0.1261	0.4879	0.97254	-0.14
Mof_N 	N 	0.1229	0.537	0.058	-0.137
Mof_N 	N 	0.2115	0.4505	0.0641	-0.148
Mof_Ag	Ag	0.65577	0.54263	0.13245	0.524
Mof_Ag	Ag	0.67734	0.24611	0.633	0.535
Mof_C 	C 	0.8762	0.2435	0.9986	0.096
Mof_C 	C 	0.402	0.0293	0.4998	0.1
Mof_C 	C 	0.2797	0.8477	0.6083	0.068
Mof_H 	H 	0.2994	0.8431	0.6484	-0.027
Mof_C 	C 	0.9672	0.1885	0.0898	-0.143
Mof_H 	H 	0.9457	0.2095	0.1112	0.081
Mof_C 	C 	0.9403	0.1987	0.0308	0.061
Mof_C 	C 	0.2222	0.8616	0.491	-0.135
Mof_H 	H 	0.2014	0.865	0.4509	0.074
Mof_C 	C 	0.556	0.1558	0.5359	0.09
Mof_H 	H 	0.5761	0.1835	0.5158	-0.014
Mof_C 	C 	0.7648	0.4355	0.1118	0.086
Mof_H 	H 	0.7866	0.4425	0.1517	-0.01
Mof_C 	C 	0.7022	0.416	0.9954	-0.139
Mof_H 	H 	0.68	0.4118	0.9554	0.086
Mof_C 	C 	0.757	0.2632	0.8494	0.06
Mof_C 	C 	0.3176	0.9478	0.4939	0.093
Mof_C 	C 	0.4964	0.1155	0.5042	-0.138
Mof_H 	H 	0.4768	0.1167	0.464	0.087
Mof_C 	C 	0.7903	0.2739	0.913	0.101
Mof_C 	C 	0.9742	0.1649	0.001	-0.142
Mof_H 	H 	0.9569	0.1694	0.961	0.073
Mof_C 	C 	0.4665	0.0734	0.5339	0.069
Mof_C 	C 	0.7643	0.3787	0.026	0.073
Mof_C 	C 	0.7946	0.328	0.9956	0.099
Mof_C 	C 	0.3208	0.0441	0.3194	-0.139
Mof_H 	H 	0.3648	0.0619	0.3395	0.082
Mof_C 	C 	0.796	0.3903	0.0854	-0.137
Mof_H 	H 	0.838	0.3677	0.107	0.085
Mof_C 	C 	0.0331	0.125	0.0314	0.072
Mof_H 	H 	0.0553	0.1028	0.011	-0.021
Mof_C 	C 	0.2847	0.8981	0.5231	0.054
Mof_C 	C 	0.3198	0.9979	0.4126	0.095
Mof_C 	C 	0.2875	0.0083	0.3487	0.057
Mof_C 	C 	0.1922	0.8199	0.5212	0.075
Mof_H 	H 	0.1508	0.7955	0.5003	-0.012
Mof_C 	C 	0.6747	0.4594	0.0266	0.094
Mof_H 	H 	0.6326	0.4826	0.0062	-0.016
Mof_C 	C 	0.0267	0.1464	0.1164	0.072
Mof_H 	H 	0.044	0.1387	0.1562	-0.02
Mof_C 	C 	0.498	0.0727	0.5935	-0.143
Mof_H 	H 	0.4802	0.0433	0.6146	0.082
Mof_C 	C 	0.1929	0.9951	0.2581	0.075
Mof_H 	H 	0.1487	0.9785	0.2372	-0.025
Mof_C 	C 	0.3137	0.8901	0.5825	-0.136
Mof_H 	H 	0.3555	0.9127	0.6048	0.078
Mof_C 	C 	0.2878	0.0533	0.2598	0.082
Mof_H 	H 	0.3105	0.0774	0.2405	-0.017
Mof_C 	C 	0.5561	0.1164	0.6211	0.087
Mof_H 	H 	0.5756	0.1179	0.6612	-0.008
Mof_C 	C 	0.7547	0.2047	0.7634	0.07
Mof_H 	H 	0.7737	0.17	0.7459	-0.017
Mof_C 	C 	0.6977	0.3015	0.8156	-0.142
Mof_H 	H 	0.6757	0.3332	0.8322	0.084
Mof_C 	C 	0.6717	0.292	0.7564	0.086
Mof_H 	H 	0.6325	0.3197	0.7338	-0.021
Mof_C 	C 	0.2219	0.9835	0.3171	-0.145
Mof_H 	H 	0.1979	0.9595	0.3353	0.074
Mof_C 	C 	0.7849	0.2113	0.8227	-0.134
Mof_H 	H 	0.8233	0.1816	0.8446	0.069
Mof_N 	N 	0.0608	0.1162	0.0886	-0.214
Mof_N 	N 	0.7044	0.47	0.0831	-0.195
Mof_N 	N 	0.6992	0.2457	0.7296	-0.199
Mof_N 	N 	0.8522	0.2896	0.0282	-0.136
Mof_N 	N 	0.762	0.3226	0.93786	-0.137
Mof_N 	N 	0.8471	0.2328	0.9412	-0.142
Mof_N 	N 	0.22	0.8133	0.5787	-0.209
Mof_N 	N 	0.5864	0.1572	0.5933	-0.19
Mof_N 	N 	0.2246	0.029	0.2292	-0.2
Mof_N 	N 	0.3739	0.9879	0.52746	-0.141
Mof_N 	N 	0.3771	0.037	0.442	-0.137
Mof_N 	N 	0.2885	0.9505	0.4359	-0.149
Mof_Ag	Ag	0.15577	0.04263	0.13245	0.523
Mof_Ag	Ag	0.17734	0.74611	0.633	0.535
Mof_C 	C 	0.3762	0.7435	0.9986	0.097
Mof_C 	C 	0.902	0.5293	0.4998	0.1
Mof_C 	C 	0.7797	0.3477	0.6083	0.068
Mof_H 	H 	0.7994	0.3431	0.6484	-0.027
Mof_C 	C 	0.4672	0.6885	0.0898	-0.146
Mof_H 	H 	0.4457	0.7095	0.1112	0.082
Mof_C 	C 	0.4403	0.6987	0.0308	0.063
Mof_C 	C 	0.7222	0.3616	0.491	-0.135
Mof_H 	H 	0.7014	0.365	0.4509	0.074
Mof_C 	C 	0.056	0.6558	0.5359	0.09
Mof_H 	H 	0.0761	0.6835	0.5158	-0.014
Mof_C 	C 	0.2648	0.9355	0.1118	0.084
Mof_H 	H 	0.2866	0.9425	0.1517	-0.01
Mof_C 	C 	0.2022	0.916	0.9954	-0.133
Mof_H 	H 	0.18	0.9118	0.9554	0.085
Mof_C 	C 	0.257	0.7632	0.8494	0.06
Mof_C 	C 	0.8176	0.4478	0.4939	0.093
Mof_C 	C 	0.9964	0.6155	0.5042	-0.138
Mof_H 	H 	0.9768	0.6167	0.464	0.087
Mof_C 	C 	0.2903	0.7739	0.913	0.101
Mof_C 	C 	0.4742	0.6649	0.001	-0.148
Mof_H 	H 	0.4569	0.6694	0.961	0.076
Mof_C 	C 	0.9665	0.5734	0.5339	0.069
Mof_C 	C 	0.2643	0.8787	0.026	0.068
Mof_C 	C 	0.2946	0.828	0.9956	0.102
Mof_C 	C 	0.8208	0.5441	0.3194	-0.139
Mof_H 	H 	0.8648	0.5619	0.3395	0.082
Mof_C 	C 	0.296	0.8903	0.0854	-0.134
Mof_H 	H 	0.338	0.8677	0.107	0.084
Mof_C 	C 	0.5331	0.625	0.0314	0.077
Mof_H 	H 	0.5553	0.6028	0.011	-0.022
Mof_C 	C 	0.7847	0.3981	0.5231	0.054
Mof_C 	C 	0.8198	0.4979	0.4126	0.095
Mof_C 	C 	0.7875	0.5083	0.3487	0.057
Mof_C 	C 	0.6922	0.3199	0.5212	0.075
Mof_H 	H 	0.6508	0.2955	0.5003	-0.012
Mof_C 	C 	0.1747	0.9594	0.0266	0.09
Mof_H 	H 	0.1326	0.9826	0.0062	-0.015
Mof_C 	C 	0.5267	0.6464	0.1164	0.075
Mof_H 	H 	0.544	0.6387	0.1562	-0.021
Mof_C 	C 	0.998	0.5727	0.5935	-0.143
Mof_H 	H 	0.9802	0.5433	0.6146	0.082
Mof_C 	C 	0.6929	0.4951	0.2581	0.075
Mof_H 	H 	0.6487	0.4785	0.2372	-0.025
Mof_C 	C 	0.8137	0.3901	0.5825	-0.136
Mof_H 	H 	0.8555	0.4127	0.6048	0.078
Mof_C 	C 	0.7878	0.5533	0.2598	0.082
Mof_H 	H 	0.8105	0.5774	0.2405	-0.017
Mof_C 	C 	0.0561	0.6164	0.6211	0.087
Mof_H 	H 	0.0756	0.6179	0.6612	-0.008
Mof_C 	C 	0.2547	0.7047	0.7634	0.07
Mof_H 	H 	0.2737	0.67	0.7459	-0.017
Mof_C 	C 	0.1977	0.8015	0.8156	-0.142
Mof_H 	H 	0.1757	0.8332	0.8322	0.084
Mof_C 	C 	0.1717	0.792	0.7564	0.086
Mof_H 	H 	0.1325	0.8197	0.7338	-0.021
Mof_C 	C 	0.7219	0.4835	0.3171	-0.145
Mof_H 	H 	0.6979	0.4595	0.3353	0.074
Mof_C 	C 	0.2849	0.7113	0.8227	-0.134
Mof_H 	H 	0.3233	0.6816	0.8446	0.069
Mof_N 	N 	0.5608	0.6162	0.0886	-0.216
Mof_N 	N 	0.2044	0.97	0.0831	-0.194
Mof_N 	N 	0.1992	0.7457	0.7296	-0.199
Mof_N 	N 	0.3522	0.7896	0.0282	-0.138
Mof_N 	N 	0.262	0.8226	0.93786	-0.137
Mof_N 	N 	0.3471	0.7328	0.9412	-0.142
Mof_N 	N 	0.72	0.3133	0.5787	-0.209
Mof_N 	N 	0.0864	0.6572	0.5933	-0.19
Mof_N 	N 	0.7246	0.529	0.2292	-0.2
Mof_N 	N 	0.8739	0.4879	0.52746	-0.141
Mof_N 	N 	0.8771	0.537	0.442	-0.137
Mof_N 	N 	0.7885	0.4505	0.4359	-0.149
Mof_Ag	Ag	0.65577	0.45737	0.63245	0.524
Mof_Ag	Ag	0.67734	0.75389	0.133	0.535
Mof_C 	C 	0.8762	0.7565	0.4986	0.097
Mof_C 	C 	0.402	0.9707	0.9998	0.1
Mof_C 	C 	0.2797	0.1523	0.1083	0.067
Mof_H 	H 	0.2994	0.1569	0.1484	-0.026
Mof_C 	C 	0.9672	0.8115	0.5898	-0.146
Mof_H 	H 	0.9457	0.7905	0.6112	0.082
Mof_C 	C 	0.9403	0.8013	0.5308	0.063
Mof_C 	C 	0.2222	0.1384	0.991	-0.131
Mof_H 	H 	0.2014	0.135	0.9509	0.073
Mof_C 	C 	0.556	0.8442	0.0359	0.09
Mof_H 	H 	0.5761	0.8165	0.0158	-0.014
Mof_C 	C 	0.7648	0.5645	0.6118	0.085
Mof_H 	H 	0.7866	0.5575	0.6517	-0.01
Mof_C 	C 	0.7022	0.584	0.4954	-0.136
Mof_H 	H 	0.68	0.5882	0.4554	0.085
Mof_C 	C 	0.757	0.7368	0.3494	0.06
Mof_C 	C 	0.3176	0.0522	0.9939	0.095
Mof_C 	C 	0.4964	0.8845	0.0042	-0.138
Mof_H 	H 	0.4768	0.8833	0.964	0.087
Mof_C 	C 	0.7903	0.7261	0.413	0.101
Mof_C 	C 	0.9742	0.8351	0.501	-0.148
Mof_H 	H 	0.9569	0.8306	0.461	0.076
Mof_C 	C 	0.4665	0.9266	0.0339	0.069
Mof_C 	C 	0.7643	0.6213	0.526	0.07
Mof_C 	C 	0.7946	0.672	0.4956	0.101
Mof_C 	C 	0.3208	0.9559	0.8194	-0.139
Mof_H 	H 	0.3648	0.9381	0.8395	0.082
Mof_C 	C 	0.796	0.6097	0.5854	-0.135
Mof_H 	H 	0.838	0.6323	0.607	0.085
Mof_C 	C 	0.0331	0.875	0.5314	0.077
Mof_H 	H 	0.0553	0.8972	0.511	-0.022
Mof_C 	C 	0.2847	0.1019	0.0231	0.051
Mof_C 	C 	0.3198	0.0021	0.9126	0.096
Mof_C 	C 	0.2875	0.9917	0.8487	0.056
Mof_C 	C 	0.1922	0.1801	0.0212	0.072
Mof_H 	H 	0.1508	0.2045	0.0003	-0.011
Mof_C 	C 	0.6747	0.5406	0.5266	0.092
Mof_H 	H 	0.6326	0.5174	0.5062	-0.015
Mof_C 	C 	0.0267	0.8536	0.6164	0.075
Mof_H 	H 	0.044	0.8613	0.6562	-0.021
Mof_C 	C 	0.498	0.9273	0.0935	-0.143
Mof_H 	H 	0.4802	0.9567	0.1146	0.082
Mof_C 	C 	0.1929	0.0049	0.7581	0.075
Mof_H 	H 	0.1487	0.0215	0.7372	-0.025
Mof_C 	C 	0.3137	0.1099	0.0825	-0.134
Mof_H 	H 	0.3555	0.0873	0.1048	0.077
Mof_C 	C 	0.2878	0.9467	0.7598	0.082
Mof_H 	H 	0.3105	0.9226	0.7405	-0.017
Mof_C 	C 	0.5561	0.8836	0.1211	0.087
Mof_H 	H 	0.5756	0.8821	0.1612	-0.008
Mof_C 	C 	0.7547	0.7953	0.2634	0.07
Mof_H 	H 	0.7737	0.83	0.2459	-0.017
Mof_C 	C 	0.6977	0.6985	0.3156	-0.142
Mof_H 	H 	0.6757	0.6668	0.3322	0.084
Mof_C 	C 	0.6717	0.708	0.2564	0.086
Mof_H 	H 	0.6325	0.6803	0.2338	-0.021
Mof_C 	C 	0.2219	0.0165	0.8171	-0.144
Mof_H 	H 	0.1979	0.0405	0.8353	0.074
Mof_C 	C 	0.7849	0.7887	0.3227	-0.134
Mof_H 	H 	0.8233	0.8184	0.3446	0.069
Mof_N 	N 	0.0608	0.8838	0.5886	-0.216
Mof_N 	N 	0.7044	0.53	0.5831	-0.194
Mof_N 	N 	0.6992	0.7543	0.2296	-0.199
Mof_N 	N 	0.8522	0.7104	0.5282	-0.137
Mof_N 	N 	0.762	0.6774	0.43786	-0.137
Mof_N 	N 	0.8471	0.7672	0.4412	-0.142
Mof_N 	N 	0.22	0.1867	0.0787	-0.208
Mof_N 	N 	0.5864	0.8428	0.0933	-0.19
Mof_N 	N 	0.2246	0.971	0.7292	-0.2
Mof_N 	N 	0.3739	0.0121	0.02746	-0.142
Mof_N 	N 	0.3771	0.963	0.942	-0.137
Mof_N 	N 	0.2885	0.0495	0.9359	-0.149
Mof_Ag	Ag	0.15577	0.95737	0.63245	0.524
Mof_Ag	Ag	0.17734	0.25389	0.133	0.535
Mof_C 	C 	0.3762	0.2565	0.4986	0.097
Mof_C 	C 	0.902	0.4707	0.9998	0.099
Mof_C 	C 	0.7797	0.6523	0.1083	0.07
Mof_H 	H 	0.7994	0.6569	0.1484	-0.027
Mof_C 	C 	0.4672	0.3115	0.5898	-0.146
Mof_H 	H 	0.4457	0.2905	0.6112	0.082
Mof_C 	C 	0.4403	0.3013	0.5308	0.063
Mof_C 	C 	0.7222	0.6384	0.991	-0.139
Mof_H 	H 	0.7014	0.635	0.9509	0.075
Mof_C 	C 	0.056	0.3442	0.0359	0.086
Mof_H 	H 	0.0761	0.3165	0.0158	-0.013
Mof_C 	C 	0.2648	0.0645	0.6118	0.085
Mof_H 	H 	0.2866	0.0575	0.6517	-0.01
Mof_C 	C 	0.2022	0.084	0.4954	-0.136
Mof_H 	H 	0.18	0.0882	0.4554	0.085
Mof_C 	C 	0.257	0.2368	0.3494	0.06
Mof_C 	C 	0.8176	0.5522	0.9939	0.09
Mof_C 	C 	0.9964	0.3845	0.0042	-0.132
Mof_H 	H 	0.9768	0.3833	0.964	0.084
Mof_C 	C 	0.2903	0.2261	0.413	0.101
Mof_C 	C 	0.4742	0.3351	0.501	-0.148
Mof_H 	H 	0.4569	0.3306	0.461	0.076
Mof_C 	C 	0.9665	0.4266	0.0339	0.068
Mof_C 	C 	0.2643	0.1213	0.526	0.07
Mof_C 	C 	0.2946	0.172	0.4956	0.101
Mof_C 	C 	0.8208	0.4559	0.8194	-0.139
Mof_H 	H 	0.8648	0.4381	0.8395	0.082
Mof_C 	C 	0.296	0.1097	0.5854	-0.135
Mof_H 	H 	0.338	0.1323	0.607	0.085
Mof_C 	C 	0.5331	0.375	0.5314	0.077
Mof_H 	H 	0.5553	0.3972	0.511	-0.022
Mof_C 	C 	0.7847	0.6019	0.0231	0.058
Mof_C 	C 	0.8198	0.5021	0.9126	0.095
Mof_C 	C 	0.7875	0.4917	0.8487	0.057
Mof_C 	C 	0.6922	0.6801	0.0212	0.078
Mof_H 	H 	0.6508	0.7045	0.0003	-0.013
Mof_C 	C 	0.1747	0.0406	0.5266	0.092
Mof_H 	H 	0.1326	0.0174	0.5062	-0.015
Mof_C 	C 	0.5267	0.3536	0.6164	0.075
Mof_H 	H 	0.544	0.3613	0.6562	-0.021
Mof_C 	C 	0.998	0.4273	0.0935	-0.14
Mof_H 	H 	0.9802	0.4567	0.1146	0.081
Mof_C 	C 	0.6929	0.5049	0.7581	0.075
Mof_H 	H 	0.6487	0.5215	0.7372	-0.025
Mof_C 	C 	0.8137	0.6099	0.0825	-0.138
Mof_H 	H 	0.8555	0.5873	0.1048	0.079
Mof_C 	C 	0.7878	0.4467	0.7598	0.082
Mof_H 	H 	0.8105	0.4226	0.7405	-0.017
Mof_C 	C 	0.0561	0.3836	0.1211	0.084
Mof_H 	H 	0.0756	0.3821	0.1612	-0.007
Mof_C 	C 	0.2547	0.2953	0.2634	0.07
Mof_H 	H 	0.2737	0.33	0.2459	-0.017
Mof_C 	C 	0.1977	0.1985	0.3156	-0.142
Mof_H 	H 	0.1757	0.1668	0.3322	0.084
Mof_C 	C 	0.1717	0.208	0.2564	0.086
Mof_H 	H 	0.1325	0.1803	0.2338	-0.021
Mof_C 	C 	0.7219	0.5165	0.8171	-0.145
Mof_H 	H 	0.6979	0.5405	0.8353	0.074
Mof_C 	C 	0.2849	0.2887	0.3227	-0.134
Mof_H 	H 	0.3233	0.3184	0.3446	0.069
Mof_N 	N 	0.5608	0.3838	0.5886	-0.215
Mof_N 	N 	0.2044	0.03	0.5831	-0.194
Mof_N 	N 	0.1992	0.2543	0.2296	-0.199
Mof_N 	N 	0.3522	0.2104	0.5282	-0.137
Mof_N 	N 	0.262	0.1774	0.43786	-0.137
Mof_N 	N 	0.3471	0.2672	0.4412	-0.142
Mof_N 	N 	0.72	0.6867	0.0787	-0.21
Mof_N 	N 	0.0864	0.3428	0.0933	-0.188
Mof_N 	N 	0.7246	0.471	0.7292	-0.2
Mof_N 	N 	0.8739	0.5121	0.02746	-0.14
Mof_N 	N 	0.8771	0.463	0.942	-0.137
Mof_N 	N 	0.7885	0.5495	0.9359	-0.148
Mof_Ag	Ag	0.34423	0.45737	0.86755	0.524
Mof_Ag	Ag	0.32266	0.75389	0.367	0.535
Mof_C 	C 	0.1238	0.7565	0.0014	0.096
Mof_C 	C 	0.598	0.9707	0.5002	0.1
Mof_C 	C 	0.7203	0.1523	0.3917	0.068
Mof_H 	H 	0.7006	0.1569	0.3516	-0.027
Mof_C 	C 	0.0328	0.8115	0.9102	-0.143
Mof_H 	H 	0.0543	0.7905	0.8888	0.081
Mof_C 	C 	0.0597	0.8013	0.9692	0.061
Mof_C 	C 	0.7778	0.1384	0.509	-0.135
Mof_H 	H 	0.7986	0.135	0.5491	0.074
Mof_C 	C 	0.444	0.8442	0.4641	0.09
Mof_H 	H 	0.4239	0.8165	0.4842	-0.014
Mof_C 	C 	0.2352	0.5645	0.8882	0.086
Mof_H 	H 	0.2134	0.5575	0.8483	-0.01
Mof_C 	C 	0.2978	0.584	0.0046	-0.139
Mof_H 	H 	0.32	0.5882	0.0446	0.086
Mof_C 	C 	0.243	0.7368	0.1506	0.06
Mof_C 	C 	0.6824	0.0522	0.5061	0.093
Mof_C 	C 	0.5036	0.8845	0.4958	-0.138
Mof_H 	H 	0.5232	0.8833	0.536	0.087
Mof_C 	C 	0.2097	0.7261	0.087	0.101
Mof_C 	C 	0.0258	0.8351	0.999	-0.142
Mof_H 	H 	0.0431	0.8306	0.039	0.073
Mof_C 	C 	0.5335	0.9266	0.4661	0.069
Mof_C 	C 	0.2357	0.6213	0.974	0.073
Mof_C 	C 	0.2054	0.672	0.0044	0.099
Mof_C 	C 	0.6792	0.9559	0.6806	-0.139
Mof_H 	H 	0.6352	0.9381	0.6605	0.082
Mof_C 	C 	0.204	0.6097	0.9146	-0.137
Mof_H 	H 	0.162	0.6323	0.893	0.085
Mof_C 	C 	0.9669	0.875	0.9686	0.072
Mof_H 	H 	0.9447	0.8972	0.989	-0.021
Mof_C 	C 	0.7153	0.1019	0.4769	0.054
Mof_C 	C 	0.6802	0.0021	0.5874	0.095
Mof_C 	C 	0.7125	0.9917	0.6513	0.057
Mof_C 	C 	0.8078	0.1801	0.4788	0.075
Mof_H 	H 	0.8492	0.2045	0.4997	-0.012
Mof_C 	C 	0.3253	0.5406	0.9734	0.094
Mof_H 	H 	0.3674	0.5174	0.9938	-0.016
Mof_C 	C 	0.9733	0.8536	0.8836	0.072
Mof_H 	H 	0.956	0.8613	0.8438	-0.02
Mof_C 	C 	0.502	0.9273	0.4065	-0.143
Mof_H 	H 	0.5198	0.9567	0.3854	0.082
Mof_C 	C 	0.8071	0.0049	0.7419	0.075
Mof_H 	H 	0.8513	0.0215	0.7628	-0.025
Mof_C 	C 	0.6863	0.1099	0.4175	-0.136
Mof_H 	H 	0.6445	0.0873	0.3952	0.078
Mof_C 	C 	0.7122	0.9467	0.7402	0.082
Mof_H 	H 	0.6895	0.9226	0.7595	-0.017
Mof_C 	C 	0.4439	0.8836	0.3789	0.087
Mof_H 	H 	0.4244	0.8821	0.3388	-0.008
Mof_C 	C 	0.2453	0.7953	0.2366	0.07
Mof_H 	H 	0.2263	0.83	0.2541	-0.017
Mof_C 	C 	0.3023	0.6985	0.1844	-0.142
Mof_H 	H 	0.3243	0.6668	0.1678	0.084
Mof_C 	C 	0.3283	0.708	0.2436	0.086
Mof_H 	H 	0.3675	0.6803	0.2662	-0.021
Mof_C 	C 	0.7781	0.0165	0.6829	-0.145
Mof_H 	H 	0.8021	0.0405	0.6647	0.074
Mof_C 	C 	0.2151	0.7887	0.1773	-0.134
Mof_H 	H 	0.1767	0.8184	0.1554	0.069
Mof_N 	N 	0.9392	0.8838	0.9114	-0.214
Mof_N 	N 	0.2956	0.53	0.9169	-0.195
Mof_N 	N 	0.3008	0.7543	0.2704	-0.199
Mof_N 	N 	0.1478	0.7104	0.9718	-0.136
Mof_N 	N 	0.238	0.6774	0.06214	-0.137
Mof_N 	N 	0.1529	0.7672	0.0588	-0.142
Mof_N 	N 	0.78	0.1867	0.4213	-0.209
Mof_N 	N 	0.4136	0.8428	0.4067	-0.19
Mof_N 	N 	0.7754	0.971	0.7708	-0.2
Mof_N 	N 	0.6261	0.0121	0.47254	-0.141
Mof_N 	N 	0.6229	0.963	0.558	-0.137
Mof_N 	N 	0.7115	0.0495	0.5641	-0.149
Mof_Ag	Ag	0.84423	0.95737	0.86755	0.523
Mof_Ag	Ag	0.82266	0.25389	0.367	0.535
Mof_C 	C 	0.6238	0.2565	0.0014	0.097
Mof_C 	C 	0.098	0.4707	0.5002	0.1
Mof_C 	C 	0.2203	0.6523	0.3917	0.068
Mof_H 	H 	0.2006	0.6569	0.3516	-0.027
Mof_C 	C 	0.5328	0.3115	0.9102	-0.146
Mof_H 	H 	0.5543	0.2905	0.8888	0.082
Mof_C 	C 	0.5597	0.3013	0.9692	0.063
Mof_C 	C 	0.2778	0.6384	0.509	-0.135
Mof_H 	H 	0.2986	0.635	0.5491	0.074
Mof_C 	C 	0.944	0.3442	0.4641	0.09
Mof_H 	H 	0.9239	0.3165	0.4842	-0.014
Mof_C 	C 	0.7352	0.0645	0.8882	0.084
Mof_H 	H 	0.7134	0.0575	0.8483	-0.01
Mof_C 	C 	0.7978	0.084	0.0046	-0.133
Mof_H 	H 	0.82	0.0882	0.0446	0.085
Mof_C 	C 	0.743	0.2368	0.1506	0.06
Mof_C 	C 	0.1824	0.5522	0.5061	0.093
Mof_C 	C 	0.0036	0.3845	0.4958	-0.138
Mof_H 	H 	0.0232	0.3833	0.536	0.087
Mof_C 	C 	0.7097	0.2261	0.087	0.101
Mof_C 	C 	0.5258	0.3351	0.999	-0.148
Mof_H 	H 	0.5431	0.3306	0.039	0.076
Mof_C 	C 	0.0335	0.4266	0.4661	0.069
Mof_C 	C 	0.7357	0.1213	0.974	0.068
Mof_C 	C 	0.7054	0.172	0.0044	0.102
Mof_C 	C 	0.1792	0.4559	0.6806	-0.139
Mof_H 	H 	0.1352	0.4381	0.6605	0.082
Mof_C 	C 	0.704	0.1097	0.9146	-0.134
Mof_H 	H 	0.662	0.1323	0.893	0.084
Mof_C 	C 	0.4669	0.375	0.9686	0.077
Mof_H 	H 	0.4447	0.3972	0.989	-0.022
Mof_C 	C 	0.2153	0.6019	0.4769	0.054
Mof_C 	C 	0.1802	0.5021	0.5874	0.095
Mof_C 	C 	0.2125	0.4917	0.6513	0.057
Mof_C 	C 	0.3078	0.6801	0.4788	0.075
Mof_H 	H 	0.3492	0.7045	0.4997	-0.012
Mof_C 	C 	0.8253	0.0406	0.9734	0.09
Mof_H 	H 	0.8674	0.0174	0.9938	-0.015
Mof_C 	C 	0.4733	0.3536	0.8836	0.075
Mof_H 	H 	0.456	0.3613	0.8438	-0.021
Mof_C 	C 	0.002	0.4273	0.4065	-0.143
Mof_H 	H 	0.0198	0.4567	0.3854	0.082
Mof_C 	C 	0.3071	0.5049	0.7419	0.075
Mof_H 	H 	0.3513	0.5215	0.7628	-0.025
Mof_C 	C 	0.1863	0.6099	0.4175	-0.136
Mof_H 	H 	0.1445	0.5873	0.3952	0.078
Mof_C 	C 	0.2122	0.4467	0.7402	0.082
Mof_H 	H 	0.1895	0.4226	0.7595	-0.017
Mof_C 	C 	0.9439	0.3836	0.3789	0.087
Mof_H 	H 	0.9244	0.3821	0.3388	-0.008
Mof_C 	C 	0.7453	0.2953	0.2366	0.07
Mof_H 	H 	0.7263	0.33	0.2541	-0.017
Mof_C 	C 	0.8023	0.1985	0.1844	-0.142
Mof_H 	H 	0.8243	0.1668	0.1678	0.084
Mof_C 	C 	0.8283	0.208	0.2436	0.086
Mof_H 	H 	0.8675	0.1803	0.2662	-0.021
Mof_C 	C 	0.2781	0.5165	0.6829	-0.145
Mof_H 	H 	0.3021	0.5405	0.6647	0.074
Mof_C 	C 	0.7151	0.2887	0.1773	-0.134
Mof_H 	H 	0.6767	0.3184	0.1554	0.069
Mof_N 	N 	0.4392	0.3838	0.9114	-0.216
Mof_N 	N 	0.7956	0.03	0.9169	-0.194
Mof_N 	N 	0.8008	0.2543	0.2704	-0.199
Mof_N 	N 	0.6478	0.2104	0.9718	-0.138
Mof_N 	N 	0.738	0.1774	0.06214	-0.137
Mof_N 	N 	0.6529	0.2672	0.0588	-0.142
Mof_N 	N 	0.28	0.6867	0.4213	-0.209
Mof_N 	N 	0.9136	0.3428	0.4067	-0.19
Mof_N 	N 	0.2754	0.471	0.7708	-0.2
Mof_N 	N 	0.1261	0.5121	0.47254	-0.141
Mof_N 	N 	0.1229	0.463	0.558	-0.137
Mof_N 	N 	0.2115	0.5495	0.5641	-0.149
_end
