data_functionalizedCrystal
_audit_creation_method	'EQeq! by Chris Wilmer'
_symmetry_space_group_name_H-M	'P1'
_symmetry_Int_Tables_number	1
_symmetry_cell_setting	triclinic
loop_
_symmetry_equiv_pos_as_xyz
  x,y,z
_cell_length_a	19.2396
_cell_length_b	20.3017
_cell_length_c	46.143
_cell_angle_alpha	90
_cell_angle_beta	90
_cell_angle_gamma	90
loop_
_atom_site_label
_atom_site_type_symbol
_atom_site_fract_x
_atom_site_fract_y
_atom_site_fract_z
_atom_site_charge
Mof_C 	C 	0.1559	0.7384	0.08269	0.655
Mof_C 	C 	0.1533	0.7694	0.0528	-0.388
Mof_C 	C 	0.1185	0.739	0.0305	0.322
Mof_H 	H 	0.0968	0.6987	0.0336	-0.087
Mof_C 	C 	0.1867	0.8297	0.0484	0.335
Mof_H 	H 	0.2089	0.851	0.0637	-0.091
Mof_C 	C 	0.116	0.7679	0.0036	-0.43
Mof_H 	H 	0.0909	0.7486	0.9887	0.18
Mof_C 	C 	0.1863	0.8573	0.0211	-0.46
Mof_H 	H 	0.2097	0.8966	0.0177	0.197
Mof_C 	C 	0.1519	0.8271	0.9992	0.427
Mof_C 	C 	0.1994	0.8901	0.9603	0.532
Mof_C 	C 	0.2645	0.8703	0.962	-0.557
Mof_H 	H 	0.2757	0.8332	0.9729	0.227
Mof_C 	C 	0.1815	0.9466	0.9453	-0.584
Mof_H 	H 	0.1358	0.9614	0.9451	0.248
Mof_C 	C 	0.3173	0.9054	0.9475	0.428
Mof_H 	H 	0.3632	0.8913	0.9484	-0.115
Mof_C 	C 	0.2317	0.9803	0.931	0.529
Mof_H 	H 	0.2198	0.0173	0.9202	-0.17
Mof_C 	C 	0.2994	0.9609	0.9322	-0.503
Mof_C 	C 	0.3546	0.9983	0.9154	0.757
Mof_O 	O 	0.1336	0.6807	0.08534	-0.761
Mof_O 	O 	0.1793	0.7724	0.10318	-0.766
Mof_O 	O 	0.1446	0.8546	0.9721	-0.403
Mof_O 	O 	0.4164	0.9804	0.9185	-0.754
Mof_O 	O 	0.3332	0.0431	0.89931	-0.815
Mof_O 	O 	0.2248	0.6506	0.13801	-1.035
Mof_H 	H 	0.52678	0.37597	0.60115	0.147
Mof_C 	C 	0.1559	0.2384	0.58269	0.653
Mof_C 	C 	0.1533	0.2694	0.5528	-0.385
Mof_C 	C 	0.1185	0.239	0.5305	0.315
Mof_H 	H 	0.0968	0.1987	0.5336	-0.087
Mof_C 	C 	0.1867	0.3297	0.5484	0.327
Mof_H 	H 	0.2089	0.351	0.5637	-0.089
Mof_C 	C 	0.116	0.2679	0.5036	-0.425
Mof_H 	H 	0.0909	0.2486	0.4887	0.176
Mof_C 	C 	0.1863	0.3573	0.5211	-0.452
Mof_H 	H 	0.2097	0.3966	0.5177	0.189
Mof_C 	C 	0.1519	0.3271	0.4992	0.417
Mof_C 	C 	0.1994	0.3901	0.4603	0.474
Mof_C 	C 	0.2645	0.3703	0.462	-0.5
Mof_H 	H 	0.2757	0.3332	0.4729	0.206
Mof_C 	C 	0.1815	0.4466	0.4453	-0.493
Mof_H 	H 	0.1358	0.4614	0.4451	0.206
Mof_C 	C 	0.3173	0.4054	0.4475	0.364
Mof_H 	H 	0.3632	0.3913	0.4484	-0.095
Mof_C 	C 	0.2317	0.4803	0.431	0.39
Mof_H 	H 	0.2198	0.5173	0.4202	-0.101
Mof_C 	C 	0.2994	0.4609	0.4322	-0.432
Mof_C 	C 	0.3546	0.4983	0.4154	0.697
Mof_O 	O 	0.1336	0.1807	0.58534	-0.762
Mof_O 	O 	0.1793	0.2724	0.60318	-0.766
Mof_O 	O 	0.1446	0.3546	0.4721	-0.391
Mof_O 	O 	0.4164	0.4804	0.4185	-0.766
Mof_O 	O 	0.3332	0.5431	0.39931	-0.782
Mof_O 	O 	0.2248	0.1506	0.63801	-1.035
Mof_H 	H 	0.52678	0.87597	0.10115	0.149
Mof_C 	C 	0.6559	0.7384	0.58269	0.655
Mof_C 	C 	0.6533	0.7694	0.5528	-0.383
Mof_C 	C 	0.6185	0.739	0.5305	0.323
Mof_H 	H 	0.5968	0.6987	0.5336	-0.078
Mof_C 	C 	0.6867	0.8297	0.5484	0.335
Mof_H 	H 	0.7089	0.851	0.5637	-0.089
Mof_C 	C 	0.616	0.7679	0.5036	-0.424
Mof_H 	H 	0.5909	0.7486	0.4887	0.19
Mof_C 	C 	0.6863	0.8573	0.5211	-0.455
Mof_H 	H 	0.7097	0.8966	0.5177	0.198
Mof_C 	C 	0.6519	0.8271	0.4992	0.428
Mof_C 	C 	0.6994	0.8901	0.4603	0.522
Mof_C 	C 	0.7645	0.8703	0.462	-0.54
Mof_H 	H 	0.7757	0.8332	0.4729	0.223
Mof_C 	C 	0.6815	0.9466	0.4453	-0.566
Mof_H 	H 	0.6358	0.9614	0.4451	0.25
Mof_C 	C 	0.8173	0.9054	0.4475	0.412
Mof_H 	H 	0.8632	0.8913	0.4484	-0.101
Mof_C 	C 	0.7317	0.9803	0.431	0.508
Mof_H 	H 	0.7198	0.0173	0.4202	-0.157
Mof_C 	C 	0.7994	0.9609	0.4322	-0.481
Mof_C 	C 	0.8546	0.9983	0.4154	0.735
Mof_O 	O 	0.6336	0.6807	0.58534	-0.755
Mof_O 	O 	0.6793	0.7724	0.60318	-0.761
Mof_O 	O 	0.6446	0.8546	0.4721	-0.392
Mof_O 	O 	0.9164	0.9804	0.4185	-0.697
Mof_O 	O 	0.8332	0.0431	0.39931	-0.8
Mof_O 	O 	0.7248	0.6506	0.63801	-1.033
Mof_H 	H 	0.02678	0.37597	0.10115	0.107
Mof_C 	C 	0.6559	0.2384	0.08269	0.653
Mof_C 	C 	0.6533	0.2694	0.0528	-0.38
Mof_C 	C 	0.6185	0.239	0.0305	0.318
Mof_H 	H 	0.5968	0.1987	0.0336	-0.078
Mof_C 	C 	0.6867	0.3297	0.0484	0.328
Mof_H 	H 	0.7089	0.351	0.0637	-0.087
Mof_C 	C 	0.616	0.2679	0.0036	-0.419
Mof_H 	H 	0.5909	0.2486	0.9887	0.187
Mof_C 	C 	0.6863	0.3573	0.0211	-0.448
Mof_H 	H 	0.7097	0.3966	0.0177	0.19
Mof_C 	C 	0.6519	0.3271	0.9992	0.419
Mof_C 	C 	0.6994	0.3901	0.9603	0.47
Mof_C 	C 	0.7645	0.3703	0.962	-0.488
Mof_H 	H 	0.7757	0.3332	0.9729	0.204
Mof_C 	C 	0.6815	0.4466	0.9453	-0.484
Mof_H 	H 	0.6358	0.4614	0.9451	0.213
Mof_C 	C 	0.8173	0.4054	0.9475	0.354
Mof_H 	H 	0.8632	0.3913	0.9484	-0.083
Mof_C 	C 	0.7317	0.4803	0.931	0.382
Mof_H 	H 	0.7198	0.5173	0.9202	-0.095
Mof_C 	C 	0.7994	0.4609	0.9322	-0.416
Mof_C 	C 	0.8546	0.4983	0.9154	0.681
Mof_O 	O 	0.6336	0.1807	0.08534	-0.755
Mof_O 	O 	0.6793	0.2724	0.10318	-0.761
Mof_O 	O 	0.6446	0.3546	0.9721	-0.381
Mof_O 	O 	0.9164	0.4804	0.9185	-0.709
Mof_O 	O 	0.8332	0.5431	0.89931	-0.771
Mof_O 	O 	0.7248	0.1506	0.13801	-1.032
Mof_H 	H 	0.02678	0.87597	0.60115	0.111
Mof_C 	C 	0.8441	0.2616	0.08269	0.653
Mof_C 	C 	0.8467	0.2306	0.0528	-0.369
Mof_C 	C 	0.8815	0.261	0.0305	0.313
Mof_H 	H 	0.9032	0.3013	0.0336	-0.063
Mof_C 	C 	0.8133	0.1703	0.0484	0.319
Mof_H 	H 	0.7911	0.149	0.0637	-0.084
Mof_C 	C 	0.884	0.2321	0.0036	-0.407
Mof_H 	H 	0.9091	0.2514	0.9887	0.195
Mof_C 	C 	0.8137	0.1427	0.0211	-0.436
Mof_H 	H 	0.7903	0.1034	0.0177	0.182
Mof_C 	C 	0.8481	0.1729	0.9992	0.412
Mof_C 	C 	0.8006	0.1099	0.9603	0.425
Mof_C 	C 	0.7355	0.1297	0.962	-0.444
Mof_H 	H 	0.7243	0.1668	0.9729	0.187
Mof_C 	C 	0.8185	0.0534	0.9453	-0.409
Mof_H 	H 	0.8642	0.0386	0.9451	0.188
Mof_C 	C 	0.6827	0.0946	0.9475	0.304
Mof_H 	H 	0.6368	0.1087	0.9484	-0.075
Mof_C 	C 	0.7683	0.0197	0.931	0.266
Mof_H 	H 	0.7802	0.9827	0.9202	-0.033
Mof_C 	C 	0.7006	0.0391	0.9322	-0.361
Mof_C 	C 	0.6454	0.0017	0.9154	0.632
Mof_O 	O 	0.8664	0.3193	0.08534	-0.747
Mof_O 	O 	0.8207	0.2276	0.10318	-0.758
Mof_O 	O 	0.8554	0.1454	0.9721	-0.362
Mof_O 	O 	0.5836	0.0196	0.9185	-0.744
Mof_O 	O 	0.6668	0.9569	0.89931	-0.743
Mof_O 	O 	0.7752	0.3494	0.13801	-1.032
Mof_H 	H 	0.47322	0.62403	0.60115	0.147
Mof_C 	C 	0.8441	0.7616	0.58269	0.654
Mof_C 	C 	0.8467	0.7306	0.5528	-0.371
Mof_C 	C 	0.8815	0.761	0.5305	0.318
Mof_H 	H 	0.9032	0.8013	0.5336	-0.063
Mof_C 	C 	0.8133	0.6703	0.5484	0.326
Mof_H 	H 	0.7911	0.649	0.5637	-0.085
Mof_C 	C 	0.884	0.7321	0.5036	-0.412
Mof_H 	H 	0.9091	0.7514	0.4887	0.198
Mof_C 	C 	0.8137	0.6427	0.5211	-0.443
Mof_H 	H 	0.7903	0.6034	0.5177	0.189
Mof_C 	C 	0.8481	0.6729	0.4992	0.421
Mof_C 	C 	0.8006	0.6099	0.4603	0.48
Mof_C 	C 	0.7355	0.6297	0.462	-0.5
Mof_H 	H 	0.7243	0.6668	0.4729	0.207
Mof_C 	C 	0.8185	0.5534	0.4453	-0.494
Mof_H 	H 	0.8642	0.5386	0.4451	0.226
Mof_C 	C 	0.6827	0.5946	0.4475	0.367
Mof_H 	H 	0.6368	0.6087	0.4484	-0.095
Mof_C 	C 	0.7683	0.5197	0.431	0.396
Mof_H 	H 	0.7802	0.4827	0.4202	-0.097
Mof_C 	C 	0.7006	0.5391	0.4322	-0.432
Mof_C 	C 	0.6454	0.5017	0.4154	0.698
Mof_O 	O 	0.8664	0.8193	0.58534	-0.747
Mof_O 	O 	0.8207	0.7276	0.60318	-0.758
Mof_O 	O 	0.8554	0.6454	0.4721	-0.374
Mof_O 	O 	0.5836	0.5196	0.4185	-0.766
Mof_O 	O 	0.6668	0.4569	0.39931	-0.781
Mof_O 	O 	0.7752	0.8494	0.63801	-1.033
Mof_H 	H 	0.47322	0.12403	0.10115	0.146
Mof_C 	C 	0.3441	0.2616	0.58269	0.652
Mof_C 	C 	0.3467	0.2306	0.5528	-0.375
Mof_C 	C 	0.3815	0.261	0.5305	0.311
Mof_H 	H 	0.4032	0.3013	0.5336	-0.074
Mof_C 	C 	0.3133	0.1703	0.5484	0.318
Mof_H 	H 	0.2911	0.149	0.5637	-0.086
Mof_C 	C 	0.384	0.2321	0.5036	-0.412
Mof_H 	H 	0.4091	0.2514	0.4887	0.184
Mof_C 	C 	0.3137	0.1427	0.5211	-0.439
Mof_H 	H 	0.2903	0.1034	0.5177	0.18
Mof_C 	C 	0.3481	0.1729	0.4992	0.409
Mof_C 	C 	0.3006	0.1099	0.4603	0.417
Mof_C 	C 	0.2355	0.1297	0.462	-0.441
Mof_H 	H 	0.2243	0.1668	0.4729	0.184
Mof_C 	C 	0.3185	0.0534	0.4453	-0.402
Mof_H 	H 	0.3642	0.0386	0.4451	0.175
Mof_C 	C 	0.1827	0.0946	0.4475	0.297
Mof_H 	H 	0.1368	0.1087	0.4484	-0.08
Mof_C 	C 	0.2683	0.0197	0.431	0.251
Mof_H 	H 	0.2802	0.9827	0.4202	-0.029
Mof_C 	C 	0.2006	0.0391	0.4322	-0.355
Mof_C 	C 	0.1454	0.0017	0.4154	0.619
Mof_O 	O 	0.3664	0.3193	0.58534	-0.754
Mof_O 	O 	0.3207	0.2276	0.60318	-0.763
Mof_O 	O 	0.3554	0.1454	0.4721	-0.37
Mof_O 	O 	0.0836	0.0196	0.4185	-0.724
Mof_O 	O 	0.1668	0.9569	0.39931	-0.737
Mof_O 	O 	0.2752	0.3494	0.63801	-1.034
Mof_H 	H 	0.97322	0.62403	0.10115	0.188
Mof_C 	C 	0.3441	0.7616	0.08269	0.654
Mof_C 	C 	0.3467	0.7306	0.0528	-0.378
Mof_C 	C 	0.3815	0.761	0.0305	0.316
Mof_H 	H 	0.4032	0.8013	0.0336	-0.073
Mof_C 	C 	0.3133	0.6703	0.0484	0.326
Mof_H 	H 	0.2911	0.649	0.0637	-0.087
Mof_C 	C 	0.384	0.7321	0.0036	-0.418
Mof_H 	H 	0.4091	0.7514	0.9887	0.188
Mof_C 	C 	0.3137	0.6427	0.0211	-0.447
Mof_H 	H 	0.2903	0.6034	0.0177	0.188
Mof_C 	C 	0.3481	0.6729	0.9992	0.418
Mof_C 	C 	0.3006	0.6099	0.9603	0.477
Mof_C 	C 	0.2355	0.6297	0.962	-0.502
Mof_H 	H 	0.2243	0.6668	0.9729	0.205
Mof_C 	C 	0.3185	0.5534	0.9453	-0.494
Mof_H 	H 	0.3642	0.5386	0.9451	0.216
Mof_C 	C 	0.1827	0.5946	0.9475	0.365
Mof_H 	H 	0.1368	0.6087	0.9484	-0.101
Mof_C 	C 	0.2683	0.5197	0.931	0.393
Mof_H 	H 	0.2802	0.4827	0.9202	-0.099
Mof_C 	C 	0.2006	0.5391	0.9322	-0.433
Mof_C 	C 	0.1454	0.5017	0.9154	0.69
Mof_O 	O 	0.3664	0.8193	0.08534	-0.754
Mof_O 	O 	0.3207	0.7276	0.10318	-0.763
Mof_O 	O 	0.3554	0.6454	0.9721	-0.383
Mof_O 	O 	0.0836	0.5196	0.9185	-0.747
Mof_O 	O 	0.1668	0.4569	0.89931	-0.777
Mof_O 	O 	0.2752	0.8494	0.13801	-1.034
Mof_H 	H 	0.97322	0.12403	0.60115	0.189
Mof_C 	C 	0.8441	0.7384	0.91731	0.656
Mof_C 	C 	0.8467	0.7694	0.9472	-0.376
Mof_C 	C 	0.8815	0.739	0.9695	0.324
Mof_H 	H 	0.9032	0.6987	0.9664	-0.067
Mof_C 	C 	0.8133	0.8297	0.9516	0.335
Mof_H 	H 	0.7911	0.851	0.9363	-0.087
Mof_C 	C 	0.884	0.7679	0.9964	-0.419
Mof_H 	H 	0.9091	0.7486	0.0113	0.201
Mof_C 	C 	0.8137	0.8573	0.9789	-0.451
Mof_H 	H 	0.7903	0.8966	0.9823	0.197
Mof_C 	C 	0.8481	0.8271	0.0008	0.431
Mof_C 	C 	0.8006	0.8901	0.0397	0.532
Mof_C 	C 	0.7355	0.8703	0.038	-0.553
Mof_H 	H 	0.7243	0.8332	0.0271	0.226
Mof_C 	C 	0.8185	0.9466	0.0547	-0.576
Mof_H 	H 	0.8642	0.9614	0.0549	0.263
Mof_C 	C 	0.6827	0.9054	0.0525	0.426
Mof_H 	H 	0.6368	0.8913	0.0516	-0.113
Mof_C 	C 	0.7683	0.9803	0.069	0.522
Mof_H 	H 	0.7802	0.0173	0.0798	-0.159
Mof_C 	C 	0.7006	0.9609	0.0678	-0.498
Mof_C 	C 	0.6454	0.9983	0.0846	0.754
Mof_O 	O 	0.8664	0.6807	0.91466	-0.748
Mof_O 	O 	0.8207	0.7724	0.89682	-0.758
Mof_O 	O 	0.8554	0.8546	0.0279	-0.386
Mof_O 	O 	0.5836	0.9804	0.0815	-0.753
Mof_O 	O 	0.6668	0.0431	0.10069	-0.811
Mof_O 	O 	0.7752	0.6506	0.86199	-1.033
Mof_H 	H 	0.47322	0.37597	0.39885	0.146
Mof_C 	C 	0.8441	0.2384	0.41731	0.655
Mof_C 	C 	0.8467	0.2694	0.4472	-0.373
Mof_C 	C 	0.8815	0.239	0.4695	0.32
Mof_H 	H 	0.9032	0.1987	0.4664	-0.067
Mof_C 	C 	0.8133	0.3297	0.4516	0.328
Mof_H 	H 	0.7911	0.351	0.4363	-0.086
Mof_C 	C 	0.884	0.2679	0.4964	-0.413
Mof_H 	H 	0.9091	0.2486	0.5113	0.198
Mof_C 	C 	0.8137	0.3573	0.4789	-0.444
Mof_H 	H 	0.7903	0.3966	0.4823	0.19
Mof_C 	C 	0.8481	0.3271	0.5008	0.422
Mof_C 	C 	0.8006	0.3901	0.5397	0.48
Mof_C 	C 	0.7355	0.3703	0.538	-0.501
Mof_H 	H 	0.7243	0.3332	0.5271	0.207
Mof_C 	C 	0.8185	0.4466	0.5547	-0.495
Mof_H 	H 	0.8642	0.4614	0.5549	0.226
Mof_C 	C 	0.6827	0.4054	0.5525	0.367
Mof_H 	H 	0.6368	0.3913	0.5516	-0.096
Mof_C 	C 	0.7683	0.4803	0.569	0.397
Mof_H 	H 	0.7802	0.5173	0.5798	-0.097
Mof_C 	C 	0.7006	0.4609	0.5678	-0.433
Mof_C 	C 	0.6454	0.4983	0.5846	0.698
Mof_O 	O 	0.8664	0.1807	0.41466	-0.748
Mof_O 	O 	0.8207	0.2724	0.39682	-0.757
Mof_O 	O 	0.8554	0.3546	0.5279	-0.374
Mof_O 	O 	0.5836	0.4804	0.5815	-0.766
Mof_O 	O 	0.6668	0.5431	0.60069	-0.781
Mof_O 	O 	0.7752	0.1506	0.36199	-1.032
Mof_H 	H 	0.47322	0.87597	0.89885	0.148
Mof_C 	C 	0.3441	0.7384	0.41731	0.656
Mof_C 	C 	0.3467	0.7694	0.4472	-0.383
Mof_C 	C 	0.3815	0.739	0.4695	0.323
Mof_H 	H 	0.4032	0.6987	0.4664	-0.078
Mof_C 	C 	0.3133	0.8297	0.4516	0.335
Mof_H 	H 	0.2911	0.851	0.4363	-0.089
Mof_C 	C 	0.384	0.7679	0.4964	-0.425
Mof_H 	H 	0.4091	0.7486	0.5113	0.19
Mof_C 	C 	0.3137	0.8573	0.4789	-0.456
Mof_H 	H 	0.2903	0.8966	0.4823	0.197
Mof_C 	C 	0.3481	0.8271	0.5008	0.429
Mof_C 	C 	0.3006	0.8901	0.5397	0.535
Mof_C 	C 	0.2355	0.8703	0.538	-0.559
Mof_H 	H 	0.2243	0.8332	0.5271	0.226
Mof_C 	C 	0.3185	0.9466	0.5547	-0.584
Mof_H 	H 	0.3642	0.9614	0.5549	0.257
Mof_C 	C 	0.1827	0.9054	0.5525	0.429
Mof_H 	H 	0.1368	0.8913	0.5516	-0.121
Mof_C 	C 	0.2683	0.9803	0.569	0.531
Mof_H 	H 	0.2802	0.0173	0.5798	-0.167
Mof_C 	C 	0.2006	0.9609	0.5678	-0.504
Mof_C 	C 	0.1454	0.9983	0.5846	0.751
Mof_O 	O 	0.3664	0.6807	0.41466	-0.755
Mof_O 	O 	0.3207	0.7724	0.39682	-0.762
Mof_O 	O 	0.3554	0.8546	0.5279	-0.395
Mof_O 	O 	0.0836	0.9804	0.5815	-0.734
Mof_O 	O 	0.1668	0.0431	0.60069	-0.81
Mof_O 	O 	0.2752	0.6506	0.36199	-1.034
Mof_H 	H 	0.97322	0.37597	0.89885	0.189
Mof_C 	C 	0.3441	0.2384	0.91731	0.654
Mof_C 	C 	0.3467	0.2694	0.9472	-0.38
Mof_C 	C 	0.3815	0.239	0.9695	0.318
Mof_H 	H 	0.4032	0.1987	0.9664	-0.078
Mof_C 	C 	0.3133	0.3297	0.9516	0.327
Mof_H 	H 	0.2911	0.351	0.9363	-0.088
Mof_C 	C 	0.384	0.2679	0.9964	-0.419
Mof_H 	H 	0.4091	0.2486	0.0113	0.187
Mof_C 	C 	0.3137	0.3573	0.9789	-0.448
Mof_H 	H 	0.2903	0.3966	0.9823	0.188
Mof_C 	C 	0.3481	0.3271	0.0008	0.42
Mof_C 	C 	0.3006	0.3901	0.0397	0.478
Mof_C 	C 	0.2355	0.3703	0.038	-0.503
Mof_H 	H 	0.2243	0.3332	0.0271	0.206
Mof_C 	C 	0.3185	0.4466	0.0547	-0.495
Mof_H 	H 	0.3642	0.4614	0.0549	0.216
Mof_C 	C 	0.1827	0.4054	0.0525	0.366
Mof_H 	H 	0.1368	0.3913	0.0516	-0.102
Mof_C 	C 	0.2683	0.4803	0.069	0.393
Mof_H 	H 	0.2802	0.5173	0.0798	-0.099
Mof_C 	C 	0.2006	0.4609	0.0678	-0.433
Mof_C 	C 	0.1454	0.4983	0.0846	0.69
Mof_O 	O 	0.3664	0.1807	0.91466	-0.755
Mof_O 	O 	0.3207	0.2724	0.89682	-0.762
Mof_O 	O 	0.3554	0.3546	0.0279	-0.383
Mof_O 	O 	0.0836	0.4804	0.0815	-0.747
Mof_O 	O 	0.1668	0.5431	0.10069	-0.777
Mof_O 	O 	0.2752	0.1506	0.86199	-1.034
Mof_H 	H 	0.97322	0.87597	0.39885	0.189
Mof_C 	C 	0.1559	0.2616	0.91731	0.65
Mof_C 	C 	0.1533	0.2306	0.9472	-0.381
Mof_C 	C 	0.1185	0.261	0.9695	0.308
Mof_H 	H 	0.0968	0.3013	0.9664	-0.083
Mof_C 	C 	0.1867	0.1703	0.9516	0.318
Mof_H 	H 	0.2089	0.149	0.9363	-0.088
Mof_C 	C 	0.116	0.2321	0.9964	-0.418
Mof_H 	H 	0.0909	0.2514	0.0113	0.174
Mof_C 	C 	0.1863	0.1427	0.9789	-0.443
Mof_H 	H 	0.2097	0.1034	0.9823	0.18
Mof_C 	C 	0.1519	0.1729	0.0008	0.406
Mof_C 	C 	0.1994	0.1099	0.0397	0.413
Mof_C 	C 	0.2645	0.1297	0.038	-0.437
Mof_H 	H 	0.2757	0.1668	0.0271	0.184
Mof_C 	C 	0.1815	0.0534	0.0547	-0.399
Mof_H 	H 	0.1358	0.0386	0.0549	0.164
Mof_C 	C 	0.3173	0.0946	0.0525	0.294
Mof_H 	H 	0.3632	0.1087	0.0516	-0.073
Mof_C 	C 	0.2317	0.0197	0.069	0.246
Mof_H 	H 	0.2198	0.9827	0.0798	-0.03
Mof_C 	C 	0.2994	0.0391	0.0678	-0.353
Mof_C 	C 	0.3546	0.0017	0.0846	0.627
Mof_O 	O 	0.1336	0.3193	0.91466	-0.761
Mof_O 	O 	0.1793	0.2276	0.89682	-0.767
Mof_O 	O 	0.1446	0.1454	0.0279	-0.378
Mof_O 	O 	0.4164	0.0196	0.0815	-0.743
Mof_O 	O 	0.3332	0.9569	0.10069	-0.742
Mof_O 	O 	0.2248	0.3494	0.86199	-1.035
Mof_H 	H 	0.52678	0.62403	0.39885	0.147
Mof_C 	C 	0.1559	0.7616	0.41731	0.652
Mof_C 	C 	0.1533	0.7306	0.4472	-0.383
Mof_C 	C 	0.1185	0.761	0.4695	0.313
Mof_H 	H 	0.0968	0.8013	0.4664	-0.082
Mof_C 	C 	0.1867	0.6703	0.4516	0.325
Mof_H 	H 	0.2089	0.649	0.4363	-0.089
Mof_C 	C 	0.116	0.7321	0.4964	-0.423
Mof_H 	H 	0.0909	0.7514	0.5113	0.178
Mof_C 	C 	0.1863	0.6427	0.4789	-0.451
Mof_H 	H 	0.2097	0.6034	0.4823	0.188
Mof_C 	C 	0.1519	0.6729	0.5008	0.416
Mof_C 	C 	0.1994	0.6099	0.5397	0.473
Mof_C 	C 	0.2645	0.6297	0.538	-0.499
Mof_H 	H 	0.2757	0.6668	0.5271	0.206
Mof_C 	C 	0.1815	0.5534	0.5547	-0.493
Mof_H 	H 	0.1358	0.5386	0.5549	0.206
Mof_C 	C 	0.3173	0.5946	0.5525	0.364
Mof_H 	H 	0.3632	0.6087	0.5516	-0.095
Mof_C 	C 	0.2317	0.5197	0.569	0.389
Mof_H 	H 	0.2198	0.4827	0.5798	-0.101
Mof_C 	C 	0.2994	0.5391	0.5678	-0.431
Mof_C 	C 	0.3546	0.5017	0.5846	0.697
Mof_O 	O 	0.1336	0.8193	0.41466	-0.761
Mof_O 	O 	0.1793	0.7276	0.39682	-0.767
Mof_O 	O 	0.1446	0.6454	0.5279	-0.39
Mof_O 	O 	0.4164	0.5196	0.5815	-0.766
Mof_O 	O 	0.3332	0.4569	0.60069	-0.782
Mof_O 	O 	0.2248	0.8494	0.36199	-1.035
Mof_H 	H 	0.52678	0.12403	0.89885	0.147
Mof_C 	C 	0.6559	0.2616	0.41731	0.652
Mof_C 	C 	0.6533	0.2306	0.4472	-0.375
Mof_C 	C 	0.6185	0.261	0.4695	0.311
Mof_H 	H 	0.5968	0.3013	0.4664	-0.074
Mof_C 	C 	0.6867	0.1703	0.4516	0.319
Mof_H 	H 	0.7089	0.149	0.4363	-0.086
Mof_C 	C 	0.616	0.2321	0.4964	-0.413
Mof_H 	H 	0.5909	0.2514	0.5113	0.184
Mof_C 	C 	0.6863	0.1427	0.4789	-0.44
Mof_H 	H 	0.7097	0.1034	0.4823	0.182
Mof_C 	C 	0.6519	0.1729	0.5008	0.409
Mof_C 	C 	0.6994	0.1099	0.5397	0.414
Mof_C 	C 	0.7645	0.1297	0.538	-0.431
Mof_H 	H 	0.7757	0.1668	0.5271	0.184
Mof_C 	C 	0.6815	0.0534	0.5547	-0.398
Mof_H 	H 	0.6358	0.0386	0.5549	0.174
Mof_C 	C 	0.8173	0.0946	0.5525	0.29
Mof_H 	H 	0.8632	0.1087	0.5516	-0.063
Mof_C 	C 	0.7317	0.0197	0.569	0.25
Mof_H 	H 	0.7198	0.9827	0.5798	-0.03
Mof_C 	C 	0.7994	0.0391	0.5678	-0.344
Mof_C 	C 	0.8546	0.0017	0.5846	0.616
Mof_O 	O 	0.6336	0.3193	0.41466	-0.754
Mof_O 	O 	0.6793	0.2276	0.39682	-0.762
Mof_O 	O 	0.6446	0.1454	0.5279	-0.368
Mof_O 	O 	0.9164	0.0196	0.5815	-0.686
Mof_O 	O 	0.8332	0.9569	0.60069	-0.734
Mof_O 	O 	0.7248	0.3494	0.36199	-1.032
Mof_H 	H 	0.02678	0.62403	0.89885	0.109
Mof_C 	C 	0.6559	0.7616	0.91731	0.653
Mof_C 	C 	0.6533	0.7306	0.9472	-0.378
Mof_C 	C 	0.6185	0.761	0.9695	0.316
Mof_H 	H 	0.5968	0.8013	0.9664	-0.073
Mof_C 	C 	0.6867	0.6703	0.9516	0.326
Mof_H 	H 	0.7089	0.649	0.9363	-0.087
Mof_C 	C 	0.616	0.7321	0.9964	-0.418
Mof_H 	H 	0.5909	0.7514	0.0113	0.188
Mof_C 	C 	0.6863	0.6427	0.9789	-0.447
Mof_H 	H 	0.7097	0.6034	0.9823	0.19
Mof_C 	C 	0.6519	0.6729	0.0008	0.418
Mof_C 	C 	0.6994	0.6099	0.0397	0.469
Mof_C 	C 	0.7645	0.6297	0.038	-0.487
Mof_H 	H 	0.7757	0.6668	0.0271	0.204
Mof_C 	C 	0.6815	0.5534	0.0547	-0.483
Mof_H 	H 	0.6358	0.5386	0.0549	0.213
Mof_C 	C 	0.8173	0.5946	0.0525	0.354
Mof_H 	H 	0.8632	0.6087	0.0516	-0.083
Mof_C 	C 	0.7317	0.5197	0.069	0.381
Mof_H 	H 	0.7198	0.4827	0.0798	-0.094
Mof_C 	C 	0.7994	0.5391	0.0678	-0.416
Mof_C 	C 	0.8546	0.5017	0.0846	0.681
Mof_O 	O 	0.6336	0.8193	0.91466	-0.754
Mof_O 	O 	0.6793	0.7276	0.89682	-0.762
Mof_O 	O 	0.6446	0.6454	0.0279	-0.38
Mof_O 	O 	0.9164	0.5196	0.0815	-0.709
Mof_O 	O 	0.8332	0.4569	0.10069	-0.771
Mof_O 	O 	0.7248	0.8494	0.86199	-1.033
Mof_H 	H 	0.02678	0.12403	0.39885	0.107
Mof_C 	C 	0.0941	0.5116	0.16731	0.634
Mof_C 	C 	0.0967	0.4806	0.1972	-0.369
Mof_C 	C 	0.1315	0.511	0.2195	0.293
Mof_H 	H 	0.1532	0.5513	0.2164	-0.071
Mof_C 	C 	0.0633	0.4203	0.2016	0.298
Mof_H 	H 	0.0411	0.399	0.1863	-0.094
Mof_C 	C 	0.134	0.4821	0.2464	-0.397
Mof_H 	H 	0.1591	0.5014	0.2613	0.175
Mof_C 	C 	0.0637	0.3927	0.2289	-0.421
Mof_H 	H 	0.0403	0.3534	0.2323	0.166
Mof_C 	C 	0.0981	0.4229	0.2508	0.375
Mof_C 	C 	0.0506	0.3599	0.2897	0.208
Mof_C 	C 	0.9855	0.3797	0.288	-0.178
Mof_H 	H 	0.9743	0.4168	0.2771	0.117
Mof_C 	C 	0.0685	0.3034	0.3047	-0.231
Mof_H 	H 	0.1142	0.2886	0.3049	0.121
Mof_C 	C 	0.9327	0.3446	0.3025	0.124
Mof_H 	H 	0.8868	0.3587	0.3016	-0.009
Mof_C 	C 	0.0183	0.2697	0.319	0.07
Mof_H 	H 	0.0302	0.2327	0.3298	-0.006
Mof_C 	C 	0.9506	0.2891	0.3178	-0.174
Mof_C 	C 	0.8954	0.2517	0.3346	0.616
Mof_O 	O 	0.1164	0.5693	0.16466	-0.755
Mof_O 	O 	0.0707	0.4776	0.14682	-0.743
Mof_O 	O 	0.1054	0.3954	0.2779	-0.32
Mof_O 	O 	0.8336	0.2696	0.3315	-0.743
Mof_O 	O 	0.9168	0.2069	0.35069	-0.742
Mof_O 	O 	0.0252	0.5994	0.11199	-1.046
Mof_H 	H 	0.72322	0.87403	0.64885	0.15
Mof_C 	C 	0.0941	0.0116	0.66731	0.496
Mof_C 	C 	0.0967	0.9806	0.6972	-0.143
Mof_C 	C 	0.1315	0.011	0.7195	-0.007
Mof_H 	H 	0.1532	0.0513	0.7164	0.028
Mof_C 	C 	0.0633	0.9203	0.7016	0.121
Mof_H 	H 	0.0411	0.899	0.6863	-0.029
Mof_C 	C 	0.134	0.9821	0.7464	-0.103
Mof_H 	H 	0.1591	0.0014	0.7613	0.052
Mof_C 	C 	0.0637	0.8927	0.7289	-0.25
Mof_H 	H 	0.0403	0.8534	0.7323	0.11
Mof_C 	C 	0.0981	0.9229	0.7508	0.22
Mof_C 	C 	0.0506	0.8599	0.7897	0.202
Mof_C 	C 	0.9855	0.8797	0.788	-0.175
Mof_H 	H 	0.9743	0.9168	0.7771	0.121
Mof_C 	C 	0.0685	0.8034	0.8047	-0.227
Mof_H 	H 	0.1142	0.7886	0.8049	0.122
Mof_C 	C 	0.9327	0.8446	0.8025	0.127
Mof_H 	H 	0.8868	0.8587	0.8016	-0.007
Mof_C 	C 	0.0183	0.7697	0.819	0.075
Mof_H 	H 	0.0302	0.7327	0.8298	-0.007
Mof_C 	C 	0.9506	0.7891	0.8178	-0.177
Mof_C 	C 	0.8954	0.7517	0.8346	0.618
Mof_O 	O 	0.1164	0.0693	0.66466	-0.721
Mof_O 	O 	0.0707	0.9776	0.64682	-0.667
Mof_O 	O 	0.1054	0.8954	0.7779	-0.276
Mof_O 	O 	0.8336	0.7696	0.8315	-0.742
Mof_O 	O 	0.9168	0.7069	0.85069	-0.744
Mof_O 	O 	0.0252	0.0994	0.61199	-1.033
Mof_H 	H 	0.72322	0.37403	0.14885	0.147
Mof_C 	C 	0.5941	0.5116	0.66731	0.654
Mof_C 	C 	0.5967	0.4806	0.6972	-0.379
Mof_C 	C 	0.6315	0.511	0.7195	0.317
Mof_H 	H 	0.6532	0.5513	0.7164	-0.076
Mof_C 	C 	0.5633	0.4203	0.7016	0.327
Mof_H 	H 	0.5411	0.399	0.6863	-0.087
Mof_C 	C 	0.634	0.4821	0.7464	-0.419
Mof_H 	H 	0.6591	0.5014	0.7613	0.187
Mof_C 	C 	0.5637	0.3927	0.7289	-0.447
Mof_H 	H 	0.5403	0.3534	0.7323	0.188
Mof_C 	C 	0.5981	0.4229	0.7508	0.419
Mof_C 	C 	0.5506	0.3599	0.7897	0.476
Mof_C 	C 	0.4855	0.3797	0.788	-0.499
Mof_H 	H 	0.4743	0.4168	0.7771	0.206
Mof_C 	C 	0.5685	0.3034	0.8047	-0.493
Mof_H 	H 	0.6142	0.2886	0.8049	0.215
Mof_C 	C 	0.4327	0.3446	0.8025	0.364
Mof_H 	H 	0.3868	0.3587	0.8016	-0.095
Mof_C 	C 	0.5183	0.2697	0.819	0.391
Mof_H 	H 	0.5302	0.2327	0.8298	-0.097
Mof_C 	C 	0.4506	0.2891	0.8178	-0.431
Mof_C 	C 	0.3954	0.2517	0.8346	0.696
Mof_O 	O 	0.6164	0.5693	0.66466	-0.754
Mof_O 	O 	0.5707	0.4776	0.64682	-0.762
Mof_O 	O 	0.6054	0.3954	0.7779	-0.382
Mof_O 	O 	0.3336	0.2696	0.8315	-0.767
Mof_O 	O 	0.4168	0.2069	0.85069	-0.781
Mof_O 	O 	0.5252	0.5994	0.61199	-1.033
Mof_H 	H 	0.22322	0.87403	0.14885	0.149
Mof_C 	C 	0.5941	0.0116	0.16731	0.525
Mof_C 	C 	0.5967	0.9806	0.1972	-0.168
Mof_C 	C 	0.6315	0.011	0.2195	0.039
Mof_H 	H 	0.6532	0.0513	0.2164	0.016
Mof_C 	C 	0.5633	0.9203	0.2016	0.161
Mof_H 	H 	0.5411	0.899	0.1863	-0.028
Mof_C 	C 	0.634	0.9821	0.2464	-0.145
Mof_H 	H 	0.6591	0.0014	0.2613	0.072
Mof_C 	C 	0.5637	0.8927	0.2289	-0.289
Mof_H 	H 	0.5403	0.8534	0.2323	0.135
Mof_C 	C 	0.5981	0.9229	0.2508	0.274
Mof_C 	C 	0.5506	0.8599	0.2897	0.459
Mof_C 	C 	0.4855	0.8797	0.288	-0.482
Mof_H 	H 	0.4743	0.9168	0.2771	0.207
Mof_C 	C 	0.5685	0.8034	0.3047	-0.478
Mof_H 	H 	0.6142	0.7886	0.3049	0.211
Mof_C 	C 	0.4327	0.8446	0.3025	0.357
Mof_H 	H 	0.3868	0.8587	0.3016	-0.09
Mof_C 	C 	0.5183	0.7697	0.319	0.383
Mof_H 	H 	0.5302	0.7327	0.3298	-0.095
Mof_C 	C 	0.4506	0.7891	0.3178	-0.423
Mof_C 	C 	0.3954	0.7517	0.3346	0.695
Mof_O 	O 	0.6164	0.0693	0.16466	-0.723
Mof_O 	O 	0.5707	0.9776	0.14682	-0.691
Mof_O 	O 	0.6054	0.8954	0.2779	-0.339
Mof_O 	O 	0.3336	0.7696	0.3315	-0.765
Mof_O 	O 	0.4168	0.7069	0.35069	-0.78
Mof_O 	O 	0.5252	0.0994	0.11199	-1.02
Mof_H 	H 	0.22322	0.37403	0.64885	0.146
Mof_C 	C 	0.4059	0.9884	0.16731	0.775
Mof_C 	C 	0.4033	0.0194	0.1972	-0.591
Mof_C 	C 	0.3685	0.989	0.2195	0.604
Mof_H 	H 	0.3468	0.9487	0.2164	-0.171
Mof_C 	C 	0.4367	0.0797	0.2016	0.494
Mof_H 	H 	0.4589	0.101	0.1863	-0.147
Mof_C 	C 	0.366	0.0179	0.2464	-0.702
Mof_H 	H 	0.3409	0.9986	0.2613	0.307
Mof_C 	C 	0.4363	0.1073	0.2289	-0.61
Mof_H 	H 	0.4597	0.1466	0.2323	0.244
Mof_C 	C 	0.4019	0.0771	0.2508	0.569
Mof_C 	C 	0.4494	0.1401	0.2897	0.495
Mof_C 	C 	0.5145	0.1203	0.288	-0.518
Mof_H 	H 	0.5257	0.0832	0.2771	0.206
Mof_C 	C 	0.4315	0.1966	0.3047	-0.51
Mof_H 	H 	0.3858	0.2114	0.3049	0.221
Mof_C 	C 	0.5673	0.1554	0.3025	0.375
Mof_H 	H 	0.6132	0.1413	0.3016	-0.1
Mof_C 	C 	0.4817	0.2303	0.319	0.404
Mof_H 	H 	0.4698	0.2673	0.3298	-0.103
Mof_C 	C 	0.5494	0.2109	0.3178	-0.441
Mof_C 	C 	0.6046	0.2483	0.3346	0.7
Mof_O 	O 	0.3836	0.9307	0.16466	-0.781
Mof_O 	O 	0.4293	0.0224	0.14682	-0.801
Mof_O 	O 	0.3946	0.1046	0.2779	-0.428
Mof_O 	O 	0.6664	0.2304	0.3315	-0.767
Mof_O 	O 	0.5832	0.2931	0.35069	-0.783
Mof_O 	O 	0.4748	0.9006	0.11199	-1.013
Mof_H 	H 	0.77678	0.62597	0.64885	0.148
Mof_C 	C 	0.4059	0.4884	0.66731	0.654
Mof_C 	C 	0.4033	0.5194	0.6972	-0.379
Mof_C 	C 	0.3685	0.489	0.7195	0.317
Mof_H 	H 	0.3468	0.4487	0.7164	-0.076
Mof_C 	C 	0.4367	0.5797	0.7016	0.327
Mof_H 	H 	0.4589	0.601	0.6863	-0.088
Mof_C 	C 	0.366	0.5179	0.7464	-0.419
Mof_H 	H 	0.3409	0.4986	0.7613	0.187
Mof_C 	C 	0.4363	0.6073	0.7289	-0.448
Mof_H 	H 	0.4597	0.6466	0.7323	0.19
Mof_C 	C 	0.4019	0.5771	0.7508	0.42
Mof_C 	C 	0.4494	0.6401	0.7897	0.478
Mof_C 	C 	0.5145	0.6203	0.788	-0.501
Mof_H 	H 	0.5257	0.5832	0.7771	0.207
Mof_C 	C 	0.4315	0.6966	0.8047	-0.495
Mof_H 	H 	0.3858	0.7114	0.8049	0.217
Mof_C 	C 	0.5673	0.6554	0.8025	0.367
Mof_H 	H 	0.6132	0.6413	0.8016	-0.095
Mof_C 	C 	0.4817	0.7303	0.819	0.395
Mof_H 	H 	0.4698	0.7673	0.8298	-0.1
Mof_C 	C 	0.5494	0.7109	0.8178	-0.433
Mof_C 	C 	0.6046	0.7483	0.8346	0.699
Mof_O 	O 	0.3836	0.4307	0.66466	-0.755
Mof_O 	O 	0.4293	0.5224	0.64682	-0.762
Mof_O 	O 	0.3946	0.6046	0.7779	-0.383
Mof_O 	O 	0.6664	0.7304	0.8315	-0.765
Mof_O 	O 	0.5832	0.7931	0.85069	-0.783
Mof_O 	O 	0.4748	0.4006	0.61199	-1.033
Mof_H 	H 	0.77678	0.12597	0.14885	0.145
Mof_C 	C 	0.9059	0.9884	0.66731	0.754
Mof_C 	C 	0.9033	0.0194	0.6972	-0.562
Mof_C 	C 	0.8685	0.989	0.7195	0.587
Mof_H 	H 	0.8468	0.9487	0.7164	-0.161
Mof_C 	C 	0.9367	0.0797	0.7016	0.492
Mof_H 	H 	0.9589	0.101	0.6863	-0.127
Mof_C 	C 	0.866	0.0179	0.7464	-0.686
Mof_H 	H 	0.8409	0.9986	0.7613	0.304
Mof_C 	C 	0.9363	0.1073	0.7289	-0.61
Mof_H 	H 	0.9597	0.1466	0.7323	0.257
Mof_C 	C 	0.9019	0.0771	0.7508	0.591
Mof_C 	C 	0.9494	0.1401	0.7897	0.762
Mof_C 	C 	0.0145	0.1203	0.788	-0.838
Mof_H 	H 	0.0257	0.0832	0.7771	0.295
Mof_C 	C 	0.9315	0.1966	0.8047	-0.771
Mof_H 	H 	0.8858	0.2114	0.8049	0.314
Mof_C 	C 	0.0673	0.1554	0.8025	0.614
Mof_H 	H 	0.1132	0.1413	0.8016	-0.187
Mof_C 	C 	0.9817	0.2303	0.819	0.724
Mof_H 	H 	0.9698	0.2673	0.8298	-0.194
Mof_C 	C 	0.0494	0.2109	0.8178	-0.698
Mof_C 	C 	0.1046	0.2483	0.8346	0.781
Mof_O 	O 	0.8836	0.9307	0.66466	-0.766
Mof_O 	O 	0.9293	0.0224	0.64682	-0.74
Mof_O 	O 	0.8946	0.1046	0.7779	-0.484
Mof_O 	O 	0.1664	0.2304	0.8315	-0.791
Mof_O 	O 	0.0832	0.2931	0.85069	-0.822
Mof_O 	O 	0.9748	0.9006	0.61199	-0.931
Mof_H 	H 	0.27678	0.62597	0.14885	0.147
Mof_C 	C 	0.9059	0.4884	0.16731	0.647
Mof_C 	C 	0.9033	0.5194	0.1972	-0.372
Mof_C 	C 	0.8685	0.489	0.2195	0.329
Mof_H 	H 	0.8468	0.4487	0.2164	-0.076
Mof_C 	C 	0.9367	0.5797	0.2016	0.342
Mof_H 	H 	0.9589	0.601	0.1863	-0.075
Mof_C 	C 	0.866	0.5179	0.2464	-0.431
Mof_H 	H 	0.8409	0.4986	0.2613	0.196
Mof_C 	C 	0.9363	0.6073	0.2289	-0.464
Mof_H 	H 	0.9597	0.6466	0.2323	0.208
Mof_C 	C 	0.9019	0.5771	0.2508	0.456
Mof_C 	C 	0.9494	0.6401	0.2897	0.738
Mof_C 	C 	0.0145	0.6203	0.288	-0.811
Mof_H 	H 	0.0257	0.5832	0.2771	0.293
Mof_C 	C 	0.9315	0.6966	0.3047	-0.748
Mof_H 	H 	0.8858	0.7114	0.3049	0.308
Mof_C 	C 	0.0673	0.6554	0.3025	0.599
Mof_H 	H 	0.1132	0.6413	0.3016	-0.179
Mof_C 	C 	0.9817	0.7303	0.319	0.705
Mof_H 	H 	0.9698	0.7673	0.3298	-0.188
Mof_C 	C 	0.0494	0.7109	0.3178	-0.681
Mof_C 	C 	0.1046	0.7483	0.3346	0.778
Mof_O 	O 	0.8836	0.4307	0.16466	-0.742
Mof_O 	O 	0.9293	0.5224	0.14682	-0.708
Mof_O 	O 	0.8946	0.6046	0.2779	-0.441
Mof_O 	O 	0.1664	0.7304	0.3315	-0.788
Mof_O 	O 	0.0832	0.7931	0.35069	-0.82
Mof_O 	O 	0.9748	0.4006	0.11199	-0.949
Mof_H 	H 	0.27678	0.12597	0.64885	0.144
Mof_C 	C 	0.4059	0.5116	0.33269	0.653
Mof_C 	C 	0.4033	0.4806	0.3028	-0.379
Mof_C 	C 	0.3685	0.511	0.2805	0.317
Mof_H 	H 	0.3468	0.5513	0.2836	-0.076
Mof_C 	C 	0.4367	0.4203	0.2984	0.326
Mof_H 	H 	0.4589	0.399	0.3137	-0.088
Mof_C 	C 	0.366	0.4821	0.2536	-0.419
Mof_H 	H 	0.3409	0.5014	0.2387	0.187
Mof_C 	C 	0.4363	0.3927	0.2711	-0.447
Mof_H 	H 	0.4597	0.3534	0.2677	0.188
Mof_C 	C 	0.4019	0.4229	0.2492	0.419
Mof_C 	C 	0.4494	0.3599	0.2103	0.476
Mof_C 	C 	0.5145	0.3797	0.212	-0.499
Mof_H 	H 	0.5257	0.4168	0.2229	0.206
Mof_C 	C 	0.4315	0.3034	0.1953	-0.493
Mof_H 	H 	0.3858	0.2886	0.1951	0.215
Mof_C 	C 	0.5673	0.3446	0.1975	0.364
Mof_H 	H 	0.6132	0.3587	0.1984	-0.095
Mof_C 	C 	0.4817	0.2697	0.181	0.39
Mof_H 	H 	0.4698	0.2327	0.1702	-0.098
Mof_C 	C 	0.5494	0.2891	0.1822	-0.431
Mof_C 	C 	0.6046	0.2517	0.1654	0.696
Mof_O 	O 	0.3836	0.5693	0.33534	-0.755
Mof_O 	O 	0.4293	0.4776	0.35318	-0.763
Mof_O 	O 	0.3946	0.3954	0.2221	-0.382
Mof_O 	O 	0.6664	0.2696	0.1685	-0.766
Mof_O 	O 	0.5832	0.2069	0.14931	-0.781
Mof_O 	O 	0.4748	0.5994	0.38801	-1.033
Mof_H 	H 	0.77678	0.87403	0.85115	0.151
Mof_C 	C 	0.4059	0.0116	0.83269	0.52
Mof_C 	C 	0.4033	0.9806	0.8028	-0.16
Mof_C 	C 	0.3685	0.011	0.7805	0.026
Mof_H 	H 	0.3468	0.0513	0.7836	0.02
Mof_C 	C 	0.4367	0.9203	0.7984	0.154
Mof_H 	H 	0.4589	0.899	0.8137	-0.026
Mof_C 	C 	0.366	0.9821	0.7536	-0.133
Mof_H 	H 	0.3409	0.0014	0.7387	0.067
Mof_C 	C 	0.4363	0.8927	0.7711	-0.282
Mof_H 	H 	0.4597	0.8534	0.7677	0.133
Mof_C 	C 	0.4019	0.9229	0.7492	0.267
Mof_C 	C 	0.4494	0.8599	0.7103	0.458
Mof_C 	C 	0.5145	0.8797	0.712	-0.481
Mof_H 	H 	0.5257	0.9168	0.7229	0.207
Mof_C 	C 	0.4315	0.8034	0.6953	-0.477
Mof_H 	H 	0.3858	0.7886	0.6951	0.211
Mof_C 	C 	0.5673	0.8446	0.6975	0.356
Mof_H 	H 	0.6132	0.8587	0.6984	-0.09
Mof_C 	C 	0.4817	0.7697	0.681	0.382
Mof_H 	H 	0.4698	0.7327	0.6702	-0.095
Mof_C 	C 	0.5494	0.7891	0.6822	-0.422
Mof_C 	C 	0.6046	0.7517	0.6654	0.695
Mof_O 	O 	0.3836	0.0693	0.83534	-0.722
Mof_O 	O 	0.4293	0.9776	0.85318	-0.69
Mof_O 	O 	0.3946	0.8954	0.7221	-0.336
Mof_O 	O 	0.6664	0.7696	0.6685	-0.764
Mof_O 	O 	0.5832	0.7069	0.64931	-0.78
Mof_O 	O 	0.4748	0.0994	0.88801	-1.02
Mof_H 	H 	0.77678	0.37403	0.35115	0.148
Mof_C 	C 	0.9059	0.5116	0.83269	0.647
Mof_C 	C 	0.9033	0.4806	0.8028	-0.372
Mof_C 	C 	0.8685	0.511	0.7805	0.329
Mof_H 	H 	0.8468	0.5513	0.7836	-0.076
Mof_C 	C 	0.9367	0.4203	0.7984	0.342
Mof_H 	H 	0.9589	0.399	0.8137	-0.074
Mof_C 	C 	0.866	0.4821	0.7536	-0.431
Mof_H 	H 	0.8409	0.5014	0.7387	0.196
Mof_C 	C 	0.9363	0.3927	0.7711	-0.464
Mof_H 	H 	0.9597	0.3534	0.7677	0.208
Mof_C 	C 	0.9019	0.4229	0.7492	0.456
Mof_C 	C 	0.9494	0.3599	0.7103	0.743
Mof_C 	C 	0.0145	0.3797	0.712	-0.818
Mof_H 	H 	0.0257	0.4168	0.7229	0.295
Mof_C 	C 	0.9315	0.3034	0.6953	-0.754
Mof_H 	H 	0.8858	0.2886	0.6951	0.309
Mof_C 	C 	0.0673	0.3446	0.6975	0.603
Mof_H 	H 	0.1132	0.3587	0.6984	-0.181
Mof_C 	C 	0.9817	0.2697	0.681	0.711
Mof_H 	H 	0.9698	0.2327	0.6702	-0.189
Mof_C 	C 	0.0494	0.2891	0.6822	-0.687
Mof_C 	C 	0.1046	0.2517	0.6654	0.777
Mof_O 	O 	0.8836	0.5693	0.83534	-0.742
Mof_O 	O 	0.9293	0.4776	0.85318	-0.708
Mof_O 	O 	0.8946	0.3954	0.7221	-0.443
Mof_O 	O 	0.1664	0.2696	0.6685	-0.789
Mof_O 	O 	0.0832	0.2069	0.64931	-0.82
Mof_O 	O 	0.9748	0.5994	0.88801	-0.949
Mof_H 	H 	0.27678	0.87403	0.35115	0.15
Mof_C 	C 	0.9059	0.0116	0.33269	0.526
Mof_C 	C 	0.9033	0.9806	0.3028	-0.174
Mof_C 	C 	0.8685	0.011	0.2805	0.066
Mof_H 	H 	0.8468	0.0513	0.2836	0.011
Mof_C 	C 	0.9367	0.9203	0.2984	0.185
Mof_H 	H 	0.9589	0.899	0.3137	-0.019
Mof_C 	C 	0.866	0.9821	0.2536	-0.172
Mof_H 	H 	0.8409	0.0014	0.2387	0.087
Mof_C 	C 	0.9363	0.8927	0.2711	-0.313
Mof_H 	H 	0.9597	0.8534	0.2677	0.157
Mof_C 	C 	0.9019	0.9229	0.2492	0.317
Mof_C 	C 	0.9494	0.8599	0.2103	0.715
Mof_C 	C 	0.0145	0.8797	0.212	-0.788
Mof_H 	H 	0.0257	0.9168	0.2229	0.293
Mof_C 	C 	0.9315	0.8034	0.1953	-0.728
Mof_H 	H 	0.8858	0.7886	0.1951	0.301
Mof_C 	C 	0.0673	0.8446	0.1975	0.585
Mof_H 	H 	0.1132	0.8587	0.1984	-0.172
Mof_C 	C 	0.9817	0.7697	0.181	0.689
Mof_H 	H 	0.9698	0.7327	0.1702	-0.182
Mof_C 	C 	0.0494	0.7891	0.1822	-0.668
Mof_C 	C 	0.1046	0.7517	0.1654	0.773
Mof_O 	O 	0.8836	0.0693	0.33534	-0.712
Mof_O 	O 	0.9293	0.9776	0.35318	-0.642
Mof_O 	O 	0.8946	0.8954	0.2221	-0.398
Mof_O 	O 	0.1664	0.7696	0.1685	-0.787
Mof_O 	O 	0.0832	0.7069	0.14931	-0.818
Mof_O 	O 	0.9748	0.0994	0.38801	-0.934
Mof_H 	H 	0.27678	0.37403	0.85115	0.147
Mof_C 	C 	0.0941	0.9884	0.33269	0.761
Mof_C 	C 	0.0967	0.0194	0.3028	-0.589
Mof_C 	C 	0.1315	0.989	0.2805	0.591
Mof_H 	H 	0.1532	0.9487	0.2836	-0.17
Mof_C 	C 	0.0633	0.0797	0.2984	0.472
Mof_H 	H 	0.0411	0.101	0.3137	-0.155
Mof_C 	C 	0.134	0.0179	0.2536	-0.689
Mof_H 	H 	0.1591	0.9986	0.2387	0.299
Mof_C 	C 	0.0637	0.1073	0.2711	-0.588
Mof_H 	H 	0.0403	0.1466	0.2677	0.223
Mof_C 	C 	0.0981	0.0771	0.2492	0.53
Mof_C 	C 	0.0506	0.1401	0.2103	0.226
Mof_C 	C 	0.9855	0.1203	0.212	-0.195
Mof_H 	H 	0.9743	0.0832	0.2229	0.117
Mof_C 	C 	0.0685	0.1966	0.1953	-0.246
Mof_H 	H 	0.1142	0.2114	0.1951	0.127
Mof_C 	C 	0.9327	0.1554	0.1975	0.134
Mof_H 	H 	0.8868	0.1413	0.1984	-0.014
Mof_C 	C 	0.0183	0.2303	0.181	0.082
Mof_H 	H 	0.0302	0.2673	0.1702	-0.011
Mof_C 	C 	0.9506	0.2109	0.1822	-0.183
Mof_C 	C 	0.8954	0.2483	0.1654	0.619
Mof_O 	O 	0.1164	0.9307	0.33534	-0.782
Mof_O 	O 	0.0707	0.0224	0.35318	-0.783
Mof_O 	O 	0.1054	0.1046	0.2221	-0.367
Mof_O 	O 	0.8336	0.2304	0.1685	-0.744
Mof_O 	O 	0.9168	0.2931	0.14931	-0.744
Mof_O 	O 	0.0252	0.9006	0.38801	-1.024
Mof_H 	H 	0.72322	0.62597	0.85115	0.147
Mof_C 	C 	0.0941	0.4884	0.83269	0.634
Mof_C 	C 	0.0967	0.5194	0.8028	-0.37
Mof_C 	C 	0.1315	0.489	0.7805	0.294
Mof_H 	H 	0.1532	0.4487	0.7836	-0.072
Mof_C 	C 	0.0633	0.5797	0.7984	0.3
Mof_H 	H 	0.0411	0.601	0.8137	-0.094
Mof_C 	C 	0.134	0.5179	0.7536	-0.398
Mof_H 	H 	0.1591	0.4986	0.7387	0.176
Mof_C 	C 	0.0637	0.6073	0.7711	-0.422
Mof_H 	H 	0.0403	0.6466	0.7677	0.168
Mof_C 	C 	0.0981	0.5771	0.7492	0.377
Mof_C 	C 	0.0506	0.6401	0.7103	0.217
Mof_C 	C 	0.9855	0.6203	0.712	-0.189
Mof_H 	H 	0.9743	0.5832	0.7229	0.12
Mof_C 	C 	0.0685	0.6966	0.6953	-0.24
Mof_H 	H 	0.1142	0.7114	0.6951	0.126
Mof_C 	C 	0.9327	0.6554	0.6975	0.134
Mof_H 	H 	0.8868	0.6413	0.6984	-0.012
Mof_C 	C 	0.0183	0.7303	0.681	0.085
Mof_H 	H 	0.0302	0.7673	0.6702	-0.011
Mof_C 	C 	0.9506	0.7109	0.6822	-0.184
Mof_C 	C 	0.8954	0.7483	0.6654	0.621
Mof_O 	O 	0.1164	0.4307	0.83534	-0.755
Mof_O 	O 	0.0707	0.5224	0.85318	-0.743
Mof_O 	O 	0.1054	0.6046	0.7221	-0.322
Mof_O 	O 	0.8336	0.7304	0.6685	-0.743
Mof_O 	O 	0.9168	0.7931	0.64931	-0.746
Mof_O 	O 	0.0252	0.4006	0.88801	-1.047
Mof_H 	H 	0.72322	0.12597	0.35115	0.144
Mof_C 	C 	0.5941	0.9884	0.83269	0.771
Mof_C 	C 	0.5967	0.0194	0.8028	-0.581
Mof_C 	C 	0.6315	0.989	0.7805	0.591
Mof_H 	H 	0.6532	0.9487	0.7836	-0.166
Mof_C 	C 	0.5633	0.0797	0.7984	0.486
Mof_H 	H 	0.5411	0.101	0.8137	-0.144
Mof_C 	C 	0.634	0.0179	0.7536	-0.688
Mof_H 	H 	0.6591	0.9986	0.7387	0.301
Mof_C 	C 	0.5637	0.1073	0.7711	-0.602
Mof_H 	H 	0.5403	0.1466	0.7677	0.241
Mof_C 	C 	0.5981	0.0771	0.7492	0.562
Mof_C 	C 	0.5506	0.1401	0.7103	0.494
Mof_C 	C 	0.4855	0.1203	0.712	-0.517
Mof_H 	H 	0.4743	0.0832	0.7229	0.206
Mof_C 	C 	0.5685	0.1966	0.6953	-0.509
Mof_H 	H 	0.6142	0.2114	0.6951	0.221
Mof_C 	C 	0.4327	0.1554	0.6975	0.374
Mof_H 	H 	0.3868	0.1413	0.6984	-0.101
Mof_C 	C 	0.5183	0.2303	0.681	0.403
Mof_H 	H 	0.5302	0.2673	0.6702	-0.103
Mof_C 	C 	0.4506	0.2109	0.6822	-0.441
Mof_C 	C 	0.3954	0.2483	0.6654	0.7
Mof_O 	O 	0.6164	0.9307	0.83534	-0.78
Mof_O 	O 	0.5707	0.0224	0.85318	-0.798
Mof_O 	O 	0.6054	0.1046	0.7221	-0.426
Mof_O 	O 	0.3336	0.2304	0.6685	-0.768
Mof_O 	O 	0.4168	0.2931	0.64931	-0.782
Mof_O 	O 	0.5252	0.9006	0.88801	-1.014
Mof_H 	H 	0.22322	0.62597	0.35115	0.146
Mof_C 	C 	0.5941	0.4884	0.33269	0.654
Mof_C 	C 	0.5967	0.5194	0.3028	-0.379
Mof_C 	C 	0.6315	0.489	0.2805	0.318
Mof_H 	H 	0.6532	0.4487	0.2836	-0.076
Mof_C 	C 	0.5633	0.5797	0.2984	0.328
Mof_H 	H 	0.5411	0.601	0.3137	-0.087
Mof_C 	C 	0.634	0.5179	0.2536	-0.419
Mof_H 	H 	0.6591	0.4986	0.2387	0.187
Mof_C 	C 	0.5637	0.6073	0.2711	-0.448
Mof_H 	H 	0.5403	0.6466	0.2677	0.19
Mof_C 	C 	0.5981	0.5771	0.2492	0.42
Mof_C 	C 	0.5506	0.6401	0.2103	0.478
Mof_C 	C 	0.4855	0.6203	0.212	-0.501
Mof_H 	H 	0.4743	0.5832	0.2229	0.207
Mof_C 	C 	0.5685	0.6966	0.1953	-0.495
Mof_H 	H 	0.6142	0.7114	0.1951	0.217
Mof_C 	C 	0.4327	0.6554	0.1975	0.367
Mof_H 	H 	0.3868	0.6413	0.1984	-0.096
Mof_C 	C 	0.5183	0.7303	0.181	0.395
Mof_H 	H 	0.5302	0.7673	0.1702	-0.1
Mof_C 	C 	0.4506	0.7109	0.1822	-0.433
Mof_C 	C 	0.3954	0.7483	0.1654	0.7
Mof_O 	O 	0.6164	0.4307	0.33534	-0.755
Mof_O 	O 	0.5707	0.5224	0.35318	-0.762
Mof_O 	O 	0.6054	0.6046	0.2221	-0.383
Mof_O 	O 	0.3336	0.7304	0.1685	-0.766
Mof_O 	O 	0.4168	0.7931	0.14931	-0.783
Mof_O 	O 	0.5252	0.4006	0.38801	-1.034
Mof_H 	H 	0.22322	0.12597	0.85115	0.143
Mof_In	In	0.125	0.625	0.125	2.968
Mof_In	In	0.125	0.125	0.625	2.958
Mof_In	In	0.625	0.625	0.625	2.963
Mof_In	In	0.625	0.125	0.125	2.955
Mof_In	In	0.875	0.375	0.125	2.963
Mof_In	In	0.875	0.875	0.625	2.973
Mof_In	In	0.875	0.625	0.875	2.963
Mof_In	In	0.875	0.125	0.375	2.956
Mof_In	In	0.125	0.375	0.875	2.968
Mof_In	In	0.625	0.375	0.375	2.963
Mof_In	In	0.375	0.875	0.125	2.974
Mof_In	In	0.375	0.375	0.625	2.962
Mof_In	In	0.375	0.625	0.375	2.962
Mof_In	In	0.375	0.125	0.875	2.953
Mof_In	In	0.125	0.875	0.375	2.98
Mof_In	In	0.625	0.875	0.875	2.975
Mof_In	In	0.25	0.75	0.13843	2.868
Mof_In	In	0.25	0.25	0.63843	2.866
Mof_In	In	0.75	0.25	0.13843	2.857
Mof_In	In	0.75	0.75	0.63843	2.859
Mof_In	In	0.75	0.75	0.86157	2.859
Mof_In	In	0.75	0.25	0.36157	2.857
Mof_In	In	0.25	0.25	0.86157	2.866
Mof_In	In	0.25	0.75	0.36157	2.868
Mof_In	In	9.40691e-33	0.5	0.11157	2.633
Mof_In	In	5.49943e-33	0	0.61157	2.521
Mof_In	In	0.5	-2.80121e-33	0.11157	2.757
Mof_In	In	0.5	0.5	0.61157	2.863
Mof_In	In	0.5	0.5	0.38843	2.863
Mof_In	In	0.5	0	0.88843	2.756
Mof_In	In	3.49288e-33	1.12049e-32	0.38843	2.527
Mof_In	In	7.98904e-33	0.5	0.88843	2.634
_end
