data_functionalizedCrystal
_audit_creation_method	'EQeq! by Chris Wilmer'
_symmetry_space_group_name_H-M	'P1'
_symmetry_Int_Tables_number	1
_symmetry_cell_setting	triclinic
loop_
_symmetry_equiv_pos_as_xyz
  x,y,z
_cell_length_a	39.005
_cell_length_b	27.431
_cell_length_c	27.362
_cell_angle_alpha	90
_cell_angle_beta	133.84
_cell_angle_gamma	90
loop_
_atom_site_label
_atom_site_type_symbol
_atom_site_fract_x
_atom_site_fract_y
_atom_site_fract_z
_atom_site_charge
Mof_C 	C 	0.5974	0.3007	0.8228	0.407
Mof_C 	C 	0.5968	0.3344	0.8667	-0.145
Mof_C 	C 	0.6372	0.3567	0.9235	0.094
Mof_H 	H 	0.6663	0.3507	0.9373	0.018
Mof_C 	C 	0.6343	0.3879	0.9598	-0.167
Mof_H 	H 	0.6619	0.4023	0.9989	0.109
Mof_C 	C 	0.5913	0.3985	0.9394	0.131
Mof_C 	C 	0.5507	0.3759	0.8821	-0.173
Mof_H 	H 	0.5215	0.3827	0.8679	0.1
Mof_C 	C 	0.5528	0.3441	0.8466	0.089
Mof_H 	H 	0.5253	0.3285	0.8089	0.019
Mof_C 	C 	0.5887	0.4346	0.9776	-0.057
Mof_C 	C 	0.6108	0.4305	0.0383	0.121
Mof_C 	C 	0.6131	0.4679	0.0818	-0.074
Mof_H 	H 	0.6304	0.4627	0.1273	0.062
Mof_C 	C 	0.5882	0.5091	0.0493	-0.085
Mof_C 	C 	0.5524	0.5067	0.9782	0.178
Mof_C 	C 	0.5511	0.4739	0.9384	-0.127
Mof_H 	H 	0.529	0.476	0.8914	0.084
Mof_C 	C 	0.6326	0.6097	0.174	0.121
Mof_H 	H 	0.6619	0.6234	0.2108	0.007
Mof_C 	C 	0.6307	0.571	0.1394	-0.197
Mof_H 	H 	0.6587	0.5597	0.1529	0.107
Mof_C 	C 	0.5887	0.549	0.0862	0.153
Mof_C 	C 	0.5483	0.5672	0.0677	-0.195
Mof_H 	H 	0.5192	0.5536	0.0306	0.11
Mof_C 	C 	0.5494	0.6048	0.102	0.117
Mof_H 	H 	0.5216	0.6146	0.0901	0.002
Mof_C 	C 	0.5923	0.6281	0.1548	-0.182
Mof_C 	C 	0.5934	0.6716	0.1892	0.442
Mof_C 	C 	0.4742	0.5393	0.8581	0.292
Mof_H 	H 	0.4834	0.5417	0.8331	-0.056
Mof_H 	H 	0.4563	0.5095	0.8454	-0.056
Mof_C 	C 	0.4458	0.5843	0.8465	-0.757
Mof_H 	H 	0.4172	0.5867	0.7993	0.254
Mof_H 	H 	0.4647	0.6131	0.8604	0.264
Mof_H 	H 	0.4378	0.5812	0.8726	0.263
Mof_C 	C 	0.6063	0.1993	0.6737	0.425
Mof_C 	C 	0.6076	0.1656	0.6314	-0.165
Mof_C 	C 	0.5665	0.1514	0.5691	0.107
Mof_H 	H 	0.5375	0.1635	0.5512	0.011
Mof_C 	C 	0.5686	0.1194	0.5331	-0.171
Mof_H 	H 	0.5402	0.1094	0.4908	0.105
Mof_C 	C 	0.6109	0.1007	0.5564	0.124
Mof_C 	C 	0.6523	0.1175	0.6185	-0.174
Mof_H 	H 	0.6815	0.107	0.6354	0.096
Mof_C 	C 	0.651	0.1494	0.6556	0.1
Mof_H 	H 	0.6793	0.1604	0.6973	0.014
Mof_C 	C 	0.6097	0.0628	0.5175	-0.044
Mof_C 	C 	0.5848	0.0686	0.449	0.098
Mof_C 	C 	0.5856	0.0329	0.4151	-0.092
Mof_H 	H 	0.5674	0.0383	0.3693	0.068
Mof_C 	C 	0.6097	0.991	0.4408	-0.046
Mof_C 	C 	0.6343	0.9812	0.5102	0.12
Mof_C 	C 	0.6356	0.0219	0.5508	-0.083
Mof_H 	H 	0.6538	0.0183	0.5969	0.074
Mof_C 	C 	0.5652	0.8989	0.3064	0.089
Mof_H 	H 	0.5366	0.8901	0.2636	0.014
Mof_C 	C 	0.5657	0.9366	0.3408	-0.164
Mof_H 	H 	0.5375	0.952	0.3219	0.089
Mof_C 	C 	0.6091	0.951	0.4046	0.121
Mof_C 	C 	0.6494	0.9281	0.4301	-0.17
Mof_H 	H 	0.6784	0.9378	0.4718	0.106
Mof_C 	C 	0.6484	0.8902	0.3952	0.097
Mof_H 	H 	0.6767	0.8757	0.4134	0.012
Mof_C 	C 	0.6067	0.8743	0.3351	-0.164
Mof_C 	C 	0.6046	0.8299	0.3018	0.405
Mof_C 	C 	0.5417	0.1327	0.3501	-0.51
Mof_H 	H 	0.5689	0.1343	0.3553	0.187
Mof_H 	H 	0.5165	0.1144	0.3095	0.181
Mof_C 	C 	0.5291	0.171	0.3489	0.488
Mof_H 	H 	0.5196	0.1888	0.311	-0.122
Mof_H 	H 	0.5546	0.1879	0.3901	-0.099
Mof_H 	H 	0.5026	0.1682	0.3447	-0.101
Mof_C 	C 	0.4519	0.2626	0.5628	0.079
Mof_H 	H 	0.4684	0.2786	0.5545	0.002
Mof_C 	C 	0.4027	0.2626	0.5123	-0.092
Mof_H 	H 	0.3871	0.2775	0.4709	0.066
Mof_C 	C 	0.3777	0.2409	0.5232	-0.018
Mof_C 	C 	0.4029	0.2167	0.5834	-0.082
Mof_H 	H 	0.3869	0.1995	0.5918	0.065
Mof_C 	C 	0.4509	0.2178	0.6304	0.06
Mof_H 	H 	0.4674	0.2013	0.6711	0.012
Mof_C 	C 	0.2507	0.2489	0.358	0.208
Mof_H 	H 	0.2353	0.2548	0.3133	-0.041
Mof_C 	C 	0.2989	0.2471	0.4057	-0.301
Mof_H 	H 	0.3149	0.2501	0.3918	0.138
Mof_C 	C 	0.3239	0.2415	0.4699	0.255
Mof_C 	C 	0.2982	0.2304	0.48	-0.352
Mof_H 	H 	0.3125	0.2211	0.5233	0.16
Mof_C 	C 	0.2494	0.2315	0.4288	0.275
Mof_H 	H 	0.2331	0.2222	0.4408	-0.069
Mof_N 	N 	0.4759	0.2419	0.6205	-0.245
Mof_N 	N 	0.2254	0.2428	0.3714	-0.333
Mof_O 	O 	0.56	0.284	0.7699	-0.478
Mof_O 	O 	0.6388	0.2931	0.8467	-0.46
Mof_O 	O 	0.5556	0.6888	0.1652	-0.482
Mof_O 	O 	0.6339	0.6882	0.2391	-0.477
Mof_O 	O 	0.52	0.5419	0.9391	-0.259
Mof_O 	O 	0.6508	0.3986	0.0791	-0.188
Mof_O 	O 	0.5671	0.2123	0.6503	-0.476
Mof_O 	O 	0.6454	0.2109	0.7316	-0.464
Mof_O 	O 	0.564	0.8162	0.2472	-0.46
Mof_O 	O 	0.6429	0.8087	0.3308	-0.465
Mof_O 	O 	0.5547	0.111	0.4112	-0.117
Mof_O 	O 	0.6628	0.9406	0.5483	-0.183
Mof_Zn	Zn	0.54856	0.24694	0.69537	1.216
Mof_Zn	Zn	0.65287	0.25316	0.79921	1.217
Mof_C 	C 	0.0974	0.8007	0.8228	0.406
Mof_C 	C 	0.0968	0.8344	0.8667	-0.146
Mof_C 	C 	0.1372	0.8567	0.9235	0.092
Mof_H 	H 	0.1663	0.8507	0.9373	0.017
Mof_C 	C 	0.1343	0.8879	0.9598	-0.168
Mof_H 	H 	0.1619	0.9023	0.9989	0.108
Mof_C 	C 	0.0913	0.8985	0.9394	0.129
Mof_C 	C 	0.0507	0.8759	0.8821	-0.173
Mof_H 	H 	0.0215	0.8827	0.8679	0.099
Mof_C 	C 	0.0528	0.8441	0.8466	0.088
Mof_H 	H 	0.0253	0.8285	0.8089	0.018
Mof_C 	C 	0.0887	0.9346	0.9776	-0.057
Mof_C 	C 	0.1108	0.9305	0.0383	0.121
Mof_C 	C 	0.1131	0.9679	0.0818	-0.074
Mof_H 	H 	0.1304	0.9627	0.1273	0.062
Mof_C 	C 	0.0882	0.0091	0.0493	-0.085
Mof_C 	C 	0.0524	0.0067	0.9782	0.178
Mof_C 	C 	0.0511	0.9739	0.9384	-0.127
Mof_H 	H 	0.029	0.976	0.8914	0.084
Mof_C 	C 	0.1326	0.1097	0.174	0.121
Mof_H 	H 	0.1619	0.1234	0.2108	0.007
Mof_C 	C 	0.1307	0.071	0.1394	-0.198
Mof_H 	H 	0.1587	0.0597	0.1529	0.107
Mof_C 	C 	0.0887	0.049	0.0862	0.153
Mof_C 	C 	0.0483	0.0672	0.0677	-0.195
Mof_H 	H 	0.0192	0.0536	0.0306	0.11
Mof_C 	C 	0.0494	0.1048	0.102	0.117
Mof_H 	H 	0.0216	0.1146	0.0901	0.002
Mof_C 	C 	0.0923	0.1281	0.1548	-0.182
Mof_C 	C 	0.0934	0.1716	0.1892	0.442
Mof_C 	C 	0.9742	0.0393	0.8581	0.292
Mof_H 	H 	0.9834	0.0417	0.8331	-0.056
Mof_H 	H 	0.9563	0.0095	0.8454	-0.056
Mof_C 	C 	0.9458	0.0843	0.8465	-0.756
Mof_H 	H 	0.9172	0.0867	0.7993	0.253
Mof_H 	H 	0.9647	0.1131	0.8604	0.264
Mof_H 	H 	0.9378	0.0812	0.8726	0.263
Mof_C 	C 	0.1063	0.6993	0.6737	0.425
Mof_C 	C 	0.1076	0.6656	0.6314	-0.165
Mof_C 	C 	0.0665	0.6514	0.5691	0.107
Mof_H 	H 	0.0375	0.6635	0.5512	0.011
Mof_C 	C 	0.0686	0.6194	0.5331	-0.171
Mof_H 	H 	0.0402	0.6094	0.4908	0.104
Mof_C 	C 	0.1109	0.6007	0.5564	0.124
Mof_C 	C 	0.1523	0.6175	0.6185	-0.174
Mof_H 	H 	0.1815	0.607	0.6354	0.096
Mof_C 	C 	0.151	0.6494	0.6556	0.1
Mof_H 	H 	0.1793	0.6604	0.6973	0.014
Mof_C 	C 	0.1097	0.5628	0.5175	-0.044
Mof_C 	C 	0.0848	0.5686	0.449	0.098
Mof_C 	C 	0.0856	0.5329	0.4151	-0.092
Mof_H 	H 	0.0674	0.5383	0.3693	0.068
Mof_C 	C 	0.1097	0.491	0.4408	-0.046
Mof_C 	C 	0.1343	0.4812	0.5102	0.12
Mof_C 	C 	0.1356	0.5219	0.5508	-0.083
Mof_H 	H 	0.1538	0.5183	0.5969	0.074
Mof_C 	C 	0.0652	0.3989	0.3064	0.089
Mof_H 	H 	0.0366	0.3901	0.2636	0.014
Mof_C 	C 	0.0657	0.4366	0.3408	-0.164
Mof_H 	H 	0.0375	0.452	0.3219	0.089
Mof_C 	C 	0.1091	0.451	0.4046	0.121
Mof_C 	C 	0.1494	0.4281	0.4301	-0.17
Mof_H 	H 	0.1784	0.4378	0.4718	0.106
Mof_C 	C 	0.1484	0.3902	0.3952	0.097
Mof_H 	H 	0.1767	0.3757	0.4134	0.012
Mof_C 	C 	0.1067	0.3743	0.3351	-0.164
Mof_C 	C 	0.1046	0.3299	0.3018	0.405
Mof_C 	C 	0.0417	0.6327	0.3501	-0.51
Mof_H 	H 	0.0689	0.6343	0.3553	0.187
Mof_H 	H 	0.0165	0.6144	0.3095	0.181
Mof_C 	C 	0.0291	0.671	0.3489	0.488
Mof_H 	H 	0.0196	0.6888	0.311	-0.122
Mof_H 	H 	0.0546	0.6879	0.3901	-0.099
Mof_H 	H 	0.0026	0.6682	0.3447	-0.101
Mof_C 	C 	0.9519	0.7626	0.5628	0.079
Mof_H 	H 	0.9684	0.7786	0.5545	0.002
Mof_C 	C 	0.9027	0.7626	0.5123	-0.092
Mof_H 	H 	0.8871	0.7775	0.4709	0.066
Mof_C 	C 	0.8777	0.7409	0.5232	-0.018
Mof_C 	C 	0.9029	0.7167	0.5834	-0.082
Mof_H 	H 	0.8869	0.6995	0.5918	0.065
Mof_C 	C 	0.9509	0.7178	0.6304	0.06
Mof_H 	H 	0.9674	0.7013	0.6711	0.012
Mof_C 	C 	0.7507	0.7489	0.358	0.208
Mof_H 	H 	0.7353	0.7548	0.3133	-0.041
Mof_C 	C 	0.7989	0.7471	0.4057	-0.301
Mof_H 	H 	0.8149	0.7501	0.3918	0.138
Mof_C 	C 	0.8239	0.7415	0.4699	0.255
Mof_C 	C 	0.7982	0.7304	0.48	-0.352
Mof_H 	H 	0.8125	0.7211	0.5233	0.16
Mof_C 	C 	0.7494	0.7315	0.4288	0.275
Mof_H 	H 	0.7331	0.7222	0.4408	-0.069
Mof_N 	N 	0.9759	0.7419	0.6205	-0.245
Mof_N 	N 	0.7254	0.7428	0.3714	-0.333
Mof_O 	O 	0.06	0.784	0.7699	-0.478
Mof_O 	O 	0.1388	0.7931	0.8467	-0.46
Mof_O 	O 	0.0556	0.1888	0.1652	-0.482
Mof_O 	O 	0.1339	0.1882	0.2391	-0.477
Mof_O 	O 	0.02	0.0419	0.9391	-0.258
Mof_O 	O 	0.1508	0.8986	0.0791	-0.188
Mof_O 	O 	0.0671	0.7123	0.6503	-0.476
Mof_O 	O 	0.1454	0.7109	0.7316	-0.464
Mof_O 	O 	0.064	0.3162	0.2472	-0.46
Mof_O 	O 	0.1429	0.3087	0.3308	-0.465
Mof_O 	O 	0.0547	0.611	0.4112	-0.117
Mof_O 	O 	0.1628	0.4406	0.5483	-0.183
Mof_Zn	Zn	0.04856	0.74694	0.69537	1.216
Mof_Zn	Zn	0.15287	0.75316	0.79921	1.217
Mof_C 	C 	0.5974	0.6993	0.3228	0.406
Mof_C 	C 	0.5968	0.6656	0.3667	-0.146
Mof_C 	C 	0.6372	0.6433	0.4235	0.093
Mof_H 	H 	0.6663	0.6493	0.4373	0.017
Mof_C 	C 	0.6343	0.6121	0.4598	-0.168
Mof_H 	H 	0.6619	0.5977	0.4989	0.108
Mof_C 	C 	0.5913	0.6015	0.4394	0.13
Mof_C 	C 	0.5507	0.6241	0.3821	-0.174
Mof_H 	H 	0.5215	0.6173	0.3679	0.099
Mof_C 	C 	0.5528	0.6559	0.3466	0.088
Mof_H 	H 	0.5253	0.6715	0.3089	0.018
Mof_C 	C 	0.5887	0.5654	0.4776	-0.058
Mof_C 	C 	0.6108	0.5695	0.5383	0.121
Mof_C 	C 	0.6131	0.5321	0.5818	-0.074
Mof_H 	H 	0.6304	0.5373	0.6273	0.062
Mof_C 	C 	0.5882	0.4909	0.5493	-0.085
Mof_C 	C 	0.5524	0.4933	0.4782	0.178
Mof_C 	C 	0.5511	0.5261	0.4384	-0.127
Mof_H 	H 	0.529	0.524	0.3914	0.084
Mof_C 	C 	0.6326	0.3903	0.674	0.121
Mof_H 	H 	0.6619	0.3766	0.7108	0.007
Mof_C 	C 	0.6307	0.429	0.6394	-0.197
Mof_H 	H 	0.6587	0.4403	0.6529	0.107
Mof_C 	C 	0.5887	0.451	0.5862	0.153
Mof_C 	C 	0.5483	0.4328	0.5677	-0.195
Mof_H 	H 	0.5192	0.4464	0.5306	0.11
Mof_C 	C 	0.5494	0.3952	0.602	0.117
Mof_H 	H 	0.5216	0.3854	0.5901	0.002
Mof_C 	C 	0.5923	0.3719	0.6548	-0.182
Mof_C 	C 	0.5934	0.3284	0.6892	0.442
Mof_C 	C 	0.4742	0.4607	0.3581	0.292
Mof_H 	H 	0.4834	0.4583	0.3331	-0.056
Mof_H 	H 	0.4563	0.4905	0.3454	-0.056
Mof_C 	C 	0.4458	0.4157	0.3465	-0.757
Mof_H 	H 	0.4172	0.4133	0.2993	0.254
Mof_H 	H 	0.4647	0.3869	0.3604	0.264
Mof_H 	H 	0.4378	0.4188	0.3726	0.263
Mof_C 	C 	0.6063	0.8007	0.1737	0.425
Mof_C 	C 	0.6076	0.8344	0.1314	-0.165
Mof_C 	C 	0.5665	0.8486	0.0691	0.107
Mof_H 	H 	0.5375	0.8365	0.0512	0.011
Mof_C 	C 	0.5686	0.8806	0.0331	-0.171
Mof_H 	H 	0.5402	0.8906	0.9908	0.105
Mof_C 	C 	0.6109	0.8993	0.0564	0.124
Mof_C 	C 	0.6523	0.8825	0.1185	-0.174
Mof_H 	H 	0.6815	0.893	0.1354	0.096
Mof_C 	C 	0.651	0.8506	0.1556	0.1
Mof_H 	H 	0.6793	0.8396	0.1973	0.014
Mof_C 	C 	0.6097	0.9372	0.0175	-0.044
Mof_C 	C 	0.5848	0.9314	0.949	0.098
Mof_C 	C 	0.5856	0.9671	0.9151	-0.092
Mof_H 	H 	0.5674	0.9617	0.8693	0.068
Mof_C 	C 	0.6097	0.009	0.9408	-0.046
Mof_C 	C 	0.6343	0.0188	0.0102	0.12
Mof_C 	C 	0.6356	0.9781	0.0508	-0.083
Mof_H 	H 	0.6538	0.9817	0.0969	0.074
Mof_C 	C 	0.5652	0.1011	0.8064	0.089
Mof_H 	H 	0.5366	0.1099	0.7636	0.014
Mof_C 	C 	0.5657	0.0634	0.8408	-0.164
Mof_H 	H 	0.5375	0.048	0.8219	0.089
Mof_C 	C 	0.6091	0.049	0.9046	0.121
Mof_C 	C 	0.6494	0.0719	0.9301	-0.17
Mof_H 	H 	0.6784	0.0622	0.9718	0.106
Mof_C 	C 	0.6484	0.1098	0.8952	0.097
Mof_H 	H 	0.6767	0.1243	0.9134	0.012
Mof_C 	C 	0.6067	0.1257	0.8351	-0.164
Mof_C 	C 	0.6046	0.1701	0.8018	0.405
Mof_C 	C 	0.5417	0.8673	0.8501	-0.51
Mof_H 	H 	0.5689	0.8657	0.8553	0.187
Mof_H 	H 	0.5165	0.8856	0.8095	0.181
Mof_C 	C 	0.5291	0.829	0.8489	0.488
Mof_H 	H 	0.5196	0.8112	0.811	-0.122
Mof_H 	H 	0.5546	0.8121	0.8901	-0.099
Mof_H 	H 	0.5026	0.8318	0.8447	-0.101
Mof_C 	C 	0.4519	0.7374	0.0628	0.079
Mof_H 	H 	0.4684	0.7214	0.0545	0.002
Mof_C 	C 	0.4027	0.7374	0.0123	-0.092
Mof_H 	H 	0.3871	0.7225	0.9709	0.066
Mof_C 	C 	0.3777	0.7591	0.0232	-0.018
Mof_C 	C 	0.4029	0.7833	0.0834	-0.082
Mof_H 	H 	0.3869	0.8005	0.0918	0.065
Mof_C 	C 	0.4509	0.7822	0.1304	0.061
Mof_H 	H 	0.4674	0.7987	0.1711	0.012
Mof_C 	C 	0.2507	0.7511	0.858	0.208
Mof_H 	H 	0.2353	0.7452	0.8133	-0.041
Mof_C 	C 	0.2989	0.7529	0.9057	-0.301
Mof_H 	H 	0.3149	0.7499	0.8918	0.138
Mof_C 	C 	0.3239	0.7585	0.9699	0.254
Mof_C 	C 	0.2982	0.7696	0.98	-0.352
Mof_H 	H 	0.3125	0.7789	0.0233	0.16
Mof_C 	C 	0.2494	0.7685	0.9288	0.275
Mof_H 	H 	0.2331	0.7778	0.9408	-0.069
Mof_N 	N 	0.4759	0.7581	0.1205	-0.245
Mof_N 	N 	0.2254	0.7572	0.8714	-0.333
Mof_O 	O 	0.56	0.716	0.2699	-0.478
Mof_O 	O 	0.6388	0.7069	0.3467	-0.46
Mof_O 	O 	0.5556	0.3112	0.6652	-0.482
Mof_O 	O 	0.6339	0.3118	0.7391	-0.477
Mof_O 	O 	0.52	0.4581	0.4391	-0.259
Mof_O 	O 	0.6508	0.6014	0.5791	-0.188
Mof_O 	O 	0.5671	0.7877	0.1503	-0.476
Mof_O 	O 	0.6454	0.7891	0.2316	-0.464
Mof_O 	O 	0.564	0.1838	0.7472	-0.46
Mof_O 	O 	0.6429	0.1913	0.8308	-0.465
Mof_O 	O 	0.5547	0.889	0.9112	-0.117
Mof_O 	O 	0.6628	0.0594	0.0483	-0.183
Mof_Zn	Zn	0.54856	0.75306	0.19537	1.216
Mof_Zn	Zn	0.65287	0.74684	0.29921	1.217
Mof_C 	C 	0.0974	0.1993	0.3228	0.406
Mof_C 	C 	0.0968	0.1656	0.3667	-0.146
Mof_C 	C 	0.1372	0.1433	0.4235	0.093
Mof_H 	H 	0.1663	0.1493	0.4373	0.017
Mof_C 	C 	0.1343	0.1121	0.4598	-0.168
Mof_H 	H 	0.1619	0.0977	0.4989	0.108
Mof_C 	C 	0.0913	0.1015	0.4394	0.13
Mof_C 	C 	0.0507	0.1241	0.3821	-0.174
Mof_H 	H 	0.0215	0.1173	0.3679	0.099
Mof_C 	C 	0.0528	0.1559	0.3466	0.088
Mof_H 	H 	0.0253	0.1715	0.3089	0.018
Mof_C 	C 	0.0887	0.0654	0.4776	-0.058
Mof_C 	C 	0.1108	0.0695	0.5383	0.121
Mof_C 	C 	0.1131	0.0321	0.5818	-0.074
Mof_H 	H 	0.1304	0.0373	0.6273	0.062
Mof_C 	C 	0.0882	0.9909	0.5493	-0.085
Mof_C 	C 	0.0524	0.9933	0.4782	0.178
Mof_C 	C 	0.0511	0.0261	0.4384	-0.127
Mof_H 	H 	0.029	0.024	0.3914	0.084
Mof_C 	C 	0.1326	0.8903	0.674	0.121
Mof_H 	H 	0.1619	0.8766	0.7108	0.007
Mof_C 	C 	0.1307	0.929	0.6394	-0.197
Mof_H 	H 	0.1587	0.9403	0.6529	0.107
Mof_C 	C 	0.0887	0.951	0.5862	0.153
Mof_C 	C 	0.0483	0.9328	0.5677	-0.195
Mof_H 	H 	0.0192	0.9464	0.5306	0.11
Mof_C 	C 	0.0494	0.8952	0.602	0.117
Mof_H 	H 	0.0216	0.8854	0.5901	0.003
Mof_C 	C 	0.0923	0.8719	0.6548	-0.182
Mof_C 	C 	0.0934	0.8284	0.6892	0.442
Mof_C 	C 	0.9742	0.9607	0.3581	0.292
Mof_H 	H 	0.9834	0.9583	0.3331	-0.056
Mof_H 	H 	0.9563	0.9905	0.3454	-0.056
Mof_C 	C 	0.9458	0.9157	0.3465	-0.757
Mof_H 	H 	0.9172	0.9133	0.2993	0.254
Mof_H 	H 	0.9647	0.8869	0.3604	0.264
Mof_H 	H 	0.9378	0.9188	0.3726	0.263
Mof_C 	C 	0.1063	0.3007	0.1737	0.425
Mof_C 	C 	0.1076	0.3344	0.1314	-0.165
Mof_C 	C 	0.0665	0.3486	0.0691	0.107
Mof_H 	H 	0.0375	0.3365	0.0512	0.011
Mof_C 	C 	0.0686	0.3806	0.0331	-0.172
Mof_H 	H 	0.0402	0.3906	0.9908	0.105
Mof_C 	C 	0.1109	0.3993	0.0564	0.124
Mof_C 	C 	0.1523	0.3825	0.1185	-0.174
Mof_H 	H 	0.1815	0.393	0.1354	0.096
Mof_C 	C 	0.151	0.3506	0.1556	0.101
Mof_H 	H 	0.1793	0.3396	0.1973	0.014
Mof_C 	C 	0.1097	0.4372	0.0175	-0.045
Mof_C 	C 	0.0848	0.4314	0.949	0.099
Mof_C 	C 	0.0856	0.4671	0.9151	-0.092
Mof_H 	H 	0.0674	0.4617	0.8693	0.068
Mof_C 	C 	0.1097	0.509	0.9408	-0.045
Mof_C 	C 	0.1343	0.5188	0.0102	0.119
Mof_C 	C 	0.1356	0.4781	0.0508	-0.083
Mof_H 	H 	0.1538	0.4817	0.0969	0.074
Mof_C 	C 	0.0652	0.6011	0.8064	0.089
Mof_H 	H 	0.0366	0.6099	0.7636	0.014
Mof_C 	C 	0.0657	0.5634	0.8408	-0.164
Mof_H 	H 	0.0375	0.548	0.8219	0.089
Mof_C 	C 	0.1091	0.549	0.9046	0.121
Mof_C 	C 	0.1494	0.5719	0.9301	-0.17
Mof_H 	H 	0.1784	0.5622	0.9718	0.106
Mof_C 	C 	0.1484	0.6098	0.8952	0.097
Mof_H 	H 	0.1767	0.6243	0.9134	0.012
Mof_C 	C 	0.1067	0.6257	0.8351	-0.164
Mof_C 	C 	0.1046	0.6701	0.8018	0.405
Mof_C 	C 	0.0417	0.3673	0.8501	-0.51
Mof_H 	H 	0.0689	0.3657	0.8553	0.187
Mof_H 	H 	0.0165	0.3856	0.8095	0.181
Mof_C 	C 	0.0291	0.329	0.8489	0.488
Mof_H 	H 	0.0196	0.3112	0.811	-0.122
Mof_H 	H 	0.0546	0.3121	0.8901	-0.099
Mof_H 	H 	0.0026	0.3318	0.8447	-0.101
Mof_C 	C 	0.9519	0.2374	0.0628	0.079
Mof_H 	H 	0.9684	0.2214	0.0545	0.002
Mof_C 	C 	0.9027	0.2374	0.0123	-0.091
Mof_H 	H 	0.8871	0.2225	0.9709	0.066
Mof_C 	C 	0.8777	0.2591	0.0232	-0.018
Mof_C 	C 	0.9029	0.2833	0.0834	-0.082
Mof_H 	H 	0.8869	0.3005	0.0918	0.065
Mof_C 	C 	0.9509	0.2822	0.1304	0.06
Mof_H 	H 	0.9674	0.2987	0.1711	0.012
Mof_C 	C 	0.7507	0.2511	0.858	0.208
Mof_H 	H 	0.7353	0.2452	0.8133	-0.041
Mof_C 	C 	0.7989	0.2529	0.9057	-0.301
Mof_H 	H 	0.8149	0.2499	0.8918	0.138
Mof_C 	C 	0.8239	0.2585	0.9699	0.255
Mof_C 	C 	0.7982	0.2696	0.98	-0.353
Mof_H 	H 	0.8125	0.2789	0.0233	0.16
Mof_C 	C 	0.7494	0.2685	0.9288	0.276
Mof_H 	H 	0.7331	0.2778	0.9408	-0.069
Mof_N 	N 	0.9759	0.2581	0.1205	-0.245
Mof_N 	N 	0.7254	0.2572	0.8714	-0.333
Mof_O 	O 	0.06	0.216	0.2699	-0.478
Mof_O 	O 	0.1388	0.2069	0.3467	-0.46
Mof_O 	O 	0.0556	0.8112	0.6652	-0.482
Mof_O 	O 	0.1339	0.8118	0.7391	-0.477
Mof_O 	O 	0.02	0.9581	0.4391	-0.259
Mof_O 	O 	0.1508	0.1014	0.5791	-0.188
Mof_O 	O 	0.0671	0.2877	0.1503	-0.476
Mof_O 	O 	0.1454	0.2891	0.2316	-0.464
Mof_O 	O 	0.064	0.6838	0.7472	-0.46
Mof_O 	O 	0.1429	0.6913	0.8308	-0.464
Mof_O 	O 	0.0547	0.389	0.9112	-0.117
Mof_O 	O 	0.1628	0.5594	0.0483	-0.183
Mof_Zn	Zn	0.04856	0.25306	0.19537	1.216
Mof_Zn	Zn	0.15287	0.24684	0.29921	1.217
Mof_C 	C 	0.4026	0.3007	0.6772	0.406
Mof_C 	C 	0.4032	0.3344	0.6333	-0.146
Mof_C 	C 	0.3628	0.3567	0.5765	0.093
Mof_H 	H 	0.3337	0.3507	0.5627	0.017
Mof_C 	C 	0.3657	0.3879	0.5402	-0.168
Mof_H 	H 	0.3381	0.4023	0.5011	0.108
Mof_C 	C 	0.4087	0.3985	0.5606	0.13
Mof_C 	C 	0.4493	0.3759	0.6179	-0.174
Mof_H 	H 	0.4785	0.3827	0.6321	0.099
Mof_C 	C 	0.4472	0.3441	0.6534	0.088
Mof_H 	H 	0.4747	0.3285	0.6911	0.018
Mof_C 	C 	0.4113	0.4346	0.5224	-0.058
Mof_C 	C 	0.3892	0.4305	0.4617	0.121
Mof_C 	C 	0.3869	0.4679	0.4182	-0.074
Mof_H 	H 	0.3696	0.4627	0.3727	0.062
Mof_C 	C 	0.4118	0.5091	0.4507	-0.085
Mof_C 	C 	0.4476	0.5067	0.5218	0.178
Mof_C 	C 	0.4489	0.4739	0.5616	-0.127
Mof_H 	H 	0.471	0.476	0.6086	0.084
Mof_C 	C 	0.3674	0.6097	0.326	0.121
Mof_H 	H 	0.3381	0.6234	0.2892	0.007
Mof_C 	C 	0.3693	0.571	0.3606	-0.197
Mof_H 	H 	0.3413	0.5597	0.3471	0.107
Mof_C 	C 	0.4113	0.549	0.4138	0.153
Mof_C 	C 	0.4517	0.5672	0.4323	-0.195
Mof_H 	H 	0.4808	0.5536	0.4694	0.11
Mof_C 	C 	0.4506	0.6048	0.398	0.117
Mof_H 	H 	0.4784	0.6146	0.4099	0.002
Mof_C 	C 	0.4077	0.6281	0.3452	-0.182
Mof_C 	C 	0.4066	0.6716	0.3108	0.442
Mof_C 	C 	0.5258	0.5393	0.6419	0.292
Mof_H 	H 	0.5166	0.5417	0.6669	-0.056
Mof_H 	H 	0.5437	0.5095	0.6546	-0.056
Mof_C 	C 	0.5542	0.5843	0.6535	-0.757
Mof_H 	H 	0.5828	0.5867	0.7007	0.254
Mof_H 	H 	0.5353	0.6131	0.6396	0.264
Mof_H 	H 	0.5622	0.5812	0.6274	0.263
Mof_C 	C 	0.3937	0.1993	0.8263	0.425
Mof_C 	C 	0.3924	0.1656	0.8686	-0.165
Mof_C 	C 	0.4335	0.1514	0.9309	0.107
Mof_H 	H 	0.4625	0.1635	0.9488	0.011
Mof_C 	C 	0.4314	0.1194	0.9669	-0.171
Mof_H 	H 	0.4598	0.1094	0.0092	0.105
Mof_C 	C 	0.3891	0.1007	0.9436	0.124
Mof_C 	C 	0.3477	0.1175	0.8815	-0.174
Mof_H 	H 	0.3185	0.107	0.8646	0.096
Mof_C 	C 	0.349	0.1494	0.8444	0.1
Mof_H 	H 	0.3207	0.1604	0.8027	0.014
Mof_C 	C 	0.3903	0.0628	0.9825	-0.044
Mof_C 	C 	0.4152	0.0686	0.051	0.098
Mof_C 	C 	0.4144	0.0329	0.0849	-0.092
Mof_H 	H 	0.4326	0.0383	0.1307	0.068
Mof_C 	C 	0.3903	0.991	0.0592	-0.046
Mof_C 	C 	0.3657	0.9812	0.9898	0.12
Mof_C 	C 	0.3644	0.0219	0.9492	-0.083
Mof_H 	H 	0.3462	0.0183	0.9031	0.074
Mof_C 	C 	0.4348	0.8989	0.1936	0.089
Mof_H 	H 	0.4634	0.8901	0.2364	0.014
Mof_C 	C 	0.4343	0.9366	0.1592	-0.164
Mof_H 	H 	0.4625	0.952	0.1781	0.089
Mof_C 	C 	0.3909	0.951	0.0954	0.121
Mof_C 	C 	0.3506	0.9281	0.0699	-0.17
Mof_H 	H 	0.3216	0.9378	0.0282	0.106
Mof_C 	C 	0.3516	0.8902	0.1048	0.097
Mof_H 	H 	0.3233	0.8757	0.0866	0.012
Mof_C 	C 	0.3933	0.8743	0.1649	-0.164
Mof_C 	C 	0.3954	0.8299	0.1982	0.405
Mof_C 	C 	0.4583	0.1327	0.1499	-0.51
Mof_H 	H 	0.4311	0.1343	0.1447	0.187
Mof_H 	H 	0.4835	0.1144	0.1905	0.181
Mof_C 	C 	0.4709	0.171	0.1511	0.488
Mof_H 	H 	0.4804	0.1888	0.189	-0.122
Mof_H 	H 	0.4454	0.1879	0.1099	-0.099
Mof_H 	H 	0.4974	0.1682	0.1553	-0.101
Mof_C 	C 	0.5481	0.2626	0.9372	0.079
Mof_H 	H 	0.5316	0.2786	0.9455	0.002
Mof_C 	C 	0.5973	0.2626	0.9877	-0.092
Mof_H 	H 	0.6129	0.2775	0.0291	0.066
Mof_C 	C 	0.6223	0.2409	0.9768	-0.018
Mof_C 	C 	0.5971	0.2167	0.9166	-0.082
Mof_H 	H 	0.6131	0.1995	0.9082	0.065
Mof_C 	C 	0.5491	0.2178	0.8696	0.061
Mof_H 	H 	0.5326	0.2013	0.8289	0.012
Mof_C 	C 	0.7493	0.2489	0.142	0.208
Mof_H 	H 	0.7647	0.2548	0.1867	-0.041
Mof_C 	C 	0.7011	0.2471	0.0943	-0.301
Mof_H 	H 	0.6851	0.2501	0.1082	0.138
Mof_C 	C 	0.6761	0.2415	0.0301	0.254
Mof_C 	C 	0.7018	0.2304	0.02	-0.352
Mof_H 	H 	0.6875	0.2211	0.9767	0.16
Mof_C 	C 	0.7506	0.2315	0.0712	0.275
Mof_H 	H 	0.7669	0.2222	0.0592	-0.069
Mof_N 	N 	0.5241	0.2419	0.8795	-0.245
Mof_N 	N 	0.7746	0.2428	0.1286	-0.333
Mof_O 	O 	0.44	0.284	0.7301	-0.478
Mof_O 	O 	0.3612	0.2931	0.6533	-0.46
Mof_O 	O 	0.4444	0.6888	0.3348	-0.482
Mof_O 	O 	0.3661	0.6882	0.2609	-0.477
Mof_O 	O 	0.48	0.5419	0.5609	-0.259
Mof_O 	O 	0.3492	0.3986	0.4209	-0.188
Mof_O 	O 	0.4329	0.2123	0.8497	-0.476
Mof_O 	O 	0.3546	0.2109	0.7684	-0.464
Mof_O 	O 	0.436	0.8162	0.2528	-0.46
Mof_O 	O 	0.3571	0.8087	0.1692	-0.465
Mof_O 	O 	0.4453	0.111	0.0888	-0.117
Mof_O 	O 	0.3372	0.9406	0.9517	-0.183
Mof_Zn	Zn	0.45144	0.24694	0.80463	1.216
Mof_Zn	Zn	0.34713	0.25316	0.70079	1.217
Mof_C 	C 	0.9026	0.8007	0.6772	0.406
Mof_C 	C 	0.9032	0.8344	0.6333	-0.146
Mof_C 	C 	0.8628	0.8567	0.5765	0.093
Mof_H 	H 	0.8337	0.8507	0.5627	0.017
Mof_C 	C 	0.8657	0.8879	0.5402	-0.168
Mof_H 	H 	0.8381	0.9023	0.5011	0.108
Mof_C 	C 	0.9087	0.8985	0.5606	0.13
Mof_C 	C 	0.9493	0.8759	0.6179	-0.174
Mof_H 	H 	0.9785	0.8827	0.6321	0.099
Mof_C 	C 	0.9472	0.8441	0.6534	0.088
Mof_H 	H 	0.9747	0.8285	0.6911	0.018
Mof_C 	C 	0.9113	0.9346	0.5224	-0.058
Mof_C 	C 	0.8892	0.9305	0.4617	0.121
Mof_C 	C 	0.8869	0.9679	0.4182	-0.074
Mof_H 	H 	0.8696	0.9627	0.3727	0.062
Mof_C 	C 	0.9118	0.0091	0.4507	-0.085
Mof_C 	C 	0.9476	0.0067	0.5218	0.178
Mof_C 	C 	0.9489	0.9739	0.5616	-0.127
Mof_H 	H 	0.971	0.976	0.6086	0.084
Mof_C 	C 	0.8674	0.1097	0.326	0.121
Mof_H 	H 	0.8381	0.1234	0.2892	0.007
Mof_C 	C 	0.8693	0.071	0.3606	-0.197
Mof_H 	H 	0.8413	0.0597	0.3471	0.107
Mof_C 	C 	0.9113	0.049	0.4138	0.153
Mof_C 	C 	0.9517	0.0672	0.4323	-0.195
Mof_H 	H 	0.9808	0.0536	0.4694	0.11
Mof_C 	C 	0.9506	0.1048	0.398	0.117
Mof_H 	H 	0.9784	0.1146	0.4099	0.003
Mof_C 	C 	0.9077	0.1281	0.3452	-0.182
Mof_C 	C 	0.9066	0.1716	0.3108	0.442
Mof_C 	C 	0.0258	0.0393	0.6419	0.292
Mof_H 	H 	0.0166	0.0417	0.6669	-0.056
Mof_H 	H 	0.0437	0.0095	0.6546	-0.056
Mof_C 	C 	0.0542	0.0843	0.6535	-0.757
Mof_H 	H 	0.0828	0.0867	0.7007	0.254
Mof_H 	H 	0.0353	0.1131	0.6396	0.264
Mof_H 	H 	0.0622	0.0812	0.6274	0.263
Mof_C 	C 	0.8937	0.6993	0.8263	0.425
Mof_C 	C 	0.8924	0.6656	0.8686	-0.165
Mof_C 	C 	0.9335	0.6514	0.9309	0.107
Mof_H 	H 	0.9625	0.6635	0.9488	0.011
Mof_C 	C 	0.9314	0.6194	0.9669	-0.172
Mof_H 	H 	0.9598	0.6094	0.0092	0.105
Mof_C 	C 	0.8891	0.6007	0.9436	0.124
Mof_C 	C 	0.8477	0.6175	0.8815	-0.174
Mof_H 	H 	0.8185	0.607	0.8646	0.096
Mof_C 	C 	0.849	0.6494	0.8444	0.101
Mof_H 	H 	0.8207	0.6604	0.8027	0.014
Mof_C 	C 	0.8903	0.5628	0.9825	-0.045
Mof_C 	C 	0.9152	0.5686	0.051	0.099
Mof_C 	C 	0.9144	0.5329	0.0849	-0.092
Mof_H 	H 	0.9326	0.5383	0.1307	0.068
Mof_C 	C 	0.8903	0.491	0.0592	-0.045
Mof_C 	C 	0.8657	0.4812	0.9898	0.119
Mof_C 	C 	0.8644	0.5219	0.9492	-0.083
Mof_H 	H 	0.8462	0.5183	0.9031	0.074
Mof_C 	C 	0.9348	0.3989	0.1936	0.089
Mof_H 	H 	0.9634	0.3901	0.2364	0.014
Mof_C 	C 	0.9343	0.4366	0.1592	-0.164
Mof_H 	H 	0.9625	0.452	0.1781	0.089
Mof_C 	C 	0.8909	0.451	0.0954	0.121
Mof_C 	C 	0.8506	0.4281	0.0699	-0.17
Mof_H 	H 	0.8216	0.4378	0.0282	0.106
Mof_C 	C 	0.8516	0.3902	0.1048	0.097
Mof_H 	H 	0.8233	0.3757	0.0866	0.012
Mof_C 	C 	0.8933	0.3743	0.1649	-0.164
Mof_C 	C 	0.8954	0.3299	0.1982	0.405
Mof_C 	C 	0.9583	0.6327	0.1499	-0.51
Mof_H 	H 	0.9311	0.6343	0.1447	0.187
Mof_H 	H 	0.9835	0.6144	0.1905	0.181
Mof_C 	C 	0.9709	0.671	0.1511	0.488
Mof_H 	H 	0.9804	0.6888	0.189	-0.122
Mof_H 	H 	0.9454	0.6879	0.1099	-0.099
Mof_H 	H 	0.9974	0.6682	0.1553	-0.101
Mof_C 	C 	0.0481	0.7626	0.9372	0.079
Mof_H 	H 	0.0316	0.7786	0.9455	0.002
Mof_C 	C 	0.0973	0.7626	0.9877	-0.091
Mof_H 	H 	0.1129	0.7775	0.0291	0.066
Mof_C 	C 	0.1223	0.7409	0.9768	-0.018
Mof_C 	C 	0.0971	0.7167	0.9166	-0.082
Mof_H 	H 	0.1131	0.6995	0.9082	0.065
Mof_C 	C 	0.0491	0.7178	0.8696	0.06
Mof_H 	H 	0.0326	0.7013	0.8289	0.012
Mof_C 	C 	0.2493	0.7489	0.142	0.208
Mof_H 	H 	0.2647	0.7548	0.1867	-0.041
Mof_C 	C 	0.2011	0.7471	0.0943	-0.301
Mof_H 	H 	0.1851	0.7501	0.1082	0.138
Mof_C 	C 	0.1761	0.7415	0.0301	0.255
Mof_C 	C 	0.2018	0.7304	0.02	-0.353
Mof_H 	H 	0.1875	0.7211	0.9767	0.16
Mof_C 	C 	0.2506	0.7315	0.0712	0.276
Mof_H 	H 	0.2669	0.7222	0.0592	-0.069
Mof_N 	N 	0.0241	0.7419	0.8795	-0.245
Mof_N 	N 	0.2746	0.7428	0.1286	-0.333
Mof_O 	O 	0.94	0.784	0.7301	-0.478
Mof_O 	O 	0.8612	0.7931	0.6533	-0.46
Mof_O 	O 	0.9444	0.1888	0.3348	-0.482
Mof_O 	O 	0.8661	0.1882	0.2609	-0.477
Mof_O 	O 	0.98	0.0419	0.5609	-0.259
Mof_O 	O 	0.8492	0.8986	0.4209	-0.188
Mof_O 	O 	0.9329	0.7123	0.8497	-0.476
Mof_O 	O 	0.8546	0.7109	0.7684	-0.464
Mof_O 	O 	0.936	0.3162	0.2528	-0.46
Mof_O 	O 	0.8571	0.3087	0.1692	-0.464
Mof_O 	O 	0.9453	0.611	0.0888	-0.117
Mof_O 	O 	0.8372	0.4406	0.9517	-0.183
Mof_Zn	Zn	0.95144	0.74694	0.80463	1.216
Mof_Zn	Zn	0.84713	0.75316	0.70079	1.217
Mof_C 	C 	0.4026	0.6993	0.1772	0.406
Mof_C 	C 	0.4032	0.6656	0.1333	-0.146
Mof_C 	C 	0.3628	0.6433	0.0765	0.093
Mof_H 	H 	0.3337	0.6493	0.0627	0.017
Mof_C 	C 	0.3657	0.6121	0.0402	-0.168
Mof_H 	H 	0.3381	0.5977	0.0011	0.108
Mof_C 	C 	0.4087	0.6015	0.0606	0.13
Mof_C 	C 	0.4493	0.6241	0.1179	-0.174
Mof_H 	H 	0.4785	0.6173	0.1321	0.099
Mof_C 	C 	0.4472	0.6559	0.1534	0.088
Mof_H 	H 	0.4747	0.6715	0.1911	0.018
Mof_C 	C 	0.4113	0.5654	0.0224	-0.058
Mof_C 	C 	0.3892	0.5695	0.9617	0.121
Mof_C 	C 	0.3869	0.5321	0.9182	-0.074
Mof_H 	H 	0.3696	0.5373	0.8727	0.062
Mof_C 	C 	0.4118	0.4909	0.9507	-0.085
Mof_C 	C 	0.4476	0.4933	0.0218	0.178
Mof_C 	C 	0.4489	0.5261	0.0616	-0.127
Mof_H 	H 	0.471	0.524	0.1086	0.084
Mof_C 	C 	0.3674	0.3903	0.826	0.121
Mof_H 	H 	0.3381	0.3766	0.7892	0.007
Mof_C 	C 	0.3693	0.429	0.8606	-0.197
Mof_H 	H 	0.3413	0.4403	0.8471	0.107
Mof_C 	C 	0.4113	0.451	0.9138	0.153
Mof_C 	C 	0.4517	0.4328	0.9323	-0.195
Mof_H 	H 	0.4808	0.4464	0.9694	0.11
Mof_C 	C 	0.4506	0.3952	0.898	0.117
Mof_H 	H 	0.4784	0.3854	0.9099	0.002
Mof_C 	C 	0.4077	0.3719	0.8452	-0.182
Mof_C 	C 	0.4066	0.3284	0.8108	0.442
Mof_C 	C 	0.5258	0.4607	0.1419	0.292
Mof_H 	H 	0.5166	0.4583	0.1669	-0.056
Mof_H 	H 	0.5437	0.4905	0.1546	-0.056
Mof_C 	C 	0.5542	0.4157	0.1535	-0.757
Mof_H 	H 	0.5828	0.4133	0.2007	0.254
Mof_H 	H 	0.5353	0.3869	0.1396	0.264
Mof_H 	H 	0.5622	0.4188	0.1274	0.263
Mof_C 	C 	0.3937	0.8007	0.3263	0.425
Mof_C 	C 	0.3924	0.8344	0.3686	-0.165
Mof_C 	C 	0.4335	0.8486	0.4309	0.107
Mof_H 	H 	0.4625	0.8365	0.4488	0.011
Mof_C 	C 	0.4314	0.8806	0.4669	-0.171
Mof_H 	H 	0.4598	0.8906	0.5092	0.105
Mof_C 	C 	0.3891	0.8993	0.4436	0.124
Mof_C 	C 	0.3477	0.8825	0.3815	-0.174
Mof_H 	H 	0.3185	0.893	0.3646	0.096
Mof_C 	C 	0.349	0.8506	0.3444	0.1
Mof_H 	H 	0.3207	0.8396	0.3027	0.014
Mof_C 	C 	0.3903	0.9372	0.4825	-0.044
Mof_C 	C 	0.4152	0.9314	0.551	0.098
Mof_C 	C 	0.4144	0.9671	0.5849	-0.092
Mof_H 	H 	0.4326	0.9617	0.6307	0.068
Mof_C 	C 	0.3903	0.009	0.5592	-0.046
Mof_C 	C 	0.3657	0.0188	0.4898	0.12
Mof_C 	C 	0.3644	0.9781	0.4492	-0.083
Mof_H 	H 	0.3462	0.9817	0.4031	0.074
Mof_C 	C 	0.4348	0.1011	0.6936	0.089
Mof_H 	H 	0.4634	0.1099	0.7364	0.014
Mof_C 	C 	0.4343	0.0634	0.6592	-0.164
Mof_H 	H 	0.4625	0.048	0.6781	0.089
Mof_C 	C 	0.3909	0.049	0.5954	0.121
Mof_C 	C 	0.3506	0.0719	0.5699	-0.17
Mof_H 	H 	0.3216	0.0622	0.5282	0.106
Mof_C 	C 	0.3516	0.1098	0.6048	0.097
Mof_H 	H 	0.3233	0.1243	0.5866	0.012
Mof_C 	C 	0.3933	0.1257	0.6649	-0.164
Mof_C 	C 	0.3954	0.1701	0.6982	0.405
Mof_C 	C 	0.4583	0.8673	0.6499	-0.51
Mof_H 	H 	0.4311	0.8657	0.6447	0.187
Mof_H 	H 	0.4835	0.8856	0.6905	0.181
Mof_C 	C 	0.4709	0.829	0.6511	0.488
Mof_H 	H 	0.4804	0.8112	0.689	-0.122
Mof_H 	H 	0.4454	0.8121	0.6099	-0.099
Mof_H 	H 	0.4974	0.8318	0.6553	-0.101
Mof_C 	C 	0.5481	0.7374	0.4372	0.079
Mof_H 	H 	0.5316	0.7214	0.4455	0.002
Mof_C 	C 	0.5973	0.7374	0.4877	-0.092
Mof_H 	H 	0.6129	0.7225	0.5291	0.066
Mof_C 	C 	0.6223	0.7591	0.4768	-0.018
Mof_C 	C 	0.5971	0.7833	0.4166	-0.082
Mof_H 	H 	0.6131	0.8005	0.4082	0.065
Mof_C 	C 	0.5491	0.7822	0.3696	0.06
Mof_H 	H 	0.5326	0.7987	0.3289	0.012
Mof_C 	C 	0.7493	0.7511	0.642	0.208
Mof_H 	H 	0.7647	0.7452	0.6867	-0.041
Mof_C 	C 	0.7011	0.7529	0.5943	-0.301
Mof_H 	H 	0.6851	0.7499	0.6082	0.138
Mof_C 	C 	0.6761	0.7585	0.5301	0.255
Mof_C 	C 	0.7018	0.7696	0.52	-0.352
Mof_H 	H 	0.6875	0.7789	0.4767	0.16
Mof_C 	C 	0.7506	0.7685	0.5712	0.275
Mof_H 	H 	0.7669	0.7778	0.5592	-0.069
Mof_N 	N 	0.5241	0.7581	0.3795	-0.245
Mof_N 	N 	0.7746	0.7572	0.6286	-0.333
Mof_O 	O 	0.44	0.716	0.2301	-0.478
Mof_O 	O 	0.3612	0.7069	0.1533	-0.46
Mof_O 	O 	0.4444	0.3112	0.8348	-0.482
Mof_O 	O 	0.3661	0.3118	0.7609	-0.477
Mof_O 	O 	0.48	0.4581	0.0609	-0.259
Mof_O 	O 	0.3492	0.6014	0.9209	-0.188
Mof_O 	O 	0.4329	0.7877	0.3497	-0.476
Mof_O 	O 	0.3546	0.7891	0.2684	-0.464
Mof_O 	O 	0.436	0.1838	0.7528	-0.46
Mof_O 	O 	0.3571	0.1913	0.6692	-0.465
Mof_O 	O 	0.4453	0.889	0.5888	-0.117
Mof_O 	O 	0.3372	0.0594	0.4517	-0.183
Mof_Zn	Zn	0.45144	0.75306	0.30463	1.216
Mof_Zn	Zn	0.34713	0.74684	0.20079	1.217
Mof_C 	C 	0.9026	0.1993	0.1772	0.406
Mof_C 	C 	0.9032	0.1656	0.1333	-0.146
Mof_C 	C 	0.8628	0.1433	0.0765	0.092
Mof_H 	H 	0.8337	0.1493	0.0627	0.017
Mof_C 	C 	0.8657	0.1121	0.0402	-0.168
Mof_H 	H 	0.8381	0.0977	0.0011	0.108
Mof_C 	C 	0.9087	0.1015	0.0606	0.129
Mof_C 	C 	0.9493	0.1241	0.1179	-0.173
Mof_H 	H 	0.9785	0.1173	0.1321	0.099
Mof_C 	C 	0.9472	0.1559	0.1534	0.088
Mof_H 	H 	0.9747	0.1715	0.1911	0.018
Mof_C 	C 	0.9113	0.0654	0.0224	-0.057
Mof_C 	C 	0.8892	0.0695	0.9617	0.121
Mof_C 	C 	0.8869	0.0321	0.9182	-0.074
Mof_H 	H 	0.8696	0.0373	0.8727	0.062
Mof_C 	C 	0.9118	0.9909	0.9507	-0.085
Mof_C 	C 	0.9476	0.9933	0.0218	0.178
Mof_C 	C 	0.9489	0.0261	0.0616	-0.127
Mof_H 	H 	0.971	0.024	0.1086	0.084
Mof_C 	C 	0.8674	0.8903	0.826	0.121
Mof_H 	H 	0.8381	0.8766	0.7892	0.007
Mof_C 	C 	0.8693	0.929	0.8606	-0.198
Mof_H 	H 	0.8413	0.9403	0.8471	0.107
Mof_C 	C 	0.9113	0.951	0.9138	0.153
Mof_C 	C 	0.9517	0.9328	0.9323	-0.195
Mof_H 	H 	0.9808	0.9464	0.9694	0.11
Mof_C 	C 	0.9506	0.8952	0.898	0.117
Mof_H 	H 	0.9784	0.8854	0.9099	0.002
Mof_C 	C 	0.9077	0.8719	0.8452	-0.182
Mof_C 	C 	0.9066	0.8284	0.8108	0.442
Mof_C 	C 	0.0258	0.9607	0.1419	0.292
Mof_H 	H 	0.0166	0.9583	0.1669	-0.056
Mof_H 	H 	0.0437	0.9905	0.1546	-0.056
Mof_C 	C 	0.0542	0.9157	0.1535	-0.756
Mof_H 	H 	0.0828	0.9133	0.2007	0.253
Mof_H 	H 	0.0353	0.8869	0.1396	0.264
Mof_H 	H 	0.0622	0.9188	0.1274	0.263
Mof_C 	C 	0.8937	0.3007	0.3263	0.425
Mof_C 	C 	0.8924	0.3344	0.3686	-0.165
Mof_C 	C 	0.9335	0.3486	0.4309	0.107
Mof_H 	H 	0.9625	0.3365	0.4488	0.011
Mof_C 	C 	0.9314	0.3806	0.4669	-0.171
Mof_H 	H 	0.9598	0.3906	0.5092	0.104
Mof_C 	C 	0.8891	0.3993	0.4436	0.124
Mof_C 	C 	0.8477	0.3825	0.3815	-0.174
Mof_H 	H 	0.8185	0.393	0.3646	0.096
Mof_C 	C 	0.849	0.3506	0.3444	0.1
Mof_H 	H 	0.8207	0.3396	0.3027	0.014
Mof_C 	C 	0.8903	0.4372	0.4825	-0.044
Mof_C 	C 	0.9152	0.4314	0.551	0.098
Mof_C 	C 	0.9144	0.4671	0.5849	-0.092
Mof_H 	H 	0.9326	0.4617	0.6307	0.068
Mof_C 	C 	0.8903	0.509	0.5592	-0.046
Mof_C 	C 	0.8657	0.5188	0.4898	0.12
Mof_C 	C 	0.8644	0.4781	0.4492	-0.083
Mof_H 	H 	0.8462	0.4817	0.4031	0.074
Mof_C 	C 	0.9348	0.6011	0.6936	0.089
Mof_H 	H 	0.9634	0.6099	0.7364	0.014
Mof_C 	C 	0.9343	0.5634	0.6592	-0.164
Mof_H 	H 	0.9625	0.548	0.6781	0.089
Mof_C 	C 	0.8909	0.549	0.5954	0.121
Mof_C 	C 	0.8506	0.5719	0.5699	-0.17
Mof_H 	H 	0.8216	0.5622	0.5282	0.106
Mof_C 	C 	0.8516	0.6098	0.6048	0.097
Mof_H 	H 	0.8233	0.6243	0.5866	0.012
Mof_C 	C 	0.8933	0.6257	0.6649	-0.164
Mof_C 	C 	0.8954	0.6701	0.6982	0.405
Mof_C 	C 	0.9583	0.3673	0.6499	-0.51
Mof_H 	H 	0.9311	0.3657	0.6447	0.187
Mof_H 	H 	0.9835	0.3856	0.6905	0.181
Mof_C 	C 	0.9709	0.329	0.6511	0.488
Mof_H 	H 	0.9804	0.3112	0.689	-0.122
Mof_H 	H 	0.9454	0.3121	0.6099	-0.099
Mof_H 	H 	0.9974	0.3318	0.6553	-0.101
Mof_C 	C 	0.0481	0.2374	0.4372	0.079
Mof_H 	H 	0.0316	0.2214	0.4455	0.002
Mof_C 	C 	0.0973	0.2374	0.4877	-0.092
Mof_H 	H 	0.1129	0.2225	0.5291	0.066
Mof_C 	C 	0.1223	0.2591	0.4768	-0.018
Mof_C 	C 	0.0971	0.2833	0.4166	-0.082
Mof_H 	H 	0.1131	0.3005	0.4082	0.065
Mof_C 	C 	0.0491	0.2822	0.3696	0.06
Mof_H 	H 	0.0326	0.2987	0.3289	0.012
Mof_C 	C 	0.2493	0.2511	0.642	0.208
Mof_H 	H 	0.2647	0.2452	0.6867	-0.041
Mof_C 	C 	0.2011	0.2529	0.5943	-0.301
Mof_H 	H 	0.1851	0.2499	0.6082	0.138
Mof_C 	C 	0.1761	0.2585	0.5301	0.255
Mof_C 	C 	0.2018	0.2696	0.52	-0.352
Mof_H 	H 	0.1875	0.2789	0.4767	0.16
Mof_C 	C 	0.2506	0.2685	0.5712	0.275
Mof_H 	H 	0.2669	0.2778	0.5592	-0.069
Mof_N 	N 	0.0241	0.2581	0.3795	-0.245
Mof_N 	N 	0.2746	0.2572	0.6286	-0.333
Mof_O 	O 	0.94	0.216	0.2301	-0.478
Mof_O 	O 	0.8612	0.2069	0.1533	-0.46
Mof_O 	O 	0.9444	0.8112	0.8348	-0.482
Mof_O 	O 	0.8661	0.8118	0.7609	-0.477
Mof_O 	O 	0.98	0.9581	0.0609	-0.258
Mof_O 	O 	0.8492	0.1014	0.9209	-0.188
Mof_O 	O 	0.9329	0.2877	0.3497	-0.476
Mof_O 	O 	0.8546	0.2891	0.2684	-0.464
Mof_O 	O 	0.936	0.6838	0.7528	-0.46
Mof_O 	O 	0.8571	0.6913	0.6692	-0.465
Mof_O 	O 	0.9453	0.389	0.5888	-0.117
Mof_O 	O 	0.8372	0.5594	0.4517	-0.183
Mof_Zn	Zn	0.95144	0.25306	0.30463	1.216
Mof_Zn	Zn	0.84713	0.24684	0.20079	1.217
_end
