data_functionalizedCrystal
_audit_creation_method	'EQeq! by Chris Wilmer'
_symmetry_space_group_name_H-M	'P1'
_symmetry_Int_Tables_number	1
_symmetry_cell_setting	triclinic
loop_
_symmetry_equiv_pos_as_xyz
  x,y,z
_cell_length_a	12.034
_cell_length_b	19.803
_cell_length_c	16.389
_cell_angle_alpha	90
_cell_angle_beta	90
_cell_angle_gamma	90
loop_
_atom_site_label
_atom_site_type_symbol
_atom_site_fract_x
_atom_site_fract_y
_atom_site_fract_z
_atom_site_charge
Mof_Zn	Zn	0.58278	0.33164	0.96941	1.193
Mof_Zn	Zn	0.91722	0.16836	0.96941	1.192
Mof_Zn	Zn	0.08278	0.66836	0.53059	1.193
Mof_Zn	Zn	0.41722	0.83164	0.53059	1.193
Mof_Zn	Zn	0.41722	0.66836	0.03059	1.193
Mof_Zn	Zn	0.08278	0.83164	0.03059	1.192
Mof_Zn	Zn	0.91722	0.33164	0.46941	1.193
Mof_Zn	Zn	0.58278	0.16836	0.46941	1.193
Mof_H 	H 	0.3737	0.3261	0.8728	-0.033
Mof_H 	H 	0.2093	0.3864	0.856	0.118
Mof_H 	H 	0.3033	0.5141	0.0325	0.117
Mof_H 	H 	0.4656	0.4528	0.0506	-0.028
Mof_H 	H 	0.1241	0.4945	0.8764	0.142
Mof_H 	H 	0.1515	0.5368	0.9533	0.171
Mof_H 	H 	0.9778	0.4876	0.9223	0.028
Mof_H 	H 	0.905	0.4025	0.8687	0.078
Mof_H 	H 	0.8643	0.2878	0.8728	0.01
Mof_H 	H 	0.1	0.382	0.0682	0.084
Mof_H 	H 	0.0589	0.2669	0.0703	-0.017
Mof_H 	H 	0.8011	0.3581	0.7381	0.101
Mof_H 	H 	0.6035	0.3509	0.6448	0.117
Mof_H 	H 	0.1263	0.1739	0.8728	-0.031
Mof_H 	H 	0.2907	0.1136	0.856	0.116
Mof_H 	H 	0.1967	0.9859	0.0325	0.107
Mof_H 	H 	0.0344	0.0472	0.0506	-0.024
Mof_H 	H 	0.3759	0.0055	0.8764	0.14
Mof_H 	H 	0.3485	0.9632	0.9533	0.172
Mof_H 	H 	0.5222	0.0124	0.9223	0.031
Mof_H 	H 	0.595	0.0975	0.8687	0.074
Mof_H 	H 	0.6357	0.2122	0.8728	0.012
Mof_H 	H 	0.4	0.118	0.0682	0.08
Mof_H 	H 	0.4411	0.2331	0.0703	-0.015
Mof_H 	H 	0.6989	0.1419	0.7381	0.101
Mof_H 	H 	0.8965	0.1491	0.6448	0.116
Mof_H 	H 	0.8737	0.6739	0.6272	-0.033
Mof_H 	H 	0.7093	0.6136	0.644	0.117
Mof_H 	H 	0.8033	0.4859	0.4675	0.116
Mof_H 	H 	0.9656	0.5472	0.4494	-0.027
Mof_H 	H 	0.6241	0.5055	0.6236	0.14
Mof_H 	H 	0.6515	0.4632	0.5467	0.17
Mof_H 	H 	0.4778	0.5124	0.5777	0.031
Mof_H 	H 	0.405	0.5975	0.6313	0.075
Mof_H 	H 	0.3643	0.7122	0.6272	0.011
Mof_H 	H 	0.6	0.618	0.4318	0.081
Mof_H 	H 	0.5589	0.7331	0.4297	-0.015
Mof_H 	H 	0.3011	0.6419	0.7619	0.101
Mof_H 	H 	0.1035	0.6491	0.8552	0.118
Mof_H 	H 	0.6263	0.8261	0.6272	-0.033
Mof_H 	H 	0.7907	0.8864	0.644	0.117
Mof_H 	H 	0.6967	0.0141	0.4675	0.115
Mof_H 	H 	0.5344	0.9528	0.4494	-0.027
Mof_H 	H 	0.8759	0.9945	0.6236	0.14
Mof_H 	H 	0.8485	0.0368	0.5467	0.167
Mof_H 	H 	0.0222	0.9876	0.5777	0.03
Mof_H 	H 	0.095	0.9025	0.6313	0.076
Mof_H 	H 	0.1357	0.7878	0.6272	0.011
Mof_H 	H 	0.9	0.882	0.4318	0.082
Mof_H 	H 	0.9411	0.7669	0.4297	-0.015
Mof_H 	H 	0.1989	0.8581	0.7619	0.101
Mof_H 	H 	0.3965	0.8509	0.8552	0.117
Mof_H 	H 	0.6263	0.6739	0.1272	-0.033
Mof_H 	H 	0.7907	0.6136	0.144	0.118
Mof_H 	H 	0.6967	0.4859	0.9675	0.117
Mof_H 	H 	0.5344	0.5472	0.9494	-0.028
Mof_H 	H 	0.8759	0.5055	0.1236	0.142
Mof_H 	H 	0.8485	0.4632	0.0467	0.171
Mof_H 	H 	0.0222	0.5124	0.0777	0.028
Mof_H 	H 	0.095	0.5975	0.1313	0.078
Mof_H 	H 	0.1357	0.7122	0.1272	0.01
Mof_H 	H 	0.9	0.618	0.9318	0.084
Mof_H 	H 	0.9411	0.7331	0.9297	-0.017
Mof_H 	H 	0.1989	0.6419	0.2619	0.101
Mof_H 	H 	0.3965	0.6491	0.3552	0.117
Mof_H 	H 	0.8737	0.8261	0.1272	-0.031
Mof_H 	H 	0.7093	0.8864	0.144	0.116
Mof_H 	H 	0.8033	0.0141	0.9675	0.107
Mof_H 	H 	0.9656	0.9528	0.9494	-0.024
Mof_H 	H 	0.6241	0.9945	0.1236	0.14
Mof_H 	H 	0.6515	0.0368	0.0467	0.172
Mof_H 	H 	0.4778	0.9876	0.0777	0.031
Mof_H 	H 	0.405	0.9025	0.1313	0.074
Mof_H 	H 	0.3643	0.7878	0.1272	0.012
Mof_H 	H 	0.6	0.882	0.9318	0.08
Mof_H 	H 	0.5589	0.7669	0.9297	-0.015
Mof_H 	H 	0.3011	0.8581	0.2619	0.101
Mof_H 	H 	0.1035	0.8509	0.3552	0.116
Mof_H 	H 	0.1263	0.3261	0.3728	-0.033
Mof_H 	H 	0.2907	0.3864	0.356	0.117
Mof_H 	H 	0.1967	0.5141	0.5325	0.116
Mof_H 	H 	0.0344	0.4528	0.5506	-0.027
Mof_H 	H 	0.3759	0.4945	0.3764	0.14
Mof_H 	H 	0.3485	0.5368	0.4533	0.17
Mof_H 	H 	0.5222	0.4876	0.4223	0.031
Mof_H 	H 	0.595	0.4025	0.3687	0.075
Mof_H 	H 	0.6357	0.2878	0.3728	0.011
Mof_H 	H 	0.4	0.382	0.5682	0.081
Mof_H 	H 	0.4411	0.2669	0.5703	-0.015
Mof_H 	H 	0.6989	0.3581	0.2381	0.101
Mof_H 	H 	0.8965	0.3509	0.1448	0.118
Mof_H 	H 	0.3737	0.1739	0.3728	-0.033
Mof_H 	H 	0.2093	0.1136	0.356	0.117
Mof_H 	H 	0.3033	0.9859	0.5325	0.115
Mof_H 	H 	0.4656	0.0472	0.5506	-0.027
Mof_H 	H 	0.1241	0.0055	0.3764	0.14
Mof_H 	H 	0.1515	0.9632	0.4533	0.167
Mof_H 	H 	0.9778	0.0124	0.4223	0.03
Mof_H 	H 	0.905	0.0975	0.3687	0.076
Mof_H 	H 	0.8643	0.2122	0.3728	0.011
Mof_H 	H 	0.1	0.118	0.5682	0.082
Mof_H 	H 	0.0589	0.2331	0.5703	-0.015
Mof_H 	H 	0.8011	0.1419	0.2381	0.101
Mof_H 	H 	0.6035	0.1491	0.1448	0.117
Mof_C 	C 	0.3596	0.36388	0.9048	0.118
Mof_C 	C 	0.2607	0.3999	0.8952	-0.243
Mof_C 	C 	0.2387	0.45559	0.9437	0.25
Mof_C 	C 	0.3166	0.476	0.0008	-0.254
Mof_C 	C 	0.4148	0.4397	0.0109	0.122
Mof_C 	C 	0.1358	0.4912	0.9348	-0.355
Mof_C 	C 	0.0232	0.4749	0.9695	0.012
Mof_C 	C 	0.0025	0.4033	0.9688	0.082
Mof_C 	C 	0.9348	0.3754	0.9096	-0.116
Mof_C 	C 	0.9114	0.3068	0.9115	0.045
Mof_C 	C 	0.0525	0.3632	0.0297	-0.143
Mof_C 	C 	0.0282	0.2943	0.0302	0.073
Mof_C 	C 	0.6551	0.3683	0.7994	0.399
Mof_C 	C 	0.7245	0.3604	0.731	-0.14
Mof_C 	C 	0.6798	0.3559	0.6517	-0.21
Mof_C 	C 	0.7476	0.3589	0.5848	0.44
Mof_C 	C 	0.1404	0.13612	0.9048	0.115
Mof_C 	C 	0.2393	0.1001	0.8952	-0.237
Mof_C 	C 	0.2613	0.04441	0.9437	0.239
Mof_C 	C 	0.1834	0.024	0.0008	-0.234
Mof_C 	C 	0.0852	0.0603	0.0109	0.112
Mof_C 	C 	0.3642	0.0088	0.9348	-0.353
Mof_C 	C 	0.4768	0.0251	0.9695	0.01
Mof_C 	C 	0.4975	0.0967	0.9688	0.068
Mof_C 	C 	0.5652	0.1246	0.9096	-0.104
Mof_C 	C 	0.5886	0.1932	0.9115	0.039
Mof_C 	C 	0.4475	0.1368	0.0297	-0.129
Mof_C 	C 	0.4718	0.2057	0.0302	0.067
Mof_C 	C 	0.8449	0.1317	0.7994	0.4
Mof_C 	C 	0.7755	0.1396	0.731	-0.141
Mof_C 	C 	0.8202	0.1441	0.6517	-0.21
Mof_C 	C 	0.7524	0.1411	0.5848	0.439
Mof_C 	C 	0.8596	0.63612	0.5952	0.117
Mof_C 	C 	0.7607	0.6001	0.6048	-0.241
Mof_C 	C 	0.7387	0.54441	0.5563	0.246
Mof_C 	C 	0.8166	0.524	0.4992	-0.25
Mof_C 	C 	0.9148	0.5603	0.4891	0.119
Mof_C 	C 	0.6358	0.5088	0.5652	-0.352
Mof_C 	C 	0.5232	0.5251	0.5305	0.009
Mof_C 	C 	0.5025	0.5967	0.5312	0.072
Mof_C 	C 	0.4348	0.6246	0.5904	-0.105
Mof_C 	C 	0.4114	0.6932	0.5885	0.041
Mof_C 	C 	0.5525	0.6368	0.4703	-0.133
Mof_C 	C 	0.5282	0.7057	0.4698	0.067
Mof_C 	C 	0.1551	0.6317	0.7006	0.399
Mof_C 	C 	0.2245	0.6396	0.769	-0.14
Mof_C 	C 	0.1798	0.6441	0.8483	-0.21
Mof_C 	C 	0.2476	0.6411	0.9152	0.44
Mof_C 	C 	0.6404	0.86388	0.5952	0.116
Mof_C 	C 	0.7393	0.8999	0.6048	-0.239
Mof_C 	C 	0.7613	0.95559	0.5563	0.244
Mof_C 	C 	0.6834	0.976	0.4992	-0.247
Mof_C 	C 	0.5852	0.9397	0.4891	0.118
Mof_C 	C 	0.8642	0.9912	0.5652	-0.348
Mof_C 	C 	0.9768	0.9749	0.5305	0.01
Mof_C 	C 	0.9975	0.9033	0.5312	0.074
Mof_C 	C 	0.0652	0.8754	0.5904	-0.108
Mof_C 	C 	0.0886	0.8068	0.5885	0.042
Mof_C 	C 	0.9475	0.8632	0.4703	-0.134
Mof_C 	C 	0.9718	0.7943	0.4698	0.069
Mof_C 	C 	0.3449	0.8683	0.7006	0.399
Mof_C 	C 	0.2755	0.8604	0.769	-0.14
Mof_C 	C 	0.3202	0.8559	0.8483	-0.209
Mof_C 	C 	0.2524	0.8589	0.9152	0.439
Mof_C 	C 	0.6404	0.63612	0.0952	0.118
Mof_C 	C 	0.7393	0.6001	0.1048	-0.243
Mof_C 	C 	0.7613	0.54441	0.0563	0.25
Mof_C 	C 	0.6834	0.524	0.9992	-0.254
Mof_C 	C 	0.5852	0.5603	0.9891	0.122
Mof_C 	C 	0.8642	0.5088	0.0652	-0.355
Mof_C 	C 	0.9768	0.5251	0.0305	0.012
Mof_C 	C 	0.9975	0.5967	0.0312	0.082
Mof_C 	C 	0.0652	0.6246	0.0904	-0.116
Mof_C 	C 	0.0886	0.6932	0.0885	0.045
Mof_C 	C 	0.9475	0.6368	0.9703	-0.143
Mof_C 	C 	0.9718	0.7057	0.9698	0.073
Mof_C 	C 	0.3449	0.6317	0.2006	0.399
Mof_C 	C 	0.2755	0.6396	0.269	-0.14
Mof_C 	C 	0.3202	0.6441	0.3483	-0.21
Mof_C 	C 	0.2524	0.6411	0.4152	0.44
Mof_C 	C 	0.8596	0.86388	0.0952	0.115
Mof_C 	C 	0.7607	0.8999	0.1048	-0.237
Mof_C 	C 	0.7387	0.95559	0.0563	0.239
Mof_C 	C 	0.8166	0.976	0.9992	-0.234
Mof_C 	C 	0.9148	0.9397	0.9891	0.112
Mof_C 	C 	0.6358	0.9912	0.0652	-0.353
Mof_C 	C 	0.5232	0.9749	0.0305	0.01
Mof_C 	C 	0.5025	0.9033	0.0312	0.068
Mof_C 	C 	0.4348	0.8754	0.0904	-0.104
Mof_C 	C 	0.4114	0.8068	0.0885	0.039
Mof_C 	C 	0.5525	0.8632	0.9703	-0.129
Mof_C 	C 	0.5282	0.7943	0.9698	0.067
Mof_C 	C 	0.1551	0.8683	0.2006	0.4
Mof_C 	C 	0.2245	0.8604	0.269	-0.141
Mof_C 	C 	0.1798	0.8559	0.3483	-0.21
Mof_C 	C 	0.2476	0.8589	0.4152	0.439
Mof_C 	C 	0.1404	0.36388	0.4048	0.117
Mof_C 	C 	0.2393	0.3999	0.3952	-0.241
Mof_C 	C 	0.2613	0.45559	0.4437	0.246
Mof_C 	C 	0.1834	0.476	0.5008	-0.25
Mof_C 	C 	0.0852	0.4397	0.5109	0.119
Mof_C 	C 	0.3642	0.4912	0.4348	-0.352
Mof_C 	C 	0.4768	0.4749	0.4695	0.009
Mof_C 	C 	0.4975	0.4033	0.4688	0.072
Mof_C 	C 	0.5652	0.3754	0.4096	-0.105
Mof_C 	C 	0.5886	0.3068	0.4115	0.041
Mof_C 	C 	0.4475	0.3632	0.5297	-0.133
Mof_C 	C 	0.4718	0.2943	0.5302	0.067
Mof_C 	C 	0.8449	0.3683	0.2994	0.399
Mof_C 	C 	0.7755	0.3604	0.231	-0.14
Mof_C 	C 	0.8202	0.3559	0.1517	-0.21
Mof_C 	C 	0.7524	0.3589	0.0848	0.44
Mof_C 	C 	0.3596	0.13612	0.4048	0.116
Mof_C 	C 	0.2607	0.1001	0.3952	-0.239
Mof_C 	C 	0.2387	0.04441	0.4437	0.244
Mof_C 	C 	0.3166	0.024	0.5008	-0.247
Mof_C 	C 	0.4148	0.0603	0.5109	0.118
Mof_C 	C 	0.1358	0.0088	0.4348	-0.348
Mof_C 	C 	0.0232	0.0251	0.4695	0.01
Mof_C 	C 	0.0025	0.0967	0.4688	0.074
Mof_C 	C 	0.9348	0.1246	0.4096	-0.108
Mof_C 	C 	0.9114	0.1932	0.4115	0.042
Mof_C 	C 	0.0525	0.1368	0.5297	-0.134
Mof_C 	C 	0.0282	0.2057	0.5302	0.069
Mof_C 	C 	0.6551	0.1317	0.2994	0.399
Mof_C 	C 	0.7245	0.1396	0.231	-0.14
Mof_C 	C 	0.6798	0.1441	0.1517	-0.209
Mof_C 	C 	0.7476	0.1411	0.0848	0.439
Mof_N 	N 	0.4372	0.38484	0.96255	-0.282
Mof_N 	N 	0.9594	0.2665	0.9722	-0.27
Mof_N 	N 	0.0628	0.11516	0.96255	-0.279
Mof_N 	N 	0.5406	0.2335	0.9722	-0.267
Mof_N 	N 	0.9372	0.61516	0.53745	-0.282
Mof_N 	N 	0.4594	0.7335	0.5278	-0.266
Mof_N 	N 	0.5628	0.88484	0.53745	-0.281
Mof_N 	N 	0.0406	0.7665	0.5278	-0.267
Mof_N 	N 	0.5628	0.61516	0.03745	-0.282
Mof_N 	N 	0.0406	0.7335	0.0278	-0.27
Mof_N 	N 	0.9372	0.88484	0.03745	-0.279
Mof_N 	N 	0.4594	0.7665	0.0278	-0.267
Mof_N 	N 	0.0628	0.38484	0.46255	-0.282
Mof_N 	N 	0.5406	0.2665	0.4722	-0.266
Mof_N 	N 	0.4372	0.11516	0.46255	-0.281
Mof_N 	N 	0.9594	0.2335	0.4722	-0.267
Mof_O 	O 	0.6755	0.33956	0.86116	-0.47
Mof_O 	O 	0.5717	0.4088	0.79469	-0.298
Mof_O 	O 	0.713	0.38421	0.52057	-0.369
Mof_O 	O 	0.8446	0.34417	0.58602	-0.473
Mof_O 	O 	0.8245	0.16044	0.86116	-0.471
Mof_O 	O 	0.9283	0.0912	0.79469	-0.301
Mof_O 	O 	0.787	0.11579	0.52057	-0.369
Mof_O 	O 	0.6554	0.15583	0.58602	-0.473
Mof_O 	O 	0.1755	0.66044	0.63884	-0.47
Mof_O 	O 	0.0717	0.5912	0.70531	-0.298
Mof_O 	O 	0.213	0.61579	0.97943	-0.367
Mof_O 	O 	0.3446	0.65583	0.91398	-0.472
Mof_O 	O 	0.3245	0.83956	0.63884	-0.47
Mof_O 	O 	0.4283	0.9088	0.70531	-0.298
Mof_O 	O 	0.287	0.88421	0.97943	-0.366
Mof_O 	O 	0.1554	0.84417	0.91398	-0.471
Mof_O 	O 	0.3245	0.66044	0.13884	-0.47
Mof_O 	O 	0.4283	0.5912	0.20531	-0.298
Mof_O 	O 	0.287	0.61579	0.47943	-0.369
Mof_O 	O 	0.1554	0.65583	0.41398	-0.473
Mof_O 	O 	0.1755	0.83956	0.13884	-0.471
Mof_O 	O 	0.0717	0.9088	0.20531	-0.301
Mof_O 	O 	0.213	0.88421	0.47943	-0.369
Mof_O 	O 	0.3446	0.84417	0.41398	-0.473
Mof_O 	O 	0.8245	0.33956	0.36116	-0.47
Mof_O 	O 	0.9283	0.4088	0.29469	-0.298
Mof_O 	O 	0.787	0.38421	0.02057	-0.367
Mof_O 	O 	0.6554	0.34417	0.08602	-0.472
Mof_O 	O 	0.6755	0.16044	0.36116	-0.47
Mof_O 	O 	0.5717	0.0912	0.29469	-0.298
Mof_O 	O 	0.713	0.11579	0.02057	-0.366
Mof_O 	O 	0.8446	0.15583	0.08602	-0.471
_end
