# CIF file generated by openbabel 3.1.0, see https://openbabel.org
data_I
_chemical_name_common 'YUSGOJ_clean'
_cell_length_a 9.5591
_cell_length_b 9.782
_cell_length_c 18.288
_cell_angle_alpha 78.75
_cell_angle_beta 86.28
_cell_angle_gamma 68.73
_space_group_name_H-M_alt 'P 1'
_space_group_name_Hall 'P 1'
loop_
    _symmetry_equiv_pos_as_xyz
    x,y,z
loop_
    _atom_site_label
    _atom_site_type_symbol
    _atom_site_fract_x
    _atom_site_fract_y
    _atom_site_fract_z
    _atom_site_occupancy
    Zn1      Zn       0.09403    0.09600    0.97434    1.000
    Zn2      Zn       0.18201    0.88960    0.14695    1.000
    Zn3      Zn       0.90597    0.90400    0.02566    1.000
    Zn4      Zn       0.81799    0.11040    0.85305    1.000
    H5       H        0.96370    0.06610    0.70590    1.000
    H6       H        0.05490    0.19430    0.60670    1.000
    H7       H        0.92340    0.54360    0.70020    1.000
    H8       H        0.82100    0.41840    0.79920    1.000
    H9       H        0.07130    0.55030    0.57440    1.000
    H10      H        0.87630    0.68430    0.49280    1.000
    H11      H        0.78000    0.34290    0.47890    1.000
    H12      H        0.61740    0.27000    0.56440    1.000
    H13      H        0.53190    0.64030    0.65190    1.000
    H14      H        0.69460    0.71310    0.56630    1.000
    H15      H        0.48070    0.46840    0.72230    1.000
    H16      H        0.49740    0.22920    0.66650    1.000
    H17      H        0.36660    0.07530    0.73510    1.000
    H18      H        0.26170    0.99380    0.84050    1.000
    H19      H        0.14220    0.38530    0.90160    1.000
    H20      H        0.25970    0.47220    0.79430    1.000
    H21      H        0.57210    0.53790    0.06680    1.000
    H22      H        0.87090    0.54450    0.90130    1.000
    H23      H        0.51370    0.91650    0.91660    1.000
    H24      H        0.03630    0.93390    0.29410    1.000
    H25      H        0.94510    0.80570    0.39330    1.000
    H26      H        0.07660    0.45640    0.29980    1.000
    H27      H        0.17900    0.58160    0.20080    1.000
    H28      H        0.92870    0.44970    0.42560    1.000
    H29      H        0.12370    0.31570    0.50720    1.000
    H30      H        0.22000    0.65710    0.52110    1.000
    H31      H        0.38260    0.73000    0.43560    1.000
    H32      H        0.46810    0.35970    0.34810    1.000
    H33      H        0.30540    0.28690    0.43370    1.000
    H34      H        0.51930    0.53160    0.27770    1.000
    H35      H        0.50260    0.77080    0.33350    1.000
    H36      H        0.63340    0.92470    0.26490    1.000
    H37      H        0.73830    0.00620    0.15950    1.000
    H38      H        0.85780    0.61470    0.09840    1.000
    H39      H        0.74030    0.52780    0.20570    1.000
    H40      H        0.42790    0.46210    0.93320    1.000
    H41      H        0.12910    0.45550    0.09870    1.000
    H42      H        0.48630    0.08350    0.08340    1.000
    C43      C        0.95020    0.16600    0.70650    1.000
    C44      C        0.00470    0.24800    0.64390    1.000
    C45      C        0.99180    0.39260    0.63270    1.000
    C46      C        0.92840    0.44700    0.69730    1.000
    C47      C        0.86930    0.36860    0.76040    1.000
    C48      C        0.02540    0.48220    0.56130    1.000
    C49      C        0.89890    0.57600    0.49910    1.000
    C50      C        0.75300    0.53500    0.51430    1.000
    C51      C        0.73000    0.40290    0.51380    1.000
    C52      C        0.63290    0.35940    0.56480    1.000
    C53      C        0.55890    0.44810    0.61640    1.000
    C54      C        0.58190    0.58030    0.61700    1.000
    C55      C        0.67900    0.62370    0.56590    1.000
    C56      C        0.49550    0.40900    0.68580    1.000
    C57      C        0.46000    0.29850    0.69860    1.000
    C58      C        0.35810    0.26320    0.76300    1.000
    C59      C        0.33380    0.13540    0.77170    1.000
    C60      C        0.26260    0.09140    0.83250    1.000
    C61      C        0.19280    0.32000    0.86900    1.000
    C62      C        0.26810    0.37160    0.80670    1.000
    C63      C        0.52650    0.73630    0.99730    1.000
    C64      C        0.60580    0.58880    0.02460    1.000
    C65      C        0.73940    0.51400    0.98820    1.000
    C66      C        0.78370    0.59390    0.92640    1.000
    C67      C        0.70640    0.74170    0.90010    1.000
    C68      C        0.57130    0.81610    0.93500    1.000
    C69      C        0.38000    0.82070    0.03380    1.000
    C70      C        0.83040    0.35430    0.01780    1.000
    C71      C        0.04980    0.83400    0.29350    1.000
    C72      C        0.99530    0.75200    0.35610    1.000
    C73      C        0.00820    0.60740    0.36730    1.000
    C74      C        0.07160    0.55300    0.30270    1.000
    C75      C        0.13070    0.63140    0.23960    1.000
    C76      C        0.97460    0.51780    0.43870    1.000
    C77      C        0.10110    0.42400    0.50090    1.000
    C78      C        0.24700    0.46500    0.48570    1.000
    C79      C        0.27000    0.59710    0.48620    1.000
    C80      C        0.36710    0.64060    0.43520    1.000
    C81      C        0.44110    0.55190    0.38360    1.000
    C82      C        0.41810    0.41970    0.38300    1.000
    C83      C        0.32100    0.37630    0.43410    1.000
    C84      C        0.50450    0.59100    0.31420    1.000
    C85      C        0.54000    0.70150    0.30140    1.000
    C86      C        0.64190    0.73680    0.23700    1.000
    C87      C        0.66620    0.86460    0.22830    1.000
    C88      C        0.73740    0.90860    0.16750    1.000
    C89      C        0.80720    0.68000    0.13100    1.000
    C90      C        0.73190    0.62840    0.19330    1.000
    C91      C        0.47350    0.26370    0.00270    1.000
    C92      C        0.39420    0.41120    0.97540    1.000
    C93      C        0.26060    0.48600    0.01180    1.000
    C94      C        0.21630    0.40610    0.07360    1.000
    C95      C        0.29360    0.25830    0.09990    1.000
    C96      C        0.42870    0.18390    0.06500    1.000
    C97      C        0.62000    0.17930    0.96620    1.000
    C98      C        0.16960    0.64570    0.98220    1.000
    S99      S        0.75940    0.83040    0.81440    1.000
    S100     S        0.24060    0.16960    0.18560    1.000
    N101     N        0.88320    0.22370    0.76380    1.000
    N102     N        0.19160    0.17860    0.88320    1.000
    N103     N        0.11680    0.77630    0.23620    1.000
    N104     N        0.80840    0.82140    0.11680    1.000
    O105     O        0.30870    0.95430    0.00640    1.000
    O106     O        0.34060    0.75240    0.09610    1.000
    O107     O        0.79270    0.27950    0.07270    1.000
    O108     O        0.95240    0.29900    0.97880    1.000
    O109     O        0.71860    0.99050    0.81910    1.000
    O110     O        0.67170    0.81440    0.75770    1.000
    O111     O        0.92090    0.75840    0.80730    1.000
    O112     O        0.98620    0.99230    0.92540    1.000
    O113     O        0.69130    0.04570    0.99360    1.000
    O114     O        0.65940    0.24760    0.90390    1.000
    O115     O        0.20730    0.72050    0.92730    1.000
    O116     O        0.04760    0.70100    0.02120    1.000
    O117     O        0.28140    0.00950    0.18090    1.000
    O118     O        0.32830    0.18560    0.24230    1.000
    O119     O        0.07910    0.24160    0.19270    1.000
    O120     O        0.01380    0.00770    0.07460    1.000
    H121     H        0.98620    0.88807    0.93628    1.000
    H122     H        0.01380    0.11193    0.06372    1.000
