data_functionalizedCrystal
_audit_creation_method	'EQeq! by Chris Wilmer'
_symmetry_space_group_name_H-M	'P1'
_symmetry_Int_Tables_number	1
_symmetry_cell_setting	triclinic
loop_
_symmetry_equiv_pos_as_xyz
  x,y,z
_cell_length_a	13.2831
_cell_length_b	22.7439
_cell_length_c	18.6354
_cell_angle_alpha	90
_cell_angle_beta	109.05
_cell_angle_gamma	90
loop_
_atom_site_label
_atom_site_type_symbol
_atom_site_fract_x
_atom_site_fract_y
_atom_site_fract_z
_atom_site_charge
Mof_Cu	Cu	0.44727	0.26261	0.51299	0.903
Mof_N 	N 	0.4983	0.2595	0.42297	-0.21
Mof_C 	C 	0.5343	0.30238	0.3899	0.04
Mof_H 	H 	0.5328	0.3411	0.4071	0.015
Mof_C 	C 	0.5744	0.2923	0.3307	-0.069
Mof_H 	H 	0.5989	0.324	0.3086	0.052
Mof_C 	C 	0.5782	0.2364	0.3047	-0.051
Mof_H 	H 	0.6065	0.2293	0.2655	0.059
Mof_C 	C 	0.5391	0.1899	0.3376	0.025
Mof_C 	C 	0.4997	0.20393	0.396	0.013
Mof_C 	C 	0.4585	0.15896	0.4323	0.024
Mof_C 	C 	0.4564	0.10046	0.4082	0.003
Mof_C 	C 	0.4142	0.05895	0.4456	-0.04
Mof_H 	H 	0.4108	0.0192	0.4313	0.04
Mof_C 	C 	0.3777	0.076	0.503	-0.081
Mof_H 	H 	0.3488	0.0483	0.5282	0.053
Mof_C 	C 	0.3841	0.13529	0.5235	0.046
Mof_H 	H 	0.3601	0.1467	0.5637	0.015
Mof_N 	N 	0.4225	0.17626	0.48886	-0.21
Mof_C 	C 	0.536	0.1299	0.3137	-0.07
Mof_H 	H 	0.5618	0.12	0.2739	0.065
Mof_C 	C 	0.4966	0.0873	0.3475	-0.048
Mof_H 	H 	0.4956	0.0482	0.3308	0.041
Mof_Cu	Cu	0.25319	0.36668	0.50832	0.916
Mof_N 	N 	0.23	0.42915	0.42833	-0.204
Mof_C 	C 	0.2098	0.42344	0.3547	0.047
Mof_H 	H 	0.2022	0.3855	0.3336	0.019
Mof_C 	C 	0.1994	0.47218	0.3067	-0.077
Mof_H 	H 	0.1863	0.4666	0.2544	0.054
Mof_C 	C 	0.208	0.52726	0.3355	-0.043
Mof_H 	H 	0.2011	0.56	0.3034	0.047
Mof_C 	C 	0.2275	0.53517	0.4136	0.015
Mof_C 	C 	0.2385	0.48444	0.4574	0.023
Mof_C 	C 	0.2613	0.48841	0.5379	0.025
Mof_C 	C 	0.2703	0.54368	0.5728	0.015
Mof_C 	C 	0.2908	0.5436	0.6514	-0.042
Mof_H 	H 	0.2971	0.5794	0.6776	0.048
Mof_C 	C 	0.3017	0.49235	0.6898	-0.074
Mof_H 	H 	0.3152	0.4925	0.7425	0.052
Mof_C 	C 	0.2929	0.43897	0.6508	0.044
Mof_H 	H 	0.3012	0.4036	0.6781	0.021
Mof_N 	N 	0.2731	0.43703	0.57629	-0.203
Mof_C 	C 	0.2376	0.59093	0.4502	-0.056
Mof_H 	H 	0.2305	0.6254	0.4212	0.054
Mof_C 	C 	0.2571	0.59523	0.5258	-0.053
Mof_H 	H 	0.2622	0.6326	0.5482	0.053
Mof_Cu	Cu	0.06503	0.23662	0.01568	0.902
Mof_N 	N 	0.0761	0.32123	0.04919	-0.209
Mof_C 	C 	0.1026	0.36809	0.0171	0.036
Mof_H 	H 	0.1306	0.3626	0.9773	0.024
Mof_C 	C 	0.0907	0.42532	0.0403	-0.077
Mof_H 	H 	0.1113	0.4576	0.0169	0.052
Mof_C 	C 	0.0488	0.43385	0.097	-0.037
Mof_H 	H 	0.0392	0.4722	0.1124	0.038
Mof_C 	C 	0.02	0.38552	0.1326	-0.005
Mof_C 	C 	0.0344	0.32994	0.1054	0.028
Mof_C 	C 	0.003	0.27872	0.137	0.008
Mof_C 	C 	0.9605	0.28307	0.1962	0.033
Mof_C 	C 	0.9331	0.2312	0.2245	-0.05
Mof_H 	H 	0.9031	0.2322	0.2637	0.055
Mof_C 	C 	0.9501	0.1788	0.195	-0.073
Mof_H 	H 	0.9337	0.1434	0.2149	0.053
Mof_C 	C 	0.9916	0.17765	0.1355	0.052
Mof_H 	H 	0.0024	0.1411	0.1156	0.01
Mof_N 	N 	0.0167	0.22643	0.10581	-0.211
Mof_C 	C 	0.976	0.389	0.1932	-0.033
Mof_H 	H 	0.9667	0.4261	0.2124	0.041
Mof_C 	C 	0.9479	0.341	0.223	-0.08
Mof_H 	H 	0.9191	0.3451	0.2626	0.075
Mof_O 	O 	0.3964	0.25026	0.59873	-0.443
Mof_O 	O 	0.2647	0.31414	0.59241	-0.466
Mof_C 	C 	0.3265	0.27225	0.6216	0.432
Mof_C 	C 	0.315	0.24519	0.6908	-0.256
Mof_H 	H 	0.3469	0.2084	0.7064	0.128
Mof_C 	C 	0.2621	0.27	0.7319	0.034
Mof_H 	H 	0.2293	0.3065	0.7161	0.03
Mof_O 	O 	0.45504	0.34791	0.52221	-0.442
Mof_O 	O 	0.5816	0.35327	0.63628	-0.301
Mof_C 	C 	0.5195	0.37599	0.5785	0.368
Mof_C 	C 	0.5202	0.44074	0.5702	-0.225
Mof_H 	H 	0.5399	0.4636	0.6147	0.116
Mof_C 	C 	0.4948	0.46884	0.5039	0.025
Mof_H 	H 	0.4684	0.4464	0.4594	0.033
Mof_O 	O 	0.24707	0.19455	0.93473	-0.468
Mof_O 	O 	0.1186	0.2586	0.93467	-0.442
Mof_C 	C 	0.1872	0.23798	0.9089	0.436
Mof_C 	C 	0.1991	0.26739	0.8419	-0.266
Mof_H 	H 	0.1676	0.3045	0.8282	0.133
Mof_C 	C 	0.2522	0.24391	0.7999	0.043
Mof_H 	H 	0.286	0.2076	0.8156	0.026
Mof_O 	O 	0.05834	0.34715	0.49335	-0.449
Mof_O 	O 	0.9134	0.34365	0.38911	-0.303
Mof_C 	C 	0.984	0.37105	0.4385	0.371
Mof_C 	C 	0.9807	0.43571	0.4372	-0.23
Mof_H 	H 	0.959	0.4547	0.3898	0.117
Mof_C 	C 	0.007	0.46865	0.4996	0.026
Mof_H 	H 	0.0369	0.4496	0.5465	0.031
Mof_Cu	Cu	0.55273	0.76261	0.98701	0.903
Mof_N 	N 	0.5017	0.7595	0.07703	-0.208
Mof_C 	C 	0.4657	0.80238	0.1101	0.04
Mof_H 	H 	0.4672	0.8411	0.0929	0.016
Mof_C 	C 	0.4256	0.7923	0.1693	-0.068
Mof_H 	H 	0.4011	0.824	0.1914	0.053
Mof_C 	C 	0.4218	0.7364	0.1953	-0.05
Mof_H 	H 	0.3935	0.7293	0.2345	0.06
Mof_C 	C 	0.4609	0.6899	0.1624	0.026
Mof_C 	C 	0.5003	0.70393	0.104	0.014
Mof_C 	C 	0.5415	0.65896	0.0677	0.026
Mof_C 	C 	0.5436	0.60046	0.0918	0.003
Mof_C 	C 	0.5858	0.55895	0.0544	-0.036
Mof_H 	H 	0.5892	0.5192	0.0687	0.041
Mof_C 	C 	0.6223	0.576	0.997	-0.082
Mof_H 	H 	0.6512	0.5483	0.9718	0.054
Mof_C 	C 	0.6159	0.63529	0.9765	0.045
Mof_H 	H 	0.6399	0.6467	0.9363	0.016
Mof_N 	N 	0.5775	0.67626	0.01114	-0.207
Mof_C 	C 	0.464	0.6299	0.1863	-0.07
Mof_H 	H 	0.4382	0.62	0.2261	0.066
Mof_C 	C 	0.5034	0.5873	0.1525	-0.046
Mof_H 	H 	0.5044	0.5482	0.1692	0.042
Mof_Cu	Cu	0.74681	0.86668	0.99168	0.914
Mof_N 	N 	0.77	0.92915	0.07167	-0.204
Mof_C 	C 	0.7902	0.92344	0.1453	0.048
Mof_H 	H 	0.7978	0.8855	0.1664	0.02
Mof_C 	C 	0.8006	0.97218	0.1933	-0.073
Mof_H 	H 	0.8137	0.9666	0.2456	0.054
Mof_C 	C 	0.792	0.02726	0.1645	-0.044
Mof_H 	H 	0.7989	0.06	0.1966	0.047
Mof_C 	C 	0.7725	0.03517	0.0864	0.008
Mof_C 	C 	0.7615	0.98444	0.0426	0.036
Mof_C 	C 	0.7387	0.98841	0.9621	0.013
Mof_C 	C 	0.7297	0.04368	0.9272	0.022
Mof_C 	C 	0.7092	0.0436	0.8486	-0.042
Mof_H 	H 	0.7029	0.0794	0.8224	0.048
Mof_C 	C 	0.6983	0.99235	0.8102	-0.076
Mof_H 	H 	0.6848	0.9925	0.7575	0.052
Mof_C 	C 	0.7071	0.93897	0.8492	0.043
Mof_H 	H 	0.6988	0.9036	0.8219	0.021
Mof_N 	N 	0.7269	0.93703	0.92371	-0.202
Mof_C 	C 	0.7624	0.09093	0.0498	-0.051
Mof_H 	H 	0.7695	0.1254	0.0788	0.053
Mof_C 	C 	0.7429	0.09523	0.9742	-0.058
Mof_H 	H 	0.7378	0.1326	0.9518	0.055
Mof_Cu	Cu	0.93497	0.73662	0.48432	0.905
Mof_N 	N 	0.9239	0.82123	0.45081	-0.209
Mof_C 	C 	0.8974	0.86809	0.4829	0.045
Mof_H 	H 	0.8694	0.8626	0.5227	0.017
Mof_C 	C 	0.9093	0.92532	0.4597	-0.079
Mof_H 	H 	0.8887	0.9576	0.4831	0.053
Mof_C 	C 	0.9512	0.93385	0.403	-0.04
Mof_H 	H 	0.9608	0.9722	0.3876	0.04
Mof_C 	C 	0.98	0.88552	0.3674	0.005
Mof_C 	C 	0.9656	0.82994	0.3946	0.023
Mof_C 	C 	0.997	0.77872	0.363	0.016
Mof_C 	C 	0.0395	0.78307	0.3038	0.024
Mof_C 	C 	0.0669	0.7312	0.2755	-0.05
Mof_H 	H 	0.0969	0.7322	0.2363	0.054
Mof_C 	C 	0.0499	0.6788	0.305	-0.068
Mof_H 	H 	0.0663	0.6434	0.2851	0.05
Mof_C 	C 	0.0084	0.67765	0.3645	0.037
Mof_H 	H 	0.9976	0.6411	0.3844	0.019
Mof_N 	N 	0.9833	0.72643	0.39419	-0.208
Mof_C 	C 	0.024	0.889	0.3068	-0.046
Mof_H 	H 	0.0333	0.9261	0.2876	0.043
Mof_C 	C 	0.0521	0.841	0.277	-0.072
Mof_H 	H 	0.0809	0.8451	0.2374	0.072
Mof_O 	O 	0.6036	0.75026	0.90127	-0.444
Mof_O 	O 	0.7353	0.81414	0.90759	-0.467
Mof_C 	C 	0.6735	0.77225	0.8784	0.432
Mof_C 	C 	0.685	0.74519	0.8092	-0.256
Mof_H 	H 	0.6531	0.7084	0.7936	0.128
Mof_C 	C 	0.7379	0.77	0.7681	0.034
Mof_H 	H 	0.7707	0.8065	0.7839	0.03
Mof_O 	O 	0.54496	0.84791	0.97779	-0.444
Mof_O 	O 	0.4184	0.85327	0.86372	-0.301
Mof_C 	C 	0.4805	0.87599	0.9215	0.367
Mof_C 	C 	0.4798	0.94074	0.9298	-0.223
Mof_H 	H 	0.4601	0.9636	0.8853	0.115
Mof_C 	C 	0.5052	0.96884	0.9961	0.019
Mof_H 	H 	0.5316	0.9464	0.0406	0.037
Mof_O 	O 	0.75293	0.69455	0.56527	-0.47
Mof_O 	O 	0.8814	0.7586	0.56533	-0.446
Mof_C 	C 	0.8128	0.73798	0.5911	0.436
Mof_C 	C 	0.8009	0.76739	0.6581	-0.266
Mof_H 	H 	0.8324	0.8045	0.6718	0.132
Mof_C 	C 	0.7478	0.74391	0.7001	0.042
Mof_H 	H 	0.714	0.7076	0.6844	0.026
Mof_O 	O 	0.94166	0.84715	0.00665	-0.441
Mof_O 	O 	0.0866	0.84365	0.11089	-0.303
Mof_C 	C 	0.016	0.87105	0.0615	0.369
Mof_C 	C 	0.0193	0.93571	0.0628	-0.242
Mof_H 	H 	0.041	0.9547	0.1102	0.12
Mof_C 	C 	0.993	0.96865	0.0004	0.045
Mof_H 	H 	0.9631	0.9496	0.9535	0.019
Mof_Cu	Cu	0.55273	0.73739	0.48701	0.904
Mof_N 	N 	0.5017	0.7405	0.57703	-0.209
Mof_C 	C 	0.4657	0.69762	0.6101	0.041
Mof_H 	H 	0.4672	0.6589	0.5929	0.016
Mof_C 	C 	0.4256	0.7077	0.6693	-0.068
Mof_H 	H 	0.4011	0.676	0.6914	0.053
Mof_C 	C 	0.4218	0.7636	0.6953	-0.05
Mof_H 	H 	0.3935	0.7707	0.7345	0.06
Mof_C 	C 	0.4609	0.8101	0.6624	0.026
Mof_C 	C 	0.5003	0.79607	0.604	0.014
Mof_C 	C 	0.5415	0.84104	0.5677	0.025
Mof_C 	C 	0.5436	0.89954	0.5918	0.004
Mof_C 	C 	0.5858	0.94105	0.5544	-0.039
Mof_H 	H 	0.5892	0.9808	0.5687	0.041
Mof_C 	C 	0.6223	0.924	0.497	-0.08
Mof_H 	H 	0.6512	0.9517	0.4718	0.054
Mof_C 	C 	0.6159	0.86471	0.4765	0.047
Mof_H 	H 	0.6399	0.8533	0.4363	0.016
Mof_N 	N 	0.5775	0.82374	0.51114	-0.209
Mof_C 	C 	0.464	0.8701	0.6863	-0.069
Mof_H 	H 	0.4382	0.88	0.7261	0.066
Mof_C 	C 	0.5034	0.9127	0.6525	-0.047
Mof_H 	H 	0.5044	0.9518	0.6692	0.042
Mof_Cu	Cu	0.74681	0.63332	0.49168	0.917
Mof_N 	N 	0.77	0.57085	0.57167	-0.203
Mof_C 	C 	0.7902	0.57656	0.6453	0.048
Mof_H 	H 	0.7978	0.6145	0.6664	0.019
Mof_C 	C 	0.8006	0.52782	0.6933	-0.077
Mof_H 	H 	0.8137	0.5334	0.7456	0.054
Mof_C 	C 	0.792	0.47274	0.6645	-0.043
Mof_H 	H 	0.7989	0.44	0.6966	0.047
Mof_C 	C 	0.7725	0.46483	0.5864	0.015
Mof_C 	C 	0.7615	0.51556	0.5426	0.023
Mof_C 	C 	0.7387	0.51159	0.4621	0.025
Mof_C 	C 	0.7297	0.45632	0.4272	0.015
Mof_C 	C 	0.7092	0.4564	0.3486	-0.042
Mof_H 	H 	0.7029	0.4206	0.3224	0.048
Mof_C 	C 	0.6983	0.50765	0.3102	-0.074
Mof_H 	H 	0.6848	0.5075	0.2575	0.052
Mof_C 	C 	0.7071	0.56103	0.3492	0.044
Mof_H 	H 	0.6988	0.5964	0.3219	0.021
Mof_N 	N 	0.7269	0.56297	0.42371	-0.203
Mof_C 	C 	0.7624	0.40907	0.5498	-0.056
Mof_H 	H 	0.7695	0.3746	0.5788	0.054
Mof_C 	C 	0.7429	0.40477	0.4742	-0.053
Mof_H 	H 	0.7378	0.3674	0.4518	0.053
Mof_Cu	Cu	0.93497	0.76338	0.98432	0.902
Mof_N 	N 	0.9239	0.67877	0.95081	-0.209
Mof_C 	C 	0.8974	0.63191	0.9829	0.036
Mof_H 	H 	0.8694	0.6374	0.0227	0.024
Mof_C 	C 	0.9093	0.57468	0.9597	-0.077
Mof_H 	H 	0.8887	0.5424	0.9831	0.052
Mof_C 	C 	0.9512	0.56615	0.903	-0.037
Mof_H 	H 	0.9608	0.5278	0.8876	0.038
Mof_C 	C 	0.98	0.61448	0.8674	-0.005
Mof_C 	C 	0.9656	0.67006	0.8946	0.028
Mof_C 	C 	0.997	0.72128	0.863	0.008
Mof_C 	C 	0.0395	0.71693	0.8038	0.033
Mof_C 	C 	0.0669	0.7688	0.7755	-0.05
Mof_H 	H 	0.0969	0.7678	0.7363	0.055
Mof_C 	C 	0.0499	0.8212	0.805	-0.073
Mof_H 	H 	0.0663	0.8566	0.7851	0.053
Mof_C 	C 	0.0084	0.82235	0.8645	0.052
Mof_H 	H 	0.9976	0.8589	0.8844	0.01
Mof_N 	N 	0.9833	0.77357	0.89419	-0.211
Mof_C 	C 	0.024	0.611	0.8068	-0.033
Mof_H 	H 	0.0333	0.5739	0.7876	0.041
Mof_C 	C 	0.0521	0.659	0.777	-0.08
Mof_H 	H 	0.0809	0.6549	0.7374	0.075
Mof_O 	O 	0.6036	0.74974	0.40127	-0.443
Mof_O 	O 	0.7353	0.68586	0.40759	-0.466
Mof_C 	C 	0.6735	0.72775	0.3784	0.432
Mof_C 	C 	0.685	0.75481	0.3092	-0.256
Mof_H 	H 	0.6531	0.7916	0.2936	0.128
Mof_C 	C 	0.7379	0.73	0.2681	0.034
Mof_H 	H 	0.7707	0.6935	0.2839	0.03
Mof_O 	O 	0.54496	0.65209	0.47779	-0.442
Mof_O 	O 	0.4184	0.64673	0.36372	-0.301
Mof_C 	C 	0.4805	0.62401	0.4215	0.368
Mof_C 	C 	0.4798	0.55926	0.4298	-0.225
Mof_H 	H 	0.4601	0.5364	0.3853	0.116
Mof_C 	C 	0.5052	0.53116	0.4961	0.025
Mof_H 	H 	0.5316	0.5536	0.5406	0.033
Mof_O 	O 	0.75293	0.80545	0.06527	-0.468
Mof_O 	O 	0.8814	0.7414	0.06533	-0.442
Mof_C 	C 	0.8128	0.76202	0.0911	0.436
Mof_C 	C 	0.8009	0.73261	0.1581	-0.266
Mof_H 	H 	0.8324	0.6955	0.1718	0.133
Mof_C 	C 	0.7478	0.75609	0.2001	0.043
Mof_H 	H 	0.714	0.7924	0.1844	0.026
Mof_O 	O 	0.94166	0.65285	0.50665	-0.449
Mof_O 	O 	0.0866	0.65635	0.61089	-0.303
Mof_C 	C 	0.016	0.62895	0.5615	0.371
Mof_C 	C 	0.0193	0.56429	0.5628	-0.23
Mof_H 	H 	0.041	0.5453	0.6102	0.117
Mof_C 	C 	0.993	0.53135	0.5004	0.026
Mof_H 	H 	0.9631	0.5504	0.4535	0.031
Mof_Cu	Cu	0.44727	0.23739	0.01299	0.903
Mof_N 	N 	0.4983	0.2405	0.92297	-0.208
Mof_C 	C 	0.5343	0.19762	0.8899	0.04
Mof_H 	H 	0.5328	0.1589	0.9071	0.016
Mof_C 	C 	0.5744	0.2077	0.8307	-0.068
Mof_H 	H 	0.5989	0.176	0.8086	0.053
Mof_C 	C 	0.5782	0.2636	0.8047	-0.05
Mof_H 	H 	0.6065	0.2707	0.7655	0.06
Mof_C 	C 	0.5391	0.3101	0.8376	0.026
Mof_C 	C 	0.4997	0.29607	0.896	0.014
Mof_C 	C 	0.4585	0.34104	0.9323	0.026
Mof_C 	C 	0.4564	0.39954	0.9082	0.003
Mof_C 	C 	0.4142	0.44105	0.9456	-0.036
Mof_H 	H 	0.4108	0.4808	0.9313	0.041
Mof_C 	C 	0.3777	0.424	0.003	-0.082
Mof_H 	H 	0.3488	0.4517	0.0282	0.054
Mof_C 	C 	0.3841	0.36471	0.0235	0.045
Mof_H 	H 	0.3601	0.3533	0.0637	0.016
Mof_N 	N 	0.4225	0.32374	0.98886	-0.207
Mof_C 	C 	0.536	0.3701	0.8137	-0.07
Mof_H 	H 	0.5618	0.38	0.7739	0.066
Mof_C 	C 	0.4966	0.4127	0.8475	-0.046
Mof_H 	H 	0.4956	0.4518	0.8308	0.042
Mof_Cu	Cu	0.25319	0.13332	0.00832	0.914
Mof_N 	N 	0.23	0.07085	0.92833	-0.204
Mof_C 	C 	0.2098	0.07656	0.8547	0.048
Mof_H 	H 	0.2022	0.1145	0.8336	0.02
Mof_C 	C 	0.1994	0.02782	0.8067	-0.073
Mof_H 	H 	0.1863	0.0334	0.7544	0.054
Mof_C 	C 	0.208	0.97274	0.8355	-0.044
Mof_H 	H 	0.2011	0.94	0.8034	0.047
Mof_C 	C 	0.2275	0.96483	0.9136	0.008
Mof_C 	C 	0.2385	0.01556	0.9574	0.036
Mof_C 	C 	0.2613	0.01159	0.0379	0.013
Mof_C 	C 	0.2703	0.95632	0.0728	0.022
Mof_C 	C 	0.2908	0.9564	0.1514	-0.042
Mof_H 	H 	0.2971	0.9206	0.1776	0.048
Mof_C 	C 	0.3017	0.00765	0.1898	-0.076
Mof_H 	H 	0.3152	0.0075	0.2425	0.052
Mof_C 	C 	0.2929	0.06103	0.1508	0.043
Mof_H 	H 	0.3012	0.0964	0.1781	0.021
Mof_N 	N 	0.2731	0.06297	0.07629	-0.202
Mof_C 	C 	0.2376	0.90907	0.9502	-0.051
Mof_H 	H 	0.2305	0.8746	0.9212	0.053
Mof_C 	C 	0.2571	0.90477	0.0258	-0.058
Mof_H 	H 	0.2622	0.8674	0.0482	0.055
Mof_Cu	Cu	0.06503	0.26338	0.51568	0.905
Mof_N 	N 	0.0761	0.17877	0.54919	-0.209
Mof_C 	C 	0.1026	0.13191	0.5171	0.045
Mof_H 	H 	0.1306	0.1374	0.4773	0.017
Mof_C 	C 	0.0907	0.07468	0.5403	-0.079
Mof_H 	H 	0.1113	0.0424	0.5169	0.053
Mof_C 	C 	0.0488	0.06615	0.597	-0.04
Mof_H 	H 	0.0392	0.0278	0.6124	0.04
Mof_C 	C 	0.02	0.11448	0.6326	0.005
Mof_C 	C 	0.0344	0.17006	0.6054	0.023
Mof_C 	C 	0.003	0.22128	0.637	0.016
Mof_C 	C 	0.9605	0.21693	0.6962	0.024
Mof_C 	C 	0.9331	0.2688	0.7245	-0.05
Mof_H 	H 	0.9031	0.2678	0.7637	0.054
Mof_C 	C 	0.9501	0.3212	0.695	-0.068
Mof_H 	H 	0.9337	0.3566	0.7149	0.05
Mof_C 	C 	0.9916	0.32235	0.6355	0.037
Mof_H 	H 	0.0024	0.3589	0.6156	0.019
Mof_N 	N 	0.0167	0.27357	0.60581	-0.208
Mof_C 	C 	0.976	0.111	0.6932	-0.046
Mof_H 	H 	0.9667	0.0739	0.7124	0.043
Mof_C 	C 	0.9479	0.159	0.723	-0.072
Mof_H 	H 	0.9191	0.1549	0.7626	0.072
Mof_O 	O 	0.3964	0.24974	0.09873	-0.444
Mof_O 	O 	0.2647	0.18586	0.09241	-0.467
Mof_C 	C 	0.3265	0.22775	0.1216	0.432
Mof_C 	C 	0.315	0.25481	0.1908	-0.256
Mof_H 	H 	0.3469	0.2916	0.2064	0.128
Mof_C 	C 	0.2621	0.23	0.2319	0.034
Mof_H 	H 	0.2293	0.1935	0.2161	0.03
Mof_O 	O 	0.45504	0.15209	0.02221	-0.444
Mof_O 	O 	0.5816	0.14673	0.13628	-0.301
Mof_C 	C 	0.5195	0.12401	0.0785	0.367
Mof_C 	C 	0.5202	0.05926	0.0702	-0.223
Mof_H 	H 	0.5399	0.0364	0.1147	0.115
Mof_C 	C 	0.4948	0.03116	0.0039	0.019
Mof_H 	H 	0.4684	0.0536	0.9594	0.037
Mof_O 	O 	0.24707	0.30545	0.43473	-0.47
Mof_O 	O 	0.1186	0.2414	0.43467	-0.446
Mof_C 	C 	0.1872	0.26202	0.4089	0.436
Mof_C 	C 	0.1991	0.23261	0.3419	-0.266
Mof_H 	H 	0.1676	0.1955	0.3282	0.132
Mof_C 	C 	0.2522	0.25609	0.2999	0.042
Mof_H 	H 	0.286	0.2924	0.3156	0.026
Mof_O 	O 	0.05834	0.15285	0.99335	-0.441
Mof_O 	O 	0.9134	0.15635	0.88911	-0.303
Mof_C 	C 	0.984	0.12895	0.9385	0.369
Mof_C 	C 	0.9807	0.06429	0.9372	-0.242
Mof_H 	H 	0.959	0.0453	0.8898	0.12
Mof_C 	C 	0.007	0.03135	0.9996	0.045
Mof_H 	H 	0.0369	0.0504	0.0465	0.019
_end
