# CIF file generated by openbabel 3.1.0, see https://openbabel.org
data_I
_chemical_name_common 'image0'
_cell_length_a 14.0907
_cell_length_b 12.1434
_cell_length_c 14.6345
_cell_angle_alpha 90
_cell_angle_beta 106.053
_cell_angle_gamma 90
_space_group_name_H-M_alt 'P 1'
_space_group_name_Hall 'P 1'
loop_
    _symmetry_equiv_pos_as_xyz
    x,y,z
loop_
    _atom_site_label
    _atom_site_type_symbol
    _atom_site_fract_x
    _atom_site_fract_y
    _atom_site_fract_z
    _atom_site_occupancy
    Zn1      Zn       0.19631    0.24317    0.07426    1.000
    Zn2      Zn       0.35012    0.02137    0.15646    1.000
    O1       O        0.28840    0.23311    0.97612    1.000
    O2       O        0.38673    0.09203    0.04120    1.000
    O3       O        0.60858    0.25342    0.67239    1.000
    O4       O        0.67070    0.09833    0.75010    1.000
    O5       O        0.32297    0.28772    0.17506    1.000
    O6       O        0.39655    0.13683    0.25312    1.000
    O7       O        0.67459    0.58896    0.51545    1.000
    O8       O        0.71046    0.43113    0.59632    1.000
    N1       N        0.53813    0.09302    0.84421    1.000
    N2       N        0.58102    0.32033    0.46120    1.000
    C1       C        0.47592    0.08881    0.89872    1.000
    H1       H        0.47280    0.02290    0.93270    1.000
    C2       C        0.41548    0.17655    0.90803    1.000
    C3       C        0.41340    0.26795    0.85094    1.000
    H2       H        0.37090    0.32810    0.85290    1.000
    C4       C        0.47474    0.27077    0.79023    1.000
    H3       H        0.47310    0.33210    0.74950    1.000
    C5       C        0.53791    0.18318    0.79021    1.000
    C6       C        0.35720    0.16796    0.98103    1.000
    C7       C        0.61179    0.17848    0.73240    1.000
    C8       C        0.51730    0.26199    0.39423    1.000
    H4       H        0.51760    0.18400    0.39970    1.000
    C9       C        0.45038    0.31102    0.31667    1.000
    C10      C        0.44759    0.42538    0.31073    1.000
    H5       H        0.40070    0.46120    0.26020    1.000
    C11      C        0.51440    0.48656    0.37990    1.000
    H6       H        0.51450    0.56470    0.37720    1.000
    C12      C        0.58095    0.43064    0.45286    1.000
    C13      C        0.38361    0.23977    0.24173    1.000
    C14      C        0.66055    0.49132    0.52639    1.000
    Zn3      Zn       0.30369    0.74317    0.42574    1.000
    Zn4      Zn       0.14988    0.52137    0.34354    1.000
    O9       O        0.21160    0.73311    0.52388    1.000
    O10      O        0.11327    0.59203    0.45880    1.000
    O11      O        0.89142    0.75342    0.82761    1.000
    O12      O        0.82930    0.59833    0.74990    1.000
    O13      O        0.17703    0.78772    0.32494    1.000
    O14      O        0.10345    0.63683    0.24688    1.000
    O15      O        0.82541    0.08896    0.98455    1.000
    O16      O        0.78954    0.93113    0.90368    1.000
    N3       N        0.96187    0.59302    0.65579    1.000
    N4       N        0.91898    0.82033    0.03880    1.000
    C15      C        0.02408    0.58881    0.60128    1.000
    H7       H        0.02720    0.52290    0.56730    1.000
    C16      C        0.08452    0.67655    0.59197    1.000
    C17      C        0.08660    0.76795    0.64906    1.000
    H8       H        0.12910    0.82810    0.64710    1.000
    C18      C        0.02526    0.77077    0.70977    1.000
    H9       H        0.02690    0.83210    0.75050    1.000
    C19      C        0.96209    0.68318    0.70979    1.000
    C20      C        0.14280    0.66796    0.51897    1.000
    C21      C        0.88821    0.67848    0.76760    1.000
    C22      C        0.98270    0.76199    0.10577    1.000
    H10      H        0.98240    0.68400    0.10030    1.000
    C23      C        0.04962    0.81102    0.18333    1.000
    C24      C        0.05241    0.92538    0.18927    1.000
    H11      H        0.09930    0.96120    0.23980    1.000
    C25      C        0.98560    0.98656    0.12010    1.000
    H12      H        0.98550    0.06470    0.12280    1.000
    C26      C        0.91905    0.93064    0.04714    1.000
    C27      C        0.11639    0.73977    0.25827    1.000
    C28      C        0.83945    0.99132    0.97361    1.000
    Zn5      Zn       0.80369    0.75683    0.92574    1.000
    Zn6      Zn       0.64988    0.97863    0.84354    1.000
    O17      O        0.71160    0.76689    0.02388    1.000
    O18      O        0.61327    0.90797    0.95880    1.000
    O19      O        0.39142    0.74658    0.32761    1.000
    O20      O        0.32930    0.90167    0.24990    1.000
    O21      O        0.67703    0.71228    0.82494    1.000
    O22      O        0.60345    0.86317    0.74688    1.000
    O23      O        0.32541    0.41104    0.48455    1.000
    O24      O        0.28954    0.56887    0.40368    1.000
    N5       N        0.46187    0.90698    0.15579    1.000
    N6       N        0.41898    0.67967    0.53880    1.000
    C29      C        0.52408    0.91119    0.10128    1.000
    H13      H        0.52720    0.97710    0.06730    1.000
    C30      C        0.58452    0.82345    0.09197    1.000
    C31      C        0.58660    0.73205    0.14906    1.000
    H14      H        0.62910    0.67190    0.14710    1.000
    C32      C        0.52526    0.72923    0.20977    1.000
    H15      H        0.52690    0.66790    0.25050    1.000
    C33      C        0.46209    0.81682    0.20979    1.000
    C34      C        0.64280    0.83204    0.01897    1.000
    C35      C        0.38821    0.82152    0.26760    1.000
    C36      C        0.48270    0.73801    0.60577    1.000
    H16      H        0.48240    0.81600    0.60030    1.000
    C37      C        0.54962    0.68898    0.68333    1.000
    C38      C        0.55241    0.57462    0.68927    1.000
    H17      H        0.59930    0.53880    0.73980    1.000
    C39      C        0.48560    0.51344    0.62010    1.000
    H18      H        0.48550    0.43530    0.62280    1.000
    C40      C        0.41905    0.56936    0.54714    1.000
    C41      C        0.61639    0.76023    0.75827    1.000
    C42      C        0.33945    0.50868    0.47361    1.000
    Zn7      Zn       0.69631    0.25683    0.57426    1.000
    Zn8      Zn       0.85012    0.47863    0.65646    1.000
    O25      O        0.78840    0.26689    0.47612    1.000
    O26      O        0.88673    0.40797    0.54120    1.000
    O27      O        0.10858    0.24658    0.17239    1.000
    O28      O        0.17070    0.40167    0.25010    1.000
    O29      O        0.82297    0.21228    0.67506    1.000
    O30      O        0.89655    0.36317    0.75312    1.000
    O31      O        0.17459    0.91104    0.01545    1.000
    O32      O        0.21046    0.06887    0.09632    1.000
    N7       N        0.03813    0.40698    0.34421    1.000
    N8       N        0.08102    0.17967    0.96120    1.000
    C43      C        0.97592    0.41119    0.39872    1.000
    H19      H        0.97280    0.47710    0.43270    1.000
    C44      C        0.91548    0.32345    0.40803    1.000
    C45      C        0.91340    0.23205    0.35094    1.000
    H20      H        0.87090    0.17190    0.35290    1.000
    C46      C        0.97474    0.22923    0.29023    1.000
    H21      H        0.97310    0.16790    0.24950    1.000
    C47      C        0.03791    0.31682    0.29021    1.000
    C48      C        0.85720    0.33204    0.48103    1.000
    C49      C        0.11179    0.32152    0.23240    1.000
    C50      C        0.01730    0.23801    0.89423    1.000
    H22      H        0.01760    0.31600    0.89970    1.000
    C51      C        0.95038    0.18898    0.81667    1.000
    C52      C        0.94759    0.07462    0.81073    1.000
    H23      H        0.90070    0.03880    0.76020    1.000
    C53      C        0.01440    0.01344    0.87990    1.000
    H24      H        0.01450    0.93530    0.87720    1.000
    C54      C        0.08095    0.06936    0.95286    1.000
    C55      C        0.88361    0.26023    0.74173    1.000
    C56      C        0.16055    0.00868    0.02639    1.000
