data_functionalizedCrystal
_audit_creation_method	'EQeq! by Chris Wilmer'
_symmetry_space_group_name_H-M	'P1'
_symmetry_Int_Tables_number	1
_symmetry_cell_setting	triclinic
loop_
_symmetry_equiv_pos_as_xyz
  x,y,z
_cell_length_a	10.2024
_cell_length_b	10.2024
_cell_length_c	31.0818
_cell_angle_alpha	90
_cell_angle_beta	90
_cell_angle_gamma	120
loop_
_atom_site_label
_atom_site_type_symbol
_atom_site_fract_x
_atom_site_fract_y
_atom_site_fract_z
_atom_site_charge
Mof_O 	O 	0.3872	0.2422	0.3119	-0.537
Mof_O 	O 	0.50231	0.1774	0.2638	-0.741
Mof_C 	C 	0.3867	0.1826	0.27689	0.572
Mof_C 	C 	0.2502	0.1213	0.24825	-0.709
Mof_O 	O 	0.41162	0.3282	0.20223	-0.575
Mof_O 	O 	0.4966	0.1421	0.14848	-0.665
Mof_H 	H 	0.1659	0.1157	0.2642	0.17
Mof_H 	H 	0.2224	0.0196	0.2392	0.172
Mof_C 	C 	0.2804	0.2202	0.20885	0.622
Mof_O 	O 	0.05387	0.57553	0.64523	-0.53
Mof_O 	O 	0.16898	0.51073	0.59713	-0.736
Mof_C 	C 	0.05337	0.51593	0.61022	0.493
Mof_C 	C 	0.91687	0.45463	0.58158	-0.67
Mof_O 	O 	0.07829	0.66153	0.53556	-0.688
Mof_O 	O 	0.16327	0.47543	0.48181	-0.658
Mof_H 	H 	0.83257	0.44903	0.59753	0.237
Mof_H 	H 	0.88907	0.35293	0.57253	0.236
Mof_C 	C 	0.94707	0.55353	0.54218	0.81
Mof_O 	O 	0.72053	0.90887	0.97857	-0.309
Mof_O 	O 	0.83564	0.84407	0.93047	-0.445
Mof_C 	C 	0.72003	0.84927	0.94356	0.548
Mof_C 	C 	0.58353	0.78797	0.91492	-0.696
Mof_O 	O 	0.74495	0.99487	0.8689	-0.388
Mof_O 	O 	0.82993	0.80877	0.81515	-0.458
Mof_H 	H 	0.49923	0.78237	0.93087	0.241
Mof_H 	H 	0.55573	0.68627	0.90587	0.237
Mof_C 	C 	0.61373	0.88687	0.87552	0.632
Mof_O 	O 	0.7578	0.145	0.3119	-0.527
Mof_O 	O 	0.8226	0.32491	0.2638	-0.71
Mof_C 	C 	0.8174	0.2041	0.27689	0.596
Mof_C 	C 	0.8787	0.1289	0.24825	-0.695
Mof_O 	O 	0.6718	0.08342	0.20223	-0.563
Mof_O 	O 	0.8579	0.3545	0.14848	-0.607
Mof_H 	H 	0.8843	0.0502	0.2642	0.214
Mof_H 	H 	0.9804	0.2028	0.2392	0.27
Mof_C 	C 	0.7798	0.0602	0.20885	0.466
Mof_O 	O 	0.42447	0.47833	0.64523	-0.534
Mof_O 	O 	0.48927	0.65824	0.59713	-0.73
Mof_C 	C 	0.48407	0.53743	0.61022	0.626
Mof_C 	C 	0.54537	0.46223	0.58158	-0.808
Mof_O 	O 	0.33847	0.41675	0.53556	-0.625
Mof_O 	O 	0.52457	0.68783	0.48181	-0.644
Mof_H 	H 	0.55097	0.38353	0.59753	0.252
Mof_H 	H 	0.64707	0.53613	0.57253	0.271
Mof_C 	C 	0.44647	0.39353	0.54218	0.691
Mof_O 	O 	0.09113	0.81167	0.97857	-0.426
Mof_O 	O 	0.15593	0.99158	0.93047	-0.484
Mof_C 	C 	0.15073	0.87077	0.94356	0.577
Mof_C 	C 	0.21203	0.79557	0.91492	-0.763
Mof_O 	O 	0.00513	0.75009	0.8689	-0.539
Mof_O 	O 	0.19123	0.02117	0.81515	-0.724
Mof_H 	H 	0.21763	0.71687	0.93087	0.246
Mof_H 	H 	0.31373	0.86947	0.90587	0.28
Mof_C 	C 	0.11313	0.72687	0.87552	0.666
Mof_O 	O 	0.855	0.6128	0.3119	-0.498
Mof_O 	O 	0.67509	0.49769	0.2638	-0.744
Mof_C 	C 	0.7959	0.6133	0.27689	0.665
Mof_C 	C 	0.8711	0.7498	0.24825	-0.908
Mof_O 	O 	0.91658	0.58838	0.20223	-0.585
Mof_O 	O 	0.6455	0.5034	0.14848	-0.634
Mof_H 	H 	0.9498	0.8341	0.2642	0.369
Mof_H 	H 	0.7972	0.7776	0.2392	0.323
Mof_C 	C 	0.9398	0.7196	0.20885	0.843
Mof_O 	O 	0.52167	0.94613	0.64523	-0.504
Mof_O 	O 	0.34176	0.83102	0.59713	-0.75
Mof_C 	C 	0.46257	0.94663	0.61022	0.731
Mof_C 	C 	0.53777	0.08313	0.58158	-0.9
Mof_O 	O 	0.58325	0.92171	0.53556	-0.484
Mof_O 	O 	0.31217	0.83673	0.48181	-0.673
Mof_H 	H 	0.61647	0.16743	0.59753	0.272
Mof_H 	H 	0.46387	0.11093	0.57253	0.252
Mof_C 	C 	0.60647	0.05293	0.54218	0.572
Mof_O 	O 	0.18833	0.27947	0.97857	-0.446
Mof_O 	O 	0.00842	0.16436	0.93047	-0.687
Mof_C 	C 	0.12923	0.27997	0.94356	0.578
Mof_C 	C 	0.20443	0.41647	0.91492	-0.761
Mof_O 	O 	0.24991	0.25505	0.8689	-0.526
Mof_O 	O 	0.97883	0.17007	0.81515	-0.394
Mof_H 	H 	0.28313	0.50077	0.93087	0.248
Mof_H 	H 	0.13053	0.44427	0.90587	0.228
Mof_C 	C 	0.27313	0.38627	0.87552	0.653
Mof_O 	O 	0.6128	0.7578	0.6881	-0.504
Mof_O 	O 	0.49769	0.8226	0.7362	-0.723
Mof_C 	C 	0.6133	0.8174	0.72311	0.648
Mof_C 	C 	0.7498	0.8787	0.75175	-0.831
Mof_O 	O 	0.58838	0.6718	0.79777	-0.573
Mof_O 	O 	0.5034	0.8579	0.85152	-0.606
Mof_H 	H 	0.8341	0.8843	0.7358	0.329
Mof_H 	H 	0.7776	0.9804	0.7608	0.334
Mof_C 	C 	0.7196	0.7798	0.79115	0.667
Mof_O 	O 	0.27947	0.09113	0.02143	-0.508
Mof_O 	O 	0.16436	0.15593	0.06953	-0.645
Mof_C 	C 	0.27997	0.15073	0.05644	0.589
Mof_C 	C 	0.41647	0.21203	0.08508	-0.786
Mof_O 	O 	0.25505	0.00513	0.1311	-0.584
Mof_O 	O 	0.17007	0.19123	0.18485	-0.605
Mof_H 	H 	0.50077	0.21763	0.06913	0.244
Mof_H 	H 	0.44427	0.31373	0.09413	0.257
Mof_C 	C 	0.38627	0.11313	0.12448	0.668
Mof_O 	O 	0.94613	0.42447	0.35477	-0.514
Mof_O 	O 	0.83102	0.48927	0.40287	-0.742
Mof_C 	C 	0.94663	0.48407	0.38978	0.739
Mof_C 	C 	0.08313	0.54537	0.41842	-0.912
Mof_O 	O 	0.92171	0.33847	0.46444	-0.504
Mof_O 	O 	0.83673	0.52457	0.51819	-0.658
Mof_H 	H 	0.16743	0.55097	0.40247	0.269
Mof_H 	H 	0.11093	0.64707	0.42747	0.27
Mof_C 	C 	0.05293	0.44647	0.45782	0.565
Mof_O 	O 	0.2422	0.855	0.6881	-0.514
Mof_O 	O 	0.1774	0.67509	0.7362	-0.754
Mof_C 	C 	0.1826	0.7959	0.72311	0.63
Mof_C 	C 	0.1213	0.8711	0.75175	-0.855
Mof_O 	O 	0.3282	0.91658	0.79777	-0.588
Mof_O 	O 	0.1421	0.6455	0.85152	-0.663
Mof_H 	H 	0.1157	0.9498	0.7358	0.295
Mof_H 	H 	0.0196	0.7972	0.7608	0.245
Mof_C 	C 	0.2202	0.9398	0.79115	0.834
Mof_O 	O 	0.90887	0.18833	0.02143	-0.379
Mof_O 	O 	0.84407	0.00842	0.06953	-0.592
Mof_C 	C 	0.84927	0.12923	0.05644	0.556
Mof_C 	C 	0.78797	0.20443	0.08508	-0.713
Mof_O 	O 	0.99487	0.24991	0.1311	-0.423
Mof_O 	O 	0.80877	0.97883	0.18485	-0.343
Mof_H 	H 	0.78237	0.28313	0.06913	0.238
Mof_H 	H 	0.68627	0.13053	0.09413	0.214
Mof_C 	C 	0.88687	0.27313	0.12448	0.632
Mof_O 	O 	0.57553	0.52167	0.35477	-0.511
Mof_O 	O 	0.51073	0.34176	0.40287	-0.748
Mof_C 	C 	0.51593	0.46257	0.38978	0.611
Mof_C 	C 	0.45463	0.53777	0.41842	-0.782
Mof_O 	O 	0.66153	0.58325	0.46444	-0.571
Mof_O 	O 	0.47543	0.31217	0.51819	-0.674
Mof_H 	H 	0.44903	0.61647	0.40247	0.255
Mof_H 	H 	0.35293	0.46387	0.42747	0.235
Mof_C 	C 	0.55353	0.60647	0.45782	0.689
Mof_O 	O 	0.145	0.3872	0.6881	-0.542
Mof_O 	O 	0.32491	0.50231	0.7362	-0.717
Mof_C 	C 	0.2041	0.3867	0.72311	0.553
Mof_C 	C 	0.1289	0.2502	0.75175	-0.619
Mof_O 	O 	0.08342	0.41162	0.79777	-0.558
Mof_O 	O 	0.3545	0.4966	0.85152	-0.637
Mof_H 	H 	0.0502	0.1659	0.7358	0.126
Mof_H 	H 	0.2028	0.2224	0.7608	0.181
Mof_C 	C 	0.0602	0.2804	0.79115	0.422
Mof_O 	O 	0.81167	0.72053	0.02143	-0.37
Mof_O 	O 	0.99158	0.83564	0.06953	-0.403
Mof_C 	C 	0.87077	0.72003	0.05644	0.557
Mof_C 	C 	0.79557	0.58353	0.08508	-0.719
Mof_O 	O 	0.75009	0.74495	0.1311	-0.443
Mof_O 	O 	0.02117	0.82993	0.18485	-0.638
Mof_H 	H 	0.71687	0.49923	0.06913	0.237
Mof_H 	H 	0.86947	0.55573	0.09413	0.266
Mof_C 	C 	0.72687	0.61373	0.12448	0.646
Mof_O 	O 	0.47833	0.05387	0.35477	-0.543
Mof_O 	O 	0.65824	0.16898	0.40287	-0.727
Mof_C 	C 	0.53743	0.05337	0.38978	0.504
Mof_C 	C 	0.46223	0.91687	0.41842	-0.688
Mof_O 	O 	0.41675	0.07829	0.46444	-0.716
Mof_O 	O 	0.68783	0.16327	0.51819	-0.644
Mof_H 	H 	0.38353	0.83257	0.40247	0.236
Mof_H 	H 	0.53613	0.88907	0.42747	0.253
Mof_C 	C 	0.39353	0.94707	0.45782	0.814
Mof_Ce	Ce	0.66667	0.33333	0.33333	2.672
Mof_Ce	Ce	0.33333	0.66667	0.66667	2.671
Mof_Ce	Ce	-0	0	-0	1.621
Mof_Ce	Ce	0.66667	0.33333	0.20143	3.115
Mof_Ce	Ce	0.33333	0.66667	0.53476	3.157
Mof_Ce	Ce	1.80193e-32	0	0.8681	2.139
Mof_Ce	Ce	0.33333	0.66667	0.79857	3.115
Mof_Ce	Ce	9.00967e-33	9.00967e-33	0.1319	2.132
Mof_Ce	Ce	0.66667	0.33333	0.46524	3.158
_end
