data_functionalizedCrystal
_audit_creation_method	'EQeq! by Chris Wilmer'
_symmetry_space_group_name_H-M	'P1'
_symmetry_Int_Tables_number	1
_symmetry_cell_setting	triclinic
loop_
_symmetry_equiv_pos_as_xyz
  x,y,z
_cell_length_a	44.964
_cell_length_b	12.4911
_cell_length_c	31.6821
_cell_angle_alpha	90
_cell_angle_beta	134.571
_cell_angle_gamma	90
loop_
_atom_site_label
_atom_site_type_symbol
_atom_site_fract_x
_atom_site_fract_y
_atom_site_fract_z
_atom_site_charge
Mof_Cd	Cd	0.2381	0.50656	0.85208	0.448
Mof_Cd	Cd	0.23766	0.22798	0.8775	0.432
Mof_Cd	Cd	0.41341	0.47056	0.63851	0.419
Mof_Cd	Cd	0.32167	0.53232	0.48094	0.479
Mof_Cd	Cd	0.35755	0.72198	0.59909	0.44
Mof_Cd	Cd	0.64603	0.90985	0.7449	0.427
Mof_C 	C 	0.2465	0.6397	0.7708	0.059
Mof_H 	H 	0.2233	0.599	0.7404	0.013
Mof_C 	C 	0.2623	0.7075	0.7573	-0.147
Mof_H 	H 	0.2508	0.7108	0.7189	0.072
Mof_C 	C 	0.2957	0.7716	0.8012	0.047
Mof_C 	C 	0.3115	0.765	0.8575	-0.13
Mof_H 	H 	0.3337	0.8081	0.8878	0.079
Mof_C 	C 	0.2939	0.6935	0.8682	0.029
Mof_H 	H 	0.3041	0.6905	0.9058	0.021
Mof_C 	C 	0.316	0.8497	0.7931	0.062
Mof_C 	C 	0.3249	0.0048	0.711	-0.049
Mof_H 	H 	0.2951	0.0125	0.6765	0.066
Mof_H 	H 	0.3369	0.076	0.7244	0.039
Mof_C 	C 	0.3254	0.8904	0.6464	0.066
Mof_H 	H 	0.2971	0.8748	0.6165	0
Mof_C 	C 	0.389	0.9022	0.6986	0.061
Mof_H 	H 	0.4149	0.8906	0.7121	0.014
Mof_C 	C 	0.3583	0.9686	0.8163	0.082
Mof_C 	C 	0.3917	0.0482	0.8536	0.032
Mof_C 	C 	0.4162	0.0908	0.8452	-0.128
Mof_H 	H 	0.4115	0.0708	0.8126	0.074
Mof_C 	C 	0.4478	0.1637	0.8867	0.07
Mof_H 	H 	0.4633	0.1923	0.8801	0.015
Mof_C 	C 	0.4348	0.1479	0.9436	0.061
Mof_H 	H 	0.4427	0.1618	0.9791	0.016
Mof_C 	C 	0.4016	0.0813	0.9038	-0.128
Mof_H 	H 	0.3856	0.0581	0.9106	0.071
Mof_C 	C 	0.4915	0.7969	0.9244	0.072
Mof_H 	H 	0.4645	0.7706	0.8997	-0.023
Mof_C 	C 	0.5003	0.8798	0.9055	-0.129
Mof_H 	H 	0.4785	0.9171	0.8711	0.08
Mof_C 	C 	0.5402	0.9073	0.9365	0.041
Mof_C 	C 	0.572	0.8606	0.9918	-0.085
Mof_H 	H 	0.5998	0.88	0.0152	0.061
Mof_C 	C 	0.5614	0.785	0.0107	0.039
Mof_H 	H 	0.5825	0.7541	0.0477	0.022
Mof_C 	C 	0.5467	0.9908	0.9099	0.109
Mof_C 	C 	0.6199	0.9517	0.953	0.025
Mof_H 	H 	0.6172	0.8809	0.9625	0.035
Mof_H 	H 	0.6256	0.9436	0.9288	0.044
Mof_C 	C 	0.5341	0.1203	0.8574	0.072
Mof_C 	C 	0.5095	0.2009	0.8099	0.055
Mof_C 	C 	0.4675	0.2086	0.7747	-0.151
Mof_H 	H 	0.4547	0.1643	0.7817	0.079
Mof_C 	C 	0.4443	0.2798	0.7298	0.071
Mof_H 	H 	0.4156	0.2806	0.7053	0.001
Mof_C 	C 	0.5015	0.3463	0.7535	0.072
Mof_H 	H 	0.5136	0.3968	0.7477	-0.004
Mof_C 	C 	0.5277	0.2706	0.7987	-0.148
Mof_H 	H 	0.5559	0.2668	0.8203	0.071
Mof_C 	C 	0.4806	0.5011	0.6266	0.076
Mof_H 	H 	0.4822	0.5701	0.6391	-0.014
Mof_C 	C 	0.5056	0.4765	0.6173	-0.141
Mof_H 	H 	0.5229	0.5281	0.6226	0.068
Mof_C 	C 	0.5045	0.375	0.6	0.05
Mof_C 	C 	0.4778	0.3004	0.5929	-0.126
Mof_H 	H 	0.4764	0.2303	0.5817	0.059
Mof_C 	C 	0.4538	0.3323	0.6027	0.067
Mof_H 	H 	0.4362	0.2824	0.5979	0.011
Mof_C 	C 	0.5279	0.3451	0.5858	0.075
Mof_C 	C 	0.55639	0.164	0.5362	-0.026
Mof_H 	H 	0.5653	0.1874	0.5173	0.047
Mof_H 	H 	0.5292	0.1303	0.507	0.048
Mof_C 	C 	0.56646	0.3563	0.5709	0.074
Mof_C 	C 	0.59241	0.3981	0.562	0.066
Mof_C 	C 	0.58413	0.488	0.5366	-0.164
Mof_H 	H 	0.563	0.5309	0.5262	0.086
Mof_C 	C 	0.6066	0.5207	0.5246	0.087
Mof_H 	H 	0.5977	0.5827	0.5022	0.003
Mof_C 	C 	0.6509	0.3834	0.5734	0.081
Mof_H 	H 	0.6749	0.3494	0.5877	0.01
Mof_C 	C 	0.631	0.338	0.5865	-0.153
Mof_H 	H 	0.6402	0.2755	0.6085	0.084
Mof_C 	C 	0.3182	0.4596	0.9598	0.314
Mof_C 	C 	0.3635	0.4439	0.0111	-0.14
Mof_C 	C 	0.3886	0.5444	0.0471	-0.201
Mof_H 	H 	0.3769	0.6063	0.0212	0.083
Mof_H 	H 	0.3878	0.5571	0.0765	0.094
Mof_C 	C 	0.4333	0.5258	0.0771	0.175
Mof_H 	H 	0.4435	0.5873	0.0718	-0.028
Mof_H 	H 	0.4514	0.5135	0.1192	-0.041
Mof_C 	C 	0.4317	0.4298	0.048	-0.508
Mof_H 	H 	0.4417	0.3698	0.0751	0.181
Mof_C 	C 	0.3869	0.4049	0.9924	0.722
Mof_C 	C 	0.3729	0.4757	0.9424	-1.276
Mof_H 	H 	0.3443	0.4605	0.9073	0.409
Mof_H 	H 	0.39	0.4621	0.9351	0.422
Mof_H 	H 	0.3756	0.5494	0.9532	0.421
Mof_C 	C 	0.3773	0.2889	0.9723	-1.239
Mof_H 	H 	0.3858	0.244	0.0038	0.397
Mof_H 	H 	0.3922	0.2685	0.962	0.407
Mof_H 	H 	0.3478	0.2807	0.9383	0.408
Mof_C 	C 	0.3675	0.3587	0.0494	-0.352
Mof_H 	H 	0.3516	0.2966	0.0258	0.125
Mof_H 	H 	0.357	0.3867	0.0651	0.134
Mof_H 	H 	0.3963	0.3394	0.0815	0.121
Mof_C 	C 	0.4593	0.4312	0.0353	0.418
Mof_C 	C 	0.1765	0.6536	0.8105	0.415
Mof_C 	C 	0.1519	0.7572	0.7975	-0.478
Mof_H 	H 	0.1242	0.7505	0.757	0.174
Mof_C 	C 	0.145	0.7772	0.8351	0.179
Mof_H 	H 	0.1654	0.7382	0.872	-0.012
Mof_H 	H 	0.1174	0.7525	0.8156	-0.035
Mof_C 	C 	0.1488	0.8941	0.8474	-0.195
Mof_H 	H 	0.1736	0.9092	0.8887	0.095
Mof_H 	H 	0.1245	0.9202	0.8384	0.087
Mof_C 	C 	0.1518	0.9471	0.8058	-0.179
Mof_C 	C 	0.1725	0.8567	0.7983	0.7
Mof_C 	C 	0.1668	0.8654	0.7459	-1.263
Mof_H 	H 	0.1375	0.8658	0.7102	0.405
Mof_H 	H 	0.1799	0.8054	0.7454	0.411
Mof_H 	H 	0.1793	0.9306	0.7485	0.4
Mof_C 	C 	0.2197	0.8557	0.852	-1.216
Mof_H 	H 	0.2316	0.9202	0.8524	0.396
Mof_H 	H 	0.2316	0.7949	0.8496	0.401
Mof_H 	H 	0.2258	0.8514	0.8876	0.413
Mof_C 	C 	0.1107	0.9802	0.7488	-0.174
Mof_H 	H 	0.0925	0.9192	0.7296	0.072
Mof_H 	H 	0.1137	0.0099	0.724	0.061
Mof_H 	H 	0.099	0.0332	0.7557	0.071
Mof_C 	C 	0.1804	0.0454	0.8371	0.381
Mof_C 	C 	0.5741	0.517	0.1158	0.319
Mof_C 	C 	0.6117	0.5164	0.1837	-0.2
Mof_C 	C 	0.6234	0.4072	0.2128	-0.221
Mof_H 	H 	0.6419	0.371	0.2117	0.091
Mof_H 	H 	0.5984	0.364	0.1912	0.087
Mof_C 	C 	0.6453	0.4194	0.2779	0.292
Mof_H 	H 	0.6347	0.3682	0.2877	-0.066
Mof_H 	H 	0.6753	0.4107	0.3052	-0.074
Mof_C 	C 	0.6342	0.5296	0.2785	-0.698
Mof_H 	H 	0.6595	0.5725	0.2996	0.231
Mof_C 	C 	0.5999	0.582	0.2164	1.18
Mof_C 	C 	0.5585	0.555	0.1875	-2.069
Mof_H 	H 	0.5561	0.4786	0.1877	0.649
Mof_H 	H 	0.5392	0.5803	0.1474	0.658
Mof_H 	H 	0.5524	0.5878	0.2081	0.65
Mof_C 	C 	0.6068	0.6996	0.2181	-1.882
Mof_H 	H 	0.6349	0.7122	0.2368	0.591
Mof_H 	H 	0.6024	0.7349	0.2403	0.606
Mof_H 	H 	0.5876	0.7274	0.1785	0.603
Mof_C 	C 	0.6463	0.5778	0.1985	-0.275
Mof_H 	H 	0.6358	0.6448	0.1777	0.1
Mof_H 	H 	0.6578	0.5374	0.1871	0.106
Mof_H 	H 	0.6676	0.5911	0.2404	0.08
Mof_C 	C 	0.6221	0.5428	0.3133	0.502
Mof_C 	C 	0.3392	0.3029	0.531	0.337
Mof_C 	C 	0.3228	0.19	0.5234	-0.114
Mof_C 	C 	0.2976	0.1892	0.5418	0.772
Mof_C 	C 	0.27	0.087	0.5072	-0.6
Mof_H 	H 	0.2858	0.0243	0.5325	0.201
Mof_C 	C 	0.2642	0.0788	0.4562	0.271
Mof_H 	H 	0.2351	0.0919	0.4205	-0.053
Mof_H 	H 	0.2711	0.0068	0.4539	-0.071
Mof_C 	C 	0.2913	0.1581	0.46	-0.264
Mof_H 	H 	0.3045	0.1251	0.4489	0.109
Mof_H 	H 	0.2751	0.2193	0.4345	0.113
Mof_C 	C 	0.3581	0.1154	0.5551	-0.365
Mof_H 	H 	0.3488	0.0439	0.5516	0.132
Mof_H 	H 	0.3794	0.1351	0.5962	0.132
Mof_H 	H 	0.3693	0.1184	0.5382	0.145
Mof_C 	C 	0.3248	0.1719	0.6072	-1.341
Mof_H 	H 	0.3421	0.2338	0.6287	0.435
Mof_H 	H 	0.3422	0.1102	0.6201	0.424
Mof_H 	H 	0.3075	0.1607	0.6143	0.437
Mof_C 	C 	0.2729	0.2894	0.5229	-1.391
Mof_H 	H 	0.2916	0.3489	0.5452	0.451
Mof_H 	H 	0.2555	0.2826	0.53	0.448
Mof_H 	H 	0.2559	0.3013	0.4815	0.456
Mof_C 	C 	0.2312	0.0927	0.4931	0.526
Mof_C 	C 	0.4312	0.874	0.6288	0.345
Mof_C 	C 	0.4696	0.9366	0.6705	-0.367
Mof_H 	H 	0.4615	0.0122	0.6611	0.128
Mof_C 	C 	0.4951	0.9229	0.7355	0.089
Mof_H 	H 	0.4891	0.9807	0.7491	0.009
Mof_H 	H 	0.4879	0.8557	0.742	0.006
Mof_C 	C 	0.5406	0.9235	0.7697	-0.192
Mof_H 	H 	0.552	0.8516	0.7816	0.08
Mof_H 	H 	0.5563	0.9681	0.8047	0.108
Mof_C 	C 	0.5415	0.9703	0.7254	-0.094
Mof_C 	C 	0.5407	0.0869	0.72	-0.432
Mof_H 	H 	0.5418	0.1054	0.6917	0.148
Mof_H 	H 	0.5643	0.1173	0.7578	0.162
Mof_H 	H 	0.5154	0.1144	0.7069	0.147
Mof_C 	C 	0.5024	0.9169	0.6664	0.588
Mof_C 	C 	0.4879	0.9651	0.61	-1.059
Mof_H 	H 	0.5082	0.95	0.6087	0.351
Mof_H 	H 	0.4848	0.0411	0.61	0.33
Mof_H 	H 	0.4616	0.9342	0.5759	0.356
Mof_C 	C 	0.5066	0.799	0.6649	-1.131
Mof_H 	H 	0.5264	0.7846	0.6625	0.358
Mof_H 	H 	0.48	0.7691	0.6309	0.369
Mof_H 	H 	0.5162	0.7672	0.7002	0.366
Mof_C 	C 	0.5798	0.9404	0.7386	0.376
Mof_C 	C 	0.282	0.6595	0.3829	0.377
Mof_C 	C 	0.2582	0.7307	0.3286	-0.42
Mof_H 	H 	0.2287	0.7134	0.3038	0.149
Mof_C 	C 	0.2613	0.8468	0.3385	0.105
Mof_H 	H 	0.2886	0.867	0.3762	0.004
Mof_H 	H 	0.2401	0.8721	0.3369	-0.01
Mof_C 	C 	0.2535	0.8901	0.2849	-0.154
Mof_H 	H 	0.2288	0.9351	0.2601	0.075
Mof_H 	H 	0.2771	0.9335	0.2996	0.082
Mof_C 	C 	0.2478	0.8005	0.249	-0.132
Mof_C 	C 	0.1983	0.781	0.1963	-0.347
Mof_H 	H 	0.193	0.7233	0.1717	0.119
Mof_H 	H 	0.1851	0.8449	0.173	0.117
Mof_H 	H 	0.1874	0.763	0.2127	0.115
Mof_C 	C 	0.2668	0.7007	0.2908	0.624
Mof_C 	C 	0.2504	0.5899	0.2614	-1.136
Mof_H 	H 	0.2207	0.5873	0.2359	0.369
Mof_H 	H 	0.2634	0.5358	0.2914	0.375
Mof_H 	H 	0.2567	0.5774	0.2385	0.367
Mof_C 	C 	0.3133	0.6976	0.3294	-1.146
Mof_H 	H 	0.3252	0.6372	0.3555	0.374
Mof_H 	H 	0.3258	0.7623	0.3522	0.378
Mof_H 	H 	0.3185	0.6915	0.3048	0.365
Mof_C 	C 	0.2624	0.8163	0.2183	0.303
Mof_N 	N 	0.2622	0.6278	0.8252	-0.153
Mof_N 	N 	0.3493	0.9069	0.8395	-0.135
Mof_N 	N 	0.3039	0.8736	0.7418	-0.104
Mof_N 	N 	0.33126	0.9513	0.7574	-0.089
Mof_N 	N 	0.3431	0.9486	0.6942	-0.091
Mof_N 	N 	0.3848	0.9596	0.727	-0.11
Mof_N 	N 	0.3537	0.8583	0.6476	-0.158
Mof_N 	N 	0.4569	0.1945	0.9346	-0.136
Mof_N 	N 	0.5226	0.7542	0.9788	-0.129
Mof_N 	N 	0.5173	0.0595	0.8713	-0.146
Mof_N 	N 	0.58086	0.0107	0.9198	-0.112
Mof_N 	N 	0.5727	0.094	0.8856	-0.106
Mof_N 	N 	0.66205	0.0015	0.05589	-0.107
Mof_N 	N 	0.65388	0.0072	0.00658	-0.105
Mof_C 	C 	0.68178	0.0726	0.01685	0.054
Mof_H 	H 	0.6833	0.0909	0.9899	0.021
Mof_N 	N 	0.70719	0.1074	0.0725	-0.156
Mof_C 	C 	0.69499	0.0634	0.09663	0.065
Mof_H 	H 	0.7073	0.0741	0.1351	-0.01
Mof_N 	N 	0.4612	0.3499	0.719	-0.158
Mof_N 	N 	0.4546	0.4324	0.6189	-0.153
Mof_N 	N 	0.5514	0.4162	0.5862	-0.141
Mof_N 	N 	0.5302	0.2438	0.5742	-0.098
Mof_N 	N 	0.5562	0.2546	0.5671	-0.086
Mof_N 	N 	0.5887	0.0892	0.5889	-0.091
Mof_N 	N 	0.6181	0.0506	0.5939	-0.114
Mof_C 	C 	0.6392	0.98	0.6368	0.119
Mof_H 	H 	0.6619	0.9404	0.6497	-0.019
Mof_N 	N 	0.6228	0.9749	0.6582	-0.154
Mof_C 	C 	0.5915	0.0424	0.6286	0.084
Mof_H 	H 	0.5744	0.0549	0.6347	0.011
Mof_N 	N 	0.6395	0.4722	0.5419	-0.154
Mof_O 	O 	0.2051	0.6251	0.8634	-0.306
Mof_O 	O 	0.169	0.6043	0.7703	-0.332
Mof_O 	O 	0.1841	0.1052	0.8114	-0.335
Mof_O 	O 	0.1982	0.0754	0.8845	-0.309
Mof_O 	O 	0.3021	0.5502	0.9547	-0.263
Mof_O 	O 	0.295	0.3927	0.9209	-0.322
Mof_O 	O 	0.47019	0.3408	0.032	-0.343
Mof_O 	O 	0.46922	0.5184	0.0297	-0.345
Mof_O 	O 	0.55791	0.4302	0.0896	-0.307
Mof_O 	O 	0.56065	0.6078	0.0915	-0.332
Mof_O 	O 	0.62	0.4611	0.3331	-0.363
Mof_O 	O 	0.6125	0.6327	0.3169	-0.388
Mof_O 	O 	0.3723	0.3311	0.5786	-0.317
Mof_O 	O 	0.3156	0.3609	0.4861	-0.315
Mof_O 	O 	0.2303	0.0646	0.528	-0.397
Mof_O 	O 	0.1994	0.1334	0.445	-0.375
Mof_O 	O 	0.4237	0.7999	0.6508	-0.282
Mof_O 	O 	0.4053	0.9014	0.5745	-0.284
Mof_O 	O 	0.61	0.9122	0.7878	-0.281
Mof_O 	O 	0.5831	0.9481	0.7054	-0.35
Mof_O 	O 	0.31394	0.6976	0.4338	-0.294
Mof_O 	O 	0.2704	0.5662	0.3783	-0.317
Mof_O 	O 	0.2816	0.9027	0.2276	-0.292
Mof_O 	O 	0.2561	0.7403	0.187	-0.311
Mof_O 	O 	0.37814	0.5996	0.5703	-0.254
Mof_O 	O 	0.19832	0.3738	0.8406	-0.235
Mof_Cd	Cd	0.7381	0.00656	0.85208	0.436
Mof_Cd	Cd	0.73766	0.72798	0.8775	0.435
Mof_Cd	Cd	0.91341	0.97056	0.63851	0.428
Mof_Cd	Cd	0.82167	0.03232	0.48094	0.469
Mof_Cd	Cd	0.85755	0.22198	0.59909	0.438
Mof_Cd	Cd	0.14603	0.40985	0.7449	0.422
Mof_C 	C 	0.7465	0.1397	0.7708	0.06
Mof_H 	H 	0.7233	0.099	0.7404	0.01
Mof_C 	C 	0.7623	0.2075	0.7573	-0.147
Mof_H 	H 	0.7508	0.2108	0.7189	0.072
Mof_C 	C 	0.7957	0.2716	0.8012	0.046
Mof_C 	C 	0.8115	0.265	0.8575	-0.13
Mof_H 	H 	0.8337	0.3081	0.8878	0.077
Mof_C 	C 	0.7939	0.1935	0.8682	0.029
Mof_H 	H 	0.8041	0.1905	0.9058	0.02
Mof_C 	C 	0.816	0.3497	0.7931	0.06
Mof_C 	C 	0.8249	0.5048	0.711	-0.024
Mof_H 	H 	0.7951	0.5125	0.6765	0.062
Mof_H 	H 	0.8369	0.576	0.7244	0.033
Mof_C 	C 	0.8254	0.3904	0.6464	0.065
Mof_H 	H 	0.7971	0.3748	0.6165	-0.003
Mof_C 	C 	0.889	0.4022	0.6986	0.058
Mof_H 	H 	0.9149	0.3906	0.7121	0.013
Mof_C 	C 	0.8583	0.4686	0.8163	0.064
Mof_C 	C 	0.8917	0.5482	0.8536	0.054
Mof_C 	C 	0.9162	0.5908	0.8452	-0.138
Mof_H 	H 	0.9115	0.5708	0.8126	0.081
Mof_C 	C 	0.9478	0.6637	0.8867	0.078
Mof_H 	H 	0.9633	0.6923	0.8801	0.014
Mof_C 	C 	0.9348	0.6479	0.9436	0.069
Mof_H 	H 	0.9427	0.6618	0.9791	0.015
Mof_C 	C 	0.9016	0.5813	0.9038	-0.139
Mof_H 	H 	0.8856	0.5581	0.9106	0.079
Mof_C 	C 	0.9915	0.2969	0.9244	0.084
Mof_H 	H 	0.9645	0.2706	0.8997	-0.03
Mof_C 	C 	0.0003	0.3798	0.9055	-0.149
Mof_H 	H 	0.9785	0.4171	0.8711	0.084
Mof_C 	C 	0.0402	0.4073	0.9365	0.052
Mof_C 	C 	0.072	0.3606	0.9918	-0.093
Mof_H 	H 	0.0998	0.38	0.0152	0.061
Mof_C 	C 	0.0614	0.285	0.0107	0.041
Mof_H 	H 	0.0825	0.2541	0.0477	0.021
Mof_C 	C 	0.0467	0.4908	0.9099	0.082
Mof_C 	C 	0.1199	0.4517	0.953	-0.004
Mof_H 	H 	0.1172	0.3809	0.9625	0.041
Mof_H 	H 	0.1256	0.4436	0.9288	0.048
Mof_C 	C 	0.0341	0.6203	0.8574	0.076
Mof_C 	C 	0.0095	0.7009	0.8099	0.05
Mof_C 	C 	0.9675	0.7086	0.7747	-0.143
Mof_H 	H 	0.9547	0.6643	0.7817	0.079
Mof_C 	C 	0.9443	0.7798	0.7298	0.068
Mof_H 	H 	0.9156	0.7806	0.7053	0.002
Mof_C 	C 	0.0015	0.8463	0.7535	0.066
Mof_H 	H 	0.0136	0.8968	0.7477	0
Mof_C 	C 	0.0277	0.7706	0.7987	-0.141
Mof_H 	H 	0.0559	0.7668	0.8203	0.07
Mof_C 	C 	0.9806	0.0011	0.6266	0.013
Mof_H 	H 	0.9822	0.0701	0.6391	0.005
Mof_C 	C 	0.0056	0.9765	0.6173	-0.062
Mof_H 	H 	0.0229	0.0281	0.6226	0.032
Mof_C 	C 	0.0045	0.875	0.6	0.013
Mof_C 	C 	0.9778	0.8004	0.5929	-0.096
Mof_H 	H 	0.9764	0.7303	0.5817	0.05
Mof_C 	C 	0.9538	0.8323	0.6027	0.052
Mof_H 	H 	0.9362	0.7824	0.5979	0.017
Mof_C 	C 	0.0279	0.8451	0.5858	0.089
Mof_C 	C 	0.05639	0.664	0.5362	-0.023
Mof_H 	H 	0.0653	0.6874	0.5173	0.047
Mof_H 	H 	0.0292	0.6303	0.507	0.047
Mof_C 	C 	0.06646	0.8563	0.5709	0.091
Mof_C 	C 	0.09241	0.8981	0.562	0.019
Mof_C 	C 	0.08413	0.988	0.5366	-0.063
Mof_H 	H 	0.063	0.0309	0.5262	0.04
Mof_C 	C 	0.1066	0.0207	0.5246	0.007
Mof_H 	H 	0.0977	0.0827	0.5022	0.028
Mof_C 	C 	0.1509	0.8834	0.5734	0.063
Mof_H 	H 	0.1749	0.8494	0.5877	0.018
Mof_C 	C 	0.131	0.838	0.5865	-0.123
Mof_H 	H 	0.1402	0.7755	0.6085	0.074
Mof_C 	C 	0.8182	0.9596	0.9598	0.32
Mof_C 	C 	0.8635	0.9439	0.0111	-0.115
Mof_C 	C 	0.8886	0.0444	0.0471	-0.216
Mof_H 	H 	0.8769	0.1063	0.0212	0.086
Mof_H 	H 	0.8878	0.0571	0.0765	0.095
Mof_C 	C 	0.9333	0.0258	0.0771	0.158
Mof_H 	H 	0.9435	0.0873	0.0718	-0.024
Mof_H 	H 	0.9514	0.0135	0.1192	-0.04
Mof_C 	C 	0.9317	0.9298	0.048	-0.482
Mof_H 	H 	0.9417	0.8698	0.0751	0.175
Mof_C 	C 	0.8869	0.9049	0.9924	0.687
Mof_C 	C 	0.8729	0.9757	0.9424	-1.195
Mof_H 	H 	0.8443	0.9605	0.9073	0.388
Mof_H 	H 	0.89	0.9621	0.9351	0.402
Mof_H 	H 	0.8756	0.0494	0.9532	0.388
Mof_C 	C 	0.8773	0.7889	0.9723	-1.207
Mof_H 	H 	0.8858	0.744	0.0038	0.389
Mof_H 	H 	0.8922	0.7685	0.962	0.397
Mof_H 	H 	0.8478	0.7807	0.9383	0.398
Mof_C 	C 	0.8675	0.8587	0.0494	-0.377
Mof_H 	H 	0.8516	0.7966	0.0258	0.134
Mof_H 	H 	0.857	0.8867	0.0651	0.144
Mof_H 	H 	0.8963	0.8394	0.0815	0.131
Mof_C 	C 	0.9593	0.9312	0.0353	0.427
Mof_C 	C 	0.6765	0.1536	0.8105	0.414
Mof_C 	C 	0.6519	0.2572	0.7975	-0.472
Mof_H 	H 	0.6242	0.2505	0.757	0.171
Mof_C 	C 	0.645	0.2772	0.8351	0.188
Mof_H 	H 	0.6654	0.2382	0.872	-0.016
Mof_H 	H 	0.6174	0.2525	0.8156	-0.04
Mof_C 	C 	0.6488	0.3941	0.8474	-0.221
Mof_H 	H 	0.6736	0.4092	0.8887	0.099
Mof_H 	H 	0.6245	0.4202	0.8384	0.091
Mof_C 	C 	0.6518	0.4471	0.8058	-0.135
Mof_C 	C 	0.6725	0.3567	0.7983	0.669
Mof_C 	C 	0.6668	0.3654	0.7459	-1.223
Mof_H 	H 	0.6375	0.3658	0.7102	0.39
Mof_H 	H 	0.6799	0.3054	0.7454	0.398
Mof_H 	H 	0.6793	0.4306	0.7485	0.384
Mof_C 	C 	0.7197	0.3557	0.852	-1.18
Mof_H 	H 	0.7316	0.4202	0.8524	0.38
Mof_H 	H 	0.7316	0.2949	0.8496	0.389
Mof_H 	H 	0.7258	0.3514	0.8876	0.399
Mof_C 	C 	0.6107	0.4802	0.7488	-0.331
Mof_H 	H 	0.5925	0.4192	0.7296	0.117
Mof_H 	H 	0.6137	0.5099	0.724	0.117
Mof_H 	H 	0.599	0.5332	0.7557	0.126
Mof_C 	C 	0.6804	0.5454	0.8371	0.375
Mof_C 	C 	0.0741	0.017	0.1158	0.312
Mof_C 	C 	0.1117	0.0164	0.1837	-0.232
Mof_C 	C 	0.1234	0.9072	0.2128	-0.204
Mof_H 	H 	0.1419	0.871	0.2117	0.089
Mof_H 	H 	0.0984	0.864	0.1912	0.082
Mof_C 	C 	0.1453	0.9194	0.2779	0.314
Mof_H 	H 	0.1347	0.8682	0.2877	-0.072
Mof_H 	H 	0.1753	0.9107	0.3052	-0.077
Mof_C 	C 	0.1342	0.0296	0.2785	-0.734
Mof_H 	H 	0.1595	0.0725	0.2996	0.24
Mof_C 	C 	0.0999	0.082	0.2164	1.241
Mof_C 	C 	0.0585	0.055	0.1875	-2.194
Mof_H 	H 	0.0561	0.9786	0.1877	0.695
Mof_H 	H 	0.0392	0.0803	0.1474	0.693
Mof_H 	H 	0.0524	0.0878	0.2081	0.684
Mof_C 	C 	0.1068	0.1996	0.2181	-1.95
Mof_H 	H 	0.1349	0.2122	0.2368	0.611
Mof_H 	H 	0.1024	0.2349	0.2403	0.626
Mof_H 	H 	0.0876	0.2274	0.1785	0.623
Mof_C 	C 	0.1463	0.0778	0.1985	-0.235
Mof_H 	H 	0.1358	0.1448	0.1777	0.087
Mof_H 	H 	0.1578	0.0374	0.1871	0.09
Mof_H 	H 	0.1676	0.0911	0.2404	0.064
Mof_C 	C 	0.1221	0.0428	0.3133	0.495
Mof_C 	C 	0.8392	0.8029	0.531	0.335
Mof_C 	C 	0.8228	0.69	0.5234	-0.112
Mof_C 	C 	0.7976	0.6892	0.5418	0.778
Mof_C 	C 	0.77	0.587	0.5072	-0.603
Mof_H 	H 	0.7858	0.5243	0.5325	0.206
Mof_C 	C 	0.7642	0.5788	0.4562	0.272
Mof_H 	H 	0.7351	0.5919	0.4205	-0.052
Mof_H 	H 	0.7711	0.5068	0.4539	-0.067
Mof_C 	C 	0.7913	0.6581	0.46	-0.267
Mof_H 	H 	0.8045	0.6251	0.4489	0.112
Mof_H 	H 	0.7751	0.7193	0.4345	0.114
Mof_C 	C 	0.8581	0.6154	0.5551	-0.376
Mof_H 	H 	0.8488	0.5439	0.5516	0.139
Mof_H 	H 	0.8794	0.6351	0.5962	0.136
Mof_H 	H 	0.8693	0.6184	0.5382	0.15
Mof_C 	C 	0.8248	0.6719	0.6072	-1.353
Mof_H 	H 	0.8421	0.7338	0.6287	0.439
Mof_H 	H 	0.8422	0.6102	0.6201	0.43
Mof_H 	H 	0.8075	0.6607	0.6143	0.442
Mof_C 	C 	0.7729	0.7894	0.5229	-1.405
Mof_H 	H 	0.7916	0.8489	0.5452	0.458
Mof_H 	H 	0.7555	0.7826	0.53	0.454
Mof_H 	H 	0.7559	0.8013	0.4815	0.462
Mof_C 	C 	0.7312	0.5927	0.4931	0.529
Mof_C 	C 	0.9312	0.374	0.6288	0.356
Mof_C 	C 	0.9696	0.4366	0.6705	-0.407
Mof_H 	H 	0.9615	0.5122	0.6611	0.15
Mof_C 	C 	0.9951	0.4229	0.7355	0.105
Mof_H 	H 	0.9891	0.4807	0.7491	-0.001
Mof_H 	H 	0.9879	0.3557	0.742	0.001
Mof_C 	C 	0.0406	0.4235	0.7697	-0.183
Mof_H 	H 	0.052	0.3516	0.7816	0.076
Mof_H 	H 	0.0563	0.4681	0.8047	0.101
Mof_C 	C 	0.0415	0.4703	0.7254	-0.136
Mof_C 	C 	0.0407	0.5869	0.72	-0.364
Mof_H 	H 	0.0418	0.6054	0.6917	0.13
Mof_H 	H 	0.0643	0.6173	0.7578	0.146
Mof_H 	H 	0.0154	0.6144	0.7069	0.128
Mof_C 	C 	0.0024	0.4169	0.6664	0.63
Mof_C 	C 	0.9879	0.4651	0.61	-1.139
Mof_H 	H 	0.0082	0.45	0.6087	0.37
Mof_H 	H 	0.9848	0.5411	0.61	0.364
Mof_H 	H 	0.9616	0.4342	0.5759	0.377
Mof_C 	C 	0.0066	0.299	0.6649	-1.186
Mof_H 	H 	0.0264	0.2846	0.6625	0.373
Mof_H 	H 	0.98	0.2691	0.6309	0.386
Mof_H 	H 	0.0162	0.2672	0.7002	0.381
Mof_C 	C 	0.0798	0.4404	0.7386	0.39
Mof_C 	C 	0.782	0.1595	0.3829	0.377
Mof_C 	C 	0.7582	0.2307	0.3286	-0.418
Mof_H 	H 	0.7287	0.2134	0.3038	0.148
Mof_C 	C 	0.7613	0.3468	0.3385	0.103
Mof_H 	H 	0.7886	0.367	0.3762	0.002
Mof_H 	H 	0.7401	0.3721	0.3369	-0.012
Mof_C 	C 	0.7535	0.3901	0.2849	-0.15
Mof_H 	H 	0.7288	0.4351	0.2601	0.07
Mof_H 	H 	0.7771	0.4335	0.2996	0.077
Mof_C 	C 	0.7478	0.3005	0.249	-0.134
Mof_C 	C 	0.6983	0.281	0.1963	-0.341
Mof_H 	H 	0.693	0.2233	0.1717	0.116
Mof_H 	H 	0.6851	0.3449	0.173	0.112
Mof_H 	H 	0.6874	0.263	0.2127	0.113
Mof_C 	C 	0.7668	0.2007	0.2908	0.617
Mof_C 	C 	0.7504	0.0899	0.2614	-1.12
Mof_H 	H 	0.7207	0.0873	0.2359	0.362
Mof_H 	H 	0.7634	0.0358	0.2914	0.367
Mof_H 	H 	0.7567	0.0774	0.2385	0.359
Mof_C 	C 	0.8133	0.1976	0.3294	-1.135
Mof_H 	H 	0.8252	0.1372	0.3555	0.369
Mof_H 	H 	0.8258	0.2623	0.3522	0.374
Mof_H 	H 	0.8185	0.1915	0.3048	0.361
Mof_C 	C 	0.7624	0.3163	0.2183	0.304
Mof_N 	N 	0.7622	0.1278	0.8252	-0.154
Mof_N 	N 	0.8493	0.4069	0.8395	-0.135
Mof_N 	N 	0.8039	0.3736	0.7418	-0.106
Mof_N 	N 	0.83126	0.4513	0.7574	-0.096
Mof_N 	N 	0.8431	0.4486	0.6942	-0.1
Mof_N 	N 	0.8848	0.4596	0.727	-0.114
Mof_N 	N 	0.8537	0.3583	0.6476	-0.159
Mof_N 	N 	0.9569	0.6945	0.9346	-0.138
Mof_N 	N 	0.0226	0.2542	0.9788	-0.133
Mof_N 	N 	0.0173	0.5595	0.8713	-0.135
Mof_N 	N 	0.08086	0.5107	0.9198	-0.094
Mof_N 	N 	0.0727	0.594	0.8856	-0.104
Mof_N 	N 	0.16205	0.5015	0.05589	-0.103
Mof_N 	N 	0.15388	0.5072	0.00658	-0.095
Mof_C 	C 	0.18178	0.5726	0.01685	0.054
Mof_H 	H 	0.1833	0.5909	0.9899	0.024
Mof_N 	N 	0.20719	0.6074	0.0725	-0.155
Mof_C 	C 	0.19499	0.5634	0.09663	0.068
Mof_H 	H 	0.2073	0.5741	0.1351	-0.009
Mof_N 	N 	0.9612	0.8499	0.719	-0.155
Mof_N 	N 	0.9546	0.9324	0.6189	-0.132
Mof_N 	N 	0.0514	0.9162	0.5862	-0.142
Mof_N 	N 	0.0302	0.7438	0.5742	-0.1
Mof_N 	N 	0.0562	0.7546	0.5671	-0.09
Mof_N 	N 	0.0887	0.5892	0.5889	-0.093
Mof_N 	N 	0.1181	0.5506	0.5939	-0.105
Mof_C 	C 	0.1392	0.48	0.6368	0.101
Mof_H 	H 	0.1619	0.4404	0.6497	-0.015
Mof_N 	N 	0.1228	0.4749	0.6582	-0.161
Mof_C 	C 	0.0915	0.5424	0.6286	0.1
Mof_H 	H 	0.0744	0.5549	0.6347	0.009
Mof_N 	N 	0.1395	0.9722	0.5419	-0.127
Mof_O 	O 	0.7051	0.1251	0.8634	-0.308
Mof_O 	O 	0.669	0.1043	0.7703	-0.336
Mof_O 	O 	0.6841	0.6052	0.8114	-0.33
Mof_O 	O 	0.6982	0.5754	0.8845	-0.303
Mof_O 	O 	0.8021	0.0502	0.9547	-0.273
Mof_O 	O 	0.795	0.8927	0.9209	-0.319
Mof_O 	O 	0.97019	0.8408	0.032	-0.342
Mof_O 	O 	0.96922	0.0184	0.0297	-0.355
Mof_O 	O 	0.05791	0.9302	0.0896	-0.296
Mof_O 	O 	0.06065	0.1078	0.0915	-0.333
Mof_O 	O 	0.12	0.9611	0.3331	-0.352
Mof_O 	O 	0.1125	0.1327	0.3169	-0.39
Mof_O 	O 	0.8723	0.8311	0.5786	-0.316
Mof_O 	O 	0.8156	0.8609	0.4861	-0.31
Mof_O 	O 	0.7303	0.5646	0.528	-0.395
Mof_O 	O 	0.6994	0.6334	0.445	-0.374
Mof_O 	O 	0.9237	0.2999	0.6508	-0.287
Mof_O 	O 	0.9053	0.4014	0.5745	-0.294
Mof_O 	O 	0.11	0.4122	0.7878	-0.288
Mof_O 	O 	0.0831	0.4481	0.7054	-0.36
Mof_O 	O 	0.81394	0.1976	0.4338	-0.296
Mof_O 	O 	0.7704	0.0662	0.3783	-0.32
Mof_O 	O 	0.7816	0.4027	0.2276	-0.298
Mof_O 	O 	0.7561	0.2403	0.187	-0.312
Mof_O 	O 	0.87814	0.0996	0.5703	-0.259
Mof_O 	O 	0.69832	0.8738	0.8406	-0.231
Mof_Cd	Cd	0.7619	0.50656	0.14792	0.448
Mof_Cd	Cd	0.76234	0.22798	0.1225	0.428
Mof_Cd	Cd	0.58659	0.47056	0.36149	0.42
Mof_Cd	Cd	0.67833	0.53232	0.51906	0.48
Mof_Cd	Cd	0.64245	0.72198	0.40091	0.441
Mof_Cd	Cd	0.35397	0.90985	0.2551	0.428
Mof_C 	C 	0.7535	0.6397	0.2292	0.061
Mof_H 	H 	0.7767	0.599	0.2596	0.014
Mof_C 	C 	0.7377	0.7075	0.2427	-0.146
Mof_H 	H 	0.7492	0.7108	0.2811	0.073
Mof_C 	C 	0.7043	0.7716	0.1988	0.048
Mof_C 	C 	0.6885	0.765	0.1425	-0.132
Mof_H 	H 	0.6663	0.8081	0.1122	0.079
Mof_C 	C 	0.7061	0.6935	0.1318	0.03
Mof_H 	H 	0.6959	0.6905	0.0942	0.018
Mof_C 	C 	0.684	0.8497	0.2069	0.061
Mof_C 	C 	0.6751	0.0048	0.289	-0.049
Mof_H 	H 	0.7049	0.0125	0.3235	0.066
Mof_H 	H 	0.6631	0.076	0.2756	0.039
Mof_C 	C 	0.6746	0.8904	0.3536	0.066
Mof_H 	H 	0.7029	0.8748	0.3835	0
Mof_C 	C 	0.611	0.9022	0.3014	0.061
Mof_H 	H 	0.5851	0.8906	0.2879	0.014
Mof_C 	C 	0.6417	0.9686	0.1837	0.082
Mof_C 	C 	0.6083	0.0482	0.1464	0.032
Mof_C 	C 	0.5838	0.0908	0.1548	-0.129
Mof_H 	H 	0.5885	0.0708	0.1874	0.074
Mof_C 	C 	0.5522	0.1637	0.1133	0.069
Mof_H 	H 	0.5367	0.1923	0.1199	0.014
Mof_C 	C 	0.5652	0.1479	0.0564	0.06
Mof_H 	H 	0.5573	0.1618	0.0209	0.008
Mof_C 	C 	0.5984	0.0813	0.0962	-0.13
Mof_H 	H 	0.6144	0.0581	0.0894	0.07
Mof_C 	C 	0.5085	0.7969	0.0756	0.097
Mof_H 	H 	0.5355	0.7706	0.1003	-0.033
Mof_C 	C 	0.4997	0.8798	0.0945	-0.173
Mof_H 	H 	0.5215	0.9171	0.1289	0.094
Mof_C 	C 	0.4598	0.9073	0.0635	0.096
Mof_C 	C 	0.428	0.8606	0.0082	-0.211
Mof_H 	H 	0.4002	0.88	0.9848	0.118
Mof_C 	C 	0.4386	0.785	0.9893	0.144
Mof_H 	H 	0.4175	0.7541	0.9523	-0.011
Mof_C 	C 	0.4533	0.9908	0.0901	0.088
Mof_C 	C 	0.3801	0.9517	0.047	0.008
Mof_H 	H 	0.3828	0.8809	0.0375	0.033
Mof_H 	H 	0.3744	0.9436	0.0712	0.046
Mof_C 	C 	0.4659	0.1203	0.1426	0.072
Mof_C 	C 	0.4905	0.2009	0.1901	0.055
Mof_C 	C 	0.5325	0.2086	0.2253	-0.15
Mof_H 	H 	0.5453	0.1643	0.2183	0.079
Mof_C 	C 	0.5557	0.2798	0.2702	0.071
Mof_H 	H 	0.5844	0.2806	0.2947	0.001
Mof_C 	C 	0.4985	0.3463	0.2465	0.072
Mof_H 	H 	0.4864	0.3968	0.2523	-0.004
Mof_C 	C 	0.4723	0.2706	0.2013	-0.147
Mof_H 	H 	0.4441	0.2668	0.1797	0.071
Mof_C 	C 	0.5194	0.5011	0.3734	0.076
Mof_H 	H 	0.5178	0.5701	0.3609	-0.014
Mof_C 	C 	0.4944	0.4765	0.3827	-0.141
Mof_H 	H 	0.4771	0.5281	0.3774	0.068
Mof_C 	C 	0.4955	0.375	0.4	0.05
Mof_C 	C 	0.5222	0.3004	0.4071	-0.126
Mof_H 	H 	0.5236	0.2303	0.4183	0.059
Mof_C 	C 	0.5462	0.3323	0.3973	0.067
Mof_H 	H 	0.5638	0.2824	0.4021	0.011
Mof_C 	C 	0.4721	0.3451	0.4142	0.075
Mof_C 	C 	0.44361	0.164	0.4638	-0.026
Mof_H 	H 	0.4347	0.1874	0.4827	0.047
Mof_H 	H 	0.4708	0.1303	0.493	0.048
Mof_C 	C 	0.43354	0.3563	0.4291	0.074
Mof_C 	C 	0.40759	0.3981	0.438	0.066
Mof_C 	C 	0.41587	0.488	0.4634	-0.164
Mof_H 	H 	0.437	0.5309	0.4738	0.086
Mof_C 	C 	0.3934	0.5207	0.4754	0.087
Mof_H 	H 	0.4023	0.5827	0.4978	0.003
Mof_C 	C 	0.3491	0.3834	0.4266	0.081
Mof_H 	H 	0.3251	0.3494	0.4123	0.01
Mof_C 	C 	0.369	0.338	0.4135	-0.153
Mof_H 	H 	0.3598	0.2755	0.3915	0.084
Mof_C 	C 	0.6818	0.4596	0.0402	0.28
Mof_C 	C 	0.6365	0.4439	0.9889	-0.084
Mof_C 	C 	0.6114	0.5444	0.9529	-0.226
Mof_H 	H 	0.6231	0.6063	0.9788	0.098
Mof_H 	H 	0.6122	0.5571	0.9235	0.103
Mof_C 	C 	0.5667	0.5258	0.9229	0.176
Mof_H 	H 	0.5565	0.5873	0.9282	-0.025
Mof_H 	H 	0.5486	0.5135	0.8808	-0.041
Mof_C 	C 	0.5683	0.4298	0.952	-0.481
Mof_H 	H 	0.5583	0.3698	0.9249	0.174
Mof_C 	C 	0.6131	0.4049	0.0076	0.682
Mof_C 	C 	0.6271	0.4757	0.0576	-1.235
Mof_H 	H 	0.6557	0.4605	0.0927	0.397
Mof_H 	H 	0.61	0.4621	0.0649	0.406
Mof_H 	H 	0.6244	0.5494	0.0468	0.402
Mof_C 	C 	0.6227	0.2889	0.0277	-1.279
Mof_H 	H 	0.6142	0.244	0.9962	0.423
Mof_H 	H 	0.6078	0.2685	0.038	0.414
Mof_H 	H 	0.6522	0.2807	0.0617	0.417
Mof_C 	C 	0.6325	0.3587	0.9506	-0.408
Mof_H 	H 	0.6484	0.2966	0.9742	0.148
Mof_H 	H 	0.643	0.3867	0.9349	0.153
Mof_H 	H 	0.6037	0.3394	0.9185	0.139
Mof_C 	C 	0.5407	0.4312	0.9647	0.414
Mof_C 	C 	0.8235	0.6536	0.1895	0.415
Mof_C 	C 	0.8481	0.7572	0.2025	-0.478
Mof_H 	H 	0.8758	0.7505	0.243	0.175
Mof_C 	C 	0.855	0.7772	0.1649	0.179
Mof_H 	H 	0.8346	0.7382	0.128	-0.013
Mof_H 	H 	0.8826	0.7525	0.1844	-0.035
Mof_C 	C 	0.8512	0.8941	0.1526	-0.195
Mof_H 	H 	0.8264	0.9092	0.1113	0.093
Mof_H 	H 	0.8755	0.9202	0.1616	0.087
Mof_C 	C 	0.8482	0.9471	0.1942	-0.18
Mof_C 	C 	0.8275	0.8567	0.2017	0.699
Mof_C 	C 	0.8332	0.8654	0.2541	-1.262
Mof_H 	H 	0.8625	0.8658	0.2898	0.404
Mof_H 	H 	0.8201	0.8054	0.2546	0.41
Mof_H 	H 	0.8207	0.9306	0.2515	0.4
Mof_C 	C 	0.7803	0.8557	0.148	-1.212
Mof_H 	H 	0.7684	0.9202	0.1476	0.394
Mof_H 	H 	0.7684	0.7949	0.1504	0.399
Mof_H 	H 	0.7742	0.8514	0.1124	0.41
Mof_C 	C 	0.8893	0.9802	0.2512	-0.174
Mof_H 	H 	0.9075	0.9192	0.2704	0.073
Mof_H 	H 	0.8863	0.0099	0.276	0.061
Mof_H 	H 	0.901	0.0332	0.2443	0.071
Mof_C 	C 	0.8196	0.0454	0.1629	0.382
Mof_C 	C 	0.4259	0.517	0.8842	0.317
Mof_C 	C 	0.3883	0.5164	0.8163	-0.199
Mof_C 	C 	0.3766	0.4072	0.7872	-0.222
Mof_H 	H 	0.3581	0.371	0.7883	0.092
Mof_H 	H 	0.4016	0.364	0.8088	0.087
Mof_C 	C 	0.3547	0.4194	0.7221	0.292
Mof_H 	H 	0.3653	0.3682	0.7123	-0.066
Mof_H 	H 	0.3247	0.4107	0.6948	-0.074
Mof_C 	C 	0.3658	0.5296	0.7215	-0.698
Mof_H 	H 	0.3405	0.5725	0.7004	0.231
Mof_C 	C 	0.4001	0.582	0.7836	1.18
Mof_C 	C 	0.4415	0.555	0.8125	-2.069
Mof_H 	H 	0.4439	0.4786	0.8123	0.649
Mof_H 	H 	0.4608	0.5803	0.8526	0.658
Mof_H 	H 	0.4476	0.5878	0.7919	0.65
Mof_C 	C 	0.3932	0.6996	0.7819	-1.88
Mof_H 	H 	0.3651	0.7122	0.7632	0.59
Mof_H 	H 	0.3976	0.7349	0.7597	0.606
Mof_H 	H 	0.4124	0.7274	0.8215	0.603
Mof_C 	C 	0.3537	0.5778	0.8015	-0.277
Mof_H 	H 	0.3642	0.6448	0.8223	0.101
Mof_H 	H 	0.3422	0.5374	0.8129	0.106
Mof_H 	H 	0.3324	0.5911	0.7596	0.081
Mof_C 	C 	0.3779	0.5428	0.6867	0.502
Mof_C 	C 	0.6608	0.3029	0.469	0.337
Mof_C 	C 	0.6772	0.19	0.4766	-0.114
Mof_C 	C 	0.7024	0.1892	0.4582	0.772
Mof_C 	C 	0.73	0.087	0.4928	-0.6
Mof_H 	H 	0.7142	0.0243	0.4675	0.201
Mof_C 	C 	0.7358	0.0788	0.5438	0.271
Mof_H 	H 	0.7649	0.0919	0.5795	-0.053
Mof_H 	H 	0.7289	0.0068	0.5461	-0.071
Mof_C 	C 	0.7087	0.1581	0.54	-0.264
Mof_H 	H 	0.6955	0.1251	0.5511	0.109
Mof_H 	H 	0.7249	0.2193	0.5655	0.113
Mof_C 	C 	0.6419	0.1154	0.4449	-0.365
Mof_H 	H 	0.6512	0.0439	0.4484	0.132
Mof_H 	H 	0.6206	0.1351	0.4038	0.132
Mof_H 	H 	0.6307	0.1184	0.4618	0.145
Mof_C 	C 	0.6752	0.1719	0.3928	-1.341
Mof_H 	H 	0.6579	0.2338	0.3713	0.435
Mof_H 	H 	0.6578	0.1102	0.3799	0.424
Mof_H 	H 	0.6925	0.1607	0.3857	0.437
Mof_C 	C 	0.7271	0.2894	0.4771	-1.391
Mof_H 	H 	0.7084	0.3489	0.4548	0.451
Mof_H 	H 	0.7445	0.2826	0.47	0.448
Mof_H 	H 	0.7441	0.3013	0.5185	0.456
Mof_C 	C 	0.7688	0.0927	0.5069	0.526
Mof_C 	C 	0.5688	0.874	0.3712	0.345
Mof_C 	C 	0.5304	0.9366	0.3295	-0.367
Mof_H 	H 	0.5385	0.0122	0.3389	0.127
Mof_C 	C 	0.5049	0.9229	0.2645	0.088
Mof_H 	H 	0.5109	0.9807	0.2509	0.009
Mof_H 	H 	0.5121	0.8557	0.258	0.006
Mof_C 	C 	0.4594	0.9235	0.2303	-0.191
Mof_H 	H 	0.448	0.8516	0.2184	0.08
Mof_H 	H 	0.4437	0.9681	0.1953	0.108
Mof_C 	C 	0.4585	0.9703	0.2746	-0.094
Mof_C 	C 	0.4593	0.0869	0.28	-0.432
Mof_H 	H 	0.4582	0.1054	0.3083	0.148
Mof_H 	H 	0.4357	0.1173	0.2422	0.162
Mof_H 	H 	0.4846	0.1144	0.2931	0.147
Mof_C 	C 	0.4976	0.9169	0.3336	0.588
Mof_C 	C 	0.5121	0.9651	0.39	-1.059
Mof_H 	H 	0.4918	0.95	0.3913	0.351
Mof_H 	H 	0.5152	0.0411	0.39	0.33
Mof_H 	H 	0.5384	0.9342	0.4241	0.356
Mof_C 	C 	0.4934	0.799	0.3351	-1.131
Mof_H 	H 	0.4736	0.7846	0.3375	0.358
Mof_H 	H 	0.52	0.7691	0.3691	0.369
Mof_H 	H 	0.4838	0.7672	0.2998	0.366
Mof_C 	C 	0.4202	0.9404	0.2614	0.377
Mof_C 	C 	0.718	0.6595	0.6171	0.377
Mof_C 	C 	0.7418	0.7307	0.6714	-0.42
Mof_H 	H 	0.7713	0.7134	0.6962	0.149
Mof_C 	C 	0.7387	0.8468	0.6615	0.105
Mof_H 	H 	0.7114	0.867	0.6238	0.004
Mof_H 	H 	0.7599	0.8721	0.6631	-0.01
Mof_C 	C 	0.7465	0.8901	0.7151	-0.154
Mof_H 	H 	0.7712	0.9351	0.7399	0.075
Mof_H 	H 	0.7229	0.9335	0.7004	0.081
Mof_C 	C 	0.7522	0.8005	0.751	-0.132
Mof_C 	C 	0.8017	0.781	0.8037	-0.346
Mof_H 	H 	0.807	0.7233	0.8283	0.119
Mof_H 	H 	0.8149	0.8449	0.827	0.116
Mof_H 	H 	0.8126	0.763	0.7873	0.115
Mof_C 	C 	0.7332	0.7007	0.7092	0.624
Mof_C 	C 	0.7496	0.5899	0.7386	-1.136
Mof_H 	H 	0.7793	0.5873	0.7641	0.369
Mof_H 	H 	0.7366	0.5358	0.7086	0.375
Mof_H 	H 	0.7433	0.5774	0.7615	0.367
Mof_C 	C 	0.6867	0.6976	0.6706	-1.146
Mof_H 	H 	0.6748	0.6372	0.6445	0.374
Mof_H 	H 	0.6742	0.7623	0.6478	0.378
Mof_H 	H 	0.6815	0.6915	0.6952	0.365
Mof_C 	C 	0.7376	0.8163	0.7817	0.303
Mof_N 	N 	0.7378	0.6278	0.1748	-0.154
Mof_N 	N 	0.6507	0.9069	0.1605	-0.136
Mof_N 	N 	0.6961	0.8736	0.2582	-0.104
Mof_N 	N 	0.66874	0.9513	0.2426	-0.089
Mof_N 	N 	0.6569	0.9486	0.3058	-0.091
Mof_N 	N 	0.6152	0.9596	0.273	-0.111
Mof_N 	N 	0.6463	0.8583	0.3524	-0.158
Mof_N 	N 	0.5431	0.1945	0.0654	-0.14
Mof_N 	N 	0.4774	0.7542	0.0212	-0.163
Mof_N 	N 	0.4827	0.0595	0.1287	-0.143
Mof_N 	N 	0.41914	0.0107	0.0802	-0.108
Mof_N 	N 	0.4273	0.094	0.1144	-0.107
Mof_N 	N 	0.33795	0.0015	0.94411	-0.105
Mof_N 	N 	0.34612	0.0072	0.99342	-0.1
Mof_C 	C 	0.31822	0.0726	0.98315	0.095
Mof_H 	H 	0.3167	0.0909	0.0101	-0.006
Mof_N 	N 	0.29281	0.1074	0.9275	-0.161
Mof_C 	C 	0.30501	0.0634	0.90337	0.067
Mof_H 	H 	0.2927	0.0741	0.8649	-0.011
Mof_N 	N 	0.5388	0.3499	0.281	-0.158
Mof_N 	N 	0.5454	0.4324	0.3811	-0.153
Mof_N 	N 	0.4486	0.4162	0.4138	-0.141
Mof_N 	N 	0.4698	0.2438	0.4258	-0.098
Mof_N 	N 	0.4438	0.2546	0.4329	-0.086
Mof_N 	N 	0.4113	0.0892	0.4111	-0.091
Mof_N 	N 	0.3819	0.0506	0.4061	-0.114
Mof_C 	C 	0.3608	0.98	0.3632	0.119
Mof_H 	H 	0.3381	0.9404	0.3503	-0.019
Mof_N 	N 	0.3772	0.9749	0.3418	-0.154
Mof_C 	C 	0.4085	0.0424	0.3714	0.084
Mof_H 	H 	0.4256	0.0549	0.3653	0.011
Mof_N 	N 	0.3605	0.4722	0.4581	-0.154
Mof_O 	O 	0.7949	0.6251	0.1366	-0.308
Mof_O 	O 	0.831	0.6043	0.2297	-0.333
Mof_O 	O 	0.8159	0.1052	0.1886	-0.335
Mof_O 	O 	0.8018	0.0754	0.1155	-0.313
Mof_O 	O 	0.6979	0.5502	0.0453	-0.263
Mof_O 	O 	0.705	0.3927	0.0791	-0.316
Mof_O 	O 	0.52981	0.3408	0.968	-0.333
Mof_O 	O 	0.53078	0.5184	0.9703	-0.335
Mof_O 	O 	0.44209	0.4302	0.9104	-0.302
Mof_O 	O 	0.43935	0.6078	0.9085	-0.328
Mof_O 	O 	0.38	0.4611	0.6669	-0.363
Mof_O 	O 	0.3875	0.6327	0.6831	-0.388
Mof_O 	O 	0.6277	0.3311	0.4214	-0.317
Mof_O 	O 	0.6844	0.3609	0.5139	-0.315
Mof_O 	O 	0.7697	0.0646	0.472	-0.397
Mof_O 	O 	0.8006	0.1334	0.555	-0.375
Mof_O 	O 	0.5763	0.7999	0.3492	-0.282
Mof_O 	O 	0.5947	0.9014	0.4255	-0.284
Mof_O 	O 	0.39	0.9122	0.2122	-0.282
Mof_O 	O 	0.4169	0.9481	0.2946	-0.35
Mof_O 	O 	0.68606	0.6976	0.5662	-0.294
Mof_O 	O 	0.7296	0.5662	0.6217	-0.317
Mof_O 	O 	0.7184	0.9027	0.7724	-0.293
Mof_O 	O 	0.7439	0.7403	0.813	-0.311
Mof_O 	O 	0.62186	0.5996	0.4297	-0.254
Mof_O 	O 	0.80168	0.3738	0.1594	-0.237
Mof_Cd	Cd	0.2619	0.00656	0.14792	0.435
Mof_Cd	Cd	0.26234	0.72798	0.1225	0.43
Mof_Cd	Cd	0.08659	0.97056	0.36149	0.428
Mof_Cd	Cd	0.17833	0.03232	0.51906	0.469
Mof_Cd	Cd	0.14245	0.22198	0.40091	0.438
Mof_Cd	Cd	0.85397	0.40985	0.2551	0.423
Mof_C 	C 	0.2535	0.1397	0.2292	0.06
Mof_H 	H 	0.2767	0.099	0.2596	0.01
Mof_C 	C 	0.2377	0.2075	0.2427	-0.147
Mof_H 	H 	0.2492	0.2108	0.2811	0.072
Mof_C 	C 	0.2043	0.2716	0.1988	0.046
Mof_C 	C 	0.1885	0.265	0.1425	-0.132
Mof_H 	H 	0.1663	0.3081	0.1122	0.077
Mof_C 	C 	0.2061	0.1935	0.1318	0.03
Mof_H 	H 	0.1959	0.1905	0.0942	0.017
Mof_C 	C 	0.184	0.3497	0.2069	0.06
Mof_C 	C 	0.1751	0.5048	0.289	-0.024
Mof_H 	H 	0.2049	0.5125	0.3235	0.062
Mof_H 	H 	0.1631	0.576	0.2756	0.033
Mof_C 	C 	0.1746	0.3904	0.3536	0.065
Mof_H 	H 	0.2029	0.3748	0.3835	-0.003
Mof_C 	C 	0.111	0.4022	0.3014	0.058
Mof_H 	H 	0.0851	0.3906	0.2879	0.013
Mof_C 	C 	0.1417	0.4686	0.1837	0.064
Mof_C 	C 	0.1083	0.5482	0.1464	0.054
Mof_C 	C 	0.0838	0.5908	0.1548	-0.14
Mof_H 	H 	0.0885	0.5708	0.1874	0.081
Mof_C 	C 	0.0522	0.6637	0.1133	0.077
Mof_H 	H 	0.0367	0.6923	0.1199	0.011
Mof_C 	C 	0.0652	0.6479	0.0564	0.069
Mof_H 	H 	0.0573	0.6618	0.0209	0.007
Mof_C 	C 	0.0984	0.5813	0.0962	-0.141
Mof_H 	H 	0.1144	0.5581	0.0894	0.078
Mof_C 	C 	0.0085	0.2969	0.0756	0.079
Mof_H 	H 	0.0355	0.2706	0.1003	-0.03
Mof_C 	C 	0.9997	0.3798	0.0945	-0.154
Mof_H 	H 	0.0215	0.4171	0.1289	0.081
Mof_C 	C 	0.9598	0.4073	0.0635	0.089
Mof_C 	C 	0.928	0.3606	0.0082	-0.203
Mof_H 	H 	0.9002	0.38	0.9848	0.112
Mof_C 	C 	0.9386	0.285	0.9893	0.136
Mof_H 	H 	0.9175	0.2541	0.9523	-0.009
Mof_C 	C 	0.9533	0.4908	0.0901	0.068
Mof_C 	C 	0.8801	0.4517	0.047	-0.02
Mof_H 	H 	0.8828	0.3809	0.0375	0.04
Mof_H 	H 	0.8744	0.4436	0.0712	0.05
Mof_C 	C 	0.9659	0.6203	0.1426	0.073
Mof_C 	C 	0.9905	0.7009	0.1901	0.064
Mof_C 	C 	0.0325	0.7086	0.2253	-0.16
Mof_H 	H 	0.0453	0.6643	0.2183	0.083
Mof_C 	C 	0.0557	0.7798	0.2702	0.076
Mof_H 	H 	0.0844	0.7806	0.2947	-0.001
Mof_C 	C 	0.9985	0.8463	0.2465	0.079
Mof_H 	H 	0.9864	0.8968	0.2523	-0.002
Mof_C 	C 	0.9723	0.7706	0.2013	-0.151
Mof_H 	H 	0.9441	0.7668	0.1797	0.074
Mof_C 	C 	0.0194	0.0011	0.3734	0.004
Mof_H 	H 	0.0178	0.0701	0.3609	0.006
Mof_C 	C 	0.9944	0.9765	0.3827	-0.053
Mof_H 	H 	0.9771	0.0281	0.3774	0.031
Mof_C 	C 	0.9955	0.875	0.4	0.017
Mof_C 	C 	0.0222	0.8004	0.4071	-0.104
Mof_H 	H 	0.0236	0.7303	0.4183	0.05
Mof_C 	C 	0.0462	0.8323	0.3973	0.053
Mof_H 	H 	0.0638	0.7824	0.4021	0.016
Mof_C 	C 	0.9721	0.8451	0.4142	0.09
Mof_C 	C 	0.94361	0.664	0.4638	-0.024
Mof_H 	H 	0.9347	0.6874	0.4827	0.048
Mof_H 	H 	0.9708	0.6303	0.493	0.049
Mof_C 	C 	0.93354	0.8563	0.4291	0.092
Mof_C 	C 	0.90759	0.8981	0.438	0.019
Mof_C 	C 	0.91587	0.988	0.4634	-0.063
Mof_H 	H 	0.937	0.0309	0.4738	0.042
Mof_C 	C 	0.8934	0.0207	0.4754	0.008
Mof_H 	H 	0.9023	0.0827	0.4978	0.028
Mof_C 	C 	0.8491	0.8834	0.4266	0.064
Mof_H 	H 	0.8251	0.8494	0.4123	0.018
Mof_C 	C 	0.869	0.838	0.4135	-0.123
Mof_H 	H 	0.8598	0.7755	0.3915	0.075
Mof_C 	C 	0.1818	0.9596	0.0402	0.289
Mof_C 	C 	0.1365	0.9439	0.9889	-0.062
Mof_C 	C 	0.1114	0.0444	0.9529	-0.24
Mof_H 	H 	0.1231	0.1063	0.9788	0.101
Mof_H 	H 	0.1122	0.0571	0.9235	0.103
Mof_C 	C 	0.0667	0.0258	0.9229	0.161
Mof_H 	H 	0.0565	0.0873	0.9282	-0.023
Mof_H 	H 	0.0486	0.0135	0.8808	-0.043
Mof_C 	C 	0.0683	0.9298	0.952	-0.458
Mof_H 	H 	0.0583	0.8698	0.9249	0.168
Mof_C 	C 	0.1131	0.9049	0.0076	0.649
Mof_C 	C 	0.1271	0.9757	0.0576	-1.156
Mof_H 	H 	0.1557	0.9605	0.0927	0.377
Mof_H 	H 	0.11	0.9621	0.0649	0.387
Mof_H 	H 	0.1244	0.0494	0.0468	0.371
Mof_C 	C 	0.1227	0.7889	0.0277	-1.246
Mof_H 	H 	0.1142	0.744	0.9962	0.413
Mof_H 	H 	0.1078	0.7685	0.038	0.405
Mof_H 	H 	0.1522	0.7807	0.0617	0.407
Mof_C 	C 	0.1325	0.8587	0.9506	-0.431
Mof_H 	H 	0.1484	0.7966	0.9742	0.156
Mof_H 	H 	0.143	0.8867	0.9349	0.163
Mof_H 	H 	0.1037	0.8394	0.9185	0.149
Mof_C 	C 	0.0407	0.9312	0.9647	0.423
Mof_C 	C 	0.3235	0.1536	0.1895	0.414
Mof_C 	C 	0.3481	0.2572	0.2025	-0.472
Mof_H 	H 	0.3758	0.2505	0.243	0.171
Mof_C 	C 	0.355	0.2772	0.1649	0.188
Mof_H 	H 	0.3346	0.2382	0.128	-0.018
Mof_H 	H 	0.3826	0.2525	0.1844	-0.04
Mof_C 	C 	0.3512	0.3941	0.1526	-0.22
Mof_H 	H 	0.3264	0.4092	0.1113	0.097
Mof_H 	H 	0.3755	0.4202	0.1616	0.091
Mof_C 	C 	0.3482	0.4471	0.1942	-0.136
Mof_C 	C 	0.3275	0.3567	0.2017	0.668
Mof_C 	C 	0.3332	0.3654	0.2541	-1.222
Mof_H 	H 	0.3625	0.3658	0.2898	0.39
Mof_H 	H 	0.3201	0.3054	0.2546	0.398
Mof_H 	H 	0.3207	0.4306	0.2515	0.383
Mof_C 	C 	0.2803	0.3557	0.148	-1.175
Mof_H 	H 	0.2684	0.4202	0.1476	0.378
Mof_H 	H 	0.2684	0.2949	0.1504	0.388
Mof_H 	H 	0.2742	0.3514	0.1124	0.396
Mof_C 	C 	0.3893	0.4802	0.2512	-0.33
Mof_H 	H 	0.4075	0.4192	0.2704	0.117
Mof_H 	H 	0.3863	0.5099	0.276	0.117
Mof_H 	H 	0.401	0.5332	0.2443	0.125
Mof_C 	C 	0.3196	0.5454	0.1629	0.376
Mof_C 	C 	0.9259	0.017	0.8842	0.31
Mof_C 	C 	0.8883	0.0164	0.8163	-0.232
Mof_C 	C 	0.8766	0.9072	0.7872	-0.205
Mof_H 	H 	0.8581	0.871	0.7883	0.089
Mof_H 	H 	0.9016	0.864	0.8088	0.082
Mof_C 	C 	0.8547	0.9194	0.7221	0.315
Mof_H 	H 	0.8653	0.8682	0.7123	-0.072
Mof_H 	H 	0.8247	0.9107	0.6948	-0.078
Mof_C 	C 	0.8658	0.0296	0.7215	-0.736
Mof_H 	H 	0.8405	0.0725	0.7004	0.241
Mof_C 	C 	0.9001	0.082	0.7836	1.245
Mof_C 	C 	0.9415	0.055	0.8125	-2.203
Mof_H 	H 	0.9439	0.9786	0.8123	0.698
Mof_H 	H 	0.9608	0.0803	0.8526	0.696
Mof_H 	H 	0.9476	0.0878	0.7919	0.688
Mof_C 	C 	0.8932	0.1996	0.7819	-1.955
Mof_H 	H 	0.8651	0.2122	0.7632	0.613
Mof_H 	H 	0.8976	0.2349	0.7597	0.628
Mof_H 	H 	0.9124	0.2274	0.8215	0.625
Mof_C 	C 	0.8537	0.0778	0.8015	-0.236
Mof_H 	H 	0.8642	0.1448	0.8223	0.088
Mof_H 	H 	0.8422	0.0374	0.8129	0.09
Mof_H 	H 	0.8324	0.0911	0.7596	0.065
Mof_C 	C 	0.8779	0.0428	0.6867	0.496
Mof_C 	C 	0.1608	0.8029	0.469	0.335
Mof_C 	C 	0.1772	0.69	0.4766	-0.112
Mof_C 	C 	0.2024	0.6892	0.4582	0.779
Mof_C 	C 	0.23	0.587	0.4928	-0.604
Mof_H 	H 	0.2142	0.5243	0.4675	0.206
Mof_C 	C 	0.2358	0.5788	0.5438	0.272
Mof_H 	H 	0.2649	0.5919	0.5795	-0.052
Mof_H 	H 	0.2289	0.5068	0.5461	-0.067
Mof_C 	C 	0.2087	0.6581	0.54	-0.267
Mof_H 	H 	0.1955	0.6251	0.5511	0.112
Mof_H 	H 	0.2249	0.7193	0.5655	0.114
Mof_C 	C 	0.1419	0.6154	0.4449	-0.375
Mof_H 	H 	0.1512	0.5439	0.4484	0.139
Mof_H 	H 	0.1206	0.6351	0.4038	0.136
Mof_H 	H 	0.1307	0.6184	0.4618	0.15
Mof_C 	C 	0.1752	0.6719	0.3928	-1.353
Mof_H 	H 	0.1579	0.7338	0.3713	0.439
Mof_H 	H 	0.1578	0.6102	0.3799	0.43
Mof_H 	H 	0.1925	0.6607	0.3857	0.442
Mof_C 	C 	0.2271	0.7894	0.4771	-1.405
Mof_H 	H 	0.2084	0.8489	0.4548	0.458
Mof_H 	H 	0.2445	0.7826	0.47	0.454
Mof_H 	H 	0.2441	0.8013	0.5185	0.462
Mof_C 	C 	0.2688	0.5927	0.5069	0.529
Mof_C 	C 	0.0688	0.374	0.3712	0.358
Mof_C 	C 	0.0304	0.4366	0.3295	-0.415
Mof_H 	H 	0.0385	0.5122	0.3389	0.151
Mof_C 	C 	0.0049	0.4229	0.2645	0.097
Mof_H 	H 	0.0109	0.4807	0.2509	0
Mof_H 	H 	0.0121	0.3557	0.258	0.001
Mof_C 	C 	0.9594	0.4235	0.2303	-0.169
Mof_H 	H 	0.948	0.3516	0.2184	0.073
Mof_H 	H 	0.9437	0.4681	0.1953	0.098
Mof_C 	C 	0.9585	0.4703	0.2746	-0.147
Mof_C 	C 	0.9593	0.5869	0.28	-0.354
Mof_H 	H 	0.9582	0.6054	0.3083	0.128
Mof_H 	H 	0.9357	0.6173	0.2422	0.143
Mof_H 	H 	0.9846	0.6144	0.2931	0.127
Mof_C 	C 	0.9976	0.4169	0.3336	0.652
Mof_C 	C 	0.0121	0.4651	0.39	-1.19
Mof_H 	H 	0.9918	0.45	0.3913	0.388
Mof_H 	H 	0.0152	0.5411	0.39	0.377
Mof_H 	H 	0.0384	0.4342	0.4241	0.391
Mof_C 	C 	0.9934	0.299	0.3351	-1.186
Mof_H 	H 	0.9736	0.2846	0.3375	0.374
Mof_H 	H 	0.02	0.2691	0.3691	0.382
Mof_H 	H 	0.9838	0.2672	0.2998	0.383
Mof_C 	C 	0.9202	0.4404	0.2614	0.394
Mof_C 	C 	0.218	0.1595	0.6171	0.377
Mof_C 	C 	0.2418	0.2307	0.6714	-0.418
Mof_H 	H 	0.2713	0.2134	0.6962	0.148
Mof_C 	C 	0.2387	0.3468	0.6615	0.103
Mof_H 	H 	0.2114	0.367	0.6238	0.002
Mof_H 	H 	0.2599	0.3721	0.6631	-0.012
Mof_C 	C 	0.2465	0.3901	0.7151	-0.15
Mof_H 	H 	0.2712	0.4351	0.7399	0.069
Mof_H 	H 	0.2229	0.4335	0.7004	0.077
Mof_C 	C 	0.2522	0.3005	0.751	-0.134
Mof_C 	C 	0.3017	0.281	0.8037	-0.341
Mof_H 	H 	0.307	0.2233	0.8283	0.117
Mof_H 	H 	0.3149	0.3449	0.827	0.112
Mof_H 	H 	0.3126	0.263	0.7873	0.113
Mof_C 	C 	0.2332	0.2007	0.7092	0.617
Mof_C 	C 	0.2496	0.0899	0.7386	-1.12
Mof_H 	H 	0.2793	0.0873	0.7641	0.361
Mof_H 	H 	0.2366	0.0358	0.7086	0.367
Mof_H 	H 	0.2433	0.0774	0.7615	0.359
Mof_C 	C 	0.1867	0.1976	0.6706	-1.135
Mof_H 	H 	0.1748	0.1372	0.6445	0.368
Mof_H 	H 	0.1742	0.2623	0.6478	0.374
Mof_H 	H 	0.1815	0.1915	0.6952	0.361
Mof_C 	C 	0.2376	0.3163	0.7817	0.304
Mof_N 	N 	0.2378	0.1278	0.1748	-0.154
Mof_N 	N 	0.1507	0.4069	0.1605	-0.136
Mof_N 	N 	0.1961	0.3736	0.2582	-0.106
Mof_N 	N 	0.16874	0.4513	0.2426	-0.095
Mof_N 	N 	0.1569	0.4486	0.3058	-0.1
Mof_N 	N 	0.1152	0.4596	0.273	-0.115
Mof_N 	N 	0.1463	0.3583	0.3524	-0.159
Mof_N 	N 	0.0431	0.6945	0.0654	-0.143
Mof_N 	N 	0.9774	0.2542	0.0212	-0.157
Mof_N 	N 	0.9827	0.5595	0.1287	-0.131
Mof_N 	N 	0.91914	0.5107	0.0802	-0.091
Mof_N 	N 	0.9273	0.594	0.1144	-0.104
Mof_N 	N 	0.83795	0.5015	0.94411	-0.102
Mof_N 	N 	0.84612	0.5072	0.99342	-0.091
Mof_C 	C 	0.81822	0.5726	0.98315	0.093
Mof_H 	H 	0.8167	0.5909	0.0101	-0.002
Mof_N 	N 	0.79281	0.6074	0.9275	-0.16
Mof_C 	C 	0.80501	0.5634	0.90337	0.07
Mof_H 	H 	0.7927	0.5741	0.8649	-0.009
Mof_N 	N 	0.0388	0.8499	0.281	-0.161
Mof_N 	N 	0.0454	0.9324	0.3811	-0.132
Mof_N 	N 	0.9486	0.9162	0.4138	-0.142
Mof_N 	N 	0.9698	0.7438	0.4258	-0.099
Mof_N 	N 	0.9438	0.7546	0.4329	-0.09
Mof_N 	N 	0.9113	0.5892	0.4111	-0.093
Mof_N 	N 	0.8819	0.5506	0.4061	-0.105
Mof_C 	C 	0.8608	0.48	0.3632	0.101
Mof_H 	H 	0.8381	0.4404	0.3503	-0.015
Mof_N 	N 	0.8772	0.4749	0.3418	-0.16
Mof_C 	C 	0.9085	0.5424	0.3714	0.1
Mof_H 	H 	0.9256	0.5549	0.3653	0.009
Mof_N 	N 	0.8605	0.9722	0.4581	-0.127
Mof_O 	O 	0.2949	0.1251	0.1366	-0.31
Mof_O 	O 	0.331	0.1043	0.2297	-0.337
Mof_O 	O 	0.3159	0.6052	0.1886	-0.33
Mof_O 	O 	0.3018	0.5754	0.1155	-0.306
Mof_O 	O 	0.1979	0.0502	0.0453	-0.273
Mof_O 	O 	0.205	0.8927	0.0791	-0.313
Mof_O 	O 	0.02981	0.8408	0.968	-0.334
Mof_O 	O 	0.03078	0.0184	0.9703	-0.348
Mof_O 	O 	0.94209	0.9302	0.9104	-0.291
Mof_O 	O 	0.93935	0.1078	0.9085	-0.328
Mof_O 	O 	0.88	0.9611	0.6669	-0.353
Mof_O 	O 	0.8875	0.1327	0.6831	-0.39
Mof_O 	O 	0.1277	0.8311	0.4214	-0.316
Mof_O 	O 	0.1844	0.8609	0.5139	-0.31
Mof_O 	O 	0.2697	0.5646	0.472	-0.395
Mof_O 	O 	0.3006	0.6334	0.555	-0.374
Mof_O 	O 	0.0763	0.2999	0.3492	-0.288
Mof_O 	O 	0.0947	0.4014	0.4255	-0.296
Mof_O 	O 	0.89	0.4122	0.2122	-0.29
Mof_O 	O 	0.9169	0.4481	0.2946	-0.362
Mof_O 	O 	0.18606	0.1976	0.5662	-0.296
Mof_O 	O 	0.2296	0.0662	0.6217	-0.32
Mof_O 	O 	0.2184	0.4027	0.7724	-0.298
Mof_O 	O 	0.2439	0.2403	0.813	-0.312
Mof_O 	O 	0.12186	0.0996	0.4297	-0.259
Mof_O 	O 	0.30168	0.8738	0.1594	-0.232
Mof_Cd	Cd	0.5	0.34274	-0	0.456
Mof_Cd	Cd	0.5	0.60308	-0	0.446
Mof_Cd	Cd	1.9914e-33	0.84274	-0	0.457
Mof_Cd	Cd	-0	0.10308	-0	0.438
_end
