# CIF file generated by openbabel 3.1.0, see https://openbabel.org
data_I
_chemical_name_common 'OKIWUB_charged'
_cell_length_a 15.8496
_cell_length_b 15.8496
_cell_length_c 21.709
_cell_angle_alpha 90
_cell_angle_beta 90
_cell_angle_gamma 90
_space_group_name_H-M_alt 'P 1'
_space_group_name_Hall 'P 1'
loop_
    _symmetry_equiv_pos_as_xyz
    x,y,z
loop_
    _atom_site_label
    _atom_site_type_symbol
    _atom_site_fract_x
    _atom_site_fract_y
    _atom_site_fract_z
    _atom_site_occupancy
    Cd1      Cd       0.94121    0.05879    0.75000    1.000
    Cd2      Cd       0.05879    0.94121    0.25000    1.000
    Cd3      Cd       0.44121    0.44121    0.50000    1.000
    Cd4      Cd       0.55879    0.55879    0.00000    1.000
    H1       H        0.46420    0.38670    0.64930    1.000
    H2       H        0.41520    0.28650    0.71520    1.000
    H3       H        0.21240    0.26090    0.60420    1.000
    H4       H        0.26980    0.36110    0.54090    1.000
    H5       H        0.34730    0.20450    0.78040    1.000
    H6       H        0.29570    0.09040    0.83560    1.000
    H7       H        0.19730    0.99900    0.79260    1.000
    H8       H        0.19770    0.13980    0.63730    1.000
    H9       H        0.95610    0.88120    0.54080    1.000
    H10      H        0.93500    0.76960    0.47310    1.000
    H11      H        0.03740    0.66560    0.46170    1.000
    H12      H        0.17540    0.77650    0.59560    1.000
    H13      H        0.15040    0.60170    0.43730    1.000
    H14      H        0.25960    0.50440    0.42790    1.000
    H15      H        0.34240    0.55990    0.59230    1.000
    H16      H        0.23520    0.65410    0.60830    1.000
    H17      H        0.25970    0.89760    0.64770    1.000
    H18      H        0.25780    0.97530    0.60940    1.000
    H19      H        0.53580    0.61330    0.14930    1.000
    H20      H        0.58480    0.71350    0.21520    1.000
    H21      H        0.78760    0.73910    0.10420    1.000
    H22      H        0.73020    0.63890    0.04090    1.000
    H23      H        0.65270    0.79550    0.28040    1.000
    H24      H        0.70430    0.90960    0.33560    1.000
    H25      H        0.80270    0.00100    0.29260    1.000
    H26      H        0.80230    0.86020    0.13730    1.000
    H27      H        0.04390    0.11880    0.04080    1.000
    H28      H        0.06500    0.23040    0.97310    1.000
    H29      H        0.96260    0.33440    0.96170    1.000
    H30      H        0.82460    0.22350    0.09560    1.000
    H31      H        0.84960    0.39830    0.93730    1.000
    H32      H        0.74040    0.49560    0.92790    1.000
    H33      H        0.65760    0.44010    0.09230    1.000
    H34      H        0.76480    0.34590    0.10830    1.000
    H35      H        0.74030    0.10240    0.14770    1.000
    H36      H        0.74220    0.02470    0.10940    1.000
    H37      H        0.11330    0.96420    0.39930    1.000
    H38      H        0.21350    0.91520    0.46520    1.000
    H39      H        0.23910    0.71240    0.35420    1.000
    H40      H        0.13890    0.76980    0.29090    1.000
    H41      H        0.29550    0.84730    0.53040    1.000
    H42      H        0.40960    0.79570    0.58560    1.000
    H43      H        0.50100    0.69730    0.54260    1.000
    H44      H        0.36020    0.69770    0.38730    1.000
    H45      H        0.61880    0.45610    0.29080    1.000
    H46      H        0.73040    0.43500    0.22310    1.000
    H47      H        0.83440    0.53740    0.21170    1.000
    H48      H        0.72350    0.67540    0.34560    1.000
    H49      H        0.89830    0.65040    0.18730    1.000
    H50      H        0.99560    0.75960    0.17790    1.000
    H51      H        0.94010    0.84240    0.34230    1.000
    H52      H        0.84590    0.73520    0.35830    1.000
    H53      H        0.60240    0.75970    0.39770    1.000
    H54      H        0.52470    0.75780    0.35940    1.000
    H55      H        0.88670    0.03580    0.89930    1.000
    H56      H        0.78650    0.08480    0.96520    1.000
    H57      H        0.76090    0.28760    0.85420    1.000
    H58      H        0.86110    0.23020    0.79090    1.000
    H59      H        0.70450    0.15270    0.03040    1.000
    H60      H        0.59040    0.20430    0.08560    1.000
    H61      H        0.49900    0.30270    0.04260    1.000
    H62      H        0.63980    0.30230    0.88730    1.000
    H63      H        0.38120    0.54390    0.79080    1.000
    H64      H        0.26960    0.56500    0.72310    1.000
    H65      H        0.16560    0.46260    0.71170    1.000
    H66      H        0.27650    0.32460    0.84560    1.000
    H67      H        0.10170    0.34960    0.68730    1.000
    H68      H        0.00440    0.24040    0.67790    1.000
    H69      H        0.05990    0.15760    0.84230    1.000
    H70      H        0.15410    0.26480    0.85830    1.000
    H71      H        0.39760    0.24030    0.89770    1.000
    H72      H        0.47530    0.24220    0.85940    1.000
    H73      H        0.03580    0.88670    0.10070    1.000
    H74      H        0.08480    0.78650    0.03480    1.000
    H75      H        0.28760    0.76090    0.14580    1.000
    H76      H        0.23020    0.86110    0.20910    1.000
    H77      H        0.15270    0.70450    0.96960    1.000
    H78      H        0.20430    0.59040    0.91440    1.000
    H79      H        0.30270    0.49900    0.95740    1.000
    H80      H        0.30230    0.63980    0.11270    1.000
    H81      H        0.54390    0.38120    0.20920    1.000
    H82      H        0.56500    0.26960    0.27690    1.000
    H83      H        0.46260    0.16560    0.28830    1.000
    H84      H        0.32460    0.27650    0.15440    1.000
    H85      H        0.34960    0.10170    0.31270    1.000
    H86      H        0.24040    0.00440    0.32210    1.000
    H87      H        0.15760    0.05990    0.15770    1.000
    H88      H        0.26480    0.15410    0.14170    1.000
    H89      H        0.24030    0.39760    0.10230    1.000
    H90      H        0.24220    0.47530    0.14060    1.000
    H91      H        0.96420    0.11330    0.60070    1.000
    H92      H        0.91520    0.21350    0.53480    1.000
    H93      H        0.71240    0.23910    0.64580    1.000
    H94      H        0.76980    0.13890    0.70910    1.000
    H95      H        0.84730    0.29550    0.46960    1.000
    H96      H        0.79570    0.40960    0.41440    1.000
    H97      H        0.69730    0.50100    0.45740    1.000
    H98      H        0.69770    0.36020    0.61270    1.000
    H99      H        0.45610    0.61880    0.70920    1.000
    H100     H        0.43500    0.73040    0.77690    1.000
    H101     H        0.53740    0.83440    0.78830    1.000
    H102     H        0.67540    0.72350    0.65440    1.000
    H103     H        0.65040    0.89830    0.81270    1.000
    H104     H        0.75960    0.99560    0.82210    1.000
    H105     H        0.84240    0.94010    0.65770    1.000
    H106     H        0.73520    0.84590    0.64170    1.000
    H107     H        0.75970    0.60240    0.60230    1.000
    H108     H        0.75780    0.52470    0.64060    1.000
    H109     H        0.38670    0.46420    0.35070    1.000
    H110     H        0.28650    0.41520    0.28480    1.000
    H111     H        0.26090    0.21240    0.39580    1.000
    H112     H        0.36110    0.26980    0.45910    1.000
    H113     H        0.20450    0.34730    0.21960    1.000
    H114     H        0.09040    0.29570    0.16440    1.000
    H115     H        0.99900    0.19730    0.20740    1.000
    H116     H        0.13980    0.19770    0.36270    1.000
    H117     H        0.88120    0.95610    0.45920    1.000
    H118     H        0.76960    0.93500    0.52690    1.000
    H119     H        0.66560    0.03740    0.53830    1.000
    H120     H        0.77650    0.17540    0.40440    1.000
    H121     H        0.60170    0.15040    0.56270    1.000
    H122     H        0.50440    0.25960    0.57210    1.000
    H123     H        0.55990    0.34240    0.40770    1.000
    H124     H        0.65410    0.23520    0.39170    1.000
    H125     H        0.89760    0.25970    0.35230    1.000
    H126     H        0.97530    0.25780    0.39060    1.000
    H127     H        0.61330    0.53580    0.85070    1.000
    H128     H        0.71350    0.58480    0.78480    1.000
    H129     H        0.73910    0.78760    0.89580    1.000
    H130     H        0.63890    0.73020    0.95910    1.000
    H131     H        0.79550    0.65270    0.71960    1.000
    H132     H        0.90960    0.70430    0.66440    1.000
    H133     H        0.00100    0.80270    0.70740    1.000
    H134     H        0.86020    0.80230    0.86270    1.000
    H135     H        0.11880    0.04390    0.95920    1.000
    H136     H        0.23040    0.06500    0.02690    1.000
    H137     H        0.33440    0.96260    0.03830    1.000
    H138     H        0.22350    0.82460    0.90440    1.000
    H139     H        0.39830    0.84960    0.06270    1.000
    H140     H        0.49560    0.74040    0.07210    1.000
    H141     H        0.44010    0.65760    0.90770    1.000
    H142     H        0.34590    0.76480    0.89170    1.000
    H143     H        0.10240    0.74030    0.85230    1.000
    H144     H        0.02470    0.74220    0.89060    1.000
    C1       C        0.41320    0.35850    0.63900    1.000
    C2       C        0.38450    0.29890    0.67870    1.000
    C3       C        0.30930    0.25560    0.66570    1.000
    C4       C        0.26630    0.28380    0.61380    1.000
    C5       C        0.30070    0.34410    0.57630    1.000
    C6       C        0.27850    0.18370    0.70270    1.000
    C7       C        0.30670    0.16820    0.76220    1.000
    C8       C        0.27610    0.10010    0.79490    1.000
    C9       C        0.21760    0.04590    0.76970    1.000
    C10      C        0.18860    0.06080    0.71010    1.000
    C11      C        0.21850    0.12940    0.67770    1.000
    C12      C        0.12670    0.00510    0.68030    1.000
    C13      C        0.07560    0.90860    0.61860    1.000
    C14      C        0.06760    0.83900    0.57420    1.000
    C15      C        0.99670    0.83730    0.53790    1.000
    C16      C        0.98480    0.77170    0.49740    1.000
    C17      C        0.04460    0.70890    0.49160    1.000
    C18      C        0.11550    0.70910    0.52950    1.000
    C19      C        0.12660    0.77500    0.57010    1.000
    C20      C        0.18120    0.64200    0.52330    1.000
    C21      C        0.18940    0.59470    0.47010    1.000
    C22      C        0.25550    0.53660    0.46470    1.000
    C23      C        0.30280    0.56860    0.56010    1.000
    C24      C        0.23950    0.62570    0.56990    1.000
    C25      C        0.58680    0.64150    0.13900    1.000
    C26      C        0.61550    0.70110    0.17870    1.000
    C27      C        0.69070    0.74440    0.16570    1.000
    C28      C        0.73370    0.71620    0.11380    1.000
    C29      C        0.69930    0.65590    0.07630    1.000
    C30      C        0.72150    0.81630    0.20270    1.000
    C31      C        0.69330    0.83180    0.26220    1.000
    C32      C        0.72390    0.89990    0.29490    1.000
    C33      C        0.78240    0.95410    0.26970    1.000
    C34      C        0.81140    0.93920    0.21010    1.000
    C35      C        0.78150    0.87060    0.17770    1.000
    C36      C        0.87330    0.99490    0.18030    1.000
    C37      C        0.92440    0.09140    0.11860    1.000
    C38      C        0.93240    0.16100    0.07420    1.000
    C39      C        0.00330    0.16270    0.03790    1.000
    C40      C        0.01520    0.22830    0.99740    1.000
    C41      C        0.95540    0.29110    0.99160    1.000
    C42      C        0.88450    0.29090    0.02950    1.000
    C43      C        0.87340    0.22500    0.07010    1.000
    C44      C        0.81880    0.35800    0.02330    1.000
    C45      C        0.81060    0.40530    0.97010    1.000
    C46      C        0.74450    0.46340    0.96470    1.000
    C47      C        0.69720    0.43140    0.06010    1.000
    C48      C        0.76050    0.37430    0.06990    1.000
    C49      C        0.14150    0.91320    0.38900    1.000
    C50      C        0.20110    0.88450    0.42870    1.000
    C51      C        0.24440    0.80930    0.41570    1.000
    C52      C        0.21620    0.76630    0.36380    1.000
    C53      C        0.15590    0.80070    0.32630    1.000
    C54      C        0.31630    0.77850    0.45270    1.000
    C55      C        0.33180    0.80670    0.51220    1.000
    C56      C        0.39990    0.77610    0.54490    1.000
    C57      C        0.45410    0.71760    0.51970    1.000
    C58      C        0.43920    0.68860    0.46010    1.000
    C59      C        0.37060    0.71850    0.42770    1.000
    C60      C        0.49490    0.62670    0.43030    1.000
    C61      C        0.59140    0.57560    0.36860    1.000
    C62      C        0.66100    0.56760    0.32420    1.000
    C63      C        0.66270    0.49670    0.28790    1.000
    C64      C        0.72830    0.48480    0.24740    1.000
    C65      C        0.79110    0.54460    0.24160    1.000
    C66      C        0.79090    0.61550    0.27950    1.000
    C67      C        0.72500    0.62660    0.32010    1.000
    C68      C        0.85800    0.68120    0.27330    1.000
    C69      C        0.90530    0.68940    0.22010    1.000
    C70      C        0.96340    0.75550    0.21470    1.000
    C71      C        0.93140    0.80280    0.31010    1.000
    C72      C        0.87430    0.73950    0.31990    1.000
    C73      C        0.85850    0.08680    0.88900    1.000
    C74      C        0.79890    0.11550    0.92870    1.000
    C75      C        0.75560    0.19070    0.91570    1.000
    C76      C        0.78380    0.23370    0.86380    1.000
    C77      C        0.84410    0.19930    0.82630    1.000
    C78      C        0.68370    0.22150    0.95270    1.000
    C79      C        0.66820    0.19330    0.01220    1.000
    C80      C        0.60010    0.22390    0.04490    1.000
    C81      C        0.54590    0.28240    0.01970    1.000
    C82      C        0.56080    0.31140    0.96010    1.000
    C83      C        0.62940    0.28150    0.92770    1.000
    C84      C        0.50510    0.37330    0.93030    1.000
    C85      C        0.40860    0.42440    0.86860    1.000
    C86      C        0.33900    0.43240    0.82420    1.000
    C87      C        0.33730    0.50330    0.78790    1.000
    C88      C        0.27170    0.51520    0.74740    1.000
    C89      C        0.20890    0.45540    0.74160    1.000
    C90      C        0.20910    0.38450    0.77950    1.000
    C91      C        0.27500    0.37340    0.82010    1.000
    C92      C        0.14200    0.31880    0.77330    1.000
    C93      C        0.09470    0.31060    0.72010    1.000
    C94      C        0.03660    0.24450    0.71470    1.000
    C95      C        0.06860    0.19720    0.81010    1.000
    C96      C        0.12570    0.26050    0.81990    1.000
    C97      C        0.08680    0.85850    0.11100    1.000
    C98      C        0.11550    0.79890    0.07130    1.000
    C99      C        0.19070    0.75560    0.08430    1.000
    C100     C        0.23370    0.78380    0.13620    1.000
    C101     C        0.19930    0.84410    0.17370    1.000
    C102     C        0.22150    0.68370    0.04730    1.000
    C103     C        0.19330    0.66820    0.98780    1.000
    C104     C        0.22390    0.60010    0.95510    1.000
    C105     C        0.28240    0.54590    0.98030    1.000
    C106     C        0.31140    0.56080    0.03990    1.000
    C107     C        0.28150    0.62940    0.07230    1.000
    C108     C        0.37330    0.50510    0.06970    1.000
    C109     C        0.42440    0.40860    0.13140    1.000
    C110     C        0.43240    0.33900    0.17580    1.000
    C111     C        0.50330    0.33730    0.21210    1.000
    C112     C        0.51520    0.27170    0.25260    1.000
    C113     C        0.45540    0.20890    0.25840    1.000
    C114     C        0.38450    0.20910    0.22050    1.000
    C115     C        0.37340    0.27500    0.17990    1.000
    C116     C        0.31880    0.14200    0.22670    1.000
    C117     C        0.31060    0.09470    0.27990    1.000
    C118     C        0.24450    0.03660    0.28530    1.000
    C119     C        0.19720    0.06860    0.18990    1.000
    C120     C        0.26050    0.12570    0.18010    1.000
    C121     C        0.91320    0.14150    0.61100    1.000
    C122     C        0.88450    0.20110    0.57130    1.000
    C123     C        0.80930    0.24440    0.58430    1.000
    C124     C        0.76630    0.21620    0.63620    1.000
    C125     C        0.80070    0.15590    0.67370    1.000
    C126     C        0.77850    0.31630    0.54730    1.000
    C127     C        0.80670    0.33180    0.48780    1.000
    C128     C        0.77610    0.39990    0.45510    1.000
    C129     C        0.71760    0.45410    0.48030    1.000
    C130     C        0.68860    0.43920    0.53990    1.000
    C131     C        0.71850    0.37060    0.57230    1.000
    C132     C        0.62670    0.49490    0.56970    1.000
    C133     C        0.57560    0.59140    0.63140    1.000
    C134     C        0.56760    0.66100    0.67580    1.000
    C135     C        0.49670    0.66270    0.71210    1.000
    C136     C        0.48480    0.72830    0.75260    1.000
    C137     C        0.54460    0.79110    0.75840    1.000
    C138     C        0.61550    0.79090    0.72050    1.000
    C139     C        0.62660    0.72500    0.67990    1.000
    C140     C        0.68120    0.85800    0.72670    1.000
    C141     C        0.68940    0.90530    0.77990    1.000
    C142     C        0.75550    0.96340    0.78530    1.000
    C143     C        0.80280    0.93140    0.68990    1.000
    C144     C        0.73950    0.87430    0.68010    1.000
    C145     C        0.35850    0.41320    0.36100    1.000
    C146     C        0.29890    0.38450    0.32130    1.000
    C147     C        0.25560    0.30930    0.33430    1.000
    C148     C        0.28380    0.26630    0.38620    1.000
    C149     C        0.34410    0.30070    0.42370    1.000
    C150     C        0.18370    0.27850    0.29730    1.000
    C151     C        0.16820    0.30670    0.23780    1.000
    C152     C        0.10010    0.27610    0.20510    1.000
    C153     C        0.04590    0.21760    0.23030    1.000
    C154     C        0.06080    0.18860    0.28990    1.000
    C155     C        0.12940    0.21850    0.32230    1.000
    C156     C        0.00510    0.12670    0.31970    1.000
    C157     C        0.90860    0.07560    0.38140    1.000
    C158     C        0.83900    0.06760    0.42580    1.000
    C159     C        0.83730    0.99670    0.46210    1.000
    C160     C        0.77170    0.98480    0.50260    1.000
    C161     C        0.70890    0.04460    0.50840    1.000
    C162     C        0.70910    0.11550    0.47050    1.000
    C163     C        0.77500    0.12660    0.42990    1.000
    C164     C        0.64200    0.18120    0.47670    1.000
    C165     C        0.59470    0.18940    0.52990    1.000
    C166     C        0.53660    0.25550    0.53530    1.000
    C167     C        0.56860    0.30280    0.43990    1.000
    C168     C        0.62570    0.23950    0.43010    1.000
    C169     C        0.64150    0.58680    0.86100    1.000
    C170     C        0.70110    0.61550    0.82130    1.000
    C171     C        0.74440    0.69070    0.83430    1.000
    C172     C        0.71620    0.73370    0.88620    1.000
    C173     C        0.65590    0.69930    0.92370    1.000
    C174     C        0.81630    0.72150    0.79730    1.000
    C175     C        0.83180    0.69330    0.73780    1.000
    C176     C        0.89990    0.72390    0.70510    1.000
    C177     C        0.95410    0.78240    0.73030    1.000
    C178     C        0.93920    0.81140    0.78990    1.000
    C179     C        0.87060    0.78150    0.82230    1.000
    C180     C        0.99490    0.87330    0.81970    1.000
    C181     C        0.09140    0.92440    0.88140    1.000
    C182     C        0.16100    0.93240    0.92580    1.000
    C183     C        0.16270    0.00330    0.96210    1.000
    C184     C        0.22830    0.01520    0.00260    1.000
    C185     C        0.29110    0.95540    0.00840    1.000
    C186     C        0.29090    0.88450    0.97050    1.000
    C187     C        0.22500    0.87340    0.92990    1.000
    C188     C        0.35800    0.81880    0.97670    1.000
    C189     C        0.40530    0.81060    0.02990    1.000
    C190     C        0.46340    0.74450    0.03530    1.000
    C191     C        0.43140    0.69720    0.93990    1.000
    C192     C        0.37430    0.76050    0.93010    1.000
    N1       N        0.37520    0.38020    0.58680    1.000
    N2       N        0.04480    0.00650    0.68390    1.000
    N3       N        0.01210    0.94520    0.64587    1.000
    N4       N        0.14950    0.94410    0.63954    1.000
    N5       N        0.23070    0.92610    0.61810    1.000
    N6       N        0.31250    0.52420    0.50820    1.000
    N7       N        0.62480    0.61980    0.08680    1.000
    N8       N        0.95520    0.99350    0.18390    1.000
    N9       N        0.98790    0.05480    0.14587    1.000
    N10      N        0.85050    0.05590    0.13954    1.000
    N11      N        0.76930    0.07390    0.11810    1.000
    N12      N        0.68750    0.47580    0.00820    1.000
    N13      N        0.11980    0.87520    0.33680    1.000
    N14      N        0.49350    0.54480    0.43390    1.000
    N15      N        0.55480    0.51210    0.39587    1.000
    N16      N        0.55590    0.64950    0.38954    1.000
    N17      N        0.57390    0.73070    0.36810    1.000
    N18      N        0.97580    0.81250    0.25820    1.000
    N19      N        0.88020    0.12480    0.83680    1.000
    N20      N        0.50650    0.45520    0.93390    1.000
    N21      N        0.44520    0.48790    0.89587    1.000
    N22      N        0.44410    0.35050    0.88954    1.000
    N23      N        0.42610    0.26930    0.86810    1.000
    N24      N        0.02420    0.18750    0.75820    1.000
    N25      N        0.12480    0.88020    0.16320    1.000
    N26      N        0.45520    0.50650    0.06610    1.000
    N27      N        0.48790    0.44520    0.10413    1.000
    N28      N        0.35050    0.44410    0.11046    1.000
    N29      N        0.26930    0.42610    0.13190    1.000
    N30      N        0.18750    0.02420    0.24180    1.000
    N31      N        0.87520    0.11980    0.66320    1.000
    N32      N        0.54480    0.49350    0.56610    1.000
    N33      N        0.51210    0.55480    0.60413    1.000
    N34      N        0.64950    0.55590    0.61046    1.000
    N35      N        0.73070    0.57390    0.63190    1.000
    N36      N        0.81250    0.97580    0.74180    1.000
    N37      N        0.38020    0.37520    0.41320    1.000
    N38      N        0.00650    0.04480    0.31610    1.000
    N39      N        0.94520    0.01210    0.35413    1.000
    N40      N        0.94410    0.14950    0.36046    1.000
    N41      N        0.92610    0.23070    0.38190    1.000
    N42      N        0.52420    0.31250    0.49180    1.000
    N43      N        0.61980    0.62480    0.91320    1.000
    N44      N        0.99350    0.95520    0.81610    1.000
    N45      N        0.05480    0.98790    0.85413    1.000
    N46      N        0.05590    0.85050    0.86046    1.000
    N47      N        0.07390    0.76930    0.88190    1.000
    N48      N        0.47580    0.68750    0.99180    1.000
    Cl1      Cl       0.87804    0.87804    0.00000    1.000
    O1       O        0.81530    0.88620    0.96220    1.000
    O2       O        0.93890    0.87570    0.96330    1.000
    O3       O        0.88620    0.81530    0.03780    1.000
    O4       O        0.87570    0.93890    0.03670    1.000
    Cl2      Cl       0.12196    0.12196    0.50000    1.000
    O5       O        0.18470    0.11380    0.46220    1.000
    O6       O        0.06110    0.12430    0.46330    1.000
    O7       O        0.11380    0.18470    0.53780    1.000
    O8       O        0.12430    0.06110    0.53670    1.000
    Cl3      Cl       0.62196    0.37804    0.75000    1.000
    O9       O        0.61380    0.31530    0.71220    1.000
    O10      O        0.62430    0.43890    0.71330    1.000
    O11      O        0.68470    0.38620    0.78780    1.000
    O12      O        0.56110    0.37570    0.78670    1.000
    Cl4      Cl       0.37804    0.62196    0.25000    1.000
    O13      O        0.38620    0.68470    0.21220    1.000
    O14      O        0.37570    0.56110    0.21330    1.000
    O15      O        0.31530    0.61380    0.28780    1.000
    O16      O        0.43890    0.62430    0.28670    1.000
