data_functionalizedCrystal
_audit_creation_method	'EQeq! by Chris Wilmer'
_symmetry_space_group_name_H-M	'P1'
_symmetry_Int_Tables_number	1
_symmetry_cell_setting	triclinic
loop_
_symmetry_equiv_pos_as_xyz
  x,y,z
_cell_length_a	45.9222
_cell_length_b	15.0763
_cell_length_c	34.6215
_cell_angle_alpha	90
_cell_angle_beta	117.31
_cell_angle_gamma	90
loop_
_atom_site_label
_atom_site_type_symbol
_atom_site_fract_x
_atom_site_fract_y
_atom_site_fract_z
_atom_site_charge
Mof_Zn	Zn	0.2072	0.61749	0.00819	1.226
Mof_Zn	Zn	0.7202	0.78598	0.35055	1.218
Mof_Zn	Zn	0.28583	0.19708	0.39469	1.223
Mof_Zn	Zn	0.26878	0.75012	0.0505	1.221
Mof_O 	O 	0.2199	0.73367	0.99892	-0.744
Mof_C 	C 	0.3853	0.0401	0.25848	0.071
Mof_C 	C 	0.3678	0.9744	0.26757	-0.13
Mof_H 	H 	0.3448	0.9802	0.2565	0.077
Mof_C 	C 	0.38349	0.9012	0.29242	0.073
Mof_C 	C 	0.41744	0.8938	0.30817	-0.129
Mof_H 	H 	0.4284	0.8431	0.3248	0.073
Mof_O 	O 	0.68438	0.76485	0.39886	-0.482
Mof_O 	O 	0.67912	0.83985	0.34059	-0.478
Mof_C 	C 	0.36812	0.1161	0.23004	-0.009
Mof_C 	C 	0.38294	0.1994	0.23702	-0.041
Mof_H 	H 	0.4041	0.208	0.2608	0.04
Mof_C 	C 	0.36701	0.2703	0.20943	-0.051
Mof_H 	H 	0.3775	0.3264	0.2146	0.044
Mof_C 	C 	0.33604	0.26	0.17446	0.002
Mof_C 	C 	0.32115	0.1763	0.16691	-0.052
Mof_H 	H 	0.3001	0.1677	0.1431	0.052
Mof_C 	C 	0.33714	0.1061	0.19418	-0.04
Mof_H 	H 	0.3269	0.0496	0.1885	0.048
Mof_C 	C 	0.31818	0.3374	0.14731	0.058
Mof_C 	C 	0.33439	0.4048	0.13735	-0.113
Mof_H 	H 	0.3573	0.4005	0.1468	0.068
Mof_C 	C 	0.31721	0.4783	0.11369	0.047
Mof_H 	H 	0.3285	0.5245	0.1074	0.031
Mof_C 	C 	0.2836	0.4849	0.09907	-0.123
Mof_C 	C 	0.2673	0.4179	0.10892	0.045
Mof_H 	H 	0.2444	0.4223	0.0994	0.032
Mof_C 	C 	0.28453	0.3446	0.1326	-0.109
Mof_H 	H 	0.2732	0.2987	0.1389	0.07
Mof_C 	C 	0.26486	0.5633	0.07382	0.368
Mof_O 	O 	0.2789	0.61585	0.05956	-0.476
Mof_O 	O 	0.23546	0.57245	0.06738	-0.528
Mof_C 	C 	0.36503	0.8287	0.30136	-0.005
Mof_C 	C 	0.33324	0.8065	0.27075	-0.045
Mof_H 	H 	0.3223	0.8414	0.2453	0.037
Mof_C 	C 	0.3174	0.7328	0.27748	-0.05
Mof_H 	H 	0.2958	0.7184	0.2562	0.043
Mof_C 	C 	0.33248	0.681	0.31418	-0.002
Mof_C 	C 	0.36395	0.7061	0.34563	-0.048
Mof_H 	H 	0.3746	0.6728	0.3718	0.043
Mof_C 	C 	0.3797	0.7788	0.33899	-0.044
Mof_H 	H 	0.401	0.7946	0.3608	0.043
Mof_C 	C 	0.31684	0.5998	0.32109	0.06
Mof_C 	C 	0.28302	0.5907	0.30179	-0.116
Mof_H 	H 	0.2695	0.6368	0.2838	0.065
Mof_C 	C 	0.26866	0.5148	0.30851	0.044
Mof_H 	H 	0.2455	0.5099	0.2956	0.024
Mof_C 	C 	0.28838	0.4459	0.33433	-0.128
Mof_C 	C 	0.32199	0.4546	0.35275	0.05
Mof_H 	H 	0.3356	0.4077	0.37	0.027
Mof_C 	C 	0.33613	0.53	0.34651	-0.117
Mof_H 	H 	0.3593	0.5348	0.3596	0.067
Mof_C 	C 	0.27362	0.3638	0.3426	0.385
Mof_O 	O 	0.24272	0.36281	0.32727	-0.493
Mof_O 	O 	0.2932	0.30471	0.36543	-0.471
Mof_C 	C 	0.47161	0.9454	0.31516	-0.009
Mof_C 	C 	0.48936	0.8828	0.34427	-0.041
Mof_H 	H 	0.4793	0.8495	0.3582	0.043
Mof_C 	C 	0.52173	0.8654	0.35463	-0.049
Mof_H 	H 	0.5331	0.82	0.375	0.046
Mof_C 	C 	0.53779	0.9123	0.3361	-0.004
Mof_C 	C 	0.5215	0.9814	0.31177	-0.048
Mof_H 	H 	0.5325	0.0204	0.3013	0.043
Mof_C 	C 	0.48875	0.9984	0.30105	-0.044
Mof_H 	H 	0.4782	0.0483	0.2835	0.038
Mof_C 	C 	0.57213	0.8897	0.34491	0.07
Mof_C 	C 	0.59394	0.8506	0.38316	-0.131
Mof_H 	H 	0.5873	0.839	0.4049	0.077
Mof_C 	C 	0.62508	0.828	0.3908	0.066
Mof_H 	H 	0.6396	0.801	0.4176	0.01
Mof_C 	C 	0.63555	0.8443	0.35962	-0.142
Mof_C 	C 	0.61427	0.8865	0.32171	0.062
Mof_H 	H 	0.6213	0.9007	0.3006	0.028
Mof_C 	C 	0.58279	0.9083	0.31414	-0.125
Mof_H 	H 	0.5683	0.9364	0.2876	0.075
Mof_C 	C 	0.66898	0.8151	0.3675	0.391
Mof_C 	C 	0.43553	0.9584	0.30014	0.069
Mof_C 	C 	0.41923	0.0315	0.27583	-0.135
Mof_H 	H 	0.4314	0.0769	0.2708	0.071
Mof_O 	O 	0.75515	0.76289	0.4099	-0.751
Mof_C 	C 	0.36407	0.9314	0.8601	0.076
Mof_C 	C 	0.34406	0.984	0.87095	-0.134
Mof_H 	H 	0.3212	0.9722	0.8581	0.08
Mof_C 	C 	0.35686	0.0534	0.90015	0.074
Mof_C 	C 	0.39044	0.0689	0.91977	-0.13
Mof_H 	H 	0.3995	0.1141	0.9411	0.075
Mof_C 	C 	0.41109	0.0188	0.90857	0.073
Mof_C 	C 	0.39722	0.9506	0.87846	-0.131
Mof_H 	H 	0.4109	0.9164	0.8703	0.075
Mof_C 	C 	0.35003	0.8542	0.83018	-0.006
Mof_C 	C 	0.36772	0.7754	0.838	-0.043
Mof_H 	H 	0.3891	0.7717	0.8619	0.041
Mof_C 	C 	0.35462	0.7029	0.81155	-0.042
Mof_H 	H 	0.3671	0.6498	0.8174	0.042
Mof_C 	C 	0.32327	0.7057	0.77619	-0.004
Mof_C 	C 	0.30629	0.7855	0.76804	-0.04
Mof_H 	H 	0.2853	0.79	0.7437	0.04
Mof_C 	C 	0.31931	0.8579	0.79459	-0.047
Mof_H 	H 	0.307	0.9114	0.7884	0.046
Mof_C 	C 	0.30872	0.6259	0.74904	0.07
Mof_C 	C 	0.32845	0.5616	0.74371	-0.122
Mof_H 	H 	0.3515	0.57	0.757	0.07
Mof_C 	C 	0.31528	0.4867	0.71969	0.063
Mof_H 	H 	0.3292	0.4436	0.7167	0.025
Mof_C 	C 	0.2815	0.4732	0.69949	-0.14
Mof_C 	C 	0.2616	0.5363	0.70431	0.063
Mof_H 	H 	0.2385	0.5277	0.6907	0.019
Mof_C 	C 	0.2749	0.6119	0.72878	-0.123
Mof_H 	H 	0.2609	0.6547	0.7318	0.071
Mof_C 	C 	0.26741	0.3922	0.67265	0.407
Mof_O 	O 	0.28752	0.3345	0.67289	-0.504
Mof_O 	O 	0.2369	0.38601	0.65294	-0.496
Mof_C 	C 	0.33484	0.1142	0.90868	-0.003
Mof_C 	C 	0.31204	0.1634	0.87383	-0.051
Mof_H 	H 	0.3094	0.1533	0.8453	0.05
Mof_C 	C 	0.2934	0.2267	0.88093	-0.039
Mof_H 	H 	0.2782	0.2606	0.8571	0.04
Mof_C 	C 	0.29629	0.2421	0.92217	-0.017
Mof_C 	C 	0.31805	0.1892	0.95616	-0.038
Mof_H 	H 	0.3197	0.196	0.9844	0.045
Mof_C 	C 	0.33724	0.1271	0.94935	-0.052
Mof_H 	H 	0.3523	0.0928	0.9731	0.051
Mof_C 	C 	0.27737	0.3147	0.92929	0.081
Mof_C 	C 	0.2647	0.3067	0.959	-0.142
Mof_H 	H 	0.267	0.2523	0.974	0.079
Mof_C 	C 	0.24877	0.3775	0.96657	0.081
Mof_H 	H 	0.2401	0.3713	0.9866	0.014
Mof_C 	C 	0.24545	0.457	0.94524	-0.166
Mof_C 	C 	0.25729	0.4646	0.91509	0.087
Mof_H 	H 	0.2546	0.5186	0.8997	-0.006
Mof_C 	C 	0.27293	0.3938	0.90731	-0.151
Mof_H 	H 	0.2808	0.3998	0.8864	0.084
Mof_C 	C 	0.23099	0.5356	0.95619	0.417
Mof_O 	O 	0.2138	0.52156	0.97551	-0.481
Mof_O 	O 	0.23744	0.60997	0.94663	-0.499
Mof_C 	C 	0.44662	0.0394	0.92746	-0.009
Mof_C 	C 	0.45901	0.1229	0.94184	-0.045
Mof_H 	H 	0.4444	0.1696	0.9397	0.04
Mof_C 	C 	0.49228	0.1404	0.9593	-0.049
Mof_H 	H 	0.5001	0.1986	0.9693	0.042
Mof_C 	C 	0.51431	0.0752	0.96257	-0.005
Mof_C 	C 	0.50207	0.9903	0.94884	-0.045
Mof_H 	H 	0.5168	0.9439	0.9512	0.044
Mof_C 	C 	0.46901	0.972	0.93179	-0.042
Mof_H 	H 	0.4614	0.9133	0.923	0.041
Mof_C 	C 	0.55005	0.093	0.98058	0.069
Mof_C 	C 	0.5665	0.1509	0.01446	-0.128
Mof_H 	H 	0.5546	0.1828	0.0263	0.069
Mof_C 	C 	0.6002	0.1639	0.03171	0.067
Mof_H 	H 	0.6112	0.2027	0.0557	0.019
Mof_C 	C 	0.61748	0.1199	0.01373	-0.152
Mof_C 	C 	0.60134	0.061	0.97981	0.062
Mof_H 	H 	0.6132	0.0306	0.9675	0.021
Mof_C 	C 	0.56799	0.046	0.96356	-0.129
Mof_H 	H 	0.5573	0.0039	0.941	0.073
Mof_C 	C 	0.65317	0.1345	0.02963	0.428
Mof_O 	O 	0.66934	0.16852	0.06643	-0.51
Mof_O 	O 	0.66411	0.10976	0.0039	-0.507
Mof_H 	H 	0.25515	0.67078	0.9099	0.126
Mof_H 	H 	0.2199	0.2	0.49892	0.132
Mof_Zn	Zn	0.7072	0.11749	0.00819	1.225
Mof_Zn	Zn	0.2202	0.28598	0.35055	1.217
Mof_Zn	Zn	0.78583	0.69708	0.39469	1.222
Mof_Zn	Zn	0.76878	0.25012	0.0505	1.22
Mof_O 	O 	0.7199	0.23367	0.99892	-0.744
Mof_C 	C 	0.8853	0.5401	0.25848	0.071
Mof_C 	C 	0.8678	0.4744	0.26757	-0.13
Mof_H 	H 	0.8448	0.4802	0.2565	0.077
Mof_C 	C 	0.88349	0.4012	0.29242	0.073
Mof_C 	C 	0.91744	0.3938	0.30817	-0.129
Mof_H 	H 	0.9284	0.3431	0.3248	0.073
Mof_O 	O 	0.18438	0.26485	0.39886	-0.482
Mof_O 	O 	0.17912	0.33985	0.34059	-0.478
Mof_C 	C 	0.86812	0.6161	0.23004	-0.009
Mof_C 	C 	0.88294	0.6994	0.23702	-0.041
Mof_H 	H 	0.9041	0.708	0.2608	0.04
Mof_C 	C 	0.86701	0.7703	0.20943	-0.051
Mof_H 	H 	0.8775	0.8264	0.2146	0.044
Mof_C 	C 	0.83604	0.76	0.17446	0.002
Mof_C 	C 	0.82115	0.6763	0.16691	-0.052
Mof_H 	H 	0.8001	0.6677	0.1431	0.052
Mof_C 	C 	0.83714	0.6061	0.19418	-0.04
Mof_H 	H 	0.8269	0.5496	0.1885	0.048
Mof_C 	C 	0.81818	0.8374	0.14731	0.058
Mof_C 	C 	0.83439	0.9048	0.13735	-0.113
Mof_H 	H 	0.8573	0.9005	0.1468	0.068
Mof_C 	C 	0.81721	0.9783	0.11369	0.047
Mof_H 	H 	0.8285	0.0245	0.1074	0.031
Mof_C 	C 	0.7836	0.9849	0.09907	-0.123
Mof_C 	C 	0.7673	0.9179	0.10892	0.045
Mof_H 	H 	0.7444	0.9223	0.0994	0.032
Mof_C 	C 	0.78453	0.8446	0.1326	-0.109
Mof_H 	H 	0.7732	0.7987	0.1389	0.07
Mof_C 	C 	0.76486	0.0633	0.07382	0.367
Mof_O 	O 	0.7789	0.11585	0.05956	-0.476
Mof_O 	O 	0.73546	0.07245	0.06738	-0.528
Mof_C 	C 	0.86503	0.3287	0.30136	-0.005
Mof_C 	C 	0.83324	0.3065	0.27075	-0.045
Mof_H 	H 	0.8223	0.3414	0.2453	0.037
Mof_C 	C 	0.8174	0.2328	0.27748	-0.05
Mof_H 	H 	0.7958	0.2184	0.2562	0.043
Mof_C 	C 	0.83248	0.181	0.31418	-0.002
Mof_C 	C 	0.86395	0.2061	0.34563	-0.048
Mof_H 	H 	0.8746	0.1728	0.3718	0.043
Mof_C 	C 	0.8797	0.2788	0.33899	-0.044
Mof_H 	H 	0.901	0.2946	0.3608	0.043
Mof_C 	C 	0.81684	0.0998	0.32109	0.06
Mof_C 	C 	0.78302	0.0907	0.30179	-0.116
Mof_H 	H 	0.7695	0.1368	0.2838	0.065
Mof_C 	C 	0.76866	0.0148	0.30851	0.044
Mof_H 	H 	0.7455	0.0099	0.2956	0.024
Mof_C 	C 	0.78838	0.9459	0.33433	-0.128
Mof_C 	C 	0.82199	0.9546	0.35275	0.05
Mof_H 	H 	0.8356	0.9077	0.37	0.027
Mof_C 	C 	0.83613	0.03	0.34651	-0.117
Mof_H 	H 	0.8593	0.0348	0.3596	0.067
Mof_C 	C 	0.77362	0.8638	0.3426	0.385
Mof_O 	O 	0.74272	0.86281	0.32727	-0.493
Mof_O 	O 	0.7932	0.80471	0.36543	-0.471
Mof_C 	C 	0.97161	0.4454	0.31516	-0.009
Mof_C 	C 	0.98936	0.3828	0.34427	-0.041
Mof_H 	H 	0.9793	0.3495	0.3582	0.043
Mof_C 	C 	0.02173	0.3654	0.35463	-0.049
Mof_H 	H 	0.0331	0.32	0.375	0.046
Mof_C 	C 	0.03779	0.4123	0.3361	-0.004
Mof_C 	C 	0.0215	0.4814	0.31177	-0.049
Mof_H 	H 	0.0325	0.5204	0.3013	0.043
Mof_C 	C 	0.98875	0.4984	0.30105	-0.044
Mof_H 	H 	0.9782	0.5483	0.2835	0.038
Mof_C 	C 	0.07213	0.3897	0.34491	0.07
Mof_C 	C 	0.09394	0.3506	0.38316	-0.131
Mof_H 	H 	0.0873	0.339	0.4049	0.077
Mof_C 	C 	0.12508	0.328	0.3908	0.066
Mof_H 	H 	0.1396	0.301	0.4176	0.01
Mof_C 	C 	0.13555	0.3443	0.35962	-0.142
Mof_C 	C 	0.11427	0.3865	0.32171	0.062
Mof_H 	H 	0.1213	0.4007	0.3006	0.028
Mof_C 	C 	0.08279	0.4083	0.31414	-0.125
Mof_H 	H 	0.0683	0.4364	0.2876	0.075
Mof_C 	C 	0.16898	0.3151	0.3675	0.391
Mof_C 	C 	0.93553	0.4584	0.30014	0.069
Mof_C 	C 	0.91923	0.5315	0.27583	-0.135
Mof_H 	H 	0.9314	0.5769	0.2708	0.071
Mof_O 	O 	0.25515	0.26289	0.4099	-0.751
Mof_C 	C 	0.86407	0.4314	0.8601	0.075
Mof_C 	C 	0.84406	0.484	0.87095	-0.134
Mof_H 	H 	0.8212	0.4722	0.8581	0.08
Mof_C 	C 	0.85686	0.5534	0.90015	0.074
Mof_C 	C 	0.89044	0.5689	0.91977	-0.129
Mof_H 	H 	0.8995	0.6141	0.9411	0.074
Mof_C 	C 	0.91109	0.5188	0.90857	0.072
Mof_C 	C 	0.89722	0.4506	0.87846	-0.13
Mof_H 	H 	0.9109	0.4164	0.8703	0.075
Mof_C 	C 	0.85003	0.3542	0.83018	-0.006
Mof_C 	C 	0.86772	0.2754	0.838	-0.043
Mof_H 	H 	0.8891	0.2717	0.8619	0.041
Mof_C 	C 	0.85462	0.2029	0.81155	-0.042
Mof_H 	H 	0.8671	0.1498	0.8174	0.042
Mof_C 	C 	0.82327	0.2057	0.77619	-0.004
Mof_C 	C 	0.80629	0.2855	0.76804	-0.04
Mof_H 	H 	0.7853	0.29	0.7437	0.04
Mof_C 	C 	0.81931	0.3579	0.79459	-0.047
Mof_H 	H 	0.807	0.4114	0.7884	0.046
Mof_C 	C 	0.80872	0.1259	0.74904	0.069
Mof_C 	C 	0.82845	0.0616	0.74371	-0.122
Mof_H 	H 	0.8515	0.07	0.757	0.07
Mof_C 	C 	0.81528	0.9867	0.71969	0.063
Mof_H 	H 	0.8292	0.9436	0.7167	0.025
Mof_C 	C 	0.7815	0.9732	0.69949	-0.14
Mof_C 	C 	0.7616	0.0363	0.70431	0.063
Mof_H 	H 	0.7385	0.0277	0.6907	0.019
Mof_C 	C 	0.7749	0.1119	0.72878	-0.123
Mof_H 	H 	0.7609	0.1547	0.7318	0.071
Mof_C 	C 	0.76741	0.8922	0.67265	0.407
Mof_O 	O 	0.78752	0.8345	0.67289	-0.504
Mof_O 	O 	0.7369	0.88601	0.65294	-0.496
Mof_C 	C 	0.83484	0.6142	0.90868	-0.002
Mof_C 	C 	0.81204	0.6634	0.87383	-0.051
Mof_H 	H 	0.8094	0.6533	0.8453	0.051
Mof_C 	C 	0.7934	0.7267	0.88093	-0.039
Mof_H 	H 	0.7782	0.7606	0.8571	0.04
Mof_C 	C 	0.79629	0.7421	0.92217	-0.017
Mof_C 	C 	0.81805	0.6892	0.95616	-0.038
Mof_H 	H 	0.8197	0.696	0.9844	0.045
Mof_C 	C 	0.83724	0.6271	0.94935	-0.053
Mof_H 	H 	0.8523	0.5928	0.9731	0.051
Mof_C 	C 	0.77737	0.8147	0.92929	0.081
Mof_C 	C 	0.7647	0.8067	0.959	-0.142
Mof_H 	H 	0.767	0.7523	0.974	0.079
Mof_C 	C 	0.74877	0.8775	0.96657	0.081
Mof_H 	H 	0.7401	0.8713	0.9866	0.014
Mof_C 	C 	0.74545	0.957	0.94524	-0.166
Mof_C 	C 	0.75729	0.9646	0.91509	0.087
Mof_H 	H 	0.7546	0.0186	0.8997	-0.006
Mof_C 	C 	0.77293	0.8938	0.90731	-0.151
Mof_H 	H 	0.7808	0.8998	0.8864	0.084
Mof_C 	C 	0.73099	0.0356	0.95619	0.417
Mof_O 	O 	0.7138	0.02156	0.97551	-0.481
Mof_O 	O 	0.73744	0.10997	0.94663	-0.499
Mof_C 	C 	0.94662	0.5394	0.92746	-0.009
Mof_C 	C 	0.95901	0.6229	0.94184	-0.045
Mof_H 	H 	0.9444	0.6696	0.9397	0.04
Mof_C 	C 	0.99228	0.6404	0.9593	-0.049
Mof_H 	H 	0.0001	0.6986	0.9693	0.042
Mof_C 	C 	0.01431	0.5752	0.96257	-0.005
Mof_C 	C 	0.00207	0.4903	0.94884	-0.044
Mof_H 	H 	0.0168	0.4439	0.9512	0.044
Mof_C 	C 	0.96901	0.472	0.93179	-0.042
Mof_H 	H 	0.9614	0.4133	0.923	0.041
Mof_C 	C 	0.05005	0.593	0.98058	0.068
Mof_C 	C 	0.0665	0.6509	0.01446	-0.128
Mof_H 	H 	0.0546	0.6828	0.0263	0.069
Mof_C 	C 	0.1002	0.6639	0.03171	0.066
Mof_H 	H 	0.1112	0.7027	0.0557	0.019
Mof_C 	C 	0.11748	0.6199	0.01373	-0.151
Mof_C 	C 	0.10134	0.561	0.97981	0.062
Mof_H 	H 	0.1132	0.5306	0.9675	0.021
Mof_C 	C 	0.06799	0.546	0.96356	-0.129
Mof_H 	H 	0.0573	0.5039	0.941	0.073
Mof_C 	C 	0.15317	0.6345	0.02963	0.428
Mof_O 	O 	0.16934	0.66852	0.06643	-0.51
Mof_O 	O 	0.16411	0.60976	0.0039	-0.507
Mof_H 	H 	0.75515	0.17078	0.9099	0.126
Mof_H 	H 	0.7199	0.7	0.49892	0.132
Mof_Zn	Zn	0.7928	0.61749	0.49181	1.225
Mof_Zn	Zn	0.2798	0.78598	0.14945	1.217
Mof_Zn	Zn	0.71417	0.19708	0.10531	1.222
Mof_Zn	Zn	0.73122	0.75012	0.4495	1.22
Mof_O 	O 	0.7801	0.73367	0.50108	-0.744
Mof_C 	C 	0.6147	0.0401	0.24152	0.071
Mof_C 	C 	0.6322	0.9744	0.23243	-0.13
Mof_H 	H 	0.6552	0.9802	0.2435	0.077
Mof_C 	C 	0.61651	0.9012	0.20758	0.073
Mof_C 	C 	0.58256	0.8938	0.19183	-0.129
Mof_H 	H 	0.5716	0.8431	0.1752	0.073
Mof_O 	O 	0.31562	0.76485	0.10114	-0.482
Mof_O 	O 	0.32088	0.83985	0.15941	-0.478
Mof_C 	C 	0.63188	0.1161	0.26996	-0.009
Mof_C 	C 	0.61706	0.1994	0.26298	-0.041
Mof_H 	H 	0.5959	0.208	0.2392	0.04
Mof_C 	C 	0.63299	0.2703	0.29057	-0.051
Mof_H 	H 	0.6225	0.3264	0.2854	0.044
Mof_C 	C 	0.66396	0.26	0.32554	0.002
Mof_C 	C 	0.67885	0.1763	0.33309	-0.052
Mof_H 	H 	0.6999	0.1677	0.3569	0.052
Mof_C 	C 	0.66286	0.1061	0.30582	-0.04
Mof_H 	H 	0.6731	0.0496	0.3115	0.048
Mof_C 	C 	0.68182	0.3374	0.35269	0.058
Mof_C 	C 	0.66561	0.4048	0.36265	-0.113
Mof_H 	H 	0.6427	0.4005	0.3532	0.068
Mof_C 	C 	0.68279	0.4783	0.38631	0.047
Mof_H 	H 	0.6715	0.5245	0.3926	0.031
Mof_C 	C 	0.7164	0.4849	0.40093	-0.123
Mof_C 	C 	0.7327	0.4179	0.39108	0.045
Mof_H 	H 	0.7556	0.4223	0.4006	0.032
Mof_C 	C 	0.71547	0.3446	0.3674	-0.109
Mof_H 	H 	0.7268	0.2987	0.3611	0.07
Mof_C 	C 	0.73514	0.5633	0.42618	0.368
Mof_O 	O 	0.7211	0.61585	0.44044	-0.476
Mof_O 	O 	0.76454	0.57245	0.43262	-0.528
Mof_C 	C 	0.63497	0.8287	0.19864	-0.005
Mof_C 	C 	0.66676	0.8065	0.22925	-0.045
Mof_H 	H 	0.6777	0.8414	0.2547	0.037
Mof_C 	C 	0.6826	0.7328	0.22252	-0.05
Mof_H 	H 	0.7042	0.7184	0.2438	0.043
Mof_C 	C 	0.66752	0.681	0.18582	-0.002
Mof_C 	C 	0.63605	0.7061	0.15437	-0.048
Mof_H 	H 	0.6254	0.6728	0.1282	0.043
Mof_C 	C 	0.6203	0.7788	0.16101	-0.044
Mof_H 	H 	0.599	0.7946	0.1392	0.043
Mof_C 	C 	0.68316	0.5998	0.17891	0.06
Mof_C 	C 	0.71698	0.5907	0.19821	-0.116
Mof_H 	H 	0.7305	0.6368	0.2162	0.065
Mof_C 	C 	0.73134	0.5148	0.19149	0.044
Mof_H 	H 	0.7545	0.5099	0.2044	0.024
Mof_C 	C 	0.71162	0.4459	0.16567	-0.128
Mof_C 	C 	0.67801	0.4546	0.14725	0.05
Mof_H 	H 	0.6644	0.4077	0.13	0.028
Mof_C 	C 	0.66387	0.53	0.15349	-0.117
Mof_H 	H 	0.6407	0.5348	0.1404	0.067
Mof_C 	C 	0.72638	0.3638	0.1574	0.385
Mof_O 	O 	0.75728	0.36281	0.17273	-0.493
Mof_O 	O 	0.7068	0.30471	0.13457	-0.471
Mof_C 	C 	0.52839	0.9454	0.18484	-0.009
Mof_C 	C 	0.51064	0.8828	0.15573	-0.041
Mof_H 	H 	0.5207	0.8495	0.1418	0.043
Mof_C 	C 	0.47827	0.8654	0.14537	-0.049
Mof_H 	H 	0.4669	0.82	0.125	0.046
Mof_C 	C 	0.46221	0.9123	0.1639	-0.004
Mof_C 	C 	0.4785	0.9814	0.18823	-0.048
Mof_H 	H 	0.4675	0.0204	0.1987	0.043
Mof_C 	C 	0.51125	0.9984	0.19895	-0.044
Mof_H 	H 	0.5218	0.0483	0.2165	0.038
Mof_C 	C 	0.42787	0.8897	0.15509	0.07
Mof_C 	C 	0.40606	0.8506	0.11684	-0.131
Mof_H 	H 	0.4127	0.839	0.0951	0.077
Mof_C 	C 	0.37492	0.828	0.1092	0.066
Mof_H 	H 	0.3604	0.801	0.0824	0.01
Mof_C 	C 	0.36445	0.8443	0.14038	-0.142
Mof_C 	C 	0.38573	0.8865	0.17829	0.062
Mof_H 	H 	0.3787	0.9007	0.1994	0.028
Mof_C 	C 	0.41721	0.9083	0.18586	-0.125
Mof_H 	H 	0.4317	0.9364	0.2124	0.075
Mof_C 	C 	0.33102	0.8151	0.1325	0.391
Mof_C 	C 	0.56447	0.9584	0.19986	0.07
Mof_C 	C 	0.58077	0.0315	0.22417	-0.135
Mof_H 	H 	0.5686	0.0769	0.2292	0.071
Mof_O 	O 	0.24485	0.76289	0.0901	-0.751
Mof_C 	C 	0.63593	0.9314	0.6399	0.075
Mof_C 	C 	0.65594	0.984	0.62905	-0.134
Mof_H 	H 	0.6788	0.9722	0.6419	0.08
Mof_C 	C 	0.64314	0.0534	0.59985	0.074
Mof_C 	C 	0.60956	0.0689	0.58023	-0.13
Mof_H 	H 	0.6005	0.1141	0.5589	0.075
Mof_C 	C 	0.58891	0.0188	0.59143	0.072
Mof_C 	C 	0.60278	0.9506	0.62154	-0.13
Mof_H 	H 	0.5891	0.9164	0.6297	0.075
Mof_C 	C 	0.64997	0.8542	0.66982	-0.006
Mof_C 	C 	0.63228	0.7754	0.662	-0.043
Mof_H 	H 	0.6109	0.7717	0.6381	0.041
Mof_C 	C 	0.64538	0.7029	0.68845	-0.042
Mof_H 	H 	0.6329	0.6498	0.6826	0.042
Mof_C 	C 	0.67673	0.7057	0.72381	-0.004
Mof_C 	C 	0.69371	0.7855	0.73196	-0.04
Mof_H 	H 	0.7147	0.79	0.7563	0.04
Mof_C 	C 	0.68069	0.8579	0.70541	-0.047
Mof_H 	H 	0.693	0.9114	0.7116	0.046
Mof_C 	C 	0.69128	0.6259	0.75096	0.07
Mof_C 	C 	0.67155	0.5616	0.75629	-0.122
Mof_H 	H 	0.6485	0.57	0.743	0.07
Mof_C 	C 	0.68472	0.4867	0.78031	0.063
Mof_H 	H 	0.6708	0.4436	0.7833	0.025
Mof_C 	C 	0.7185	0.4732	0.80051	-0.14
Mof_C 	C 	0.7384	0.5363	0.79569	0.063
Mof_H 	H 	0.7615	0.5277	0.8093	0.019
Mof_C 	C 	0.7251	0.6119	0.77122	-0.123
Mof_H 	H 	0.7391	0.6547	0.7682	0.071
Mof_C 	C 	0.73259	0.3922	0.82735	0.407
Mof_O 	O 	0.71248	0.3345	0.82711	-0.504
Mof_O 	O 	0.7631	0.38601	0.84706	-0.496
Mof_C 	C 	0.66516	0.1142	0.59132	-0.003
Mof_C 	C 	0.68796	0.1634	0.62617	-0.051
Mof_H 	H 	0.6906	0.1533	0.6547	0.051
Mof_C 	C 	0.7066	0.2267	0.61907	-0.039
Mof_H 	H 	0.7218	0.2606	0.6429	0.04
Mof_C 	C 	0.70371	0.2421	0.57783	-0.017
Mof_C 	C 	0.68195	0.1892	0.54384	-0.038
Mof_H 	H 	0.6803	0.196	0.5156	0.045
Mof_C 	C 	0.66276	0.1271	0.55065	-0.053
Mof_H 	H 	0.6477	0.0928	0.5269	0.051
Mof_C 	C 	0.72263	0.3147	0.57071	0.081
Mof_C 	C 	0.7353	0.3067	0.541	-0.142
Mof_H 	H 	0.733	0.2523	0.526	0.079
Mof_C 	C 	0.75123	0.3775	0.53343	0.081
Mof_H 	H 	0.7599	0.3713	0.5134	0.014
Mof_C 	C 	0.75455	0.457	0.55476	-0.166
Mof_C 	C 	0.74271	0.4646	0.58491	0.087
Mof_H 	H 	0.7454	0.5186	0.6003	-0.006
Mof_C 	C 	0.72707	0.3938	0.59269	-0.151
Mof_H 	H 	0.7192	0.3998	0.6136	0.084
Mof_C 	C 	0.76901	0.5356	0.54381	0.417
Mof_O 	O 	0.7862	0.52156	0.52449	-0.481
Mof_O 	O 	0.76256	0.60997	0.55337	-0.499
Mof_C 	C 	0.55338	0.0394	0.57254	-0.009
Mof_C 	C 	0.54099	0.1229	0.55816	-0.045
Mof_H 	H 	0.5556	0.1696	0.5603	0.04
Mof_C 	C 	0.50772	0.1404	0.5407	-0.049
Mof_H 	H 	0.4999	0.1986	0.5307	0.042
Mof_C 	C 	0.48569	0.0752	0.53743	-0.005
Mof_C 	C 	0.49793	0.9903	0.55116	-0.045
Mof_H 	H 	0.4832	0.9439	0.5488	0.044
Mof_C 	C 	0.53099	0.972	0.56821	-0.042
Mof_H 	H 	0.5386	0.9133	0.577	0.041
Mof_C 	C 	0.44995	0.093	0.51942	0.068
Mof_C 	C 	0.4335	0.1509	0.48554	-0.128
Mof_H 	H 	0.4454	0.1828	0.4737	0.069
Mof_C 	C 	0.3998	0.1639	0.46829	0.066
Mof_H 	H 	0.3888	0.2027	0.4443	0.019
Mof_C 	C 	0.38252	0.1199	0.48627	-0.151
Mof_C 	C 	0.39866	0.061	0.52019	0.062
Mof_H 	H 	0.3868	0.0306	0.5325	0.021
Mof_C 	C 	0.43201	0.046	0.53644	-0.129
Mof_H 	H 	0.4427	0.0039	0.559	0.073
Mof_C 	C 	0.34683	0.1345	0.47037	0.428
Mof_O 	O 	0.33066	0.16852	0.43357	-0.51
Mof_O 	O 	0.33589	0.10976	0.4961	-0.507
Mof_H 	H 	0.74485	0.67078	0.5901	0.126
Mof_H 	H 	0.7801	0.2	0.00108	0.132
Mof_Zn	Zn	0.2928	0.11749	0.49181	1.225
Mof_Zn	Zn	0.7798	0.28598	0.14945	1.217
Mof_Zn	Zn	0.21417	0.69708	0.10531	1.222
Mof_Zn	Zn	0.23122	0.25012	0.4495	1.22
Mof_O 	O 	0.2801	0.23367	0.50108	-0.744
Mof_C 	C 	0.1147	0.5401	0.24152	0.071
Mof_C 	C 	0.1322	0.4744	0.23243	-0.13
Mof_H 	H 	0.1552	0.4802	0.2435	0.077
Mof_C 	C 	0.11651	0.4012	0.20758	0.073
Mof_C 	C 	0.08256	0.3938	0.19183	-0.129
Mof_H 	H 	0.0716	0.3431	0.1752	0.073
Mof_O 	O 	0.81562	0.26485	0.10114	-0.482
Mof_O 	O 	0.82088	0.33985	0.15941	-0.478
Mof_C 	C 	0.13188	0.6161	0.26996	-0.009
Mof_C 	C 	0.11706	0.6994	0.26298	-0.041
Mof_H 	H 	0.0959	0.708	0.2392	0.04
Mof_C 	C 	0.13299	0.7703	0.29057	-0.051
Mof_H 	H 	0.1225	0.8264	0.2854	0.044
Mof_C 	C 	0.16396	0.76	0.32554	0.002
Mof_C 	C 	0.17885	0.6763	0.33309	-0.052
Mof_H 	H 	0.1999	0.6677	0.3569	0.052
Mof_C 	C 	0.16286	0.6061	0.30582	-0.04
Mof_H 	H 	0.1731	0.5496	0.3115	0.048
Mof_C 	C 	0.18182	0.8374	0.35269	0.058
Mof_C 	C 	0.16561	0.9048	0.36265	-0.113
Mof_H 	H 	0.1427	0.9005	0.3532	0.068
Mof_C 	C 	0.18279	0.9783	0.38631	0.047
Mof_H 	H 	0.1715	0.0245	0.3926	0.031
Mof_C 	C 	0.2164	0.9849	0.40093	-0.123
Mof_C 	C 	0.2327	0.9179	0.39108	0.045
Mof_H 	H 	0.2556	0.9223	0.4006	0.032
Mof_C 	C 	0.21547	0.8446	0.3674	-0.109
Mof_H 	H 	0.2268	0.7987	0.3611	0.07
Mof_C 	C 	0.23514	0.0633	0.42618	0.368
Mof_O 	O 	0.2211	0.11585	0.44044	-0.476
Mof_O 	O 	0.26454	0.07245	0.43262	-0.528
Mof_C 	C 	0.13497	0.3287	0.19864	-0.005
Mof_C 	C 	0.16676	0.3065	0.22925	-0.045
Mof_H 	H 	0.1777	0.3414	0.2547	0.037
Mof_C 	C 	0.1826	0.2328	0.22252	-0.05
Mof_H 	H 	0.2042	0.2184	0.2438	0.043
Mof_C 	C 	0.16752	0.181	0.18582	-0.002
Mof_C 	C 	0.13605	0.2061	0.15437	-0.048
Mof_H 	H 	0.1254	0.1728	0.1282	0.043
Mof_C 	C 	0.1203	0.2788	0.16101	-0.044
Mof_H 	H 	0.099	0.2946	0.1392	0.043
Mof_C 	C 	0.18316	0.0998	0.17891	0.06
Mof_C 	C 	0.21698	0.0907	0.19821	-0.116
Mof_H 	H 	0.2305	0.1368	0.2162	0.065
Mof_C 	C 	0.23134	0.0148	0.19149	0.044
Mof_H 	H 	0.2545	0.0099	0.2044	0.024
Mof_C 	C 	0.21162	0.9459	0.16567	-0.128
Mof_C 	C 	0.17801	0.9546	0.14725	0.05
Mof_H 	H 	0.1644	0.9077	0.13	0.027
Mof_C 	C 	0.16387	0.03	0.15349	-0.118
Mof_H 	H 	0.1407	0.0348	0.1404	0.067
Mof_C 	C 	0.22638	0.8638	0.1574	0.385
Mof_O 	O 	0.25728	0.86281	0.17273	-0.493
Mof_O 	O 	0.2068	0.80471	0.13457	-0.471
Mof_C 	C 	0.02839	0.4454	0.18484	-0.009
Mof_C 	C 	0.01064	0.3828	0.15573	-0.041
Mof_H 	H 	0.0207	0.3495	0.1418	0.043
Mof_C 	C 	0.97827	0.3654	0.14537	-0.049
Mof_H 	H 	0.9669	0.32	0.125	0.046
Mof_C 	C 	0.96221	0.4123	0.1639	-0.004
Mof_C 	C 	0.9785	0.4814	0.18823	-0.049
Mof_H 	H 	0.9675	0.5204	0.1987	0.043
Mof_C 	C 	0.01125	0.4984	0.19895	-0.044
Mof_H 	H 	0.0218	0.5483	0.2165	0.038
Mof_C 	C 	0.92787	0.3897	0.15509	0.07
Mof_C 	C 	0.90606	0.3506	0.11684	-0.131
Mof_H 	H 	0.9127	0.339	0.0951	0.077
Mof_C 	C 	0.87492	0.328	0.1092	0.066
Mof_H 	H 	0.8604	0.301	0.0824	0.01
Mof_C 	C 	0.86445	0.3443	0.14038	-0.142
Mof_C 	C 	0.88573	0.3865	0.17829	0.062
Mof_H 	H 	0.8787	0.4007	0.1994	0.028
Mof_C 	C 	0.91721	0.4083	0.18586	-0.125
Mof_H 	H 	0.9317	0.4364	0.2124	0.075
Mof_C 	C 	0.83102	0.3151	0.1325	0.391
Mof_C 	C 	0.06447	0.4584	0.19986	0.069
Mof_C 	C 	0.08077	0.5315	0.22417	-0.135
Mof_H 	H 	0.0686	0.5769	0.2292	0.071
Mof_O 	O 	0.74485	0.26289	0.0901	-0.751
Mof_C 	C 	0.13593	0.4314	0.6399	0.075
Mof_C 	C 	0.15594	0.484	0.62905	-0.134
Mof_H 	H 	0.1788	0.4722	0.6419	0.08
Mof_C 	C 	0.14314	0.5534	0.59985	0.074
Mof_C 	C 	0.10956	0.5689	0.58023	-0.129
Mof_H 	H 	0.1005	0.6141	0.5589	0.074
Mof_C 	C 	0.08891	0.5188	0.59143	0.072
Mof_C 	C 	0.10278	0.4506	0.62154	-0.13
Mof_H 	H 	0.0891	0.4164	0.6297	0.075
Mof_C 	C 	0.14997	0.3542	0.66982	-0.006
Mof_C 	C 	0.13228	0.2754	0.662	-0.043
Mof_H 	H 	0.1109	0.2717	0.6381	0.041
Mof_C 	C 	0.14538	0.2029	0.68845	-0.042
Mof_H 	H 	0.1329	0.1498	0.6826	0.042
Mof_C 	C 	0.17673	0.2057	0.72381	-0.004
Mof_C 	C 	0.19371	0.2855	0.73196	-0.04
Mof_H 	H 	0.2147	0.29	0.7563	0.04
Mof_C 	C 	0.18069	0.3579	0.70541	-0.047
Mof_H 	H 	0.193	0.4114	0.7116	0.046
Mof_C 	C 	0.19128	0.1259	0.75096	0.069
Mof_C 	C 	0.17155	0.0616	0.75629	-0.122
Mof_H 	H 	0.1485	0.07	0.743	0.07
Mof_C 	C 	0.18472	0.9867	0.78031	0.063
Mof_H 	H 	0.1708	0.9436	0.7833	0.025
Mof_C 	C 	0.2185	0.9732	0.80051	-0.14
Mof_C 	C 	0.2384	0.0363	0.79569	0.063
Mof_H 	H 	0.2615	0.0277	0.8093	0.019
Mof_C 	C 	0.2251	0.1119	0.77122	-0.123
Mof_H 	H 	0.2391	0.1547	0.7682	0.071
Mof_C 	C 	0.23259	0.8922	0.82735	0.407
Mof_O 	O 	0.21248	0.8345	0.82711	-0.504
Mof_O 	O 	0.2631	0.88601	0.84706	-0.496
Mof_C 	C 	0.16516	0.6142	0.59132	-0.002
Mof_C 	C 	0.18796	0.6634	0.62617	-0.051
Mof_H 	H 	0.1906	0.6533	0.6547	0.051
Mof_C 	C 	0.2066	0.7267	0.61907	-0.039
Mof_H 	H 	0.2218	0.7606	0.6429	0.04
Mof_C 	C 	0.20371	0.7421	0.57783	-0.017
Mof_C 	C 	0.18195	0.6892	0.54384	-0.038
Mof_H 	H 	0.1803	0.696	0.5156	0.045
Mof_C 	C 	0.16276	0.6271	0.55065	-0.053
Mof_H 	H 	0.1477	0.5928	0.5269	0.051
Mof_C 	C 	0.22263	0.8147	0.57071	0.081
Mof_C 	C 	0.2353	0.8067	0.541	-0.142
Mof_H 	H 	0.233	0.7523	0.526	0.079
Mof_C 	C 	0.25123	0.8775	0.53343	0.081
Mof_H 	H 	0.2599	0.8713	0.5134	0.014
Mof_C 	C 	0.25455	0.957	0.55476	-0.166
Mof_C 	C 	0.24271	0.9646	0.58491	0.087
Mof_H 	H 	0.2454	0.0186	0.6003	-0.006
Mof_C 	C 	0.22707	0.8938	0.59269	-0.151
Mof_H 	H 	0.2192	0.8998	0.6136	0.084
Mof_C 	C 	0.26901	0.0356	0.54381	0.417
Mof_O 	O 	0.2862	0.02156	0.52449	-0.481
Mof_O 	O 	0.26256	0.10997	0.55337	-0.499
Mof_C 	C 	0.05338	0.5394	0.57254	-0.009
Mof_C 	C 	0.04099	0.6229	0.55816	-0.045
Mof_H 	H 	0.0556	0.6696	0.5603	0.04
Mof_C 	C 	0.00772	0.6404	0.5407	-0.049
Mof_H 	H 	0.9999	0.6986	0.5307	0.042
Mof_C 	C 	0.98569	0.5752	0.53743	-0.005
Mof_C 	C 	0.99793	0.4903	0.55116	-0.044
Mof_H 	H 	0.9832	0.4439	0.5488	0.044
Mof_C 	C 	0.03099	0.472	0.56821	-0.042
Mof_H 	H 	0.0386	0.4133	0.577	0.041
Mof_C 	C 	0.94995	0.593	0.51942	0.068
Mof_C 	C 	0.9335	0.6509	0.48554	-0.128
Mof_H 	H 	0.9454	0.6828	0.4737	0.069
Mof_C 	C 	0.8998	0.6639	0.46829	0.066
Mof_H 	H 	0.8888	0.7027	0.4443	0.019
Mof_C 	C 	0.88252	0.6199	0.48627	-0.151
Mof_C 	C 	0.89866	0.561	0.52019	0.062
Mof_H 	H 	0.8868	0.5306	0.5325	0.021
Mof_C 	C 	0.93201	0.546	0.53644	-0.129
Mof_H 	H 	0.9427	0.5039	0.559	0.073
Mof_C 	C 	0.84683	0.6345	0.47037	0.428
Mof_O 	O 	0.83066	0.66852	0.43357	-0.51
Mof_O 	O 	0.83589	0.60976	0.4961	-0.507
Mof_H 	H 	0.24485	0.17078	0.5901	0.126
Mof_H 	H 	0.2801	0.7	0.00108	0.132
Mof_Zn	Zn	0.7928	0.38251	0.99181	1.225
Mof_Zn	Zn	0.2798	0.21402	0.64945	1.217
Mof_Zn	Zn	0.71417	0.80292	0.60531	1.222
Mof_Zn	Zn	0.73122	0.24988	0.9495	1.22
Mof_O 	O 	0.7801	0.26633	0.00108	-0.744
Mof_C 	C 	0.6147	0.9599	0.74152	0.071
Mof_C 	C 	0.6322	0.0256	0.73243	-0.13
Mof_H 	H 	0.6552	0.0198	0.7435	0.077
Mof_C 	C 	0.61651	0.0988	0.70758	0.073
Mof_C 	C 	0.58256	0.1062	0.69183	-0.129
Mof_H 	H 	0.5716	0.1569	0.6752	0.073
Mof_O 	O 	0.31562	0.23515	0.60114	-0.482
Mof_O 	O 	0.32088	0.16015	0.65941	-0.478
Mof_C 	C 	0.63188	0.8839	0.76996	-0.009
Mof_C 	C 	0.61706	0.8006	0.76298	-0.041
Mof_H 	H 	0.5959	0.792	0.7392	0.04
Mof_C 	C 	0.63299	0.7297	0.79057	-0.051
Mof_H 	H 	0.6225	0.6736	0.7854	0.044
Mof_C 	C 	0.66396	0.74	0.82554	0.002
Mof_C 	C 	0.67885	0.8237	0.83309	-0.052
Mof_H 	H 	0.6999	0.8323	0.8569	0.052
Mof_C 	C 	0.66286	0.8939	0.80582	-0.04
Mof_H 	H 	0.6731	0.9504	0.8115	0.048
Mof_C 	C 	0.68182	0.6626	0.85269	0.058
Mof_C 	C 	0.66561	0.5952	0.86265	-0.113
Mof_H 	H 	0.6427	0.5995	0.8532	0.068
Mof_C 	C 	0.68279	0.5217	0.88631	0.047
Mof_H 	H 	0.6715	0.4755	0.8926	0.031
Mof_C 	C 	0.7164	0.5151	0.90093	-0.123
Mof_C 	C 	0.7327	0.5821	0.89108	0.045
Mof_H 	H 	0.7556	0.5777	0.9006	0.032
Mof_C 	C 	0.71547	0.6554	0.8674	-0.109
Mof_H 	H 	0.7268	0.7013	0.8611	0.07
Mof_C 	C 	0.73514	0.4367	0.92618	0.368
Mof_O 	O 	0.7211	0.38415	0.94044	-0.476
Mof_O 	O 	0.76454	0.42755	0.93262	-0.528
Mof_C 	C 	0.63497	0.1713	0.69864	-0.005
Mof_C 	C 	0.66676	0.1935	0.72925	-0.045
Mof_H 	H 	0.6777	0.1586	0.7547	0.037
Mof_C 	C 	0.6826	0.2672	0.72252	-0.05
Mof_H 	H 	0.7042	0.2816	0.7438	0.043
Mof_C 	C 	0.66752	0.319	0.68582	-0.002
Mof_C 	C 	0.63605	0.2939	0.65437	-0.048
Mof_H 	H 	0.6254	0.3272	0.6282	0.043
Mof_C 	C 	0.6203	0.2212	0.66101	-0.044
Mof_H 	H 	0.599	0.2054	0.6392	0.043
Mof_C 	C 	0.68316	0.4002	0.67891	0.06
Mof_C 	C 	0.71698	0.4093	0.69821	-0.116
Mof_H 	H 	0.7305	0.3632	0.7162	0.065
Mof_C 	C 	0.73134	0.4852	0.69149	0.044
Mof_H 	H 	0.7545	0.4901	0.7044	0.024
Mof_C 	C 	0.71162	0.5541	0.66567	-0.128
Mof_C 	C 	0.67801	0.5454	0.64725	0.05
Mof_H 	H 	0.6644	0.5923	0.63	0.027
Mof_C 	C 	0.66387	0.47	0.65349	-0.117
Mof_H 	H 	0.6407	0.4652	0.6404	0.067
Mof_C 	C 	0.72638	0.6362	0.6574	0.385
Mof_O 	O 	0.75728	0.63719	0.67273	-0.493
Mof_O 	O 	0.7068	0.69529	0.63457	-0.471
Mof_C 	C 	0.52839	0.0546	0.68484	-0.009
Mof_C 	C 	0.51064	0.1172	0.65573	-0.041
Mof_H 	H 	0.5207	0.1505	0.6418	0.043
Mof_C 	C 	0.47827	0.1346	0.64537	-0.049
Mof_H 	H 	0.4669	0.18	0.625	0.046
Mof_C 	C 	0.46221	0.0877	0.6639	-0.004
Mof_C 	C 	0.4785	0.0186	0.68823	-0.048
Mof_H 	H 	0.4675	0.9796	0.6987	0.043
Mof_C 	C 	0.51125	0.0016	0.69895	-0.044
Mof_H 	H 	0.5218	0.9517	0.7165	0.038
Mof_C 	C 	0.42787	0.1103	0.65509	0.07
Mof_C 	C 	0.40606	0.1494	0.61684	-0.131
Mof_H 	H 	0.4127	0.161	0.5951	0.077
Mof_C 	C 	0.37492	0.172	0.6092	0.066
Mof_H 	H 	0.3604	0.199	0.5824	0.01
Mof_C 	C 	0.36445	0.1557	0.64038	-0.142
Mof_C 	C 	0.38573	0.1135	0.67829	0.062
Mof_H 	H 	0.3787	0.0993	0.6994	0.028
Mof_C 	C 	0.41721	0.0917	0.68586	-0.125
Mof_H 	H 	0.4317	0.0636	0.7124	0.075
Mof_C 	C 	0.33102	0.1849	0.6325	0.391
Mof_C 	C 	0.56447	0.0416	0.69986	0.069
Mof_C 	C 	0.58077	0.9685	0.72417	-0.135
Mof_H 	H 	0.5686	0.9231	0.7292	0.071
Mof_O 	O 	0.24485	0.23711	0.5901	-0.751
Mof_C 	C 	0.63593	0.0686	0.1399	0.076
Mof_C 	C 	0.65594	0.016	0.12905	-0.134
Mof_H 	H 	0.6788	0.0278	0.1419	0.08
Mof_C 	C 	0.64314	0.9466	0.09985	0.074
Mof_C 	C 	0.60956	0.9311	0.08023	-0.13
Mof_H 	H 	0.6005	0.8859	0.0589	0.075
Mof_C 	C 	0.58891	0.9812	0.09143	0.073
Mof_C 	C 	0.60278	0.0494	0.12154	-0.131
Mof_H 	H 	0.5891	0.0836	0.1297	0.075
Mof_C 	C 	0.64997	0.1458	0.16982	-0.006
Mof_C 	C 	0.63228	0.2246	0.162	-0.043
Mof_H 	H 	0.6109	0.2283	0.1381	0.041
Mof_C 	C 	0.64538	0.2971	0.18845	-0.042
Mof_H 	H 	0.6329	0.3502	0.1826	0.042
Mof_C 	C 	0.67673	0.2943	0.22381	-0.004
Mof_C 	C 	0.69371	0.2145	0.23196	-0.04
Mof_H 	H 	0.7147	0.21	0.2563	0.04
Mof_C 	C 	0.68069	0.1421	0.20541	-0.047
Mof_H 	H 	0.693	0.0886	0.2116	0.046
Mof_C 	C 	0.69128	0.3741	0.25096	0.07
Mof_C 	C 	0.67155	0.4384	0.25629	-0.122
Mof_H 	H 	0.6485	0.43	0.243	0.07
Mof_C 	C 	0.68472	0.5133	0.28031	0.063
Mof_H 	H 	0.6708	0.5564	0.2833	0.025
Mof_C 	C 	0.7185	0.5268	0.30051	-0.14
Mof_C 	C 	0.7384	0.4637	0.29569	0.063
Mof_H 	H 	0.7615	0.4723	0.3093	0.019
Mof_C 	C 	0.7251	0.3881	0.27122	-0.123
Mof_H 	H 	0.7391	0.3453	0.2682	0.071
Mof_C 	C 	0.73259	0.6078	0.32735	0.407
Mof_O 	O 	0.71248	0.6655	0.32711	-0.504
Mof_O 	O 	0.7631	0.61399	0.34706	-0.496
Mof_C 	C 	0.66516	0.8858	0.09132	-0.003
Mof_C 	C 	0.68796	0.8366	0.12617	-0.051
Mof_H 	H 	0.6906	0.8467	0.1547	0.05
Mof_C 	C 	0.7066	0.7733	0.11907	-0.039
Mof_H 	H 	0.7218	0.7394	0.1429	0.04
Mof_C 	C 	0.70371	0.7579	0.07783	-0.017
Mof_C 	C 	0.68195	0.8108	0.04384	-0.038
Mof_H 	H 	0.6803	0.804	0.0156	0.045
Mof_C 	C 	0.66276	0.8729	0.05065	-0.052
Mof_H 	H 	0.6477	0.9072	0.0269	0.051
Mof_C 	C 	0.72263	0.6853	0.07071	0.081
Mof_C 	C 	0.7353	0.6933	0.041	-0.142
Mof_H 	H 	0.733	0.7477	0.026	0.079
Mof_C 	C 	0.75123	0.6225	0.03343	0.081
Mof_H 	H 	0.7599	0.6287	0.0134	0.014
Mof_C 	C 	0.75455	0.543	0.05476	-0.166
Mof_C 	C 	0.74271	0.5354	0.08491	0.087
Mof_H 	H 	0.7454	0.4814	0.1003	-0.006
Mof_C 	C 	0.72707	0.6062	0.09269	-0.151
Mof_H 	H 	0.7192	0.6002	0.1136	0.084
Mof_C 	C 	0.76901	0.4644	0.04381	0.417
Mof_O 	O 	0.7862	0.47844	0.02449	-0.481
Mof_O 	O 	0.76256	0.39003	0.05337	-0.499
Mof_C 	C 	0.55338	0.9606	0.07254	-0.009
Mof_C 	C 	0.54099	0.8771	0.05816	-0.045
Mof_H 	H 	0.5556	0.8304	0.0603	0.04
Mof_C 	C 	0.50772	0.8596	0.0407	-0.049
Mof_H 	H 	0.4999	0.8014	0.0307	0.042
Mof_C 	C 	0.48569	0.9248	0.03743	-0.005
Mof_C 	C 	0.49793	0.0097	0.05116	-0.045
Mof_H 	H 	0.4832	0.0561	0.0488	0.044
Mof_C 	C 	0.53099	0.028	0.06821	-0.042
Mof_H 	H 	0.5386	0.0867	0.077	0.041
Mof_C 	C 	0.44995	0.907	0.01942	0.069
Mof_C 	C 	0.4335	0.8491	0.98554	-0.128
Mof_H 	H 	0.4454	0.8172	0.9737	0.069
Mof_C 	C 	0.3998	0.8361	0.96829	0.067
Mof_H 	H 	0.3888	0.7973	0.9443	0.019
Mof_C 	C 	0.38252	0.8801	0.98627	-0.152
Mof_C 	C 	0.39866	0.939	0.02019	0.062
Mof_H 	H 	0.3868	0.9694	0.0325	0.021
Mof_C 	C 	0.43201	0.954	0.03644	-0.129
Mof_H 	H 	0.4427	0.9961	0.059	0.073
Mof_C 	C 	0.34683	0.8655	0.97037	0.428
Mof_O 	O 	0.33066	0.83148	0.93357	-0.51
Mof_O 	O 	0.33589	0.89024	0.9961	-0.507
Mof_H 	H 	0.74485	0.32922	0.0901	0.126
Mof_H 	H 	0.7801	0.8	0.50108	0.132
Mof_Zn	Zn	0.2928	0.88251	0.99181	1.225
Mof_Zn	Zn	0.7798	0.71402	0.64945	1.217
Mof_Zn	Zn	0.21417	0.30292	0.60531	1.222
Mof_Zn	Zn	0.23122	0.74988	0.9495	1.22
Mof_O 	O 	0.2801	0.76633	0.00108	-0.744
Mof_C 	C 	0.1147	0.4599	0.74152	0.071
Mof_C 	C 	0.1322	0.5256	0.73243	-0.13
Mof_H 	H 	0.1552	0.5198	0.7435	0.077
Mof_C 	C 	0.11651	0.5988	0.70758	0.073
Mof_C 	C 	0.08256	0.6062	0.69183	-0.129
Mof_H 	H 	0.0716	0.6569	0.6752	0.073
Mof_O 	O 	0.81562	0.73515	0.60114	-0.482
Mof_O 	O 	0.82088	0.66015	0.65941	-0.478
Mof_C 	C 	0.13188	0.3839	0.76996	-0.009
Mof_C 	C 	0.11706	0.3006	0.76298	-0.041
Mof_H 	H 	0.0959	0.292	0.7392	0.04
Mof_C 	C 	0.13299	0.2297	0.79057	-0.051
Mof_H 	H 	0.1225	0.1736	0.7854	0.044
Mof_C 	C 	0.16396	0.24	0.82554	0.002
Mof_C 	C 	0.17885	0.3237	0.83309	-0.052
Mof_H 	H 	0.1999	0.3323	0.8569	0.052
Mof_C 	C 	0.16286	0.3939	0.80582	-0.04
Mof_H 	H 	0.1731	0.4504	0.8115	0.048
Mof_C 	C 	0.18182	0.1626	0.85269	0.058
Mof_C 	C 	0.16561	0.0952	0.86265	-0.113
Mof_H 	H 	0.1427	0.0995	0.8532	0.068
Mof_C 	C 	0.18279	0.0217	0.88631	0.047
Mof_H 	H 	0.1715	0.9755	0.8926	0.031
Mof_C 	C 	0.2164	0.0151	0.90093	-0.123
Mof_C 	C 	0.2327	0.0821	0.89108	0.045
Mof_H 	H 	0.2556	0.0777	0.9006	0.032
Mof_C 	C 	0.21547	0.1554	0.8674	-0.109
Mof_H 	H 	0.2268	0.2013	0.8611	0.07
Mof_C 	C 	0.23514	0.9367	0.92618	0.367
Mof_O 	O 	0.2211	0.88415	0.94044	-0.476
Mof_O 	O 	0.26454	0.92755	0.93262	-0.528
Mof_C 	C 	0.13497	0.6713	0.69864	-0.005
Mof_C 	C 	0.16676	0.6935	0.72925	-0.045
Mof_H 	H 	0.1777	0.6586	0.7547	0.037
Mof_C 	C 	0.1826	0.7672	0.72252	-0.05
Mof_H 	H 	0.2042	0.7816	0.7438	0.043
Mof_C 	C 	0.16752	0.819	0.68582	-0.002
Mof_C 	C 	0.13605	0.7939	0.65437	-0.048
Mof_H 	H 	0.1254	0.8272	0.6282	0.043
Mof_C 	C 	0.1203	0.7212	0.66101	-0.044
Mof_H 	H 	0.099	0.7054	0.6392	0.043
Mof_C 	C 	0.18316	0.9002	0.67891	0.06
Mof_C 	C 	0.21698	0.9093	0.69821	-0.116
Mof_H 	H 	0.2305	0.8632	0.7162	0.065
Mof_C 	C 	0.23134	0.9852	0.69149	0.044
Mof_H 	H 	0.2545	0.9901	0.7044	0.024
Mof_C 	C 	0.21162	0.0541	0.66567	-0.128
Mof_C 	C 	0.17801	0.0454	0.64725	0.05
Mof_H 	H 	0.1644	0.0923	0.63	0.027
Mof_C 	C 	0.16387	0.97	0.65349	-0.117
Mof_H 	H 	0.1407	0.9652	0.6404	0.067
Mof_C 	C 	0.22638	0.1362	0.6574	0.385
Mof_O 	O 	0.25728	0.13719	0.67273	-0.493
Mof_O 	O 	0.2068	0.19529	0.63457	-0.471
Mof_C 	C 	0.02839	0.5546	0.68484	-0.009
Mof_C 	C 	0.01064	0.6172	0.65573	-0.041
Mof_H 	H 	0.0207	0.6505	0.6418	0.043
Mof_C 	C 	0.97827	0.6346	0.64537	-0.049
Mof_H 	H 	0.9669	0.68	0.625	0.046
Mof_C 	C 	0.96221	0.5877	0.6639	-0.004
Mof_C 	C 	0.9785	0.5186	0.68823	-0.049
Mof_H 	H 	0.9675	0.4796	0.6987	0.043
Mof_C 	C 	0.01125	0.5016	0.69895	-0.044
Mof_H 	H 	0.0218	0.4517	0.7165	0.038
Mof_C 	C 	0.92787	0.6103	0.65509	0.07
Mof_C 	C 	0.90606	0.6494	0.61684	-0.131
Mof_H 	H 	0.9127	0.661	0.5951	0.077
Mof_C 	C 	0.87492	0.672	0.6092	0.066
Mof_H 	H 	0.8604	0.699	0.5824	0.01
Mof_C 	C 	0.86445	0.6557	0.64038	-0.142
Mof_C 	C 	0.88573	0.6135	0.67829	0.062
Mof_H 	H 	0.8787	0.5993	0.6994	0.028
Mof_C 	C 	0.91721	0.5917	0.68586	-0.125
Mof_H 	H 	0.9317	0.5636	0.7124	0.075
Mof_C 	C 	0.83102	0.6849	0.6325	0.391
Mof_C 	C 	0.06447	0.5416	0.69986	0.069
Mof_C 	C 	0.08077	0.4685	0.72417	-0.135
Mof_H 	H 	0.0686	0.4231	0.7292	0.071
Mof_O 	O 	0.74485	0.73711	0.5901	-0.751
Mof_C 	C 	0.13593	0.5686	0.1399	0.075
Mof_C 	C 	0.15594	0.516	0.12905	-0.134
Mof_H 	H 	0.1788	0.5278	0.1419	0.08
Mof_C 	C 	0.14314	0.4466	0.09985	0.074
Mof_C 	C 	0.10956	0.4311	0.08023	-0.129
Mof_H 	H 	0.1005	0.3859	0.0589	0.074
Mof_C 	C 	0.08891	0.4812	0.09143	0.072
Mof_C 	C 	0.10278	0.5494	0.12154	-0.13
Mof_H 	H 	0.0891	0.5836	0.1297	0.075
Mof_C 	C 	0.14997	0.6458	0.16982	-0.006
Mof_C 	C 	0.13228	0.7246	0.162	-0.043
Mof_H 	H 	0.1109	0.7283	0.1381	0.041
Mof_C 	C 	0.14538	0.7971	0.18845	-0.042
Mof_H 	H 	0.1329	0.8502	0.1826	0.042
Mof_C 	C 	0.17673	0.7943	0.22381	-0.004
Mof_C 	C 	0.19371	0.7145	0.23196	-0.04
Mof_H 	H 	0.2147	0.71	0.2563	0.04
Mof_C 	C 	0.18069	0.6421	0.20541	-0.047
Mof_H 	H 	0.193	0.5886	0.2116	0.046
Mof_C 	C 	0.19128	0.8741	0.25096	0.069
Mof_C 	C 	0.17155	0.9384	0.25629	-0.122
Mof_H 	H 	0.1485	0.93	0.243	0.07
Mof_C 	C 	0.18472	0.0133	0.28031	0.063
Mof_H 	H 	0.1708	0.0564	0.2833	0.025
Mof_C 	C 	0.2185	0.0268	0.30051	-0.14
Mof_C 	C 	0.2384	0.9637	0.29569	0.063
Mof_H 	H 	0.2615	0.9723	0.3093	0.019
Mof_C 	C 	0.2251	0.8881	0.27122	-0.123
Mof_H 	H 	0.2391	0.8453	0.2682	0.071
Mof_C 	C 	0.23259	0.1078	0.32735	0.407
Mof_O 	O 	0.21248	0.1655	0.32711	-0.504
Mof_O 	O 	0.2631	0.11399	0.34706	-0.496
Mof_C 	C 	0.16516	0.3858	0.09132	-0.002
Mof_C 	C 	0.18796	0.3366	0.12617	-0.051
Mof_H 	H 	0.1906	0.3467	0.1547	0.051
Mof_C 	C 	0.2066	0.2733	0.11907	-0.039
Mof_H 	H 	0.2218	0.2394	0.1429	0.04
Mof_C 	C 	0.20371	0.2579	0.07783	-0.017
Mof_C 	C 	0.18195	0.3108	0.04384	-0.038
Mof_H 	H 	0.1803	0.304	0.0156	0.045
Mof_C 	C 	0.16276	0.3729	0.05065	-0.053
Mof_H 	H 	0.1477	0.4072	0.0269	0.051
Mof_C 	C 	0.22263	0.1853	0.07071	0.081
Mof_C 	C 	0.2353	0.1933	0.041	-0.142
Mof_H 	H 	0.233	0.2477	0.026	0.079
Mof_C 	C 	0.25123	0.1225	0.03343	0.081
Mof_H 	H 	0.2599	0.1287	0.0134	0.014
Mof_C 	C 	0.25455	0.043	0.05476	-0.166
Mof_C 	C 	0.24271	0.0354	0.08491	0.087
Mof_H 	H 	0.2454	0.9814	0.1003	-0.006
Mof_C 	C 	0.22707	0.1062	0.09269	-0.151
Mof_H 	H 	0.2192	0.1002	0.1136	0.084
Mof_C 	C 	0.26901	0.9644	0.04381	0.417
Mof_O 	O 	0.2862	0.97844	0.02449	-0.481
Mof_O 	O 	0.26256	0.89003	0.05337	-0.499
Mof_C 	C 	0.05338	0.4606	0.07254	-0.009
Mof_C 	C 	0.04099	0.3771	0.05816	-0.045
Mof_H 	H 	0.0556	0.3304	0.0603	0.04
Mof_C 	C 	0.00772	0.3596	0.0407	-0.049
Mof_H 	H 	0.9999	0.3014	0.0307	0.042
Mof_C 	C 	0.98569	0.4248	0.03743	-0.005
Mof_C 	C 	0.99793	0.5097	0.05116	-0.044
Mof_H 	H 	0.9832	0.5561	0.0488	0.044
Mof_C 	C 	0.03099	0.528	0.06821	-0.042
Mof_H 	H 	0.0386	0.5867	0.077	0.041
Mof_C 	C 	0.94995	0.407	0.01942	0.068
Mof_C 	C 	0.9335	0.3491	0.98554	-0.128
Mof_H 	H 	0.9454	0.3172	0.9737	0.069
Mof_C 	C 	0.8998	0.3361	0.96829	0.066
Mof_H 	H 	0.8888	0.2973	0.9443	0.019
Mof_C 	C 	0.88252	0.3801	0.98627	-0.151
Mof_C 	C 	0.89866	0.439	0.02019	0.062
Mof_H 	H 	0.8868	0.4694	0.0325	0.021
Mof_C 	C 	0.93201	0.454	0.03644	-0.129
Mof_H 	H 	0.9427	0.4961	0.059	0.073
Mof_C 	C 	0.84683	0.3655	0.97037	0.428
Mof_O 	O 	0.83066	0.33148	0.93357	-0.51
Mof_O 	O 	0.83589	0.39024	0.9961	-0.507
Mof_H 	H 	0.24485	0.82922	0.0901	0.126
Mof_H 	H 	0.2801	0.3	0.50108	0.132
Mof_Zn	Zn	0.2072	0.38251	0.50819	1.225
Mof_Zn	Zn	0.7202	0.21402	0.85055	1.217
Mof_Zn	Zn	0.28583	0.80292	0.89469	1.222
Mof_Zn	Zn	0.26878	0.24988	0.5505	1.22
Mof_O 	O 	0.2199	0.26633	0.49892	-0.744
Mof_C 	C 	0.3853	0.9599	0.75848	0.071
Mof_C 	C 	0.3678	0.0256	0.76757	-0.13
Mof_H 	H 	0.3448	0.0198	0.7565	0.077
Mof_C 	C 	0.38349	0.0988	0.79242	0.073
Mof_C 	C 	0.41744	0.1062	0.80817	-0.129
Mof_H 	H 	0.4284	0.1569	0.8248	0.073
Mof_O 	O 	0.68438	0.23515	0.89886	-0.482
Mof_O 	O 	0.67912	0.16015	0.84059	-0.478
Mof_C 	C 	0.36812	0.8839	0.73004	-0.009
Mof_C 	C 	0.38294	0.8006	0.73702	-0.041
Mof_H 	H 	0.4041	0.792	0.7608	0.04
Mof_C 	C 	0.36701	0.7297	0.70943	-0.051
Mof_H 	H 	0.3775	0.6736	0.7146	0.044
Mof_C 	C 	0.33604	0.74	0.67446	0.002
Mof_C 	C 	0.32115	0.8237	0.66691	-0.052
Mof_H 	H 	0.3001	0.8323	0.6431	0.052
Mof_C 	C 	0.33714	0.8939	0.69418	-0.04
Mof_H 	H 	0.3269	0.9504	0.6885	0.048
Mof_C 	C 	0.31818	0.6626	0.64731	0.058
Mof_C 	C 	0.33439	0.5952	0.63735	-0.113
Mof_H 	H 	0.3573	0.5995	0.6468	0.068
Mof_C 	C 	0.31721	0.5217	0.61369	0.047
Mof_H 	H 	0.3285	0.4755	0.6074	0.031
Mof_C 	C 	0.2836	0.5151	0.59907	-0.123
Mof_C 	C 	0.2673	0.5821	0.60892	0.045
Mof_H 	H 	0.2444	0.5777	0.5994	0.032
Mof_C 	C 	0.28453	0.6554	0.6326	-0.109
Mof_H 	H 	0.2732	0.7013	0.6389	0.07
Mof_C 	C 	0.26486	0.4367	0.57382	0.368
Mof_O 	O 	0.2789	0.38415	0.55956	-0.476
Mof_O 	O 	0.23546	0.42755	0.56738	-0.528
Mof_C 	C 	0.36503	0.1713	0.80136	-0.005
Mof_C 	C 	0.33324	0.1935	0.77075	-0.045
Mof_H 	H 	0.3223	0.1586	0.7453	0.037
Mof_C 	C 	0.3174	0.2672	0.77748	-0.05
Mof_H 	H 	0.2958	0.2816	0.7562	0.043
Mof_C 	C 	0.33248	0.319	0.81418	-0.002
Mof_C 	C 	0.36395	0.2939	0.84563	-0.048
Mof_H 	H 	0.3746	0.3272	0.8718	0.043
Mof_C 	C 	0.3797	0.2212	0.83899	-0.044
Mof_H 	H 	0.401	0.2054	0.8608	0.043
Mof_C 	C 	0.31684	0.4002	0.82109	0.06
Mof_C 	C 	0.28302	0.4093	0.80179	-0.116
Mof_H 	H 	0.2695	0.3632	0.7838	0.065
Mof_C 	C 	0.26866	0.4852	0.80851	0.044
Mof_H 	H 	0.2455	0.4901	0.7956	0.024
Mof_C 	C 	0.28838	0.5541	0.83433	-0.128
Mof_C 	C 	0.32199	0.5454	0.85275	0.05
Mof_H 	H 	0.3356	0.5923	0.87	0.028
Mof_C 	C 	0.33613	0.47	0.84651	-0.117
Mof_H 	H 	0.3593	0.4652	0.8596	0.067
Mof_C 	C 	0.27362	0.6362	0.8426	0.385
Mof_O 	O 	0.24272	0.63719	0.82727	-0.493
Mof_O 	O 	0.2932	0.69529	0.86543	-0.471
Mof_C 	C 	0.47161	0.0546	0.81516	-0.009
Mof_C 	C 	0.48936	0.1172	0.84427	-0.041
Mof_H 	H 	0.4793	0.1505	0.8582	0.043
Mof_C 	C 	0.52173	0.1346	0.85463	-0.049
Mof_H 	H 	0.5331	0.18	0.875	0.046
Mof_C 	C 	0.53779	0.0877	0.8361	-0.004
Mof_C 	C 	0.5215	0.0186	0.81177	-0.048
Mof_H 	H 	0.5325	0.9796	0.8013	0.043
Mof_C 	C 	0.48875	0.0016	0.80105	-0.044
Mof_H 	H 	0.4782	0.9517	0.7835	0.038
Mof_C 	C 	0.57213	0.1103	0.84491	0.07
Mof_C 	C 	0.59394	0.1494	0.88316	-0.131
Mof_H 	H 	0.5873	0.161	0.9049	0.077
Mof_C 	C 	0.62508	0.172	0.8908	0.066
Mof_H 	H 	0.6396	0.199	0.9176	0.01
Mof_C 	C 	0.63555	0.1557	0.85962	-0.142
Mof_C 	C 	0.61427	0.1135	0.82171	0.062
Mof_H 	H 	0.6213	0.0993	0.8006	0.028
Mof_C 	C 	0.58279	0.0917	0.81414	-0.125
Mof_H 	H 	0.5683	0.0636	0.7876	0.075
Mof_C 	C 	0.66898	0.1849	0.8675	0.391
Mof_C 	C 	0.43553	0.0416	0.80014	0.07
Mof_C 	C 	0.41923	0.9685	0.77583	-0.135
Mof_H 	H 	0.4314	0.9231	0.7708	0.071
Mof_O 	O 	0.75515	0.23711	0.9099	-0.751
Mof_C 	C 	0.36407	0.0686	0.3601	0.075
Mof_C 	C 	0.34406	0.016	0.37095	-0.134
Mof_H 	H 	0.3212	0.0278	0.3581	0.08
Mof_C 	C 	0.35686	0.9466	0.40015	0.074
Mof_C 	C 	0.39044	0.9311	0.41977	-0.13
Mof_H 	H 	0.3995	0.8859	0.4411	0.075
Mof_C 	C 	0.41109	0.9812	0.40857	0.072
Mof_C 	C 	0.39722	0.0494	0.37846	-0.13
Mof_H 	H 	0.4109	0.0836	0.3703	0.075
Mof_C 	C 	0.35003	0.1458	0.33018	-0.006
Mof_C 	C 	0.36772	0.2246	0.338	-0.043
Mof_H 	H 	0.3891	0.2283	0.3619	0.041
Mof_C 	C 	0.35462	0.2971	0.31155	-0.042
Mof_H 	H 	0.3671	0.3502	0.3174	0.042
Mof_C 	C 	0.32327	0.2943	0.27619	-0.004
Mof_C 	C 	0.30629	0.2145	0.26804	-0.04
Mof_H 	H 	0.2853	0.21	0.2437	0.04
Mof_C 	C 	0.31931	0.1421	0.29459	-0.047
Mof_H 	H 	0.307	0.0886	0.2884	0.046
Mof_C 	C 	0.30872	0.3741	0.24904	0.07
Mof_C 	C 	0.32845	0.4384	0.24371	-0.122
Mof_H 	H 	0.3515	0.43	0.257	0.07
Mof_C 	C 	0.31528	0.5133	0.21969	0.063
Mof_H 	H 	0.3292	0.5564	0.2167	0.025
Mof_C 	C 	0.2815	0.5268	0.19949	-0.14
Mof_C 	C 	0.2616	0.4637	0.20431	0.063
Mof_H 	H 	0.2385	0.4723	0.1907	0.019
Mof_C 	C 	0.2749	0.3881	0.22878	-0.123
Mof_H 	H 	0.2609	0.3453	0.2318	0.071
Mof_C 	C 	0.26741	0.6078	0.17265	0.407
Mof_O 	O 	0.28752	0.6655	0.17289	-0.504
Mof_O 	O 	0.2369	0.61399	0.15294	-0.496
Mof_C 	C 	0.33484	0.8858	0.40868	-0.003
Mof_C 	C 	0.31204	0.8366	0.37383	-0.051
Mof_H 	H 	0.3094	0.8467	0.3453	0.051
Mof_C 	C 	0.2934	0.7733	0.38093	-0.039
Mof_H 	H 	0.2782	0.7394	0.3571	0.04
Mof_C 	C 	0.29629	0.7579	0.42217	-0.017
Mof_C 	C 	0.31805	0.8108	0.45616	-0.038
Mof_H 	H 	0.3197	0.804	0.4844	0.045
Mof_C 	C 	0.33724	0.8729	0.44935	-0.053
Mof_H 	H 	0.3523	0.9072	0.4731	0.051
Mof_C 	C 	0.27737	0.6853	0.42929	0.081
Mof_C 	C 	0.2647	0.6933	0.459	-0.142
Mof_H 	H 	0.267	0.7477	0.474	0.079
Mof_C 	C 	0.24877	0.6225	0.46657	0.081
Mof_H 	H 	0.2401	0.6287	0.4866	0.014
Mof_C 	C 	0.24545	0.543	0.44524	-0.166
Mof_C 	C 	0.25729	0.5354	0.41509	0.087
Mof_H 	H 	0.2546	0.4814	0.3997	-0.006
Mof_C 	C 	0.27293	0.6062	0.40731	-0.151
Mof_H 	H 	0.2808	0.6002	0.3864	0.084
Mof_C 	C 	0.23099	0.4644	0.45619	0.417
Mof_O 	O 	0.2138	0.47844	0.47551	-0.481
Mof_O 	O 	0.23744	0.39003	0.44663	-0.499
Mof_C 	C 	0.44662	0.9606	0.42746	-0.009
Mof_C 	C 	0.45901	0.8771	0.44184	-0.045
Mof_H 	H 	0.4444	0.8304	0.4397	0.04
Mof_C 	C 	0.49228	0.8596	0.4593	-0.049
Mof_H 	H 	0.5001	0.8014	0.4693	0.042
Mof_C 	C 	0.51431	0.9248	0.46257	-0.005
Mof_C 	C 	0.50207	0.0097	0.44884	-0.045
Mof_H 	H 	0.5168	0.0561	0.4512	0.044
Mof_C 	C 	0.46901	0.028	0.43179	-0.042
Mof_H 	H 	0.4614	0.0867	0.423	0.041
Mof_C 	C 	0.55005	0.907	0.48058	0.068
Mof_C 	C 	0.5665	0.8491	0.51446	-0.128
Mof_H 	H 	0.5546	0.8172	0.5263	0.069
Mof_C 	C 	0.6002	0.8361	0.53171	0.066
Mof_H 	H 	0.6112	0.7973	0.5557	0.019
Mof_C 	C 	0.61748	0.8801	0.51373	-0.151
Mof_C 	C 	0.60134	0.939	0.47981	0.062
Mof_H 	H 	0.6132	0.9694	0.4675	0.021
Mof_C 	C 	0.56799	0.954	0.46356	-0.129
Mof_H 	H 	0.5573	0.9961	0.441	0.073
Mof_C 	C 	0.65317	0.8655	0.52963	0.428
Mof_O 	O 	0.66934	0.83148	0.56643	-0.51
Mof_O 	O 	0.66411	0.89024	0.5039	-0.507
Mof_H 	H 	0.25515	0.32922	0.4099	0.126
Mof_H 	H 	0.2199	0.8	0.99892	0.132
Mof_Zn	Zn	0.7072	0.88251	0.50819	1.225
Mof_Zn	Zn	0.2202	0.71402	0.85055	1.217
Mof_Zn	Zn	0.78583	0.30292	0.89469	1.222
Mof_Zn	Zn	0.76878	0.74988	0.5505	1.22
Mof_O 	O 	0.7199	0.76633	0.49892	-0.744
Mof_C 	C 	0.8853	0.4599	0.75848	0.071
Mof_C 	C 	0.8678	0.5256	0.76757	-0.13
Mof_H 	H 	0.8448	0.5198	0.7565	0.077
Mof_C 	C 	0.88349	0.5988	0.79242	0.073
Mof_C 	C 	0.91744	0.6062	0.80817	-0.129
Mof_H 	H 	0.9284	0.6569	0.8248	0.073
Mof_O 	O 	0.18438	0.73515	0.89886	-0.482
Mof_O 	O 	0.17912	0.66015	0.84059	-0.478
Mof_C 	C 	0.86812	0.3839	0.73004	-0.009
Mof_C 	C 	0.88294	0.3006	0.73702	-0.041
Mof_H 	H 	0.9041	0.292	0.7608	0.04
Mof_C 	C 	0.86701	0.2297	0.70943	-0.051
Mof_H 	H 	0.8775	0.1736	0.7146	0.044
Mof_C 	C 	0.83604	0.24	0.67446	0.002
Mof_C 	C 	0.82115	0.3237	0.66691	-0.052
Mof_H 	H 	0.8001	0.3323	0.6431	0.052
Mof_C 	C 	0.83714	0.3939	0.69418	-0.04
Mof_H 	H 	0.8269	0.4504	0.6885	0.048
Mof_C 	C 	0.81818	0.1626	0.64731	0.058
Mof_C 	C 	0.83439	0.0952	0.63735	-0.113
Mof_H 	H 	0.8573	0.0995	0.6468	0.068
Mof_C 	C 	0.81721	0.0217	0.61369	0.047
Mof_H 	H 	0.8285	0.9755	0.6074	0.031
Mof_C 	C 	0.7836	0.0151	0.59907	-0.123
Mof_C 	C 	0.7673	0.0821	0.60892	0.045
Mof_H 	H 	0.7444	0.0777	0.5994	0.032
Mof_C 	C 	0.78453	0.1554	0.6326	-0.109
Mof_H 	H 	0.7732	0.2013	0.6389	0.07
Mof_C 	C 	0.76486	0.9367	0.57382	0.368
Mof_O 	O 	0.7789	0.88415	0.55956	-0.476
Mof_O 	O 	0.73546	0.92755	0.56738	-0.528
Mof_C 	C 	0.86503	0.6713	0.80136	-0.005
Mof_C 	C 	0.83324	0.6935	0.77075	-0.045
Mof_H 	H 	0.8223	0.6586	0.7453	0.037
Mof_C 	C 	0.8174	0.7672	0.77748	-0.05
Mof_H 	H 	0.7958	0.7816	0.7562	0.043
Mof_C 	C 	0.83248	0.819	0.81418	-0.002
Mof_C 	C 	0.86395	0.7939	0.84563	-0.048
Mof_H 	H 	0.8746	0.8272	0.8718	0.043
Mof_C 	C 	0.8797	0.7212	0.83899	-0.044
Mof_H 	H 	0.901	0.7054	0.8608	0.043
Mof_C 	C 	0.81684	0.9002	0.82109	0.06
Mof_C 	C 	0.78302	0.9093	0.80179	-0.116
Mof_H 	H 	0.7695	0.8632	0.7838	0.065
Mof_C 	C 	0.76866	0.9852	0.80851	0.044
Mof_H 	H 	0.7455	0.9901	0.7956	0.024
Mof_C 	C 	0.78838	0.0541	0.83433	-0.128
Mof_C 	C 	0.82199	0.0454	0.85275	0.05
Mof_H 	H 	0.8356	0.0923	0.87	0.027
Mof_C 	C 	0.83613	0.97	0.84651	-0.118
Mof_H 	H 	0.8593	0.9652	0.8596	0.067
Mof_C 	C 	0.77362	0.1362	0.8426	0.385
Mof_O 	O 	0.74272	0.13719	0.82727	-0.493
Mof_O 	O 	0.7932	0.19529	0.86543	-0.471
Mof_C 	C 	0.97161	0.5546	0.81516	-0.009
Mof_C 	C 	0.98936	0.6172	0.84427	-0.041
Mof_H 	H 	0.9793	0.6505	0.8582	0.043
Mof_C 	C 	0.02173	0.6346	0.85463	-0.049
Mof_H 	H 	0.0331	0.68	0.875	0.046
Mof_C 	C 	0.03779	0.5877	0.8361	-0.004
Mof_C 	C 	0.0215	0.5186	0.81177	-0.049
Mof_H 	H 	0.0325	0.4796	0.8013	0.043
Mof_C 	C 	0.98875	0.5016	0.80105	-0.044
Mof_H 	H 	0.9782	0.4517	0.7835	0.038
Mof_C 	C 	0.07213	0.6103	0.84491	0.07
Mof_C 	C 	0.09394	0.6494	0.88316	-0.131
Mof_H 	H 	0.0873	0.661	0.9049	0.077
Mof_C 	C 	0.12508	0.672	0.8908	0.066
Mof_H 	H 	0.1396	0.699	0.9176	0.01
Mof_C 	C 	0.13555	0.6557	0.85962	-0.142
Mof_C 	C 	0.11427	0.6135	0.82171	0.062
Mof_H 	H 	0.1213	0.5993	0.8006	0.028
Mof_C 	C 	0.08279	0.5917	0.81414	-0.125
Mof_H 	H 	0.0683	0.5636	0.7876	0.075
Mof_C 	C 	0.16898	0.6849	0.8675	0.391
Mof_C 	C 	0.93553	0.5416	0.80014	0.069
Mof_C 	C 	0.91923	0.4685	0.77583	-0.135
Mof_H 	H 	0.9314	0.4231	0.7708	0.071
Mof_O 	O 	0.25515	0.73711	0.9099	-0.751
Mof_C 	C 	0.86407	0.5686	0.3601	0.075
Mof_C 	C 	0.84406	0.516	0.37095	-0.134
Mof_H 	H 	0.8212	0.5278	0.3581	0.08
Mof_C 	C 	0.85686	0.4466	0.40015	0.074
Mof_C 	C 	0.89044	0.4311	0.41977	-0.129
Mof_H 	H 	0.8995	0.3859	0.4411	0.074
Mof_C 	C 	0.91109	0.4812	0.40857	0.072
Mof_C 	C 	0.89722	0.5494	0.37846	-0.13
Mof_H 	H 	0.9109	0.5836	0.3703	0.075
Mof_C 	C 	0.85003	0.6458	0.33018	-0.006
Mof_C 	C 	0.86772	0.7246	0.338	-0.043
Mof_H 	H 	0.8891	0.7283	0.3619	0.041
Mof_C 	C 	0.85462	0.7971	0.31155	-0.042
Mof_H 	H 	0.8671	0.8502	0.3174	0.042
Mof_C 	C 	0.82327	0.7943	0.27619	-0.004
Mof_C 	C 	0.80629	0.7145	0.26804	-0.04
Mof_H 	H 	0.7853	0.71	0.2437	0.04
Mof_C 	C 	0.81931	0.6421	0.29459	-0.047
Mof_H 	H 	0.807	0.5886	0.2884	0.046
Mof_C 	C 	0.80872	0.8741	0.24904	0.069
Mof_C 	C 	0.82845	0.9384	0.24371	-0.122
Mof_H 	H 	0.8515	0.93	0.257	0.07
Mof_C 	C 	0.81528	0.0133	0.21969	0.063
Mof_H 	H 	0.8292	0.0564	0.2167	0.025
Mof_C 	C 	0.7815	0.0268	0.19949	-0.14
Mof_C 	C 	0.7616	0.9637	0.20431	0.063
Mof_H 	H 	0.7385	0.9723	0.1907	0.019
Mof_C 	C 	0.7749	0.8881	0.22878	-0.123
Mof_H 	H 	0.7609	0.8453	0.2318	0.071
Mof_C 	C 	0.76741	0.1078	0.17265	0.407
Mof_O 	O 	0.78752	0.1655	0.17289	-0.504
Mof_O 	O 	0.7369	0.11399	0.15294	-0.496
Mof_C 	C 	0.83484	0.3858	0.40868	-0.002
Mof_C 	C 	0.81204	0.3366	0.37383	-0.051
Mof_H 	H 	0.8094	0.3467	0.3453	0.051
Mof_C 	C 	0.7934	0.2733	0.38093	-0.039
Mof_H 	H 	0.7782	0.2394	0.3571	0.04
Mof_C 	C 	0.79629	0.2579	0.42217	-0.017
Mof_C 	C 	0.81805	0.3108	0.45616	-0.038
Mof_H 	H 	0.8197	0.304	0.4844	0.045
Mof_C 	C 	0.83724	0.3729	0.44935	-0.053
Mof_H 	H 	0.8523	0.4072	0.4731	0.051
Mof_C 	C 	0.77737	0.1853	0.42929	0.081
Mof_C 	C 	0.7647	0.1933	0.459	-0.142
Mof_H 	H 	0.767	0.2477	0.474	0.079
Mof_C 	C 	0.74877	0.1225	0.46657	0.081
Mof_H 	H 	0.7401	0.1287	0.4866	0.014
Mof_C 	C 	0.74545	0.043	0.44524	-0.166
Mof_C 	C 	0.75729	0.0354	0.41509	0.087
Mof_H 	H 	0.7546	0.9814	0.3997	-0.006
Mof_C 	C 	0.77293	0.1062	0.40731	-0.151
Mof_H 	H 	0.7808	0.1002	0.3864	0.084
Mof_C 	C 	0.73099	0.9644	0.45619	0.417
Mof_O 	O 	0.7138	0.97844	0.47551	-0.481
Mof_O 	O 	0.73744	0.89003	0.44663	-0.499
Mof_C 	C 	0.94662	0.4606	0.42746	-0.009
Mof_C 	C 	0.95901	0.3771	0.44184	-0.045
Mof_H 	H 	0.9444	0.3304	0.4397	0.04
Mof_C 	C 	0.99228	0.3596	0.4593	-0.049
Mof_H 	H 	0.0001	0.3014	0.4693	0.042
Mof_C 	C 	0.01431	0.4248	0.46257	-0.005
Mof_C 	C 	0.00207	0.5097	0.44884	-0.044
Mof_H 	H 	0.0168	0.5561	0.4512	0.044
Mof_C 	C 	0.96901	0.528	0.43179	-0.042
Mof_H 	H 	0.9614	0.5867	0.423	0.041
Mof_C 	C 	0.05005	0.407	0.48058	0.068
Mof_C 	C 	0.0665	0.3491	0.51446	-0.128
Mof_H 	H 	0.0546	0.3172	0.5263	0.069
Mof_C 	C 	0.1002	0.3361	0.53171	0.066
Mof_H 	H 	0.1112	0.2973	0.5557	0.019
Mof_C 	C 	0.11748	0.3801	0.51373	-0.151
Mof_C 	C 	0.10134	0.439	0.47981	0.062
Mof_H 	H 	0.1132	0.4694	0.4675	0.021
Mof_C 	C 	0.06799	0.454	0.46356	-0.129
Mof_H 	H 	0.0573	0.4961	0.441	0.073
Mof_C 	C 	0.15317	0.3655	0.52963	0.428
Mof_O 	O 	0.16934	0.33148	0.56643	-0.51
Mof_O 	O 	0.16411	0.39024	0.5039	-0.507
Mof_H 	H 	0.75515	0.82922	0.4099	0.126
Mof_H 	H 	0.7199	0.3	0.99892	0.132
_end
