data_functionalizedCrystal
_audit_creation_method	'EQeq! by Chris Wilmer'
_symmetry_space_group_name_H-M	'P1'
_symmetry_Int_Tables_number	1
_symmetry_cell_setting	triclinic
loop_
_symmetry_equiv_pos_as_xyz
  x,y,z
_cell_length_a	18.6463
_cell_length_b	18.6463
_cell_length_c	38.5563
_cell_angle_alpha	90
_cell_angle_beta	90
_cell_angle_gamma	120
loop_
_atom_site_label
_atom_site_type_symbol
_atom_site_fract_x
_atom_site_fract_y
_atom_site_fract_z
_atom_site_charge
Mof_N 	N 	0.157	0.017	0.8804	-0.141
Mof_O 	O 	0.41023	0.96867	0.95605	-0.417
Mof_O 	O 	0.37166	0.88949	0.00334	-0.414
Mof_C 	C 	0.3614	0.9076	0.97337	0.379
Mof_C 	C 	0.2801	0.8485	0.95612	-0.108
Mof_C 	C 	0.2657	0.8627	0.92205	0.022
Mof_H 	H 	0.3042	0.9107	0.9107	0.038
Mof_C 	C 	0.1692	0.7756	0.8453	-0.186
Mof_H 	H 	0.1752	0.7288	0.8511	0.176
Mof_C 	C 	0.158	0.7906	0.811	-0.137
Mof_H 	H 	0.158	0.7548	0.7931	-0.021
Mof_C 	C 	0.155	0.9124	0.828	0.124
Mof_C 	C 	0.147	0.9812	0.8205	-0.427
Mof_H 	H 	0.1427	0.9939	0.7967	0.163
Mof_C 	C 	0.143	0.029	0.8464	0.333
Mof_H 	H 	0.1316	0.0727	0.8408	-0.108
Mof_C 	C 	0.157	0.943	0.8884	-0.038
Mof_H 	H 	0.1523	0.9256	0.9121	0.054
Mof_C 	C 	0.166	0.8973	0.8624	0.141
Mof_N 	N 	0.82367	0.35033	0.21373	-0.141
Mof_O 	O 	0.0769	0.302	0.28938	-0.416
Mof_O 	O 	0.03833	0.22282	0.33667	-0.413
Mof_C 	C 	0.02807	0.24093	0.3067	0.379
Mof_C 	C 	0.94677	0.18183	0.28945	-0.106
Mof_C 	C 	0.93237	0.19603	0.25538	0.022
Mof_H 	H 	0.97087	0.24403	0.24403	0.039
Mof_C 	C 	0.83587	0.10893	0.17863	-0.185
Mof_H 	H 	0.84187	0.06213	0.18443	0.176
Mof_C 	C 	0.82467	0.12393	0.14433	-0.137
Mof_H 	H 	0.82467	0.08813	0.12643	-0.02
Mof_C 	C 	0.82167	0.24573	0.16133	0.125
Mof_C 	C 	0.81367	0.31453	0.15383	-0.428
Mof_H 	H 	0.80937	0.32723	0.13003	0.164
Mof_C 	C 	0.80967	0.36233	0.17973	0.336
Mof_H 	H 	0.79827	0.40603	0.17413	-0.108
Mof_C 	C 	0.82367	0.27633	0.22173	-0.037
Mof_H 	H 	0.81897	0.25893	0.24543	0.055
Mof_C 	C 	0.83267	0.23063	0.19573	0.142
Mof_N 	N 	0.49033	0.68367	0.54707	-0.14
Mof_O 	O 	0.74356	0.63534	0.62272	-0.416
Mof_O 	O 	0.70499	0.55616	0.67001	-0.413
Mof_C 	C 	0.69473	0.57427	0.64004	0.38
Mof_C 	C 	0.61343	0.51517	0.62279	-0.107
Mof_C 	C 	0.59903	0.52937	0.58872	0.023
Mof_H 	H 	0.63753	0.57737	0.57737	0.039
Mof_C 	C 	0.50253	0.44227	0.51197	-0.185
Mof_H 	H 	0.50853	0.39547	0.51777	0.176
Mof_C 	C 	0.49133	0.45727	0.47767	-0.137
Mof_H 	H 	0.49133	0.42147	0.45977	-0.02
Mof_C 	C 	0.48833	0.57907	0.49467	0.125
Mof_C 	C 	0.48033	0.64787	0.48717	-0.427
Mof_H 	H 	0.47603	0.66057	0.46337	0.164
Mof_C 	C 	0.47633	0.69567	0.51307	0.335
Mof_H 	H 	0.46493	0.73937	0.50747	-0.108
Mof_C 	C 	0.49033	0.60967	0.55507	-0.037
Mof_H 	H 	0.48563	0.59227	0.57877	0.055
Mof_C 	C 	0.49933	0.56397	0.52907	0.142
Mof_N 	N 	0.983	0.14	0.8804	-0.139
Mof_O 	O 	0.03133	0.44156	0.95605	-0.416
Mof_O 	O 	0.11051	0.48217	0.00334	-0.413
Mof_C 	C 	0.0924	0.4538	0.97337	0.38
Mof_C 	C 	0.1515	0.4316	0.95612	-0.107
Mof_C 	C 	0.1373	0.403	0.92205	0.023
Mof_H 	H 	0.0893	0.3935	0.9107	0.039
Mof_C 	C 	0.2244	0.3936	0.8453	-0.186
Mof_H 	H 	0.2712	0.4464	0.8511	0.177
Mof_C 	C 	0.2094	0.3674	0.811	-0.136
Mof_H 	H 	0.2452	0.4032	0.7931	-0.021
Mof_C 	C 	0.0876	0.2426	0.828	0.125
Mof_C 	C 	0.0188	0.1658	0.8205	-0.425
Mof_H 	H 	0.0061	0.1488	0.7967	0.163
Mof_C 	C 	0.971	0.114	0.8464	0.333
Mof_H 	H 	0.9273	0.0589	0.8408	-0.107
Mof_C 	C 	0.057	0.214	0.8884	-0.036
Mof_H 	H 	0.0744	0.2267	0.9121	0.054
Mof_C 	C 	0.1027	0.2687	0.8624	0.143
Mof_N 	N 	0.64967	0.47333	0.21373	-0.14
Mof_O 	O 	0.698	0.77489	0.28938	-0.416
Mof_O 	O 	0.77718	0.8155	0.33667	-0.413
Mof_C 	C 	0.75907	0.78713	0.3067	0.379
Mof_C 	C 	0.81817	0.76493	0.28945	-0.107
Mof_C 	C 	0.80397	0.73633	0.25538	0.023
Mof_H 	H 	0.75597	0.72683	0.24403	0.039
Mof_C 	C 	0.89107	0.72693	0.17863	-0.185
Mof_H 	H 	0.93787	0.77973	0.18443	0.176
Mof_C 	C 	0.87607	0.70073	0.14433	-0.136
Mof_H 	H 	0.91187	0.73653	0.12643	-0.021
Mof_C 	C 	0.75427	0.57593	0.16133	0.125
Mof_C 	C 	0.68547	0.49913	0.15383	-0.428
Mof_H 	H 	0.67277	0.48213	0.13003	0.164
Mof_C 	C 	0.63767	0.44733	0.17973	0.336
Mof_H 	H 	0.59397	0.39223	0.17413	-0.108
Mof_C 	C 	0.72367	0.54733	0.22173	-0.037
Mof_H 	H 	0.74107	0.56003	0.24543	0.055
Mof_C 	C 	0.76937	0.60203	0.19573	0.142
Mof_N 	N 	0.31633	0.80667	0.54707	-0.14
Mof_O 	O 	0.36466	0.10823	0.62272	-0.416
Mof_O 	O 	0.44384	0.14884	0.67001	-0.413
Mof_C 	C 	0.42573	0.12047	0.64004	0.38
Mof_C 	C 	0.48483	0.09827	0.62279	-0.107
Mof_C 	C 	0.47063	0.06967	0.58872	0.023
Mof_H 	H 	0.42263	0.06017	0.57737	0.039
Mof_C 	C 	0.55773	0.06027	0.51197	-0.185
Mof_H 	H 	0.60453	0.11307	0.51777	0.177
Mof_C 	C 	0.54273	0.03407	0.47767	-0.137
Mof_H 	H 	0.57853	0.06987	0.45977	-0.02
Mof_C 	C 	0.42093	0.90927	0.49467	0.125
Mof_C 	C 	0.35213	0.83247	0.48717	-0.427
Mof_H 	H 	0.33943	0.81547	0.46337	0.164
Mof_C 	C 	0.30433	0.78067	0.51307	0.336
Mof_H 	H 	0.26063	0.72557	0.50747	-0.108
Mof_C 	C 	0.39033	0.88067	0.55507	-0.037
Mof_H 	H 	0.40773	0.89337	0.57877	0.055
Mof_C 	C 	0.43603	0.93537	0.52907	0.142
Mof_N 	N 	0.86	0.843	0.8804	-0.139
Mof_O 	O 	0.55844	0.58977	0.95605	-0.416
Mof_O 	O 	0.51783	0.62834	0.00334	-0.413
Mof_C 	C 	0.5462	0.6386	0.97337	0.38
Mof_C 	C 	0.5684	0.7199	0.95612	-0.107
Mof_C 	C 	0.597	0.7343	0.92205	0.023
Mof_H 	H 	0.6065	0.6958	0.9107	0.039
Mof_C 	C 	0.6064	0.8308	0.8453	-0.185
Mof_H 	H 	0.5536	0.8248	0.8511	0.177
Mof_C 	C 	0.6326	0.842	0.811	-0.137
Mof_H 	H 	0.5968	0.842	0.7931	-0.02
Mof_C 	C 	0.7574	0.845	0.828	0.125
Mof_C 	C 	0.8342	0.853	0.8205	-0.426
Mof_H 	H 	0.8512	0.8573	0.7967	0.164
Mof_C 	C 	0.886	0.857	0.8464	0.334
Mof_H 	H 	0.9411	0.8684	0.8408	-0.108
Mof_C 	C 	0.786	0.843	0.8884	-0.038
Mof_H 	H 	0.7733	0.8477	0.9121	0.055
Mof_C 	C 	0.7313	0.834	0.8624	0.142
Mof_N 	N 	0.52667	0.17633	0.21373	-0.14
Mof_O 	O 	0.22511	0.9231	0.28938	-0.416
Mof_O 	O 	0.1845	0.96167	0.33667	-0.413
Mof_C 	C 	0.21287	0.97193	0.3067	0.379
Mof_C 	C 	0.23507	0.05323	0.28945	-0.106
Mof_C 	C 	0.26367	0.06763	0.25538	0.023
Mof_H 	H 	0.27317	0.02913	0.24403	0.039
Mof_C 	C 	0.27307	0.16413	0.17863	-0.185
Mof_H 	H 	0.22027	0.15813	0.18443	0.176
Mof_C 	C 	0.29927	0.17533	0.14433	-0.138
Mof_H 	H 	0.26347	0.17533	0.12643	-0.02
Mof_C 	C 	0.42407	0.17833	0.16133	0.125
Mof_C 	C 	0.50087	0.18633	0.15383	-0.427
Mof_H 	H 	0.51787	0.19063	0.13003	0.164
Mof_C 	C 	0.55267	0.19033	0.17973	0.335
Mof_H 	H 	0.60777	0.20173	0.17413	-0.108
Mof_C 	C 	0.45267	0.17633	0.22173	-0.037
Mof_H 	H 	0.43997	0.18103	0.24543	0.055
Mof_C 	C 	0.39797	0.16733	0.19573	0.142
Mof_N 	N 	0.19333	0.50967	0.54707	-0.14
Mof_O 	O 	0.89177	0.25644	0.62272	-0.416
Mof_O 	O 	0.85116	0.29501	0.67001	-0.413
Mof_C 	C 	0.87953	0.30527	0.64004	0.38
Mof_C 	C 	0.90173	0.38657	0.62279	-0.107
Mof_C 	C 	0.93033	0.40097	0.58872	0.023
Mof_H 	H 	0.93983	0.36247	0.57737	0.039
Mof_C 	C 	0.93973	0.49747	0.51197	-0.185
Mof_H 	H 	0.88693	0.49147	0.51777	0.177
Mof_C 	C 	0.96593	0.50867	0.47767	-0.137
Mof_H 	H 	0.93013	0.50867	0.45977	-0.02
Mof_C 	C 	0.09073	0.51167	0.49467	0.125
Mof_C 	C 	0.16753	0.51967	0.48717	-0.427
Mof_H 	H 	0.18453	0.52397	0.46337	0.164
Mof_C 	C 	0.21933	0.52367	0.51307	0.335
Mof_H 	H 	0.27443	0.53507	0.50747	-0.108
Mof_C 	C 	0.11933	0.50967	0.55507	-0.037
Mof_H 	H 	0.10663	0.51437	0.57877	0.055
Mof_C 	C 	0.06463	0.50067	0.52907	0.142
Mof_N 	N 	0.017	0.157	0.1196	-0.14
Mof_O 	O 	0.96867	0.41023	0.04395	-0.416
Mof_O 	O 	0.88949	0.37166	0.99666	-0.413
Mof_C 	C 	0.9076	0.3614	0.02663	0.38
Mof_C 	C 	0.8485	0.2801	0.04388	-0.107
Mof_C 	C 	0.8627	0.2657	0.07795	0.023
Mof_H 	H 	0.9107	0.3042	0.0893	0.039
Mof_C 	C 	0.7756	0.1692	0.1547	-0.185
Mof_H 	H 	0.7288	0.1752	0.1489	0.177
Mof_C 	C 	0.7906	0.158	0.189	-0.136
Mof_H 	H 	0.7548	0.158	0.2069	-0.02
Mof_C 	C 	0.9124	0.155	0.172	0.125
Mof_C 	C 	0.9812	0.147	0.1795	-0.426
Mof_H 	H 	0.9939	0.1427	0.2033	0.164
Mof_C 	C 	0.029	0.143	0.1536	0.334
Mof_H 	H 	0.0727	0.1316	0.1592	-0.107
Mof_C 	C 	0.943	0.157	0.1116	-0.037
Mof_H 	H 	0.9256	0.1523	0.0879	0.055
Mof_C 	C 	0.8973	0.166	0.1376	0.142
Mof_N 	N 	0.68367	0.49033	0.45293	-0.14
Mof_O 	O 	0.63534	0.74356	0.37728	-0.416
Mof_O 	O 	0.55616	0.70499	0.32999	-0.413
Mof_C 	C 	0.57427	0.69473	0.35996	0.38
Mof_C 	C 	0.51517	0.61343	0.37721	-0.107
Mof_C 	C 	0.52937	0.59903	0.41128	0.023
Mof_H 	H 	0.57737	0.63753	0.42263	0.039
Mof_C 	C 	0.44227	0.50253	0.48803	-0.185
Mof_H 	H 	0.39547	0.50853	0.48223	0.176
Mof_C 	C 	0.45727	0.49133	0.52233	-0.137
Mof_H 	H 	0.42147	0.49133	0.54023	-0.02
Mof_C 	C 	0.57907	0.48833	0.50533	0.125
Mof_C 	C 	0.64787	0.48033	0.51283	-0.427
Mof_H 	H 	0.66057	0.47603	0.53663	0.164
Mof_C 	C 	0.69567	0.47633	0.48693	0.335
Mof_H 	H 	0.73937	0.46493	0.49253	-0.108
Mof_C 	C 	0.60967	0.49033	0.44493	-0.037
Mof_H 	H 	0.59227	0.48563	0.42123	0.055
Mof_C 	C 	0.56397	0.49933	0.47093	0.142
Mof_N 	N 	0.35033	0.82367	0.78627	-0.14
Mof_O 	O 	0.302	0.0769	0.71062	-0.416
Mof_O 	O 	0.22282	0.03833	0.66333	-0.413
Mof_C 	C 	0.24093	0.02807	0.6933	0.379
Mof_C 	C 	0.18183	0.94677	0.71055	-0.106
Mof_C 	C 	0.19603	0.93237	0.74462	0.022
Mof_H 	H 	0.24403	0.97087	0.75597	0.039
Mof_C 	C 	0.10893	0.83587	0.82137	-0.185
Mof_H 	H 	0.06213	0.84187	0.81557	0.176
Mof_C 	C 	0.12393	0.82467	0.85567	-0.137
Mof_H 	H 	0.08813	0.82467	0.87357	-0.02
Mof_C 	C 	0.24573	0.82167	0.83867	0.125
Mof_C 	C 	0.31453	0.81367	0.84617	-0.428
Mof_H 	H 	0.32723	0.80937	0.86997	0.164
Mof_C 	C 	0.36233	0.80967	0.82027	0.336
Mof_H 	H 	0.40603	0.79827	0.82587	-0.108
Mof_C 	C 	0.27633	0.82367	0.77827	-0.037
Mof_H 	H 	0.25893	0.81897	0.75457	0.055
Mof_C 	C 	0.23063	0.83267	0.80427	0.142
Mof_N 	N 	0.14	0.983	0.1196	-0.139
Mof_O 	O 	0.44156	0.03133	0.04395	-0.416
Mof_O 	O 	0.48217	0.11051	0.99666	-0.413
Mof_C 	C 	0.4538	0.0924	0.02663	0.38
Mof_C 	C 	0.4316	0.1515	0.04388	-0.107
Mof_C 	C 	0.403	0.1373	0.07795	0.023
Mof_H 	H 	0.3935	0.0893	0.0893	0.039
Mof_C 	C 	0.3936	0.2244	0.1547	-0.186
Mof_H 	H 	0.4464	0.2712	0.1489	0.177
Mof_C 	C 	0.3674	0.2094	0.189	-0.136
Mof_H 	H 	0.4032	0.2452	0.2069	-0.021
Mof_C 	C 	0.2426	0.0876	0.172	0.125
Mof_C 	C 	0.1658	0.0188	0.1795	-0.425
Mof_H 	H 	0.1488	0.0061	0.2033	0.163
Mof_C 	C 	0.114	0.971	0.1536	0.333
Mof_H 	H 	0.0589	0.9273	0.1592	-0.107
Mof_C 	C 	0.214	0.057	0.1116	-0.036
Mof_H 	H 	0.2267	0.0744	0.0879	0.054
Mof_C 	C 	0.2687	0.1027	0.1376	0.143
Mof_N 	N 	0.80667	0.31633	0.45293	-0.14
Mof_O 	O 	0.10823	0.36466	0.37728	-0.416
Mof_O 	O 	0.14884	0.44384	0.32999	-0.413
Mof_C 	C 	0.12047	0.42573	0.35996	0.38
Mof_C 	C 	0.09827	0.48483	0.37721	-0.107
Mof_C 	C 	0.06967	0.47063	0.41128	0.023
Mof_H 	H 	0.06017	0.42263	0.42263	0.039
Mof_C 	C 	0.06027	0.55773	0.48803	-0.185
Mof_H 	H 	0.11307	0.60453	0.48223	0.177
Mof_C 	C 	0.03407	0.54273	0.52233	-0.137
Mof_H 	H 	0.06987	0.57853	0.54023	-0.02
Mof_C 	C 	0.90927	0.42093	0.50533	0.125
Mof_C 	C 	0.83247	0.35213	0.51283	-0.427
Mof_H 	H 	0.81547	0.33943	0.53663	0.164
Mof_C 	C 	0.78067	0.30433	0.48693	0.336
Mof_H 	H 	0.72557	0.26063	0.49253	-0.108
Mof_C 	C 	0.88067	0.39033	0.44493	-0.037
Mof_H 	H 	0.89337	0.40773	0.42123	0.055
Mof_C 	C 	0.93537	0.43603	0.47093	0.142
Mof_N 	N 	0.47333	0.64967	0.78627	-0.14
Mof_O 	O 	0.77489	0.698	0.71062	-0.416
Mof_O 	O 	0.8155	0.77718	0.66333	-0.413
Mof_C 	C 	0.78713	0.75907	0.6933	0.379
Mof_C 	C 	0.76493	0.81817	0.71055	-0.107
Mof_C 	C 	0.73633	0.80397	0.74462	0.023
Mof_H 	H 	0.72683	0.75597	0.75597	0.039
Mof_C 	C 	0.72693	0.89107	0.82137	-0.185
Mof_H 	H 	0.77973	0.93787	0.81557	0.176
Mof_C 	C 	0.70073	0.87607	0.85567	-0.136
Mof_H 	H 	0.73653	0.91187	0.87357	-0.021
Mof_C 	C 	0.57593	0.75427	0.83867	0.125
Mof_C 	C 	0.49913	0.68547	0.84617	-0.428
Mof_H 	H 	0.48213	0.67277	0.86997	0.164
Mof_C 	C 	0.44733	0.63767	0.82027	0.336
Mof_H 	H 	0.39223	0.59397	0.82587	-0.108
Mof_C 	C 	0.54733	0.72367	0.77827	-0.037
Mof_H 	H 	0.56003	0.74107	0.75457	0.055
Mof_C 	C 	0.60203	0.76937	0.80427	0.142
Mof_N 	N 	0.843	0.86	0.1196	-0.139
Mof_O 	O 	0.58977	0.55844	0.04395	-0.416
Mof_O 	O 	0.62834	0.51783	0.99666	-0.413
Mof_C 	C 	0.6386	0.5462	0.02663	0.38
Mof_C 	C 	0.7199	0.5684	0.04388	-0.107
Mof_C 	C 	0.7343	0.597	0.07795	0.023
Mof_H 	H 	0.6958	0.6065	0.0893	0.039
Mof_C 	C 	0.8308	0.6064	0.1547	-0.185
Mof_H 	H 	0.8248	0.5536	0.1489	0.177
Mof_C 	C 	0.842	0.6326	0.189	-0.137
Mof_H 	H 	0.842	0.5968	0.2069	-0.02
Mof_C 	C 	0.845	0.7574	0.172	0.125
Mof_C 	C 	0.853	0.8342	0.1795	-0.426
Mof_H 	H 	0.8573	0.8512	0.2033	0.164
Mof_C 	C 	0.857	0.886	0.1536	0.334
Mof_H 	H 	0.8684	0.9411	0.1592	-0.108
Mof_C 	C 	0.843	0.786	0.1116	-0.038
Mof_H 	H 	0.8477	0.7733	0.0879	0.055
Mof_C 	C 	0.834	0.7313	0.1376	0.142
Mof_N 	N 	0.50967	0.19333	0.45293	-0.14
Mof_O 	O 	0.25644	0.89177	0.37728	-0.416
Mof_O 	O 	0.29501	0.85116	0.32999	-0.413
Mof_C 	C 	0.30527	0.87953	0.35996	0.38
Mof_C 	C 	0.38657	0.90173	0.37721	-0.107
Mof_C 	C 	0.40097	0.93033	0.41128	0.023
Mof_H 	H 	0.36247	0.93983	0.42263	0.039
Mof_C 	C 	0.49747	0.93973	0.48803	-0.185
Mof_H 	H 	0.49147	0.88693	0.48223	0.177
Mof_C 	C 	0.50867	0.96593	0.52233	-0.137
Mof_H 	H 	0.50867	0.93013	0.54023	-0.02
Mof_C 	C 	0.51167	0.09073	0.50533	0.125
Mof_C 	C 	0.51967	0.16753	0.51283	-0.427
Mof_H 	H 	0.52397	0.18453	0.53663	0.164
Mof_C 	C 	0.52367	0.21933	0.48693	0.335
Mof_H 	H 	0.53507	0.27443	0.49253	-0.108
Mof_C 	C 	0.50967	0.11933	0.44493	-0.037
Mof_H 	H 	0.51437	0.10663	0.42123	0.055
Mof_C 	C 	0.50067	0.06463	0.47093	0.142
Mof_N 	N 	0.17633	0.52667	0.78627	-0.14
Mof_O 	O 	0.9231	0.22511	0.71062	-0.416
Mof_O 	O 	0.96167	0.1845	0.66333	-0.413
Mof_C 	C 	0.97193	0.21287	0.6933	0.379
Mof_C 	C 	0.05323	0.23507	0.71055	-0.106
Mof_C 	C 	0.06763	0.26367	0.74462	0.023
Mof_H 	H 	0.02913	0.27317	0.75597	0.039
Mof_C 	C 	0.16413	0.27307	0.82137	-0.185
Mof_H 	H 	0.15813	0.22027	0.81557	0.176
Mof_C 	C 	0.17533	0.29927	0.85567	-0.138
Mof_H 	H 	0.17533	0.26347	0.87357	-0.02
Mof_C 	C 	0.17833	0.42407	0.83867	0.125
Mof_C 	C 	0.18633	0.50087	0.84617	-0.427
Mof_H 	H 	0.19063	0.51787	0.86997	0.164
Mof_C 	C 	0.19033	0.55267	0.82027	0.335
Mof_H 	H 	0.20173	0.60777	0.82587	-0.108
Mof_C 	C 	0.17633	0.45267	0.77827	-0.037
Mof_H 	H 	0.18103	0.43997	0.75457	0.055
Mof_C 	C 	0.16733	0.39797	0.80427	0.142
Mof_N 	N 	0.843	0.983	0.1196	-0.14
Mof_O 	O 	0.58977	0.03133	0.04395	-0.416
Mof_O 	O 	0.62834	0.11051	0.99666	-0.413
Mof_C 	C 	0.6386	0.0924	0.02663	0.38
Mof_C 	C 	0.7199	0.1515	0.04388	-0.107
Mof_C 	C 	0.7343	0.1373	0.07795	0.023
Mof_H 	H 	0.6958	0.0893	0.0893	0.039
Mof_C 	C 	0.8308	0.2244	0.1547	-0.185
Mof_H 	H 	0.8248	0.2712	0.1489	0.177
Mof_C 	C 	0.842	0.2094	0.189	-0.136
Mof_H 	H 	0.842	0.2452	0.2069	-0.02
Mof_C 	C 	0.845	0.0876	0.172	0.125
Mof_C 	C 	0.853	0.0188	0.1795	-0.426
Mof_H 	H 	0.8573	0.0061	0.2033	0.164
Mof_C 	C 	0.857	0.971	0.1536	0.334
Mof_H 	H 	0.8684	0.9273	0.1592	-0.107
Mof_C 	C 	0.843	0.057	0.1116	-0.037
Mof_H 	H 	0.8477	0.0744	0.0879	0.055
Mof_C 	C 	0.834	0.1027	0.1376	0.142
Mof_N 	N 	0.50967	0.31633	0.45293	-0.14
Mof_O 	O 	0.25644	0.36466	0.37728	-0.416
Mof_O 	O 	0.29501	0.44384	0.32999	-0.413
Mof_C 	C 	0.30527	0.42573	0.35996	0.38
Mof_C 	C 	0.38657	0.48483	0.37721	-0.107
Mof_C 	C 	0.40097	0.47063	0.41128	0.023
Mof_H 	H 	0.36247	0.42263	0.42263	0.039
Mof_C 	C 	0.49747	0.55773	0.48803	-0.185
Mof_H 	H 	0.49147	0.60453	0.48223	0.176
Mof_C 	C 	0.50867	0.54273	0.52233	-0.137
Mof_H 	H 	0.50867	0.57853	0.54023	-0.02
Mof_C 	C 	0.51167	0.42093	0.50533	0.125
Mof_C 	C 	0.51967	0.35213	0.51283	-0.427
Mof_H 	H 	0.52397	0.33943	0.53663	0.164
Mof_C 	C 	0.52367	0.30433	0.48693	0.335
Mof_H 	H 	0.53507	0.26063	0.49253	-0.108
Mof_C 	C 	0.50967	0.39033	0.44493	-0.037
Mof_H 	H 	0.51437	0.40773	0.42123	0.055
Mof_C 	C 	0.50067	0.43603	0.47093	0.142
Mof_N 	N 	0.17633	0.64967	0.78627	-0.14
Mof_O 	O 	0.9231	0.698	0.71062	-0.416
Mof_O 	O 	0.96167	0.77718	0.66333	-0.413
Mof_C 	C 	0.97193	0.75907	0.6933	0.379
Mof_C 	C 	0.05323	0.81817	0.71055	-0.106
Mof_C 	C 	0.06763	0.80397	0.74462	0.022
Mof_H 	H 	0.02913	0.75597	0.75597	0.039
Mof_C 	C 	0.16413	0.89107	0.82137	-0.185
Mof_H 	H 	0.15813	0.93787	0.81557	0.176
Mof_C 	C 	0.17533	0.87607	0.85567	-0.137
Mof_H 	H 	0.17533	0.91187	0.87357	-0.02
Mof_C 	C 	0.17833	0.75427	0.83867	0.125
Mof_C 	C 	0.18633	0.68547	0.84617	-0.428
Mof_H 	H 	0.19063	0.67277	0.86997	0.164
Mof_C 	C 	0.19033	0.63767	0.82027	0.336
Mof_H 	H 	0.20173	0.59397	0.82587	-0.108
Mof_C 	C 	0.17633	0.72367	0.77827	-0.037
Mof_H 	H 	0.18103	0.74107	0.75457	0.055
Mof_C 	C 	0.16733	0.76937	0.80427	0.142
Mof_N 	N 	0.017	0.86	0.1196	-0.139
Mof_O 	O 	0.96867	0.55844	0.04395	-0.416
Mof_O 	O 	0.88949	0.51783	0.99666	-0.413
Mof_C 	C 	0.9076	0.5462	0.02663	0.38
Mof_C 	C 	0.8485	0.5684	0.04388	-0.107
Mof_C 	C 	0.8627	0.597	0.07795	0.023
Mof_H 	H 	0.9107	0.6065	0.0893	0.039
Mof_C 	C 	0.7756	0.6064	0.1547	-0.186
Mof_H 	H 	0.7288	0.5536	0.1489	0.177
Mof_C 	C 	0.7906	0.6326	0.189	-0.136
Mof_H 	H 	0.7548	0.5968	0.2069	-0.021
Mof_C 	C 	0.9124	0.7574	0.172	0.125
Mof_C 	C 	0.9812	0.8342	0.1795	-0.425
Mof_H 	H 	0.9939	0.8512	0.2033	0.163
Mof_C 	C 	0.029	0.886	0.1536	0.333
Mof_H 	H 	0.0727	0.9411	0.1592	-0.107
Mof_C 	C 	0.943	0.786	0.1116	-0.036
Mof_H 	H 	0.9256	0.7733	0.0879	0.054
Mof_C 	C 	0.8973	0.7313	0.1376	0.143
Mof_N 	N 	0.68367	0.19333	0.45293	-0.14
Mof_O 	O 	0.63534	0.89177	0.37728	-0.416
Mof_O 	O 	0.55616	0.85116	0.32999	-0.413
Mof_C 	C 	0.57427	0.87953	0.35996	0.38
Mof_C 	C 	0.51517	0.90173	0.37721	-0.107
Mof_C 	C 	0.52937	0.93033	0.41128	0.023
Mof_H 	H 	0.57737	0.93983	0.42263	0.039
Mof_C 	C 	0.44227	0.93973	0.48803	-0.185
Mof_H 	H 	0.39547	0.88693	0.48223	0.177
Mof_C 	C 	0.45727	0.96593	0.52233	-0.137
Mof_H 	H 	0.42147	0.93013	0.54023	-0.02
Mof_C 	C 	0.57907	0.09073	0.50533	0.125
Mof_C 	C 	0.64787	0.16753	0.51283	-0.427
Mof_H 	H 	0.66057	0.18453	0.53663	0.164
Mof_C 	C 	0.69567	0.21933	0.48693	0.336
Mof_H 	H 	0.73937	0.27443	0.49253	-0.108
Mof_C 	C 	0.60967	0.11933	0.44493	-0.037
Mof_H 	H 	0.59227	0.10663	0.42123	0.055
Mof_C 	C 	0.56397	0.06463	0.47093	0.142
Mof_N 	N 	0.35033	0.52667	0.78627	-0.14
Mof_O 	O 	0.302	0.22511	0.71062	-0.416
Mof_O 	O 	0.22282	0.1845	0.66333	-0.413
Mof_C 	C 	0.24093	0.21287	0.6933	0.379
Mof_C 	C 	0.18183	0.23507	0.71055	-0.107
Mof_C 	C 	0.19603	0.26367	0.74462	0.023
Mof_H 	H 	0.24403	0.27317	0.75597	0.039
Mof_C 	C 	0.10893	0.27307	0.82137	-0.185
Mof_H 	H 	0.06213	0.22027	0.81557	0.176
Mof_C 	C 	0.12393	0.29927	0.85567	-0.136
Mof_H 	H 	0.08813	0.26347	0.87357	-0.021
Mof_C 	C 	0.24573	0.42407	0.83867	0.125
Mof_C 	C 	0.31453	0.50087	0.84617	-0.428
Mof_H 	H 	0.32723	0.51787	0.86997	0.164
Mof_C 	C 	0.36233	0.55267	0.82027	0.336
Mof_H 	H 	0.40603	0.60777	0.82587	-0.108
Mof_C 	C 	0.27633	0.45267	0.77827	-0.037
Mof_H 	H 	0.25893	0.43997	0.75457	0.055
Mof_C 	C 	0.23063	0.39797	0.80427	0.142
Mof_N 	N 	0.14	0.157	0.1196	-0.139
Mof_O 	O 	0.44156	0.41023	0.04395	-0.416
Mof_O 	O 	0.48217	0.37166	0.99666	-0.413
Mof_C 	C 	0.4538	0.3614	0.02663	0.38
Mof_C 	C 	0.4316	0.2801	0.04388	-0.107
Mof_C 	C 	0.403	0.2657	0.07795	0.023
Mof_H 	H 	0.3935	0.3042	0.0893	0.039
Mof_C 	C 	0.3936	0.1692	0.1547	-0.185
Mof_H 	H 	0.4464	0.1752	0.1489	0.177
Mof_C 	C 	0.3674	0.158	0.189	-0.137
Mof_H 	H 	0.4032	0.158	0.2069	-0.02
Mof_C 	C 	0.2426	0.155	0.172	0.125
Mof_C 	C 	0.1658	0.147	0.1795	-0.426
Mof_H 	H 	0.1488	0.1427	0.2033	0.164
Mof_C 	C 	0.114	0.143	0.1536	0.334
Mof_H 	H 	0.0589	0.1316	0.1592	-0.108
Mof_C 	C 	0.214	0.157	0.1116	-0.038
Mof_H 	H 	0.2267	0.1523	0.0879	0.055
Mof_C 	C 	0.2687	0.166	0.1376	0.142
Mof_N 	N 	0.80667	0.49033	0.45293	-0.14
Mof_O 	O 	0.10823	0.74356	0.37728	-0.416
Mof_O 	O 	0.14884	0.70499	0.32999	-0.413
Mof_C 	C 	0.12047	0.69473	0.35996	0.38
Mof_C 	C 	0.09827	0.61343	0.37721	-0.107
Mof_C 	C 	0.06967	0.59903	0.41128	0.023
Mof_H 	H 	0.06017	0.63753	0.42263	0.039
Mof_C 	C 	0.06027	0.50253	0.48803	-0.185
Mof_H 	H 	0.11307	0.50853	0.48223	0.177
Mof_C 	C 	0.03407	0.49133	0.52233	-0.137
Mof_H 	H 	0.06987	0.49133	0.54023	-0.02
Mof_C 	C 	0.90927	0.48833	0.50533	0.125
Mof_C 	C 	0.83247	0.48033	0.51283	-0.427
Mof_H 	H 	0.81547	0.47603	0.53663	0.164
Mof_C 	C 	0.78067	0.47633	0.48693	0.335
Mof_H 	H 	0.72557	0.46493	0.49253	-0.108
Mof_C 	C 	0.88067	0.49033	0.44493	-0.037
Mof_H 	H 	0.89337	0.48563	0.42123	0.055
Mof_C 	C 	0.93537	0.49933	0.47093	0.142
Mof_N 	N 	0.47333	0.82367	0.78627	-0.14
Mof_O 	O 	0.77489	0.0769	0.71062	-0.416
Mof_O 	O 	0.8155	0.03833	0.66333	-0.413
Mof_C 	C 	0.78713	0.02807	0.6933	0.379
Mof_C 	C 	0.76493	0.94677	0.71055	-0.106
Mof_C 	C 	0.73633	0.93237	0.74462	0.023
Mof_H 	H 	0.72683	0.97087	0.75597	0.039
Mof_C 	C 	0.72693	0.83587	0.82137	-0.185
Mof_H 	H 	0.77973	0.84187	0.81557	0.176
Mof_C 	C 	0.70073	0.82467	0.85567	-0.138
Mof_H 	H 	0.73653	0.82467	0.87357	-0.02
Mof_C 	C 	0.57593	0.82167	0.83867	0.125
Mof_C 	C 	0.49913	0.81367	0.84617	-0.427
Mof_H 	H 	0.48213	0.80937	0.86997	0.164
Mof_C 	C 	0.44733	0.80967	0.82027	0.335
Mof_H 	H 	0.39223	0.79827	0.82587	-0.108
Mof_C 	C 	0.54733	0.82367	0.77827	-0.037
Mof_H 	H 	0.56003	0.81897	0.75457	0.055
Mof_C 	C 	0.60203	0.83267	0.80427	0.142
Mof_N 	N 	0.983	0.843	0.8804	-0.14
Mof_O 	O 	0.03133	0.58977	0.95605	-0.416
Mof_O 	O 	0.11051	0.62834	0.00334	-0.413
Mof_C 	C 	0.0924	0.6386	0.97337	0.38
Mof_C 	C 	0.1515	0.7199	0.95612	-0.107
Mof_C 	C 	0.1373	0.7343	0.92205	0.023
Mof_H 	H 	0.0893	0.6958	0.9107	0.039
Mof_C 	C 	0.2244	0.8308	0.8453	-0.185
Mof_H 	H 	0.2712	0.8248	0.8511	0.177
Mof_C 	C 	0.2094	0.842	0.811	-0.136
Mof_H 	H 	0.2452	0.842	0.7931	-0.02
Mof_C 	C 	0.0876	0.845	0.828	0.125
Mof_C 	C 	0.0188	0.853	0.8205	-0.426
Mof_H 	H 	0.0061	0.8573	0.7967	0.164
Mof_C 	C 	0.971	0.857	0.8464	0.334
Mof_H 	H 	0.9273	0.8684	0.8408	-0.107
Mof_C 	C 	0.057	0.843	0.8884	-0.037
Mof_H 	H 	0.0744	0.8477	0.9121	0.055
Mof_C 	C 	0.1027	0.834	0.8624	0.142
Mof_N 	N 	0.64967	0.17633	0.21373	-0.14
Mof_O 	O 	0.698	0.9231	0.28938	-0.416
Mof_O 	O 	0.77718	0.96167	0.33667	-0.413
Mof_C 	C 	0.75907	0.97193	0.3067	0.379
Mof_C 	C 	0.81817	0.05323	0.28945	-0.106
Mof_C 	C 	0.80397	0.06763	0.25538	0.022
Mof_H 	H 	0.75597	0.02913	0.24403	0.039
Mof_C 	C 	0.89107	0.16413	0.17863	-0.185
Mof_H 	H 	0.93787	0.15813	0.18443	0.176
Mof_C 	C 	0.87607	0.17533	0.14433	-0.137
Mof_H 	H 	0.91187	0.17533	0.12643	-0.02
Mof_C 	C 	0.75427	0.17833	0.16133	0.125
Mof_C 	C 	0.68547	0.18633	0.15383	-0.428
Mof_H 	H 	0.67277	0.19063	0.13003	0.164
Mof_C 	C 	0.63767	0.19033	0.17973	0.336
Mof_H 	H 	0.59397	0.20173	0.17413	-0.108
Mof_C 	C 	0.72367	0.17633	0.22173	-0.037
Mof_H 	H 	0.74107	0.18103	0.24543	0.055
Mof_C 	C 	0.76937	0.16733	0.19573	0.142
Mof_N 	N 	0.31633	0.50967	0.54707	-0.14
Mof_O 	O 	0.36466	0.25644	0.62272	-0.416
Mof_O 	O 	0.44384	0.29501	0.67001	-0.413
Mof_C 	C 	0.42573	0.30527	0.64004	0.38
Mof_C 	C 	0.48483	0.38657	0.62279	-0.107
Mof_C 	C 	0.47063	0.40097	0.58872	0.023
Mof_H 	H 	0.42263	0.36247	0.57737	0.039
Mof_C 	C 	0.55773	0.49747	0.51197	-0.185
Mof_H 	H 	0.60453	0.49147	0.51777	0.176
Mof_C 	C 	0.54273	0.50867	0.47767	-0.137
Mof_H 	H 	0.57853	0.50867	0.45977	-0.02
Mof_C 	C 	0.42093	0.51167	0.49467	0.125
Mof_C 	C 	0.35213	0.51967	0.48717	-0.427
Mof_H 	H 	0.33943	0.52397	0.46337	0.164
Mof_C 	C 	0.30433	0.52367	0.51307	0.335
Mof_H 	H 	0.26063	0.53507	0.50747	-0.108
Mof_C 	C 	0.39033	0.50967	0.55507	-0.037
Mof_H 	H 	0.40773	0.51437	0.57877	0.055
Mof_C 	C 	0.43603	0.50067	0.52907	0.142
Mof_N 	N 	0.86	0.017	0.8804	-0.139
Mof_O 	O 	0.55844	0.96867	0.95605	-0.416
Mof_O 	O 	0.51783	0.88949	0.00334	-0.413
Mof_C 	C 	0.5462	0.9076	0.97337	0.38
Mof_C 	C 	0.5684	0.8485	0.95612	-0.107
Mof_C 	C 	0.597	0.8627	0.92205	0.023
Mof_H 	H 	0.6065	0.9107	0.9107	0.039
Mof_C 	C 	0.6064	0.7756	0.8453	-0.186
Mof_H 	H 	0.5536	0.7288	0.8511	0.177
Mof_C 	C 	0.6326	0.7906	0.811	-0.136
Mof_H 	H 	0.5968	0.7548	0.7931	-0.021
Mof_C 	C 	0.7574	0.9124	0.828	0.125
Mof_C 	C 	0.8342	0.9812	0.8205	-0.425
Mof_H 	H 	0.8512	0.9939	0.7967	0.163
Mof_C 	C 	0.886	0.029	0.8464	0.333
Mof_H 	H 	0.9411	0.0727	0.8408	-0.107
Mof_C 	C 	0.786	0.943	0.8884	-0.036
Mof_H 	H 	0.7733	0.9256	0.9121	0.054
Mof_C 	C 	0.7313	0.8973	0.8624	0.143
Mof_N 	N 	0.52667	0.35033	0.21373	-0.14
Mof_O 	O 	0.22511	0.302	0.28938	-0.416
Mof_O 	O 	0.1845	0.22282	0.33667	-0.413
Mof_C 	C 	0.21287	0.24093	0.3067	0.379
Mof_C 	C 	0.23507	0.18183	0.28945	-0.107
Mof_C 	C 	0.26367	0.19603	0.25538	0.023
Mof_H 	H 	0.27317	0.24403	0.24403	0.039
Mof_C 	C 	0.27307	0.10893	0.17863	-0.185
Mof_H 	H 	0.22027	0.06213	0.18443	0.176
Mof_C 	C 	0.29927	0.12393	0.14433	-0.136
Mof_H 	H 	0.26347	0.08813	0.12643	-0.021
Mof_C 	C 	0.42407	0.24573	0.16133	0.125
Mof_C 	C 	0.50087	0.31453	0.15383	-0.428
Mof_H 	H 	0.51787	0.32723	0.13003	0.164
Mof_C 	C 	0.55267	0.36233	0.17973	0.336
Mof_H 	H 	0.60777	0.40603	0.17413	-0.108
Mof_C 	C 	0.45267	0.27633	0.22173	-0.037
Mof_H 	H 	0.43997	0.25893	0.24543	0.055
Mof_C 	C 	0.39797	0.23063	0.19573	0.142
Mof_N 	N 	0.19333	0.68367	0.54707	-0.14
Mof_O 	O 	0.89177	0.63534	0.62272	-0.416
Mof_O 	O 	0.85116	0.55616	0.67001	-0.413
Mof_C 	C 	0.87953	0.57427	0.64004	0.38
Mof_C 	C 	0.90173	0.51517	0.62279	-0.107
Mof_C 	C 	0.93033	0.52937	0.58872	0.023
Mof_H 	H 	0.93983	0.57737	0.57737	0.039
Mof_C 	C 	0.93973	0.44227	0.51197	-0.185
Mof_H 	H 	0.88693	0.39547	0.51777	0.177
Mof_C 	C 	0.96593	0.45727	0.47767	-0.137
Mof_H 	H 	0.93013	0.42147	0.45977	-0.02
Mof_C 	C 	0.09073	0.57907	0.49467	0.125
Mof_C 	C 	0.16753	0.64787	0.48717	-0.427
Mof_H 	H 	0.18453	0.66057	0.46337	0.164
Mof_C 	C 	0.21933	0.69567	0.51307	0.336
Mof_H 	H 	0.27443	0.73937	0.50747	-0.108
Mof_C 	C 	0.11933	0.60967	0.55507	-0.037
Mof_H 	H 	0.10663	0.59227	0.57877	0.055
Mof_C 	C 	0.06463	0.56397	0.52907	0.142
Mof_N 	N 	0.157	0.14	0.8804	-0.139
Mof_O 	O 	0.41023	0.44156	0.95605	-0.416
Mof_O 	O 	0.37166	0.48217	0.00334	-0.413
Mof_C 	C 	0.3614	0.4538	0.97337	0.38
Mof_C 	C 	0.2801	0.4316	0.95612	-0.107
Mof_C 	C 	0.2657	0.403	0.92205	0.023
Mof_H 	H 	0.3042	0.3935	0.9107	0.039
Mof_C 	C 	0.1692	0.3936	0.8453	-0.185
Mof_H 	H 	0.1752	0.4464	0.8511	0.177
Mof_C 	C 	0.158	0.3674	0.811	-0.137
Mof_H 	H 	0.158	0.4032	0.7931	-0.02
Mof_C 	C 	0.155	0.2426	0.828	0.125
Mof_C 	C 	0.147	0.1658	0.8205	-0.426
Mof_H 	H 	0.1427	0.1488	0.7967	0.164
Mof_C 	C 	0.143	0.114	0.8464	0.334
Mof_H 	H 	0.1316	0.0589	0.8408	-0.108
Mof_C 	C 	0.157	0.214	0.8884	-0.038
Mof_H 	H 	0.1523	0.2267	0.9121	0.055
Mof_C 	C 	0.166	0.2687	0.8624	0.142
Mof_N 	N 	0.82367	0.47333	0.21373	-0.14
Mof_O 	O 	0.0769	0.77489	0.28938	-0.416
Mof_O 	O 	0.03833	0.8155	0.33667	-0.413
Mof_C 	C 	0.02807	0.78713	0.3067	0.379
Mof_C 	C 	0.94677	0.76493	0.28945	-0.106
Mof_C 	C 	0.93237	0.73633	0.25538	0.023
Mof_H 	H 	0.97087	0.72683	0.24403	0.039
Mof_C 	C 	0.83587	0.72693	0.17863	-0.185
Mof_H 	H 	0.84187	0.77973	0.18443	0.176
Mof_C 	C 	0.82467	0.70073	0.14433	-0.138
Mof_H 	H 	0.82467	0.73653	0.12643	-0.02
Mof_C 	C 	0.82167	0.57593	0.16133	0.125
Mof_C 	C 	0.81367	0.49913	0.15383	-0.427
Mof_H 	H 	0.80937	0.48213	0.13003	0.164
Mof_C 	C 	0.80967	0.44733	0.17973	0.335
Mof_H 	H 	0.79827	0.39223	0.17413	-0.108
Mof_C 	C 	0.82367	0.54733	0.22173	-0.037
Mof_H 	H 	0.81897	0.56003	0.24543	0.055
Mof_C 	C 	0.83267	0.60203	0.19573	0.142
Mof_N 	N 	0.49033	0.80667	0.54707	-0.14
Mof_O 	O 	0.74356	0.10823	0.62272	-0.416
Mof_O 	O 	0.70499	0.14884	0.67001	-0.413
Mof_C 	C 	0.69473	0.12047	0.64004	0.38
Mof_C 	C 	0.61343	0.09827	0.62279	-0.107
Mof_C 	C 	0.59903	0.06967	0.58872	0.023
Mof_H 	H 	0.63753	0.06017	0.57737	0.039
Mof_C 	C 	0.50253	0.06027	0.51197	-0.185
Mof_H 	H 	0.50853	0.11307	0.51777	0.177
Mof_C 	C 	0.49133	0.03407	0.47767	-0.137
Mof_H 	H 	0.49133	0.06987	0.45977	-0.02
Mof_C 	C 	0.48833	0.90927	0.49467	0.125
Mof_C 	C 	0.48033	0.83247	0.48717	-0.427
Mof_H 	H 	0.47603	0.81547	0.46337	0.164
Mof_C 	C 	0.47633	0.78067	0.51307	0.335
Mof_H 	H 	0.46493	0.72557	0.50747	-0.108
Mof_C 	C 	0.49033	0.88067	0.55507	-0.037
Mof_H 	H 	0.48563	0.89337	0.57877	0.055
Mof_C 	C 	0.49933	0.93537	0.52907	0.142
Mof_Cu	Cu	0.47653	0.95306	0.02825	0.906
Mof_Cu	Cu	0.1432	0.28639	0.36159	0.906
Mof_Cu	Cu	0.80986	0.61973	0.69492	0.906
Mof_Cu	Cu	0.04694	0.52347	0.02825	0.906
Mof_Cu	Cu	0.71361	0.8568	0.36159	0.906
Mof_Cu	Cu	0.38027	0.19014	0.69492	0.906
Mof_Cu	Cu	0.47653	0.52347	0.02825	0.906
Mof_Cu	Cu	0.1432	0.8568	0.36159	0.906
Mof_Cu	Cu	0.80986	0.19014	0.69492	0.906
Mof_Cu	Cu	0.95306	0.47653	0.97175	0.906
Mof_Cu	Cu	0.61973	0.80986	0.30508	0.906
Mof_Cu	Cu	0.28639	0.1432	0.63841	0.906
Mof_Cu	Cu	0.52347	0.04694	0.97175	0.906
Mof_Cu	Cu	0.19014	0.38027	0.30508	0.906
Mof_Cu	Cu	0.8568	0.71361	0.63841	0.906
Mof_Cu	Cu	0.52347	0.47653	0.97175	0.906
Mof_Cu	Cu	0.19014	0.80986	0.30508	0.906
Mof_Cu	Cu	0.8568	0.1432	0.63841	0.906
Mof_C 	C 	0.22298	0.77702	0.97315	0.046
Mof_H 	H 	0.2325	0.7675	0.9959	0.047
Mof_C 	C 	0.1945	0.8055	0.9049	-0.101
Mof_C 	C 	0.1717	0.8283	0.8711	0.199
Mof_C 	C 	0.1456	0.8544	0.8024	0.004
Mof_C 	C 	0.88965	0.11035	0.30648	0.046
Mof_H 	H 	0.89917	0.10083	0.32923	0.048
Mof_C 	C 	0.86117	0.13883	0.23823	-0.1
Mof_C 	C 	0.83837	0.16163	0.20443	0.198
Mof_C 	C 	0.81227	0.18773	0.13573	0.005
Mof_C 	C 	0.55631	0.44369	0.63982	0.046
Mof_H 	H 	0.56583	0.43417	0.66257	0.048
Mof_C 	C 	0.52783	0.47217	0.57157	-0.101
Mof_C 	C 	0.50503	0.49497	0.53777	0.199
Mof_C 	C 	0.47893	0.52107	0.46907	0.004
Mof_C 	C 	0.22298	0.44596	0.97315	0.046
Mof_H 	H 	0.2325	0.465	0.9959	0.047
Mof_C 	C 	0.1945	0.389	0.9049	-0.101
Mof_C 	C 	0.1717	0.3434	0.8711	0.199
Mof_C 	C 	0.1456	0.2912	0.8024	0.004
Mof_C 	C 	0.88965	0.77929	0.30648	0.046
Mof_H 	H 	0.89917	0.79833	0.32923	0.048
Mof_C 	C 	0.86117	0.72233	0.23823	-0.101
Mof_C 	C 	0.83837	0.67673	0.20443	0.199
Mof_C 	C 	0.81227	0.62453	0.13573	0.005
Mof_C 	C 	0.55631	0.11263	0.63982	0.046
Mof_H 	H 	0.56583	0.13167	0.66257	0.047
Mof_C 	C 	0.52783	0.05567	0.57157	-0.101
Mof_C 	C 	0.50503	0.01007	0.53777	0.199
Mof_C 	C 	0.47893	0.95787	0.46907	0.004
Mof_C 	C 	0.55404	0.77702	0.97315	0.046
Mof_H 	H 	0.535	0.7675	0.9959	0.047
Mof_C 	C 	0.611	0.8055	0.9049	-0.101
Mof_C 	C 	0.6566	0.8283	0.8711	0.199
Mof_C 	C 	0.7088	0.8544	0.8024	0.004
Mof_C 	C 	0.22071	0.11035	0.30648	0.046
Mof_H 	H 	0.20167	0.10083	0.32923	0.048
Mof_C 	C 	0.27767	0.13883	0.23823	-0.101
Mof_C 	C 	0.32327	0.16163	0.20443	0.199
Mof_C 	C 	0.37547	0.18773	0.13573	0.005
Mof_C 	C 	0.88737	0.44369	0.63982	0.046
Mof_H 	H 	0.86833	0.43417	0.66257	0.047
Mof_C 	C 	0.94433	0.47217	0.57157	-0.101
Mof_C 	C 	0.98993	0.49497	0.53777	0.199
Mof_C 	C 	0.04213	0.52107	0.46907	0.004
Mof_C 	C 	0.77702	0.22298	0.02685	0.046
Mof_H 	H 	0.7675	0.2325	0.0041	0.047
Mof_C 	C 	0.8055	0.1945	0.0951	-0.101
Mof_C 	C 	0.8283	0.1717	0.1289	0.199
Mof_C 	C 	0.8544	0.1456	0.1976	0.004
Mof_C 	C 	0.44369	0.55631	0.36018	0.046
Mof_H 	H 	0.43417	0.56583	0.33743	0.048
Mof_C 	C 	0.47217	0.52783	0.42843	-0.101
Mof_C 	C 	0.49497	0.50503	0.46223	0.199
Mof_C 	C 	0.52107	0.47893	0.53093	0.004
Mof_C 	C 	0.11035	0.88965	0.69352	0.046
Mof_H 	H 	0.10083	0.89917	0.67077	0.048
Mof_C 	C 	0.13883	0.86117	0.76177	-0.1
Mof_C 	C 	0.16163	0.83837	0.79557	0.198
Mof_C 	C 	0.18773	0.81227	0.86427	0.005
Mof_C 	C 	0.44596	0.22298	0.02685	0.046
Mof_H 	H 	0.465	0.2325	0.0041	0.047
Mof_C 	C 	0.389	0.1945	0.0951	-0.101
Mof_C 	C 	0.3434	0.1717	0.1289	0.199
Mof_C 	C 	0.2912	0.1456	0.1976	0.004
Mof_C 	C 	0.11263	0.55631	0.36018	0.046
Mof_H 	H 	0.13167	0.56583	0.33743	0.047
Mof_C 	C 	0.05567	0.52783	0.42843	-0.101
Mof_C 	C 	0.01007	0.50503	0.46223	0.199
Mof_C 	C 	0.95787	0.47893	0.53093	0.004
Mof_C 	C 	0.77929	0.88965	0.69352	0.046
Mof_H 	H 	0.79833	0.89917	0.67077	0.048
Mof_C 	C 	0.72233	0.86117	0.76177	-0.101
Mof_C 	C 	0.67673	0.83837	0.79557	0.199
Mof_C 	C 	0.62453	0.81227	0.86427	0.005
Mof_C 	C 	0.77702	0.55404	0.02685	0.046
Mof_H 	H 	0.7675	0.535	0.0041	0.047
Mof_C 	C 	0.8055	0.611	0.0951	-0.101
Mof_C 	C 	0.8283	0.6566	0.1289	0.199
Mof_C 	C 	0.8544	0.7088	0.1976	0.004
Mof_C 	C 	0.44369	0.88737	0.36018	0.046
Mof_H 	H 	0.43417	0.86833	0.33743	0.047
Mof_C 	C 	0.47217	0.94433	0.42843	-0.101
Mof_C 	C 	0.49497	0.98993	0.46223	0.199
Mof_C 	C 	0.52107	0.04213	0.53093	0.004
Mof_C 	C 	0.11035	0.22071	0.69352	0.046
Mof_H 	H 	0.10083	0.20167	0.67077	0.048
Mof_C 	C 	0.13883	0.27767	0.76177	-0.101
Mof_C 	C 	0.16163	0.32327	0.79557	0.199
Mof_C 	C 	0.18773	0.37547	0.86427	0.005
_end
