data_functionalizedCrystal
_audit_creation_method	'EQeq! by Chris Wilmer'
_symmetry_space_group_name_H-M	'P1'
_symmetry_Int_Tables_number	1
_symmetry_cell_setting	triclinic
loop_
_symmetry_equiv_pos_as_xyz
  x,y,z
_cell_length_a	17.7349
_cell_length_b	17.7349
_cell_length_c	28.1732
_cell_angle_alpha	90
_cell_angle_beta	90
_cell_angle_gamma	90
loop_
_atom_site_label
_atom_site_type_symbol
_atom_site_fract_x
_atom_site_fract_y
_atom_site_fract_z
_atom_site_charge
Mof_C 	C 	0.4636	0.1851	0.07981	-0.096
Mof_C 	C 	0.4148	0.1862	0.11809	0.039
Mof_H 	H 	0.3876	0.1418	0.126	0.04
Mof_C 	C 	0.4445	0.316	0.13324	-0.045
Mof_H 	H 	0.4383	0.3609	0.1512	0.06
Mof_C 	C 	0.4918	0.3138	0.09561	0.07
Mof_C 	C 	0.5023	0.25	0.0685	-0.04
Mof_H 	H 	0.536	0.2508	0.0423	0.058
Mof_C 	C 	0.5355	0.4124	0.0392	0.002
Mof_H 	H 	0.5039	0.3993	0.0133	0.029
Mof_C 	C 	0.3503	0.2508	0.18547	0.395
Mof_C 	C 	0.4747	0.1156	0.05055	0.405
Mof_C 	C 	0.4048	0.2503	0.1451	-0.095
Mof_N 	N 	0.5348	0.3806	0.08287	-0.146
Mof_O 	O 	0.512	0.12238	0.01354	-0.49
Mof_O 	O 	0.44496	0.05594	0.06626	-0.48
Mof_O 	O 	0.31736	0.18975	0.19427	-0.483
Mof_O 	O 	0.33925	0.31238	0.20667	-0.475
Mof_C 	C 	0.0364	0.3149	0.07981	-0.102
Mof_C 	C 	0.0852	0.3138	0.11809	0.042
Mof_H 	H 	0.1124	0.3582	0.126	0.038
Mof_C 	C 	0.0555	0.184	0.13324	-0.042
Mof_H 	H 	0.0617	0.1391	0.1512	0.058
Mof_C 	C 	0.0082	0.1862	0.09561	0.063
Mof_C 	C 	0.9977	0.25	0.0685	-0.033
Mof_H 	H 	0.964	0.2492	0.0423	0.055
Mof_C 	C 	0.9645	0.0876	0.0392	0.002
Mof_H 	H 	0.9961	0.1007	0.0133	0.03
Mof_C 	C 	0.1497	0.2492	0.18547	0.396
Mof_C 	C 	0.0253	0.3844	0.05055	0.404
Mof_C 	C 	0.0952	0.2497	0.1451	-0.098
Mof_N 	N 	0.9652	0.1194	0.08287	-0.144
Mof_O 	O 	0.988	0.37762	0.01354	-0.488
Mof_O 	O 	0.05504	0.44406	0.06626	-0.481
Mof_O 	O 	0.18264	0.31025	0.19427	-0.483
Mof_O 	O 	0.16075	0.18762	0.20667	-0.475
Mof_C 	C 	0.3149	0.4636	0.57981	-0.098
Mof_C 	C 	0.3138	0.4148	0.61809	0.039
Mof_H 	H 	0.3582	0.3876	0.626	0.039
Mof_C 	C 	0.184	0.4445	0.63324	-0.046
Mof_H 	H 	0.1391	0.4383	0.6512	0.059
Mof_C 	C 	0.1862	0.4918	0.59561	0.069
Mof_C 	C 	0.25	0.5023	0.5685	-0.041
Mof_H 	H 	0.2492	0.536	0.5423	0.057
Mof_C 	C 	0.0876	0.5355	0.5392	0.002
Mof_H 	H 	0.1007	0.5039	0.5133	0.029
Mof_C 	C 	0.2492	0.3503	0.68547	0.395
Mof_C 	C 	0.3844	0.4747	0.55055	0.406
Mof_C 	C 	0.2497	0.4048	0.6451	-0.095
Mof_N 	N 	0.1194	0.5348	0.58287	-0.146
Mof_O 	O 	0.37762	0.512	0.51354	-0.491
Mof_O 	O 	0.44406	0.44496	0.56626	-0.48
Mof_O 	O 	0.31025	0.31736	0.69427	-0.483
Mof_O 	O 	0.18762	0.33925	0.70667	-0.475
Mof_C 	C 	0.1851	0.0364	0.57981	-0.098
Mof_C 	C 	0.1862	0.0852	0.61809	0.039
Mof_H 	H 	0.1418	0.1124	0.626	0.039
Mof_C 	C 	0.316	0.0555	0.63324	-0.046
Mof_H 	H 	0.3609	0.0617	0.6512	0.059
Mof_C 	C 	0.3138	0.0082	0.59561	0.069
Mof_C 	C 	0.25	0.9977	0.5685	-0.04
Mof_H 	H 	0.2508	0.964	0.5423	0.057
Mof_C 	C 	0.4124	0.9645	0.5392	0.002
Mof_H 	H 	0.3993	0.9961	0.5133	0.029
Mof_C 	C 	0.2508	0.1497	0.68547	0.395
Mof_C 	C 	0.1156	0.0253	0.55055	0.406
Mof_C 	C 	0.2503	0.0952	0.6451	-0.095
Mof_N 	N 	0.3806	0.9652	0.58287	-0.146
Mof_O 	O 	0.12238	0.988	0.51354	-0.491
Mof_O 	O 	0.05594	0.05504	0.56626	-0.48
Mof_O 	O 	0.18975	0.18264	0.69427	-0.483
Mof_O 	O 	0.31238	0.16075	0.70667	-0.475
Mof_C 	C 	0.0364	0.1851	0.42019	-0.098
Mof_C 	C 	0.0852	0.1862	0.38191	0.039
Mof_H 	H 	0.1124	0.1418	0.374	0.039
Mof_C 	C 	0.0555	0.316	0.36676	-0.046
Mof_H 	H 	0.0617	0.3609	0.3488	0.059
Mof_C 	C 	0.0082	0.3138	0.40439	0.069
Mof_C 	C 	0.9977	0.25	0.4315	-0.04
Mof_H 	H 	0.964	0.2508	0.4577	0.057
Mof_C 	C 	0.9645	0.4124	0.4608	0.002
Mof_H 	H 	0.9961	0.3993	0.4867	0.029
Mof_C 	C 	0.1497	0.2508	0.31453	0.395
Mof_C 	C 	0.0253	0.1156	0.44945	0.406
Mof_C 	C 	0.0952	0.2503	0.3549	-0.095
Mof_N 	N 	0.9652	0.3806	0.41713	-0.146
Mof_O 	O 	0.988	0.12238	0.48646	-0.491
Mof_O 	O 	0.05504	0.05594	0.43374	-0.48
Mof_O 	O 	0.18264	0.18975	0.30573	-0.483
Mof_O 	O 	0.16075	0.31238	0.29333	-0.475
Mof_C 	C 	0.4636	0.3149	0.42019	-0.098
Mof_C 	C 	0.4148	0.3138	0.38191	0.039
Mof_H 	H 	0.3876	0.3582	0.374	0.039
Mof_C 	C 	0.4445	0.184	0.36676	-0.046
Mof_H 	H 	0.4383	0.1391	0.3488	0.059
Mof_C 	C 	0.4918	0.1862	0.40439	0.069
Mof_C 	C 	0.5023	0.25	0.4315	-0.041
Mof_H 	H 	0.536	0.2492	0.4577	0.057
Mof_C 	C 	0.5355	0.0876	0.4608	0.002
Mof_H 	H 	0.5039	0.1007	0.4867	0.029
Mof_C 	C 	0.3503	0.2492	0.31453	0.395
Mof_C 	C 	0.4747	0.3844	0.44945	0.406
Mof_C 	C 	0.4048	0.2497	0.3549	-0.095
Mof_N 	N 	0.5348	0.1194	0.41713	-0.146
Mof_O 	O 	0.512	0.37762	0.48646	-0.491
Mof_O 	O 	0.44496	0.44406	0.43374	-0.48
Mof_O 	O 	0.31736	0.31025	0.30573	-0.483
Mof_O 	O 	0.33925	0.18762	0.29333	-0.475
Mof_C 	C 	0.1851	0.4636	0.92019	-0.097
Mof_C 	C 	0.1862	0.4148	0.88191	0.038
Mof_H 	H 	0.1418	0.3876	0.874	0.039
Mof_C 	C 	0.316	0.4445	0.86676	-0.046
Mof_H 	H 	0.3609	0.4383	0.8488	0.059
Mof_C 	C 	0.3138	0.4918	0.90439	0.069
Mof_C 	C 	0.25	0.5023	0.9315	-0.041
Mof_H 	H 	0.2508	0.536	0.9577	0.057
Mof_C 	C 	0.4124	0.5355	0.9608	0.002
Mof_H 	H 	0.3993	0.5039	0.9867	0.029
Mof_C 	C 	0.2508	0.3503	0.81453	0.395
Mof_C 	C 	0.1156	0.4747	0.94945	0.405
Mof_C 	C 	0.2503	0.4048	0.8549	-0.095
Mof_N 	N 	0.3806	0.5348	0.91713	-0.146
Mof_O 	O 	0.12238	0.512	0.98646	-0.49
Mof_O 	O 	0.05594	0.44496	0.93374	-0.48
Mof_O 	O 	0.18975	0.31736	0.80573	-0.483
Mof_O 	O 	0.31238	0.33925	0.79333	-0.475
Mof_C 	C 	0.3149	0.0364	0.92019	-0.102
Mof_C 	C 	0.3138	0.0852	0.88191	0.042
Mof_H 	H 	0.3582	0.1124	0.874	0.038
Mof_C 	C 	0.184	0.0555	0.86676	-0.042
Mof_H 	H 	0.1391	0.0617	0.8488	0.058
Mof_C 	C 	0.1862	0.0082	0.90439	0.063
Mof_C 	C 	0.25	0.9977	0.9315	-0.033
Mof_H 	H 	0.2492	0.964	0.9577	0.055
Mof_C 	C 	0.0876	0.9645	0.9608	0.002
Mof_H 	H 	0.1007	0.9961	0.9867	0.03
Mof_C 	C 	0.2492	0.1497	0.81453	0.396
Mof_C 	C 	0.3844	0.0253	0.94945	0.404
Mof_C 	C 	0.2497	0.0952	0.8549	-0.098
Mof_N 	N 	0.1194	0.9652	0.91713	-0.144
Mof_O 	O 	0.37762	0.988	0.98646	-0.488
Mof_O 	O 	0.44406	0.05504	0.93374	-0.481
Mof_O 	O 	0.31025	0.18264	0.80573	-0.483
Mof_O 	O 	0.18762	0.16075	0.79333	-0.475
Mof_C 	C 	0.5364	0.8149	0.92019	-0.097
Mof_C 	C 	0.5852	0.8138	0.88191	0.038
Mof_H 	H 	0.6124	0.8582	0.874	0.039
Mof_C 	C 	0.5555	0.684	0.86676	-0.046
Mof_H 	H 	0.5617	0.6391	0.8488	0.059
Mof_C 	C 	0.5082	0.6862	0.90439	0.069
Mof_C 	C 	0.4977	0.75	0.9315	-0.041
Mof_H 	H 	0.464	0.7492	0.9577	0.057
Mof_C 	C 	0.4645	0.5876	0.9608	0.002
Mof_H 	H 	0.4961	0.6007	0.9867	0.029
Mof_C 	C 	0.6497	0.7492	0.81453	0.395
Mof_C 	C 	0.5253	0.8844	0.94945	0.405
Mof_C 	C 	0.5952	0.7497	0.8549	-0.095
Mof_N 	N 	0.4652	0.6194	0.91713	-0.146
Mof_O 	O 	0.488	0.87762	0.98646	-0.49
Mof_O 	O 	0.55504	0.94406	0.93374	-0.48
Mof_O 	O 	0.68264	0.81025	0.80573	-0.483
Mof_O 	O 	0.66075	0.68762	0.79333	-0.475
Mof_C 	C 	0.9636	0.6851	0.92019	-0.102
Mof_C 	C 	0.9148	0.6862	0.88191	0.042
Mof_H 	H 	0.8876	0.6418	0.874	0.038
Mof_C 	C 	0.9445	0.816	0.86676	-0.042
Mof_H 	H 	0.9383	0.8609	0.8488	0.058
Mof_C 	C 	0.9918	0.8138	0.90439	0.063
Mof_C 	C 	0.0023	0.75	0.9315	-0.033
Mof_H 	H 	0.036	0.7508	0.9577	0.055
Mof_C 	C 	0.0355	0.9124	0.9608	0.002
Mof_H 	H 	0.0039	0.8993	0.9867	0.03
Mof_C 	C 	0.8503	0.7508	0.81453	0.396
Mof_C 	C 	0.9747	0.6156	0.94945	0.404
Mof_C 	C 	0.9048	0.7503	0.8549	-0.098
Mof_N 	N 	0.0348	0.8806	0.91713	-0.144
Mof_O 	O 	0.012	0.62238	0.98646	-0.488
Mof_O 	O 	0.94496	0.55594	0.93374	-0.481
Mof_O 	O 	0.81736	0.68975	0.80573	-0.483
Mof_O 	O 	0.83925	0.81238	0.79333	-0.475
Mof_C 	C 	0.6851	0.5364	0.42019	-0.098
Mof_C 	C 	0.6862	0.5852	0.38191	0.039
Mof_H 	H 	0.6418	0.6124	0.374	0.039
Mof_C 	C 	0.816	0.5555	0.36676	-0.046
Mof_H 	H 	0.8609	0.5617	0.3488	0.059
Mof_C 	C 	0.8138	0.5082	0.40439	0.069
Mof_C 	C 	0.75	0.4977	0.4315	-0.041
Mof_H 	H 	0.7508	0.464	0.4577	0.057
Mof_C 	C 	0.9124	0.4645	0.4608	0.002
Mof_H 	H 	0.8993	0.4961	0.4867	0.029
Mof_C 	C 	0.7508	0.6497	0.31453	0.395
Mof_C 	C 	0.6156	0.5253	0.44945	0.406
Mof_C 	C 	0.7503	0.5952	0.3549	-0.095
Mof_N 	N 	0.8806	0.4652	0.41713	-0.146
Mof_O 	O 	0.62238	0.488	0.48646	-0.491
Mof_O 	O 	0.55594	0.55504	0.43374	-0.48
Mof_O 	O 	0.68975	0.68264	0.30573	-0.483
Mof_O 	O 	0.81238	0.66075	0.29333	-0.475
Mof_C 	C 	0.8149	0.9636	0.42019	-0.098
Mof_C 	C 	0.8138	0.9148	0.38191	0.039
Mof_H 	H 	0.8582	0.8876	0.374	0.039
Mof_C 	C 	0.684	0.9445	0.36676	-0.046
Mof_H 	H 	0.6391	0.9383	0.3488	0.059
Mof_C 	C 	0.6862	0.9918	0.40439	0.069
Mof_C 	C 	0.75	0.0023	0.4315	-0.04
Mof_H 	H 	0.7492	0.036	0.4577	0.057
Mof_C 	C 	0.5876	0.0355	0.4608	0.002
Mof_H 	H 	0.6007	0.0039	0.4867	0.029
Mof_C 	C 	0.7492	0.8503	0.31453	0.395
Mof_C 	C 	0.8844	0.9747	0.44945	0.406
Mof_C 	C 	0.7497	0.9048	0.3549	-0.095
Mof_N 	N 	0.6194	0.0348	0.41713	-0.146
Mof_O 	O 	0.87762	0.012	0.48646	-0.491
Mof_O 	O 	0.94406	0.94496	0.43374	-0.48
Mof_O 	O 	0.81025	0.81736	0.30573	-0.483
Mof_O 	O 	0.68762	0.83925	0.29333	-0.475
Mof_C 	C 	0.9636	0.8149	0.57981	-0.098
Mof_C 	C 	0.9148	0.8138	0.61809	0.039
Mof_H 	H 	0.8876	0.8582	0.626	0.039
Mof_C 	C 	0.9445	0.684	0.63324	-0.046
Mof_H 	H 	0.9383	0.6391	0.6512	0.059
Mof_C 	C 	0.9918	0.6862	0.59561	0.069
Mof_C 	C 	0.0023	0.75	0.5685	-0.04
Mof_H 	H 	0.036	0.7492	0.5423	0.057
Mof_C 	C 	0.0355	0.5876	0.5392	0.002
Mof_H 	H 	0.0039	0.6007	0.5133	0.029
Mof_C 	C 	0.8503	0.7492	0.68547	0.395
Mof_C 	C 	0.9747	0.8844	0.55055	0.406
Mof_C 	C 	0.9048	0.7497	0.6451	-0.095
Mof_N 	N 	0.0348	0.6194	0.58287	-0.146
Mof_O 	O 	0.012	0.87762	0.51354	-0.491
Mof_O 	O 	0.94496	0.94406	0.56626	-0.48
Mof_O 	O 	0.81736	0.81025	0.69427	-0.483
Mof_O 	O 	0.83925	0.68762	0.70667	-0.475
Mof_C 	C 	0.5364	0.6851	0.57981	-0.098
Mof_C 	C 	0.5852	0.6862	0.61809	0.039
Mof_H 	H 	0.6124	0.6418	0.626	0.039
Mof_C 	C 	0.5555	0.816	0.63324	-0.046
Mof_H 	H 	0.5617	0.8609	0.6512	0.059
Mof_C 	C 	0.5082	0.8138	0.59561	0.069
Mof_C 	C 	0.4977	0.75	0.5685	-0.041
Mof_H 	H 	0.464	0.7508	0.5423	0.057
Mof_C 	C 	0.4645	0.9124	0.5392	0.002
Mof_H 	H 	0.4961	0.8993	0.5133	0.029
Mof_C 	C 	0.6497	0.7508	0.68547	0.395
Mof_C 	C 	0.5253	0.6156	0.55055	0.406
Mof_C 	C 	0.5952	0.7503	0.6451	-0.095
Mof_N 	N 	0.4652	0.8806	0.58287	-0.146
Mof_O 	O 	0.488	0.62238	0.51354	-0.491
Mof_O 	O 	0.55504	0.55594	0.56626	-0.48
Mof_O 	O 	0.68264	0.68975	0.69427	-0.483
Mof_O 	O 	0.66075	0.81238	0.70667	-0.475
Mof_C 	C 	0.8149	0.5364	0.07981	-0.097
Mof_C 	C 	0.8138	0.5852	0.11809	0.038
Mof_H 	H 	0.8582	0.6124	0.126	0.039
Mof_C 	C 	0.684	0.5555	0.13324	-0.046
Mof_H 	H 	0.6391	0.5617	0.1512	0.059
Mof_C 	C 	0.6862	0.5082	0.09561	0.069
Mof_C 	C 	0.75	0.4977	0.0685	-0.041
Mof_H 	H 	0.7492	0.464	0.0423	0.057
Mof_C 	C 	0.5876	0.4645	0.0392	0.002
Mof_H 	H 	0.6007	0.4961	0.0133	0.029
Mof_C 	C 	0.7492	0.6497	0.18547	0.395
Mof_C 	C 	0.8844	0.5253	0.05055	0.405
Mof_C 	C 	0.7497	0.5952	0.1451	-0.095
Mof_N 	N 	0.6194	0.4652	0.08287	-0.146
Mof_O 	O 	0.87762	0.488	0.01354	-0.49
Mof_O 	O 	0.94406	0.55504	0.06626	-0.48
Mof_O 	O 	0.81025	0.68264	0.19427	-0.483
Mof_O 	O 	0.68762	0.66075	0.20667	-0.475
Mof_C 	C 	0.6851	0.9636	0.07981	-0.102
Mof_C 	C 	0.6862	0.9148	0.11809	0.042
Mof_H 	H 	0.6418	0.8876	0.126	0.038
Mof_C 	C 	0.816	0.9445	0.13324	-0.042
Mof_H 	H 	0.8609	0.9383	0.1512	0.058
Mof_C 	C 	0.8138	0.9918	0.09561	0.063
Mof_C 	C 	0.75	0.0023	0.0685	-0.033
Mof_H 	H 	0.7508	0.036	0.0423	0.055
Mof_C 	C 	0.9124	0.0355	0.0392	0.002
Mof_H 	H 	0.8993	0.0039	0.0133	0.03
Mof_C 	C 	0.7508	0.8503	0.18547	0.396
Mof_C 	C 	0.6156	0.9747	0.05055	0.404
Mof_C 	C 	0.7503	0.9048	0.1451	-0.098
Mof_N 	N 	0.8806	0.0348	0.08287	-0.144
Mof_O 	O 	0.62238	0.012	0.01354	-0.488
Mof_O 	O 	0.55594	0.94496	0.06626	-0.481
Mof_O 	O 	0.68975	0.81736	0.19427	-0.483
Mof_O 	O 	0.81238	0.83925	0.20667	-0.475
Mof_C 	C 	0.5918	0.4082	0.1035	0.123
Mof_H 	H 	0.612	0.388	0.132	-0.003
Mof_C 	C 	0.9082	0.0918	0.1035	0.122
Mof_H 	H 	0.888	0.112	0.132	-0.002
Mof_C 	C 	0.0918	0.5918	0.6035	0.123
Mof_H 	H 	0.112	0.612	0.632	-0.003
Mof_C 	C 	0.4082	0.9082	0.6035	0.123
Mof_H 	H 	0.388	0.888	0.632	-0.003
Mof_C 	C 	0.9082	0.4082	0.3965	0.123
Mof_H 	H 	0.888	0.388	0.368	-0.003
Mof_C 	C 	0.5918	0.0918	0.3965	0.123
Mof_H 	H 	0.612	0.112	0.368	-0.003
Mof_C 	C 	0.4082	0.5918	0.8965	0.123
Mof_H 	H 	0.388	0.612	0.868	-0.003
Mof_C 	C 	0.0918	0.9082	0.8965	0.122
Mof_H 	H 	0.112	0.888	0.868	-0.002
Mof_Zn	Zn	0.54554	0.04554	0.96497	1.2
Mof_Zn	Zn	0.95446	0.45446	0.96497	1.2
Mof_Zn	Zn	0.45446	0.54554	0.46497	1.201
Mof_Zn	Zn	0.04554	0.95446	0.46497	1.201
Mof_Zn	Zn	0.95446	0.04554	0.53503	1.201
Mof_Zn	Zn	0.54554	0.45446	0.53503	1.201
Mof_Zn	Zn	0.04554	0.54554	0.03503	1.2
Mof_Zn	Zn	0.45446	0.95446	0.03503	1.2
Mof_Zn	Zn	0.25	0.16545	0.25	1.197
Mof_Zn	Zn	0.25	0.33455	0.25	1.197
Mof_Zn	Zn	0.33455	0.25	0.75	1.197
Mof_Zn	Zn	0.16545	0.25	0.75	1.197
Mof_Zn	Zn	0.75	0.83455	0.75	1.197
Mof_Zn	Zn	0.75	0.66545	0.75	1.197
Mof_Zn	Zn	0.66545	0.75	0.25	1.197
Mof_Zn	Zn	0.83455	0.75	0.25	1.197
_end
