# CIF file generated by openbabel 3.1.0, see https://openbabel.org
data_I
_chemical_name_common 'image0'
_cell_length_a 15.014
_cell_length_b 20.223
_cell_length_c 19.843
_cell_angle_alpha 90
_cell_angle_beta 90
_cell_angle_gamma 90
_space_group_name_H-M_alt 'P 1'
_space_group_name_Hall 'P 1'
loop_
    _symmetry_equiv_pos_as_xyz
    x,y,z
loop_
    _atom_site_label
    _atom_site_type_symbol
    _atom_site_fract_x
    _atom_site_fract_y
    _atom_site_fract_z
    _atom_site_occupancy
    Zn1      Zn       0.32141    0.39760    0.62661    1.000
    Zn2      Zn       0.27549    0.60370    0.41876    1.000
    N1       N        0.27290    0.30670    0.61400    1.000
    N2       N        0.25840    0.46590    0.57450    1.000
    N3       N        0.23920    0.54720    0.49510    1.000
    N4       N        0.40810    0.60900    0.42890    1.000
    N5       N        0.55650    0.60510    0.41250    1.000
    N6       N        0.23930    0.56900    0.32960    1.000
    N7       N        0.19430    0.57080    0.22060    1.000
    N8       N        0.22350    0.69290    0.42080    1.000
    H1       H        0.38170    0.28180    0.71700    1.000
    C1       C        0.21090    0.28390    0.56830    1.000
    C2       C        0.15370    0.32040    0.52360    1.000
    H2       H        0.15450    0.36640    0.52190    1.000
    C3       C        0.09740    0.28340    0.48320    1.000
    H3       H        0.05800    0.30540    0.45480    1.000
    C4       C        0.29270    0.50020    0.52240    1.000
    H4       H        0.34980    0.49210    0.50610    1.000
    C5       C        0.17470    0.49210    0.57950    1.000
    C6       C        0.10860    0.47670    0.62810    1.000
    H5       H        0.11960    0.44640    0.66240    1.000
    C7       C        0.02860    0.50790    0.62270    1.000
    H6       H        0.98270    0.49620    0.65190    1.000
    C8       C        0.01360    0.55720    0.57450    1.000
    H7       H        0.95870    0.57840    0.57270    1.000
    C9       C        0.07980    0.57440    0.52950    1.000
    H8       H        0.07010    0.60760    0.49800    1.000
    C10      C        0.16180    0.54140    0.53190    1.000
    C11      C        0.46170    0.57480    0.31970    1.000
    H9       H        0.51590    0.57760    0.29420    1.000
    H10      H        0.41710    0.60220    0.29910    1.000
    H11      H        0.44140    0.52980    0.32050    1.000
    C12      C        0.47770    0.59720    0.38820    1.000
    C13      C        0.44890    0.62850    0.48810    1.000
    C14      C        0.41440    0.64670    0.54940    1.000
    H12      H        0.35320    0.64600    0.55650    1.000
    C15      C        0.47050    0.66590    0.59980    1.000
    H13      H        0.44730    0.68010    0.64080    1.000
    C16      C        0.56390    0.66430    0.59000    1.000
    H14      H        0.60190    0.67700    0.62470    1.000
    C17      C        0.59910    0.64350    0.52840    1.000
    H15      H        0.66040    0.64050    0.52220    1.000
    C18      C        0.54060    0.62760    0.47650    1.000
    C19      C        0.22770    0.60480    0.27330    1.000
    H16      H        0.24170    0.64950    0.27080    1.000
    C20      C        0.21470    0.50590    0.31190    1.000
    C21      C        0.21370    0.44510    0.34690    1.000
    H17      H        0.23480    0.44280    0.39090    1.000
    C22      C        0.18200    0.39030    0.31630    1.000
    H18      H        0.17950    0.35060    0.33990    1.000
    C23      C        0.15370    0.39280    0.25090    1.000
    H19      H        0.13320    0.35400    0.23100    1.000
    C24      C        0.15380    0.44870    0.21360    1.000
    H20      H        0.13500    0.44910    0.16900    1.000
    C25      C        0.18390    0.50550    0.24600    1.000
    C26      C        0.14380    0.71640    0.39260    1.000
    C27      C        0.07270    0.67910    0.37000    1.000
    H21      H        0.07320    0.63310    0.37050    1.000
    C28      C        0.99930    0.71580    0.34610    1.000
    H22      H        0.94960    0.69340    0.32990    1.000
    H23      H        0.39800    0.20680    0.70110    1.000
    H24      H        0.44330    0.26140    0.65660    1.000
    Zn3      Zn       0.17859    0.60240    0.12661    1.000
    Zn4      Zn       0.22451    0.39630    0.91876    1.000
    N9       N        0.22710    0.69330    0.11400    1.000
    N10      N        0.24160    0.53410    0.07450    1.000
    N11      N        0.26080    0.45280    0.99510    1.000
    N12      N        0.09190    0.39100    0.92890    1.000
    N13      N        0.94350    0.39490    0.91250    1.000
    N14      N        0.26070    0.43100    0.82960    1.000
    N15      N        0.30570    0.42920    0.72060    1.000
    N16      N        0.27650    0.30710    0.92080    1.000
    H25      H        0.11830    0.71820    0.21700    1.000
    C29      C        0.28910    0.71610    0.06830    1.000
    C30      C        0.34630    0.67960    0.02360    1.000
    H26      H        0.34550    0.63360    0.02190    1.000
    C31      C        0.40260    0.71660    0.98320    1.000
    H27      H        0.44200    0.69460    0.95480    1.000
    C32      C        0.20730    0.49980    0.02240    1.000
    H28      H        0.15020    0.50790    0.00610    1.000
    C33      C        0.32530    0.50790    0.07950    1.000
    C34      C        0.39140    0.52330    0.12810    1.000
    H29      H        0.38040    0.55360    0.16240    1.000
    C35      C        0.47140    0.49210    0.12270    1.000
    H30      H        0.51730    0.50380    0.15190    1.000
    C36      C        0.48640    0.44280    0.07450    1.000
    H31      H        0.54130    0.42160    0.07270    1.000
    C37      C        0.42020    0.42560    0.02950    1.000
    H32      H        0.42990    0.39240    0.99800    1.000
    C38      C        0.33820    0.45860    0.03190    1.000
    C39      C        0.03830    0.42520    0.81970    1.000
    H33      H        0.98410    0.42240    0.79420    1.000
    H34      H        0.08290    0.39780    0.79910    1.000
    H35      H        0.05860    0.47020    0.82050    1.000
    C40      C        0.02230    0.40280    0.88820    1.000
    C41      C        0.05110    0.37150    0.98810    1.000
    C42      C        0.08560    0.35330    0.04940    1.000
    H36      H        0.14680    0.35400    0.05650    1.000
    C43      C        0.02950    0.33410    0.09980    1.000
    H37      H        0.05270    0.31990    0.14080    1.000
    C44      C        0.93610    0.33570    0.09000    1.000
    H38      H        0.89810    0.32300    0.12470    1.000
    C45      C        0.90090    0.35650    0.02840    1.000
    H39      H        0.83960    0.35950    0.02220    1.000
    C46      C        0.95940    0.37240    0.97650    1.000
    C47      C        0.27230    0.39520    0.77330    1.000
    H40      H        0.25830    0.35050    0.77080    1.000
    C48      C        0.28530    0.49410    0.81190    1.000
    C49      C        0.28630    0.55490    0.84690    1.000
    H41      H        0.26520    0.55720    0.89090    1.000
    C50      C        0.31800    0.60970    0.81630    1.000
    H42      H        0.32050    0.64940    0.83990    1.000
    C51      C        0.34630    0.60720    0.75090    1.000
    H43      H        0.36680    0.64600    0.73100    1.000
    C52      C        0.34620    0.55130    0.71360    1.000
    H44      H        0.36500    0.55090    0.66900    1.000
    C53      C        0.31610    0.49450    0.74600    1.000
    C54      C        0.35620    0.28360    0.89260    1.000
    C55      C        0.42730    0.32090    0.87000    1.000
    H45      H        0.42680    0.36690    0.87050    1.000
    C56      C        0.50070    0.28420    0.84610    1.000
    H46      H        0.55040    0.30660    0.82990    1.000
    H47      H        0.10200    0.79320    0.20110    1.000
    H48      H        0.05670    0.73860    0.15660    1.000
    Zn5      Zn       0.67859    0.89760    0.37339    1.000
    Zn6      Zn       0.72451    0.10370    0.58124    1.000
    N17      N        0.72710    0.80670    0.38600    1.000
    N18      N        0.74160    0.96590    0.42550    1.000
    N19      N        0.76080    0.04720    0.50490    1.000
    N20      N        0.59190    0.10900    0.57110    1.000
    N21      N        0.44350    0.10510    0.58750    1.000
    N22      N        0.76070    0.06900    0.67040    1.000
    N23      N        0.80570    0.07080    0.77940    1.000
    N24      N        0.77650    0.19290    0.57920    1.000
    H49      H        0.61830    0.78180    0.28300    1.000
    C57      C        0.78910    0.78390    0.43170    1.000
    C58      C        0.84630    0.82040    0.47640    1.000
    H50      H        0.84550    0.86640    0.47810    1.000
    C59      C        0.90260    0.78340    0.51680    1.000
    H51      H        0.94200    0.80540    0.54520    1.000
    C60      C        0.70730    0.00020    0.47760    1.000
    H52      H        0.65020    0.99210    0.49390    1.000
    C61      C        0.82530    0.99210    0.42050    1.000
    C62      C        0.89140    0.97670    0.37190    1.000
    H53      H        0.88040    0.94640    0.33760    1.000
    C63      C        0.97140    0.00790    0.37730    1.000
    H54      H        0.01730    0.99620    0.34810    1.000
    C64      C        0.98640    0.05720    0.42550    1.000
    H55      H        0.04130    0.07840    0.42730    1.000
    C65      C        0.92020    0.07440    0.47050    1.000
    H56      H        0.92990    0.10760    0.50200    1.000
    C66      C        0.83820    0.04140    0.46810    1.000
    C67      C        0.53830    0.07480    0.68030    1.000
    H57      H        0.48410    0.07760    0.70580    1.000
    H58      H        0.58290    0.10220    0.70090    1.000
    H59      H        0.55860    0.02980    0.67950    1.000
    C68      C        0.52230    0.09720    0.61180    1.000
    C69      C        0.55110    0.12850    0.51190    1.000
    C70      C        0.58560    0.14670    0.45060    1.000
    H60      H        0.64680    0.14600    0.44350    1.000
    C71      C        0.52950    0.16590    0.40020    1.000
    H61      H        0.55270    0.18010    0.35920    1.000
    C72      C        0.43610    0.16430    0.41000    1.000
    H62      H        0.39810    0.17700    0.37530    1.000
    C73      C        0.40090    0.14350    0.47160    1.000
    H63      H        0.33960    0.14050    0.47780    1.000
    C74      C        0.45940    0.12760    0.52350    1.000
    C75      C        0.77230    0.10480    0.72670    1.000
    H64      H        0.75830    0.14950    0.72920    1.000
    C76      C        0.78530    0.00590    0.68810    1.000
    C77      C        0.78630    0.94510    0.65310    1.000
    H65      H        0.76520    0.94280    0.60910    1.000
    C78      C        0.81800    0.89030    0.68370    1.000
    H66      H        0.82050    0.85060    0.66010    1.000
    C79      C        0.84630    0.89280    0.74910    1.000
    H67      H        0.86680    0.85400    0.76900    1.000
    C80      C        0.84620    0.94870    0.78640    1.000
    H68      H        0.86500    0.94910    0.83100    1.000
    C81      C        0.81610    0.00550    0.75400    1.000
    C82      C        0.85620    0.21640    0.60740    1.000
    C83      C        0.92730    0.17910    0.63000    1.000
    H69      H        0.92680    0.13310    0.62950    1.000
    C84      C        0.00070    0.21580    0.65390    1.000
    H70      H        0.05040    0.19340    0.67010    1.000
    H71      H        0.60200    0.70680    0.29890    1.000
    H72      H        0.55670    0.76140    0.34340    1.000
    Zn7      Zn       0.82141    0.10240    0.87339    1.000
    Zn8      Zn       0.77549    0.89630    0.08124    1.000
    N25      N        0.77290    0.19330    0.88600    1.000
    N26      N        0.75840    0.03410    0.92550    1.000
    N27      N        0.73920    0.95280    0.00490    1.000
    N28      N        0.90810    0.89100    0.07110    1.000
    N29      N        0.05650    0.89490    0.08750    1.000
    N30      N        0.73930    0.93100    0.17040    1.000
    N31      N        0.69430    0.92920    0.27940    1.000
    N32      N        0.72350    0.80710    0.07920    1.000
    H73      H        0.88170    0.21820    0.78300    1.000
    C85      C        0.71090    0.21610    0.93170    1.000
    C86      C        0.65370    0.17960    0.97640    1.000
    H74      H        0.65450    0.13360    0.97810    1.000
    C87      C        0.59740    0.21660    0.01680    1.000
    H75      H        0.55800    0.19460    0.04520    1.000
    C88      C        0.79270    0.99980    0.97760    1.000
    H76      H        0.84980    0.00790    0.99390    1.000
    C89      C        0.67470    0.00790    0.92050    1.000
    C90      C        0.60860    0.02330    0.87190    1.000
    H77      H        0.61960    0.05360    0.83760    1.000
    C91      C        0.52860    0.99210    0.87730    1.000
    H78      H        0.48270    0.00380    0.84810    1.000
    C92      C        0.51360    0.94280    0.92550    1.000
    H79      H        0.45870    0.92160    0.92730    1.000
    C93      C        0.57980    0.92560    0.97050    1.000
    H80      H        0.57010    0.89240    0.00200    1.000
    C94      C        0.66180    0.95860    0.96810    1.000
    C95      C        0.96170    0.92520    0.18030    1.000
    H81      H        0.01590    0.92240    0.20580    1.000
    H82      H        0.91710    0.89780    0.20090    1.000
    H83      H        0.94140    0.97020    0.17950    1.000
    C96      C        0.97770    0.90280    0.11180    1.000
    C97      C        0.94890    0.87150    0.01190    1.000
    C98      C        0.91440    0.85330    0.95060    1.000
    H84      H        0.85320    0.85400    0.94350    1.000
    C99      C        0.97050    0.83410    0.90020    1.000
    H85      H        0.94730    0.81990    0.85920    1.000
    C100     C        0.06390    0.83570    0.91000    1.000
    H86      H        0.10190    0.82300    0.87530    1.000
    C101     C        0.09910    0.85650    0.97160    1.000
    H87      H        0.16040    0.85950    0.97780    1.000
    C102     C        0.04060    0.87240    0.02350    1.000
    C103     C        0.72770    0.89520    0.22670    1.000
    H88      H        0.74170    0.85050    0.22920    1.000
    C104     C        0.71470    0.99410    0.18810    1.000
    C105     C        0.71370    0.05490    0.15310    1.000
    H89      H        0.73480    0.05720    0.10910    1.000
    C106     C        0.68200    0.10970    0.18370    1.000
    H90      H        0.67950    0.14940    0.16010    1.000
    C107     C        0.65370    0.10720    0.24910    1.000
    H91      H        0.63320    0.14600    0.26900    1.000
    C108     C        0.65380    0.05130    0.28640    1.000
    H92      H        0.63500    0.05090    0.33100    1.000
    C109     C        0.68390    0.99450    0.25400    1.000
    C110     C        0.64380    0.78360    0.10740    1.000
    C111     C        0.57270    0.82090    0.13000    1.000
    H93      H        0.57320    0.86690    0.12950    1.000
    C112     C        0.49930    0.78420    0.15390    1.000
    H94      H        0.44960    0.80660    0.17010    1.000
    H95      H        0.89800    0.29320    0.79890    1.000
    H96      H        0.94330    0.23860    0.84340    1.000
    Zn9      Zn       0.67859    0.60240    0.37339    1.000
    Zn10     Zn       0.72451    0.39630    0.58124    1.000
    N33      N        0.72710    0.69330    0.38600    1.000
    N34      N        0.74160    0.53410    0.42550    1.000
    N35      N        0.76080    0.45280    0.50490    1.000
    N36      N        0.59190    0.39100    0.57110    1.000
    N37      N        0.44350    0.39490    0.58750    1.000
    N38      N        0.76070    0.43100    0.67040    1.000
    N39      N        0.80570    0.42920    0.77940    1.000
    N40      N        0.77650    0.30710    0.57920    1.000
    H97      H        0.61830    0.71820    0.28300    1.000
    C113     C        0.78910    0.71610    0.43170    1.000
    C114     C        0.84630    0.67960    0.47640    1.000
    H98      H        0.84550    0.63360    0.47810    1.000
    C115     C        0.90260    0.71660    0.51680    1.000
    H99      H        0.94200    0.69460    0.54520    1.000
    C116     C        0.70730    0.49980    0.47760    1.000
    H100     H        0.65020    0.50790    0.49390    1.000
    C117     C        0.82530    0.50790    0.42050    1.000
    C118     C        0.89140    0.52330    0.37190    1.000
    H101     H        0.88040    0.55360    0.33760    1.000
    C119     C        0.97140    0.49210    0.37730    1.000
    H102     H        0.01730    0.50380    0.34810    1.000
    C120     C        0.98640    0.44280    0.42550    1.000
    H103     H        0.04130    0.42160    0.42730    1.000
    C121     C        0.92020    0.42560    0.47050    1.000
    H104     H        0.92990    0.39240    0.50200    1.000
    C122     C        0.83820    0.45860    0.46810    1.000
    C123     C        0.53830    0.42520    0.68030    1.000
    H105     H        0.48410    0.42240    0.70580    1.000
    H106     H        0.58290    0.39780    0.70090    1.000
    H107     H        0.55860    0.47020    0.67950    1.000
    C124     C        0.52230    0.40280    0.61180    1.000
    C125     C        0.55110    0.37150    0.51190    1.000
    C126     C        0.58560    0.35330    0.45060    1.000
    H108     H        0.64680    0.35400    0.44350    1.000
    C127     C        0.52950    0.33410    0.40020    1.000
    H109     H        0.55270    0.31990    0.35920    1.000
    C128     C        0.43610    0.33570    0.41000    1.000
    H110     H        0.39810    0.32300    0.37530    1.000
    C129     C        0.40090    0.35650    0.47160    1.000
    H111     H        0.33960    0.35950    0.47780    1.000
    C130     C        0.45940    0.37240    0.52350    1.000
    C131     C        0.77230    0.39520    0.72670    1.000
    H112     H        0.75830    0.35050    0.72920    1.000
    C132     C        0.78530    0.49410    0.68810    1.000
    C133     C        0.78630    0.55490    0.65310    1.000
    H113     H        0.76520    0.55720    0.60910    1.000
    C134     C        0.81800    0.60970    0.68370    1.000
    H114     H        0.82050    0.64940    0.66010    1.000
    C135     C        0.84630    0.60720    0.74910    1.000
    H115     H        0.86680    0.64600    0.76900    1.000
    C136     C        0.84620    0.55130    0.78640    1.000
    H116     H        0.86500    0.55090    0.83100    1.000
    C137     C        0.81610    0.49450    0.75400    1.000
    C138     C        0.85620    0.28360    0.60740    1.000
    C139     C        0.92730    0.32090    0.63000    1.000
    H117     H        0.92680    0.36690    0.62950    1.000
    C140     C        0.00070    0.28420    0.65390    1.000
    H118     H        0.05040    0.30660    0.67010    1.000
    H119     H        0.60200    0.79320    0.29890    1.000
    H120     H        0.55670    0.73860    0.34340    1.000
    Zn11     Zn       0.82141    0.39760    0.87339    1.000
    Zn12     Zn       0.77549    0.60370    0.08124    1.000
    N41      N        0.77290    0.30670    0.88600    1.000
    N42      N        0.75840    0.46590    0.92550    1.000
    N43      N        0.73920    0.54720    0.00490    1.000
    N44      N        0.90810    0.60900    0.07110    1.000
    N45      N        0.05650    0.60510    0.08750    1.000
    N46      N        0.73930    0.56900    0.17040    1.000
    N47      N        0.69430    0.57080    0.27940    1.000
    N48      N        0.72350    0.69290    0.07920    1.000
    H121     H        0.88170    0.28180    0.78300    1.000
    C141     C        0.71090    0.28390    0.93170    1.000
    C142     C        0.65370    0.32040    0.97640    1.000
    H122     H        0.65450    0.36640    0.97810    1.000
    C143     C        0.59740    0.28340    0.01680    1.000
    H123     H        0.55800    0.30540    0.04520    1.000
    C144     C        0.79270    0.50020    0.97760    1.000
    H124     H        0.84980    0.49210    0.99390    1.000
    C145     C        0.67470    0.49210    0.92050    1.000
    C146     C        0.60860    0.47670    0.87190    1.000
    H125     H        0.61960    0.44640    0.83760    1.000
    C147     C        0.52860    0.50790    0.87730    1.000
    H126     H        0.48270    0.49620    0.84810    1.000
    C148     C        0.51360    0.55720    0.92550    1.000
    H127     H        0.45870    0.57840    0.92730    1.000
    C149     C        0.57980    0.57440    0.97050    1.000
    H128     H        0.57010    0.60760    0.00200    1.000
    C150     C        0.66180    0.54140    0.96810    1.000
    C151     C        0.96170    0.57480    0.18030    1.000
    H129     H        0.01590    0.57760    0.20580    1.000
    H130     H        0.91710    0.60220    0.20090    1.000
    H131     H        0.94140    0.52980    0.17950    1.000
    C152     C        0.97770    0.59720    0.11180    1.000
    C153     C        0.94890    0.62850    0.01190    1.000
    C154     C        0.91440    0.64670    0.95060    1.000
    H132     H        0.85320    0.64600    0.94350    1.000
    C155     C        0.97050    0.66590    0.90020    1.000
    H133     H        0.94730    0.68010    0.85920    1.000
    C156     C        0.06390    0.66430    0.91000    1.000
    H134     H        0.10190    0.67700    0.87530    1.000
    C157     C        0.09910    0.64350    0.97160    1.000
    H135     H        0.16040    0.64050    0.97780    1.000
    C158     C        0.04060    0.62760    0.02350    1.000
    C159     C        0.72770    0.60480    0.22670    1.000
    H136     H        0.74170    0.64950    0.22920    1.000
    C160     C        0.71470    0.50590    0.18810    1.000
    C161     C        0.71370    0.44510    0.15310    1.000
    H137     H        0.73480    0.44280    0.10910    1.000
    C162     C        0.68200    0.39030    0.18370    1.000
    H138     H        0.67950    0.35060    0.16010    1.000
    C163     C        0.65370    0.39280    0.24910    1.000
    H139     H        0.63320    0.35400    0.26900    1.000
    C164     C        0.65380    0.44870    0.28640    1.000
    H140     H        0.63500    0.44910    0.33100    1.000
    C165     C        0.68390    0.50550    0.25400    1.000
    C166     C        0.64380    0.71640    0.10740    1.000
    C167     C        0.57270    0.67910    0.13000    1.000
    H141     H        0.57320    0.63310    0.12950    1.000
    C168     C        0.49930    0.71580    0.15390    1.000
    H142     H        0.44960    0.69340    0.17010    1.000
    H143     H        0.89800    0.20680    0.79890    1.000
    H144     H        0.94330    0.26140    0.84340    1.000
    Zn13     Zn       0.32141    0.10240    0.62661    1.000
    Zn14     Zn       0.27549    0.89630    0.41876    1.000
    N49      N        0.27290    0.19330    0.61400    1.000
    N50      N        0.25840    0.03410    0.57450    1.000
    N51      N        0.23920    0.95280    0.49510    1.000
    N52      N        0.40810    0.89100    0.42890    1.000
    N53      N        0.55650    0.89490    0.41250    1.000
    N54      N        0.23930    0.93100    0.32960    1.000
    N55      N        0.19430    0.92920    0.22060    1.000
    N56      N        0.22350    0.80710    0.42080    1.000
    H145     H        0.38170    0.21820    0.71700    1.000
    C169     C        0.21090    0.21610    0.56830    1.000
    C170     C        0.15370    0.17960    0.52360    1.000
    H146     H        0.15450    0.13360    0.52190    1.000
    C171     C        0.09740    0.21660    0.48320    1.000
    H147     H        0.05800    0.19460    0.45480    1.000
    C172     C        0.29270    0.99980    0.52240    1.000
    H148     H        0.34980    0.00790    0.50610    1.000
    C173     C        0.17470    0.00790    0.57950    1.000
    C174     C        0.10860    0.02330    0.62810    1.000
    H149     H        0.11960    0.05360    0.66240    1.000
    C175     C        0.02860    0.99210    0.62270    1.000
    H150     H        0.98270    0.00380    0.65190    1.000
    C176     C        0.01360    0.94280    0.57450    1.000
    H151     H        0.95870    0.92160    0.57270    1.000
    C177     C        0.07980    0.92560    0.52950    1.000
    H152     H        0.07010    0.89240    0.49800    1.000
    C178     C        0.16180    0.95860    0.53190    1.000
    C179     C        0.46170    0.92520    0.31970    1.000
    H153     H        0.51590    0.92240    0.29420    1.000
    H154     H        0.41710    0.89780    0.29910    1.000
    H155     H        0.44140    0.97020    0.32050    1.000
    C180     C        0.47770    0.90280    0.38820    1.000
    C181     C        0.44890    0.87150    0.48810    1.000
    C182     C        0.41440    0.85330    0.54940    1.000
    H156     H        0.35320    0.85400    0.55650    1.000
    C183     C        0.47050    0.83410    0.59980    1.000
    H157     H        0.44730    0.81990    0.64080    1.000
    C184     C        0.56390    0.83570    0.59000    1.000
    H158     H        0.60190    0.82300    0.62470    1.000
    C185     C        0.59910    0.85650    0.52840    1.000
    H159     H        0.66040    0.85950    0.52220    1.000
    C186     C        0.54060    0.87240    0.47650    1.000
    C187     C        0.22770    0.89520    0.27330    1.000
    H160     H        0.24170    0.85050    0.27080    1.000
    C188     C        0.21470    0.99410    0.31190    1.000
    C189     C        0.21370    0.05490    0.34690    1.000
    H161     H        0.23480    0.05720    0.39090    1.000
    C190     C        0.18200    0.10970    0.31630    1.000
    H162     H        0.17950    0.14940    0.33990    1.000
    C191     C        0.15370    0.10720    0.25090    1.000
    H163     H        0.13320    0.14600    0.23100    1.000
    C192     C        0.15380    0.05130    0.21360    1.000
    H164     H        0.13500    0.05090    0.16900    1.000
    C193     C        0.18390    0.99450    0.24600    1.000
    C194     C        0.14380    0.78360    0.39260    1.000
    C195     C        0.07270    0.82090    0.37000    1.000
    H165     H        0.07320    0.86690    0.37050    1.000
    C196     C        0.99930    0.78420    0.34610    1.000
    H166     H        0.94960    0.80660    0.32990    1.000
    H167     H        0.39800    0.29320    0.70110    1.000
    H168     H        0.44330    0.23860    0.65660    1.000
    Zn15     Zn       0.17859    0.89760    0.12661    1.000
    Zn16     Zn       0.22451    0.10370    0.91876    1.000
    N57      N        0.22710    0.80670    0.11400    1.000
    N58      N        0.24160    0.96590    0.07450    1.000
    N59      N        0.26080    0.04720    0.99510    1.000
    N60      N        0.09190    0.10900    0.92890    1.000
    N61      N        0.94350    0.10510    0.91250    1.000
    N62      N        0.26070    0.06900    0.82960    1.000
    N63      N        0.30570    0.07080    0.72060    1.000
    N64      N        0.27650    0.19290    0.92080    1.000
    H169     H        0.11830    0.78180    0.21700    1.000
    C197     C        0.28910    0.78390    0.06830    1.000
    C198     C        0.34630    0.82040    0.02360    1.000
    H170     H        0.34550    0.86640    0.02190    1.000
    C199     C        0.40260    0.78340    0.98320    1.000
    H171     H        0.44200    0.80540    0.95480    1.000
    C200     C        0.20730    0.00020    0.02240    1.000
    H172     H        0.15020    0.99210    0.00610    1.000
    C201     C        0.32530    0.99210    0.07950    1.000
    C202     C        0.39140    0.97670    0.12810    1.000
    H173     H        0.38040    0.94640    0.16240    1.000
    C203     C        0.47140    0.00790    0.12270    1.000
    H174     H        0.51730    0.99620    0.15190    1.000
    C204     C        0.48640    0.05720    0.07450    1.000
    H175     H        0.54130    0.07840    0.07270    1.000
    C205     C        0.42020    0.07440    0.02950    1.000
    H176     H        0.42990    0.10760    0.99800    1.000
    C206     C        0.33820    0.04140    0.03190    1.000
    C207     C        0.03830    0.07480    0.81970    1.000
    H177     H        0.98410    0.07760    0.79420    1.000
    H178     H        0.08290    0.10220    0.79910    1.000
    H179     H        0.05860    0.02980    0.82050    1.000
    C208     C        0.02230    0.09720    0.88820    1.000
    C209     C        0.05110    0.12850    0.98810    1.000
    C210     C        0.08560    0.14670    0.04940    1.000
    H180     H        0.14680    0.14600    0.05650    1.000
    C211     C        0.02950    0.16590    0.09980    1.000
    H181     H        0.05270    0.18010    0.14080    1.000
    C212     C        0.93610    0.16430    0.09000    1.000
    H182     H        0.89810    0.17700    0.12470    1.000
    C213     C        0.90090    0.14350    0.02840    1.000
    H183     H        0.83960    0.14050    0.02220    1.000
    C214     C        0.95940    0.12760    0.97650    1.000
    C215     C        0.27230    0.10480    0.77330    1.000
    H184     H        0.25830    0.14950    0.77080    1.000
    C216     C        0.28530    0.00590    0.81190    1.000
    C217     C        0.28630    0.94510    0.84690    1.000
    H185     H        0.26520    0.94280    0.89090    1.000
    C218     C        0.31800    0.89030    0.81630    1.000
    H186     H        0.32050    0.85060    0.83990    1.000
    C219     C        0.34630    0.89280    0.75090    1.000
    H187     H        0.36680    0.85400    0.73100    1.000
    C220     C        0.34620    0.94870    0.71360    1.000
    H188     H        0.36500    0.94910    0.66900    1.000
    C221     C        0.31610    0.00550    0.74600    1.000
    C222     C        0.35620    0.21640    0.89260    1.000
    C223     C        0.42730    0.17910    0.87000    1.000
    H189     H        0.42680    0.13310    0.87050    1.000
    C224     C        0.50070    0.21580    0.84610    1.000
    H190     H        0.55040    0.19340    0.82990    1.000
    H191     H        0.10200    0.70680    0.20110    1.000
    H192     H        0.05670    0.76140    0.15660    1.000
    C225     C        0.39080    0.25000    0.68170    1.000
    C226     C        0.31090    0.25000    0.63500    1.000
    C227     C        0.10920    0.75000    0.18170    1.000
    C228     C        0.18910    0.75000    0.13500    1.000
    C229     C        0.60920    0.75000    0.31830    1.000
    C230     C        0.68910    0.75000    0.36500    1.000
    C231     C        0.89080    0.25000    0.81830    1.000
    C232     C        0.81090    0.25000    0.86500    1.000
    C233     C        0.26700    0.75000    0.43290    1.000
    C234     C        0.23300    0.25000    0.93290    1.000
    C235     C        0.73300    0.25000    0.56710    1.000
    C236     C        0.76700    0.75000    0.06710    1.000
