data_functionalizedCrystal
_audit_creation_method	'EQeq! by Chris Wilmer'
_symmetry_space_group_name_H-M	'P1'
_symmetry_Int_Tables_number	1
_symmetry_cell_setting	triclinic
loop_
_symmetry_equiv_pos_as_xyz
  x,y,z
_cell_length_a	26.9152
_cell_length_b	26.9152
_cell_length_c	26.9152
_cell_angle_alpha	109.471
_cell_angle_beta	109.471
_cell_angle_gamma	109.471
loop_
_atom_site_label
_atom_site_type_symbol
_atom_site_fract_x
_atom_site_fract_y
_atom_site_fract_z
_atom_site_charge
Mof_Rb	Rb	0.68662	-3.02967e-17	0.31338	4.388
Mof_Rb	Rb	0.68662	0.37324	0.68662	4.882
Mof_Rb	Rb	0.31338	0	0.68662	4.388
Mof_Rb	Rb	0.31338	0.62676	0.31338	4.89
Mof_Rb	Rb	0.68662	0.31338	-0	4.388
Mof_Rb	Rb	0.31338	0.31338	0.62676	4.89
Mof_Rb	Rb	0.31338	0.68662	-0	4.388
Mof_Rb	Rb	0.68662	0.68662	0.37324	4.882
Mof_Rb	Rb	0.37324	0.68662	0.68662	4.882
Mof_Rb	Rb	4.54451e-17	0.31338	0.68662	4.388
Mof_Rb	Rb	0.62676	0.31338	0.31338	4.89
Mof_Rb	Rb	-0	0.68662	0.31338	4.388
Mof_H 	H 	0.464	0.9101	0.1261	0.018
Mof_H 	H 	0.5303	0.9155	0.232	0.2
Mof_H 	H 	0.5608	0.9958	0.1902	-0.025
Mof_H 	H 	0.6286	0.0478	0.3288	-0.318
Mof_H 	H 	0.531	0.0133	0.2843	0.033
Mof_H 	H 	0.5492	0.0894	0.2298	-0.013
Mof_H 	H 	0.4351	0.0122	0.2171	0.039
Mof_H 	H 	0.4838	0.1379	0.1705	0.045
Mof_H 	H 	0.3912	0.0354	0.1406	0.002
Mof_H 	H 	0.4338	0.0952	0.2066	0.014
Mof_H 	H 	0.5982	0.1745	0.2969	-0.11
Mof_H 	H 	0.628	0.1326	0.362	0.154
Mof_H 	H 	0.6487	0.2466	0.3951	-0.088
Mof_H 	H 	0.6215	0.2756	0.5091	0.007
Mof_H 	H 	0.5593	0.1757	0.4132	0.027
Mof_H 	H 	0.5848	0.2911	0.4185	-0.036
Mof_H 	H 	0.48	0.1741	0.3275	0.034
Mof_H 	H 	0.5005	0.3251	0.3248	0.189
Mof_H 	H 	0.453	0.2222	0.2728	-0.048
Mof_H 	H 	0.4519	0.2478	0.3353	-0.002
Mof_H 	H 	0.784	0.3379	0.8739	0.017
Mof_H 	H 	0.6835	0.2983	0.768	0.198
Mof_H 	H 	0.8056	0.3706	0.8098	-0.028
Mof_H 	H 	0.719	0.2998	0.6712	-0.346
Mof_H 	H 	0.729	0.2467	0.7157	0.025
Mof_H 	H 	0.8596	0.3194	0.7702	0.019
Mof_H 	H 	0.7951	0.218	0.7829	0.033
Mof_H 	H 	0.9674	0.3133	0.8295	0.022
Mof_H 	H 	0.8948	0.2506	0.8594	0.074
Mof_H 	H 	0.8886	0.2272	0.7934	0.049
Mof_H 	H 	0.8776	0.3013	0.7031	-0.088
Mof_H 	H 	0.7706	0.266	0.638	0.154
Mof_H 	H 	0.8515	0.2536	0.6049	-0.068
Mof_H 	H 	0.7665	0.1124	0.4909	0.018
Mof_H 	H 	0.7625	0.1461	0.5868	0.025
Mof_H 	H 	0.8726	0.1663	0.5815	-0.023
Mof_H 	H 	0.8466	0.1525	0.6725	0.029
Mof_H 	H 	0.0003	0.1757	0.6752	0.091
Mof_H 	H 	0.9494	0.1802	0.7272	0.004
Mof_H 	H 	0.9125	0.1166	0.6647	0.028
Mof_H 	H 	0.216	0.0899	0.5539	-0.006
Mof_H 	H 	0.3165	0.0845	0.6148	0.18
Mof_H 	H 	0.1944	0.0042	0.565	-0.024
Mof_H 	H 	0.281	0.9522	0.5808	-0.268
Mof_H 	H 	0.271	0.9867	0.5177	0.027
Mof_H 	H 	0.1404	0.9106	0.4598	0.035
Mof_H 	H 	0.2049	0.9878	0.4229	0.036
Mof_H 	H 	0.0326	0.8621	0.3459	0.061
Mof_H 	H 	0.1052	0.9646	0.3558	0.073
Mof_H 	H 	0.1114	0.9048	0.3386	0.045
Mof_H 	H 	0.1224	0.8255	0.4237	-0.098
Mof_H 	H 	0.2294	0.8674	0.4954	0.161
Mof_H 	H 	0.1485	0.7534	0.4021	-0.076
Mof_H 	H 	0.2335	0.7244	0.3459	0.008
Mof_H 	H 	0.2375	0.8243	0.3836	0.042
Mof_H 	H 	0.1274	0.7089	0.2937	-0.03
Mof_H 	H 	0.1534	0.8259	0.3059	0.048
Mof_H 	H 	0.9997	0.6749	0.1754	0.268
Mof_H 	H 	0.0506	0.7778	0.2308	-0.07
Mof_H 	H 	0.0875	0.7522	0.2041	-0.021
Mof_H 	H 	0.536	0.6621	0.4461	0.01
Mof_H 	H 	0.4697	0.7017	0.3852	0.201
Mof_H 	H 	0.4392	0.6294	0.435	-0.033
Mof_H 	H 	0.3714	0.7002	0.4192	-0.343
Mof_H 	H 	0.469	0.7533	0.4823	0.035
Mof_H 	H 	0.4508	0.6806	0.5402	0.01
Mof_H 	H 	0.5649	0.782	0.5771	0.045
Mof_H 	H 	0.5162	0.6867	0.6541	0.039
Mof_H 	H 	0.6088	0.7494	0.6442	0.064
Mof_H 	H 	0.5662	0.7728	0.6614	0.048
Mof_H 	H 	0.4018	0.6987	0.5763	-0.107
Mof_H 	H 	0.372	0.734	0.5046	0.157
Mof_H 	H 	0.3513	0.7464	0.5979	-0.089
Mof_H 	H 	0.3785	0.8876	0.6541	0.018
Mof_H 	H 	0.4407	0.8539	0.6164	0.044
Mof_H 	H 	0.4152	0.8337	0.7063	-0.034
Mof_H 	H 	0.52	0.8475	0.6941	0.048
Mof_H 	H 	0.4995	0.8243	0.8246	0.197
Mof_H 	H 	0.547	0.8198	0.7692	-0.027
Mof_H 	H 	0.5481	0.8834	0.7959	0.025
Mof_H 	H 	0.5539	0.216	0.0899	-0.006
Mof_H 	H 	0.6148	0.3165	0.0845	0.18
Mof_H 	H 	0.565	0.1944	0.0042	-0.024
Mof_H 	H 	0.5808	0.281	0.9522	-0.268
Mof_H 	H 	0.5177	0.271	0.9867	0.027
Mof_H 	H 	0.4598	0.1404	0.9106	0.035
Mof_H 	H 	0.4229	0.2049	0.9878	0.036
Mof_H 	H 	0.3459	0.0326	0.8621	0.061
Mof_H 	H 	0.3558	0.1052	0.9646	0.073
Mof_H 	H 	0.3386	0.1114	0.9048	0.045
Mof_H 	H 	0.4237	0.1224	0.8255	-0.098
Mof_H 	H 	0.4954	0.2294	0.8674	0.161
Mof_H 	H 	0.4021	0.1485	0.7534	-0.076
Mof_H 	H 	0.3459	0.2335	0.7244	0.008
Mof_H 	H 	0.3836	0.2375	0.8243	0.042
Mof_H 	H 	0.2937	0.1274	0.7089	-0.03
Mof_H 	H 	0.3059	0.1534	0.8259	0.048
Mof_H 	H 	0.1754	0.9997	0.6749	0.268
Mof_H 	H 	0.2308	0.0506	0.7778	-0.07
Mof_H 	H 	0.2041	0.0875	0.7522	-0.021
Mof_H 	H 	0.4461	0.536	0.6621	0.01
Mof_H 	H 	0.3852	0.4697	0.7017	0.201
Mof_H 	H 	0.435	0.4392	0.6294	-0.033
Mof_H 	H 	0.4192	0.3714	0.7002	-0.343
Mof_H 	H 	0.4823	0.469	0.7533	0.035
Mof_H 	H 	0.5402	0.4508	0.6806	0.01
Mof_H 	H 	0.5771	0.5649	0.782	0.045
Mof_H 	H 	0.6541	0.5162	0.6867	0.039
Mof_H 	H 	0.6442	0.6088	0.7494	0.064
Mof_H 	H 	0.6614	0.5662	0.7728	0.048
Mof_H 	H 	0.5763	0.4018	0.6987	-0.107
Mof_H 	H 	0.5046	0.372	0.734	0.157
Mof_H 	H 	0.5979	0.3513	0.7464	-0.089
Mof_H 	H 	0.6541	0.3785	0.8876	0.018
Mof_H 	H 	0.6164	0.4407	0.8539	0.044
Mof_H 	H 	0.7063	0.4152	0.8337	-0.034
Mof_H 	H 	0.6941	0.52	0.8475	0.048
Mof_H 	H 	0.8246	0.4995	0.8243	0.197
Mof_H 	H 	0.7692	0.547	0.8198	-0.027
Mof_H 	H 	0.7959	0.5481	0.8834	0.025
Mof_H 	H 	0.1261	0.464	0.9101	0.019
Mof_H 	H 	0.232	0.5303	0.9155	0.201
Mof_H 	H 	0.1902	0.5608	0.9958	-0.024
Mof_H 	H 	0.3288	0.6286	0.0478	-0.317
Mof_H 	H 	0.2843	0.531	0.0133	0.034
Mof_H 	H 	0.2298	0.5492	0.0894	-0.012
Mof_H 	H 	0.2171	0.4351	0.0122	0.04
Mof_H 	H 	0.1705	0.4838	0.1379	0.046
Mof_H 	H 	0.1406	0.3912	0.0354	0.003
Mof_H 	H 	0.2066	0.4338	0.0952	0.015
Mof_H 	H 	0.2969	0.5982	0.1745	-0.109
Mof_H 	H 	0.362	0.628	0.1326	0.155
Mof_H 	H 	0.3951	0.6487	0.2466	-0.087
Mof_H 	H 	0.5091	0.6215	0.2756	0.008
Mof_H 	H 	0.4132	0.5593	0.1757	0.028
Mof_H 	H 	0.4185	0.5848	0.2911	-0.035
Mof_H 	H 	0.3275	0.48	0.1741	0.035
Mof_H 	H 	0.3248	0.5005	0.3251	0.19
Mof_H 	H 	0.2728	0.453	0.2222	-0.047
Mof_H 	H 	0.3353	0.4519	0.2478	-0.001
Mof_H 	H 	0.8739	0.784	0.3379	0.018
Mof_H 	H 	0.768	0.6835	0.2983	0.199
Mof_H 	H 	0.8098	0.8056	0.3706	-0.027
Mof_H 	H 	0.6712	0.719	0.2998	-0.345
Mof_H 	H 	0.7157	0.729	0.2467	0.026
Mof_H 	H 	0.7702	0.8596	0.3194	0.02
Mof_H 	H 	0.7829	0.7951	0.218	0.034
Mof_H 	H 	0.8295	0.9674	0.3133	0.023
Mof_H 	H 	0.8594	0.8948	0.2506	0.075
Mof_H 	H 	0.7934	0.8886	0.2272	0.05
Mof_H 	H 	0.7031	0.8776	0.3013	-0.087
Mof_H 	H 	0.638	0.7706	0.266	0.155
Mof_H 	H 	0.6049	0.8515	0.2536	-0.067
Mof_H 	H 	0.4909	0.7665	0.1124	0.019
Mof_H 	H 	0.5868	0.7625	0.1461	0.026
Mof_H 	H 	0.5815	0.8726	0.1663	-0.022
Mof_H 	H 	0.6725	0.8466	0.1525	0.03
Mof_H 	H 	0.6752	0.0003	0.1757	0.092
Mof_H 	H 	0.7272	0.9494	0.1802	0.005
Mof_H 	H 	0.6647	0.9125	0.1166	0.028
Mof_H 	H 	0.3379	0.8739	0.784	0.018
Mof_H 	H 	0.2983	0.768	0.6835	0.199
Mof_H 	H 	0.3706	0.8098	0.8056	-0.027
Mof_H 	H 	0.2998	0.6712	0.719	-0.345
Mof_H 	H 	0.2467	0.7157	0.729	0.026
Mof_H 	H 	0.3194	0.7702	0.8596	0.02
Mof_H 	H 	0.218	0.7829	0.7951	0.034
Mof_H 	H 	0.3133	0.8295	0.9674	0.023
Mof_H 	H 	0.2506	0.8594	0.8948	0.075
Mof_H 	H 	0.2272	0.7934	0.8886	0.05
Mof_H 	H 	0.3013	0.7031	0.8776	-0.087
Mof_H 	H 	0.266	0.638	0.7706	0.155
Mof_H 	H 	0.2536	0.6049	0.8515	-0.067
Mof_H 	H 	0.1124	0.4909	0.7665	0.019
Mof_H 	H 	0.1461	0.5868	0.7625	0.026
Mof_H 	H 	0.1663	0.5815	0.8726	-0.022
Mof_H 	H 	0.1525	0.6725	0.8466	0.03
Mof_H 	H 	0.1757	0.6752	0.0003	0.092
Mof_H 	H 	0.1802	0.7272	0.9494	0.005
Mof_H 	H 	0.1166	0.6647	0.9125	0.028
Mof_H 	H 	0.9101	0.1261	0.464	0.019
Mof_H 	H 	0.9155	0.232	0.5303	0.201
Mof_H 	H 	0.9958	0.1902	0.5608	-0.024
Mof_H 	H 	0.0478	0.3288	0.6286	-0.317
Mof_H 	H 	0.0133	0.2843	0.531	0.034
Mof_H 	H 	0.0894	0.2298	0.5492	-0.012
Mof_H 	H 	0.0122	0.2171	0.4351	0.04
Mof_H 	H 	0.1379	0.1705	0.4838	0.046
Mof_H 	H 	0.0354	0.1406	0.3912	0.003
Mof_H 	H 	0.0952	0.2066	0.4338	0.015
Mof_H 	H 	0.1745	0.2969	0.5982	-0.109
Mof_H 	H 	0.1326	0.362	0.628	0.155
Mof_H 	H 	0.2466	0.3951	0.6487	-0.087
Mof_H 	H 	0.2756	0.5091	0.6215	0.008
Mof_H 	H 	0.1757	0.4132	0.5593	0.028
Mof_H 	H 	0.2911	0.4185	0.5848	-0.035
Mof_H 	H 	0.1741	0.3275	0.48	0.035
Mof_H 	H 	0.3251	0.3248	0.5005	0.19
Mof_H 	H 	0.2222	0.2728	0.453	-0.047
Mof_H 	H 	0.2478	0.3353	0.4519	-0.001
Mof_H 	H 	0.6621	0.4461	0.536	0.01
Mof_H 	H 	0.7017	0.3852	0.4697	0.201
Mof_H 	H 	0.6294	0.435	0.4392	-0.033
Mof_H 	H 	0.7002	0.4192	0.3714	-0.343
Mof_H 	H 	0.7533	0.4823	0.469	0.035
Mof_H 	H 	0.6806	0.5402	0.4508	0.01
Mof_H 	H 	0.782	0.5771	0.5649	0.045
Mof_H 	H 	0.6867	0.6541	0.5162	0.039
Mof_H 	H 	0.7494	0.6442	0.6088	0.064
Mof_H 	H 	0.7728	0.6614	0.5662	0.048
Mof_H 	H 	0.6987	0.5763	0.4018	-0.107
Mof_H 	H 	0.734	0.5046	0.372	0.157
Mof_H 	H 	0.7464	0.5979	0.3513	-0.089
Mof_H 	H 	0.8876	0.6541	0.3785	0.018
Mof_H 	H 	0.8539	0.6164	0.4407	0.044
Mof_H 	H 	0.8337	0.7063	0.4152	-0.034
Mof_H 	H 	0.8475	0.6941	0.52	0.048
Mof_H 	H 	0.8243	0.8246	0.4995	0.197
Mof_H 	H 	0.8198	0.7692	0.547	-0.027
Mof_H 	H 	0.8834	0.7959	0.5481	0.025
Mof_H 	H 	0.0899	0.5539	0.216	-0.006
Mof_H 	H 	0.0845	0.6148	0.3165	0.18
Mof_H 	H 	0.0042	0.565	0.1944	-0.024
Mof_H 	H 	0.9522	0.5808	0.281	-0.268
Mof_H 	H 	0.9867	0.5177	0.271	0.027
Mof_H 	H 	0.9106	0.4598	0.1404	0.035
Mof_H 	H 	0.9878	0.4229	0.2049	0.036
Mof_H 	H 	0.8621	0.3459	0.0326	0.061
Mof_H 	H 	0.9646	0.3558	0.1052	0.073
Mof_H 	H 	0.9048	0.3386	0.1114	0.045
Mof_H 	H 	0.8255	0.4237	0.1224	-0.098
Mof_H 	H 	0.8674	0.4954	0.2294	0.161
Mof_H 	H 	0.7534	0.4021	0.1485	-0.076
Mof_H 	H 	0.7244	0.3459	0.2335	0.008
Mof_H 	H 	0.8243	0.3836	0.2375	0.042
Mof_H 	H 	0.7089	0.2937	0.1274	-0.03
Mof_H 	H 	0.8259	0.3059	0.1534	0.048
Mof_H 	H 	0.6749	0.1754	0.9997	0.268
Mof_H 	H 	0.7778	0.2308	0.0506	-0.07
Mof_H 	H 	0.7522	0.2041	0.0875	-0.021
Mof_H 	H 	0.0899	0.536	0.8739	0.003
Mof_H 	H 	0.0845	0.4697	0.768	0.18
Mof_H 	H 	0.0042	0.4392	0.8098	-0.019
Mof_H 	H 	0.9522	0.3714	0.6712	-0.268
Mof_H 	H 	0.9867	0.469	0.7157	0.027
Mof_H 	H 	0.9106	0.4508	0.7702	0.039
Mof_H 	H 	0.9878	0.5649	0.7829	0.037
Mof_H 	H 	0.8621	0.5162	0.8295	0.032
Mof_H 	H 	0.9646	0.6088	0.8594	0.104
Mof_H 	H 	0.9048	0.5662	0.7934	0.063
Mof_H 	H 	0.8255	0.4018	0.7031	-0.104
Mof_H 	H 	0.8674	0.372	0.638	0.161
Mof_H 	H 	0.7534	0.3513	0.6049	-0.09
Mof_H 	H 	0.7244	0.3785	0.4909	0.008
Mof_H 	H 	0.8243	0.4407	0.5868	0.042
Mof_H 	H 	0.7089	0.4152	0.5815	-0.037
Mof_H 	H 	0.8259	0.52	0.6725	0.046
Mof_H 	H 	0.6749	0.4995	0.6752	0.191
Mof_H 	H 	0.7778	0.547	0.7272	-0.031
Mof_H 	H 	0.7522	0.5481	0.6647	0.012
Mof_H 	H 	0.6621	0.216	0.1261	0.005
Mof_H 	H 	0.7017	0.3165	0.232	0.202
Mof_H 	H 	0.6294	0.1944	0.1902	-0.038
Mof_H 	H 	0.7002	0.281	0.3288	-0.343
Mof_H 	H 	0.7533	0.271	0.2843	0.035
Mof_H 	H 	0.6806	0.1404	0.2298	0.006
Mof_H 	H 	0.782	0.2049	0.2171	0.043
Mof_H 	H 	0.6867	0.0326	0.1705	0.069
Mof_H 	H 	0.7494	0.1052	0.1406	0.032
Mof_H 	H 	0.7728	0.1114	0.2066	0.029
Mof_H 	H 	0.6987	0.1224	0.2969	-0.101
Mof_H 	H 	0.734	0.2294	0.362	0.157
Mof_H 	H 	0.7464	0.1485	0.3951	-0.076
Mof_H 	H 	0.8876	0.2335	0.5091	0.018
Mof_H 	H 	0.8539	0.2375	0.4132	0.044
Mof_H 	H 	0.8337	0.1274	0.4185	-0.027
Mof_H 	H 	0.8475	0.1534	0.3275	0.049
Mof_H 	H 	0.8243	0.9997	0.3248	0.274
Mof_H 	H 	0.8198	0.0506	0.2728	-0.065
Mof_H 	H 	0.8834	0.0875	0.3353	-0.007
Mof_H 	H 	0.9101	0.784	0.4461	0.024
Mof_H 	H 	0.9155	0.6835	0.3852	0.201
Mof_H 	H 	0.9958	0.8056	0.435	-0.019
Mof_H 	H 	0.0478	0.719	0.4192	-0.317
Mof_H 	H 	0.0133	0.729	0.4823	0.033
Mof_H 	H 	0.0894	0.8596	0.5402	-0.002
Mof_H 	H 	0.0122	0.7951	0.5771	0.041
Mof_H 	H 	0.1379	0.9674	0.6541	0.03
Mof_H 	H 	0.0354	0.8948	0.6442	0.035
Mof_H 	H 	0.0952	0.8886	0.6614	0.036
Mof_H 	H 	0.1745	0.8776	0.5763	-0.088
Mof_H 	H 	0.1326	0.7706	0.5046	0.156
Mof_H 	H 	0.2466	0.8515	0.5979	-0.067
Mof_H 	H 	0.2756	0.7665	0.6541	0.009
Mof_H 	H 	0.1757	0.7625	0.6164	0.028
Mof_H 	H 	0.2911	0.8726	0.7063	-0.02
Mof_H 	H 	0.1741	0.8466	0.6941	0.031
Mof_H 	H 	0.3251	0.0003	0.8246	0.098
Mof_H 	H 	0.2222	0.9494	0.7692	0.009
Mof_H 	H 	0.2478	0.9125	0.7959	0.041
Mof_H 	H 	0.3379	0.464	0.5539	0.009
Mof_H 	H 	0.2983	0.5303	0.6148	0.199
Mof_H 	H 	0.3706	0.5608	0.565	-0.032
Mof_H 	H 	0.2998	0.6286	0.5808	-0.345
Mof_H 	H 	0.2467	0.531	0.5177	0.027
Mof_H 	H 	0.3194	0.5492	0.4598	0.011
Mof_H 	H 	0.218	0.4351	0.4229	0.033
Mof_H 	H 	0.3133	0.4838	0.3459	0.038
Mof_H 	H 	0.2506	0.3912	0.3558	0.042
Mof_H 	H 	0.2272	0.4338	0.3386	0.03
Mof_H 	H 	0.3013	0.5982	0.4237	-0.108
Mof_H 	H 	0.266	0.628	0.4954	0.155
Mof_H 	H 	0.2536	0.6487	0.4021	-0.088
Mof_H 	H 	0.1124	0.6215	0.3459	0.019
Mof_H 	H 	0.1461	0.5593	0.3836	0.027
Mof_H 	H 	0.1663	0.5848	0.2937	-0.037
Mof_H 	H 	0.1525	0.48	0.3059	0.033
Mof_H 	H 	0.1757	0.5005	0.1754	0.184
Mof_H 	H 	0.1802	0.453	0.2308	-0.051
Mof_H 	H 	0.1166	0.4519	0.2041	-0.014
Mof_H 	H 	0.784	0.4461	0.9101	0.024
Mof_H 	H 	0.6835	0.3852	0.9155	0.201
Mof_H 	H 	0.8056	0.435	0.9958	-0.019
Mof_H 	H 	0.719	0.4192	0.0478	-0.317
Mof_H 	H 	0.729	0.4823	0.0133	0.033
Mof_H 	H 	0.8596	0.5402	0.0894	-0.002
Mof_H 	H 	0.7951	0.5771	0.0122	0.041
Mof_H 	H 	0.9674	0.6541	0.1379	0.03
Mof_H 	H 	0.8948	0.6442	0.0354	0.035
Mof_H 	H 	0.8886	0.6614	0.0952	0.036
Mof_H 	H 	0.8776	0.5763	0.1745	-0.088
Mof_H 	H 	0.7706	0.5046	0.1326	0.156
Mof_H 	H 	0.8515	0.5979	0.2466	-0.067
Mof_H 	H 	0.7665	0.6541	0.2756	0.009
Mof_H 	H 	0.7625	0.6164	0.1757	0.028
Mof_H 	H 	0.8726	0.7063	0.2911	-0.02
Mof_H 	H 	0.8466	0.6941	0.1741	0.031
Mof_H 	H 	0.0003	0.8246	0.3251	0.098
Mof_H 	H 	0.9494	0.7692	0.2222	0.009
Mof_H 	H 	0.9125	0.7959	0.2478	0.041
Mof_H 	H 	0.464	0.5539	0.3379	0.009
Mof_H 	H 	0.5303	0.6148	0.2983	0.199
Mof_H 	H 	0.5608	0.565	0.3706	-0.032
Mof_H 	H 	0.6286	0.5808	0.2998	-0.345
Mof_H 	H 	0.531	0.5177	0.2467	0.027
Mof_H 	H 	0.5492	0.4598	0.3194	0.011
Mof_H 	H 	0.4351	0.4229	0.218	0.033
Mof_H 	H 	0.4838	0.3459	0.3133	0.038
Mof_H 	H 	0.3912	0.3558	0.2506	0.042
Mof_H 	H 	0.4338	0.3386	0.2272	0.03
Mof_H 	H 	0.5982	0.4237	0.3013	-0.108
Mof_H 	H 	0.628	0.4954	0.266	0.155
Mof_H 	H 	0.6487	0.4021	0.2536	-0.088
Mof_H 	H 	0.6215	0.3459	0.1124	0.019
Mof_H 	H 	0.5593	0.3836	0.1461	0.027
Mof_H 	H 	0.5848	0.2937	0.1663	-0.037
Mof_H 	H 	0.48	0.3059	0.1525	0.033
Mof_H 	H 	0.5005	0.1754	0.1757	0.184
Mof_H 	H 	0.453	0.2308	0.1802	-0.051
Mof_H 	H 	0.4519	0.2041	0.1166	-0.014
Mof_H 	H 	0.536	0.8739	0.0899	0.003
Mof_H 	H 	0.4697	0.768	0.0845	0.18
Mof_H 	H 	0.4392	0.8098	0.0042	-0.019
Mof_H 	H 	0.3714	0.6712	0.9522	-0.268
Mof_H 	H 	0.469	0.7157	0.9867	0.027
Mof_H 	H 	0.4508	0.7702	0.9106	0.039
Mof_H 	H 	0.5649	0.7829	0.9878	0.037
Mof_H 	H 	0.5162	0.8295	0.8621	0.032
Mof_H 	H 	0.6088	0.8594	0.9646	0.104
Mof_H 	H 	0.5662	0.7934	0.9048	0.063
Mof_H 	H 	0.4018	0.7031	0.8255	-0.104
Mof_H 	H 	0.372	0.638	0.8674	0.161
Mof_H 	H 	0.3513	0.6049	0.7534	-0.09
Mof_H 	H 	0.3785	0.4909	0.7244	0.008
Mof_H 	H 	0.4407	0.5868	0.8243	0.042
Mof_H 	H 	0.4152	0.5815	0.7089	-0.037
Mof_H 	H 	0.52	0.6725	0.8259	0.046
Mof_H 	H 	0.4995	0.6752	0.6749	0.191
Mof_H 	H 	0.547	0.7272	0.7778	-0.031
Mof_H 	H 	0.5481	0.6647	0.7522	0.012
Mof_H 	H 	0.216	0.1261	0.6621	0.005
Mof_H 	H 	0.3165	0.232	0.7017	0.202
Mof_H 	H 	0.1944	0.1902	0.6294	-0.038
Mof_H 	H 	0.281	0.3288	0.7002	-0.343
Mof_H 	H 	0.271	0.2843	0.7533	0.035
Mof_H 	H 	0.1404	0.2298	0.6806	0.006
Mof_H 	H 	0.2049	0.2171	0.782	0.043
Mof_H 	H 	0.0326	0.1705	0.6867	0.069
Mof_H 	H 	0.1052	0.1406	0.7494	0.032
Mof_H 	H 	0.1114	0.2066	0.7728	0.029
Mof_H 	H 	0.1224	0.2969	0.6987	-0.101
Mof_H 	H 	0.2294	0.362	0.734	0.157
Mof_H 	H 	0.1485	0.3951	0.7464	-0.076
Mof_H 	H 	0.2335	0.5091	0.8876	0.018
Mof_H 	H 	0.2375	0.4132	0.8539	0.044
Mof_H 	H 	0.1274	0.4185	0.8337	-0.027
Mof_H 	H 	0.1534	0.3275	0.8475	0.049
Mof_H 	H 	0.9997	0.3248	0.8243	0.274
Mof_H 	H 	0.0506	0.2728	0.8198	-0.065
Mof_H 	H 	0.0875	0.3353	0.8834	-0.007
Mof_H 	H 	0.1261	0.6621	0.216	0.005
Mof_H 	H 	0.232	0.7017	0.3165	0.202
Mof_H 	H 	0.1902	0.6294	0.1944	-0.038
Mof_H 	H 	0.3288	0.7002	0.281	-0.343
Mof_H 	H 	0.2843	0.7533	0.271	0.035
Mof_H 	H 	0.2298	0.6806	0.1404	0.006
Mof_H 	H 	0.2171	0.782	0.2049	0.043
Mof_H 	H 	0.1705	0.6867	0.0326	0.069
Mof_H 	H 	0.1406	0.7494	0.1052	0.032
Mof_H 	H 	0.2066	0.7728	0.1114	0.029
Mof_H 	H 	0.2969	0.6987	0.1224	-0.101
Mof_H 	H 	0.362	0.734	0.2294	0.157
Mof_H 	H 	0.3951	0.7464	0.1485	-0.076
Mof_H 	H 	0.5091	0.8876	0.2335	0.018
Mof_H 	H 	0.4132	0.8539	0.2375	0.044
Mof_H 	H 	0.4185	0.8337	0.1274	-0.027
Mof_H 	H 	0.3275	0.8475	0.1534	0.049
Mof_H 	H 	0.3248	0.8243	0.9997	0.274
Mof_H 	H 	0.2728	0.8198	0.0506	-0.065
Mof_H 	H 	0.3353	0.8834	0.0875	-0.007
Mof_H 	H 	0.8739	0.0899	0.536	0.003
Mof_H 	H 	0.768	0.0845	0.4697	0.18
Mof_H 	H 	0.8098	0.0042	0.4392	-0.019
Mof_H 	H 	0.6712	0.9522	0.3714	-0.268
Mof_H 	H 	0.7157	0.9867	0.469	0.027
Mof_H 	H 	0.7702	0.9106	0.4508	0.039
Mof_H 	H 	0.7829	0.9878	0.5649	0.037
Mof_H 	H 	0.8295	0.8621	0.5162	0.032
Mof_H 	H 	0.8594	0.9646	0.6088	0.104
Mof_H 	H 	0.7934	0.9048	0.5662	0.063
Mof_H 	H 	0.7031	0.8255	0.4018	-0.104
Mof_H 	H 	0.638	0.8674	0.372	0.161
Mof_H 	H 	0.6049	0.7534	0.3513	-0.09
Mof_H 	H 	0.4909	0.7244	0.3785	0.008
Mof_H 	H 	0.5868	0.8243	0.4407	0.042
Mof_H 	H 	0.5815	0.7089	0.4152	-0.037
Mof_H 	H 	0.6725	0.8259	0.52	0.046
Mof_H 	H 	0.6752	0.6749	0.4995	0.191
Mof_H 	H 	0.7272	0.7778	0.547	-0.031
Mof_H 	H 	0.6647	0.7522	0.5481	0.012
Mof_H 	H 	0.5539	0.3379	0.464	0.009
Mof_H 	H 	0.6148	0.2983	0.5303	0.199
Mof_H 	H 	0.565	0.3706	0.5608	-0.032
Mof_H 	H 	0.5808	0.2998	0.6286	-0.345
Mof_H 	H 	0.5177	0.2467	0.531	0.027
Mof_H 	H 	0.4598	0.3194	0.5492	0.011
Mof_H 	H 	0.4229	0.218	0.4351	0.033
Mof_H 	H 	0.3459	0.3133	0.4838	0.038
Mof_H 	H 	0.3558	0.2506	0.3912	0.042
Mof_H 	H 	0.3386	0.2272	0.4338	0.03
Mof_H 	H 	0.4237	0.3013	0.5982	-0.108
Mof_H 	H 	0.4954	0.266	0.628	0.155
Mof_H 	H 	0.4021	0.2536	0.6487	-0.088
Mof_H 	H 	0.3459	0.1124	0.6215	0.019
Mof_H 	H 	0.3836	0.1461	0.5593	0.027
Mof_H 	H 	0.2937	0.1663	0.5848	-0.037
Mof_H 	H 	0.3059	0.1525	0.48	0.033
Mof_H 	H 	0.1754	0.1757	0.5005	0.184
Mof_H 	H 	0.2308	0.1802	0.453	-0.051
Mof_H 	H 	0.2041	0.1166	0.4519	-0.014
Mof_H 	H 	0.4461	0.9101	0.784	0.024
Mof_H 	H 	0.3852	0.9155	0.6835	0.201
Mof_H 	H 	0.435	0.9958	0.8056	-0.019
Mof_H 	H 	0.4192	0.0478	0.719	-0.317
Mof_H 	H 	0.4823	0.0133	0.729	0.033
Mof_H 	H 	0.5402	0.0894	0.8596	-0.002
Mof_H 	H 	0.5771	0.0122	0.7951	0.041
Mof_H 	H 	0.6541	0.1379	0.9674	0.03
Mof_H 	H 	0.6442	0.0354	0.8948	0.035
Mof_H 	H 	0.6614	0.0952	0.8886	0.036
Mof_H 	H 	0.5763	0.1745	0.8776	-0.088
Mof_H 	H 	0.5046	0.1326	0.7706	0.156
Mof_H 	H 	0.5979	0.2466	0.8515	-0.067
Mof_H 	H 	0.6541	0.2756	0.7665	0.009
Mof_H 	H 	0.6164	0.1757	0.7625	0.028
Mof_H 	H 	0.7063	0.2911	0.8726	-0.02
Mof_H 	H 	0.6941	0.1741	0.8466	0.031
Mof_H 	H 	0.8246	0.3251	0.0003	0.098
Mof_H 	H 	0.7692	0.2222	0.9494	0.009
Mof_H 	H 	0.7959	0.2478	0.9125	0.041
Mof_C 	C 	0.4714	0.9432	0.1636	0.122
Mof_C 	C 	0.5384	0.9787	0.2089	0.202
Mof_C 	C 	0.5515	0.0301	0.2642	-0.128
Mof_C 	C 	0.5267	0.0697	0.247	0.137
Mof_C 	C 	0.4587	0.0293	0.1992	-0.066
Mof_C 	C 	0.4338	0.0639	0.1741	0.041
Mof_C 	C 	0.5749	0.1751	0.3192	0.195
Mof_C 	C 	0.6176	0.2055	0.3837	0.024
Mof_C 	C 	0.5889	0.2158	0.4215	0.04
Mof_C 	C 	0.5549	0.2489	0.4058	0.048
Mof_C 	C 	0.511	0.215	0.3388	0.027
Mof_C 	C 	0.4787	0.2457	0.3178	0.145
Mof_C 	C 	0.7796	0.3078	0.8364	0.154
Mof_C 	C 	0.7698	0.3295	0.7911	0.108
Mof_C 	C 	0.7659	0.2873	0.7358	-0.027
Mof_C 	C 	0.8227	0.2797	0.753	0.083
Mof_C 	C 	0.8301	0.2595	0.8008	0.044
Mof_C 	C 	0.8898	0.2597	0.8259	-0.027
Mof_C 	C 	0.8559	0.2557	0.6808	0.185
Mof_C 	C 	0.8218	0.2339	0.6163	0.023
Mof_C 	C 	0.7943	0.1674	0.5785	0.044
Mof_C 	C 	0.8431	0.1491	0.5942	0.043
Mof_C 	C 	0.8762	0.1722	0.6612	0.048
Mof_C 	C 	0.9279	0.1609	0.6822	0.077
Mof_C 	C 	0.2204	0.0568	0.5282	0.201
Mof_C 	C 	0.2302	0.0213	0.5597	-0.008
Mof_C 	C 	0.2341	0.9699	0.5214	0.086
Mof_C 	C 	0.1773	0.9303	0.457	0.037
Mof_C 	C 	0.1699	0.9707	0.4294	0.132
Mof_C 	C 	0.1102	0.9361	0.3699	-0.04
Mof_C 	C 	0.1441	0.8249	0.3998	0.18
Mof_C 	C 	0.1782	0.7945	0.4121	0.031
Mof_C 	C 	0.2057	0.7842	0.3731	0.033
Mof_C 	C 	0.1569	0.7511	0.306	0.059
Mof_C 	C 	0.1238	0.785	0.296	0.007
Mof_C 	C 	0.0721	0.7543	0.233	0.186
Mof_C 	C 	0.5286	0.6922	0.4718	0.156
Mof_C 	C 	0.4616	0.6705	0.4403	0.111
Mof_C 	C 	0.4485	0.7127	0.4786	-0.033
Mof_C 	C 	0.4733	0.7203	0.543	0.091
Mof_C 	C 	0.5413	0.7405	0.5706	0.036
Mof_C 	C 	0.5662	0.7403	0.6301	-0.015
Mof_C 	C 	0.4251	0.7443	0.6002	0.188
Mof_C 	C 	0.3824	0.7661	0.5879	0.03
Mof_C 	C 	0.4111	0.8326	0.6269	0.037
Mof_C 	C 	0.4451	0.8509	0.694	0.043
Mof_C 	C 	0.489	0.8278	0.704	0.033
Mof_C 	C 	0.5213	0.8391	0.767	0.13
Mof_C 	C 	0.5282	0.2204	0.0568	0.201
Mof_C 	C 	0.5597	0.2302	0.0213	-0.008
Mof_C 	C 	0.5214	0.2341	0.9699	0.086
Mof_C 	C 	0.457	0.1773	0.9303	0.037
Mof_C 	C 	0.4294	0.1699	0.9707	0.132
Mof_C 	C 	0.3699	0.1102	0.9361	-0.04
Mof_C 	C 	0.3998	0.1441	0.8249	0.18
Mof_C 	C 	0.4121	0.1782	0.7945	0.031
Mof_C 	C 	0.3731	0.2057	0.7842	0.033
Mof_C 	C 	0.306	0.1569	0.7511	0.059
Mof_C 	C 	0.296	0.1238	0.785	0.007
Mof_C 	C 	0.233	0.0721	0.7543	0.186
Mof_C 	C 	0.4718	0.5286	0.6922	0.156
Mof_C 	C 	0.4403	0.4616	0.6705	0.111
Mof_C 	C 	0.4786	0.4485	0.7127	-0.033
Mof_C 	C 	0.543	0.4733	0.7203	0.091
Mof_C 	C 	0.5706	0.5413	0.7405	0.036
Mof_C 	C 	0.6301	0.5662	0.7403	-0.015
Mof_C 	C 	0.6002	0.4251	0.7443	0.188
Mof_C 	C 	0.5879	0.3824	0.7661	0.03
Mof_C 	C 	0.6269	0.4111	0.8326	0.037
Mof_C 	C 	0.694	0.4451	0.8509	0.043
Mof_C 	C 	0.704	0.489	0.8278	0.033
Mof_C 	C 	0.767	0.5213	0.8391	0.13
Mof_C 	C 	0.1636	0.4714	0.9432	0.122
Mof_C 	C 	0.2089	0.5384	0.9787	0.202
Mof_C 	C 	0.2642	0.5515	0.0301	-0.128
Mof_C 	C 	0.247	0.5267	0.0697	0.137
Mof_C 	C 	0.1992	0.4587	0.0293	-0.066
Mof_C 	C 	0.1741	0.4338	0.0639	0.041
Mof_C 	C 	0.3192	0.5749	0.1751	0.195
Mof_C 	C 	0.3837	0.6176	0.2055	0.024
Mof_C 	C 	0.4215	0.5889	0.2158	0.04
Mof_C 	C 	0.4058	0.5549	0.2489	0.048
Mof_C 	C 	0.3388	0.511	0.215	0.027
Mof_C 	C 	0.3178	0.4787	0.2457	0.145
Mof_C 	C 	0.8364	0.7796	0.3078	0.154
Mof_C 	C 	0.7911	0.7698	0.3295	0.108
Mof_C 	C 	0.7358	0.7659	0.2873	-0.027
Mof_C 	C 	0.753	0.8227	0.2797	0.083
Mof_C 	C 	0.8008	0.8301	0.2595	0.044
Mof_C 	C 	0.8259	0.8898	0.2597	-0.027
Mof_C 	C 	0.6808	0.8559	0.2557	0.185
Mof_C 	C 	0.6163	0.8218	0.2339	0.023
Mof_C 	C 	0.5785	0.7943	0.1674	0.044
Mof_C 	C 	0.5942	0.8431	0.1491	0.043
Mof_C 	C 	0.6612	0.8762	0.1722	0.048
Mof_C 	C 	0.6822	0.9279	0.1609	0.077
Mof_C 	C 	0.3078	0.8364	0.7796	0.154
Mof_C 	C 	0.3295	0.7911	0.7698	0.108
Mof_C 	C 	0.2873	0.7358	0.7659	-0.027
Mof_C 	C 	0.2797	0.753	0.8227	0.083
Mof_C 	C 	0.2595	0.8008	0.8301	0.044
Mof_C 	C 	0.2597	0.8259	0.8898	-0.027
Mof_C 	C 	0.2557	0.6808	0.8559	0.185
Mof_C 	C 	0.2339	0.6163	0.8218	0.023
Mof_C 	C 	0.1674	0.5785	0.7943	0.044
Mof_C 	C 	0.1491	0.5942	0.8431	0.043
Mof_C 	C 	0.1722	0.6612	0.8762	0.048
Mof_C 	C 	0.1609	0.6822	0.9279	0.077
Mof_C 	C 	0.9432	0.1636	0.4714	0.122
Mof_C 	C 	0.9787	0.2089	0.5384	0.202
Mof_C 	C 	0.0301	0.2642	0.5515	-0.128
Mof_C 	C 	0.0697	0.247	0.5267	0.137
Mof_C 	C 	0.0293	0.1992	0.4587	-0.066
Mof_C 	C 	0.0639	0.1741	0.4338	0.041
Mof_C 	C 	0.1751	0.3192	0.5749	0.195
Mof_C 	C 	0.2055	0.3837	0.6176	0.024
Mof_C 	C 	0.2158	0.4215	0.5889	0.04
Mof_C 	C 	0.2489	0.4058	0.5549	0.048
Mof_C 	C 	0.215	0.3388	0.511	0.027
Mof_C 	C 	0.2457	0.3178	0.4787	0.145
Mof_C 	C 	0.6922	0.4718	0.5286	0.156
Mof_C 	C 	0.6705	0.4403	0.4616	0.111
Mof_C 	C 	0.7127	0.4786	0.4485	-0.033
Mof_C 	C 	0.7203	0.543	0.4733	0.091
Mof_C 	C 	0.7405	0.5706	0.5413	0.036
Mof_C 	C 	0.7403	0.6301	0.5662	-0.015
Mof_C 	C 	0.7443	0.6002	0.4251	0.188
Mof_C 	C 	0.7661	0.5879	0.3824	0.03
Mof_C 	C 	0.8326	0.6269	0.4111	0.037
Mof_C 	C 	0.8509	0.694	0.4451	0.043
Mof_C 	C 	0.8278	0.704	0.489	0.033
Mof_C 	C 	0.8391	0.767	0.5213	0.13
Mof_C 	C 	0.0568	0.5282	0.2204	0.201
Mof_C 	C 	0.0213	0.5597	0.2302	-0.008
Mof_C 	C 	0.9699	0.5214	0.2341	0.086
Mof_C 	C 	0.9303	0.457	0.1773	0.037
Mof_C 	C 	0.9707	0.4294	0.1699	0.132
Mof_C 	C 	0.9361	0.3699	0.1102	-0.04
Mof_C 	C 	0.8249	0.3998	0.1441	0.18
Mof_C 	C 	0.7945	0.4121	0.1782	0.031
Mof_C 	C 	0.7842	0.3731	0.2057	0.033
Mof_C 	C 	0.7511	0.306	0.1569	0.059
Mof_C 	C 	0.785	0.296	0.1238	0.007
Mof_C 	C 	0.7543	0.233	0.0721	0.186
Mof_C 	C 	0.0568	0.5286	0.8364	0.196
Mof_C 	C 	0.0213	0.4616	0.7911	-0.007
Mof_C 	C 	0.9699	0.4485	0.7358	0.087
Mof_C 	C 	0.9303	0.4733	0.753	0.034
Mof_C 	C 	0.9707	0.5413	0.8008	0.14
Mof_C 	C 	0.9361	0.5662	0.8259	-0.061
Mof_C 	C 	0.8249	0.4251	0.6808	0.181
Mof_C 	C 	0.7945	0.3824	0.6163	0.033
Mof_C 	C 	0.7842	0.4111	0.5785	0.033
Mof_C 	C 	0.7511	0.4451	0.5942	0.052
Mof_C 	C 	0.785	0.489	0.6612	0.026
Mof_C 	C 	0.7543	0.5213	0.6822	0.138
Mof_C 	C 	0.6922	0.2204	0.1636	0.158
Mof_C 	C 	0.6705	0.2302	0.2089	0.112
Mof_C 	C 	0.7127	0.2341	0.2642	-0.035
Mof_C 	C 	0.7203	0.1773	0.247	0.094
Mof_C 	C 	0.7405	0.1699	0.1992	0.028
Mof_C 	C 	0.7403	0.1102	0.1741	0.007
Mof_C 	C 	0.7443	0.1441	0.3192	0.188
Mof_C 	C 	0.7661	0.1782	0.3837	0.028
Mof_C 	C 	0.8326	0.2057	0.4215	0.036
Mof_C 	C 	0.8509	0.1569	0.4058	0.05
Mof_C 	C 	0.8278	0.1238	0.3388	0.014
Mof_C 	C 	0.8391	0.0721	0.3178	0.178
Mof_C 	C 	0.9432	0.7796	0.4718	0.122
Mof_C 	C 	0.9787	0.7698	0.4403	0.199
Mof_C 	C 	0.0301	0.7659	0.4786	-0.124
Mof_C 	C 	0.0697	0.8227	0.543	0.129
Mof_C 	C 	0.0293	0.8301	0.5706	-0.054
Mof_C 	C 	0.0639	0.8898	0.6301	0.017
Mof_C 	C 	0.1751	0.8559	0.6002	0.191
Mof_C 	C 	0.2055	0.8218	0.5879	0.02
Mof_C 	C 	0.2158	0.7943	0.6269	0.047
Mof_C 	C 	0.2489	0.8431	0.694	0.035
Mof_C 	C 	0.215	0.8762	0.704	0.055
Mof_C 	C 	0.2457	0.9279	0.767	0.069
Mof_C 	C 	0.3078	0.4714	0.5282	0.159
Mof_C 	C 	0.3295	0.5384	0.5597	0.108
Mof_C 	C 	0.2873	0.5515	0.5214	-0.03
Mof_C 	C 	0.2797	0.5267	0.457	0.09
Mof_C 	C 	0.2595	0.4587	0.4294	0.034
Mof_C 	C 	0.2597	0.4338	0.3699	-0.004
Mof_C 	C 	0.2557	0.5749	0.3998	0.19
Mof_C 	C 	0.2339	0.6176	0.4121	0.027
Mof_C 	C 	0.1674	0.5889	0.3731	0.037
Mof_C 	C 	0.1491	0.5549	0.306	0.056
Mof_C 	C 	0.1722	0.511	0.296	0.021
Mof_C 	C 	0.1609	0.4787	0.233	0.153
Mof_C 	C 	0.7796	0.4718	0.9432	0.122
Mof_C 	C 	0.7698	0.4403	0.9787	0.199
Mof_C 	C 	0.7659	0.4786	0.0301	-0.124
Mof_C 	C 	0.8227	0.543	0.0697	0.129
Mof_C 	C 	0.8301	0.5706	0.0293	-0.054
Mof_C 	C 	0.8898	0.6301	0.0639	0.017
Mof_C 	C 	0.8559	0.6002	0.1751	0.191
Mof_C 	C 	0.8218	0.5879	0.2055	0.02
Mof_C 	C 	0.7943	0.6269	0.2158	0.047
Mof_C 	C 	0.8431	0.694	0.2489	0.035
Mof_C 	C 	0.8762	0.704	0.215	0.055
Mof_C 	C 	0.9279	0.767	0.2457	0.069
Mof_C 	C 	0.4714	0.5282	0.3078	0.159
Mof_C 	C 	0.5384	0.5597	0.3295	0.108
Mof_C 	C 	0.5515	0.5214	0.2873	-0.03
Mof_C 	C 	0.5267	0.457	0.2797	0.09
Mof_C 	C 	0.4587	0.4294	0.2595	0.034
Mof_C 	C 	0.4338	0.3699	0.2597	-0.004
Mof_C 	C 	0.5749	0.3998	0.2557	0.19
Mof_C 	C 	0.6176	0.4121	0.2339	0.027
Mof_C 	C 	0.5889	0.3731	0.1674	0.037
Mof_C 	C 	0.5549	0.306	0.1491	0.056
Mof_C 	C 	0.511	0.296	0.1722	0.021
Mof_C 	C 	0.4787	0.233	0.1609	0.153
Mof_C 	C 	0.5286	0.8364	0.0568	0.196
Mof_C 	C 	0.4616	0.7911	0.0213	-0.007
Mof_C 	C 	0.4485	0.7358	0.9699	0.087
Mof_C 	C 	0.4733	0.753	0.9303	0.034
Mof_C 	C 	0.5413	0.8008	0.9707	0.14
Mof_C 	C 	0.5662	0.8259	0.9361	-0.061
Mof_C 	C 	0.4251	0.6808	0.8249	0.181
Mof_C 	C 	0.3824	0.6163	0.7945	0.033
Mof_C 	C 	0.4111	0.5785	0.7842	0.033
Mof_C 	C 	0.4451	0.5942	0.7511	0.052
Mof_C 	C 	0.489	0.6612	0.785	0.026
Mof_C 	C 	0.5213	0.6822	0.7543	0.138
Mof_C 	C 	0.2204	0.1636	0.6922	0.158
Mof_C 	C 	0.2302	0.2089	0.6705	0.112
Mof_C 	C 	0.2341	0.2642	0.7127	-0.035
Mof_C 	C 	0.1773	0.247	0.7203	0.094
Mof_C 	C 	0.1699	0.1992	0.7405	0.028
Mof_C 	C 	0.1102	0.1741	0.7403	0.007
Mof_C 	C 	0.1441	0.3192	0.7443	0.188
Mof_C 	C 	0.1782	0.3837	0.7661	0.028
Mof_C 	C 	0.2057	0.4215	0.8326	0.036
Mof_C 	C 	0.1569	0.4058	0.8509	0.05
Mof_C 	C 	0.1238	0.3388	0.8278	0.014
Mof_C 	C 	0.0721	0.3178	0.8391	0.178
Mof_C 	C 	0.1636	0.6922	0.2204	0.158
Mof_C 	C 	0.2089	0.6705	0.2302	0.112
Mof_C 	C 	0.2642	0.7127	0.2341	-0.035
Mof_C 	C 	0.247	0.7203	0.1773	0.094
Mof_C 	C 	0.1992	0.7405	0.1699	0.028
Mof_C 	C 	0.1741	0.7403	0.1102	0.007
Mof_C 	C 	0.3192	0.7443	0.1441	0.188
Mof_C 	C 	0.3837	0.7661	0.1782	0.028
Mof_C 	C 	0.4215	0.8326	0.2057	0.036
Mof_C 	C 	0.4058	0.8509	0.1569	0.05
Mof_C 	C 	0.3388	0.8278	0.1238	0.014
Mof_C 	C 	0.3178	0.8391	0.0721	0.178
Mof_C 	C 	0.8364	0.0568	0.5286	0.196
Mof_C 	C 	0.7911	0.0213	0.4616	-0.007
Mof_C 	C 	0.7358	0.9699	0.4485	0.087
Mof_C 	C 	0.753	0.9303	0.4733	0.034
Mof_C 	C 	0.8008	0.9707	0.5413	0.14
Mof_C 	C 	0.8259	0.9361	0.5662	-0.061
Mof_C 	C 	0.6808	0.8249	0.4251	0.181
Mof_C 	C 	0.6163	0.7945	0.3824	0.033
Mof_C 	C 	0.5785	0.7842	0.4111	0.033
Mof_C 	C 	0.5942	0.7511	0.4451	0.052
Mof_C 	C 	0.6612	0.785	0.489	0.026
Mof_C 	C 	0.6822	0.7543	0.5213	0.138
Mof_C 	C 	0.5282	0.3078	0.4714	0.159
Mof_C 	C 	0.5597	0.3295	0.5384	0.108
Mof_C 	C 	0.5214	0.2873	0.5515	-0.03
Mof_C 	C 	0.457	0.2797	0.5267	0.09
Mof_C 	C 	0.4294	0.2595	0.4587	0.034
Mof_C 	C 	0.3699	0.2597	0.4338	-0.004
Mof_C 	C 	0.3998	0.2557	0.5749	0.19
Mof_C 	C 	0.4121	0.2339	0.6176	0.027
Mof_C 	C 	0.3731	0.1674	0.5889	0.037
Mof_C 	C 	0.306	0.1491	0.5549	0.056
Mof_C 	C 	0.296	0.1722	0.511	0.021
Mof_C 	C 	0.233	0.1609	0.4787	0.153
Mof_C 	C 	0.4718	0.9432	0.7796	0.122
Mof_C 	C 	0.4403	0.9787	0.7698	0.199
Mof_C 	C 	0.4786	0.0301	0.7659	-0.124
Mof_C 	C 	0.543	0.0697	0.8227	0.129
Mof_C 	C 	0.5706	0.0293	0.8301	-0.054
Mof_C 	C 	0.6301	0.0639	0.8898	0.017
Mof_C 	C 	0.6002	0.1751	0.8559	0.191
Mof_C 	C 	0.5879	0.2055	0.8218	0.02
Mof_C 	C 	0.6269	0.2158	0.7943	0.047
Mof_C 	C 	0.694	0.2489	0.8431	0.035
Mof_C 	C 	0.704	0.215	0.8762	0.055
Mof_C 	C 	0.767	0.2457	0.9279	0.069
Mof_O 	O 	0.4502	0.9801	0.1471	-0.124
Mof_O 	O 	0.5586	0.9408	0.2238	-0.631
Mof_O 	O 	0.6155	0.0673	0.3062	-0.27
Mof_O 	O 	0.53339	0.11509	0.2985	-0.243
Mof_O 	O 	0.4707	0.0944	0.1509	-0.241
Mof_O 	O 	0.54274	0.20698	0.30604	-0.581
Mof_O 	O 	0.6498	0.174	0.3966	-0.251
Mof_O 	O 	0.6354	0.2524	0.4862	-0.226
Mof_O 	O 	0.43934	0.91634	0.1876	-0.198
Mof_O 	O 	0.5213	0.3037	0.3362	-0.608
Mof_O 	O 	0.833	0.3031	0.8529	-0.184
Mof_O 	O 	0.717	0.3348	0.7762	-0.672
Mof_O 	O 	0.7611	0.3093	0.6938	-0.284
Mof_O 	O 	0.81659	0.23489	0.7015	-0.23
Mof_O 	O 	0.9435	0.3198	0.8491	-0.159
Mof_O 	O 	0.90094	0.2367	0.69396	-0.532
Mof_O 	O 	0.7774	0.2532	0.6034	-0.25
Mof_O 	O 	0.7662	0.1492	0.5138	-0.23
Mof_O 	O 	0.72874	0.25174	0.8124	-0.223
Mof_O 	O 	0.9675	0.1851	0.6638	-0.466
Mof_O 	O 	0.167	0.0199	0.4701	-0.282
Mof_O 	O 	0.283	0.0592	0.6178	-0.621
Mof_O 	O 	0.2389	0.9327	0.5482	-0.297
Mof_O 	O 	0.18341	0.88491	0.4183	-0.216
Mof_O 	O 	0.0565	0.9056	0.3763	-0.212
Mof_O 	O 	0.09906	0.79302	0.33576	-0.545
Mof_O 	O 	0.2226	0.826	0.4758	-0.248
Mof_O 	O 	0.2338	0.7476	0.383	-0.219
Mof_O 	O 	0.27126	0.08366	0.523	-0.255
Mof_O 	O 	0.0325	0.6963	0.2176	-0.667
Mof_O 	O 	0.5498	0.6969	0.5299	-0.195
Mof_O 	O 	0.4414	0.6652	0.3822	-0.673
Mof_O 	O 	0.3845	0.6907	0.4518	-0.283
Mof_O 	O 	0.46661	0.76511	0.5817	-0.226
Mof_O 	O 	0.5293	0.6802	0.6237	-0.2
Mof_O 	O 	0.45726	0.7633	0.66424	-0.579
Mof_O 	O 	0.3502	0.7468	0.5242	-0.25
Mof_O 	O 	0.3646	0.8508	0.617	-0.217
Mof_O 	O 	0.56066	0.74826	0.477	-0.223
Mof_O 	O 	0.4787	0.8149	0.7824	-0.603
Mof_O 	O 	0.4701	0.167	0.0199	-0.282
Mof_O 	O 	0.6178	0.283	0.0592	-0.621
Mof_O 	O 	0.5482	0.2389	0.9327	-0.297
Mof_O 	O 	0.4183	0.18341	0.88491	-0.216
Mof_O 	O 	0.3763	0.0565	0.9056	-0.212
Mof_O 	O 	0.33576	0.09906	0.79302	-0.545
Mof_O 	O 	0.4758	0.2226	0.826	-0.248
Mof_O 	O 	0.383	0.2338	0.7476	-0.219
Mof_O 	O 	0.523	0.27126	0.08366	-0.255
Mof_O 	O 	0.2176	0.0325	0.6963	-0.667
Mof_O 	O 	0.5299	0.5498	0.6969	-0.195
Mof_O 	O 	0.3822	0.4414	0.6652	-0.673
Mof_O 	O 	0.4518	0.3845	0.6907	-0.283
Mof_O 	O 	0.5817	0.46661	0.76511	-0.226
Mof_O 	O 	0.6237	0.5293	0.6802	-0.2
Mof_O 	O 	0.66424	0.45726	0.7633	-0.579
Mof_O 	O 	0.5242	0.3502	0.7468	-0.25
Mof_O 	O 	0.617	0.3646	0.8508	-0.217
Mof_O 	O 	0.477	0.56066	0.74826	-0.223
Mof_O 	O 	0.7824	0.4787	0.8149	-0.603
Mof_O 	O 	0.1471	0.4502	0.9801	-0.124
Mof_O 	O 	0.2238	0.5586	0.9408	-0.631
Mof_O 	O 	0.3062	0.6155	0.0673	-0.27
Mof_O 	O 	0.2985	0.53339	0.11509	-0.243
Mof_O 	O 	0.1509	0.4707	0.0944	-0.241
Mof_O 	O 	0.30604	0.54274	0.20698	-0.581
Mof_O 	O 	0.3966	0.6498	0.174	-0.251
Mof_O 	O 	0.4862	0.6354	0.2524	-0.226
Mof_O 	O 	0.1876	0.43934	0.91634	-0.198
Mof_O 	O 	0.3362	0.5213	0.3037	-0.608
Mof_O 	O 	0.8529	0.833	0.3031	-0.184
Mof_O 	O 	0.7762	0.717	0.3348	-0.672
Mof_O 	O 	0.6938	0.7611	0.3093	-0.284
Mof_O 	O 	0.7015	0.81659	0.23489	-0.23
Mof_O 	O 	0.8491	0.9435	0.3198	-0.159
Mof_O 	O 	0.69396	0.90094	0.2367	-0.532
Mof_O 	O 	0.6034	0.7774	0.2532	-0.25
Mof_O 	O 	0.5138	0.7662	0.1492	-0.23
Mof_O 	O 	0.8124	0.72874	0.25174	-0.223
Mof_O 	O 	0.6638	0.9675	0.1851	-0.466
Mof_O 	O 	0.3031	0.8529	0.833	-0.184
Mof_O 	O 	0.3348	0.7762	0.717	-0.672
Mof_O 	O 	0.3093	0.6938	0.7611	-0.284
Mof_O 	O 	0.23489	0.7015	0.81659	-0.23
Mof_O 	O 	0.3198	0.8491	0.9435	-0.159
Mof_O 	O 	0.2367	0.69396	0.90094	-0.532
Mof_O 	O 	0.2532	0.6034	0.7774	-0.25
Mof_O 	O 	0.1492	0.5138	0.7662	-0.23
Mof_O 	O 	0.25174	0.8124	0.72874	-0.223
Mof_O 	O 	0.1851	0.6638	0.9675	-0.466
Mof_O 	O 	0.9801	0.1471	0.4502	-0.124
Mof_O 	O 	0.9408	0.2238	0.5586	-0.631
Mof_O 	O 	0.0673	0.3062	0.6155	-0.27
Mof_O 	O 	0.11509	0.2985	0.53339	-0.243
Mof_O 	O 	0.0944	0.1509	0.4707	-0.241
Mof_O 	O 	0.20698	0.30604	0.54274	-0.581
Mof_O 	O 	0.174	0.3966	0.6498	-0.251
Mof_O 	O 	0.2524	0.4862	0.6354	-0.226
Mof_O 	O 	0.91634	0.1876	0.43934	-0.198
Mof_O 	O 	0.3037	0.3362	0.5213	-0.608
Mof_O 	O 	0.6969	0.5299	0.5498	-0.195
Mof_O 	O 	0.6652	0.3822	0.4414	-0.673
Mof_O 	O 	0.6907	0.4518	0.3845	-0.283
Mof_O 	O 	0.76511	0.5817	0.46661	-0.226
Mof_O 	O 	0.6802	0.6237	0.5293	-0.2
Mof_O 	O 	0.7633	0.66424	0.45726	-0.579
Mof_O 	O 	0.7468	0.5242	0.3502	-0.25
Mof_O 	O 	0.8508	0.617	0.3646	-0.217
Mof_O 	O 	0.74826	0.477	0.56066	-0.223
Mof_O 	O 	0.8149	0.7824	0.4787	-0.603
Mof_O 	O 	0.0199	0.4701	0.167	-0.282
Mof_O 	O 	0.0592	0.6178	0.283	-0.621
Mof_O 	O 	0.9327	0.5482	0.2389	-0.297
Mof_O 	O 	0.88491	0.4183	0.18341	-0.216
Mof_O 	O 	0.9056	0.3763	0.0565	-0.212
Mof_O 	O 	0.79302	0.33576	0.09906	-0.545
Mof_O 	O 	0.826	0.4758	0.2226	-0.248
Mof_O 	O 	0.7476	0.383	0.2338	-0.219
Mof_O 	O 	0.08366	0.523	0.27126	-0.255
Mof_O 	O 	0.6963	0.2176	0.0325	-0.667
Mof_O 	O 	0.0199	0.5498	0.8529	-0.268
Mof_O 	O 	0.0592	0.4414	0.7762	-0.621
Mof_O 	O 	0.9327	0.3845	0.6938	-0.297
Mof_O 	O 	0.88491	0.46661	0.7015	-0.214
Mof_O 	O 	0.9056	0.5293	0.8491	-0.164
Mof_O 	O 	0.79302	0.45726	0.69396	-0.577
Mof_O 	O 	0.826	0.3502	0.6034	-0.249
Mof_O 	O 	0.7476	0.3646	0.5138	-0.22
Mof_O 	O 	0.08366	0.56066	0.8124	-0.249
Mof_O 	O 	0.6963	0.4787	0.6638	-0.605
Mof_O 	O 	0.6969	0.167	0.1471	-0.207
Mof_O 	O 	0.6652	0.283	0.2238	-0.673
Mof_O 	O 	0.6907	0.2389	0.3062	-0.283
Mof_O 	O 	0.76511	0.18341	0.2985	-0.229
Mof_O 	O 	0.6802	0.0565	0.1509	-0.248
Mof_O 	O 	0.7633	0.09906	0.30604	-0.548
Mof_O 	O 	0.7468	0.2226	0.3966	-0.249
Mof_O 	O 	0.8508	0.2338	0.4862	-0.216
Mof_O 	O 	0.74826	0.27126	0.1876	-0.225
Mof_O 	O 	0.8149	0.0325	0.3362	-0.665
Mof_O 	O 	0.9801	0.833	0.5299	-0.112
Mof_O 	O 	0.9408	0.717	0.3822	-0.631
Mof_O 	O 	0.0673	0.7611	0.4518	-0.27
Mof_O 	O 	0.11509	0.81659	0.5817	-0.239
Mof_O 	O 	0.0944	0.9435	0.6237	-0.194
Mof_O 	O 	0.20698	0.90094	0.66424	-0.533
Mof_O 	O 	0.174	0.7774	0.5242	-0.249
Mof_O 	O 	0.2524	0.7662	0.617	-0.227
Mof_O 	O 	0.91634	0.72874	0.477	-0.196
Mof_O 	O 	0.3037	0.9675	0.7824	-0.465
Mof_O 	O 	0.3031	0.4502	0.4701	-0.198
Mof_O 	O 	0.3348	0.5586	0.6178	-0.672
Mof_O 	O 	0.3093	0.6155	0.5482	-0.284
Mof_O 	O 	0.23489	0.53339	0.4183	-0.234
Mof_O 	O 	0.3198	0.4707	0.3763	-0.207
Mof_O 	O 	0.2367	0.54274	0.33576	-0.579
Mof_O 	O 	0.2532	0.6498	0.4758	-0.252
Mof_O 	O 	0.1492	0.6354	0.383	-0.23
Mof_O 	O 	0.25174	0.43934	0.523	-0.229
Mof_O 	O 	0.1851	0.5213	0.2176	-0.609
Mof_O 	O 	0.833	0.5299	0.9801	-0.112
Mof_O 	O 	0.717	0.3822	0.9408	-0.631
Mof_O 	O 	0.7611	0.4518	0.0673	-0.27
Mof_O 	O 	0.81659	0.5817	0.11509	-0.239
Mof_O 	O 	0.9435	0.6237	0.0944	-0.194
Mof_O 	O 	0.90094	0.66424	0.20698	-0.533
Mof_O 	O 	0.7774	0.5242	0.174	-0.249
Mof_O 	O 	0.7662	0.617	0.2524	-0.227
Mof_O 	O 	0.72874	0.477	0.91634	-0.196
Mof_O 	O 	0.9675	0.7824	0.3037	-0.465
Mof_O 	O 	0.4502	0.4701	0.3031	-0.198
Mof_O 	O 	0.5586	0.6178	0.3348	-0.672
Mof_O 	O 	0.6155	0.5482	0.3093	-0.284
Mof_O 	O 	0.53339	0.4183	0.23489	-0.234
Mof_O 	O 	0.4707	0.3763	0.3198	-0.207
Mof_O 	O 	0.54274	0.33576	0.2367	-0.579
Mof_O 	O 	0.6498	0.4758	0.2532	-0.252
Mof_O 	O 	0.6354	0.383	0.1492	-0.23
Mof_O 	O 	0.43934	0.523	0.25174	-0.229
Mof_O 	O 	0.5213	0.2176	0.1851	-0.609
Mof_O 	O 	0.5498	0.8529	0.0199	-0.268
Mof_O 	O 	0.4414	0.7762	0.0592	-0.621
Mof_O 	O 	0.3845	0.6938	0.9327	-0.297
Mof_O 	O 	0.46661	0.7015	0.88491	-0.214
Mof_O 	O 	0.5293	0.8491	0.9056	-0.164
Mof_O 	O 	0.45726	0.69396	0.79302	-0.577
Mof_O 	O 	0.3502	0.6034	0.826	-0.249
Mof_O 	O 	0.3646	0.5138	0.7476	-0.22
Mof_O 	O 	0.56066	0.8124	0.08366	-0.249
Mof_O 	O 	0.4787	0.6638	0.6963	-0.605
Mof_O 	O 	0.167	0.1471	0.6969	-0.207
Mof_O 	O 	0.283	0.2238	0.6652	-0.673
Mof_O 	O 	0.2389	0.3062	0.6907	-0.283
Mof_O 	O 	0.18341	0.2985	0.76511	-0.229
Mof_O 	O 	0.0565	0.1509	0.6802	-0.248
Mof_O 	O 	0.09906	0.30604	0.7633	-0.548
Mof_O 	O 	0.2226	0.3966	0.7468	-0.249
Mof_O 	O 	0.2338	0.4862	0.8508	-0.216
Mof_O 	O 	0.27126	0.1876	0.74826	-0.225
Mof_O 	O 	0.0325	0.3362	0.8149	-0.665
Mof_O 	O 	0.1471	0.6969	0.167	-0.207
Mof_O 	O 	0.2238	0.6652	0.283	-0.673
Mof_O 	O 	0.3062	0.6907	0.2389	-0.283
Mof_O 	O 	0.2985	0.76511	0.18341	-0.229
Mof_O 	O 	0.1509	0.6802	0.0565	-0.248
Mof_O 	O 	0.30604	0.7633	0.09906	-0.548
Mof_O 	O 	0.3966	0.7468	0.2226	-0.249
Mof_O 	O 	0.4862	0.8508	0.2338	-0.216
Mof_O 	O 	0.1876	0.74826	0.27126	-0.225
Mof_O 	O 	0.3362	0.8149	0.0325	-0.665
Mof_O 	O 	0.8529	0.0199	0.5498	-0.268
Mof_O 	O 	0.7762	0.0592	0.4414	-0.621
Mof_O 	O 	0.6938	0.9327	0.3845	-0.297
Mof_O 	O 	0.7015	0.88491	0.46661	-0.214
Mof_O 	O 	0.8491	0.9056	0.5293	-0.164
Mof_O 	O 	0.69396	0.79302	0.45726	-0.577
Mof_O 	O 	0.6034	0.826	0.3502	-0.249
Mof_O 	O 	0.5138	0.7476	0.3646	-0.22
Mof_O 	O 	0.8124	0.08366	0.56066	-0.249
Mof_O 	O 	0.6638	0.6963	0.4787	-0.605
Mof_O 	O 	0.4701	0.3031	0.4502	-0.198
Mof_O 	O 	0.6178	0.3348	0.5586	-0.672
Mof_O 	O 	0.5482	0.3093	0.6155	-0.284
Mof_O 	O 	0.4183	0.23489	0.53339	-0.234
Mof_O 	O 	0.3763	0.3198	0.4707	-0.207
Mof_O 	O 	0.33576	0.2367	0.54274	-0.579
Mof_O 	O 	0.4758	0.2532	0.6498	-0.252
Mof_O 	O 	0.383	0.1492	0.6354	-0.23
Mof_O 	O 	0.523	0.25174	0.43934	-0.229
Mof_O 	O 	0.2176	0.1851	0.5213	-0.609
Mof_O 	O 	0.5299	0.9801	0.833	-0.112
Mof_O 	O 	0.3822	0.9408	0.717	-0.631
Mof_O 	O 	0.4518	0.0673	0.7611	-0.27
Mof_O 	O 	0.5817	0.11509	0.81659	-0.239
Mof_O 	O 	0.6237	0.0944	0.9435	-0.194
Mof_O 	O 	0.66424	0.20698	0.90094	-0.533
Mof_O 	O 	0.5242	0.174	0.7774	-0.249
Mof_O 	O 	0.617	0.2524	0.7662	-0.227
Mof_O 	O 	0.477	0.91634	0.72874	-0.196
Mof_O 	O 	0.7824	0.3037	0.9675	-0.465
_end
