data_functionalizedCrystal
_audit_creation_method	'EQeq! by Chris Wilmer'
_symmetry_space_group_name_H-M	'P1'
_symmetry_Int_Tables_number	1
_symmetry_cell_setting	triclinic
loop_
_symmetry_equiv_pos_as_xyz
  x,y,z
_cell_length_a	25.0141
_cell_length_b	21.2383
_cell_length_c	10.0324
_cell_angle_alpha	90
_cell_angle_beta	97.166
_cell_angle_gamma	90
loop_
_atom_site_label
_atom_site_type_symbol
_atom_site_fract_x
_atom_site_fract_y
_atom_site_fract_z
_atom_site_charge
Mof_C 	C 	0.288	0.1722	0.0982	0.81
Mof_C 	C 	0.2719	0.1334	0.9751	-0.422
Mof_C 	C 	0.2579	0.1651	0.8554	0.412
Mof_H 	H 	0.2598	0.20976	0.85455	-0.243
Mof_C 	C 	0.241	0.1335	0.7365	-0.659
Mof_C 	C 	0.2263	0.1738	0.6146	1.309
Mof_C 	C 	0.2399	0.0672	0.734	0.245
Mof_C 	C 	0.2232	0.0316	0.6136	-0.142
Mof_H 	H 	0.21195	0.05343	0.53229	0.032
Mof_C 	C 	0.2843	0.0319	0.0986	-0.097
Mof_H 	H 	0.29428	0.05366	0.18064	-0.02
Mof_C 	C 	0.2699	0.067	0.9795	0.176
Mof_C 	C 	0.2543	0.0338	0.8563	-0.134
Mof_C 	C 	0.4062	0.172	0.3881	0.895
Mof_C 	C 	0.4548	0.1332	0.4427	-0.395
Mof_C 	C 	0.4085	0.0319	0.3781	-0.106
Mof_H 	H 	0.37784	0.05379	0.33569	0.011
Mof_C 	C 	0.4538	0.0673	0.4408	0.163
Mof_C 	C 	0.3971	0.384	0.2321	0.35
Mof_C 	C 	0.4199	0.4429	0.1785	-0.133
Mof_C 	C 	0.4805	0.3843	0.0405	-0.077
Mof_H 	H 	0.4663	0.34533	0.06685	0.052
Mof_C 	C 	0.4599	0.4419	0.0874	0.068
Mof_Li	Li	0.2883	0.1849	0.3853	6.208
Mof_O 	O 	0.32232	0.21496	0.0873	-0.701
Mof_O 	O 	0.2658	0.16183	0.2019	-1.665
Mof_O 	O 	0.19836	0.22332	0.6308	-1.893
Mof_O 	O 	0.24247	0.16055	0.5067	-2.062
Mof_O 	O 	0.41611	0.22117	0.3238	-0.689
Mof_O 	O 	0.36092	0.1555	0.4098	-1.762
Mof_O 	O 	0.38035	0.34161	0.146	-0.46
Mof_O 	O 	0.3947	0.3789	0.3531	-0.34
Mof_Zn	Zn	0.35423	0.26896	0.23699	1.183
Mof_C 	C 	0.788	0.6722	0.0982	0.811
Mof_C 	C 	0.7719	0.6334	0.9751	-0.419
Mof_C 	C 	0.7579	0.6651	0.8554	0.412
Mof_H 	H 	0.7598	0.70976	0.85455	-0.241
Mof_C 	C 	0.741	0.6335	0.7365	-0.656
Mof_C 	C 	0.7263	0.6738	0.6146	1.309
Mof_C 	C 	0.7399	0.5672	0.734	0.242
Mof_C 	C 	0.7232	0.5316	0.6136	-0.137
Mof_H 	H 	0.71195	0.55343	0.53229	0.031
Mof_C 	C 	0.7843	0.5319	0.0986	-0.092
Mof_H 	H 	0.79428	0.55366	0.18064	-0.022
Mof_C 	C 	0.7699	0.567	0.9795	0.173
Mof_C 	C 	0.7543	0.5338	0.8563	-0.13
Mof_C 	C 	0.9062	0.672	0.3881	0.894
Mof_C 	C 	0.9548	0.6332	0.4427	-0.389
Mof_C 	C 	0.9085	0.5319	0.3781	-0.101
Mof_H 	H 	0.87784	0.55379	0.33569	0.01
Mof_C 	C 	0.9538	0.5673	0.4408	0.162
Mof_C 	C 	0.8971	0.884	0.2321	0.348
Mof_C 	C 	0.9199	0.9429	0.1785	-0.128
Mof_C 	C 	0.9805	0.8843	0.0405	-0.067
Mof_H 	H 	0.9663	0.84533	0.06685	0.05
Mof_C 	C 	0.9599	0.9419	0.0874	0.063
Mof_Li	Li	0.7883	0.6849	0.3853	6.209
Mof_O 	O 	0.82232	0.71496	0.0873	-0.701
Mof_O 	O 	0.7658	0.66183	0.2019	-1.665
Mof_O 	O 	0.69836	0.72332	0.6308	-1.893
Mof_O 	O 	0.74247	0.66055	0.5067	-2.062
Mof_O 	O 	0.91611	0.72117	0.3238	-0.688
Mof_O 	O 	0.86092	0.6555	0.4098	-1.761
Mof_O 	O 	0.88035	0.84161	0.146	-0.459
Mof_O 	O 	0.8947	0.8789	0.3531	-0.339
Mof_Zn	Zn	0.85423	0.76896	0.23699	1.183
Mof_C 	C 	0.712	0.1722	0.9018	0.812
Mof_C 	C 	0.7281	0.1334	0.0249	-0.422
Mof_C 	C 	0.7421	0.1651	0.1446	0.414
Mof_H 	H 	0.7402	0.20976	0.14545	-0.242
Mof_C 	C 	0.759	0.1335	0.2635	-0.658
Mof_C 	C 	0.7737	0.1738	0.3854	1.31
Mof_C 	C 	0.7601	0.0672	0.266	0.245
Mof_C 	C 	0.7768	0.0316	0.3864	-0.142
Mof_H 	H 	0.78805	0.05343	0.46771	0.033
Mof_C 	C 	0.7157	0.0319	0.9014	-0.096
Mof_H 	H 	0.70572	0.05366	0.81936	-0.02
Mof_C 	C 	0.7301	0.067	0.0205	0.175
Mof_C 	C 	0.7457	0.0338	0.1437	-0.134
Mof_C 	C 	0.5938	0.172	0.6119	0.895
Mof_C 	C 	0.5452	0.1332	0.5573	-0.395
Mof_C 	C 	0.5915	0.0319	0.6219	-0.106
Mof_H 	H 	0.62216	0.05379	0.66431	0.011
Mof_C 	C 	0.5462	0.0673	0.5592	0.163
Mof_C 	C 	0.6029	0.384	0.7679	0.35
Mof_C 	C 	0.5801	0.4429	0.8215	-0.132
Mof_C 	C 	0.5195	0.3843	0.9595	-0.074
Mof_H 	H 	0.5337	0.34533	0.93315	0.052
Mof_C 	C 	0.5401	0.4419	0.9126	0.066
Mof_Li	Li	0.7117	0.1849	0.6147	6.209
Mof_O 	O 	0.67768	0.21496	0.9127	-0.701
Mof_O 	O 	0.7342	0.16183	0.7981	-1.665
Mof_O 	O 	0.80164	0.22332	0.3692	-1.893
Mof_O 	O 	0.75753	0.16055	0.4933	-2.062
Mof_O 	O 	0.58389	0.22117	0.6762	-0.689
Mof_O 	O 	0.63908	0.1555	0.5902	-1.762
Mof_O 	O 	0.61965	0.34161	0.854	-0.46
Mof_O 	O 	0.6053	0.3789	0.6469	-0.34
Mof_Zn	Zn	0.64577	0.26896	0.76301	1.183
Mof_C 	C 	0.212	0.6722	0.9018	0.811
Mof_C 	C 	0.2281	0.6334	0.0249	-0.42
Mof_C 	C 	0.2421	0.6651	0.1446	0.412
Mof_H 	H 	0.2402	0.70976	0.14545	-0.242
Mof_C 	C 	0.259	0.6335	0.2635	-0.656
Mof_C 	C 	0.2737	0.6738	0.3854	1.309
Mof_C 	C 	0.2601	0.5672	0.266	0.242
Mof_C 	C 	0.2768	0.5316	0.3864	-0.137
Mof_H 	H 	0.28805	0.55343	0.46771	0.031
Mof_C 	C 	0.2157	0.5319	0.9014	-0.091
Mof_H 	H 	0.20572	0.55366	0.81936	-0.022
Mof_C 	C 	0.2301	0.567	0.0205	0.172
Mof_C 	C 	0.2457	0.5338	0.1437	-0.13
Mof_C 	C 	0.0938	0.672	0.6119	0.894
Mof_C 	C 	0.0452	0.6332	0.5573	-0.392
Mof_C 	C 	0.0915	0.5319	0.6219	-0.101
Mof_H 	H 	0.12216	0.55379	0.66431	0.01
Mof_C 	C 	0.0462	0.5673	0.5592	0.16
Mof_C 	C 	0.1029	0.884	0.7679	0.35
Mof_C 	C 	0.0801	0.9429	0.8215	-0.133
Mof_C 	C 	0.0195	0.8843	0.9595	-0.085
Mof_H 	H 	0.0337	0.84533	0.93315	0.054
Mof_C 	C 	0.0401	0.9419	0.9126	0.073
Mof_Li	Li	0.2117	0.6849	0.6147	6.208
Mof_O 	O 	0.17768	0.71496	0.9127	-0.701
Mof_O 	O 	0.2342	0.66183	0.7981	-1.664
Mof_O 	O 	0.30164	0.72332	0.3692	-1.893
Mof_O 	O 	0.25753	0.66055	0.4933	-2.061
Mof_O 	O 	0.08389	0.72117	0.6762	-0.689
Mof_O 	O 	0.13908	0.6555	0.5902	-1.761
Mof_O 	O 	0.11965	0.84161	0.854	-0.46
Mof_O 	O 	0.1053	0.8789	0.6469	-0.341
Mof_Zn	Zn	0.14577	0.76896	0.76301	1.183
Mof_C 	C 	0.712	0.8278	0.9018	0.811
Mof_C 	C 	0.7281	0.8666	0.0249	-0.419
Mof_C 	C 	0.7421	0.8349	0.1446	0.411
Mof_H 	H 	0.7402	0.79024	0.14545	-0.241
Mof_C 	C 	0.759	0.8665	0.2635	-0.655
Mof_C 	C 	0.7737	0.8262	0.3854	1.309
Mof_C 	C 	0.7601	0.9328	0.266	0.239
Mof_C 	C 	0.7768	0.9684	0.3864	-0.132
Mof_H 	H 	0.78805	0.94657	0.46771	0.03
Mof_C 	C 	0.7157	0.9681	0.9014	-0.086
Mof_H 	H 	0.70572	0.94633	0.81936	-0.023
Mof_C 	C 	0.7301	0.933	0.0205	0.17
Mof_C 	C 	0.7457	0.9662	0.1437	-0.126
Mof_C 	C 	0.5938	0.828	0.6119	0.894
Mof_C 	C 	0.5452	0.8668	0.5573	-0.391
Mof_C 	C 	0.5915	0.9681	0.6219	-0.096
Mof_H 	H 	0.62216	0.94621	0.66431	0.008
Mof_C 	C 	0.5462	0.9327	0.5592	0.158
Mof_C 	C 	0.6029	0.616	0.7679	0.35
Mof_C 	C 	0.5801	0.5571	0.8215	-0.132
Mof_C 	C 	0.5195	0.6157	0.9595	-0.074
Mof_H 	H 	0.5337	0.65467	0.93315	0.052
Mof_C 	C 	0.5401	0.5581	0.9126	0.066
Mof_Li	Li	0.7117	0.8151	0.6147	6.21
Mof_O 	O 	0.67768	0.78504	0.9127	-0.701
Mof_O 	O 	0.7342	0.83817	0.7981	-1.664
Mof_O 	O 	0.80164	0.77668	0.3692	-1.892
Mof_O 	O 	0.75753	0.83945	0.4933	-2.061
Mof_O 	O 	0.58389	0.77883	0.6762	-0.689
Mof_O 	O 	0.63908	0.8445	0.5902	-1.761
Mof_O 	O 	0.61965	0.65839	0.854	-0.46
Mof_O 	O 	0.6053	0.6211	0.6469	-0.34
Mof_Zn	Zn	0.64577	0.73104	0.76301	1.183
Mof_C 	C 	0.212	0.3278	0.9018	0.811
Mof_C 	C 	0.2281	0.3666	0.0249	-0.42
Mof_C 	C 	0.2421	0.3349	0.1446	0.412
Mof_H 	H 	0.2402	0.29024	0.14545	-0.242
Mof_C 	C 	0.259	0.3665	0.2635	-0.656
Mof_C 	C 	0.2737	0.3262	0.3854	1.309
Mof_C 	C 	0.2601	0.4328	0.266	0.242
Mof_C 	C 	0.2768	0.4684	0.3864	-0.137
Mof_H 	H 	0.28805	0.44657	0.46771	0.031
Mof_C 	C 	0.2157	0.4681	0.9014	-0.091
Mof_H 	H 	0.20572	0.44633	0.81936	-0.022
Mof_C 	C 	0.2301	0.433	0.0205	0.172
Mof_C 	C 	0.2457	0.4662	0.1437	-0.13
Mof_C 	C 	0.0938	0.328	0.6119	0.894
Mof_C 	C 	0.0452	0.3668	0.5573	-0.392
Mof_C 	C 	0.0915	0.4681	0.6219	-0.101
Mof_H 	H 	0.12216	0.44621	0.66431	0.01
Mof_C 	C 	0.0462	0.4327	0.5592	0.16
Mof_C 	C 	0.1029	0.116	0.7679	0.35
Mof_C 	C 	0.0801	0.0571	0.8215	-0.135
Mof_C 	C 	0.0195	0.1157	0.9595	-0.085
Mof_H 	H 	0.0337	0.15467	0.93315	0.054
Mof_C 	C 	0.0401	0.0581	0.9126	0.072
Mof_Li	Li	0.2117	0.3151	0.6147	6.209
Mof_O 	O 	0.17768	0.28504	0.9127	-0.701
Mof_O 	O 	0.2342	0.33817	0.7981	-1.665
Mof_O 	O 	0.30164	0.27668	0.3692	-1.892
Mof_O 	O 	0.25753	0.33945	0.4933	-2.061
Mof_O 	O 	0.08389	0.27883	0.6762	-0.689
Mof_O 	O 	0.13908	0.3445	0.5902	-1.761
Mof_O 	O 	0.11965	0.15839	0.854	-0.46
Mof_O 	O 	0.1053	0.1211	0.6469	-0.341
Mof_Zn	Zn	0.14577	0.23104	0.76301	1.183
Mof_C 	C 	0.288	0.8278	0.0982	0.81
Mof_C 	C 	0.2719	0.8666	0.9751	-0.418
Mof_C 	C 	0.2579	0.8349	0.8554	0.41
Mof_H 	H 	0.2598	0.79024	0.85455	-0.241
Mof_C 	C 	0.241	0.8665	0.7365	-0.655
Mof_C 	C 	0.2263	0.8262	0.6146	1.308
Mof_C 	C 	0.2399	0.9328	0.734	0.239
Mof_C 	C 	0.2232	0.9684	0.6136	-0.132
Mof_H 	H 	0.21195	0.94657	0.53229	0.03
Mof_C 	C 	0.2843	0.9681	0.0986	-0.087
Mof_H 	H 	0.29428	0.94633	0.18064	-0.023
Mof_C 	C 	0.2699	0.933	0.9795	0.17
Mof_C 	C 	0.2543	0.9662	0.8563	-0.126
Mof_C 	C 	0.4062	0.828	0.3881	0.894
Mof_C 	C 	0.4548	0.8668	0.4427	-0.391
Mof_C 	C 	0.4085	0.9681	0.3781	-0.096
Mof_H 	H 	0.37784	0.94621	0.33569	0.008
Mof_C 	C 	0.4538	0.9327	0.4408	0.158
Mof_C 	C 	0.3971	0.616	0.2321	0.35
Mof_C 	C 	0.4199	0.5571	0.1785	-0.133
Mof_C 	C 	0.4805	0.6157	0.0405	-0.077
Mof_H 	H 	0.4663	0.65467	0.06685	0.052
Mof_C 	C 	0.4599	0.5581	0.0874	0.068
Mof_Li	Li	0.2883	0.8151	0.3853	6.209
Mof_O 	O 	0.32232	0.78504	0.0873	-0.701
Mof_O 	O 	0.2658	0.83817	0.2019	-1.664
Mof_O 	O 	0.19836	0.77668	0.6308	-1.892
Mof_O 	O 	0.24247	0.83945	0.5067	-2.061
Mof_O 	O 	0.41611	0.77883	0.3238	-0.689
Mof_O 	O 	0.36092	0.8445	0.4098	-1.761
Mof_O 	O 	0.38035	0.65839	0.146	-0.46
Mof_O 	O 	0.3947	0.6211	0.3531	-0.34
Mof_Zn	Zn	0.35423	0.73104	0.23699	1.183
Mof_C 	C 	0.788	0.3278	0.0982	0.811
Mof_C 	C 	0.7719	0.3666	0.9751	-0.419
Mof_C 	C 	0.7579	0.3349	0.8554	0.412
Mof_H 	H 	0.7598	0.29024	0.85455	-0.241
Mof_C 	C 	0.741	0.3665	0.7365	-0.656
Mof_C 	C 	0.7263	0.3262	0.6146	1.309
Mof_C 	C 	0.7399	0.4328	0.734	0.242
Mof_C 	C 	0.7232	0.4684	0.6136	-0.137
Mof_H 	H 	0.71195	0.44657	0.53229	0.031
Mof_C 	C 	0.7843	0.4681	0.0986	-0.092
Mof_H 	H 	0.79428	0.44633	0.18064	-0.022
Mof_C 	C 	0.7699	0.433	0.9795	0.173
Mof_C 	C 	0.7543	0.4662	0.8563	-0.13
Mof_C 	C 	0.9062	0.328	0.3881	0.894
Mof_C 	C 	0.9548	0.3668	0.4427	-0.389
Mof_C 	C 	0.9085	0.4681	0.3781	-0.101
Mof_H 	H 	0.87784	0.44621	0.33569	0.01
Mof_C 	C 	0.9538	0.4327	0.4408	0.162
Mof_C 	C 	0.8971	0.116	0.2321	0.349
Mof_C 	C 	0.9199	0.0571	0.1785	-0.129
Mof_C 	C 	0.9805	0.1157	0.0405	-0.067
Mof_H 	H 	0.9663	0.15467	0.06685	0.05
Mof_C 	C 	0.9599	0.0581	0.0874	0.062
Mof_Li	Li	0.7883	0.3151	0.3853	6.209
Mof_O 	O 	0.82232	0.28504	0.0873	-0.701
Mof_O 	O 	0.7658	0.33817	0.2019	-1.665
Mof_O 	O 	0.69836	0.27668	0.6308	-1.893
Mof_O 	O 	0.74247	0.33945	0.5067	-2.062
Mof_O 	O 	0.91611	0.27883	0.3238	-0.688
Mof_O 	O 	0.86092	0.3445	0.4098	-1.761
Mof_O 	O 	0.88035	0.15839	0.146	-0.46
Mof_O 	O 	0.8947	0.1211	0.3531	-0.34
Mof_Zn	Zn	0.85423	0.23104	0.23699	1.183
Mof_C 	C 	0.5	0.165	0.5	0.276
Mof_H 	H 	0.5	0.2097	0.5	-0.084
Mof_C 	C 	0.5	0.0337	0.5	-0.11
Mof_C 	C 	8.45679e-34	0.665	0.5	0.27
Mof_H 	H 	-5.3746e-18	0.7097	0.5	-0.083
Mof_C 	C 	8.45679e-34	0.5337	0.5	-0.108
Mof_C 	C 	0.5	0.835	0.5	0.273
Mof_H 	H 	0.5	0.7903	0.5	-0.083
Mof_C 	C 	0.5	0.9663	0.5	-0.101
Mof_C 	C 	8.45679e-34	0.335	0.5	0.27
Mof_H 	H 	-5.3746e-18	0.2903	0.5	-0.083
Mof_C 	C 	-5.3746e-18	0.4663	0.5	-0.108
Mof_C 	C 	0.4032	0.5	0.2239	0.065
Mof_H 	H 	0.37899	0.5	0.28968	0.026
Mof_C 	C 	0.4795	0.5	0.0445	-0.041
Mof_C 	C 	0.9032	0	0.2239	0.059
Mof_H 	H 	0.87899	-1.1934e-33	0.28968	0.027
Mof_C 	C 	0.9795	0	0.0445	-0.034
Mof_C 	C 	0.5968	0.5	0.7761	0.064
Mof_H 	H 	0.62101	0.5	0.71032	0.026
Mof_C 	C 	0.5205	0.5	0.9555	-0.039
Mof_C 	C 	0.0968	0	0.7761	0.064
Mof_H 	H 	0.12101	0	0.71032	0.025
Mof_C 	C 	0.0205	4.77361e-33	0.9555	-0.049
_end
