data_functionalizedCrystal
_audit_creation_method	'EQeq! by Chris Wilmer'
_symmetry_space_group_name_H-M	'P1'
_symmetry_Int_Tables_number	1
_symmetry_cell_setting	triclinic
loop_
_symmetry_equiv_pos_as_xyz
  x,y,z
_cell_length_a	12.9706
_cell_length_b	12.9706
_cell_length_c	17.615
_cell_angle_alpha	90
_cell_angle_beta	90
_cell_angle_gamma	120
loop_
_atom_site_label
_atom_site_type_symbol
_atom_site_fract_x
_atom_site_fract_y
_atom_site_fract_z
_atom_site_charge
Mof_C 	C 	0.8773	0.3309	0.1392	0.443
Mof_C 	C 	0.901	0.284	0.212	-0.195
Mof_H 	H 	0.958	0.3493	0.2434	0.093
Mof_H 	H 	0.9307	0.2307	0.2015	0.097
Mof_O 	O 	0.9463	0.3523	0.0849	-0.321
Mof_O 	O 	0.8224	0.3844	0.153	-0.54
Mof_C 	C 	0.819	0.19	0.172	-0.048
Mof_H 	H 	0.7518	0.1328	0.1422	0.045
Mof_H 	H 	0.8775	0.1654	0.1776	0.017
Mof_C 	C 	0.6691	0.5464	0.1392	0.437
Mof_C 	C 	0.716	0.617	0.212	-0.152
Mof_H 	H 	0.6507	0.6087	0.2434	0.053
Mof_H 	H 	0.7693	0.7	0.2015	0.074
Mof_O 	O 	0.6477	0.594	0.0849	-0.331
Mof_O 	O 	0.6156	0.438	0.153	-0.543
Mof_C 	C 	0.81	0.629	0.172	-0.084
Mof_H 	H 	0.8672	0.619	0.1422	0.071
Mof_H 	H 	0.8346	0.7121	0.1776	0.042
Mof_C 	C 	0.4536	0.1227	0.1392	0.425
Mof_C 	C 	0.383	0.099	0.212	-0.111
Mof_H 	H 	0.3913	0.042	0.2434	0.015
Mof_H 	H 	0.3	0.0693	0.2015	0.05
Mof_O 	O 	0.406	0.0537	0.0849	-0.34
Mof_O 	O 	0.562	0.1776	0.153	-0.543
Mof_C 	C 	0.371	0.181	0.172	-0.097
Mof_H 	H 	0.381	0.2482	0.1422	0.066
Mof_H 	H 	0.2879	0.1225	0.1776	0.039
Mof_C 	C 	0.1227	0.6691	0.1392	0.427
Mof_C 	C 	0.099	0.716	0.212	-0.11
Mof_H 	H 	0.042	0.6507	0.2434	0.014
Mof_H 	H 	0.0693	0.7693	0.2015	0.05
Mof_O 	O 	0.0537	0.6477	0.0849	-0.338
Mof_O 	O 	0.1776	0.6156	0.153	-0.543
Mof_C 	C 	0.181	0.81	0.172	-0.105
Mof_H 	H 	0.2482	0.8672	0.1422	0.077
Mof_H 	H 	0.1225	0.8346	0.1776	0.049
Mof_C 	C 	0.3309	0.4536	0.1392	0.434
Mof_C 	C 	0.284	0.383	0.212	-0.155
Mof_H 	H 	0.3493	0.3913	0.2434	0.053
Mof_H 	H 	0.2307	0.3	0.2015	0.073
Mof_O 	O 	0.3523	0.406	0.0849	-0.336
Mof_O 	O 	0.3844	0.562	0.153	-0.543
Mof_C 	C 	0.19	0.371	0.172	-0.069
Mof_H 	H 	0.1328	0.381	0.1422	0.05
Mof_H 	H 	0.1654	0.2879	0.1776	0.024
Mof_C 	C 	0.5464	0.8773	0.1392	0.444
Mof_C 	C 	0.617	0.901	0.212	-0.195
Mof_H 	H 	0.6087	0.958	0.2434	0.091
Mof_H 	H 	0.7	0.9307	0.2015	0.097
Mof_O 	O 	0.594	0.9463	0.0849	-0.318
Mof_O 	O 	0.438	0.8224	0.153	-0.54
Mof_C 	C 	0.629	0.819	0.172	-0.055
Mof_H 	H 	0.619	0.7518	0.1422	0.054
Mof_H 	H 	0.7121	0.8775	0.1776	0.026
Mof_C 	C 	0.3309	0.8773	0.3608	0.442
Mof_C 	C 	0.284	0.901	0.288	-0.194
Mof_H 	H 	0.3493	0.958	0.2566	0.091
Mof_H 	H 	0.2307	0.9307	0.2985	0.096
Mof_O 	O 	0.3523	0.9463	0.4151	-0.31
Mof_O 	O 	0.3844	0.8224	0.347	-0.537
Mof_C 	C 	0.19	0.819	0.328	-0.048
Mof_H 	H 	0.1328	0.7518	0.3578	0.049
Mof_H 	H 	0.1654	0.8775	0.3224	0.021
Mof_C 	C 	0.5464	0.6691	0.3608	0.437
Mof_C 	C 	0.617	0.716	0.288	-0.15
Mof_H 	H 	0.6087	0.6507	0.2566	0.052
Mof_H 	H 	0.7	0.7693	0.2985	0.074
Mof_O 	O 	0.594	0.6477	0.4151	-0.321
Mof_O 	O 	0.438	0.6156	0.347	-0.54
Mof_C 	C 	0.629	0.81	0.328	-0.084
Mof_H 	H 	0.619	0.8672	0.3578	0.075
Mof_H 	H 	0.7121	0.8346	0.3224	0.045
Mof_C 	C 	0.1227	0.4536	0.3608	0.425
Mof_C 	C 	0.099	0.383	0.288	-0.11
Mof_H 	H 	0.042	0.3913	0.2566	0.014
Mof_H 	H 	0.0693	0.3	0.2985	0.049
Mof_O 	O 	0.0537	0.406	0.4151	-0.33
Mof_O 	O 	0.1776	0.562	0.347	-0.539
Mof_C 	C 	0.181	0.371	0.328	-0.098
Mof_H 	H 	0.2482	0.381	0.3578	0.07
Mof_H 	H 	0.1225	0.2879	0.3224	0.043
Mof_C 	C 	0.6691	0.1227	0.3608	0.426
Mof_C 	C 	0.716	0.099	0.288	-0.108
Mof_H 	H 	0.6507	0.042	0.2566	0.013
Mof_H 	H 	0.7693	0.0693	0.2985	0.05
Mof_O 	O 	0.6477	0.0537	0.4151	-0.327
Mof_O 	O 	0.6156	0.1776	0.347	-0.54
Mof_C 	C 	0.81	0.181	0.328	-0.106
Mof_H 	H 	0.8672	0.2482	0.3578	0.081
Mof_H 	H 	0.8346	0.1225	0.3224	0.052
Mof_C 	C 	0.4536	0.3309	0.3608	0.434
Mof_C 	C 	0.383	0.284	0.288	-0.153
Mof_H 	H 	0.3913	0.3493	0.2566	0.052
Mof_H 	H 	0.3	0.2307	0.2985	0.073
Mof_O 	O 	0.406	0.3523	0.4151	-0.326
Mof_O 	O 	0.562	0.3844	0.347	-0.539
Mof_C 	C 	0.371	0.19	0.328	-0.07
Mof_H 	H 	0.381	0.1328	0.3578	0.055
Mof_H 	H 	0.2879	0.1654	0.3224	0.027
Mof_C 	C 	0.8773	0.5464	0.3608	0.444
Mof_C 	C 	0.901	0.617	0.288	-0.193
Mof_H 	H 	0.958	0.6087	0.2566	0.091
Mof_H 	H 	0.9307	0.7	0.2985	0.097
Mof_O 	O 	0.9463	0.594	0.4151	-0.308
Mof_O 	O 	0.8224	0.438	0.347	-0.537
Mof_C 	C 	0.819	0.629	0.328	-0.055
Mof_H 	H 	0.7518	0.619	0.3578	0.059
Mof_H 	H 	0.8775	0.7121	0.3224	0.03
Mof_C 	C 	0.1227	0.6691	0.8608	0.422
Mof_C 	C 	0.099	0.716	0.788	-0.102
Mof_H 	H 	0.042	0.6507	0.7566	0.012
Mof_H 	H 	0.0693	0.7693	0.7985	0.048
Mof_O 	O 	0.0537	0.6477	0.9151	-0.295
Mof_O 	O 	0.1776	0.6156	0.847	-0.529
Mof_C 	C 	0.181	0.81	0.828	-0.108
Mof_H 	H 	0.2482	0.8672	0.8578	0.089
Mof_H 	H 	0.1225	0.8346	0.8224	0.057
Mof_C 	C 	0.3309	0.4536	0.8608	0.429
Mof_C 	C 	0.284	0.383	0.788	-0.146
Mof_H 	H 	0.3493	0.3913	0.7566	0.05
Mof_H 	H 	0.2307	0.3	0.7985	0.071
Mof_O 	O 	0.3523	0.406	0.9151	-0.293
Mof_O 	O 	0.3844	0.562	0.847	-0.528
Mof_C 	C 	0.19	0.371	0.828	-0.073
Mof_H 	H 	0.1328	0.381	0.8578	0.063
Mof_H 	H 	0.1654	0.2879	0.8224	0.033
Mof_C 	C 	0.5464	0.8773	0.8608	0.439
Mof_C 	C 	0.617	0.901	0.788	-0.186
Mof_H 	H 	0.6087	0.958	0.7566	0.087
Mof_H 	H 	0.7	0.9307	0.7985	0.094
Mof_O 	O 	0.594	0.9463	0.9151	-0.277
Mof_O 	O 	0.438	0.8224	0.847	-0.526
Mof_C 	C 	0.629	0.819	0.828	-0.059
Mof_H 	H 	0.619	0.7518	0.8578	0.067
Mof_H 	H 	0.7121	0.8775	0.8224	0.035
Mof_C 	C 	0.8773	0.3309	0.8608	0.437
Mof_C 	C 	0.901	0.284	0.788	-0.186
Mof_H 	H 	0.958	0.3493	0.7566	0.087
Mof_H 	H 	0.9307	0.2307	0.7985	0.094
Mof_O 	O 	0.9463	0.3523	0.9151	-0.279
Mof_O 	O 	0.8224	0.3844	0.847	-0.526
Mof_C 	C 	0.819	0.19	0.828	-0.052
Mof_H 	H 	0.7518	0.1328	0.8578	0.058
Mof_H 	H 	0.8775	0.1654	0.8224	0.026
Mof_C 	C 	0.6691	0.5464	0.8608	0.432
Mof_C 	C 	0.716	0.617	0.788	-0.144
Mof_H 	H 	0.6507	0.6087	0.7566	0.049
Mof_H 	H 	0.7693	0.7	0.7985	0.072
Mof_O 	O 	0.6477	0.594	0.9151	-0.289
Mof_O 	O 	0.6156	0.438	0.847	-0.529
Mof_C 	C 	0.81	0.629	0.828	-0.087
Mof_H 	H 	0.8672	0.619	0.8578	0.083
Mof_H 	H 	0.8346	0.7121	0.8224	0.051
Mof_C 	C 	0.4536	0.1227	0.8608	0.42
Mof_C 	C 	0.383	0.099	0.788	-0.104
Mof_H 	H 	0.3913	0.042	0.7566	0.012
Mof_H 	H 	0.3	0.0693	0.7985	0.048
Mof_O 	O 	0.406	0.0537	0.9151	-0.298
Mof_O 	O 	0.562	0.1776	0.847	-0.529
Mof_C 	C 	0.371	0.181	0.828	-0.1
Mof_H 	H 	0.381	0.2482	0.8578	0.078
Mof_H 	H 	0.2879	0.1225	0.8224	0.048
Mof_C 	C 	0.6691	0.1227	0.6392	0.427
Mof_C 	C 	0.716	0.099	0.712	-0.11
Mof_H 	H 	0.6507	0.042	0.7434	0.015
Mof_H 	H 	0.7693	0.0693	0.7015	0.051
Mof_O 	O 	0.6477	0.0537	0.5849	-0.327
Mof_O 	O 	0.6156	0.1776	0.653	-0.54
Mof_C 	C 	0.81	0.181	0.672	-0.105
Mof_H 	H 	0.8672	0.2482	0.6422	0.081
Mof_H 	H 	0.8346	0.1225	0.6776	0.052
Mof_C 	C 	0.4536	0.3309	0.6392	0.434
Mof_C 	C 	0.383	0.284	0.712	-0.154
Mof_H 	H 	0.3913	0.3493	0.7434	0.054
Mof_H 	H 	0.3	0.2307	0.7015	0.074
Mof_O 	O 	0.406	0.3523	0.5849	-0.326
Mof_O 	O 	0.562	0.3844	0.653	-0.54
Mof_C 	C 	0.371	0.19	0.672	-0.07
Mof_H 	H 	0.381	0.1328	0.6422	0.055
Mof_H 	H 	0.2879	0.1654	0.6776	0.027
Mof_C 	C 	0.8773	0.5464	0.6392	0.444
Mof_C 	C 	0.901	0.617	0.712	-0.193
Mof_H 	H 	0.958	0.6087	0.7434	0.091
Mof_H 	H 	0.9307	0.7	0.7015	0.097
Mof_O 	O 	0.9463	0.594	0.5849	-0.308
Mof_O 	O 	0.8224	0.438	0.653	-0.538
Mof_C 	C 	0.819	0.629	0.672	-0.056
Mof_H 	H 	0.7518	0.619	0.6422	0.059
Mof_H 	H 	0.8775	0.7121	0.6776	0.03
Mof_C 	C 	0.3309	0.8773	0.6392	0.442
Mof_C 	C 	0.284	0.901	0.712	-0.194
Mof_H 	H 	0.3493	0.958	0.7434	0.091
Mof_H 	H 	0.2307	0.9307	0.7015	0.096
Mof_O 	O 	0.3523	0.9463	0.5849	-0.31
Mof_O 	O 	0.3844	0.8224	0.653	-0.537
Mof_C 	C 	0.19	0.819	0.672	-0.049
Mof_H 	H 	0.1328	0.7518	0.6422	0.049
Mof_H 	H 	0.1654	0.8775	0.6776	0.021
Mof_C 	C 	0.5464	0.6691	0.6392	0.438
Mof_C 	C 	0.617	0.716	0.712	-0.151
Mof_H 	H 	0.6087	0.6507	0.7434	0.053
Mof_H 	H 	0.7	0.7693	0.7015	0.075
Mof_O 	O 	0.594	0.6477	0.5849	-0.321
Mof_O 	O 	0.438	0.6156	0.653	-0.54
Mof_C 	C 	0.629	0.81	0.672	-0.084
Mof_H 	H 	0.619	0.8672	0.6422	0.075
Mof_H 	H 	0.7121	0.8346	0.6776	0.046
Mof_C 	C 	0.1227	0.4536	0.6392	0.425
Mof_C 	C 	0.099	0.383	0.712	-0.112
Mof_H 	H 	0.042	0.3913	0.7434	0.016
Mof_H 	H 	0.0693	0.3	0.7015	0.051
Mof_O 	O 	0.0537	0.406	0.5849	-0.33
Mof_O 	O 	0.1776	0.562	0.653	-0.54
Mof_C 	C 	0.181	0.371	0.672	-0.097
Mof_H 	H 	0.2482	0.381	0.6422	0.07
Mof_H 	H 	0.1225	0.2879	0.6776	0.043
Mof_Pr	Pr	0.66667	0.33333	0.25	2.809
Mof_Pr	Pr	0.33333	0.66667	0.25	2.809
Mof_Pr	Pr	0.33333	0.66667	0.75	2.814
Mof_Pr	Pr	0.66667	0.33333	0.75	2.814
Mof_O 	O 	0.7803	0.2197	0.25	-0.322
Mof_O 	O 	0.7803	0.5606	0.25	-0.317
Mof_O 	O 	0.4394	0.2197	0.25	-0.327
Mof_O 	O 	0.2197	0.7803	0.25	-0.322
Mof_O 	O 	0.2197	0.4394	0.25	-0.327
Mof_O 	O 	0.5606	0.7803	0.25	-0.317
Mof_O 	O 	0.2197	0.7803	0.75	-0.323
Mof_O 	O 	0.2197	0.4394	0.75	-0.328
Mof_O 	O 	0.5606	0.7803	0.75	-0.318
Mof_O 	O 	0.7803	0.2197	0.75	-0.323
Mof_O 	O 	0.7803	0.5606	0.75	-0.318
Mof_O 	O 	0.4394	0.2197	0.75	-0.328
Mof_Cd	Cd	-0	0.5	-0	0.406
Mof_Cd	Cd	0.5	0.5	-0	0.432
Mof_Cd	Cd	0.5	0	-0	0.406
Mof_Cd	Cd	0.5	-9.83597e-33	0.5	0.465
Mof_Cd	Cd	0.5	0.5	0.5	0.492
Mof_Cd	Cd	-3.88606e-17	0.5	0.5	0.465
_end
