# CIF file generated by openbabel 3.1.0, see https://openbabel.org
data_I
_chemical_name_common 'image0'
_cell_length_a 9.9445
_cell_length_b 18.5391
_cell_length_c 20.2889
_cell_angle_alpha 88.904
_cell_angle_beta 83.648
_cell_angle_gamma 86.713
_space_group_name_H-M_alt 'P 1'
_space_group_name_Hall 'P 1'
loop_
    _symmetry_equiv_pos_as_xyz
    x,y,z
loop_
    _atom_site_label
    _atom_site_type_symbol
    _atom_site_fract_x
    _atom_site_fract_y
    _atom_site_fract_z
    _atom_site_occupancy
    Ba1      Ba       0.04270    0.24190    0.57638    1.000
    Cd1      Cd       0.61289    0.45305    0.03887    1.000
    Cd2      Cd       0.89934    0.95876    0.45562    1.000
    C1       C        0.01560    0.11490    0.41570    1.000
    C2       C        0.03530    0.16790    0.35880    1.000
    C3       C        0.11410    0.22720    0.36310    1.000
    H1       H        0.15630    0.23430    0.40200    1.000
    C4       C        0.13040    0.27560    0.31050    1.000
    H2       H        0.18460    0.31570    0.31360    1.000
    C5       C        0.06850    0.26640    0.25310    1.000
    C6       C        0.99300    0.20620    0.24880    1.000
    H3       H        0.95360    0.19830    0.20920    1.000
    C7       C        0.97430    0.15760    0.30120    1.000
    H4       H        0.92020    0.11750    0.29800    1.000
    C8       C        0.08040    0.31880    0.19740    1.000
    C9       C        0.20660    0.34620    0.17500    1.000
    H5       H        0.28370    0.33220    0.19700    1.000
    C10      C        0.21990    0.39360    0.12090    1.000
    C11      C        0.10840    0.41620    0.08930    1.000
    H6       H        0.11660    0.44910    0.05290    1.000
    C12      C        0.98290    0.38920    0.11240    1.000
    C13      C        0.97110    0.34150    0.16460    1.000
    H7       H        0.88500    0.32340    0.17860    1.000
    C14      C        0.85840    0.41500    0.07930    1.000
    C15      C        0.35750    0.41610    0.09300    1.000
    C16      C        0.52830    0.39780    0.90430    1.000
    C17      C        0.53470    0.34070    0.85160    1.000
    C18      C        0.45360    0.34850    0.80270    1.000
    H8       H        0.39200    0.38960    0.80220    1.000
    C19      C        0.45820    0.29700    0.75230    1.000
    H9       H        0.40150    0.30390    0.71770    1.000
    C20      C        0.54580    0.23610    0.75330    1.000
    C21      C        0.62270    0.22690    0.80510    1.000
    H10      H        0.68020    0.18450    0.80760    1.000
    C22      C        0.61790    0.27840    0.85380    1.000
    H11      H        0.67240    0.27100    0.88930    1.000
    C23      C        0.55260    0.18330    0.69960    1.000
    C24      C        0.43540    0.16350    0.67490    1.000
    H12      H        0.35020    0.18560    0.69160    1.000
    C25      C        0.44200    0.11080    0.62530    1.000
    C26      C        0.56560    0.07950    0.59930    1.000
    H13      H        0.56980    0.04400    0.56590    1.000
    C27      C        0.68420    0.10060    0.62260    1.000
    C28      C        0.67730    0.15120    0.67290    1.000
    H14      H        0.75830    0.16410    0.68940    1.000
    C29      C        0.81910    0.07060    0.59010    1.000
    C30      C        0.31550    0.08730    0.59840    1.000
    O1       O        0.92970    0.06770    0.41040    1.000
    O2       O        0.08120    0.12300    0.46310    1.000
    O3       O        0.76300    0.37180    0.08250    1.000
    O4       O        0.85390    0.47410    0.05160    1.000
    O5       O        0.36480    0.45120    0.03890    1.000
    O6       O        0.45890    0.39600    0.12020    1.000
    O7       O        0.61120    0.38760    0.94780    1.000
    O8       O        0.44160    0.44780    0.89970    1.000
    O9       O        0.92320    0.09440    0.60620    1.000
    O10      O        0.81730    0.02250    0.55020    1.000
    O11      O        0.32060    0.03340    0.56710    1.000
    O12      O        0.21070    0.12560    0.60990    1.000
    Ba2      Ba       0.95730    0.75810    0.42362    1.000
    Cd3      Cd       0.38711    0.54695    0.96113    1.000
    Cd4      Cd       0.10066    0.04124    0.54438    1.000
    C31      C        0.98440    0.88510    0.58430    1.000
    C32      C        0.96470    0.83210    0.64120    1.000
    C33      C        0.88590    0.77280    0.63690    1.000
    H15      H        0.84370    0.76570    0.59800    1.000
    C34      C        0.86960    0.72440    0.68950    1.000
    H16      H        0.81540    0.68430    0.68640    1.000
    C35      C        0.93150    0.73360    0.74690    1.000
    C36      C        0.00700    0.79380    0.75120    1.000
    H17      H        0.04640    0.80170    0.79080    1.000
    C37      C        0.02570    0.84240    0.69880    1.000
    H18      H        0.07980    0.88250    0.70200    1.000
    C38      C        0.91960    0.68120    0.80260    1.000
    C39      C        0.79340    0.65380    0.82500    1.000
    H19      H        0.71630    0.66780    0.80300    1.000
    C40      C        0.78010    0.60640    0.87910    1.000
    C41      C        0.89160    0.58380    0.91070    1.000
    H20      H        0.88340    0.55090    0.94710    1.000
    C42      C        0.01710    0.61080    0.88760    1.000
    C43      C        0.02890    0.65850    0.83540    1.000
    H21      H        0.11500    0.67660    0.82140    1.000
    C44      C        0.14160    0.58500    0.92070    1.000
    C45      C        0.64250    0.58390    0.90700    1.000
    C46      C        0.47170    0.60220    0.09570    1.000
    C47      C        0.46530    0.65930    0.14840    1.000
    C48      C        0.54640    0.65150    0.19730    1.000
    H22      H        0.60800    0.61040    0.19780    1.000
    C49      C        0.54180    0.70300    0.24770    1.000
    H23      H        0.59850    0.69610    0.28230    1.000
    C50      C        0.45420    0.76390    0.24670    1.000
    C51      C        0.37730    0.77310    0.19490    1.000
    H24      H        0.31980    0.81550    0.19240    1.000
    C52      C        0.38210    0.72160    0.14620    1.000
    H25      H        0.32760    0.72900    0.11070    1.000
    C53      C        0.44740    0.81670    0.30040    1.000
    C54      C        0.56460    0.83650    0.32510    1.000
    H26      H        0.64980    0.81440    0.30840    1.000
    C55      C        0.55800    0.88920    0.37470    1.000
    C56      C        0.43440    0.92050    0.40070    1.000
    H27      H        0.43020    0.95600    0.43410    1.000
    C57      C        0.31580    0.89940    0.37740    1.000
    C58      C        0.32270    0.84880    0.32710    1.000
    H28      H        0.24170    0.83590    0.31060    1.000
    C59      C        0.18090    0.92940    0.40990    1.000
    C60      C        0.68450    0.91270    0.40160    1.000
    O13      O        0.07030    0.93230    0.58960    1.000
    O14      O        0.91880    0.87700    0.53690    1.000
    O15      O        0.23700    0.62820    0.91750    1.000
    O16      O        0.14610    0.52590    0.94840    1.000
    O17      O        0.63520    0.54880    0.96110    1.000
    O18      O        0.54110    0.60400    0.87980    1.000
    O19      O        0.38880    0.61240    0.05220    1.000
    O20      O        0.55840    0.55220    0.10030    1.000
    O21      O        0.07680    0.90560    0.39380    1.000
    O22      O        0.18270    0.97750    0.44980    1.000
    O23      O        0.67940    0.96660    0.43290    1.000
    O24      O        0.78930    0.87440    0.39010    1.000
    Cd5      Cd       0.41284    0.97102    0.01904    1.000
    C61      C        0.04170    0.60460    0.09550    1.000
    H29      H        0.00740    0.56000    0.08040    1.000
    H30      H        0.13600    0.60860    0.07650    1.000
    H31      H        0.03700    0.60370    0.14410    1.000
    C62      C        0.83250    0.65960    0.06060    1.000
    H32      H        0.79720    0.61300    0.06280    1.000
    C63      C        0.75480    0.71920    0.04390    1.000
    H33      H        0.66520    0.71290    0.03380    1.000
    C64      C        0.80150    0.78800    0.04100    1.000
    C65      C        0.93410    0.79330    0.05540    1.000
    H34      H        0.97210    0.83920    0.05520    1.000
    C66      C        0.00710    0.73430    0.06950    1.000
    H35      H        0.09880    0.73860    0.07710    1.000
    C67      C        0.67040    0.89880    0.08320    1.000
    C68      C        0.70560    0.88420    0.14930    1.000
    H36      H        0.75940    0.84420    0.16360    1.000
    C69      C        0.64710    0.93860    0.18630    1.000
    H37      H        0.65190    0.94420    0.23240    1.000
    C70      C        0.57500    0.98750    0.14420    1.000
    C71      C        0.71110    0.85280    0.02660    1.000
    C72      C        0.67950    0.86210    0.96170    1.000
    C73      C        0.72630    0.81640    0.90690    1.000
    H38      H        0.78750    0.77520    0.90810    1.000
    C74      C        0.66860    0.84180    0.85360    1.000
    H39      H        0.67890    0.82110    0.81070    1.000
    C75      C        0.58730    0.90710    0.87410    1.000
    C76      C        0.49450    0.04980    0.16430    1.000
    C77      C        0.49550    0.06920    0.23490    1.000
    C78      C        0.37520    0.07490    0.27950    1.000
    H40      H        0.28990    0.06730    0.26470    1.000
    C79      C        0.38390    0.09150    0.34490    1.000
    H41      H        0.30320    0.09670    0.37450    1.000
    C80      C        0.50290    0.11710    0.43740    1.000
    H42      H        0.45500    0.08050    0.46480    1.000
    H43      H        0.45800    0.16480    0.44660    1.000
    H44      H        0.59690    0.11700    0.44770    1.000
    C81      C        0.61700    0.09650    0.32590    1.000
    H45      H        0.70080    0.10420    0.34230    1.000
    C82      C        0.61480    0.08150    0.26100    1.000
    H46      H        0.69750    0.07950    0.23250    1.000
    Cl1      Cl       0.22000    0.89910    0.06720    1.000
    N1       N        0.59230    0.91560    0.94040    1.000
    N2       N        0.59700    0.96150    0.08020    1.000
    N3       N        0.95690    0.66840    0.07350    1.000
    N4       N        0.50130    0.10050    0.36720    1.000
    Cd6      Cd       0.58716    0.02898    0.98096    1.000
    C83      C        0.95830    0.39540    0.90450    1.000
    H47      H        0.99260    0.44000    0.91960    1.000
    H48      H        0.86400    0.39140    0.92350    1.000
    H49      H        0.96300    0.39630    0.85590    1.000
    C84      C        0.16750    0.34040    0.93940    1.000
    H50      H        0.20280    0.38700    0.93720    1.000
    C85      C        0.24520    0.28080    0.95610    1.000
    H51      H        0.33480    0.28710    0.96620    1.000
    C86      C        0.19850    0.21200    0.95900    1.000
    C87      C        0.06590    0.20670    0.94460    1.000
    H52      H        0.02790    0.16080    0.94480    1.000
    C88      C        0.99290    0.26570    0.93050    1.000
    H53      H        0.90120    0.26140    0.92290    1.000
    C89      C        0.32960    0.10120    0.91680    1.000
    C90      C        0.29440    0.11580    0.85070    1.000
    H54      H        0.24060    0.15580    0.83640    1.000
    C91      C        0.35290    0.06140    0.81370    1.000
    H55      H        0.34810    0.05580    0.76760    1.000
    C92      C        0.42500    0.01250    0.85580    1.000
    C93      C        0.28890    0.14720    0.97340    1.000
    C94      C        0.32050    0.13790    0.03830    1.000
    C95      C        0.27370    0.18360    0.09310    1.000
    H56      H        0.21250    0.22480    0.09190    1.000
    C96      C        0.33140    0.15820    0.14640    1.000
    H57      H        0.32110    0.17890    0.18930    1.000
    C97      C        0.41270    0.09290    0.12590    1.000
    C98      C        0.50550    0.95020    0.83570    1.000
    C99      C        0.50450    0.93080    0.76510    1.000
    C100     C        0.62480    0.92510    0.72050    1.000
    H58      H        0.71010    0.93270    0.73530    1.000
    C101     C        0.61610    0.90850    0.65510    1.000
    H59      H        0.69680    0.90330    0.62550    1.000
    C102     C        0.49710    0.88290    0.56260    1.000
    H60      H        0.54500    0.91950    0.53520    1.000
    H61      H        0.54200    0.83520    0.55340    1.000
    H62      H        0.40310    0.88300    0.55230    1.000
    C103     C        0.38300    0.90350    0.67410    1.000
    H63      H        0.29920    0.89580    0.65770    1.000
    C104     C        0.38520    0.91850    0.73900    1.000
    H64      H        0.30250    0.92050    0.76750    1.000
    Cl2      Cl       0.78000    0.10090    0.93280    1.000
    N5       N        0.40770    0.08440    0.05960    1.000
    N6       N        0.40300    0.03850    0.91980    1.000
    N7       N        0.04310    0.33160    0.92650    1.000
    N8       N        0.49870    0.89950    0.63280    1.000
