# CIF file generated by openbabel 3.1.0, see https://openbabel.org
data_I
_chemical_name_common 'image0'
_cell_length_a 5.624
_cell_length_b 10.303
_cell_length_c 13.269
_cell_angle_alpha 79.445
_cell_angle_beta 83.893
_cell_angle_gamma 76.488
_space_group_name_H-M_alt 'P 1'
_space_group_name_Hall 'P 1'
loop_
    _symmetry_equiv_pos_as_xyz
    x,y,z
loop_
    _atom_site_label
    _atom_site_type_symbol
    _atom_site_fract_x
    _atom_site_fract_y
    _atom_site_fract_z
    _atom_site_occupancy
    Mn1      Mn       0.32040    0.07745    0.40549    1.000
    Mn2      Mn       0.60020    0.61750    0.34244    1.000
    P1       P        0.51270    0.85340    0.11920    1.000
    P2       P        0.73950    0.22430    0.47240    1.000
    O1       O        0.33050    0.85700    0.04160    1.000
    O2       O        0.77120    0.85340    0.07300    1.000
    O3       O        0.51470    0.73330    0.20340    1.000
    O4       O        0.55310    0.00440    0.26270    1.000
    H1       H        0.63040    0.92700    0.28080    1.000
    O5       O        0.98220    0.05160    0.15210    1.000
    O6       O        0.08740    0.03190    0.30800    1.000
    O7       O        0.61730    0.33340    0.53530    1.000
    O8       O        0.00850    0.17900    0.48730    1.000
    O9       O        0.60860    0.10740    0.48580    1.000
    O10      O        0.83050    0.41670    0.31650    1.000
    H2       H        0.97910    0.38650    0.31520    1.000
    O11      O        0.30460    0.28580    0.31690    1.000
    O12      O        0.36370    0.49120    0.31420    1.000
    C1       C        0.40900    0.00700    0.17720    1.000
    H3       H        0.43510    0.08300    0.12590    1.000
    C2       C        0.14000    0.03350    0.21480    1.000
    C3       C        0.70700    0.30710    0.33840    1.000
    H4       H        0.77420    0.24150    0.29210    1.000
    C4       C        0.43700    0.36520    0.32260    1.000
    Mn3      Mn       0.67960    0.92255    0.59451    1.000
    Mn4      Mn       0.39980    0.38250    0.65756    1.000
    P3       P        0.48730    0.14660    0.88080    1.000
    P4       P        0.26050    0.77570    0.52760    1.000
    O13      O        0.66950    0.14300    0.95840    1.000
    O14      O        0.22880    0.14660    0.92700    1.000
    O15      O        0.48530    0.26670    0.79660    1.000
    O16      O        0.44690    0.99560    0.73730    1.000
    H5       H        0.36960    0.07300    0.71920    1.000
    O17      O        0.01780    0.94840    0.84790    1.000
    O18      O        0.91260    0.96810    0.69200    1.000
    O19      O        0.38270    0.66660    0.46470    1.000
    O20      O        0.99150    0.82100    0.51270    1.000
    O21      O        0.39140    0.89260    0.51420    1.000
    O22      O        0.16950    0.58330    0.68350    1.000
    H6       H        0.02090    0.61350    0.68480    1.000
    O23      O        0.69540    0.71420    0.68310    1.000
    O24      O        0.63630    0.50880    0.68580    1.000
    C5       C        0.59100    0.99300    0.82280    1.000
    H7       H        0.56490    0.91700    0.87410    1.000
    C6       C        0.86000    0.96650    0.78520    1.000
    C7       C        0.29300    0.69290    0.66160    1.000
    H8       H        0.22580    0.75850    0.70790    1.000
    C8       C        0.56300    0.63480    0.67740    1.000
    Mn5      Mn       0.00000    0.00000    0.00000    1.000
