data_functionalizedCrystal
_audit_creation_method	'EQeq! by Chris Wilmer'
_symmetry_space_group_name_H-M	'P1'
_symmetry_Int_Tables_number	1
_symmetry_cell_setting	triclinic
loop_
_symmetry_equiv_pos_as_xyz
  x,y,z
_cell_length_a	18.0939
_cell_length_b	13.3115
_cell_length_c	8.5775
_cell_angle_alpha	90
_cell_angle_beta	90
_cell_angle_gamma	90
loop_
_atom_site_label
_atom_site_type_symbol
_atom_site_fract_x
_atom_site_fract_y
_atom_site_fract_z
_atom_site_charge
Mof_Er	Er	0.60102	0.37458	0.25264	2.33
Mof_Er	Er	0.3938	0.12491	0.75236	2.307
Mof_O 	O 	0.5639	0.2941	0.4811	-0.575
Mof_O 	O 	0.4971	0.2108	0.6521	-0.547
Mof_O 	O 	0.648	0.2057	0.2333	-0.455
Mof_O 	O 	0.6478	0.0415	0.2819	-0.525
Mof_O 	O 	0.7032	0.3864	0.4205	-0.622
Mof_O 	O 	0.7957	0.3811	0.5815	-0.551
Mof_O 	O 	0.7011	0.366	0.091	-0.523
Mof_O 	O 	0.7915	0.3678	0.9239	-0.562
Mof_O 	O 	0.6477	0.5433	0.2382	-0.506
Mof_O 	O 	0.6475	0.7076	0.1959	-0.486
Mof_O 	O 	0.5034	0.4671	0.3384	-0.561
Mof_O 	O 	0.4343	0.5532	0.5077	-0.496
Mof_O 	O 	0.5018	0.2798	0.1533	-0.53
Mof_O 	O 	0.4271	0.2159	0.9731	-0.514
Mof_O 	O 	0.4971	0.0406	0.8496	-0.551
Mof_O 	O 	0.5719	0.9628	0.0164	-0.498
Mof_C 	C 	0.5102	0.2468	0.5206	0.7
Mof_H 	H 	0.4737	0.2357	0.4428	-0.2
Mof_C 	C 	0.6155	0.1186	0.2629	0.599
Mof_H 	H 	0.5631	0.1175	0.2694	-0.176
Mof_C 	C 	0.7325	0.3542	0.525	0.827
Mof_H 	H 	0.7079	0.3012	0.5778	-0.211
Mof_C 	C 	0.733	0.3952	0.9609	0.734
Mof_H 	H 	0.7073	0.4405	0.8945	-0.18
Mof_C 	C 	0.6165	0.6217	0.2141	0.62
Mof_H 	H 	0.5641	0.6198	0.2081	-0.182
Mof_C 	C 	0.4932	0.5069	0.4672	0.608
Mof_H 	H 	0.532	0.5028	0.5415	-0.176
Mof_C 	C 	0.4881	0.2486	0.0203	0.607
Mof_H 	H 	0.5275	0.2496	0.9472	-0.165
Mof_C 	C 	0.5105	0.0009	0.9749	0.653
Mof_H 	H 	0.4713	0.9983	0.0484	-0.196
Mof_Er	Er	0.39898	0.62542	0.75264	2.327
Mof_Er	Er	0.6062	0.87509	0.25236	2.299
Mof_O 	O 	0.4361	0.7059	0.9811	-0.552
Mof_O 	O 	0.5029	0.7892	0.1521	-0.535
Mof_O 	O 	0.352	0.7943	0.7333	-0.452
Mof_O 	O 	0.3522	0.9585	0.7819	-0.522
Mof_O 	O 	0.2968	0.6136	0.9205	-0.609
Mof_O 	O 	0.2043	0.6189	0.0815	-0.548
Mof_O 	O 	0.2989	0.634	0.591	-0.512
Mof_O 	O 	0.2085	0.6322	0.4239	-0.558
Mof_O 	O 	0.3523	0.4567	0.7382	-0.504
Mof_O 	O 	0.3525	0.2924	0.6959	-0.484
Mof_O 	O 	0.4966	0.5329	0.8384	-0.568
Mof_O 	O 	0.5657	0.4468	0.0077	-0.513
Mof_O 	O 	0.4982	0.7202	0.6533	-0.535
Mof_O 	O 	0.5729	0.7841	0.4731	-0.524
Mof_O 	O 	0.5029	0.9594	0.3496	-0.544
Mof_O 	O 	0.4281	0.0372	0.5164	-0.482
Mof_C 	C 	0.4898	0.7532	0.0206	0.648
Mof_H 	H 	0.5263	0.7643	0.9428	-0.174
Mof_C 	C 	0.3845	0.8814	0.7629	0.599
Mof_H 	H 	0.4369	0.8825	0.7694	-0.174
Mof_C 	C 	0.2675	0.6458	0.025	0.806
Mof_H 	H 	0.2921	0.6988	0.0778	-0.208
Mof_C 	C 	0.267	0.6048	0.4609	0.715
Mof_H 	H 	0.2927	0.5595	0.3945	-0.178
Mof_C 	C 	0.3835	0.3783	0.7141	0.621
Mof_H 	H 	0.4359	0.3802	0.7081	-0.181
Mof_C 	C 	0.5068	0.4931	0.9672	0.645
Mof_H 	H 	0.468	0.4972	0.0415	-0.195
Mof_C 	C 	0.5119	0.7514	0.5203	0.633
Mof_H 	H 	0.4725	0.7504	0.4472	-0.179
Mof_C 	C 	0.4895	0.9991	0.4749	0.623
Mof_H 	H 	0.5287	0.0017	0.5484	-0.179
Mof_Er	Er	0.10102	0.12542	0.25264	2.321
Mof_Er	Er	0.8938	0.37509	0.75236	2.309
Mof_O 	O 	0.0639	0.2059	0.4811	-0.571
Mof_O 	O 	0.9971	0.2892	0.6521	-0.538
Mof_O 	O 	0.148	0.2943	0.2333	-0.454
Mof_O 	O 	0.1478	0.4585	0.2819	-0.527
Mof_O 	O 	0.2032	0.1136	0.4205	-0.621
Mof_O 	O 	0.2957	0.1189	0.5815	-0.552
Mof_O 	O 	0.2011	0.134	0.091	-0.514
Mof_O 	O 	0.2915	0.1322	0.9239	-0.56
Mof_O 	O 	0.1477	0.9567	0.2382	-0.504
Mof_O 	O 	0.1475	0.7924	0.1959	-0.485
Mof_O 	O 	0.0034	0.0329	0.3384	-0.561
Mof_O 	O 	0.9343	0.9468	0.5077	-0.496
Mof_O 	O 	0.0018	0.2202	0.1533	-0.529
Mof_O 	O 	0.9271	0.2841	0.9731	-0.508
Mof_O 	O 	0.9971	0.4594	0.8496	-0.539
Mof_O 	O 	0.0719	0.5372	0.0164	-0.487
Mof_C 	C 	0.0102	0.2532	0.5206	0.68
Mof_H 	H 	0.9737	0.2643	0.4428	-0.192
Mof_C 	C 	0.1155	0.3814	0.2629	0.599
Mof_H 	H 	0.0631	0.3825	0.2694	-0.177
Mof_C 	C 	0.2325	0.1458	0.525	0.826
Mof_H 	H 	0.2079	0.1988	0.5778	-0.211
Mof_C 	C 	0.233	0.1048	0.9609	0.719
Mof_H 	H 	0.2073	0.0595	0.8945	-0.18
Mof_C 	C 	0.1165	0.8783	0.2141	0.619
Mof_H 	H 	0.0641	0.8802	0.2081	-0.181
Mof_C 	C 	0.9932	0.9931	0.4672	0.602
Mof_H 	H 	0.032	0.9972	0.5415	-0.173
Mof_C 	C 	0.9881	0.2514	0.0203	0.605
Mof_H 	H 	0.0275	0.2504	0.9472	-0.17
Mof_C 	C 	0.0105	0.4991	0.9749	0.629
Mof_H 	H 	0.9713	0.5017	0.0484	-0.189
Mof_Er	Er	0.89898	0.87458	0.75264	2.318
Mof_Er	Er	0.1062	0.62491	0.25236	2.301
Mof_O 	O 	0.9361	0.7941	0.9811	-0.541
Mof_O 	O 	0.0029	0.7108	0.1521	-0.526
Mof_O 	O 	0.852	0.7057	0.7333	-0.452
Mof_O 	O 	0.8522	0.5415	0.7819	-0.525
Mof_O 	O 	0.7968	0.8864	0.9205	-0.595
Mof_O 	O 	0.7043	0.8811	0.0815	-0.545
Mof_O 	O 	0.7989	0.866	0.591	-0.511
Mof_O 	O 	0.7085	0.8678	0.4239	-0.558
Mof_O 	O 	0.8523	0.0433	0.7382	-0.503
Mof_O 	O 	0.8525	0.2076	0.6959	-0.484
Mof_O 	O 	0.9966	0.9671	0.8384	-0.544
Mof_O 	O 	0.0657	0.0532	0.0077	-0.49
Mof_O 	O 	0.9982	0.7798	0.6533	-0.534
Mof_O 	O 	0.0729	0.7159	0.4731	-0.524
Mof_O 	O 	0.0029	0.5406	0.3496	-0.546
Mof_O 	O 	0.9281	0.4628	0.5164	-0.483
Mof_C 	C 	0.9898	0.7468	0.0206	0.627
Mof_H 	H 	0.0263	0.7357	0.9428	-0.171
Mof_C 	C 	0.8845	0.6186	0.7629	0.6
Mof_H 	H 	0.9369	0.6175	0.7694	-0.175
Mof_C 	C 	0.7675	0.8542	0.025	0.786
Mof_H 	H 	0.7921	0.8012	0.0778	-0.203
Mof_C 	C 	0.767	0.8952	0.4609	0.715
Mof_H 	H 	0.7927	0.9405	0.3945	-0.179
Mof_C 	C 	0.8835	0.1217	0.7141	0.621
Mof_H 	H 	0.9359	0.1198	0.7081	-0.179
Mof_C 	C 	0.0068	0.0069	0.9672	0.58
Mof_H 	H 	0.968	0.0028	0.0415	-0.169
Mof_C 	C 	0.0119	0.7486	0.5203	0.631
Mof_H 	H 	0.9725	0.7496	0.4472	-0.179
Mof_C 	C 	0.9895	0.5009	0.4749	0.626
Mof_H 	H 	0.0287	0.4983	0.5484	-0.182
_end
