data_functionalizedCrystal
_audit_creation_method	'EQeq! by Chris Wilmer'
_symmetry_space_group_name_H-M	'P1'
_symmetry_Int_Tables_number	1
_symmetry_cell_setting	triclinic
loop_
_symmetry_equiv_pos_as_xyz
  x,y,z
_cell_length_a	16.963
_cell_length_b	18.283
_cell_length_c	18.373
_cell_angle_alpha	90
_cell_angle_beta	90
_cell_angle_gamma	90
loop_
_atom_site_label
_atom_site_type_symbol
_atom_site_fract_x
_atom_site_fract_y
_atom_site_fract_z
_atom_site_charge
Mof_Cu	Cu	0.63589	0.70162	0.94345	0.943
Mof_Cu	Cu	0.70096	0.5564	0.86594	0.942
Mof_Cu	Cu	0.55242	0.64719	0.79333	0.941
Mof_Mn	Mn	0.8961	0.59293	0.11003	1.076
Mof_Cl	Cl	0.7054	0.6978	0.8204	-0.487
Mof_C 	C 	0.7553	0.6728	0.0351	0.346
Mof_C 	C 	0.7254	0.5933	0.0092	0.014
Mof_C 	C 	0.7965	0.5467	0.977	0.347
Mof_O 	O 	0.8089	0.6746	0.0793	-0.315
Mof_O 	O 	0.7204	0.7257	0.0075	-0.337
Mof_O 	O 	0.6926	0.5562	0.0729	-0.104
Mof_O 	O 	0.669	0.5991	0.9569	-0.401
Mof_O 	O 	0.8494	0.53	0.0236	-0.316
Mof_O 	O 	0.794	0.5288	0.9147	-0.359
Mof_C 	C 	0.6814	0.4833	0.7384	0.324
Mof_C 	C 	0.5948	0.5037	0.7643	0.024
Mof_C 	C 	0.5481	0.5325	0.6989	0.33
Mof_O 	O 	0.6913	0.4494	0.6825	-0.319
Mof_O 	O 	0.7364	0.5013	0.7829	-0.316
Mof_O 	O 	0.5593	0.4419	0.7916	-0.119
Mof_O 	O 	0.5999	0.5549	0.8177	-0.413
Mof_O 	O 	0.5305	0.4929	0.6494	-0.326
Mof_O 	O 	0.5298	0.6009	0.7026	-0.33
Mof_C 	C 	0.4733	0.7725	0.8178	0.354
Mof_C 	C 	0.4859	0.7432	0.8937	-0.025
Mof_C 	C 	0.5198	0.8036	0.9435	0.365
Mof_O 	O 	0.4367	0.8307	0.8095	-0.319
Mof_O 	O 	0.4987	0.7361	0.7663	-0.339
Mof_O 	O 	0.4137	0.7159	0.9194	-0.101
Mof_O 	O 	0.5398	0.6837	0.8903	-0.399
Mof_O 	O 	0.4798	0.858	0.9566	-0.342
Mof_O 	O 	0.5861	0.7917	0.9695	-0.343
Mof_Cu	Cu	0.86411	0.29838	0.44345	0.944
Mof_Cu	Cu	0.79904	0.4436	0.36594	0.943
Mof_Cu	Cu	0.94758	0.35281	0.29333	0.942
Mof_Mn	Mn	0.6039	0.40707	0.61003	1.077
Mof_Cl	Cl	0.7946	0.3022	0.3204	-0.487
Mof_C 	C 	0.7447	0.3272	0.5351	0.346
Mof_C 	C 	0.7746	0.4067	0.5092	0.012
Mof_C 	C 	0.7035	0.4533	0.477	0.35
Mof_O 	O 	0.6911	0.3254	0.5793	-0.315
Mof_O 	O 	0.7796	0.2743	0.5075	-0.338
Mof_O 	O 	0.8074	0.4438	0.5729	-0.104
Mof_O 	O 	0.831	0.4009	0.4569	-0.4
Mof_O 	O 	0.6506	0.47	0.5236	-0.317
Mof_O 	O 	0.706	0.4712	0.4147	-0.36
Mof_C 	C 	0.8186	0.5167	0.2384	0.324
Mof_C 	C 	0.9052	0.4963	0.2643	0.024
Mof_C 	C 	0.9519	0.4675	0.1989	0.33
Mof_O 	O 	0.8087	0.5506	0.1825	-0.319
Mof_O 	O 	0.7636	0.4987	0.2829	-0.316
Mof_O 	O 	0.9407	0.5581	0.2916	-0.119
Mof_O 	O 	0.9001	0.4451	0.3177	-0.413
Mof_O 	O 	0.9695	0.5071	0.1494	-0.326
Mof_O 	O 	0.9702	0.3991	0.2026	-0.33
Mof_C 	C 	0.0267	0.2275	0.3178	0.354
Mof_C 	C 	0.0141	0.2568	0.3937	-0.022
Mof_C 	C 	0.9802	0.1964	0.4435	0.362
Mof_O 	O 	0.0633	0.1693	0.3095	-0.319
Mof_O 	O 	0.0013	0.2639	0.2663	-0.339
Mof_O 	O 	0.0863	0.2841	0.4194	-0.101
Mof_O 	O 	0.9602	0.3163	0.3903	-0.4
Mof_O 	O 	0.0202	0.142	0.4566	-0.34
Mof_O 	O 	0.9139	0.2083	0.4695	-0.343
Mof_Cu	Cu	0.36411	0.20162	0.55655	0.944
Mof_Cu	Cu	0.29904	0.0564	0.63406	0.943
Mof_Cu	Cu	0.44758	0.14719	0.70667	0.942
Mof_Mn	Mn	0.1039	0.09293	0.38997	1.077
Mof_Cl	Cl	0.2946	0.1978	0.6796	-0.487
Mof_C 	C 	0.2447	0.1728	0.4649	0.346
Mof_C 	C 	0.2746	0.0933	0.4908	0.012
Mof_C 	C 	0.2035	0.0467	0.523	0.35
Mof_O 	O 	0.1911	0.1746	0.4207	-0.315
Mof_O 	O 	0.2796	0.2257	0.4925	-0.337
Mof_O 	O 	0.3074	0.0562	0.4271	-0.104
Mof_O 	O 	0.331	0.0991	0.5431	-0.4
Mof_O 	O 	0.1506	0.03	0.4764	-0.317
Mof_O 	O 	0.206	0.0288	0.5853	-0.359
Mof_C 	C 	0.3186	0.9833	0.7616	0.324
Mof_C 	C 	0.4052	0.0037	0.7357	0.023
Mof_C 	C 	0.4519	0.0325	0.8011	0.329
Mof_O 	O 	0.3087	0.9494	0.8175	-0.319
Mof_O 	O 	0.2636	0.0013	0.7171	-0.316
Mof_O 	O 	0.4407	0.9419	0.7084	-0.118
Mof_O 	O 	0.4001	0.0549	0.6823	-0.413
Mof_O 	O 	0.4695	0.9929	0.8506	-0.325
Mof_O 	O 	0.4702	0.1009	0.7974	-0.33
Mof_C 	C 	0.5267	0.2725	0.6822	0.354
Mof_C 	C 	0.5141	0.2432	0.6063	-0.025
Mof_C 	C 	0.4802	0.3036	0.5565	0.365
Mof_O 	O 	0.5633	0.3307	0.6905	-0.319
Mof_O 	O 	0.5013	0.2361	0.7337	-0.339
Mof_O 	O 	0.5863	0.2159	0.5806	-0.101
Mof_O 	O 	0.4602	0.1837	0.6097	-0.399
Mof_O 	O 	0.5202	0.358	0.5434	-0.342
Mof_O 	O 	0.4139	0.2917	0.5305	-0.343
Mof_Cu	Cu	0.13589	0.79838	0.05655	0.944
Mof_Cu	Cu	0.20096	0.9436	0.13406	0.943
Mof_Cu	Cu	0.05242	0.85281	0.20667	0.942
Mof_Mn	Mn	0.3961	0.90707	0.88997	1.077
Mof_Cl	Cl	0.2054	0.8022	0.1796	-0.487
Mof_C 	C 	0.2553	0.8272	0.9649	0.346
Mof_C 	C 	0.2254	0.9067	0.9908	0.015
Mof_C 	C 	0.2965	0.9533	0.023	0.347
Mof_O 	O 	0.3089	0.8254	0.9207	-0.315
Mof_O 	O 	0.2204	0.7743	0.9925	-0.337
Mof_O 	O 	0.1926	0.9438	0.9271	-0.104
Mof_O 	O 	0.169	0.9009	0.0431	-0.401
Mof_O 	O 	0.3494	0.97	0.9764	-0.316
Mof_O 	O 	0.294	0.9712	0.0853	-0.359
Mof_C 	C 	0.1814	0.0167	0.2616	0.326
Mof_C 	C 	0.0948	0.9963	0.2357	0.022
Mof_C 	C 	0.0481	0.9675	0.3011	0.329
Mof_O 	O 	0.1913	0.0506	0.3175	-0.319
Mof_O 	O 	0.2364	0.9987	0.2171	-0.317
Mof_O 	O 	0.0593	0.0581	0.2084	-0.118
Mof_O 	O 	0.0999	0.9451	0.1823	-0.413
Mof_O 	O 	0.0305	0.0071	0.3506	-0.325
Mof_O 	O 	0.0298	0.8991	0.2974	-0.33
Mof_C 	C 	0.9733	0.7275	0.1822	0.353
Mof_C 	C 	0.9859	0.7568	0.1063	-0.021
Mof_C 	C 	0.0198	0.6964	0.0565	0.361
Mof_O 	O 	0.9367	0.6693	0.1905	-0.318
Mof_O 	O 	0.9987	0.7639	0.2337	-0.338
Mof_O 	O 	0.9137	0.7841	0.0806	-0.101
Mof_O 	O 	0.0398	0.8163	0.1097	-0.401
Mof_O 	O 	0.9798	0.642	0.0434	-0.339
Mof_O 	O 	0.0861	0.7083	0.0305	-0.343
_end
