# CIF file generated by openbabel 3.1.0, see https://openbabel.org
data_I
_chemical_name_common 'image0'
_cell_length_a 9.5307
_cell_length_b 12.7016
_cell_length_c 18.8199
_cell_angle_alpha 106.349
_cell_angle_beta 98.629
_cell_angle_gamma 100.06
_space_group_name_H-M_alt 'P 1'
_space_group_name_Hall 'P 1'
loop_
    _symmetry_equiv_pos_as_xyz
    x,y,z
loop_
    _atom_site_label
    _atom_site_type_symbol
    _atom_site_fract_x
    _atom_site_fract_y
    _atom_site_fract_z
    _atom_site_occupancy
    Tb1      Tb       0.76664    0.98367    0.99669    1.000
    N1       N        0.00030    0.14820    0.67980    1.000
    O1       O        0.68640    0.02400    0.11720    1.000
    O2       O        0.86090    0.06530    0.90400    1.000
    O3       O        0.00870    0.89070    0.92620    1.000
    N2       N        0.95820    0.60740    0.67480    1.000
    O4       O        0.76980    0.82270    0.88780    1.000
    O5       O        0.10530    0.12000    0.93660    1.000
    N3       N        0.56660    0.16680    0.36790    1.000
    C1       C        0.92000    0.23100    0.57770    1.000
    C2       C        0.56670    0.04180    0.13280    1.000
    C3       C        0.56460    0.08200    0.21600    1.000
    C4       C        0.90550    0.41840    0.57430    1.000
    C5       C        0.43790    0.10220    0.24040    1.000
    H1       H        0.34950    0.08700    0.20440    1.000
    C6       C        0.68920    0.14610    0.34600    1.000
    H2       H        0.77590    0.16150    0.38310    1.000
    C7       C        0.77180    0.37500    0.52330    1.000
    C8       C        0.97930    0.34710    0.60260    1.000
    C9       C        0.70910    0.25860    0.50210    1.000
    C10      C        0.78180    0.18610    0.52830    1.000
    C11      C        0.89790    0.82320    0.87980    1.000
    C12      C        0.98850    0.11890    0.81690    1.000
    C13      C        0.69110    0.10290    0.27060    1.000
    H3       H        0.77820    0.08740    0.25570    1.000
    C14      C        0.05930    0.73740    0.79720    1.000
    H4       H        0.14240    0.78070    0.83550    1.000
    C15      C        0.98330    0.10040    0.89300    1.000
    C16      C        0.80190    0.67580    0.75330    1.000
    H5       H        0.70600    0.67650    0.76140    1.000
    C17      C        0.12300    0.39630    0.65950    1.000
    H6       H        0.16030    0.33540    0.67250    1.000
    H7       H        0.10810    0.44930    0.70530    1.000
    H8       H        0.19350    0.43590    0.63740    1.000
    C18      C        0.00660    0.15400    0.60040    1.000
    H9       H        0.10950    0.18010    0.59810    1.000
    H10      H        0.96960    0.07740    0.56350    1.000
    C19      C        0.87380    0.14390    0.70320    1.000
    H11      H        0.78990    0.15100    0.67210    1.000
    C20      C        0.92050    0.74240    0.80880    1.000
    C21      C        0.44100    0.14410    0.31640    1.000
    H12      H        0.35440    0.15730    0.33290    1.000
    C22      C        0.11780    0.12510    0.79130    1.000
    H13      H        0.20370    0.12030    0.82200    1.000
    C23      C        0.86610    0.12950    0.77180    1.000
    H14      H        0.77680    0.12670    0.78860    1.000
    C24      C        0.07560    0.66880    0.72930    1.000
    H15      H        0.17060    0.66480    0.72080    1.000
    C25      C        0.82220    0.60820    0.68610    1.000
    H16      H        0.74040    0.56220    0.64780    1.000
    C26      C        0.97900    0.54300    0.59870    1.000
    H17      H        0.08460    0.55100    0.60010    1.000
    H18      H        0.93900    0.57610    0.56060    1.000
    C27      C        0.55930    0.21070    0.45030    1.000
    H19      H        0.50670    0.14860    0.46520    1.000
    H20      H        0.50320    0.27020    0.45700    1.000
    C28      C        0.68810    0.44810    0.49010    1.000
    H21      H        0.61180    0.46530    0.51820    1.000
    H22      H        0.64340    0.40750    0.43670    1.000
    H23      H        0.75510    0.51840    0.49420    1.000
    C29      C        0.12180    0.13820    0.72160    1.000
    H24      H        0.20940    0.14030    0.70320    1.000
    C30      C        0.71760    0.06080    0.50310    1.000
    H25      H        0.71790    0.03520    0.54760    1.000
    H26      H        0.77600    0.02120    0.47070    1.000
    H27      H        0.61720    0.04470    0.47460    1.000
    O6       O        0.45400    0.03020    0.08690    1.000
    Tb2      Tb       0.23336    0.01633    0.00331    1.000
    N4       N        0.99970    0.85180    0.32020    1.000
    O7       O        0.31360    0.97600    0.88280    1.000
    O8       O        0.13910    0.93470    0.09600    1.000
    O9       O        0.99130    0.10930    0.07380    1.000
    N5       N        0.04180    0.39260    0.32520    1.000
    O10      O        0.23020    0.17730    0.11220    1.000
    O11      O        0.89470    0.88000    0.06340    1.000
    N6       N        0.43340    0.83320    0.63210    1.000
    C31      C        0.08000    0.76900    0.42230    1.000
    C32      C        0.43330    0.95820    0.86720    1.000
    C33      C        0.43540    0.91800    0.78400    1.000
    C34      C        0.09450    0.58160    0.42570    1.000
    C35      C        0.56210    0.89780    0.75960    1.000
    H28      H        0.65050    0.91300    0.79560    1.000
    C36      C        0.31080    0.85390    0.65400    1.000
    H29      H        0.22410    0.83850    0.61690    1.000
    C37      C        0.22820    0.62500    0.47670    1.000
    C38      C        0.02070    0.65290    0.39740    1.000
    C39      C        0.29090    0.74140    0.49790    1.000
    C40      C        0.21820    0.81390    0.47170    1.000
    C41      C        0.10210    0.17680    0.12020    1.000
    C42      C        0.01150    0.88110    0.18310    1.000
    C43      C        0.30890    0.89710    0.72940    1.000
    H30      H        0.22180    0.91260    0.74430    1.000
    C44      C        0.94070    0.26260    0.20280    1.000
    H31      H        0.85760    0.21930    0.16450    1.000
    C45      C        0.01670    0.89960    0.10700    1.000
    C46      C        0.19810    0.32420    0.24670    1.000
    H32      H        0.29400    0.32350    0.23860    1.000
    C47      C        0.87700    0.60370    0.34050    1.000
    H33      H        0.83970    0.66460    0.32750    1.000
    H34      H        0.89190    0.55070    0.29470    1.000
    H35      H        0.80650    0.56410    0.36260    1.000
    C48      C        0.99340    0.84600    0.39960    1.000
    H36      H        0.89050    0.81990    0.40190    1.000
    H37      H        0.03040    0.92260    0.43650    1.000
    C49      C        0.12620    0.85610    0.29680    1.000
    H38      H        0.21010    0.84900    0.32790    1.000
    C50      C        0.07950    0.25760    0.19120    1.000
    C51      C        0.55900    0.85590    0.68360    1.000
    H39      H        0.64560    0.84270    0.66710    1.000
    C52      C        0.88220    0.87490    0.20870    1.000
    H40      H        0.79630    0.87970    0.17800    1.000
    C53      C        0.13390    0.87050    0.22820    1.000
    H41      H        0.22320    0.87330    0.21140    1.000
    C54      C        0.92440    0.33120    0.27070    1.000
    H42      H        0.82940    0.33520    0.27920    1.000
    C55      C        0.17780    0.39180    0.31390    1.000
    H43      H        0.25960    0.43780    0.35220    1.000
    C56      C        0.02100    0.45700    0.40130    1.000
    H44      H        0.91540    0.44900    0.39990    1.000
    H45      H        0.06100    0.42390    0.43940    1.000
    C57      C        0.44070    0.78930    0.54970    1.000
    H46      H        0.49330    0.85140    0.53480    1.000
    H47      H        0.49680    0.72980    0.54300    1.000
    C58      C        0.31190    0.55190    0.50990    1.000
    H48      H        0.38820    0.53470    0.48180    1.000
    H49      H        0.35660    0.59250    0.56330    1.000
    H50      H        0.24490    0.48160    0.50580    1.000
    C59      C        0.87820    0.86180    0.27840    1.000
    H51      H        0.79060    0.85970    0.29680    1.000
    C60      C        0.28240    0.93920    0.49690    1.000
    H52      H        0.28210    0.96480    0.45240    1.000
    H53      H        0.22400    0.97880    0.52930    1.000
    H54      H        0.38280    0.95530    0.52540    1.000
    O12      O        0.54600    0.96980    0.91310    1.000
