# CIF file generated by openbabel 3.1.0, see https://openbabel.org
data_I
_chemical_name_common 'image0'
_cell_length_a 11.2867
_cell_length_b 13.8357
_cell_length_c 14.8608
_cell_angle_alpha 85.209
_cell_angle_beta 69.742
_cell_angle_gamma 73.909
_space_group_name_H-M_alt 'P 1'
_space_group_name_Hall 'P 1'
loop_
    _symmetry_equiv_pos_as_xyz
    x,y,z
loop_
    _atom_site_label
    _atom_site_type_symbol
    _atom_site_fract_x
    _atom_site_fract_y
    _atom_site_fract_z
    _atom_site_occupancy
    C1       C        0.47900    0.33530    0.15015    1.000
    C2       C        0.53510    0.27370    0.22208    1.000
    C3       C        0.47430    0.20440    0.27940    1.000
    H1       H        0.39660    0.19760    0.27550    1.000
    C4       C        0.52990    0.14540    0.34240    1.000
    H2       H        0.48860    0.09980    0.38120    1.000
    C5       C        0.64640    0.15430    0.34740    1.000
    C6       C        0.70630    0.22410    0.29190    1.000
    H3       H        0.78400    0.23080    0.29610    1.000
    C7       C        0.65000    0.28430    0.22980    1.000
    H4       H        0.68950    0.33200    0.19320    1.000
    C8       C        0.49680    0.10500    0.81511    1.000
    C9       C        0.54820    0.10130    0.70819    1.000
    C10      C        0.49250    0.17370    0.65340    1.000
    H5       H        0.41950    0.22540    0.68390    1.000
    C11      C        0.54380    0.17010    0.55420    1.000
    H6       H        0.50500    0.21910    0.51870    1.000
    C12      C        0.65420    0.09260    0.50680    1.000
    C13      C        0.70940    0.01910    0.56210    1.000
    H7       H        0.78170    0.96670    0.53200    1.000
    C14      C        0.65710    0.02410    0.66070    1.000
    H8       H        0.69530    0.97500    0.69640    1.000
    C15      C        0.23170    0.59170    0.15640    1.000
    H9       H        0.22230    0.52710    0.15530    1.000
    C16      C        0.12540    0.66490    0.21190    1.000
    H10      H        0.04690    0.64960    0.24630    1.000
    C17      C        0.13820    0.76160    0.21550    1.000
    C18      C        0.25960    0.77790    0.16560    1.000
    H11      H        0.27400    0.84040    0.16880    1.000
    C19      C        0.35890    0.70110    0.11100    1.000
    H12      H        0.43890    0.71430    0.07680    1.000
    C20      C        0.02610    0.84500    0.26890    1.000
    C21      C        0.89970    0.85030    0.27330    1.000
    H13      H        0.88430    0.79930    0.24560    1.000
    C22      C        0.79580    0.93130    0.31880    1.000
    H14      H        0.71130    0.93420    0.32160    1.000
    C23      C        0.81820    0.00720    0.35990    1.000
    C24      C        0.94340    0.00270    0.35730    1.000
    H15      H        0.95830    0.05360    0.38570    1.000
    C25      C        0.04660    0.92170    0.31200    1.000
    H16      H        0.13070    0.91850    0.31040    1.000
    C26      C        0.20900    0.02300    0.07780    1.000
    H17      H        0.21900    0.04480    0.13160    1.000
    C27      C        0.08510    0.02850    0.07970    1.000
    H18      H        0.01340    0.05380    0.13390    1.000
    C28      C        0.06640    0.99640    0.00100    1.000
    C29      C        0.17820    0.95830    0.92340    1.000
    H19      H        0.17140    0.93530    0.86890    1.000
    C30      C        0.29910    0.95480    0.92740    1.000
    H20      H        0.37280    0.92810    0.87490    1.000
    N1       N        0.71010    0.08977    0.40751    1.000
    N2       N        0.34710    0.60890    0.10415    1.000
    N3       N        0.31610    0.98766    0.00245    1.000
    O1       O        0.38740    0.31170    0.13453    1.000
    O2       O        0.52880    0.40474    0.11071    1.000
    O3       O        0.40470    0.17878    0.85768    1.000
    O4       O        0.55050    0.03242    0.85725    1.000
    C31      C        0.52100    0.66470    0.84985    1.000
    C32      C        0.46490    0.72630    0.77792    1.000
    C33      C        0.52570    0.79560    0.72060    1.000
    H21      H        0.60340    0.80240    0.72450    1.000
    C34      C        0.47010    0.85460    0.65760    1.000
    H22      H        0.51140    0.90020    0.61880    1.000
    C35      C        0.35360    0.84570    0.65260    1.000
    C36      C        0.29370    0.77590    0.70810    1.000
    H23      H        0.21600    0.76920    0.70390    1.000
    C37      C        0.35000    0.71570    0.77020    1.000
    H24      H        0.31050    0.66800    0.80680    1.000
    C38      C        0.50320    0.89500    0.18489    1.000
    C39      C        0.45180    0.89870    0.29181    1.000
    C40      C        0.50750    0.82630    0.34660    1.000
    H25      H        0.58050    0.77460    0.31610    1.000
    C41      C        0.45620    0.82990    0.44580    1.000
    H26      H        0.49500    0.78090    0.48130    1.000
    C42      C        0.34580    0.90740    0.49320    1.000
    C43      C        0.29060    0.98090    0.43790    1.000
    H27      H        0.21830    0.03330    0.46800    1.000
    C44      C        0.34290    0.97590    0.33930    1.000
    H28      H        0.30470    0.02500    0.30360    1.000
    C45      C        0.76830    0.40830    0.84360    1.000
    H29      H        0.77770    0.47290    0.84470    1.000
    C46      C        0.87460    0.33510    0.78810    1.000
    H30      H        0.95310    0.35040    0.75370    1.000
    C47      C        0.86180    0.23840    0.78450    1.000
    C48      C        0.74040    0.22210    0.83440    1.000
    H31      H        0.72600    0.15960    0.83120    1.000
    C49      C        0.64110    0.29890    0.88900    1.000
    H32      H        0.56110    0.28570    0.92320    1.000
    C50      C        0.97390    0.15500    0.73110    1.000
    C51      C        0.10030    0.14970    0.72670    1.000
    H33      H        0.11570    0.20070    0.75440    1.000
    C52      C        0.20420    0.06870    0.68120    1.000
    H34      H        0.28870    0.06580    0.67840    1.000
    C53      C        0.18180    0.99280    0.64010    1.000
    C54      C        0.05660    0.99730    0.64270    1.000
    H35      H        0.04170    0.94640    0.61430    1.000
    C55      C        0.95340    0.07830    0.68800    1.000
    H36      H        0.86930    0.08150    0.68960    1.000
    C56      C        0.79100    0.97700    0.92220    1.000
    H37      H        0.78100    0.95520    0.86840    1.000
    C57      C        0.91490    0.97150    0.92030    1.000
    H38      H        0.98660    0.94620    0.86610    1.000
    C58      C        0.93360    0.00360    0.99900    1.000
    C59      C        0.82180    0.04170    0.07660    1.000
    H39      H        0.82860    0.06470    0.13110    1.000
    C60      C        0.70090    0.04520    0.07260    1.000
    H40      H        0.62720    0.07190    0.12510    1.000
    N4       N        0.28990    0.91023    0.59249    1.000
    N5       N        0.65290    0.39110    0.89585    1.000
    N6       N        0.68390    0.01234    0.99755    1.000
    O5       O        0.61260    0.68830    0.86547    1.000
    O6       O        0.47120    0.59526    0.88929    1.000
    O7       O        0.59530    0.82122    0.14232    1.000
    O8       O        0.44950    0.96758    0.14275    1.000
    Co1      Co       0.50000    0.00000    0.00000    1.000
    Co2      Co       0.50000    0.50000    0.00000    1.000
