data_functionalizedCrystal
_audit_creation_method	'EQeq! by Chris Wilmer'
_symmetry_space_group_name_H-M	'P1'
_symmetry_Int_Tables_number	1
_symmetry_cell_setting	triclinic
loop_
_symmetry_equiv_pos_as_xyz
  x,y,z
_cell_length_a	15.187
_cell_length_b	15.187
_cell_length_c	15.616
_cell_angle_alpha	90
_cell_angle_beta	90
_cell_angle_gamma	120
loop_
_atom_site_label
_atom_site_type_symbol
_atom_site_fract_x
_atom_site_fract_y
_atom_site_fract_z
_atom_site_charge
Mof_Ho	Ho	0.66667	0.33334	0.25	1.907
Mof_Ho	Ho	0.33333	0.66666	0.25	1.907
Mof_Ho	Ho	0.33333	0.66666	0.75	1.918
Mof_Ho	Ho	0.66667	0.33334	0.75	1.918
Mof_Fe	Fe	0.5	0.5	0.5	0.826
Mof_Fe	Fe	9.93265e-18	0.5	0.5	0.754
Mof_Fe	Fe	0.5	8.09293e-33	0.5	0.754
Mof_Fe	Fe	-0	0.5	-0	0.633
Mof_Fe	Fe	0.5	0.5	-0	0.703
Mof_Fe	Fe	0.5	0	-0	0.633
Mof_H 	H 	0.2893	0.2337	0.3447	0.045
Mof_H 	H 	0.9444	0.7107	0.3447	0.067
Mof_H 	H 	0.7663	0.0556	0.3447	0.042
Mof_H 	H 	0.7107	0.7663	0.3447	0.056
Mof_H 	H 	0.0556	0.2893	0.3447	0.036
Mof_H 	H 	0.2337	0.9444	0.3447	0.062
Mof_H 	H 	0.0556	0.7663	0.1553	0.032
Mof_H 	H 	0.2337	0.2893	0.1553	0.035
Mof_H 	H 	0.7107	0.9444	0.1553	0.057
Mof_H 	H 	0.9444	0.2337	0.1553	0.052
Mof_H 	H 	0.7663	0.7107	0.1553	0.046
Mof_H 	H 	0.2893	0.0556	0.1553	0.026
Mof_H 	H 	0.7107	0.7663	0.6553	0.058
Mof_H 	H 	0.0556	0.2893	0.6553	0.038
Mof_H 	H 	0.2337	0.9444	0.6553	0.064
Mof_H 	H 	0.2893	0.2337	0.6553	0.047
Mof_H 	H 	0.9444	0.7107	0.6553	0.069
Mof_H 	H 	0.7663	0.0556	0.6553	0.044
Mof_H 	H 	0.9444	0.2337	0.8447	0.077
Mof_H 	H 	0.7663	0.7107	0.8447	0.072
Mof_H 	H 	0.2893	0.0556	0.8447	0.052
Mof_H 	H 	0.0556	0.7663	0.8447	0.057
Mof_H 	H 	0.2337	0.2893	0.8447	0.061
Mof_H 	H 	0.7107	0.9444	0.8447	0.082
Mof_H 	H 	0.1992	0.0996	0.25	0.022
Mof_H 	H 	0.9004	0.8008	0.25	0.056
Mof_H 	H 	0.9004	0.0996	0.25	0.039
Mof_H 	H 	0.8008	0.9004	0.25	0.056
Mof_H 	H 	0.0996	0.1992	0.25	0.023
Mof_H 	H 	0.0996	0.9004	0.25	0.039
Mof_H 	H 	0.8008	0.9004	0.75	0.059
Mof_H 	H 	0.0996	0.1992	0.75	0.026
Mof_H 	H 	0.0996	0.9004	0.75	0.042
Mof_H 	H 	0.1992	0.0996	0.75	0.026
Mof_H 	H 	0.9004	0.8008	0.75	0.059
Mof_H 	H 	0.9004	0.0996	0.75	0.042
Mof_C 	C 	0.4937	0.3541	0.361	0.371
Mof_C 	C 	0.4277	0.2662	0.3039	-0.036
Mof_C 	C 	0.3236	0.215	0.3061	-0.025
Mof_C 	C 	0.8604	0.5063	0.361	0.365
Mof_C 	C 	0.8385	0.5723	0.3039	-0.022
Mof_C 	C 	0.8914	0.6764	0.3061	-0.019
Mof_C 	C 	0.6459	0.1396	0.361	0.369
Mof_C 	C 	0.7338	0.1615	0.3039	-0.035
Mof_C 	C 	0.785	0.1086	0.3061	-0.023
Mof_C 	C 	0.5063	0.6459	0.361	0.372
Mof_C 	C 	0.5723	0.7338	0.3039	-0.029
Mof_C 	C 	0.6764	0.785	0.3061	-0.018
Mof_C 	C 	0.1396	0.4937	0.361	0.368
Mof_C 	C 	0.1615	0.4277	0.3039	-0.04
Mof_C 	C 	0.1086	0.3236	0.3061	-0.026
Mof_C 	C 	0.3541	0.8604	0.361	0.365
Mof_C 	C 	0.2662	0.8385	0.3039	-0.025
Mof_C 	C 	0.215	0.8914	0.3061	-0.023
Mof_C 	C 	0.1396	0.6459	0.139	0.364
Mof_C 	C 	0.1615	0.7338	0.1961	-0.039
Mof_C 	C 	0.1086	0.785	0.1939	-0.023
Mof_C 	C 	0.3541	0.4937	0.139	0.366
Mof_C 	C 	0.2662	0.4277	0.1961	-0.041
Mof_C 	C 	0.215	0.3236	0.1939	-0.025
Mof_C 	C 	0.5063	0.8604	0.139	0.36
Mof_C 	C 	0.5723	0.8385	0.1961	-0.027
Mof_C 	C 	0.6764	0.8914	0.1939	-0.02
Mof_C 	C 	0.8604	0.3541	0.139	0.36
Mof_C 	C 	0.8385	0.2662	0.1961	-0.03
Mof_C 	C 	0.8914	0.215	0.1939	-0.024
Mof_C 	C 	0.6459	0.5063	0.139	0.367
Mof_C 	C 	0.7338	0.5723	0.1961	-0.033
Mof_C 	C 	0.785	0.6764	0.1939	-0.019
Mof_C 	C 	0.4937	0.1396	0.139	0.363
Mof_C 	C 	0.4277	0.1615	0.1961	-0.044
Mof_C 	C 	0.3236	0.1086	0.1939	-0.026
Mof_C 	C 	0.5063	0.6459	0.639	0.371
Mof_C 	C 	0.5723	0.7338	0.6961	-0.024
Mof_C 	C 	0.6764	0.785	0.6939	-0.024
Mof_C 	C 	0.1396	0.4937	0.639	0.367
Mof_C 	C 	0.1615	0.4277	0.6961	-0.035
Mof_C 	C 	0.1086	0.3236	0.6939	-0.031
Mof_C 	C 	0.3541	0.8604	0.639	0.364
Mof_C 	C 	0.2662	0.8385	0.6961	-0.021
Mof_C 	C 	0.215	0.8914	0.6939	-0.029
Mof_C 	C 	0.4937	0.3541	0.639	0.37
Mof_C 	C 	0.4277	0.2662	0.6961	-0.032
Mof_C 	C 	0.3236	0.215	0.6939	-0.03
Mof_C 	C 	0.8604	0.5063	0.639	0.364
Mof_C 	C 	0.8385	0.5723	0.6961	-0.018
Mof_C 	C 	0.8914	0.6764	0.6939	-0.025
Mof_C 	C 	0.6459	0.1396	0.639	0.368
Mof_C 	C 	0.7338	0.1615	0.6961	-0.03
Mof_C 	C 	0.785	0.1086	0.6939	-0.028
Mof_C 	C 	0.8604	0.3541	0.861	0.354
Mof_C 	C 	0.8385	0.2662	0.8039	-0.009
Mof_C 	C 	0.8914	0.215	0.8061	-0.031
Mof_C 	C 	0.6459	0.5063	0.861	0.361
Mof_C 	C 	0.7338	0.5723	0.8039	-0.013
Mof_C 	C 	0.785	0.6764	0.8061	-0.026
Mof_C 	C 	0.4937	0.1396	0.861	0.357
Mof_C 	C 	0.4277	0.1615	0.8039	-0.023
Mof_C 	C 	0.3236	0.1086	0.8061	-0.033
Mof_C 	C 	0.1396	0.6459	0.861	0.358
Mof_C 	C 	0.1615	0.7338	0.8039	-0.019
Mof_C 	C 	0.1086	0.785	0.8061	-0.031
Mof_C 	C 	0.3541	0.4937	0.861	0.36
Mof_C 	C 	0.2662	0.4277	0.8039	-0.02
Mof_C 	C 	0.215	0.3236	0.8061	-0.032
Mof_C 	C 	0.5063	0.8604	0.861	0.355
Mof_C 	C 	0.5723	0.8385	0.8039	-0.007
Mof_C 	C 	0.6764	0.8914	0.8061	-0.027
Mof_C 	C 	0.2698	0.1349	0.25	-0.055
Mof_C 	C 	0.8651	0.7302	0.25	-0.04
Mof_C 	C 	0.8651	0.1349	0.25	-0.046
Mof_C 	C 	0.7302	0.8651	0.25	-0.04
Mof_C 	C 	0.1349	0.2698	0.25	-0.055
Mof_C 	C 	0.1349	0.8651	0.25	-0.046
Mof_C 	C 	0.7302	0.8651	0.75	-0.027
Mof_C 	C 	0.1349	0.2698	0.75	-0.041
Mof_C 	C 	0.1349	0.8651	0.75	-0.033
Mof_C 	C 	0.2698	0.1349	0.75	-0.041
Mof_C 	C 	0.8651	0.7302	0.75	-0.027
Mof_C 	C 	0.8651	0.1349	0.75	-0.033
Mof_N 	N 	0.47938	0.23969	0.25	-0.188
Mof_N 	N 	0.76031	0.52062	0.25	-0.188
Mof_N 	N 	0.76031	0.23969	0.25	-0.188
Mof_N 	N 	0.52062	0.76031	0.25	-0.188
Mof_N 	N 	0.23969	0.47938	0.25	-0.188
Mof_N 	N 	0.23969	0.76031	0.25	-0.188
Mof_N 	N 	0.52062	0.76031	0.75	-0.19
Mof_N 	N 	0.23969	0.47938	0.75	-0.191
Mof_N 	N 	0.23969	0.76031	0.75	-0.191
Mof_N 	N 	0.47938	0.23969	0.75	-0.191
Mof_N 	N 	0.76031	0.52062	0.75	-0.191
Mof_N 	N 	0.76031	0.23969	0.75	-0.191
Mof_O 	O 	0.5881	0.3883	0.35573	-0.433
Mof_O 	O 	0.4495	0.3851	0.4084	-0.365
Mof_O 	O 	0.8002	0.4119	0.35573	-0.422
Mof_O 	O 	0.9356	0.5505	0.4084	-0.327
Mof_O 	O 	0.6117	0.1998	0.35573	-0.435
Mof_O 	O 	0.6149	0.0644	0.4084	-0.368
Mof_O 	O 	0.4119	0.6117	0.35573	-0.432
Mof_O 	O 	0.5505	0.6149	0.4084	-0.361
Mof_O 	O 	0.1998	0.5881	0.35573	-0.436
Mof_O 	O 	0.0644	0.4495	0.4084	-0.37
Mof_O 	O 	0.3883	0.8002	0.35573	-0.422
Mof_O 	O 	0.3851	0.9356	0.4084	-0.329
Mof_O 	O 	0.1998	0.6117	0.14427	-0.444
Mof_O 	O 	0.0644	0.6149	0.0916	-0.375
Mof_O 	O 	0.3883	0.5881	0.14427	-0.442
Mof_O 	O 	0.3851	0.4495	0.0916	-0.372
Mof_O 	O 	0.4119	0.8002	0.14427	-0.431
Mof_O 	O 	0.5505	0.9356	0.0916	-0.334
Mof_O 	O 	0.8002	0.3883	0.14427	-0.431
Mof_O 	O 	0.9356	0.3851	0.0916	-0.336
Mof_O 	O 	0.6117	0.4119	0.14427	-0.441
Mof_O 	O 	0.6149	0.5505	0.0916	-0.368
Mof_O 	O 	0.5881	0.1998	0.14427	-0.445
Mof_O 	O 	0.4495	0.0644	0.0916	-0.377
Mof_O 	O 	0.4119	0.6117	0.64427	-0.433
Mof_O 	O 	0.5505	0.6149	0.5916	-0.36
Mof_O 	O 	0.1998	0.5881	0.64427	-0.437
Mof_O 	O 	0.0644	0.4495	0.5916	-0.37
Mof_O 	O 	0.3883	0.8002	0.64427	-0.423
Mof_O 	O 	0.3851	0.9356	0.5916	-0.329
Mof_O 	O 	0.5881	0.3883	0.64427	-0.434
Mof_O 	O 	0.4495	0.3851	0.5916	-0.365
Mof_O 	O 	0.8002	0.4119	0.64427	-0.423
Mof_O 	O 	0.9356	0.5505	0.5916	-0.327
Mof_O 	O 	0.6117	0.1998	0.64427	-0.436
Mof_O 	O 	0.6149	0.0644	0.5916	-0.368
Mof_O 	O 	0.8002	0.3883	0.85573	-0.4
Mof_O 	O 	0.9356	0.3851	0.9084	-0.274
Mof_O 	O 	0.6117	0.4119	0.85573	-0.409
Mof_O 	O 	0.6149	0.5505	0.9084	-0.304
Mof_O 	O 	0.5881	0.1998	0.85573	-0.413
Mof_O 	O 	0.4495	0.0644	0.9084	-0.314
Mof_O 	O 	0.1998	0.6117	0.85573	-0.413
Mof_O 	O 	0.0644	0.6149	0.9084	-0.312
Mof_O 	O 	0.3883	0.5881	0.85573	-0.41
Mof_O 	O 	0.3851	0.4495	0.9084	-0.308
Mof_O 	O 	0.4119	0.8002	0.85573	-0.4
Mof_O 	O 	0.5505	0.9356	0.9084	-0.273
_end
