data_functionalizedCrystal
_audit_creation_method	'EQeq! by Chris Wilmer'
_symmetry_space_group_name_H-M	'P1'
_symmetry_Int_Tables_number	1
_symmetry_cell_setting	triclinic
loop_
_symmetry_equiv_pos_as_xyz
  x,y,z
_cell_length_a	13.1395
_cell_length_b	16.4144
_cell_length_c	13.3141
_cell_angle_alpha	89.9984
_cell_angle_beta	90.0035
_cell_angle_gamma	90.6047
loop_
_atom_site_label
_atom_site_type_symbol
_atom_site_fract_x
_atom_site_fract_y
_atom_site_fract_z
_atom_site_charge
Mof_H 	H 	0.41196	0.45984	0.58096	0.025
Mof_H 	H 	0.40778	0.58121	0.46586	0.029
Mof_H 	H 	0.08819	0.54026	0.41589	0.024
Mof_H 	H 	0.09237	0.41891	0.53101	0.029
Mof_H 	H 	0.40776	0.08115	0.53073	0.027
Mof_H 	H 	0.08814	0.04028	0.58057	0.024
Mof_H 	H 	0.15774	0.08054	0.965	0.026
Mof_H 	H 	0.34231	0.91818	0.02982	0.028
Mof_H 	H 	0.16186	0.95913	0.08003	0.026
Mof_H 	H 	0.33821	0.03958	0.91477	0.024
Mof_H 	H 	0.34225	0.41822	0.96645	0.029
Mof_H 	H 	0.16187	0.45917	0.91663	0.024
Mof_H 	H 	0.09229	0.91899	0.46537	0.029
Mof_H 	H 	0.4119	0.95985	0.41553	0.025
Mof_H 	H 	0.15764	0.58051	0.03175	0.029
Mof_H 	H 	0.33804	0.53955	0.08159	0.024
Mof_H 	H 	0.91203	0.45993	0.58104	0.024
Mof_H 	H 	0.90785	0.5813	0.46596	0.029
Mof_H 	H 	0.58826	0.54038	0.41601	0.024
Mof_H 	H 	0.59243	0.41901	0.53111	0.028
Mof_H 	H 	0.90785	0.08124	0.53064	0.029
Mof_H 	H 	0.58822	0.0404	0.58045	0.025
Mof_H 	H 	0.65784	0.08036	0.96474	0.028
Mof_H 	H 	0.84237	0.91803	0.0296	0.026
Mof_H 	H 	0.66193	0.95896	0.07978	0.025
Mof_H 	H 	0.83825	0.03943	0.91457	0.025
Mof_H 	H 	0.84231	0.41812	0.9666	0.029
Mof_H 	H 	0.66191	0.45903	0.91682	0.024
Mof_H 	H 	0.59236	0.9191	0.46525	0.027
Mof_H 	H 	0.91198	0.95995	0.41543	0.024
Mof_H 	H 	0.65771	0.58037	0.03196	0.029
Mof_H 	H 	0.83809	0.53946	0.08174	0.023
Mof_C 	C 	0.4085	0.02144	0.95148	0.046
Mof_C 	C 	0.99778	0.0668	0.93342	-0.273
Mof_C 	C 	0.4957	0.13873	0.86498	0.997
Mof_C 	C 	0.08928	0.54434	0.01705	0.035
Mof_C 	C 	0.15848	0.52218	0.45263	0.044
Mof_C 	C 	0.24777	0.56752	0.43446	-0.266
Mof_C 	C 	0.24566	0.63928	0.36575	0.997
Mof_C 	C 	0.33935	0.04504	0.51597	0.048
Mof_C 	C 	0.09157	0.47723	0.95336	0.048
Mof_C 	C 	0.50227	0.43191	0.93511	-0.266
Mof_C 	C 	0.00433	0.3604	0.86602	1.002
Mof_C 	C 	0.41072	0.9543	0.01514	0.041
Mof_C 	C 	0.3416	0.97796	0.45223	0.039
Mof_C 	C 	0.25228	0.93268	0.43396	-0.262
Mof_C 	C 	0.25433	0.86096	0.36517	0.995
Mof_C 	C 	0.16076	0.45506	0.51631	0.043
Mof_C 	C 	0.0916	0.9772	0.04322	0.034
Mof_C 	C 	0.5023	0.93185	0.06133	-0.266
Mof_C 	C 	0.00431	0.86033	0.13041	0.991
Mof_C 	C 	0.41065	0.45434	0.98123	0.043
Mof_C 	C 	0.34166	0.47794	0.54425	0.044
Mof_C 	C 	0.25235	0.43263	0.56248	-0.266
Mof_C 	C 	0.25439	0.36092	0.63127	0.997
Mof_C 	C 	0.16069	0.95511	0.48011	0.036
Mof_C 	C 	0.40837	0.52144	0.04494	0.043
Mof_C 	C 	0.99765	0.56679	0.06312	-0.262
Mof_C 	C 	0.49557	0.6387	0.1316	0.997
Mof_C 	C 	0.08936	0.04434	0.97958	0.06
Mof_C 	C 	0.15844	0.0222	0.54384	0.051
Mof_C 	C 	0.24774	0.0675	0.56208	-0.269
Mof_C 	C 	0.24567	0.13923	0.63083	0.999
Mof_C 	C 	0.33938	0.54507	0.48058	0.043
Mof_C 	C 	0.90852	0.02136	0.95137	0.034
Mof_C 	C 	0.4978	0.06679	0.9334	-0.266
Mof_C 	C 	0.99567	0.13875	0.86501	0.991
Mof_C 	C 	0.58931	0.54425	0.01718	0.043
Mof_C 	C 	0.65855	0.52228	0.45274	0.044
Mof_C 	C 	0.74784	0.56762	0.43457	-0.266
Mof_C 	C 	0.74571	0.63936	0.36583	0.997
Mof_C 	C 	0.83943	0.04513	0.51587	0.036
Mof_C 	C 	0.59159	0.47715	0.95348	0.043
Mof_C 	C 	0.00228	0.43193	0.93509	-0.262
Mof_C 	C 	0.50432	0.36039	0.86602	0.998
Mof_C 	C 	0.91076	0.95422	0.01502	0.06
Mof_C 	C 	0.84168	0.97805	0.45213	0.051
Mof_C 	C 	0.75236	0.93277	0.43386	-0.269
Mof_C 	C 	0.75439	0.86104	0.36509	0.999
Mof_C 	C 	0.66082	0.45516	0.51641	0.043
Mof_C 	C 	0.59164	0.9771	0.04308	0.046
Mof_C 	C 	0.0023	0.93186	0.06134	-0.273
Mof_C 	C 	0.50429	0.86034	0.13043	0.997
Mof_C 	C 	0.91069	0.45428	0.98131	0.035
Mof_C 	C 	0.84172	0.47803	0.54435	0.044
Mof_C 	C 	0.75242	0.43272	0.56256	-0.266
Mof_C 	C 	0.75444	0.36099	0.63134	0.997
Mof_C 	C 	0.66076	0.95522	0.47999	0.047
Mof_C 	C 	0.90839	0.52139	0.04501	0.048
Mof_C 	C 	0.49766	0.56677	0.06315	-0.266
Mof_C 	C 	0.99555	0.63871	0.13158	1.001
Mof_C 	C 	0.58942	0.04424	0.97942	0.041
Mof_C 	C 	0.65852	0.0223	0.54373	0.039
Mof_C 	C 	0.74782	0.0676	0.56197	-0.263
Mof_C 	C 	0.74573	0.13931	0.63075	0.996
Mof_C 	C 	0.83945	0.54516	0.48067	0.043
Mof_O 	O 	0.08023	0.1748	0.84735	-1.392
Mof_O 	O 	0.40947	0.65928	0.16719	-1.382
Mof_O 	O 	0.33021	0.67528	0.34789	-1.396
Mof_O 	O 	0.15958	0.15973	0.66651	-1.383
Mof_O 	O 	0.41972	0.32454	0.84793	-1.397
Mof_O 	O 	0.09036	0.83999	0.16632	-1.382
Mof_O 	O 	0.16974	0.82502	0.34733	-1.396
Mof_O 	O 	0.34047	0.34041	0.66699	-1.383
Mof_O 	O 	0.41968	0.8245	0.14851	-1.397
Mof_O 	O 	0.0904	0.34005	0.83016	-1.384
Mof_O 	O 	0.16978	0.32502	0.64916	-1.397
Mof_O 	O 	0.34041	0.84049	0.32942	-1.382
Mof_O 	O 	0.08012	0.67477	0.14923	-1.4
Mof_O 	O 	0.40959	0.15933	0.82942	-1.383
Mof_O 	O 	0.33025	0.17518	0.64874	-1.397
Mof_O 	O 	0.15957	0.65972	0.33002	-1.383
Mof_O 	O 	0.58027	0.17477	0.84728	-1.397
Mof_O 	O 	0.90947	0.65926	0.16722	-1.383
Mof_O 	O 	0.83026	0.67536	0.34795	-1.396
Mof_O 	O 	0.65964	0.15979	0.66643	-1.383
Mof_O 	O 	0.91974	0.32452	0.84798	-1.4
Mof_O 	O 	0.59036	0.83996	0.16628	-1.384
Mof_O 	O 	0.6698	0.82509	0.34728	-1.398
Mof_O 	O 	0.84051	0.34047	0.66706	-1.382
Mof_O 	O 	0.91971	0.82445	0.14844	-1.391
Mof_O 	O 	0.59039	0.34003	0.83018	-1.384
Mof_O 	O 	0.66983	0.32508	0.64919	-1.397
Mof_O 	O 	0.84046	0.84056	0.32934	-1.382
Mof_O 	O 	0.58014	0.67472	0.14929	-1.397
Mof_O 	O 	0.90957	0.15932	0.8294	-1.381
Mof_O 	O 	0.83031	0.17525	0.64869	-1.396
Mof_O 	O 	0.65961	0.6598	0.33011	-1.384
Mof_F 	F 	2e-05	0.25004	0.68787	-1.989
Mof_F 	F 	0.24996	0.74986	0.18784	-1.991
Mof_F 	F 	0.49998	0.75006	0.30867	-1.992
Mof_F 	F 	0.25001	0.24987	0.80868	-1.993
Mof_F 	F 	0.50002	0.25004	0.68786	-1.993
Mof_F 	F 	0.74997	0.74985	0.18785	-1.993
Mof_F 	F 	0.99998	0.75006	0.30866	-1.989
Mof_F 	F 	0.75002	0.24988	0.80867	-1.992
Mof_Al	Al	0.12501	0.24993	0.74828	5.813
Mof_Al	Al	0.37496	0.74993	0.24825	5.808
Mof_Al	Al	0.37501	0.24991	0.74828	5.811
Mof_Al	Al	0.12496	0.74991	0.24824	5.805
Mof_Al	Al	0.62502	0.24995	0.74825	5.812
Mof_Al	Al	0.87498	0.74995	0.24824	5.81
Mof_Al	Al	0.87503	0.24993	0.74829	5.802
Mof_Al	Al	0.62498	0.74993	0.24826	5.814
_end
