data_functionalizedCrystal
_audit_creation_method	'EQeq! by Chris Wilmer'
_symmetry_space_group_name_H-M	'P1'
_symmetry_Int_Tables_number	1
_symmetry_cell_setting	triclinic
loop_
_symmetry_equiv_pos_as_xyz
  x,y,z
_cell_length_a	17.3226
_cell_length_b	9.282
_cell_length_c	29.8388
_cell_angle_alpha	90
_cell_angle_beta	93.726
_cell_angle_gamma	90
loop_
_atom_site_label
_atom_site_type_symbol
_atom_site_fract_x
_atom_site_fract_y
_atom_site_fract_z
_atom_site_charge
Mof_Ag	Ag	0.50258	0.0886	0.11168	0.46
Mof_Ag	Ag	0.81934	0.10588	0.22064	0.462
Mof_Ag	Ag	0.83348	0.9944	0.44378	0.452
Mof_S 	S 	0.92451	0.19709	0.47199	-0.072
Mof_S 	S 	0.58379	0.86564	0.14516	-0.063
Mof_S 	S 	0.74295	0.87674	0.19496	-0.07
Mof_S 	S 	0.88678	0.7681	0.48465	-0.072
Mof_S 	S 	0.04539	0.80876	0.16246	-0.065
Mof_S 	S 	0.80237	0.99759	0.35883	-0.101
Mof_S 	S 	0.80413	0.51868	0.52739	-0.068
Mof_S 	S 	0.95741	0.05263	0.20366	-0.089
Mof_S 	S 	0.56205	0.09338	0.03528	-0.085
Mof_S 	S 	0.3597	0.05112	0.12083	-0.08
Mof_S 	S 	0.26744	0.81098	0.16213	-0.058
Mof_S 	S 	0.77394	0.23647	0.28858	-0.088
Mof_H 	H 	0.0231	0.0259	0.4776	0.035
Mof_C 	C 	0.6607	0.9748	0.17055	-0.124
Mof_H 	H 	0.6394	0.0346	0.1943	0.036
Mof_H 	H 	0.6788	0.041	0.1474	0.034
Mof_C 	C 	0.3076	0.0221	0.06718	-0.31
Mof_H 	H 	0.3407	0.9701	0.0472	0.096
Mof_H 	H 	0.2928	0.1152	0.0537	0.095
Mof_H 	H 	0.261	0.9651	0.0715	0.103
Mof_C 	C 	0.8656	0.5541	0.57751	-0.321
Mof_H 	H 	0.9159	0.5895	0.569	0.108
Mof_H 	H 	0.8729	0.4651	0.5949	0.097
Mof_H 	H 	0.8413	0.6271	0.5957	0.098
Mof_C 	C 	0.9763	0.2544	0.42437	-0.328
Mof_H 	H 	0.0236	0.3053	0.435	0.115
Mof_H 	H 	0.9435	0.319	0.4054	0.099
Mof_H 	H 	0.99	0.1699	0.4068	0.096
Mof_C 	C 	0.6325	0.7919	0.09825	-0.333
Mof_H 	H 	0.6541	0.8707	0.0811	0.105
Mof_H 	H 	0.5954	0.7374	0.0787	0.101
Mof_H 	H 	0.6743	0.7279	0.1096	0.115
Mof_C 	C 	0.648	0.2042	0.04268	-0.313
Mof_H 	H 	0.671	0.2158	0.0137	0.098
Mof_H 	H 	0.6854	0.1577	0.0641	0.095
Mof_H 	H 	0.6341	0.2989	0.0542	0.094
Mof_C 	C 	0.8183	0.1824	0.3422	-0.101
Mof_H 	H 	0.7989	0.2465	0.3655	0.035
Mof_H 	H 	0.8747	0.1984	0.3418	0.033
Mof_C 	C 	0.9526	0.8733	0.18051	-0.115
Mof_H 	H 	0.9141	0.872	0.1545	0.033
Mof_H 	H 	0.9343	0.8064	0.2034	0.035
Mof_H 	H 	0.5314	0.272	0.9813	0.031
Mof_C 	C 	0.3609	0.872	0.14466	-0.118
Mof_H 	H 	0.3987	0.8698	0.171	0.029
Mof_H 	H 	0.379	0.8034	0.1222	0.037
Mof_C 	C 	0.0674	0.9511	0.12369	-0.341
Mof_H 	H 	0.0324	0.9441	0.0966	0.101
Mof_H 	H 	0.121	0.9412	0.1155	0.11
Mof_H 	H 	0.0607	0.0449	0.138	0.126
Mof_C 	C 	0.2416	0.9582	0.19787	-0.35
Mof_H 	H 	0.2825	0.972	0.2218	0.109
Mof_H 	H 	0.1928	0.9359	0.2112	0.115
Mof_H 	H 	0.2356	0.0465	0.18	0.128
Mof_C 	C 	0.6737	0.1969	0.29665	-0.309
Mof_H 	H 	0.6684	0.0949	0.3044	0.099
Mof_H 	H 	0.6423	0.2175	0.2689	0.094
Mof_H 	H 	0.656	0.2567	0.321	0.099
Mof_C 	C 	0.7965	0.6964	0.50296	-0.115
Mof_H 	H 	0.7765	0.7632	0.5253	0.033
Mof_H 	H 	0.7582	0.6934	0.4769	0.032
Mof_C 	C 	0.8764	0.9032	0.33036	-0.279
Mof_H 	H 	0.8719	0.9274	0.2983	0.078
Mof_H 	H 	0.8698	0.7991	0.3341	0.081
Mof_H 	H 	0.9276	0.9319	0.3433	0.077
Mof_C 	C 	0.7024	0.8	0.24406	-0.326
Mof_H 	H 	0.6881	0.8776	0.2642	0.099
Mof_H 	H 	0.7408	0.7373	0.2598	0.101
Mof_H 	H 	0.6563	0.7436	0.2348	0.112
Mof_C 	C 	0.9088	0.6382	0.44221	-0.323
Mof_H 	H 	0.9149	0.5426	0.4559	0.117
Mof_H 	H 	0.9569	0.6657	0.4289	0.097
Mof_H 	H 	0.8665	0.6358	0.4188	0.096
Mof_C 	C 	0.0192	0.0262	0.254	-0.286
Mof_H 	H 	0.9992	0.9467	0.2714	0.083
Mof_H 	H 	0.0203	0.1145	0.272	0.087
Mof_H 	H 	0.0717	0.0032	0.2459	0.099
Mof_Ag	Ag	0.00258	0.5886	0.11168	0.464
Mof_Ag	Ag	0.31934	0.60588	0.22064	0.459
Mof_Ag	Ag	0.33348	0.4944	0.44378	0.462
Mof_S 	S 	0.42451	0.69709	0.47199	-0.074
Mof_S 	S 	0.08379	0.36564	0.14516	-0.061
Mof_S 	S 	0.24295	0.37674	0.19496	-0.068
Mof_S 	S 	0.38678	0.2681	0.48465	-0.069
Mof_S 	S 	0.54539	0.30876	0.16246	-0.068
Mof_S 	S 	0.30237	0.49759	0.35883	-0.096
Mof_S 	S 	0.30413	0.01868	0.52739	-0.064
Mof_S 	S 	0.45741	0.55263	0.20366	-0.083
Mof_S 	S 	0.06205	0.59338	0.03528	-0.086
Mof_S 	S 	0.8597	0.55112	0.12083	-0.083
Mof_S 	S 	0.76744	0.31098	0.16213	-0.059
Mof_S 	S 	0.27394	0.73647	0.28858	-0.088
Mof_H 	H 	0.5231	0.5259	0.4776	0.034
Mof_C 	C 	0.1607	0.4748	0.17055	-0.12
Mof_H 	H 	0.1394	0.5346	0.1943	0.034
Mof_H 	H 	0.1788	0.541	0.1474	0.032
Mof_C 	C 	0.8076	0.5221	0.06718	-0.312
Mof_H 	H 	0.8407	0.4701	0.0472	0.097
Mof_H 	H 	0.7928	0.6152	0.0537	0.096
Mof_H 	H 	0.761	0.4651	0.0715	0.104
Mof_C 	C 	0.3656	0.0541	0.57751	-0.31
Mof_H 	H 	0.4159	0.0895	0.569	0.106
Mof_H 	H 	0.3729	0.9651	0.5949	0.091
Mof_H 	H 	0.3413	0.1271	0.5957	0.096
Mof_C 	C 	0.4763	0.7544	0.42437	-0.315
Mof_H 	H 	0.5236	0.8053	0.435	0.108
Mof_H 	H 	0.4435	0.819	0.4054	0.095
Mof_H 	H 	0.49	0.6699	0.4068	0.092
Mof_C 	C 	0.1325	0.2919	0.09825	-0.334
Mof_H 	H 	0.1541	0.3707	0.0811	0.105
Mof_H 	H 	0.0954	0.2374	0.0787	0.102
Mof_H 	H 	0.1743	0.2279	0.1096	0.115
Mof_C 	C 	0.148	0.7042	0.04268	-0.312
Mof_H 	H 	0.171	0.7158	0.0137	0.098
Mof_H 	H 	0.1854	0.6577	0.0641	0.095
Mof_H 	H 	0.1341	0.7989	0.0542	0.094
Mof_C 	C 	0.3183	0.6824	0.3422	-0.105
Mof_H 	H 	0.2989	0.7465	0.3655	0.035
Mof_H 	H 	0.3747	0.6984	0.3418	0.033
Mof_C 	C 	0.4526	0.3733	0.18051	-0.113
Mof_H 	H 	0.4141	0.372	0.1545	0.033
Mof_H 	H 	0.4343	0.3064	0.2034	0.036
Mof_H 	H 	0.0314	0.772	0.9813	0.03
Mof_C 	C 	0.8609	0.372	0.14466	-0.116
Mof_H 	H 	0.8987	0.3698	0.171	0.028
Mof_H 	H 	0.879	0.3034	0.1222	0.036
Mof_C 	C 	0.5674	0.4511	0.12369	-0.335
Mof_H 	H 	0.5324	0.4441	0.0966	0.098
Mof_H 	H 	0.621	0.4412	0.1155	0.108
Mof_H 	H 	0.5607	0.5449	0.138	0.122
Mof_C 	C 	0.7416	0.4582	0.19787	-0.344
Mof_H 	H 	0.7825	0.472	0.2218	0.108
Mof_H 	H 	0.6928	0.4359	0.2112	0.114
Mof_H 	H 	0.7356	0.5465	0.18	0.125
Mof_C 	C 	0.1737	0.6969	0.29665	-0.308
Mof_H 	H 	0.1684	0.5949	0.3044	0.098
Mof_H 	H 	0.1423	0.7175	0.2689	0.094
Mof_H 	H 	0.156	0.7567	0.321	0.099
Mof_C 	C 	0.2965	0.1964	0.50296	-0.118
Mof_H 	H 	0.2765	0.2632	0.5253	0.035
Mof_H 	H 	0.2582	0.1934	0.4769	0.034
Mof_C 	C 	0.3764	0.4032	0.33036	-0.283
Mof_H 	H 	0.3719	0.4274	0.2983	0.08
Mof_H 	H 	0.3698	0.2991	0.3341	0.083
Mof_H 	H 	0.4276	0.4319	0.3433	0.079
Mof_C 	C 	0.2024	0.3	0.24406	-0.328
Mof_H 	H 	0.1881	0.3776	0.2642	0.101
Mof_H 	H 	0.2408	0.2373	0.2598	0.102
Mof_H 	H 	0.1563	0.2436	0.2348	0.113
Mof_C 	C 	0.4088	0.1382	0.44221	-0.327
Mof_H 	H 	0.4149	0.0426	0.4559	0.121
Mof_H 	H 	0.4569	0.1657	0.4289	0.1
Mof_H 	H 	0.3665	0.1358	0.4188	0.099
Mof_C 	C 	0.5192	0.5262	0.254	-0.31
Mof_H 	H 	0.4992	0.4467	0.2714	0.095
Mof_H 	H 	0.5203	0.6145	0.272	0.092
Mof_H 	H 	0.5717	0.5032	0.2459	0.104
Mof_Ag	Ag	0.49742	0.0886	0.88831	0.461
Mof_Ag	Ag	0.18066	0.10588	0.77936	0.462
Mof_Ag	Ag	0.16651	0.9944	0.55622	0.454
Mof_S 	S 	0.07549	0.19709	0.52801	-0.071
Mof_S 	S 	0.41621	0.86564	0.85484	-0.062
Mof_S 	S 	0.25705	0.87674	0.80504	-0.069
Mof_S 	S 	0.11322	0.7681	0.51535	-0.069
Mof_S 	S 	0.95461	0.80876	0.83754	-0.071
Mof_S 	S 	0.19763	0.99759	0.64117	-0.101
Mof_S 	S 	0.19587	0.51868	0.47261	-0.067
Mof_S 	S 	0.04259	0.05263	0.79634	-0.077
Mof_S 	S 	0.43795	0.09338	0.96472	-0.09
Mof_S 	S 	0.6403	0.05112	0.87917	-0.081
Mof_S 	S 	0.73256	0.81098	0.83787	-0.058
Mof_S 	S 	0.22606	0.23647	0.71142	-0.087
Mof_H 	H 	0.9769	0.0259	0.5224	0.032
Mof_C 	C 	0.3393	0.9748	0.82945	-0.125
Mof_H 	H 	0.3606	0.0346	0.8057	0.036
Mof_H 	H 	0.3212	0.041	0.8526	0.034
Mof_C 	C 	0.6924	0.0221	0.93282	-0.307
Mof_H 	H 	0.6593	0.9701	0.9528	0.094
Mof_H 	H 	0.7072	0.1152	0.9463	0.093
Mof_H 	H 	0.739	0.9651	0.9285	0.101
Mof_C 	C 	0.1344	0.5541	0.42249	-0.324
Mof_H 	H 	0.0841	0.5895	0.431	0.11
Mof_H 	H 	0.1271	0.4651	0.4051	0.098
Mof_H 	H 	0.1587	0.6271	0.4043	0.099
Mof_C 	C 	0.0237	0.2544	0.57563	-0.308
Mof_H 	H 	0.9764	0.3053	0.565	0.105
Mof_H 	H 	0.0565	0.319	0.5946	0.095
Mof_H 	H 	0.01	0.1699	0.5932	0.092
Mof_C 	C 	0.3675	0.7919	0.90175	-0.332
Mof_H 	H 	0.3459	0.8707	0.9189	0.104
Mof_H 	H 	0.4046	0.7374	0.9213	0.1
Mof_H 	H 	0.3257	0.7279	0.8904	0.114
Mof_C 	C 	0.352	0.2042	0.95732	-0.31
Mof_H 	H 	0.329	0.2158	0.9863	0.095
Mof_H 	H 	0.3146	0.1577	0.9359	0.094
Mof_H 	H 	0.3659	0.2989	0.9458	0.093
Mof_C 	C 	0.1817	0.1824	0.6578	-0.102
Mof_H 	H 	0.2011	0.2465	0.6345	0.036
Mof_H 	H 	0.1253	0.1984	0.6582	0.034
Mof_C 	C 	0.0474	0.8733	0.81949	-0.112
Mof_H 	H 	0.0859	0.872	0.8455	0.033
Mof_H 	H 	0.0657	0.8064	0.7966	0.036
Mof_H 	H 	0.4686	0.272	0.0187	0.034
Mof_C 	C 	0.6391	0.872	0.85534	-0.118
Mof_H 	H 	0.6013	0.8698	0.829	0.029
Mof_H 	H 	0.621	0.8034	0.8778	0.036
Mof_C 	C 	0.9326	0.9511	0.87631	-0.336
Mof_H 	H 	0.9676	0.9441	0.9034	0.097
Mof_H 	H 	0.879	0.9412	0.8845	0.108
Mof_H 	H 	0.9393	0.0449	0.862	0.122
Mof_C 	C 	0.7584	0.9582	0.80213	-0.349
Mof_H 	H 	0.7175	0.972	0.7782	0.109
Mof_H 	H 	0.8072	0.9359	0.7888	0.114
Mof_H 	H 	0.7644	0.0465	0.82	0.128
Mof_C 	C 	0.3263	0.1969	0.70335	-0.309
Mof_H 	H 	0.3316	0.0949	0.6956	0.099
Mof_H 	H 	0.3577	0.2175	0.7311	0.094
Mof_H 	H 	0.344	0.2567	0.679	0.099
Mof_C 	C 	0.2035	0.6964	0.49704	-0.116
Mof_H 	H 	0.2235	0.7632	0.4747	0.033
Mof_H 	H 	0.2418	0.6934	0.5231	0.033
Mof_C 	C 	0.1236	0.9032	0.66964	-0.28
Mof_H 	H 	0.1281	0.9274	0.7017	0.078
Mof_H 	H 	0.1302	0.7991	0.6659	0.082
Mof_H 	H 	0.0724	0.9319	0.6567	0.078
Mof_C 	C 	0.2976	0.8	0.75594	-0.326
Mof_H 	H 	0.3119	0.8776	0.7358	0.099
Mof_H 	H 	0.2592	0.7373	0.7402	0.101
Mof_H 	H 	0.3437	0.7436	0.7652	0.112
Mof_C 	C 	0.0912	0.6382	0.55779	-0.326
Mof_H 	H 	0.0851	0.5426	0.5441	0.119
Mof_H 	H 	0.0431	0.6657	0.5711	0.1
Mof_H 	H 	0.1335	0.6358	0.5812	0.098
Mof_C 	C 	0.9808	0.0262	0.746	-0.319
Mof_H 	H 	0.0008	0.9467	0.7286	0.098
Mof_H 	H 	0.9797	0.1145	0.728	0.094
Mof_H 	H 	0.9283	0.0032	0.7541	0.107
Mof_Ag	Ag	0.99742	0.5886	0.88831	0.456
Mof_Ag	Ag	0.68066	0.60588	0.77936	0.459
Mof_Ag	Ag	0.66651	0.4944	0.55622	0.462
Mof_S 	S 	0.57549	0.69709	0.52801	-0.074
Mof_S 	S 	0.91621	0.36564	0.85484	-0.063
Mof_S 	S 	0.75705	0.37674	0.80504	-0.069
Mof_S 	S 	0.61322	0.2681	0.51535	-0.069
Mof_S 	S 	0.45461	0.30876	0.83754	-0.069
Mof_S 	S 	0.69763	0.49759	0.64117	-0.097
Mof_S 	S 	0.69587	0.01868	0.47261	-0.063
Mof_S 	S 	0.54259	0.55263	0.79634	-0.084
Mof_S 	S 	0.93795	0.59338	0.96472	-0.094
Mof_S 	S 	0.1403	0.55112	0.87917	-0.079
Mof_S 	S 	0.23256	0.31098	0.83787	-0.058
Mof_S 	S 	0.72606	0.73647	0.71142	-0.089
Mof_H 	H 	0.4769	0.5259	0.5224	0.034
Mof_C 	C 	0.8393	0.4748	0.82945	-0.119
Mof_H 	H 	0.8606	0.5346	0.8057	0.033
Mof_H 	H 	0.8212	0.541	0.8526	0.032
Mof_C 	C 	0.1924	0.5221	0.93282	-0.313
Mof_H 	H 	0.1593	0.4701	0.9528	0.096
Mof_H 	H 	0.2072	0.6152	0.9463	0.095
Mof_H 	H 	0.239	0.4651	0.9285	0.104
Mof_C 	C 	0.6344	0.0541	0.42249	-0.31
Mof_H 	H 	0.5841	0.0895	0.431	0.106
Mof_H 	H 	0.6271	0.9651	0.4051	0.091
Mof_H 	H 	0.6587	0.1271	0.4043	0.097
Mof_C 	C 	0.5237	0.7544	0.57563	-0.315
Mof_H 	H 	0.4764	0.8053	0.565	0.108
Mof_H 	H 	0.5565	0.819	0.5946	0.095
Mof_H 	H 	0.51	0.6699	0.5932	0.092
Mof_C 	C 	0.8675	0.2919	0.90175	-0.332
Mof_H 	H 	0.8459	0.3707	0.9189	0.104
Mof_H 	H 	0.9046	0.2374	0.9213	0.099
Mof_H 	H 	0.8257	0.2279	0.8904	0.114
Mof_C 	C 	0.852	0.7042	0.95732	-0.307
Mof_H 	H 	0.829	0.7158	0.9863	0.094
Mof_H 	H 	0.8146	0.6577	0.9359	0.093
Mof_H 	H 	0.8659	0.7989	0.9458	0.092
Mof_C 	C 	0.6817	0.6824	0.6578	-0.105
Mof_H 	H 	0.7011	0.7465	0.6345	0.035
Mof_H 	H 	0.6253	0.6984	0.6582	0.033
Mof_C 	C 	0.5474	0.3733	0.81949	-0.112
Mof_H 	H 	0.5859	0.372	0.8455	0.033
Mof_H 	H 	0.5657	0.3064	0.7966	0.036
Mof_H 	H 	0.9686	0.772	0.0187	0.029
Mof_C 	C 	0.1391	0.372	0.85534	-0.118
Mof_H 	H 	0.1013	0.3698	0.829	0.03
Mof_H 	H 	0.121	0.3034	0.8778	0.037
Mof_C 	C 	0.4326	0.4511	0.87631	-0.334
Mof_H 	H 	0.4676	0.4441	0.9034	0.098
Mof_H 	H 	0.379	0.4412	0.8845	0.108
Mof_H 	H 	0.4393	0.5449	0.862	0.122
Mof_C 	C 	0.2584	0.4582	0.80213	-0.344
Mof_H 	H 	0.2175	0.472	0.7782	0.108
Mof_H 	H 	0.3072	0.4359	0.7888	0.114
Mof_H 	H 	0.2644	0.5465	0.82	0.125
Mof_C 	C 	0.8263	0.6969	0.70335	-0.306
Mof_H 	H 	0.8316	0.5949	0.6956	0.097
Mof_H 	H 	0.8577	0.7175	0.7311	0.092
Mof_H 	H 	0.844	0.7567	0.679	0.097
Mof_C 	C 	0.7035	0.1964	0.49704	-0.117
Mof_H 	H 	0.7235	0.2632	0.4747	0.035
Mof_H 	H 	0.7418	0.1934	0.5231	0.034
Mof_C 	C 	0.6236	0.4032	0.66964	-0.283
Mof_H 	H 	0.6281	0.4274	0.7017	0.08
Mof_H 	H 	0.6302	0.2991	0.6659	0.083
Mof_H 	H 	0.5724	0.4319	0.6567	0.079
Mof_C 	C 	0.7976	0.3	0.75594	-0.327
Mof_H 	H 	0.8119	0.3776	0.7358	0.1
Mof_H 	H 	0.7592	0.2373	0.7402	0.102
Mof_H 	H 	0.8437	0.2436	0.7652	0.112
Mof_C 	C 	0.5912	0.1382	0.55779	-0.327
Mof_H 	H 	0.5851	0.0426	0.5441	0.121
Mof_H 	H 	0.5431	0.1657	0.5711	0.1
Mof_H 	H 	0.6335	0.1358	0.5812	0.098
Mof_C 	C 	0.4808	0.5262	0.746	-0.31
Mof_H 	H 	0.5008	0.4467	0.7286	0.095
Mof_H 	H 	0.4797	0.6145	0.728	0.092
Mof_H 	H 	0.4283	0.5032	0.7541	0.104
Mof_C 	C 	3.43909e-33	0.0887	0.5	-0.108
Mof_C 	C 	0.5	0.5887	0.5	-0.113
Mof_C 	C 	0.5	0.2097	-0	-0.106
Mof_C 	C 	-0	0.7097	-0	-0.097
_end
