data_functionalizedCrystal
_audit_creation_method	'EQeq! by Chris Wilmer'
_symmetry_space_group_name_H-M	'P1'
_symmetry_Int_Tables_number	1
_symmetry_cell_setting	triclinic
loop_
_symmetry_equiv_pos_as_xyz
  x,y,z
_cell_length_a	8.7632
_cell_length_b	8.7632
_cell_length_c	18.8197
_cell_angle_alpha	90
_cell_angle_beta	90
_cell_angle_gamma	120
loop_
_atom_site_label
_atom_site_type_symbol
_atom_site_fract_x
_atom_site_fract_y
_atom_site_fract_z
_atom_site_charge
Mof_Fe	Fe	0.66667	0.33333	0.33333	0.619
Mof_Fe	Fe	0.33333	0.66667	0.66667	0.619
Mof_Fe	Fe	-0	0	-0	0.202
Mof_K 	K 	-0	0	0.5	1.795
Mof_K 	K 	0.66667	0.33333	0.83333	2.496
Mof_K 	K 	0.33333	0.66667	0.16667	2.478
Mof_N 	N 	0.8366	0.1634	0.4236	-0.269
Mof_C 	C 	0.7732	0.2268	0.3912	-0.159
Mof_N 	N 	0.50327	0.49673	0.75693	-0.336
Mof_C 	C 	0.43987	0.56013	0.72453	-0.16
Mof_N 	N 	0.16993	0.83007	0.09027	-0.365
Mof_C 	C 	0.10653	0.89347	0.05787	-0.08
Mof_N 	N 	0.8366	0.6732	0.4236	-0.235
Mof_C 	C 	0.7732	0.5464	0.3912	-0.141
Mof_N 	N 	0.50327	0.00653	0.75693	-0.427
Mof_C 	C 	0.43987	0.87973	0.72453	-0.045
Mof_N 	N 	0.16993	0.33987	0.09027	-0.365
Mof_C 	C 	0.10653	0.21307	0.05787	-0.182
Mof_N 	N 	0.3268	0.1634	0.4236	-0.306
Mof_C 	C 	0.4536	0.2268	0.3912	-0.179
Mof_N 	N 	0.99347	0.49673	0.75693	-0.247
Mof_C 	C 	0.12027	0.56013	0.72453	-0.27
Mof_N 	N 	0.66013	0.83007	0.09027	-0.364
Mof_C 	C 	0.78693	0.89347	0.05787	0.009
Mof_N 	N 	0.1634	0.8366	0.5764	-0.269
Mof_C 	C 	0.2268	0.7732	0.6088	-0.159
Mof_N 	N 	0.83007	0.16993	0.90973	-0.366
Mof_C 	C 	0.89347	0.10653	0.94213	-0.069
Mof_N 	N 	0.49673	0.50327	0.24307	-0.335
Mof_C 	C 	0.56013	0.43987	0.27547	-0.161
Mof_N 	N 	0.6732	0.8366	0.5764	-0.235
Mof_C 	C 	0.5464	0.7732	0.6088	-0.141
Mof_N 	N 	0.33987	0.16993	0.90973	-0.366
Mof_C 	C 	0.21307	0.10653	0.94213	-0.168
Mof_N 	N 	0.00653	0.50327	0.24307	-0.424
Mof_C 	C 	0.87973	0.43987	0.27547	-0.049
Mof_N 	N 	0.1634	0.3268	0.5764	-0.306
Mof_C 	C 	0.2268	0.4536	0.6088	-0.179
Mof_N 	N 	0.83007	0.66013	0.90973	-0.365
Mof_C 	C 	0.89347	0.78693	0.94213	0.022
Mof_N 	N 	0.49673	0.99347	0.24307	-0.244
Mof_C 	C 	0.56013	0.12027	0.27547	-0.274
_end
