# CIF file generated by openbabel 3.1.0, see https://openbabel.org
data_I
_chemical_name_common 'MAKXAZ_clean'
_cell_length_a 6.64
_cell_length_b 13.6261
_cell_length_c 24.4675
_cell_angle_alpha 75.8841
_cell_angle_beta 82.2015
_cell_angle_gamma 75.898
_space_group_name_H-M_alt 'P 1'
_space_group_name_Hall 'P 1'
loop_
    _symmetry_equiv_pos_as_xyz
    x,y,z
loop_
    _atom_site_label
    _atom_site_type_symbol
    _atom_site_fract_x
    _atom_site_fract_y
    _atom_site_fract_z
    _atom_site_occupancy
    Zn1      Zn       0.93847    0.90248    0.96912    1.000
    Zn2      Zn       0.81007    0.59752    0.53088    1.000
    Zn3      Zn       0.06153    0.09752    0.03088    1.000
    Zn4      Zn       0.18993    0.40248    0.46912    1.000
    H1       H        0.44010    0.94620    0.83100    1.000
    H2       H        0.61960    0.03170    0.75330    1.000
    H3       H        0.07260    0.19430    0.69070    1.000
    H4       H        0.89340    0.10460    0.76720    1.000
    H5       H        0.74860    0.07530    0.66350    1.000
    H6       H        0.93480    0.17900    0.59620    1.000
    H7       H        0.43370    0.41890    0.58650    1.000
    H8       H        0.24750    0.31560    0.65400    1.000
    H9       H        0.54400    0.86410    0.92430    1.000
    H10      H        0.42730    0.71550    0.92390    1.000
    H11      H        0.86960    0.54080    0.02780    1.000
    H12      H        0.98640    0.68920    0.02820    1.000
    H13      H        0.68310    0.46320    0.96820    1.000
    H14      H        0.47550    0.53570    0.94190    1.000
    H15      H        0.21730    0.55380    0.66900    1.000
    H16      H        0.40460    0.46830    0.74670    1.000
    H17      H        0.95760    0.30570    0.80930    1.000
    H18      H        0.76520    0.39540    0.73280    1.000
    H19      H        0.48740    0.42470    0.83650    1.000
    H20      H        0.71000    0.32100    0.90380    1.000
    H21      H        0.43910    0.08110    0.91350    1.000
    H22      H        0.21710    0.18440    0.84600    1.000
    H23      H        0.33240    0.63590    0.57570    1.000
    H24      H        0.06670    0.78450    0.57610    1.000
    H25      H        0.43820    0.95920    0.47220    1.000
    H26      H        0.70380    0.81080    0.47180    1.000
    H27      H        0.11450    0.03680    0.53180    1.000
    H28      H        0.95310    0.96430    0.55810    1.000
    H29      H        0.55990    0.05380    0.16900    1.000
    H30      H        0.38040    0.96830    0.24670    1.000
    H31      H        0.92740    0.80570    0.30930    1.000
    H32      H        0.10660    0.89540    0.23280    1.000
    H33      H        0.25140    0.92470    0.33650    1.000
    H34      H        0.06520    0.82100    0.40380    1.000
    H35      H        0.56630    0.58110    0.41350    1.000
    H36      H        0.75250    0.68440    0.34600    1.000
    H37      H        0.45600    0.13590    0.07570    1.000
    H38      H        0.57270    0.28450    0.07610    1.000
    H39      H        0.13040    0.45920    0.97220    1.000
    H40      H        0.01360    0.31080    0.97180    1.000
    H41      H        0.31690    0.53680    0.03180    1.000
    H42      H        0.52450    0.46430    0.05810    1.000
    H43      H        0.78270    0.44620    0.33100    1.000
    H44      H        0.59540    0.53170    0.25330    1.000
    H45      H        0.04240    0.69430    0.19070    1.000
    H46      H        0.23480    0.60460    0.26720    1.000
    H47      H        0.51260    0.57530    0.16350    1.000
    H48      H        0.29000    0.67900    0.09620    1.000
    H49      H        0.56090    0.91890    0.08650    1.000
    H50      H        0.78290    0.81560    0.15400    1.000
    H51      H        0.66760    0.36410    0.42430    1.000
    H52      H        0.93330    0.21550    0.42390    1.000
    H53      H        0.56180    0.04080    0.52780    1.000
    H54      H        0.29620    0.18920    0.52820    1.000
    H55      H        0.88550    0.96320    0.46820    1.000
    H56      H        0.04690    0.03570    0.44190    1.000
    C1       C        0.02900    0.96748    0.85892    1.000
    C2       C        0.14795    0.01700    0.80730    1.000
    C3       C        0.36484    0.99635    0.80237    1.000
    C4       C        0.47163    0.04796    0.75638    1.000
    C5       C        0.36526    0.12417    0.71411    1.000
    C6       C        0.14830    0.14370    0.71910    1.000
    C7       C        0.04129    0.09058    0.76484    1.000
    C8       C        0.48005    0.18592    0.66738    1.000
    C9       C        0.68479    0.14559    0.64863    1.000
    C10      C        0.79539    0.20734    0.60848    1.000
    C11      C        0.70525    0.31059    0.58571    1.000
    C12      C        0.49923    0.34952    0.60262    1.000
    C13      C        0.38853    0.28784    0.64290    1.000
    C14      C        0.82886    0.37798    0.54510    1.000
    C15      C        0.61010    0.79850    0.94530    1.000
    C16      C        0.54070    0.71030    0.94510    1.000
    C17      C        0.63740    0.61420    0.97580    1.000
    C18      C        0.80350    0.60640    0.00680    1.000
    C19      C        0.87290    0.69460    0.00700    1.000
    C20      C        0.56110    0.51920    0.97440    1.000
    C21      C        0.85540    0.53252    0.64108    1.000
    C22      C        0.97225    0.48300    0.69270    1.000
    C23      C        0.16356    0.50365    0.69763    1.000
    C24      C        0.27597    0.45204    0.74362    1.000
    C25      C        0.20354    0.37583    0.78589    1.000
    C26      C        0.01110    0.35630    0.78090    1.000
    C27      C        0.89671    0.40942    0.73516    1.000
    C28      C        0.33335    0.31408    0.83262    1.000
    C29      C        0.47901    0.35441    0.85137    1.000
    C30      C        0.61121    0.29266    0.89152    1.000
    C31      C        0.60155    0.18941    0.91429    1.000
    C32      C        0.45137    0.15048    0.89738    1.000
    C33      C        0.31927    0.21216    0.85710    1.000
    C34      C        0.75194    0.12202    0.95490    1.000
    C35      C        0.35390    0.70150    0.55470    1.000
    C36      C        0.19610    0.78970    0.55490    1.000
    C37      C        0.22740    0.88580    0.52420    1.000
    C38      C        0.41670    0.89360    0.49320    1.000
    C39      C        0.57450    0.80540    0.49300    1.000
    C40      C        0.05470    0.98080    0.52560    1.000
    C41      C        0.97100    0.03252    0.14108    1.000
    C42      C        0.85205    0.98300    0.19270    1.000
    C43      C        0.63516    0.00365    0.19763    1.000
    C44      C        0.52837    0.95204    0.24362    1.000
    C45      C        0.63474    0.87583    0.28589    1.000
    C46      C        0.85170    0.85630    0.28090    1.000
    C47      C        0.95871    0.90942    0.23516    1.000
    C48      C        0.51995    0.81408    0.33262    1.000
    C49      C        0.31521    0.85441    0.35137    1.000
    C50      C        0.20461    0.79266    0.39152    1.000
    C51      C        0.29475    0.68941    0.41429    1.000
    C52      C        0.50077    0.65048    0.39738    1.000
    C53      C        0.61147    0.71216    0.35710    1.000
    C54      C        0.17114    0.62202    0.45490    1.000
    C55      C        0.38990    0.20150    0.05470    1.000
    C56      C        0.45930    0.28970    0.05490    1.000
    C57      C        0.36260    0.38580    0.02420    1.000
    C58      C        0.19650    0.39360    0.99320    1.000
    C59      C        0.12710    0.30540    0.99300    1.000
    C60      C        0.43890    0.48080    0.02560    1.000
    C61      C        0.14460    0.46748    0.35892    1.000
    C62      C        0.02775    0.51700    0.30730    1.000
    C63      C        0.83644    0.49635    0.30237    1.000
    C64      C        0.72403    0.54796    0.25638    1.000
    C65      C        0.79646    0.62417    0.21411    1.000
    C66      C        0.98890    0.64370    0.21910    1.000
    C67      C        0.10329    0.59058    0.26484    1.000
    C68      C        0.66665    0.68592    0.16738    1.000
    C69      C        0.52099    0.64559    0.14863    1.000
    C70      C        0.38879    0.70734    0.10848    1.000
    C71      C        0.39845    0.81059    0.08571    1.000
    C72      C        0.54863    0.84952    0.10262    1.000
    C73      C        0.68073    0.78784    0.14290    1.000
    C74      C        0.24806    0.87798    0.04510    1.000
    C75      C        0.64610    0.29850    0.44530    1.000
    C76      C        0.80390    0.21030    0.44510    1.000
    C77      C        0.77260    0.11420    0.47580    1.000
    C78      C        0.58330    0.10640    0.50680    1.000
    C79      C        0.42550    0.19460    0.50700    1.000
    C80      C        0.94530    0.01920    0.47440    1.000
    N1       N        0.77620    0.79070    0.97630    1.000
    N2       N        0.54320    0.70930    0.52370    1.000
    N3       N        0.22380    0.20930    0.02370    1.000
    N4       N        0.45680    0.29070    0.47630    1.000
    O1       O        0.13226    0.92939    0.90329    1.000
    O2       O        0.84557    0.96553    0.85753    1.000
    O3       O        0.74027    0.47022    0.52404    1.000
    O4       O        0.01878    0.33848    0.53376    1.000
    O5       O        0.96494    0.57061    0.59671    1.000
    O6       O        0.66863    0.53447    0.64247    1.000
    O7       O        0.73453    0.02978    0.97596    1.000
    O8       O        0.89102    0.16152    0.96624    1.000
    O9       O        0.86774    0.07061    0.09671    1.000
    O10      O        0.15443    0.03447    0.14247    1.000
    O11      O        0.25973    0.52978    0.47596    1.000
    O12      O        0.98122    0.66152    0.46624    1.000
    O13      O        0.03506    0.42939    0.40329    1.000
    O14      O        0.33137    0.46553    0.35753    1.000
    O15      O        0.26547    0.97022    0.02404    1.000
    O16      O        0.10898    0.83848    0.03376    1.000
