data_functionalizedCrystal
_audit_creation_method	'EQeq! by Chris Wilmer'
_symmetry_space_group_name_H-M	'P1'
_symmetry_Int_Tables_number	1
_symmetry_cell_setting	triclinic
loop_
_symmetry_equiv_pos_as_xyz
  x,y,z
_cell_length_a	18.38
_cell_length_b	18.5557
_cell_length_c	18.5557
_cell_angle_alpha	70.3378
_cell_angle_beta	70.7204
_cell_angle_gamma	109.28
loop_
_atom_site_label
_atom_site_type_symbol
_atom_site_fract_x
_atom_site_fract_y
_atom_site_fract_z
_atom_site_charge
Mof_Cu	Cu	0.51209	0.57161	0.93529	0.913
Mof_Cu	Cu	0.44738	0.93529	0.4931	0.913
Mof_Cu	Cu	0.94048	0.4931	0.57161	0.913
Mof_Cu	Cu	0.05262	0.4931	0.93529	0.912
Mof_Cu	Cu	0.55952	0.57161	0.4931	0.914
Mof_Cu	Cu	0.98791	0.93529	0.57161	0.913
Mof_Cu	Cu	0.48791	0.42839	0.06471	0.914
Mof_Cu	Cu	0.55262	0.06471	0.5069	0.914
Mof_Cu	Cu	0.05952	0.5069	0.42839	0.914
Mof_Cu	Cu	0.94738	0.5069	0.06471	0.913
Mof_Cu	Cu	0.44048	0.42839	0.5069	0.914
Mof_Cu	Cu	0.01209	0.06471	0.42839	0.913
Mof_H 	H 	0.3867	0.5983	0.8793	0.019
Mof_H 	H 	0.6599	0.7561	0.8307	0.085
Mof_H 	H 	0.346	0.6984	0.818	0.069
Mof_H 	H 	0.7592	0.9052	0.7611	0.026
Mof_H 	H 	0.5887	0.9684	0.7076	0.048
Mof_H 	H 	0.4415	0.8475	0.7544	0.045
Mof_H 	H 	0.7235	0.0104	0.6986	0.063
Mof_H 	H 	0.2193	0.3516	0.2707	0.029
Mof_H 	H 	0.3762	0.2387	0.9865	0.028
Mof_H 	H 	0.266	0.8793	0.5224	0.019
Mof_H 	H 	0.4906	0.8307	0.4132	0.084
Mof_H 	H 	0.164	0.818	0.4836	0.068
Mof_H 	H 	0.5203	0.7611	0.3337	0.028
Mof_H 	H 	0.2963	0.7076	0.324	0.05
Mof_H 	H 	0.1959	0.7544	0.3981	0.046
Mof_H 	H 	0.4221	0.6986	0.291	0.06
Mof_H 	H 	0.49	0.2707	0.3777	0.029
Mof_H 	H 	0.3627	0.9865	0.7748	0.028
Mof_H 	H 	0.7884	0.5224	0.5983	0.019
Mof_H 	H 	0.9038	0.4132	0.7561	0.083
Mof_H 	H 	0.6476	0.4836	0.6984	0.068
Mof_H 	H 	0.854	0.3337	0.9052	0.03
Mof_H 	H 	0.6203	0.324	0.9684	0.051
Mof_H 	H 	0.594	0.3981	0.8475	0.046
Mof_H 	H 	0.7131	0.291	0.0104	0.057
Mof_H 	H 	0.8677	0.3777	0.3516	0.029
Mof_H 	H 	0.1375	0.7748	0.2387	0.028
Mof_H 	H 	0.234	0.5224	0.8793	0.019
Mof_H 	H 	0.0094	0.4132	0.8307	0.082
Mof_H 	H 	0.336	0.4836	0.818	0.068
Mof_H 	H 	0.9797	0.3337	0.7611	0.032
Mof_H 	H 	0.2037	0.324	0.7076	0.051
Mof_H 	H 	0.3041	0.3981	0.7544	0.046
Mof_H 	H 	0.0779	0.291	0.6986	0.058
Mof_H 	H 	0.01	0.3777	0.2707	0.03
Mof_H 	H 	0.1373	0.7748	0.9865	0.028
Mof_H 	H 	0.7116	0.5983	0.5224	0.019
Mof_H 	H 	0.5962	0.7561	0.4132	0.085
Mof_H 	H 	0.8524	0.6984	0.4836	0.068
Mof_H 	H 	0.646	0.9052	0.3337	0.027
Mof_H 	H 	0.8797	0.9684	0.324	0.048
Mof_H 	H 	0.906	0.8475	0.3981	0.045
Mof_H 	H 	0.7869	0.0104	0.291	0.062
Mof_H 	H 	0.6323	0.3516	0.3777	0.029
Mof_H 	H 	0.3625	0.2387	0.7748	0.028
Mof_H 	H 	0.1133	0.8793	0.5983	0.019
Mof_H 	H 	0.8401	0.8307	0.7561	0.083
Mof_H 	H 	0.154	0.818	0.6984	0.068
Mof_H 	H 	0.7408	0.7611	0.9052	0.029
Mof_H 	H 	0.9113	0.7076	0.9684	0.051
Mof_H 	H 	0.0585	0.7544	0.8475	0.046
Mof_H 	H 	0.7765	0.6986	0.0104	0.058
Mof_H 	H 	0.2807	0.2707	0.3516	0.029
Mof_H 	H 	0.1238	0.9865	0.2387	0.029
Mof_H 	H 	0.6133	0.4017	0.1207	0.019
Mof_H 	H 	0.3401	0.2439	0.1693	0.085
Mof_H 	H 	0.654	0.3016	0.182	0.069
Mof_H 	H 	0.2408	0.0948	0.2389	0.026
Mof_H 	H 	0.4113	0.0316	0.2924	0.048
Mof_H 	H 	0.5585	0.1525	0.2456	0.045
Mof_H 	H 	0.2765	0.9896	0.3014	0.063
Mof_H 	H 	0.7807	0.6484	0.7293	0.029
Mof_H 	H 	0.6238	0.7613	0.0135	0.028
Mof_H 	H 	0.734	0.1207	0.4776	0.019
Mof_H 	H 	0.5094	0.1693	0.5868	0.084
Mof_H 	H 	0.836	0.182	0.5164	0.068
Mof_H 	H 	0.4797	0.2389	0.6663	0.028
Mof_H 	H 	0.7037	0.2924	0.676	0.05
Mof_H 	H 	0.8041	0.2456	0.6019	0.046
Mof_H 	H 	0.5779	0.3014	0.709	0.06
Mof_H 	H 	0.51	0.7293	0.6223	0.029
Mof_H 	H 	0.6373	0.0135	0.2252	0.028
Mof_H 	H 	0.2116	0.4776	0.4017	0.019
Mof_H 	H 	0.0962	0.5868	0.2439	0.083
Mof_H 	H 	0.3524	0.5164	0.3016	0.068
Mof_H 	H 	0.146	0.6663	0.0948	0.03
Mof_H 	H 	0.3797	0.676	0.0316	0.051
Mof_H 	H 	0.406	0.6019	0.1525	0.046
Mof_H 	H 	0.2869	0.709	0.9896	0.057
Mof_H 	H 	0.1323	0.6223	0.6484	0.029
Mof_H 	H 	0.8625	0.2252	0.7613	0.028
Mof_H 	H 	0.766	0.4776	0.1207	0.019
Mof_H 	H 	0.9906	0.5868	0.1693	0.082
Mof_H 	H 	0.664	0.5164	0.182	0.068
Mof_H 	H 	0.0203	0.6663	0.2389	0.032
Mof_H 	H 	0.7963	0.676	0.2924	0.051
Mof_H 	H 	0.6959	0.6019	0.2456	0.046
Mof_H 	H 	0.9221	0.709	0.3014	0.058
Mof_H 	H 	0.99	0.6223	0.7293	0.03
Mof_H 	H 	0.8627	0.2252	0.0135	0.028
Mof_H 	H 	0.2884	0.4017	0.4776	0.019
Mof_H 	H 	0.4038	0.2439	0.5868	0.085
Mof_H 	H 	0.1476	0.3016	0.5164	0.068
Mof_H 	H 	0.354	0.0948	0.6663	0.027
Mof_H 	H 	0.1203	0.0316	0.676	0.048
Mof_H 	H 	0.094	0.1525	0.6019	0.045
Mof_H 	H 	0.2131	0.9896	0.709	0.062
Mof_H 	H 	0.3677	0.6484	0.6223	0.029
Mof_H 	H 	0.6375	0.7613	0.2252	0.028
Mof_H 	H 	0.8867	0.1207	0.4017	0.019
Mof_H 	H 	0.1599	0.1693	0.2439	0.083
Mof_H 	H 	0.846	0.182	0.3016	0.068
Mof_H 	H 	0.2592	0.2389	0.0948	0.029
Mof_H 	H 	0.0887	0.2924	0.0316	0.051
Mof_H 	H 	0.9415	0.2456	0.1525	0.046
Mof_H 	H 	0.2235	0.3014	0.9896	0.058
Mof_H 	H 	0.7193	0.7293	0.6484	0.029
Mof_H 	H 	0.8762	0.0135	0.7613	0.029
Mof_H 	H 	0.2288	0.4788	0.0424	0.031
Mof_H 	H 	0.0771	0.3271	0.3458	0.078
Mof_H 	H 	0.2712	0.0424	0.4788	0.03
Mof_H 	H 	0.4229	0.3458	0.3271	0.079
Mof_H 	H 	0.75	0.4788	0.4788	0.031
Mof_H 	H 	0.75	0.3271	0.3271	0.079
Mof_H 	H 	0.7712	0.5212	0.9576	0.031
Mof_H 	H 	0.9229	0.6729	0.6542	0.078
Mof_H 	H 	0.7288	0.9576	0.5212	0.03
Mof_H 	H 	0.5771	0.6542	0.6729	0.079
Mof_H 	H 	0.25	0.5212	0.5212	0.031
Mof_H 	H 	0.25	0.6729	0.6729	0.079
Mof_H 	H 	0.48405	0.4681	0.76595	0.037
Mof_H 	H 	0.33055	0.1611	0.91945	0.064
Mof_H 	H 	0.25	0.76595	0.76595	0.036
Mof_H 	H 	0.25	0.91945	0.91945	0.064
Mof_H 	H 	0.01595	0.76595	0.4681	0.037
Mof_H 	H 	0.16945	0.91945	0.1611	0.065
Mof_H 	H 	0.51595	0.5319	0.23405	0.037
Mof_H 	H 	0.66945	0.8389	0.08055	0.064
Mof_H 	H 	0.75	0.23405	0.23405	0.036
Mof_H 	H 	0.75	0.08055	0.08055	0.064
Mof_H 	H 	0.98405	0.23405	0.5319	0.037
Mof_H 	H 	0.83055	0.08055	0.8389	0.065
Mof_C 	C 	0.5616	0.7705	0.8115	0.103
Mof_C 	C 	0.4272	0.6593	0.8524	0.056
Mof_C 	C 	0.6441	0.7982	0.8059	-0.129
Mof_C 	C 	0.5391	0.8343	0.7739	-0.022
Mof_C 	C 	0.4017	0.7187	0.8161	-0.09
Mof_C 	C 	0.7028	0.8865	0.7646	0.029
Mof_C 	C 	0.6027	0.9246	0.7325	-0.018
Mof_C 	C 	0.4582	0.8059	0.7782	-0.011
Mof_C 	C 	0.6816	0.9496	0.7275	-0.075
Mof_C 	C 	0.3351	0.4457	0.0978	0.363
Mof_C 	C 	0.2392	0.421	0.1481	-0.123
Mof_C 	C 	0.1929	0.3736	0.239	0.056
Mof_C 	C 	0.4549	0.4135	0.9273	0.347
Mof_C 	C 	0.4303	0.3618	0.884	-0.12
Mof_C 	C 	0.3877	0.2701	0.9279	0.039
Mof_C 	C 	0.3731	0.8115	0.418	0.102
Mof_C 	C 	0.2796	0.8524	0.4883	0.056
Mof_C 	C 	0.45	0.8059	0.3959	-0.127
Mof_C 	C 	0.313	0.7739	0.3918	-0.02
Mof_C 	C 	0.2178	0.8161	0.4652	-0.089
Mof_C 	C 	0.4674	0.7646	0.3489	0.025
Mof_C 	C 	0.3352	0.7325	0.3429	-0.022
Mof_C 	C 	0.2364	0.7782	0.4159	-0.013
Mof_C 	C 	0.4091	0.7275	0.3229	-0.069
Mof_C 	C 	0.4329	0.0978	0.4565	0.363
Mof_C 	C 	0.3873	0.1481	0.4309	-0.124
Mof_C 	C 	0.4319	0.239	0.3874	0.057
Mof_C 	C 	0.3822	0.9273	0.6592	0.348
Mof_C 	C 	0.3143	0.884	0.7542	-0.12
Mof_C 	C 	0.3156	0.9279	0.802	0.039
Mof_C 	C 	0.7911	0.418	0.7705	0.1
Mof_C 	C 	0.7679	0.4883	0.6593	0.055
Mof_C 	C 	0.8459	0.3959	0.7982	-0.124
Mof_C 	C 	0.7048	0.3918	0.8343	-0.017
Mof_C 	C 	0.683	0.4652	0.7187	-0.088
Mof_C 	C 	0.8163	0.3489	0.8865	0.021
Mof_C 	C 	0.6781	0.3429	0.9246	-0.026
Mof_C 	C 	0.6523	0.4159	0.8059	-0.015
Mof_C 	C 	0.732	0.3229	0.9496	-0.063
Mof_C 	C 	0.8894	0.4565	0.4457	0.363
Mof_C 	C 	0.8182	0.4309	0.421	-0.124
Mof_C 	C 	0.8193	0.3874	0.3736	0.057
Mof_C 	C 	0.0414	0.6592	0.4135	0.348
Mof_C 	C 	0.0685	0.7542	0.3618	-0.12
Mof_C 	C 	0.1176	0.802	0.2701	0.039
Mof_C 	C 	0.1269	0.418	0.8115	0.099
Mof_C 	C 	0.2204	0.4883	0.8524	0.055
Mof_C 	C 	0.05	0.3959	0.8059	-0.122
Mof_C 	C 	0.187	0.3918	0.7739	-0.017
Mof_C 	C 	0.2822	0.4652	0.8161	-0.088
Mof_C 	C 	0.0326	0.3489	0.7646	0.017
Mof_C 	C 	0.1648	0.3429	0.7325	-0.026
Mof_C 	C 	0.2636	0.4159	0.7782	-0.015
Mof_C 	C 	0.0909	0.3229	0.7275	-0.064
Mof_C 	C 	0.0671	0.4565	0.0978	0.362
Mof_C 	C 	0.1127	0.4309	0.1481	-0.123
Mof_C 	C 	0.0681	0.3874	0.239	0.056
Mof_C 	C 	0.1178	0.6592	0.9273	0.348
Mof_C 	C 	0.1857	0.7542	0.884	-0.12
Mof_C 	C 	0.1844	0.802	0.9279	0.039
Mof_C 	C 	0.7089	0.7705	0.418	0.103
Mof_C 	C 	0.7321	0.6593	0.4883	0.056
Mof_C 	C 	0.6541	0.7982	0.3959	-0.129
Mof_C 	C 	0.7952	0.8343	0.3918	-0.022
Mof_C 	C 	0.817	0.7187	0.4652	-0.09
Mof_C 	C 	0.6837	0.8865	0.3489	0.028
Mof_C 	C 	0.8219	0.9246	0.3429	-0.019
Mof_C 	C 	0.8477	0.8059	0.4159	-0.012
Mof_C 	C 	0.768	0.9496	0.3229	-0.073
Mof_C 	C 	0.6106	0.4457	0.4565	0.363
Mof_C 	C 	0.6818	0.421	0.4309	-0.124
Mof_C 	C 	0.6807	0.3736	0.3874	0.057
Mof_C 	C 	0.4586	0.4135	0.6592	0.348
Mof_C 	C 	0.4315	0.3618	0.7542	-0.12
Mof_C 	C 	0.3824	0.2701	0.802	0.039
Mof_C 	C 	0.9384	0.8115	0.7705	0.1
Mof_C 	C 	0.0728	0.8524	0.6593	0.056
Mof_C 	C 	0.8559	0.8059	0.7982	-0.125
Mof_C 	C 	0.9609	0.7739	0.8343	-0.017
Mof_C 	C 	0.0983	0.8161	0.7187	-0.088
Mof_C 	C 	0.7972	0.7646	0.8865	0.022
Mof_C 	C 	0.8973	0.7325	0.9246	-0.025
Mof_C 	C 	0.0418	0.7782	0.8059	-0.015
Mof_C 	C 	0.8184	0.7275	0.9496	-0.064
Mof_C 	C 	0.1649	0.0978	0.4457	0.363
Mof_C 	C 	0.2608	0.1481	0.421	-0.124
Mof_C 	C 	0.3071	0.239	0.3736	0.057
Mof_C 	C 	0.0451	0.9273	0.4135	0.348
Mof_C 	C 	0.0697	0.884	0.3618	-0.119
Mof_C 	C 	0.1123	0.9279	0.2701	0.039
Mof_C 	C 	0.4384	0.2295	0.1885	0.103
Mof_C 	C 	0.5728	0.3407	0.1476	0.056
Mof_C 	C 	0.3559	0.2018	0.1941	-0.129
Mof_C 	C 	0.4609	0.1657	0.2261	-0.022
Mof_C 	C 	0.5983	0.2813	0.1839	-0.09
Mof_C 	C 	0.2972	0.1135	0.2354	0.029
Mof_C 	C 	0.3973	0.0754	0.2675	-0.018
Mof_C 	C 	0.5418	0.1941	0.2218	-0.011
Mof_C 	C 	0.3184	0.0504	0.2725	-0.075
Mof_C 	C 	0.6649	0.5543	0.9022	0.363
Mof_C 	C 	0.7608	0.579	0.8519	-0.123
Mof_C 	C 	0.8071	0.6264	0.761	0.056
Mof_C 	C 	0.5451	0.5865	0.0727	0.347
Mof_C 	C 	0.5697	0.6382	0.116	-0.12
Mof_C 	C 	0.6123	0.7299	0.0721	0.039
Mof_C 	C 	0.6269	0.1885	0.582	0.102
Mof_C 	C 	0.7204	0.1476	0.5117	0.056
Mof_C 	C 	0.55	0.1941	0.6041	-0.127
Mof_C 	C 	0.687	0.2261	0.6082	-0.02
Mof_C 	C 	0.7822	0.1839	0.5348	-0.089
Mof_C 	C 	0.5326	0.2354	0.6511	0.025
Mof_C 	C 	0.6648	0.2675	0.6571	-0.022
Mof_C 	C 	0.7636	0.2218	0.5841	-0.013
Mof_C 	C 	0.5909	0.2725	0.6771	-0.069
Mof_C 	C 	0.5671	0.9022	0.5435	0.363
Mof_C 	C 	0.6127	0.8519	0.5691	-0.124
Mof_C 	C 	0.5681	0.761	0.6126	0.057
Mof_C 	C 	0.6178	0.0727	0.3408	0.348
Mof_C 	C 	0.6857	0.116	0.2458	-0.12
Mof_C 	C 	0.6844	0.0721	0.198	0.039
Mof_C 	C 	0.2089	0.582	0.2295	0.1
Mof_C 	C 	0.2321	0.5117	0.3407	0.055
Mof_C 	C 	0.1541	0.6041	0.2018	-0.124
Mof_C 	C 	0.2952	0.6082	0.1657	-0.017
Mof_C 	C 	0.317	0.5348	0.2813	-0.088
Mof_C 	C 	0.1837	0.6511	0.1135	0.021
Mof_C 	C 	0.3219	0.6571	0.0754	-0.026
Mof_C 	C 	0.3477	0.5841	0.1941	-0.015
Mof_C 	C 	0.268	0.6771	0.0504	-0.063
Mof_C 	C 	0.1106	0.5435	0.5543	0.363
Mof_C 	C 	0.1818	0.5691	0.579	-0.124
Mof_C 	C 	0.1807	0.6126	0.6264	0.057
Mof_C 	C 	0.9586	0.3408	0.5865	0.348
Mof_C 	C 	0.9315	0.2458	0.6382	-0.12
Mof_C 	C 	0.8824	0.198	0.7299	0.039
Mof_C 	C 	0.8731	0.582	0.1885	0.099
Mof_C 	C 	0.7796	0.5117	0.1476	0.055
Mof_C 	C 	0.95	0.6041	0.1941	-0.122
Mof_C 	C 	0.813	0.6082	0.2261	-0.017
Mof_C 	C 	0.7178	0.5348	0.1839	-0.088
Mof_C 	C 	0.9674	0.6511	0.2354	0.017
Mof_C 	C 	0.8352	0.6571	0.2675	-0.026
Mof_C 	C 	0.7364	0.5841	0.2218	-0.015
Mof_C 	C 	0.9091	0.6771	0.2725	-0.064
Mof_C 	C 	0.9329	0.5435	0.9022	0.362
Mof_C 	C 	0.8873	0.5691	0.8519	-0.123
Mof_C 	C 	0.9319	0.6126	0.761	0.056
Mof_C 	C 	0.8822	0.3408	0.0727	0.348
Mof_C 	C 	0.8143	0.2458	0.116	-0.12
Mof_C 	C 	0.8156	0.198	0.0721	0.039
Mof_C 	C 	0.2911	0.2295	0.582	0.103
Mof_C 	C 	0.2679	0.3407	0.5117	0.056
Mof_C 	C 	0.3459	0.2018	0.6041	-0.129
Mof_C 	C 	0.2048	0.1657	0.6082	-0.022
Mof_C 	C 	0.183	0.2813	0.5348	-0.09
Mof_C 	C 	0.3163	0.1135	0.6511	0.028
Mof_C 	C 	0.1781	0.0754	0.6571	-0.019
Mof_C 	C 	0.1523	0.1941	0.5841	-0.012
Mof_C 	C 	0.232	0.0504	0.6771	-0.073
Mof_C 	C 	0.3894	0.5543	0.5435	0.363
Mof_C 	C 	0.3182	0.579	0.5691	-0.124
Mof_C 	C 	0.3193	0.6264	0.6126	0.057
Mof_C 	C 	0.5414	0.5865	0.3408	0.348
Mof_C 	C 	0.5685	0.6382	0.2458	-0.12
Mof_C 	C 	0.6176	0.7299	0.198	0.039
Mof_C 	C 	0.0616	0.1885	0.2295	0.1
Mof_C 	C 	0.9272	0.1476	0.3407	0.056
Mof_C 	C 	0.1441	0.1941	0.2018	-0.125
Mof_C 	C 	0.0391	0.2261	0.1657	-0.017
Mof_C 	C 	0.9017	0.1839	0.2813	-0.088
Mof_C 	C 	0.2028	0.2354	0.1135	0.022
Mof_C 	C 	0.1027	0.2675	0.0754	-0.025
Mof_C 	C 	0.9582	0.2218	0.1941	-0.015
Mof_C 	C 	0.1816	0.2725	0.0504	-0.064
Mof_C 	C 	0.8351	0.9022	0.5543	0.363
Mof_C 	C 	0.7392	0.8519	0.579	-0.124
Mof_C 	C 	0.6929	0.761	0.6264	0.057
Mof_C 	C 	0.9549	0.0727	0.5865	0.348
Mof_C 	C 	0.9303	0.116	0.6382	-0.119
Mof_C 	C 	0.8877	0.0721	0.7299	0.039
Mof_C 	C 	0.1975	0.4475	0.105	0.073
Mof_C 	C 	0.1084	0.3584	0.2832	-0.112
Mof_C 	C 	0.3025	0.105	0.4475	0.074
Mof_C 	C 	0.3916	0.2832	0.3584	-0.113
Mof_C 	C 	0.75	0.4475	0.4475	0.074
Mof_C 	C 	0.75	0.3584	0.3584	-0.113
Mof_C 	C 	0.8025	0.5525	0.895	0.073
Mof_C 	C 	0.8916	0.6416	0.7168	-0.112
Mof_C 	C 	0.6975	0.895	0.5525	0.074
Mof_C 	C 	0.6084	0.7168	0.6416	-0.113
Mof_C 	C 	0.25	0.5525	0.5525	0.074
Mof_C 	C 	0.25	0.6416	0.6416	-0.113
Mof_C 	C 	0.45275	0.4055	0.79725	0.051
Mof_C 	C 	0.36185	0.2237	0.88815	-0.107
Mof_C 	C 	0.25	0.79725	0.79725	0.052
Mof_C 	C 	0.25	0.88815	0.88815	-0.108
Mof_C 	C 	0.04725	0.79725	0.4055	0.052
Mof_C 	C 	0.13815	0.88815	0.2237	-0.107
Mof_C 	C 	0.54725	0.5945	0.20275	0.051
Mof_C 	C 	0.63815	0.7763	0.11185	-0.107
Mof_C 	C 	0.75	0.20275	0.20275	0.052
Mof_C 	C 	0.75	0.11185	0.11185	-0.108
Mof_C 	C 	0.95275	0.20275	0.5945	0.052
Mof_C 	C 	0.86185	0.11185	0.7763	-0.107
Mof_N 	N 	0.5028	0.6812	0.8524	-0.189
Mof_N 	N 	0.3552	0.8524	0.4664	-0.189
Mof_N 	N 	0.8216	0.4664	0.6812	-0.188
Mof_N 	N 	0.1448	0.4664	0.8524	-0.188
Mof_N 	N 	0.6784	0.6812	0.4664	-0.189
Mof_N 	N 	0.9972	0.8524	0.6812	-0.189
Mof_N 	N 	0.4972	0.3188	0.1476	-0.189
Mof_N 	N 	0.6448	0.1476	0.5336	-0.189
Mof_N 	N 	0.1784	0.5336	0.3188	-0.188
Mof_N 	N 	0.8552	0.5336	0.1476	-0.188
Mof_N 	N 	0.3216	0.3188	0.5336	-0.189
Mof_N 	N 	0.0028	0.1476	0.3188	-0.189
Mof_O 	O 	0.3827	0.5142	0.0232	-0.402
Mof_O 	O 	0.4762	0.4938	0.8888	-0.399
Mof_O 	O 	0.453	0.3731	0.9991	-0.402
Mof_O 	O 	0.3639	0.3991	0.1325	-0.397
Mof_O 	O 	0.4059	0.0232	0.4626	-0.402
Mof_O 	O 	0.365	0.8888	0.6174	-0.399
Mof_O 	O 	0.4521	0.9991	0.6278	-0.402
Mof_O 	O 	0.4964	0.1325	0.4684	-0.397
Mof_O 	O 	0.8685	0.4626	0.5142	-0.402
Mof_O 	O 	0.9824	0.6174	0.4938	-0.4
Mof_O 	O 	0.0799	0.6278	0.3731	-0.402
Mof_O 	O 	0.9648	0.4684	0.3991	-0.397
Mof_O 	O 	0.0941	0.4626	0.0232	-0.401
Mof_O 	O 	0.135	0.6174	0.8888	-0.4
Mof_O 	O 	0.0479	0.6278	0.9991	-0.403
Mof_O 	O 	0.0036	0.4684	0.1325	-0.395
Mof_O 	O 	0.6315	0.5142	0.4626	-0.402
Mof_O 	O 	0.5176	0.4938	0.6174	-0.399
Mof_O 	O 	0.4201	0.3731	0.6278	-0.402
Mof_O 	O 	0.5352	0.3991	0.4684	-0.397
Mof_O 	O 	0.1173	0.0232	0.5142	-0.403
Mof_O 	O 	0.0238	0.8888	0.4938	-0.398
Mof_O 	O 	0.047	0.9991	0.3731	-0.4
Mof_O 	O 	0.1361	0.1325	0.3991	-0.397
Mof_O 	O 	0.6173	0.4858	0.9768	-0.402
Mof_O 	O 	0.5238	0.5062	0.1112	-0.399
Mof_O 	O 	0.547	0.6269	0.0009	-0.402
Mof_O 	O 	0.6361	0.6009	0.8675	-0.397
Mof_O 	O 	0.5941	0.9768	0.5374	-0.402
Mof_O 	O 	0.635	0.1112	0.3826	-0.399
Mof_O 	O 	0.5479	0.0009	0.3722	-0.402
Mof_O 	O 	0.5036	0.8675	0.5316	-0.397
Mof_O 	O 	0.1315	0.5374	0.4858	-0.402
Mof_O 	O 	0.0176	0.3826	0.5062	-0.4
Mof_O 	O 	0.9201	0.3722	0.6269	-0.402
Mof_O 	O 	0.0352	0.5316	0.6009	-0.397
Mof_O 	O 	0.9059	0.5374	0.9768	-0.401
Mof_O 	O 	0.865	0.3826	0.1112	-0.4
Mof_O 	O 	0.9521	0.3722	0.0009	-0.403
Mof_O 	O 	0.9964	0.5316	0.8675	-0.395
Mof_O 	O 	0.3685	0.4858	0.5374	-0.402
Mof_O 	O 	0.4824	0.5062	0.3826	-0.399
Mof_O 	O 	0.5799	0.6269	0.3722	-0.402
Mof_O 	O 	0.4648	0.6009	0.5316	-0.397
Mof_O 	O 	0.8827	0.9768	0.4858	-0.403
Mof_O 	O 	0.9762	0.1112	0.5062	-0.398
Mof_O 	O 	0.953	0.0009	0.6269	-0.4
Mof_O 	O 	0.8639	0.8675	0.6009	-0.397
_end
