# CIF file generated by openbabel 3.1.0, see https://openbabel.org
data_I
_chemical_name_common 'image0'
_cell_length_a 12.0591
_cell_length_b 19.1647
_cell_length_c 4.9114
_cell_angle_alpha 90
_cell_angle_beta 90
_cell_angle_gamma 90
_space_group_name_H-M_alt 'P 1'
_space_group_name_Hall 'P 1'
loop_
    _symmetry_equiv_pos_as_xyz
    x,y,z
loop_
    _atom_site_label
    _atom_site_type_symbol
    _atom_site_fract_x
    _atom_site_fract_y
    _atom_site_fract_z
    _atom_site_occupancy
    P1       P        0.01543    0.10471    0.50240    1.000
    F1       F        0.14610    0.01350    0.92630    1.000
    O1       O        0.00300    0.08533    0.20030    1.000
    O2       O        0.14240    0.11020    0.53440    1.000
    O3       O        0.95870    0.04920    0.68280    1.000
    C1       C        0.94840    0.18758    0.55920    1.000
    P2       P        0.48457    0.39529    0.50240    1.000
    F2       F        0.35390    0.48650    0.92630    1.000
    O4       O        0.49700    0.41467    0.20030    1.000
    O5       O        0.35760    0.38980    0.53440    1.000
    O6       O        0.54130    0.45080    0.68280    1.000
    C2       C        0.55160    0.31242    0.55920    1.000
    P3       P        0.98457    0.60471    0.49760    1.000
    F3       F        0.85390    0.51350    0.07370    1.000
    O7       O        0.99700    0.58533    0.79970    1.000
    O8       O        0.85760    0.61020    0.46560    1.000
    O9       O        0.04130    0.54920    0.31720    1.000
    C3       C        0.05160    0.68758    0.44080    1.000
    P4       P        0.51543    0.89529    0.49760    1.000
    F4       F        0.64610    0.98650    0.07370    1.000
    O10      O        0.50300    0.91467    0.79970    1.000
    O11      O        0.64240    0.88980    0.46560    1.000
    O12      O        0.45870    0.95080    0.31720    1.000
    C4       C        0.44840    0.81242    0.44080    1.000
    P5       P        0.98457    0.89529    0.49760    1.000
    F5       F        0.85390    0.98650    0.07370    1.000
    O13      O        0.99700    0.91467    0.79970    1.000
    O14      O        0.85760    0.88980    0.46560    1.000
    O15      O        0.04130    0.95080    0.31720    1.000
    C5       C        0.05160    0.81242    0.44080    1.000
    P6       P        0.51543    0.60471    0.49760    1.000
    F6       F        0.64610    0.51350    0.07370    1.000
    O16      O        0.50300    0.58533    0.79970    1.000
    O17      O        0.64240    0.61020    0.46560    1.000
    O18      O        0.45870    0.54920    0.31720    1.000
    C6       C        0.44840    0.68758    0.44080    1.000
    P7       P        0.01543    0.39529    0.50240    1.000
    F7       F        0.14610    0.48650    0.92630    1.000
    O19      O        0.00300    0.41467    0.20030    1.000
    O20      O        0.14240    0.38980    0.53440    1.000
    O21      O        0.95870    0.45080    0.68280    1.000
    C7       C        0.94840    0.31242    0.55920    1.000
    P8       P        0.48457    0.10471    0.50240    1.000
    F8       F        0.35390    0.01350    0.92630    1.000
    O22      O        0.49700    0.08533    0.20030    1.000
    O23      O        0.35760    0.11020    0.53440    1.000
    O24      O        0.54130    0.04920    0.68280    1.000
    C8       C        0.55160    0.18758    0.55920    1.000
    Al1      Al       0.25000    0.06234    0.73370    1.000
    Al2      Al       0.25000    0.43766    0.73370    1.000
    Al3      Al       0.75000    0.56234    0.26630    1.000
    Al4      Al       0.75000    0.93766    0.26630    1.000
    C9       C        0.01240    0.25000    0.45140    1.000
    C10      C        0.48760    0.25000    0.45140    1.000
    C11      C        0.98760    0.75000    0.54860    1.000
    C12      C        0.51240    0.75000    0.54860    1.000
    Al5      Al       0.00000    0.00000    0.00000    1.000
    Al6      Al       0.50000    0.50000    0.00000    1.000
    Al7      Al       0.00000    0.50000    0.00000    1.000
    Al8      Al       0.50000    0.00000    0.00000    1.000
