data_functionalizedCrystal
_audit_creation_method	'EQeq! by Chris Wilmer'
_symmetry_space_group_name_H-M	'P1'
_symmetry_Int_Tables_number	1
_symmetry_cell_setting	triclinic
loop_
_symmetry_equiv_pos_as_xyz
  x,y,z
_cell_length_a	21.169
_cell_length_b	11.2196
_cell_length_c	23.5169
_cell_angle_alpha	90
_cell_angle_beta	90
_cell_angle_gamma	90
loop_
_atom_site_label
_atom_site_type_symbol
_atom_site_fract_x
_atom_site_fract_y
_atom_site_fract_z
_atom_site_charge
Mof_Zn	Zn	0.40171	0.72937	0.85858	1.215
Mof_Zn	Zn	0.39919	0.00592	0.85717	1.181
Mof_Zn	Zn	0.33959	0.87569	0.96216	1.208
Mof_Zn	Zn	0.48685	0.83146	0.94945	1.16
Mof_O 	O 	0.4116	0.8667	0.907	-0.953
Mof_O 	O 	0.4844	0.6729	0.8329	-0.513
Mof_O 	O 	0.5453	0.7406	0.9041	-0.538
Mof_O 	O 	0.7694	0.6201	0.9019	-0.49
Mof_O 	O 	0.8051	0.4913	0.8383	-0.474
Mof_O 	O 	0.3996	0.9153	0.7737	-0.505
Mof_O 	O 	0.3506	0.7443	0.791	-0.48
Mof_O 	O 	0.1747	0.1884	0.468	-0.497
Mof_O 	O 	0.1264	0.0882	0.3995	-0.467
Mof_O 	O 	0.1083	0.6505	0.4081	-0.481
Mof_O 	O 	0.1613	0.5544	0.4771	-0.511
Mof_O 	O 	0.604	0.1451	0.5352	-0.493
Mof_O 	O 	0.5316	0.281	0.5151	-0.494
Mof_C 	C 	0.5348	0.6795	0.8572	0.39
Mof_C 	C 	0.5926	0.6221	0.8289	-0.124
Mof_C 	C 	0.6517	0.6215	0.8547	0.057
Mof_H 	H 	0.6587	0.6649	0.8878	0.024
Mof_C 	C 	0.7015	0.5538	0.8299	-0.143
Mof_C 	C 	0.6892	0.5064	0.7761	0.03
Mof_H 	H 	0.7224	0.4718	0.7561	0.033
Mof_C 	C 	0.6302	0.508	0.7511	-0.056
Mof_C 	C 	0.5836	0.5688	0.7762	0.017
Mof_H 	H 	0.5447	0.5754	0.7582	0.037
Mof_C 	C 	0.761	0.5533	0.8595	0.404
Mof_C 	C 	0.6189	0.4443	0.6965	0.082
Mof_C 	C 	0.6522	0.3346	0.6859	-0.127
Mof_H 	H 	0.681	0.3049	0.7122	0.072
Mof_C 	C 	0.6399	0.2709	0.6329	0.043
Mof_H 	H 	0.6637	0.2041	0.6236	0.019
Mof_C 	C 	0.5913	0.3108	0.5953	-0.137
Mof_C 	C 	0.5743	0.4826	0.6577	-0.139
Mof_H 	H 	0.5538	0.5548	0.6638	0.079
Mof_C 	C 	0.362	0.8399	0.7605	0.424
Mof_C 	C 	0.3266	0.8504	0.7081	-0.199
Mof_C 	C 	0.3335	0.9419	0.6715	0.128
Mof_H 	H 	0.364	0.9994	0.6791	-0.011
Mof_C 	C 	0.2524	0.8692	0.6082	0.156
Mof_C 	C 	0.2453	0.7829	0.6469	-0.219
Mof_H 	H 	0.2147	0.726	0.6385	0.104
Mof_C 	C 	0.2758	0.7673	0.6955	0.133
Mof_H 	H 	0.2653	0.7061	0.7203	-0.003
Mof_C 	C 	0.2186	0.8696	0.5522	-0.104
Mof_C 	C 	0.2056	0.9741	0.5259	0.052
Mof_H 	H 	0.2218	0.0448	0.5405	0.019
Mof_C 	C 	0.1662	0.977	0.4744	-0.174
Mof_C 	C 	0.1517	0.8674	0.4536	0.137
Mof_H 	H 	0.132	0.8664	0.4182	0.009
Mof_C 	C 	0.1926	0.7626	0.5276	0.073
Mof_H 	H 	0.1969	0.6913	0.5473	0.014
Mof_C 	C 	0.1621	0.7617	0.4771	-0.206
Mof_C 	C 	0.156	0.0965	0.4503	0.417
Mof_C 	C 	0.1473	0.6469	0.4548	0.416
Mof_C 	C 	0.2965	0.9538	0.6222	-0.206
Mof_H 	H 	0.302	0.0199	0.5988	0.094
Mof_C 	C 	0.5591	0.4156	0.6094	0.06
Mof_H 	H 	0.5266	0.4416	0.586	0.023
Mof_C 	C 	0.5737	0.2405	0.5451	0.382
Mof_Zn	Zn	0.59829	0.27063	0.35858	1.214
Mof_Zn	Zn	0.60081	0.99408	0.35717	1.182
Mof_Zn	Zn	0.66041	0.12431	0.46216	1.214
Mof_Zn	Zn	0.51315	0.16854	0.44945	1.17
Mof_O 	O 	0.5884	0.1333	0.407	-0.946
Mof_O 	O 	0.5156	0.3271	0.3329	-0.511
Mof_O 	O 	0.4547	0.2594	0.4041	-0.528
Mof_O 	O 	0.2306	0.3799	0.4019	-0.486
Mof_O 	O 	0.1949	0.5087	0.3383	-0.473
Mof_O 	O 	0.6004	0.0847	0.2737	-0.506
Mof_O 	O 	0.6494	0.2557	0.291	-0.481
Mof_O 	O 	0.8253	0.8116	0.968	-0.526
Mof_O 	O 	0.8736	0.9118	0.8995	-0.477
Mof_O 	O 	0.8917	0.3495	0.9081	-0.495
Mof_O 	O 	0.8387	0.4456	0.9771	-0.544
Mof_O 	O 	0.396	0.8549	0.0352	-0.468
Mof_O 	O 	0.4684	0.719	0.0151	-0.469
Mof_C 	C 	0.4652	0.3205	0.3572	0.389
Mof_C 	C 	0.4074	0.3779	0.3289	-0.118
Mof_C 	C 	0.3483	0.3785	0.3547	0.054
Mof_H 	H 	0.3413	0.3351	0.3878	0.03
Mof_C 	C 	0.2985	0.4462	0.3299	-0.139
Mof_C 	C 	0.3108	0.4936	0.2761	0.027
Mof_H 	H 	0.2776	0.5282	0.2561	0.035
Mof_C 	C 	0.3698	0.492	0.2511	-0.051
Mof_C 	C 	0.4164	0.4312	0.2762	0.013
Mof_H 	H 	0.4553	0.4246	0.2582	0.039
Mof_C 	C 	0.239	0.4467	0.3595	0.403
Mof_C 	C 	0.3811	0.5557	0.1965	0.078
Mof_C 	C 	0.3478	0.6654	0.1859	-0.122
Mof_H 	H 	0.319	0.6951	0.2122	0.072
Mof_C 	C 	0.3601	0.7291	0.1329	0.039
Mof_H 	H 	0.3363	0.7959	0.1236	0.025
Mof_C 	C 	0.4087	0.6892	0.0953	-0.125
Mof_C 	C 	0.4257	0.5174	0.1577	-0.133
Mof_H 	H 	0.4462	0.4452	0.1638	0.079
Mof_C 	C 	0.638	0.1601	0.2605	0.434
Mof_C 	C 	0.6734	0.1496	0.2081	-0.223
Mof_C 	C 	0.6665	0.0581	0.1715	0.163
Mof_H 	H 	0.636	0.0006	0.1791	-0.02
Mof_C 	C 	0.7476	0.1308	0.1082	0.22
Mof_C 	C 	0.7547	0.2171	0.1469	-0.269
Mof_H 	H 	0.7853	0.274	0.1385	0.126
Mof_C 	C 	0.7242	0.2327	0.1955	0.172
Mof_H 	H 	0.7347	0.2939	0.2203	-0.015
Mof_C 	C 	0.7814	0.1304	0.0522	-0.194
Mof_C 	C 	0.7944	0.0259	0.0259	0.175
Mof_H 	H 	0.7782	0.9552	0.0405	-0.012
Mof_C 	C 	0.8338	0.023	0.9744	-0.286
Mof_C 	C 	0.8483	0.1326	0.9536	0.241
Mof_H 	H 	0.868	0.1336	0.9182	-0.026
Mof_C 	C 	0.8074	0.2374	0.0276	0.22
Mof_H 	H 	0.8031	0.3087	0.0473	-0.024
Mof_C 	C 	0.8379	0.2383	0.9771	-0.345
Mof_C 	C 	0.844	0.9035	0.9503	0.449
Mof_C 	C 	0.8527	0.3531	0.9548	0.465
Mof_C 	C 	0.7035	0.0462	0.1222	-0.25
Mof_H 	H 	0.698	0.9801	0.0988	0.117
Mof_C 	C 	0.4409	0.5844	0.1094	0.055
Mof_H 	H 	0.4734	0.5584	0.086	0.032
Mof_C 	C 	0.4263	0.7595	0.0451	0.377
Mof_Zn	Zn	0.90171	0.77063	0.85858	1.214
Mof_Zn	Zn	0.89919	0.49408	0.85717	1.181
Mof_Zn	Zn	0.83959	0.62431	0.96216	1.208
Mof_Zn	Zn	0.98685	0.66854	0.94945	1.16
Mof_O 	O 	0.9116	0.6333	0.907	-0.952
Mof_O 	O 	0.9844	0.8271	0.8329	-0.514
Mof_O 	O 	0.0453	0.7594	0.9041	-0.538
Mof_O 	O 	0.2694	0.8799	0.9019	-0.49
Mof_O 	O 	0.3051	0.0087	0.8383	-0.473
Mof_O 	O 	0.8996	0.5847	0.7737	-0.505
Mof_O 	O 	0.8506	0.7557	0.791	-0.48
Mof_O 	O 	0.6747	0.3116	0.468	-0.497
Mof_O 	O 	0.6264	0.4118	0.3995	-0.466
Mof_O 	O 	0.6083	0.8495	0.4081	-0.481
Mof_O 	O 	0.6613	0.9456	0.4771	-0.511
Mof_O 	O 	0.104	0.3549	0.5352	-0.493
Mof_O 	O 	0.0316	0.219	0.5151	-0.494
Mof_C 	C 	0.0348	0.8205	0.8572	0.391
Mof_C 	C 	0.0926	0.8779	0.8289	-0.124
Mof_C 	C 	0.1517	0.8785	0.8547	0.056
Mof_H 	H 	0.1587	0.8351	0.8878	0.025
Mof_C 	C 	0.2015	0.9462	0.8299	-0.142
Mof_C 	C 	0.1892	0.9936	0.7761	0.028
Mof_H 	H 	0.2224	0.0282	0.7561	0.034
Mof_C 	C 	0.1302	0.992	0.7511	-0.055
Mof_C 	C 	0.0836	0.9312	0.7762	0.016
Mof_H 	H 	0.0447	0.9246	0.7582	0.037
Mof_C 	C 	0.261	0.9467	0.8595	0.402
Mof_C 	C 	0.1189	0.0557	0.6965	0.082
Mof_C 	C 	0.1522	0.1654	0.6859	-0.127
Mof_H 	H 	0.181	0.1951	0.7122	0.072
Mof_C 	C 	0.1399	0.2291	0.6329	0.042
Mof_H 	H 	0.1637	0.2959	0.6236	0.019
Mof_C 	C 	0.0913	0.1892	0.5953	-0.136
Mof_C 	C 	0.0743	0.0174	0.6577	-0.138
Mof_H 	H 	0.0538	0.9452	0.6638	0.078
Mof_C 	C 	0.862	0.6601	0.7605	0.424
Mof_C 	C 	0.8266	0.6496	0.7081	-0.198
Mof_C 	C 	0.8335	0.5581	0.6715	0.127
Mof_H 	H 	0.864	0.5006	0.6791	-0.01
Mof_C 	C 	0.7524	0.6308	0.6082	0.156
Mof_C 	C 	0.7453	0.7171	0.6469	-0.218
Mof_H 	H 	0.7147	0.774	0.6385	0.104
Mof_C 	C 	0.7758	0.7327	0.6955	0.132
Mof_H 	H 	0.7653	0.7939	0.7203	-0.002
Mof_C 	C 	0.7186	0.6304	0.5522	-0.104
Mof_C 	C 	0.7056	0.5259	0.5259	0.053
Mof_H 	H 	0.7218	0.4552	0.5405	0.018
Mof_C 	C 	0.6662	0.523	0.4744	-0.174
Mof_C 	C 	0.6517	0.6326	0.4536	0.137
Mof_H 	H 	0.632	0.6336	0.4182	0.009
Mof_C 	C 	0.6926	0.7374	0.5276	0.073
Mof_H 	H 	0.6969	0.8087	0.5473	0.014
Mof_C 	C 	0.6621	0.7383	0.4771	-0.206
Mof_C 	C 	0.656	0.4035	0.4503	0.417
Mof_C 	C 	0.6473	0.8531	0.4548	0.416
Mof_C 	C 	0.7965	0.5462	0.6222	-0.205
Mof_H 	H 	0.802	0.4801	0.5988	0.094
Mof_C 	C 	0.0591	0.0844	0.6094	0.059
Mof_H 	H 	0.0266	0.0584	0.586	0.024
Mof_C 	C 	0.0737	0.2595	0.5451	0.382
Mof_Zn	Zn	0.09829	0.22937	0.35858	1.214
Mof_Zn	Zn	0.10081	0.50592	0.35717	1.182
Mof_Zn	Zn	0.16041	0.37569	0.46216	1.214
Mof_Zn	Zn	0.01315	0.33146	0.44945	1.17
Mof_O 	O 	0.0884	0.3667	0.407	-0.946
Mof_O 	O 	0.0156	0.1729	0.3329	-0.511
Mof_O 	O 	0.9547	0.2406	0.4041	-0.528
Mof_O 	O 	0.7306	0.1201	0.4019	-0.485
Mof_O 	O 	0.6949	0.9913	0.3383	-0.473
Mof_O 	O 	0.1004	0.4153	0.2737	-0.506
Mof_O 	O 	0.1494	0.2443	0.291	-0.482
Mof_O 	O 	0.3253	0.6884	0.968	-0.526
Mof_O 	O 	0.3736	0.5882	0.8995	-0.477
Mof_O 	O 	0.3917	0.1505	0.9081	-0.495
Mof_O 	O 	0.3387	0.0544	0.9771	-0.542
Mof_O 	O 	0.896	0.6451	0.0352	-0.467
Mof_O 	O 	0.9684	0.781	0.0151	-0.468
Mof_C 	C 	0.9652	0.1795	0.3572	0.39
Mof_C 	C 	0.9074	0.1221	0.3289	-0.118
Mof_C 	C 	0.8483	0.1215	0.3547	0.054
Mof_H 	H 	0.8413	0.1649	0.3878	0.03
Mof_C 	C 	0.7985	0.0538	0.3299	-0.138
Mof_C 	C 	0.8108	0.0064	0.2761	0.027
Mof_H 	H 	0.7776	0.9718	0.2561	0.035
Mof_C 	C 	0.8698	0.008	0.2511	-0.051
Mof_C 	C 	0.9164	0.0688	0.2762	0.013
Mof_H 	H 	0.9553	0.0754	0.2582	0.039
Mof_C 	C 	0.739	0.0533	0.3595	0.403
Mof_C 	C 	0.8811	0.9443	0.1965	0.078
Mof_C 	C 	0.8478	0.8346	0.1859	-0.122
Mof_H 	H 	0.819	0.8049	0.2122	0.072
Mof_C 	C 	0.8601	0.7709	0.1329	0.038
Mof_H 	H 	0.8363	0.7041	0.1236	0.026
Mof_C 	C 	0.9087	0.8108	0.0953	-0.124
Mof_C 	C 	0.9257	0.9826	0.1577	-0.132
Mof_H 	H 	0.9462	0.0548	0.1638	0.079
Mof_C 	C 	0.138	0.3399	0.2605	0.434
Mof_C 	C 	0.1734	0.3504	0.2081	-0.222
Mof_C 	C 	0.1665	0.4419	0.1715	0.162
Mof_H 	H 	0.136	0.4994	0.1791	-0.02
Mof_C 	C 	0.2476	0.3692	0.1082	0.219
Mof_C 	C 	0.2547	0.2829	0.1469	-0.269
Mof_H 	H 	0.2853	0.226	0.1385	0.126
Mof_C 	C 	0.2242	0.2673	0.1955	0.171
Mof_H 	H 	0.2347	0.2061	0.2203	-0.015
Mof_C 	C 	0.2814	0.3696	0.0522	-0.195
Mof_C 	C 	0.2944	0.4741	0.0259	0.179
Mof_H 	H 	0.2782	0.5448	0.0405	-0.014
Mof_C 	C 	0.3338	0.477	0.9744	-0.289
Mof_C 	C 	0.3483	0.3674	0.9536	0.242
Mof_H 	H 	0.368	0.3664	0.9182	-0.027
Mof_C 	C 	0.3074	0.2626	0.0276	0.219
Mof_H 	H 	0.3031	0.1913	0.0473	-0.025
Mof_C 	C 	0.3379	0.2617	0.9771	-0.344
Mof_C 	C 	0.344	0.5965	0.9503	0.452
Mof_C 	C 	0.3527	0.1469	0.9548	0.465
Mof_C 	C 	0.2035	0.4538	0.1222	-0.248
Mof_H 	H 	0.198	0.5199	0.0988	0.116
Mof_C 	C 	0.9409	0.9156	0.1094	0.054
Mof_H 	H 	0.9734	0.9416	0.086	0.033
Mof_C 	C 	0.9263	0.7405	0.0451	0.377
_end
