# CIF file generated by openbabel 3.1.0, see https://openbabel.org
data_I
_chemical_name_common 'image0'
_cell_length_a 12.8708
_cell_length_b 12.8708
_cell_length_c 17.2433
_cell_angle_alpha 90
_cell_angle_beta 90
_cell_angle_gamma 120
_space_group_name_H-M_alt 'P 1'
_space_group_name_Hall 'P 1'
loop_
    _symmetry_equiv_pos_as_xyz
    x,y,z
loop_
    _atom_site_label
    _atom_site_type_symbol
    _atom_site_fract_x
    _atom_site_fract_y
    _atom_site_fract_z
    _atom_site_occupancy
    O1       O        0.68080    0.81950    0.01050    1.000
    O2       O        0.49230    0.69640    0.98490    1.000
    O3       O        0.34020    0.98370    0.19950    1.000
    O4       O        0.51350    0.02400    0.24560    1.000
    C1       C        0.54460    0.89960    0.01240    1.000
    C2       C        0.46310    0.87380    0.08510    1.000
    C3       C        0.48870    0.00130    0.10650    1.000
    H1       H        0.44800    0.02690    0.06960    1.000
    C4       C        0.62540    0.07860    0.09580    1.000
    H2       H        0.64760    0.16020    0.08200    1.000
    H3       H        0.66690    0.08030    0.14320    1.000
    C5       C        0.65510    0.02160    0.03340    1.000
    H4       H        0.72050    0.00950    0.04960    1.000
    H5       H        0.68120    0.07340    0.98820    1.000
    C6       C        0.48610    0.90710    0.93800    1.000
    H6       H        0.53970    0.92260    0.89530    1.000
    H7       H        0.46820    0.97090    0.94200    1.000
    H8       H        0.41320    0.83260    0.92960    1.000
    C7       C        0.32230    0.79060    0.06590    1.000
    H9       H        0.27640    0.77770    0.11240    1.000
    H10      H        0.30760    0.71480    0.04590    1.000
    H11      H        0.29900    0.82970    0.02800    1.000
    C8       C        0.49330    0.81320    0.14940    1.000
    H12      H        0.57700    0.86050    0.16190    1.000
    H13      H        0.47570    0.73490    0.13270    1.000
    H14      H        0.44640    0.80580    0.19450    1.000
    C9       C        0.57460    0.79950    0.00130    1.000
    C10      C        0.44600    0.00450    0.18930    1.000
    O5       O        0.18050    0.86130    0.34383    1.000
    O6       O        0.30360    0.79590    0.31823    1.000
    O7       O        0.01630    0.35650    0.53283    1.000
    O8       O        0.97600    0.48950    0.57893    1.000
    C11      C        0.10040    0.64500    0.34573    1.000
    C12      C        0.12620    0.58930    0.41843    1.000
    C13      C        0.99870    0.48740    0.43983    1.000
    H15      H        0.97310    0.42110    0.40293    1.000
    C14      C        0.92140    0.54680    0.42913    1.000
    H16      H        0.83980    0.48740    0.41533    1.000
    H17      H        0.91970    0.58660    0.47653    1.000
    C15      C        0.97840    0.63350    0.36673    1.000
    H18      H        0.99050    0.71100    0.38293    1.000
    H19      H        0.92660    0.60780    0.32153    1.000
    C16      C        0.09290    0.57900    0.27133    1.000
    H20      H        0.07740    0.61710    0.22863    1.000
    H21      H        0.02910    0.49730    0.27533    1.000
    H22      H        0.16740    0.58060    0.26293    1.000
    C17      C        0.20940    0.53170    0.39923    1.000
    H23      H        0.22230    0.49870    0.44573    1.000
    H24      H        0.28520    0.59280    0.37923    1.000
    H25      H        0.17030    0.46930    0.36133    1.000
    C18      C        0.18680    0.68010    0.48273    1.000
    H26      H        0.13950    0.71650    0.49523    1.000
    H27      H        0.26510    0.74080    0.46603    1.000
    H28      H        0.19420    0.64060    0.52783    1.000
    C19      C        0.20050    0.77510    0.33463    1.000
    C20      C        0.99550    0.44150    0.52263    1.000
    O9       O        0.13870    0.31920    0.67717    1.000
    O10      O        0.20410    0.50770    0.65157    1.000
    O11      O        0.64350    0.65980    0.86617    1.000
    O12      O        0.51050    0.48650    0.91227    1.000
    C21      C        0.35500    0.45540    0.67907    1.000
    C22      C        0.41070    0.53690    0.75177    1.000
    C23      C        0.51260    0.51130    0.77317    1.000
    H29      H        0.57890    0.55200    0.73627    1.000
    C24      C        0.45320    0.37460    0.76247    1.000
    H30      H        0.51260    0.35240    0.74867    1.000
    H31      H        0.41340    0.33310    0.80987    1.000
    C25      C        0.36650    0.34490    0.70007    1.000
    H32      H        0.28900    0.27950    0.71627    1.000
    H33      H        0.39220    0.31880    0.65487    1.000
    C26      C        0.42100    0.51390    0.60467    1.000
    H34      H        0.38290    0.46030    0.56197    1.000
    H35      H        0.50270    0.53180    0.60867    1.000
    H36      H        0.41940    0.58680    0.59627    1.000
    C27      C        0.46830    0.67770    0.73257    1.000
    H37      H        0.50130    0.72360    0.77907    1.000
    H38      H        0.40720    0.69240    0.71257    1.000
    H39      H        0.53070    0.70100    0.69467    1.000
    C28      C        0.31990    0.50670    0.81607    1.000
    H40      H        0.28350    0.42300    0.82857    1.000
    H41      H        0.25920    0.52430    0.79937    1.000
    H42      H        0.35940    0.55360    0.86117    1.000
    C29      C        0.22490    0.42540    0.66797    1.000
    C30      C        0.55850    0.55400    0.85597    1.000
    O13      O        0.81950    0.68080    0.98950    1.000
    O14      O        0.69640    0.49230    0.01510    1.000
    O15      O        0.98370    0.34020    0.80050    1.000
    O16      O        0.02400    0.51350    0.75440    1.000
    C31      C        0.89960    0.54460    0.98760    1.000
    C32      C        0.87380    0.46310    0.91490    1.000
    C33      C        0.00130    0.48870    0.89350    1.000
    H43      H        0.02690    0.44800    0.93040    1.000
    C34      C        0.07860    0.62540    0.90420    1.000
    H44      H        0.16020    0.64760    0.91800    1.000
    H45      H        0.08030    0.66690    0.85680    1.000
    C35      C        0.02160    0.65510    0.96660    1.000
    H46      H        0.00950    0.72050    0.95040    1.000
    H47      H        0.07340    0.68120    0.01180    1.000
    C36      C        0.90710    0.48610    0.06200    1.000
    H48      H        0.92260    0.53970    0.10470    1.000
    H49      H        0.97090    0.46820    0.05800    1.000
    H50      H        0.83260    0.41320    0.07040    1.000
    C37      C        0.79060    0.32230    0.93410    1.000
    H51      H        0.77770    0.27640    0.88760    1.000
    H52      H        0.71480    0.30760    0.95410    1.000
    H53      H        0.82970    0.29900    0.97200    1.000
    C38      C        0.81320    0.49330    0.85060    1.000
    H54      H        0.86050    0.57700    0.83810    1.000
    H55      H        0.73490    0.47570    0.86730    1.000
    H56      H        0.80580    0.44640    0.80550    1.000
    C39      C        0.79950    0.57460    0.99870    1.000
    C40      C        0.00450    0.44600    0.81070    1.000
    O17      O        0.86130    0.18050    0.65617    1.000
    O18      O        0.79590    0.30360    0.68177    1.000
    O19      O        0.35650    0.01630    0.46717    1.000
    O20      O        0.48950    0.97600    0.42107    1.000
    C41      C        0.64500    0.10040    0.65427    1.000
    C42      C        0.58930    0.12620    0.58157    1.000
    C43      C        0.48740    0.99870    0.56017    1.000
    H57      H        0.42110    0.97310    0.59707    1.000
    C44      C        0.54680    0.92140    0.57087    1.000
    H58      H        0.48740    0.83980    0.58467    1.000
    H59      H        0.58660    0.91970    0.52347    1.000
    C45      C        0.63350    0.97840    0.63327    1.000
    H60      H        0.71100    0.99050    0.61707    1.000
    H61      H        0.60780    0.92660    0.67847    1.000
    C46      C        0.57900    0.09290    0.72867    1.000
    H62      H        0.61710    0.07740    0.77137    1.000
    H63      H        0.49730    0.02910    0.72467    1.000
    H64      H        0.58060    0.16740    0.73707    1.000
    C47      C        0.53170    0.20940    0.60077    1.000
    H65      H        0.49870    0.22230    0.55427    1.000
    H66      H        0.59280    0.28520    0.62077    1.000
    H67      H        0.46930    0.17030    0.63867    1.000
    C48      C        0.68010    0.18680    0.51727    1.000
    H68      H        0.71650    0.13950    0.50477    1.000
    H69      H        0.74080    0.26510    0.53397    1.000
    H70      H        0.64060    0.19420    0.47217    1.000
    C49      C        0.77510    0.20050    0.66537    1.000
    C50      C        0.44150    0.99550    0.47737    1.000
    O21      O        0.31920    0.13870    0.32283    1.000
    O22      O        0.50770    0.20410    0.34843    1.000
    O23      O        0.65980    0.64350    0.13383    1.000
    O24      O        0.48650    0.51050    0.08773    1.000
    C51      C        0.45540    0.35500    0.32093    1.000
    C52      C        0.53690    0.41070    0.24823    1.000
    C53      C        0.51130    0.51260    0.22683    1.000
    H71      H        0.55200    0.57890    0.26373    1.000
    C54      C        0.37460    0.45320    0.23753    1.000
    H72      H        0.35240    0.51260    0.25133    1.000
    H73      H        0.33310    0.41340    0.19013    1.000
    C55      C        0.34490    0.36650    0.29993    1.000
    H74      H        0.27950    0.28900    0.28373    1.000
    H75      H        0.31880    0.39220    0.34513    1.000
    C56      C        0.51390    0.42100    0.39533    1.000
    H76      H        0.46030    0.38290    0.43803    1.000
    H77      H        0.53180    0.50270    0.39133    1.000
    H78      H        0.58680    0.41940    0.40373    1.000
    C57      C        0.67770    0.46830    0.26743    1.000
    H79      H        0.72360    0.50130    0.22093    1.000
    H80      H        0.69240    0.40720    0.28743    1.000
    H81      H        0.70100    0.53070    0.30533    1.000
    C58      C        0.50670    0.31990    0.18393    1.000
    H82      H        0.42300    0.28350    0.17143    1.000
    H83      H        0.52430    0.25920    0.20063    1.000
    H84      H        0.55360    0.35940    0.13883    1.000
    C59      C        0.42540    0.22490    0.33203    1.000
    C60      C        0.55400    0.55850    0.14403    1.000
    In1      In       0.62470    0.62470    0.00000    1.000
    In2      In       0.37530    0.00000    0.33333    1.000
    In3      In       0.00000    0.37530    0.66667    1.000
