data_functionalizedCrystal
_audit_creation_method	'EQeq! by Chris Wilmer'
_symmetry_space_group_name_H-M	'P1'
_symmetry_Int_Tables_number	1
_symmetry_cell_setting	triclinic
loop_
_symmetry_equiv_pos_as_xyz
  x,y,z
_cell_length_a	26.2928
_cell_length_b	26.2928
_cell_length_c	26.036
_cell_angle_alpha	90
_cell_angle_beta	90
_cell_angle_gamma	120
loop_
_atom_site_label
_atom_site_type_symbol
_atom_site_fract_x
_atom_site_fract_y
_atom_site_fract_z
_atom_site_charge
Mof_O 	O 	0.4413	0.45439	0.61024	-0.418
Mof_O 	O 	0.1323	0.1611	0.96781	-0.407
Mof_O 	O 	0.1588	0.21306	0.89508	-0.418
Mof_O 	O 	0.416	0.47951	0.68316	-0.422
Mof_C 	C 	0.1738	0.1323	0.9022	-0.105
Mof_C 	C 	0.2082	0.1491	0.8603	0.019
Mof_H 	H 	0.2185	0.186	0.8455	0.039
Mof_C 	C 	0.1532	0.1722	0.9233	0.372
Mof_C 	C 	0.3592	0.3153	0.7417	-0.103
Mof_H 	H 	0.3444	0.307	0.7758	0.065
Mof_C 	C 	0.421	0.4443	0.6542	0.387
Mof_C 	C 	0.3776	0.3702	0.7236	0.049
Mof_H 	H 	0.3735	0.3981	0.7438	0.03
Mof_C 	C 	0.2955	0.1932	0.774	-0.14
Mof_H 	H 	0.2796	0.2174	0.7832	0.079
Mof_C 	C 	0.3602	0.2712	0.7156	0.038
Mof_C 	C 	0.406	0.3417	0.6486	0.044
Mof_H 	H 	0.4237	0.351	0.6156	0.031
Mof_C 	C 	0.4016	0.3841	0.6763	-0.118
Mof_C 	C 	0.3391	0.2128	0.7387	0.09
Mof_C 	C 	0.3851	0.2867	0.6683	-0.098
Mof_H 	H 	0.3881	0.2581	0.6482	0.072
Mof_O 	O 	0.10797	0.78772	0.94357	-0.412
Mof_O 	O 	0.79897	0.49443	0.30114	-0.403
Mof_O 	O 	0.82547	0.54639	0.22841	-0.417
Mof_O 	O 	0.08267	0.81284	0.01649	-0.411
Mof_C 	C 	0.84047	0.46563	0.23553	-0.105
Mof_C 	C 	0.87487	0.48243	0.19363	0.021
Mof_H 	H 	0.88517	0.51933	0.17883	0.039
Mof_C 	C 	0.81987	0.50553	0.25663	0.372
Mof_C 	C 	0.02587	0.64863	0.07503	-0.069
Mof_H 	H 	0.01107	0.64033	0.10913	0.055
Mof_C 	C 	0.08767	0.77763	0.98753	0.361
Mof_C 	C 	0.04427	0.70353	0.05693	0.013
Mof_H 	H 	0.04017	0.73143	0.07713	0.042
Mof_C 	C 	0.96217	0.52653	0.10733	-0.147
Mof_H 	H 	0.94627	0.55073	0.11653	0.083
Mof_C 	C 	0.02687	0.60453	0.04893	0.006
Mof_C 	C 	0.07267	0.67503	0.98193	-0.011
Mof_H 	H 	0.09037	0.68433	0.94893	0.048
Mof_C 	C 	0.06827	0.71743	0.00963	-0.075
Mof_C 	C 	0.00577	0.54613	0.07203	0.103
Mof_C 	C 	0.05177	0.62003	0.00163	-0.043
Mof_H 	H 	0.05477	0.59143	0.98153	0.05
Mof_O 	O 	0.77463	0.12106	0.27691	-0.417
Mof_O 	O 	0.46563	0.82777	0.63448	-0.404
Mof_O 	O 	0.49213	0.87973	0.56175	-0.417
Mof_O 	O 	0.74933	0.14618	0.34983	-0.422
Mof_C 	C 	0.50713	0.79897	0.56887	-0.105
Mof_C 	C 	0.54153	0.81577	0.52697	0.019
Mof_H 	H 	0.55183	0.85267	0.51217	0.039
Mof_C 	C 	0.48653	0.83887	0.58997	0.372
Mof_C 	C 	0.69253	0.98197	0.40837	-0.11
Mof_H 	H 	0.67773	0.97367	0.44247	0.067
Mof_C 	C 	0.75433	0.11097	0.32087	0.388
Mof_C 	C 	0.71093	0.03687	0.39027	0.056
Mof_H 	H 	0.70683	0.06477	0.41047	0.028
Mof_C 	C 	0.62883	0.85987	0.44067	-0.139
Mof_H 	H 	0.61293	0.88407	0.44987	0.079
Mof_C 	C 	0.69353	0.93787	0.38227	0.043
Mof_C 	C 	0.73933	0.00837	0.31527	0.051
Mof_H 	H 	0.75703	0.01767	0.28227	0.03
Mof_C 	C 	0.73493	0.05077	0.34297	-0.122
Mof_C 	C 	0.67243	0.87947	0.40537	0.088
Mof_C 	C 	0.71843	0.95337	0.33497	-0.105
Mof_H 	H 	0.72143	0.92477	0.31487	0.074
Mof_O 	O 	0.54561	0.98691	0.61024	-0.417
Mof_O 	O 	0.8389	0.9712	0.96781	-0.406
Mof_O 	O 	0.78694	0.94574	0.89508	-0.418
Mof_O 	O 	0.52049	0.93649	0.68316	-0.422
Mof_C 	C 	0.8677	0.0415	0.9022	-0.102
Mof_C 	C 	0.8509	0.0591	0.8603	0.018
Mof_H 	H 	0.814	0.0325	0.8455	0.04
Mof_C 	C 	0.8278	0.981	0.9233	0.37
Mof_C 	C 	0.6847	0.0439	0.7417	-0.105
Mof_H 	H 	0.693	0.0374	0.7758	0.066
Mof_C 	C 	0.5557	0.9767	0.6542	0.386
Mof_C 	C 	0.6298	0.0074	0.7236	0.053
Mof_H 	H 	0.6019	0.9754	0.7438	0.027
Mof_C 	C 	0.8068	0.1023	0.774	-0.139
Mof_H 	H 	0.7826	0.0622	0.7832	0.079
Mof_C 	C 	0.7288	0.089	0.7156	0.04
Mof_C 	C 	0.6583	0.0643	0.6486	0.045
Mof_H 	H 	0.649	0.0727	0.6156	0.031
Mof_C 	C 	0.6159	0.0175	0.6763	-0.118
Mof_C 	C 	0.7872	0.1263	0.7387	0.089
Mof_C 	C 	0.7133	0.0984	0.6683	-0.099
Mof_H 	H 	0.7419	0.13	0.6482	0.072
Mof_O 	O 	0.21228	0.32024	0.94357	-0.412
Mof_O 	O 	0.50557	0.30453	0.30114	-0.403
Mof_O 	O 	0.45361	0.27907	0.22841	-0.417
Mof_O 	O 	0.18716	0.26982	0.01649	-0.411
Mof_C 	C 	0.53437	0.37483	0.23553	-0.106
Mof_C 	C 	0.51757	0.39243	0.19363	0.022
Mof_H 	H 	0.48067	0.36583	0.17883	0.039
Mof_C 	C 	0.49447	0.31433	0.25663	0.372
Mof_C 	C 	0.35137	0.37723	0.07503	-0.068
Mof_H 	H 	0.35967	0.37073	0.10913	0.055
Mof_C 	C 	0.22237	0.31003	0.98753	0.361
Mof_C 	C 	0.29647	0.34073	0.05693	0.012
Mof_H 	H 	0.26857	0.30873	0.07713	0.043
Mof_C 	C 	0.47347	0.43563	0.10733	-0.15
Mof_H 	H 	0.44927	0.39553	0.11653	0.084
Mof_C 	C 	0.39547	0.42233	0.04893	0.005
Mof_C 	C 	0.32497	0.39763	0.98193	-0.011
Mof_H 	H 	0.31567	0.40603	0.94893	0.049
Mof_C 	C 	0.28257	0.35083	0.00963	-0.074
Mof_C 	C 	0.45387	0.45963	0.07203	0.106
Mof_C 	C 	0.37997	0.43173	0.00163	-0.042
Mof_H 	H 	0.40857	0.46333	0.98153	0.05
Mof_O 	O 	0.87894	0.65358	0.27691	-0.417
Mof_O 	O 	0.17223	0.63787	0.63448	-0.404
Mof_O 	O 	0.12027	0.61241	0.56175	-0.417
Mof_O 	O 	0.85382	0.60316	0.34983	-0.422
Mof_C 	C 	0.20103	0.70817	0.56887	-0.105
Mof_C 	C 	0.18423	0.72577	0.52697	0.019
Mof_H 	H 	0.14733	0.69917	0.51217	0.04
Mof_C 	C 	0.16113	0.64767	0.58997	0.372
Mof_C 	C 	0.01803	0.71057	0.40837	-0.11
Mof_H 	H 	0.02633	0.70407	0.44247	0.068
Mof_C 	C 	0.88903	0.64337	0.32087	0.388
Mof_C 	C 	0.96313	0.67407	0.39027	0.056
Mof_H 	H 	0.93523	0.64207	0.41047	0.028
Mof_C 	C 	0.14013	0.76897	0.44067	-0.139
Mof_H 	H 	0.11593	0.72887	0.44987	0.078
Mof_C 	C 	0.06213	0.75567	0.38227	0.044
Mof_C 	C 	0.99163	0.73097	0.31527	0.051
Mof_H 	H 	0.98233	0.73937	0.28227	0.03
Mof_C 	C 	0.94923	0.68417	0.34297	-0.122
Mof_C 	C 	0.12053	0.79297	0.40537	0.088
Mof_C 	C 	0.04663	0.76507	0.33497	-0.105
Mof_H 	H 	0.07523	0.79667	0.31487	0.074
Mof_O 	O 	0.01309	0.5587	0.61024	-0.417
Mof_O 	O 	0.0288	0.8677	0.96781	-0.406
Mof_O 	O 	0.05426	0.8412	0.89508	-0.418
Mof_O 	O 	0.06351	0.584	0.68316	-0.422
Mof_C 	C 	0.9585	0.8262	0.9022	-0.103
Mof_C 	C 	0.9409	0.7918	0.8603	0.018
Mof_H 	H 	0.9675	0.7815	0.8455	0.04
Mof_C 	C 	0.019	0.8468	0.9233	0.37
Mof_C 	C 	0.9561	0.6408	0.7417	-0.105
Mof_H 	H 	0.9626	0.6556	0.7758	0.066
Mof_C 	C 	0.0233	0.579	0.6542	0.386
Mof_C 	C 	0.9926	0.6224	0.7236	0.053
Mof_H 	H 	0.0246	0.6265	0.7438	0.027
Mof_C 	C 	0.8977	0.7045	0.774	-0.14
Mof_H 	H 	0.9378	0.7204	0.7832	0.079
Mof_C 	C 	0.911	0.6398	0.7156	0.04
Mof_C 	C 	0.9357	0.594	0.6486	0.045
Mof_H 	H 	0.9273	0.5763	0.6156	0.031
Mof_C 	C 	0.9825	0.5984	0.6763	-0.118
Mof_C 	C 	0.8737	0.6609	0.7387	0.089
Mof_C 	C 	0.9016	0.6149	0.6683	-0.099
Mof_H 	H 	0.87	0.6119	0.6482	0.072
Mof_O 	O 	0.67976	0.89203	0.94357	-0.412
Mof_O 	O 	0.69547	0.20103	0.30114	-0.403
Mof_O 	O 	0.72093	0.17453	0.22841	-0.417
Mof_O 	O 	0.73018	0.91733	0.01649	-0.411
Mof_C 	C 	0.62517	0.15953	0.23553	-0.105
Mof_C 	C 	0.60757	0.12513	0.19363	0.021
Mof_H 	H 	0.63417	0.11483	0.17883	0.039
Mof_C 	C 	0.68567	0.18013	0.25663	0.372
Mof_C 	C 	0.62277	0.97413	0.07503	-0.069
Mof_H 	H 	0.62927	0.98893	0.10913	0.055
Mof_C 	C 	0.68997	0.91233	0.98753	0.361
Mof_C 	C 	0.65927	0.95573	0.05693	0.013
Mof_H 	H 	0.69127	0.95983	0.07713	0.042
Mof_C 	C 	0.56437	0.03783	0.10733	-0.147
Mof_H 	H 	0.60447	0.05373	0.11653	0.083
Mof_C 	C 	0.57767	0.97313	0.04893	0.006
Mof_C 	C 	0.60237	0.92733	0.98193	-0.011
Mof_H 	H 	0.59397	0.90963	0.94893	0.048
Mof_C 	C 	0.64917	0.93173	0.00963	-0.075
Mof_C 	C 	0.54037	0.99423	0.07203	0.103
Mof_C 	C 	0.56827	0.94823	0.00163	-0.043
Mof_H 	H 	0.53667	0.94523	0.98153	0.05
Mof_O 	O 	0.34642	0.22537	0.27691	-0.417
Mof_O 	O 	0.36213	0.53437	0.63448	-0.403
Mof_O 	O 	0.38759	0.50787	0.56175	-0.417
Mof_O 	O 	0.39684	0.25067	0.34983	-0.421
Mof_C 	C 	0.29183	0.49287	0.56887	-0.105
Mof_C 	C 	0.27423	0.45847	0.52697	0.019
Mof_H 	H 	0.30083	0.44817	0.51217	0.04
Mof_C 	C 	0.35233	0.51347	0.58997	0.372
Mof_C 	C 	0.28943	0.30747	0.40837	-0.103
Mof_H 	H 	0.29593	0.32227	0.44247	0.066
Mof_C 	C 	0.35663	0.24567	0.32087	0.386
Mof_C 	C 	0.32593	0.28907	0.39027	0.049
Mof_H 	H 	0.35793	0.29317	0.41047	0.03
Mof_C 	C 	0.23103	0.37117	0.44067	-0.14
Mof_H 	H 	0.27113	0.38707	0.44987	0.079
Mof_C 	C 	0.24433	0.30647	0.38227	0.038
Mof_C 	C 	0.26903	0.26067	0.31527	0.044
Mof_H 	H 	0.26063	0.24297	0.28227	0.032
Mof_C 	C 	0.31583	0.26507	0.34297	-0.118
Mof_C 	C 	0.20703	0.32757	0.40537	0.09
Mof_C 	C 	0.23493	0.28157	0.33497	-0.098
Mof_H 	H 	0.20333	0.27857	0.31487	0.072
Mof_O 	O 	0.54561	0.5587	0.61024	-0.417
Mof_O 	O 	0.8389	0.8677	0.96781	-0.406
Mof_O 	O 	0.78694	0.8412	0.89508	-0.418
Mof_O 	O 	0.52049	0.584	0.68316	-0.422
Mof_C 	C 	0.8677	0.8262	0.9022	-0.105
Mof_C 	C 	0.8509	0.7918	0.8603	0.019
Mof_H 	H 	0.814	0.7815	0.8455	0.039
Mof_C 	C 	0.8278	0.8468	0.9233	0.372
Mof_C 	C 	0.6847	0.6408	0.7417	-0.103
Mof_H 	H 	0.693	0.6556	0.7758	0.065
Mof_C 	C 	0.5557	0.579	0.6542	0.387
Mof_C 	C 	0.6298	0.6224	0.7236	0.049
Mof_H 	H 	0.6019	0.6265	0.7438	0.03
Mof_C 	C 	0.8068	0.7045	0.774	-0.14
Mof_H 	H 	0.7826	0.7204	0.7832	0.079
Mof_C 	C 	0.7288	0.6398	0.7156	0.038
Mof_C 	C 	0.6583	0.594	0.6486	0.044
Mof_H 	H 	0.649	0.5763	0.6156	0.031
Mof_C 	C 	0.6159	0.5984	0.6763	-0.118
Mof_C 	C 	0.7872	0.6609	0.7387	0.09
Mof_C 	C 	0.7133	0.6149	0.6683	-0.098
Mof_H 	H 	0.7419	0.6119	0.6482	0.072
Mof_O 	O 	0.21228	0.89203	0.94357	-0.412
Mof_O 	O 	0.50557	0.20103	0.30114	-0.403
Mof_O 	O 	0.45361	0.17453	0.22841	-0.417
Mof_O 	O 	0.18716	0.91733	0.01649	-0.411
Mof_C 	C 	0.53437	0.15953	0.23553	-0.105
Mof_C 	C 	0.51757	0.12513	0.19363	0.021
Mof_H 	H 	0.48067	0.11483	0.17883	0.039
Mof_C 	C 	0.49447	0.18013	0.25663	0.372
Mof_C 	C 	0.35137	0.97413	0.07503	-0.069
Mof_H 	H 	0.35967	0.98893	0.10913	0.055
Mof_C 	C 	0.22237	0.91233	0.98753	0.361
Mof_C 	C 	0.29647	0.95573	0.05693	0.013
Mof_H 	H 	0.26857	0.95983	0.07713	0.042
Mof_C 	C 	0.47347	0.03783	0.10733	-0.147
Mof_H 	H 	0.44927	0.05373	0.11653	0.083
Mof_C 	C 	0.39547	0.97313	0.04893	0.006
Mof_C 	C 	0.32497	0.92733	0.98193	-0.011
Mof_H 	H 	0.31567	0.90963	0.94893	0.048
Mof_C 	C 	0.28257	0.93173	0.00963	-0.075
Mof_C 	C 	0.45387	0.99423	0.07203	0.103
Mof_C 	C 	0.37997	0.94823	0.00163	-0.043
Mof_H 	H 	0.40857	0.94523	0.98153	0.05
Mof_O 	O 	0.87894	0.22537	0.27691	-0.417
Mof_O 	O 	0.17223	0.53437	0.63448	-0.404
Mof_O 	O 	0.12027	0.50787	0.56175	-0.417
Mof_O 	O 	0.85382	0.25067	0.34983	-0.422
Mof_C 	C 	0.20103	0.49287	0.56887	-0.105
Mof_C 	C 	0.18423	0.45847	0.52697	0.019
Mof_H 	H 	0.14733	0.44817	0.51217	0.039
Mof_C 	C 	0.16113	0.51347	0.58997	0.372
Mof_C 	C 	0.01803	0.30747	0.40837	-0.11
Mof_H 	H 	0.02633	0.32227	0.44247	0.067
Mof_C 	C 	0.88903	0.24567	0.32087	0.388
Mof_C 	C 	0.96313	0.28907	0.39027	0.056
Mof_H 	H 	0.93523	0.29317	0.41047	0.028
Mof_C 	C 	0.14013	0.37117	0.44067	-0.139
Mof_H 	H 	0.11593	0.38707	0.44987	0.079
Mof_C 	C 	0.06213	0.30647	0.38227	0.043
Mof_C 	C 	0.99163	0.26067	0.31527	0.051
Mof_H 	H 	0.98233	0.24297	0.28227	0.03
Mof_C 	C 	0.94923	0.26507	0.34297	-0.122
Mof_C 	C 	0.12053	0.32757	0.40537	0.088
Mof_C 	C 	0.04663	0.28157	0.33497	-0.105
Mof_H 	H 	0.07523	0.27857	0.31487	0.074
Mof_O 	O 	0.01309	0.45439	0.61024	-0.417
Mof_O 	O 	0.0288	0.1611	0.96781	-0.406
Mof_O 	O 	0.05426	0.21306	0.89508	-0.418
Mof_O 	O 	0.06351	0.47951	0.68316	-0.422
Mof_C 	C 	0.9585	0.1323	0.9022	-0.102
Mof_C 	C 	0.9409	0.1491	0.8603	0.018
Mof_H 	H 	0.9675	0.186	0.8455	0.04
Mof_C 	C 	0.019	0.1722	0.9233	0.37
Mof_C 	C 	0.9561	0.3153	0.7417	-0.105
Mof_H 	H 	0.9626	0.307	0.7758	0.066
Mof_C 	C 	0.0233	0.4443	0.6542	0.386
Mof_C 	C 	0.9926	0.3702	0.7236	0.053
Mof_H 	H 	0.0246	0.3981	0.7438	0.027
Mof_C 	C 	0.8977	0.1932	0.774	-0.139
Mof_H 	H 	0.9378	0.2174	0.7832	0.079
Mof_C 	C 	0.911	0.2712	0.7156	0.04
Mof_C 	C 	0.9357	0.3417	0.6486	0.045
Mof_H 	H 	0.9273	0.351	0.6156	0.031
Mof_C 	C 	0.9825	0.3841	0.6763	-0.118
Mof_C 	C 	0.8737	0.2128	0.7387	0.089
Mof_C 	C 	0.9016	0.2867	0.6683	-0.099
Mof_H 	H 	0.87	0.2581	0.6482	0.072
Mof_O 	O 	0.67976	0.78772	0.94357	-0.412
Mof_O 	O 	0.69547	0.49443	0.30114	-0.403
Mof_O 	O 	0.72093	0.54639	0.22841	-0.417
Mof_O 	O 	0.73018	0.81284	0.01649	-0.411
Mof_C 	C 	0.62517	0.46563	0.23553	-0.106
Mof_C 	C 	0.60757	0.48243	0.19363	0.022
Mof_H 	H 	0.63417	0.51933	0.17883	0.039
Mof_C 	C 	0.68567	0.50553	0.25663	0.372
Mof_C 	C 	0.62277	0.64863	0.07503	-0.068
Mof_H 	H 	0.62927	0.64033	0.10913	0.055
Mof_C 	C 	0.68997	0.77763	0.98753	0.361
Mof_C 	C 	0.65927	0.70353	0.05693	0.012
Mof_H 	H 	0.69127	0.73143	0.07713	0.043
Mof_C 	C 	0.56437	0.52653	0.10733	-0.15
Mof_H 	H 	0.60447	0.55073	0.11653	0.084
Mof_C 	C 	0.57767	0.60453	0.04893	0.005
Mof_C 	C 	0.60237	0.67503	0.98193	-0.011
Mof_H 	H 	0.59397	0.68433	0.94893	0.049
Mof_C 	C 	0.64917	0.71743	0.00963	-0.074
Mof_C 	C 	0.54037	0.54613	0.07203	0.106
Mof_C 	C 	0.56827	0.62003	0.00163	-0.042
Mof_H 	H 	0.53667	0.59143	0.98153	0.05
Mof_O 	O 	0.34642	0.12106	0.27691	-0.417
Mof_O 	O 	0.36213	0.82777	0.63448	-0.404
Mof_O 	O 	0.38759	0.87973	0.56175	-0.417
Mof_O 	O 	0.39684	0.14618	0.34983	-0.422
Mof_C 	C 	0.29183	0.79897	0.56887	-0.105
Mof_C 	C 	0.27423	0.81577	0.52697	0.019
Mof_H 	H 	0.30083	0.85267	0.51217	0.04
Mof_C 	C 	0.35233	0.83887	0.58997	0.372
Mof_C 	C 	0.28943	0.98197	0.40837	-0.11
Mof_H 	H 	0.29593	0.97367	0.44247	0.068
Mof_C 	C 	0.35663	0.11097	0.32087	0.388
Mof_C 	C 	0.32593	0.03687	0.39027	0.056
Mof_H 	H 	0.35793	0.06477	0.41047	0.028
Mof_C 	C 	0.23103	0.85987	0.44067	-0.139
Mof_H 	H 	0.27113	0.88407	0.44987	0.078
Mof_C 	C 	0.24433	0.93787	0.38227	0.044
Mof_C 	C 	0.26903	0.00837	0.31527	0.051
Mof_H 	H 	0.26063	0.01767	0.28227	0.03
Mof_C 	C 	0.31583	0.05077	0.34297	-0.122
Mof_C 	C 	0.20703	0.87947	0.40537	0.088
Mof_C 	C 	0.23493	0.95337	0.33497	-0.105
Mof_H 	H 	0.20333	0.92477	0.31487	0.074
Mof_O 	O 	0.4413	0.98691	0.61024	-0.417
Mof_O 	O 	0.1323	0.9712	0.96781	-0.406
Mof_O 	O 	0.1588	0.94574	0.89508	-0.418
Mof_O 	O 	0.416	0.93649	0.68316	-0.422
Mof_C 	C 	0.1738	0.0415	0.9022	-0.103
Mof_C 	C 	0.2082	0.0591	0.8603	0.018
Mof_H 	H 	0.2185	0.0325	0.8455	0.04
Mof_C 	C 	0.1532	0.981	0.9233	0.37
Mof_C 	C 	0.3592	0.0439	0.7417	-0.105
Mof_H 	H 	0.3444	0.0374	0.7758	0.066
Mof_C 	C 	0.421	0.9767	0.6542	0.386
Mof_C 	C 	0.3776	0.0074	0.7236	0.053
Mof_H 	H 	0.3735	0.9754	0.7438	0.027
Mof_C 	C 	0.2955	0.1023	0.774	-0.14
Mof_H 	H 	0.2796	0.0622	0.7832	0.079
Mof_C 	C 	0.3602	0.089	0.7156	0.04
Mof_C 	C 	0.406	0.0643	0.6486	0.045
Mof_H 	H 	0.4237	0.0727	0.6156	0.031
Mof_C 	C 	0.4016	0.0175	0.6763	-0.118
Mof_C 	C 	0.3391	0.1263	0.7387	0.089
Mof_C 	C 	0.3851	0.0984	0.6683	-0.099
Mof_H 	H 	0.3881	0.13	0.6482	0.072
Mof_O 	O 	0.10797	0.32024	0.94357	-0.412
Mof_O 	O 	0.79897	0.30453	0.30114	-0.403
Mof_O 	O 	0.82547	0.27907	0.22841	-0.417
Mof_O 	O 	0.08267	0.26982	0.01649	-0.411
Mof_C 	C 	0.84047	0.37483	0.23553	-0.105
Mof_C 	C 	0.87487	0.39243	0.19363	0.021
Mof_H 	H 	0.88517	0.36583	0.17883	0.039
Mof_C 	C 	0.81987	0.31433	0.25663	0.372
Mof_C 	C 	0.02587	0.37723	0.07503	-0.069
Mof_H 	H 	0.01107	0.37073	0.10913	0.055
Mof_C 	C 	0.08767	0.31003	0.98753	0.361
Mof_C 	C 	0.04427	0.34073	0.05693	0.013
Mof_H 	H 	0.04017	0.30873	0.07713	0.042
Mof_C 	C 	0.96217	0.43563	0.10733	-0.147
Mof_H 	H 	0.94627	0.39553	0.11653	0.083
Mof_C 	C 	0.02687	0.42233	0.04893	0.006
Mof_C 	C 	0.07267	0.39763	0.98193	-0.011
Mof_H 	H 	0.09037	0.40603	0.94893	0.048
Mof_C 	C 	0.06827	0.35083	0.00963	-0.075
Mof_C 	C 	0.00577	0.45963	0.07203	0.103
Mof_C 	C 	0.05177	0.43173	0.00163	-0.043
Mof_H 	H 	0.05477	0.46333	0.98153	0.05
Mof_O 	O 	0.77463	0.65358	0.27691	-0.417
Mof_O 	O 	0.46563	0.63787	0.63448	-0.403
Mof_O 	O 	0.49213	0.61241	0.56175	-0.417
Mof_O 	O 	0.74933	0.60316	0.34983	-0.421
Mof_C 	C 	0.50713	0.70817	0.56887	-0.105
Mof_C 	C 	0.54153	0.72577	0.52697	0.019
Mof_H 	H 	0.55183	0.69917	0.51217	0.04
Mof_C 	C 	0.48653	0.64767	0.58997	0.372
Mof_C 	C 	0.69253	0.71057	0.40837	-0.103
Mof_H 	H 	0.67773	0.70407	0.44247	0.066
Mof_C 	C 	0.75433	0.64337	0.32087	0.386
Mof_C 	C 	0.71093	0.67407	0.39027	0.049
Mof_H 	H 	0.70683	0.64207	0.41047	0.03
Mof_C 	C 	0.62883	0.76897	0.44067	-0.14
Mof_H 	H 	0.61293	0.72887	0.44987	0.079
Mof_C 	C 	0.69353	0.75567	0.38227	0.038
Mof_C 	C 	0.73933	0.73097	0.31527	0.044
Mof_H 	H 	0.75703	0.73937	0.28227	0.032
Mof_C 	C 	0.73493	0.68417	0.34297	-0.118
Mof_C 	C 	0.67243	0.79297	0.40537	0.09
Mof_C 	C 	0.71843	0.76507	0.33497	-0.098
Mof_H 	H 	0.72143	0.79667	0.31487	0.072
Mof_Cu	Cu	0.43931	0.56069	0.66675	0.905
Mof_Cu	Cu	0.46866	0.53134	0.57881	0.908
Mof_Cu	Cu	0.10597	0.89403	8e-05	0.907
Mof_Cu	Cu	0.13532	0.86468	0.91214	0.907
Mof_Cu	Cu	0.77264	0.22736	0.33342	0.906
Mof_Cu	Cu	0.80199	0.19801	0.24548	0.908
Mof_Cu	Cu	0.43931	0.87861	0.66675	0.905
Mof_Cu	Cu	0.46866	0.93731	0.57881	0.908
Mof_Cu	Cu	0.10597	0.21195	8e-05	0.908
Mof_Cu	Cu	0.13532	0.27065	0.91214	0.907
Mof_Cu	Cu	0.77264	0.54528	0.33342	0.905
Mof_Cu	Cu	0.80199	0.60398	0.24548	0.908
Mof_Cu	Cu	0.12139	0.56069	0.66675	0.905
Mof_Cu	Cu	0.06269	0.53134	0.57881	0.908
Mof_Cu	Cu	0.78805	0.89403	8e-05	0.908
Mof_Cu	Cu	0.72935	0.86468	0.91214	0.907
Mof_Cu	Cu	0.45472	0.22736	0.33342	0.905
Mof_Cu	Cu	0.39602	0.19801	0.24548	0.908
Mof_C 	C 	0.1558	0.0779	0.9244	0.048
Mof_H 	H 	0.1316	0.0658	0.9541	0.045
Mof_C 	C 	0.2302	0.1151	0.8365	-0.051
Mof_N 	N 	0.3598	0.1799	0.7195	-0.136
Mof_C 	C 	0.2724	0.1362	0.798	0.09
Mof_C 	C 	0.82247	0.41123	0.25773	0.049
Mof_H 	H 	0.79827	0.39913	0.28743	0.045
Mof_C 	C 	0.89687	0.44843	0.16983	-0.053
Mof_N 	N 	0.02647	0.51323	0.05283	-0.139
Mof_C 	C 	0.93907	0.46953	0.13133	0.096
Mof_C 	C 	0.48913	0.74457	0.59107	0.049
Mof_H 	H 	0.46493	0.73247	0.62077	0.045
Mof_C 	C 	0.56353	0.78177	0.50317	-0.051
Mof_N 	N 	0.69313	0.84657	0.38617	-0.136
Mof_C 	C 	0.60573	0.80287	0.46467	0.09
Mof_C 	C 	0.9221	0.0779	0.9244	0.047
Mof_H 	H 	0.9342	0.0658	0.9541	0.046
Mof_C 	C 	0.8849	0.1151	0.8365	-0.05
Mof_N 	N 	0.8201	0.1799	0.7195	-0.136
Mof_C 	C 	0.8638	0.1362	0.798	0.089
Mof_C 	C 	0.58877	0.41123	0.25773	0.05
Mof_H 	H 	0.60087	0.39913	0.28743	0.045
Mof_C 	C 	0.55157	0.44843	0.16983	-0.055
Mof_N 	N 	0.48677	0.51323	0.05283	-0.14
Mof_C 	C 	0.53047	0.46953	0.13133	0.098
Mof_C 	C 	0.25543	0.74457	0.59107	0.049
Mof_H 	H 	0.26753	0.73247	0.62077	0.045
Mof_C 	C 	0.21823	0.78177	0.50317	-0.051
Mof_N 	N 	0.15343	0.84657	0.38617	-0.135
Mof_C 	C 	0.19713	0.80287	0.46467	0.089
Mof_C 	C 	0.9221	0.8442	0.9244	0.048
Mof_H 	H 	0.9342	0.8684	0.9541	0.045
Mof_C 	C 	0.8849	0.7698	0.8365	-0.051
Mof_N 	N 	0.8201	0.6402	0.7195	-0.136
Mof_C 	C 	0.8638	0.7276	0.798	0.09
Mof_C 	C 	0.58877	0.17753	0.25773	0.049
Mof_H 	H 	0.60087	0.20173	0.28743	0.045
Mof_C 	C 	0.55157	0.10313	0.16983	-0.053
Mof_N 	N 	0.48677	0.97353	0.05283	-0.139
Mof_C 	C 	0.53047	0.06093	0.13133	0.096
Mof_C 	C 	0.25543	0.51087	0.59107	0.049
Mof_H 	H 	0.26753	0.53507	0.62077	0.045
Mof_C 	C 	0.21823	0.43647	0.50317	-0.051
Mof_N 	N 	0.15343	0.30687	0.38617	-0.136
Mof_C 	C 	0.19713	0.39427	0.46467	0.09
_end
