# CIF file generated by openbabel 3.1.0, see https://openbabel.org
data_I
_chemical_name_common 'image0'
_cell_length_a 74.91
_cell_length_b 29.614
_cell_length_c 29.755
_cell_angle_alpha 90
_cell_angle_beta 90
_cell_angle_gamma 90
_space_group_name_H-M_alt 'P 1'
_space_group_name_Hall 'P 1'
loop_
    _symmetry_equiv_pos_as_xyz
    x,y,z
loop_
    _atom_site_label
    _atom_site_type_symbol
    _atom_site_fract_x
    _atom_site_fract_y
    _atom_site_fract_z
    _atom_site_occupancy
    C1       C        0.07520    0.91490    0.45620    1.000
    H1       H        0.06320    0.91840    0.46600    1.000
    C2       C        0.10807    0.90430    0.42880    1.000
    H2       H        0.12000    0.90150    0.41850    1.000
    C3       C        0.14418    0.56000    0.38340    1.000
    C4       C        0.07960    0.87280    0.43460    1.000
    H3       H        0.07140    0.84890    0.42960    1.000
    C5       C        0.20398    0.47660    0.50560    1.000
    H4       H        0.19770    0.47650    0.53330    1.000
    C6       C        0.08692    0.95140    0.46410    1.000
    C7       C        0.08029    0.99170    0.48840    1.000
    C8       C        0.16596    0.50200    0.43800    1.000
    C9       C        0.22262    0.47940    0.50300    1.000
    H5       H        0.22910    0.47980    0.53050    1.000
    C10      C        0.15926    0.57500    0.40580    1.000
    H6       H        0.16300    0.60540    0.40220    1.000
    C11      C        0.10346    0.94650    0.45100    1.000
    H7       H        0.11210    0.96950    0.45580    1.000
    C12      C        0.09194    0.10310    0.64110    1.000
    H8       H        0.10000    0.09840    0.66530    1.000
    C13      C        0.10531    0.67230    0.26310    1.000
    C14      C        0.11445    0.64230    0.29620    1.000
    C15      C        0.12135    0.65880    0.33550    1.000
    H9       H        0.11950    0.68960    0.34290    1.000
    C16      C        0.13068    0.63230    0.36390    1.000
    H10      H        0.13510    0.64510    0.39100    1.000
    C17      C        0.13405    0.58710    0.35500    1.000
    C18      C        0.12559    0.56940    0.31640    1.000
    H11      H        0.12660    0.53810    0.31000    1.000
    C19      C        0.11583    0.59680    0.28740    1.000
    H12      H        0.11020    0.58420    0.26170    1.000
    C20      C        0.07903    0.07790    0.57240    1.000
    C21      C        0.09031    0.07150    0.61050    1.000
    H13      H        0.09670    0.04400    0.61380    1.000
    C22      C        0.16915    0.54580    0.43390    1.000
    H14      H        0.17870    0.55830    0.45100    1.000
    C23      C        0.06980    0.11720    0.56980    1.000
    H15      H        0.06220    0.12350    0.54510    1.000
    C24      C        0.15047    0.48290    0.41390    1.000
    H16      H        0.14760    0.45160    0.41500    1.000
    C25      C        0.14078    0.51190    0.39060    1.000
    H17      H        0.13030    0.50000    0.37680    1.000
    C26      C        0.30874    0.51120    0.46630    1.000
    C27      C        0.28813    0.50100    0.46520    1.000
    C28      C        0.27799    0.51690    0.42930    1.000
    H18      H        0.28350    0.53330    0.40560    1.000
    C29      C        0.25991    0.50860    0.42850    1.000
    H19      H        0.25300    0.51790    0.40330    1.000
    C30      C        0.25151    0.48660    0.46460    1.000
    C31      C        0.26231    0.47160    0.49930    1.000
    H20      H        0.25670    0.45730    0.52420    1.000
    C32      C        0.27990    0.47580    0.50000    1.000
    H21      H        0.28680    0.46230    0.52320    1.000
    C33      C        0.23200    0.48140    0.46460    1.000
    C34      C        0.22173    0.48070    0.42440    1.000
    H22      H        0.22740    0.48220    0.39590    1.000
    C35      C        0.20393    0.47800    0.42730    1.000
    H23      H        0.19730    0.47890    0.40010    1.000
    C36      C        0.19530    0.47420    0.46420    1.000
    C37      C        0.07203    0.14870    0.60560    1.000
    H24      H        0.06550    0.17620    0.60490    1.000
    C38      C        0.07769    0.04640    0.53490    1.000
    C39      C        0.10548    0.26870    0.66730    1.000
    C40      C        0.11675    0.29920    0.63740    1.000
    C41      C        0.12946    0.28260    0.60870    1.000
    H25      H        0.13180    0.25100    0.60750    1.000
    C42      C        0.13856    0.31100    0.58250    1.000
    H26      H        0.14700    0.29810    0.56240    1.000
    C43      C        0.13691    0.35610    0.58170    1.000
    C44      C        0.12348    0.37340    0.61090    1.000
    H27      H        0.12100    0.40490    0.61140    1.000
    C45      C        0.11429    0.34480    0.63800    1.000
    H28      H        0.10580    0.35700    0.65830    1.000
    C46      C        0.14754    0.38550    0.55310    1.000
    C47      C        0.16425    0.37390    0.53430    1.000
    H29      H        0.16950    0.34580    0.54230    1.000
    C48      C        0.17276    0.40030    0.50640    1.000
    H30      H        0.18360    0.38980    0.49370    1.000
    C49      C        0.16673    0.44310    0.49450    1.000
    C50      C        0.15070    0.45750    0.51340    1.000
    H31      H        0.14630    0.48690    0.50670    1.000
    C51      C        0.14095    0.42920    0.54220    1.000
    H32      H        0.12990    0.43930    0.55440    1.000
    N1       N        0.17605    0.47010    0.46390    1.000
    N2       N        0.08294    0.14108    0.63980    1.000
    N3       N        0.08697    0.00857    0.52700    1.000
    N4       N        0.06775    0.01650    0.47210    1.000
    N5       N        0.06621    0.05130    0.50130    1.000
    N6       N        0.10035    0.98910    0.55430    1.000
    H33      H        0.10340    0.00200    0.57970    1.000
    H34      H        0.10560    0.96390    0.54580    1.000
    N7       N        0.09799    0.87150    0.42180    1.000
    O1       O        0.09452    0.65327    0.23550    1.000
    O2       O        0.10817    0.71348    0.26500    1.000
    O3       O        0.09775    0.28696    0.69980    1.000
    O4       O        0.10563    0.22745    0.65740    1.000
    O5       O        0.31377    0.53271    0.43570    1.000
    O6       O        0.31670    0.49660    0.49900    1.000
    Zn1      Zn       0.08733    0.19071    0.68550    1.000
    Zn2      Zn       0.09303    0.27147    0.76790    1.000
    C52      C        0.12087    0.33710    0.80360    1.000
    C53      C        0.13223    0.36940    0.77730    1.000
    C54      C        0.13804    0.35670    0.73500    1.000
    H35      H        0.13490    0.32810    0.72280    1.000
    C55      C        0.14878    0.38700    0.71040    1.000
    H36      H        0.15280    0.37910    0.68110    1.000
    C56      C        0.15353    0.42810    0.72850    1.000
    C57      C        0.14833    0.44010    0.77090    1.000
    H37      H        0.15230    0.46780    0.78360    1.000
    C58      C        0.13693    0.41100    0.79610    1.000
    H38      H        0.13270    0.41960    0.82490    1.000
    C59      C        0.16456    0.46100    0.70160    1.000
    C60      C        0.16129    0.46660    0.65470    1.000
    H39      H        0.15220    0.44960    0.64010    1.000
    C61      C        0.17122    0.49620    0.63150    1.000
    H40      H        0.16900    0.50060    0.60040    1.000
    C62      C        0.18462    0.52050    0.65240    1.000
    C63      C        0.18843    0.51470    0.69660    1.000
    H41      H        0.19810    0.53080    0.70950    1.000
    C64      C        0.17868    0.48630    0.72300    1.000
    H42      H        0.18110    0.48330    0.75420    1.000
    C65      C        0.11905    0.76060    0.44320    1.000
    C66      C        0.13077    0.72990    0.47110    1.000
    C67      C        0.14728    0.72330    0.45790    1.000
    H43      H        0.15150    0.73660    0.43090    1.000
    C68      C        0.15908    0.69530    0.48550    1.000
    H44      H        0.17120    0.69200    0.47710    1.000
    C69      C        0.15321    0.67490    0.52110    1.000
    C70      C        0.13487    0.68050    0.53440    1.000
    H45      H        0.13030    0.66640    0.56070    1.000
    C71      C        0.12423    0.70710    0.50750    1.000
    H46      H        0.11190    0.70980    0.51450    1.000
    C72      C        0.16540    0.64420    0.54900    1.000
    C73      C        0.17929    0.62340    0.53160    1.000
    H47      H        0.18270    0.63100    0.50180    1.000
    C74      C        0.18929    0.59070    0.55410    1.000
    H48      H        0.19800    0.57290    0.53890    1.000
    C75      C        0.18601    0.58560    0.59870    1.000
    C76      C        0.17163    0.60970    0.61980    1.000
    H49      H        0.16920    0.60460    0.65070    1.000
    C77      C        0.16187    0.63840    0.59750    1.000
    H50      H        0.15270    0.65500    0.61200    1.000
    C78      C        0.32510    0.48310    0.60550    1.000
    C79      C        0.30561    0.49650    0.60830    1.000
    C80      C        0.29394    0.46820    0.63090    1.000
    H51      H        0.29810    0.44160    0.64530    1.000
    C81      C        0.27588    0.47970    0.63190    1.000
    H52      H        0.26770    0.46040    0.64700    1.000
    C82      C        0.26979    0.51730    0.61220    1.000
    C83      C        0.28120    0.54620    0.58980    1.000
    H53      H        0.27660    0.57260    0.57580    1.000
    C84      C        0.30027    0.53620    0.58770    1.000
    H54      H        0.30850    0.55570    0.57310    1.000
    C85      C        0.25016    0.52840    0.61390    1.000
    C86      C        0.23813    0.49260    0.62210    1.000
    H55      H        0.24250    0.46280    0.62640    1.000
    C87      C        0.22017    0.50070    0.62400    1.000
    H56      H        0.21210    0.47640    0.62850    1.000
    C88      C        0.21373    0.54480    0.61930    1.000
    C89      C        0.22505    0.57890    0.61170    1.000
    H57      H        0.22050    0.60870    0.60870    1.000
    C90      C        0.24397    0.57150    0.60810    1.000
    H58      H        0.25190    0.59570    0.60180    1.000
    N8       N        0.19508    0.55390    0.62520    1.000
    O7       O        0.33551    0.50433    0.58030    1.000
    O8       O        0.32948    0.45060    0.63080    1.000
    O9       O        0.11776    0.29896    0.78720    1.000
    O10      O        0.11601    0.35083    0.84100    1.000
    O11      O        0.12407    0.77708    0.40900    1.000
    O12      O        0.10249    0.76830    0.46060    1.000
    Zn3      Zn       0.10448    0.81473    0.38770    1.000
    C91      C        0.07520    0.41490    0.95620    1.000
    H59      H        0.06320    0.41840    0.96600    1.000
    C92      C        0.10807    0.40430    0.92880    1.000
    H60      H        0.12000    0.40150    0.91850    1.000
    C93      C        0.14418    0.06000    0.88340    1.000
    C94      C        0.07960    0.37280    0.93460    1.000
    H61      H        0.07140    0.34890    0.92960    1.000
    C95      C        0.20398    0.97660    0.00560    1.000
    H62      H        0.19770    0.97650    0.03330    1.000
    C96      C        0.08692    0.45140    0.96410    1.000
    C97      C        0.08029    0.49170    0.98840    1.000
    C98      C        0.16596    0.00200    0.93800    1.000
    C99      C        0.22262    0.97940    0.00300    1.000
    H63      H        0.22910    0.97980    0.03050    1.000
    C100     C        0.15926    0.07500    0.90580    1.000
    H64      H        0.16300    0.10540    0.90220    1.000
    C101     C        0.10346    0.44650    0.95100    1.000
    H65      H        0.11210    0.46950    0.95580    1.000
    C102     C        0.09194    0.60310    0.14110    1.000
    H66      H        0.10000    0.59840    0.16530    1.000
    C103     C        0.10531    0.17230    0.76310    1.000
    C104     C        0.11445    0.14230    0.79620    1.000
    C105     C        0.12135    0.15880    0.83550    1.000
    H67      H        0.11950    0.18960    0.84290    1.000
    C106     C        0.13068    0.13230    0.86390    1.000
    H68      H        0.13510    0.14510    0.89100    1.000
    C107     C        0.13405    0.08710    0.85500    1.000
    C108     C        0.12559    0.06940    0.81640    1.000
    H69      H        0.12660    0.03810    0.81000    1.000
    C109     C        0.11583    0.09680    0.78740    1.000
    H70      H        0.11020    0.08420    0.76170    1.000
    C110     C        0.07903    0.57790    0.07240    1.000
    C111     C        0.09031    0.57150    0.11050    1.000
    H71      H        0.09670    0.54400    0.11380    1.000
    C112     C        0.16915    0.04580    0.93390    1.000
    H72      H        0.17870    0.05830    0.95100    1.000
    C113     C        0.06980    0.61720    0.06980    1.000
    H73      H        0.06220    0.62350    0.04510    1.000
    C114     C        0.15047    0.98290    0.91390    1.000
    H74      H        0.14760    0.95160    0.91500    1.000
    C115     C        0.14078    0.01190    0.89060    1.000
    H75      H        0.13030    0.00000    0.87680    1.000
    C116     C        0.30874    0.01120    0.96630    1.000
    C117     C        0.28813    0.00100    0.96520    1.000
    C118     C        0.27799    0.01690    0.92930    1.000
    H76      H        0.28350    0.03330    0.90560    1.000
    C119     C        0.25991    0.00860    0.92850    1.000
    H77      H        0.25300    0.01790    0.90330    1.000
    C120     C        0.25151    0.98660    0.96460    1.000
    C121     C        0.26231    0.97160    0.99930    1.000
    H78      H        0.25670    0.95730    0.02420    1.000
    C122     C        0.27990    0.97580    0.00000    1.000
    H79      H        0.28680    0.96230    0.02320    1.000
    C123     C        0.23200    0.98140    0.96460    1.000
    C124     C        0.22173    0.98070    0.92440    1.000
    H80      H        0.22740    0.98220    0.89590    1.000
    C125     C        0.20393    0.97800    0.92730    1.000
    H81      H        0.19730    0.97890    0.90010    1.000
    C126     C        0.19530    0.97420    0.96420    1.000
    C127     C        0.07203    0.64870    0.10560    1.000
    H82      H        0.06550    0.67620    0.10490    1.000
    C128     C        0.07769    0.54640    0.03490    1.000
    C129     C        0.10548    0.76870    0.16730    1.000
    C130     C        0.11675    0.79920    0.13740    1.000
    C131     C        0.12946    0.78260    0.10870    1.000
    H83      H        0.13180    0.75100    0.10750    1.000
    C132     C        0.13856    0.81100    0.08250    1.000
    H84      H        0.14700    0.79810    0.06240    1.000
    C133     C        0.13691    0.85610    0.08170    1.000
    C134     C        0.12348    0.87340    0.11090    1.000
    H85      H        0.12100    0.90490    0.11140    1.000
    C135     C        0.11429    0.84480    0.13800    1.000
    H86      H        0.10580    0.85700    0.15830    1.000
    C136     C        0.14754    0.88550    0.05310    1.000
    C137     C        0.16425    0.87390    0.03430    1.000
    H87      H        0.16950    0.84580    0.04230    1.000
    C138     C        0.17276    0.90030    0.00640    1.000
    H88      H        0.18360    0.88980    0.99370    1.000
    C139     C        0.16673    0.94310    0.99450    1.000
    C140     C        0.15070    0.95750    0.01340    1.000
    H89      H        0.14630    0.98690    0.00670    1.000
    C141     C        0.14095    0.92920    0.04220    1.000
    H90      H        0.12990    0.93930    0.05440    1.000
    N9       N        0.17605    0.97010    0.96390    1.000
    N10      N        0.08294    0.64108    0.13980    1.000
    N11      N        0.08697    0.50857    0.02700    1.000
    N12      N        0.06775    0.51650    0.97210    1.000
    N13      N        0.06621    0.55130    0.00130    1.000
    N14      N        0.10035    0.48910    0.05430    1.000
    H91      H        0.10340    0.50200    0.07970    1.000
    H92      H        0.10560    0.46390    0.04580    1.000
    N15      N        0.09799    0.37150    0.92180    1.000
    O13      O        0.09452    0.15327    0.73550    1.000
    O14      O        0.10817    0.21348    0.76500    1.000
    O15      O        0.09775    0.78696    0.19980    1.000
    O16      O        0.10563    0.72745    0.15740    1.000
    O17      O        0.31377    0.03271    0.93570    1.000
    O18      O        0.31670    0.99660    0.99900    1.000
    Zn4      Zn       0.08733    0.69071    0.18550    1.000
    Zn5      Zn       0.09303    0.77147    0.26790    1.000
    C142     C        0.12087    0.83710    0.30360    1.000
    C143     C        0.13223    0.86940    0.27730    1.000
    C144     C        0.13804    0.85670    0.23500    1.000
    H93      H        0.13490    0.82810    0.22280    1.000
    C145     C        0.14878    0.88700    0.21040    1.000
    H94      H        0.15280    0.87910    0.18110    1.000
    C146     C        0.15353    0.92810    0.22850    1.000
    C147     C        0.14833    0.94010    0.27090    1.000
    H95      H        0.15230    0.96780    0.28360    1.000
    C148     C        0.13693    0.91100    0.29610    1.000
    H96      H        0.13270    0.91960    0.32490    1.000
    C149     C        0.16456    0.96100    0.20160    1.000
    C150     C        0.16129    0.96660    0.15470    1.000
    H97      H        0.15220    0.94960    0.14010    1.000
    C151     C        0.17122    0.99620    0.13150    1.000
    H98      H        0.16900    0.00060    0.10040    1.000
    C152     C        0.18462    0.02050    0.15240    1.000
    C153     C        0.18843    0.01470    0.19660    1.000
    H99      H        0.19810    0.03080    0.20950    1.000
    C154     C        0.17868    0.98630    0.22300    1.000
    H100     H        0.18110    0.98330    0.25420    1.000
    C155     C        0.11905    0.26060    0.94320    1.000
    C156     C        0.13077    0.22990    0.97110    1.000
    C157     C        0.14728    0.22330    0.95790    1.000
    H101     H        0.15150    0.23660    0.93090    1.000
    C158     C        0.15908    0.19530    0.98550    1.000
    H102     H        0.17120    0.19200    0.97710    1.000
    C159     C        0.15321    0.17490    0.02110    1.000
    C160     C        0.13487    0.18050    0.03440    1.000
    H103     H        0.13030    0.16640    0.06070    1.000
    C161     C        0.12423    0.20710    0.00750    1.000
    H104     H        0.11190    0.20980    0.01450    1.000
    C162     C        0.16540    0.14420    0.04900    1.000
    C163     C        0.17929    0.12340    0.03160    1.000
    H105     H        0.18270    0.13100    0.00180    1.000
    C164     C        0.18929    0.09070    0.05410    1.000
    H106     H        0.19800    0.07290    0.03890    1.000
    C165     C        0.18601    0.08560    0.09870    1.000
    C166     C        0.17163    0.10970    0.11980    1.000
    H107     H        0.16920    0.10460    0.15070    1.000
    C167     C        0.16187    0.13840    0.09750    1.000
    H108     H        0.15270    0.15500    0.11200    1.000
    C168     C        0.32510    0.98310    0.10550    1.000
    C169     C        0.30561    0.99650    0.10830    1.000
    C170     C        0.29394    0.96820    0.13090    1.000
    H109     H        0.29810    0.94160    0.14530    1.000
    C171     C        0.27588    0.97970    0.13190    1.000
    H110     H        0.26770    0.96040    0.14700    1.000
    C172     C        0.26979    0.01730    0.11220    1.000
    C173     C        0.28120    0.04620    0.08980    1.000
    H111     H        0.27660    0.07260    0.07580    1.000
    C174     C        0.30027    0.03620    0.08770    1.000
    H112     H        0.30850    0.05570    0.07310    1.000
    C175     C        0.25016    0.02840    0.11390    1.000
    C176     C        0.23813    0.99260    0.12210    1.000
    H113     H        0.24250    0.96280    0.12640    1.000
    C177     C        0.22017    0.00070    0.12400    1.000
    H114     H        0.21210    0.97640    0.12850    1.000
    C178     C        0.21373    0.04480    0.11930    1.000
    C179     C        0.22505    0.07890    0.11170    1.000
    H115     H        0.22050    0.10870    0.10870    1.000
    C180     C        0.24397    0.07150    0.10810    1.000
    H116     H        0.25190    0.09570    0.10180    1.000
    N16      N        0.19508    0.05390    0.12520    1.000
    O19      O        0.33551    0.00433    0.08030    1.000
    O20      O        0.32948    0.95060    0.13080    1.000
    O21      O        0.11776    0.79896    0.28720    1.000
    O22      O        0.11601    0.85083    0.34100    1.000
    O23      O        0.12407    0.27708    0.90900    1.000
    O24      O        0.10249    0.26830    0.96060    1.000
    Zn6      Zn       0.10448    0.31473    0.88770    1.000
    C181     C        0.57520    0.91490    0.95620    1.000
    H117     H        0.56320    0.91840    0.96600    1.000
    C182     C        0.60807    0.90430    0.92880    1.000
    H118     H        0.62000    0.90150    0.91850    1.000
    C183     C        0.64418    0.56000    0.88340    1.000
    C184     C        0.57960    0.87280    0.93460    1.000
    H119     H        0.57140    0.84890    0.92960    1.000
    C185     C        0.70398    0.47660    0.00560    1.000
    H120     H        0.69770    0.47650    0.03330    1.000
    C186     C        0.58692    0.95140    0.96410    1.000
    C187     C        0.58029    0.99170    0.98840    1.000
    C188     C        0.66596    0.50200    0.93800    1.000
    C189     C        0.72262    0.47940    0.00300    1.000
    H121     H        0.72910    0.47980    0.03050    1.000
    C190     C        0.65926    0.57500    0.90580    1.000
    H122     H        0.66300    0.60540    0.90220    1.000
    C191     C        0.60346    0.94650    0.95100    1.000
    H123     H        0.61210    0.96950    0.95580    1.000
    C192     C        0.59194    0.10310    0.14110    1.000
    H124     H        0.60000    0.09840    0.16530    1.000
    C193     C        0.60531    0.67230    0.76310    1.000
    C194     C        0.61445    0.64230    0.79620    1.000
    C195     C        0.62135    0.65880    0.83550    1.000
    H125     H        0.61950    0.68960    0.84290    1.000
    C196     C        0.63068    0.63230    0.86390    1.000
    H126     H        0.63510    0.64510    0.89100    1.000
    C197     C        0.63405    0.58710    0.85500    1.000
    C198     C        0.62559    0.56940    0.81640    1.000
    H127     H        0.62660    0.53810    0.81000    1.000
    C199     C        0.61583    0.59680    0.78740    1.000
    H128     H        0.61020    0.58420    0.76170    1.000
    C200     C        0.57903    0.07790    0.07240    1.000
    C201     C        0.59031    0.07150    0.11050    1.000
    H129     H        0.59670    0.04400    0.11380    1.000
    C202     C        0.66915    0.54580    0.93390    1.000
    H130     H        0.67870    0.55830    0.95100    1.000
    C203     C        0.56980    0.11720    0.06980    1.000
    H131     H        0.56220    0.12350    0.04510    1.000
    C204     C        0.65047    0.48290    0.91390    1.000
    H132     H        0.64760    0.45160    0.91500    1.000
    C205     C        0.64078    0.51190    0.89060    1.000
    H133     H        0.63030    0.50000    0.87680    1.000
    C206     C        0.80874    0.51120    0.96630    1.000
    C207     C        0.78813    0.50100    0.96520    1.000
    C208     C        0.77799    0.51690    0.92930    1.000
    H134     H        0.78350    0.53330    0.90560    1.000
    C209     C        0.75991    0.50860    0.92850    1.000
    H135     H        0.75300    0.51790    0.90330    1.000
    C210     C        0.75151    0.48660    0.96460    1.000
    C211     C        0.76231    0.47160    0.99930    1.000
    H136     H        0.75670    0.45730    0.02420    1.000
    C212     C        0.77990    0.47580    0.00000    1.000
    H137     H        0.78680    0.46230    0.02320    1.000
    C213     C        0.73200    0.48140    0.96460    1.000
    C214     C        0.72173    0.48070    0.92440    1.000
    H138     H        0.72740    0.48220    0.89590    1.000
    C215     C        0.70393    0.47800    0.92730    1.000
    H139     H        0.69730    0.47890    0.90010    1.000
    C216     C        0.69530    0.47420    0.96420    1.000
    C217     C        0.57203    0.14870    0.10560    1.000
    H140     H        0.56550    0.17620    0.10490    1.000
    C218     C        0.57769    0.04640    0.03490    1.000
    C219     C        0.60548    0.26870    0.16730    1.000
    C220     C        0.61675    0.29920    0.13740    1.000
    C221     C        0.62946    0.28260    0.10870    1.000
    H141     H        0.63180    0.25100    0.10750    1.000
    C222     C        0.63856    0.31100    0.08250    1.000
    H142     H        0.64700    0.29810    0.06240    1.000
    C223     C        0.63691    0.35610    0.08170    1.000
    C224     C        0.62348    0.37340    0.11090    1.000
    H143     H        0.62100    0.40490    0.11140    1.000
    C225     C        0.61429    0.34480    0.13800    1.000
    H144     H        0.60580    0.35700    0.15830    1.000
    C226     C        0.64754    0.38550    0.05310    1.000
    C227     C        0.66425    0.37390    0.03430    1.000
    H145     H        0.66950    0.34580    0.04230    1.000
    C228     C        0.67276    0.40030    0.00640    1.000
    H146     H        0.68360    0.38980    0.99370    1.000
    C229     C        0.66673    0.44310    0.99450    1.000
    C230     C        0.65070    0.45750    0.01340    1.000
    H147     H        0.64630    0.48690    0.00670    1.000
    C231     C        0.64095    0.42920    0.04220    1.000
    H148     H        0.62990    0.43930    0.05440    1.000
    N17      N        0.67605    0.47010    0.96390    1.000
    N18      N        0.58294    0.14108    0.13980    1.000
    N19      N        0.58697    0.00857    0.02700    1.000
    N20      N        0.56775    0.01650    0.97210    1.000
    N21      N        0.56621    0.05130    0.00130    1.000
    N22      N        0.60035    0.98910    0.05430    1.000
    H149     H        0.60340    0.00200    0.07970    1.000
    H150     H        0.60560    0.96390    0.04580    1.000
    N23      N        0.59799    0.87150    0.92180    1.000
    O25      O        0.59452    0.65327    0.73550    1.000
    O26      O        0.60817    0.71348    0.76500    1.000
    O27      O        0.59775    0.28696    0.19980    1.000
    O28      O        0.60563    0.22745    0.15740    1.000
    O29      O        0.81377    0.53271    0.93570    1.000
    O30      O        0.81670    0.49660    0.99900    1.000
    Zn7      Zn       0.58733    0.19071    0.18550    1.000
    Zn8      Zn       0.59303    0.27147    0.26790    1.000
    C232     C        0.62087    0.33710    0.30360    1.000
    C233     C        0.63223    0.36940    0.27730    1.000
    C234     C        0.63804    0.35670    0.23500    1.000
    H151     H        0.63490    0.32810    0.22280    1.000
    C235     C        0.64878    0.38700    0.21040    1.000
    H152     H        0.65280    0.37910    0.18110    1.000
    C236     C        0.65353    0.42810    0.22850    1.000
    C237     C        0.64833    0.44010    0.27090    1.000
    H153     H        0.65230    0.46780    0.28360    1.000
    C238     C        0.63693    0.41100    0.29610    1.000
    H154     H        0.63270    0.41960    0.32490    1.000
    C239     C        0.66456    0.46100    0.20160    1.000
    C240     C        0.66129    0.46660    0.15470    1.000
    H155     H        0.65220    0.44960    0.14010    1.000
    C241     C        0.67122    0.49620    0.13150    1.000
    H156     H        0.66900    0.50060    0.10040    1.000
    C242     C        0.68462    0.52050    0.15240    1.000
    C243     C        0.68843    0.51470    0.19660    1.000
    H157     H        0.69810    0.53080    0.20950    1.000
    C244     C        0.67868    0.48630    0.22300    1.000
    H158     H        0.68110    0.48330    0.25420    1.000
    C245     C        0.61905    0.76060    0.94320    1.000
    C246     C        0.63077    0.72990    0.97110    1.000
    C247     C        0.64728    0.72330    0.95790    1.000
    H159     H        0.65150    0.73660    0.93090    1.000
    C248     C        0.65908    0.69530    0.98550    1.000
    H160     H        0.67120    0.69200    0.97710    1.000
    C249     C        0.65321    0.67490    0.02110    1.000
    C250     C        0.63487    0.68050    0.03440    1.000
    H161     H        0.63030    0.66640    0.06070    1.000
    C251     C        0.62423    0.70710    0.00750    1.000
    H162     H        0.61190    0.70980    0.01450    1.000
    C252     C        0.66540    0.64420    0.04900    1.000
    C253     C        0.67929    0.62340    0.03160    1.000
    H163     H        0.68270    0.63100    0.00180    1.000
    C254     C        0.68929    0.59070    0.05410    1.000
    H164     H        0.69800    0.57290    0.03890    1.000
    C255     C        0.68601    0.58560    0.09870    1.000
    C256     C        0.67163    0.60970    0.11980    1.000
    H165     H        0.66920    0.60460    0.15070    1.000
    C257     C        0.66187    0.63840    0.09750    1.000
    H166     H        0.65270    0.65500    0.11200    1.000
    C258     C        0.82510    0.48310    0.10550    1.000
    C259     C        0.80561    0.49650    0.10830    1.000
    C260     C        0.79394    0.46820    0.13090    1.000
    H167     H        0.79810    0.44160    0.14530    1.000
    C261     C        0.77588    0.47970    0.13190    1.000
    H168     H        0.76770    0.46040    0.14700    1.000
    C262     C        0.76979    0.51730    0.11220    1.000
    C263     C        0.78120    0.54620    0.08980    1.000
    H169     H        0.77660    0.57260    0.07580    1.000
    C264     C        0.80027    0.53620    0.08770    1.000
    H170     H        0.80850    0.55570    0.07310    1.000
    C265     C        0.75016    0.52840    0.11390    1.000
    C266     C        0.73813    0.49260    0.12210    1.000
    H171     H        0.74250    0.46280    0.12640    1.000
    C267     C        0.72017    0.50070    0.12400    1.000
    H172     H        0.71210    0.47640    0.12850    1.000
    C268     C        0.71373    0.54480    0.11930    1.000
    C269     C        0.72505    0.57890    0.11170    1.000
    H173     H        0.72050    0.60870    0.10870    1.000
    C270     C        0.74397    0.57150    0.10810    1.000
    H174     H        0.75190    0.59570    0.10180    1.000
    N24      N        0.69508    0.55390    0.12520    1.000
    O31      O        0.83551    0.50433    0.08030    1.000
    O32      O        0.82948    0.45060    0.13080    1.000
    O33      O        0.61776    0.29896    0.28720    1.000
    O34      O        0.61601    0.35083    0.34100    1.000
    O35      O        0.62407    0.77708    0.90900    1.000
    O36      O        0.60249    0.76830    0.96060    1.000
    Zn9      Zn       0.60448    0.81473    0.88770    1.000
    C271     C        0.57520    0.41490    0.45620    1.000
    H175     H        0.56320    0.41840    0.46600    1.000
    C272     C        0.60807    0.40430    0.42880    1.000
    H176     H        0.62000    0.40150    0.41850    1.000
    C273     C        0.64418    0.06000    0.38340    1.000
    C274     C        0.57960    0.37280    0.43460    1.000
    H177     H        0.57140    0.34890    0.42960    1.000
    C275     C        0.70398    0.97660    0.50560    1.000
    H178     H        0.69770    0.97650    0.53330    1.000
    C276     C        0.58692    0.45140    0.46410    1.000
    C277     C        0.58029    0.49170    0.48840    1.000
    C278     C        0.66596    0.00200    0.43800    1.000
    C279     C        0.72262    0.97940    0.50300    1.000
    H179     H        0.72910    0.97980    0.53050    1.000
    C280     C        0.65926    0.07500    0.40580    1.000
    H180     H        0.66300    0.10540    0.40220    1.000
    C281     C        0.60346    0.44650    0.45100    1.000
    H181     H        0.61210    0.46950    0.45580    1.000
    C282     C        0.59194    0.60310    0.64110    1.000
    H182     H        0.60000    0.59840    0.66530    1.000
    C283     C        0.60531    0.17230    0.26310    1.000
    C284     C        0.61445    0.14230    0.29620    1.000
    C285     C        0.62135    0.15880    0.33550    1.000
    H183     H        0.61950    0.18960    0.34290    1.000
    C286     C        0.63068    0.13230    0.36390    1.000
    H184     H        0.63510    0.14510    0.39100    1.000
    C287     C        0.63405    0.08710    0.35500    1.000
    C288     C        0.62559    0.06940    0.31640    1.000
    H185     H        0.62660    0.03810    0.31000    1.000
    C289     C        0.61583    0.09680    0.28740    1.000
    H186     H        0.61020    0.08420    0.26170    1.000
    C290     C        0.57903    0.57790    0.57240    1.000
    C291     C        0.59031    0.57150    0.61050    1.000
    H187     H        0.59670    0.54400    0.61380    1.000
    C292     C        0.66915    0.04580    0.43390    1.000
    H188     H        0.67870    0.05830    0.45100    1.000
    C293     C        0.56980    0.61720    0.56980    1.000
    H189     H        0.56220    0.62350    0.54510    1.000
    C294     C        0.65047    0.98290    0.41390    1.000
    H190     H        0.64760    0.95160    0.41500    1.000
    C295     C        0.64078    0.01190    0.39060    1.000
    H191     H        0.63030    0.00000    0.37680    1.000
    C296     C        0.80874    0.01120    0.46630    1.000
    C297     C        0.78813    0.00100    0.46520    1.000
    C298     C        0.77799    0.01690    0.42930    1.000
    H192     H        0.78350    0.03330    0.40560    1.000
    C299     C        0.75991    0.00860    0.42850    1.000
    H193     H        0.75300    0.01790    0.40330    1.000
    C300     C        0.75151    0.98660    0.46460    1.000
    C301     C        0.76231    0.97160    0.49930    1.000
    H194     H        0.75670    0.95730    0.52420    1.000
    C302     C        0.77990    0.97580    0.50000    1.000
    H195     H        0.78680    0.96230    0.52320    1.000
    C303     C        0.73200    0.98140    0.46460    1.000
    C304     C        0.72173    0.98070    0.42440    1.000
    H196     H        0.72740    0.98220    0.39590    1.000
    C305     C        0.70393    0.97800    0.42730    1.000
    H197     H        0.69730    0.97890    0.40010    1.000
    C306     C        0.69530    0.97420    0.46420    1.000
    C307     C        0.57203    0.64870    0.60560    1.000
    H198     H        0.56550    0.67620    0.60490    1.000
    C308     C        0.57769    0.54640    0.53490    1.000
    C309     C        0.60548    0.76870    0.66730    1.000
    C310     C        0.61675    0.79920    0.63740    1.000
    C311     C        0.62946    0.78260    0.60870    1.000
    H199     H        0.63180    0.75100    0.60750    1.000
    C312     C        0.63856    0.81100    0.58250    1.000
    H200     H        0.64700    0.79810    0.56240    1.000
    C313     C        0.63691    0.85610    0.58170    1.000
    C314     C        0.62348    0.87340    0.61090    1.000
    H201     H        0.62100    0.90490    0.61140    1.000
    C315     C        0.61429    0.84480    0.63800    1.000
    H202     H        0.60580    0.85700    0.65830    1.000
    C316     C        0.64754    0.88550    0.55310    1.000
    C317     C        0.66425    0.87390    0.53430    1.000
    H203     H        0.66950    0.84580    0.54230    1.000
    C318     C        0.67276    0.90030    0.50640    1.000
    H204     H        0.68360    0.88980    0.49370    1.000
    C319     C        0.66673    0.94310    0.49450    1.000
    C320     C        0.65070    0.95750    0.51340    1.000
    H205     H        0.64630    0.98690    0.50670    1.000
    C321     C        0.64095    0.92920    0.54220    1.000
    H206     H        0.62990    0.93930    0.55440    1.000
    N25      N        0.67605    0.97010    0.46390    1.000
    N26      N        0.58294    0.64108    0.63980    1.000
    N27      N        0.58697    0.50857    0.52700    1.000
    N28      N        0.56775    0.51650    0.47210    1.000
    N29      N        0.56621    0.55130    0.50130    1.000
    N30      N        0.60035    0.48910    0.55430    1.000
    H207     H        0.60340    0.50200    0.57970    1.000
    H208     H        0.60560    0.46390    0.54580    1.000
    N31      N        0.59799    0.37150    0.42180    1.000
    O37      O        0.59452    0.15327    0.23550    1.000
    O38      O        0.60817    0.21348    0.26500    1.000
    O39      O        0.59775    0.78696    0.69980    1.000
    O40      O        0.60563    0.72745    0.65740    1.000
    O41      O        0.81377    0.03271    0.43570    1.000
    O42      O        0.81670    0.99660    0.49900    1.000
    Zn10     Zn       0.58733    0.69071    0.68550    1.000
    Zn11     Zn       0.59303    0.77147    0.76790    1.000
    C322     C        0.62087    0.83710    0.80360    1.000
    C323     C        0.63223    0.86940    0.77730    1.000
    C324     C        0.63804    0.85670    0.73500    1.000
    H209     H        0.63490    0.82810    0.72280    1.000
    C325     C        0.64878    0.88700    0.71040    1.000
    H210     H        0.65280    0.87910    0.68110    1.000
    C326     C        0.65353    0.92810    0.72850    1.000
    C327     C        0.64833    0.94010    0.77090    1.000
    H211     H        0.65230    0.96780    0.78360    1.000
    C328     C        0.63693    0.91100    0.79610    1.000
    H212     H        0.63270    0.91960    0.82490    1.000
    C329     C        0.66456    0.96100    0.70160    1.000
    C330     C        0.66129    0.96660    0.65470    1.000
    H213     H        0.65220    0.94960    0.64010    1.000
    C331     C        0.67122    0.99620    0.63150    1.000
    H214     H        0.66900    0.00060    0.60040    1.000
    C332     C        0.68462    0.02050    0.65240    1.000
    C333     C        0.68843    0.01470    0.69660    1.000
    H215     H        0.69810    0.03080    0.70950    1.000
    C334     C        0.67868    0.98630    0.72300    1.000
    H216     H        0.68110    0.98330    0.75420    1.000
    C335     C        0.61905    0.26060    0.44320    1.000
    C336     C        0.63077    0.22990    0.47110    1.000
    C337     C        0.64728    0.22330    0.45790    1.000
    H217     H        0.65150    0.23660    0.43090    1.000
    C338     C        0.65908    0.19530    0.48550    1.000
    H218     H        0.67120    0.19200    0.47710    1.000
    C339     C        0.65321    0.17490    0.52110    1.000
    C340     C        0.63487    0.18050    0.53440    1.000
    H219     H        0.63030    0.16640    0.56070    1.000
    C341     C        0.62423    0.20710    0.50750    1.000
    H220     H        0.61190    0.20980    0.51450    1.000
    C342     C        0.66540    0.14420    0.54900    1.000
    C343     C        0.67929    0.12340    0.53160    1.000
    H221     H        0.68270    0.13100    0.50180    1.000
    C344     C        0.68929    0.09070    0.55410    1.000
    H222     H        0.69800    0.07290    0.53890    1.000
    C345     C        0.68601    0.08560    0.59870    1.000
    C346     C        0.67163    0.10970    0.61980    1.000
    H223     H        0.66920    0.10460    0.65070    1.000
    C347     C        0.66187    0.13840    0.59750    1.000
    H224     H        0.65270    0.15500    0.61200    1.000
    C348     C        0.82510    0.98310    0.60550    1.000
    C349     C        0.80561    0.99650    0.60830    1.000
    C350     C        0.79394    0.96820    0.63090    1.000
    H225     H        0.79810    0.94160    0.64530    1.000
    C351     C        0.77588    0.97970    0.63190    1.000
    H226     H        0.76770    0.96040    0.64700    1.000
    C352     C        0.76979    0.01730    0.61220    1.000
    C353     C        0.78120    0.04620    0.58980    1.000
    H227     H        0.77660    0.07260    0.57580    1.000
    C354     C        0.80027    0.03620    0.58770    1.000
    H228     H        0.80850    0.05570    0.57310    1.000
    C355     C        0.75016    0.02840    0.61390    1.000
    C356     C        0.73813    0.99260    0.62210    1.000
    H229     H        0.74250    0.96280    0.62640    1.000
    C357     C        0.72017    0.00070    0.62400    1.000
    H230     H        0.71210    0.97640    0.62850    1.000
    C358     C        0.71373    0.04480    0.61930    1.000
    C359     C        0.72505    0.07890    0.61170    1.000
    H231     H        0.72050    0.10870    0.60870    1.000
    C360     C        0.74397    0.07150    0.60810    1.000
    H232     H        0.75190    0.09570    0.60180    1.000
    N32      N        0.69508    0.05390    0.62520    1.000
    O43      O        0.83551    0.00433    0.58030    1.000
    O44      O        0.82948    0.95060    0.63080    1.000
    O45      O        0.61776    0.79896    0.78720    1.000
    O46      O        0.61601    0.85083    0.84100    1.000
    O47      O        0.62407    0.27708    0.40900    1.000
    O48      O        0.60249    0.26830    0.46060    1.000
    Zn12     Zn       0.60448    0.31473    0.38770    1.000
    C361     C        0.32520    0.33510    0.70620    1.000
    H233     H        0.31320    0.33160    0.71600    1.000
    C362     C        0.35807    0.34570    0.67880    1.000
    H234     H        0.37000    0.34850    0.66850    1.000
    C363     C        0.39418    0.69000    0.63340    1.000
    C364     C        0.32960    0.37720    0.68460    1.000
    H235     H        0.32140    0.40110    0.67960    1.000
    C365     C        0.45398    0.77340    0.75560    1.000
    H236     H        0.44770    0.77350    0.78330    1.000
    C366     C        0.33692    0.29860    0.71410    1.000
    C367     C        0.33029    0.25830    0.73840    1.000
    C368     C        0.41596    0.74800    0.68800    1.000
    C369     C        0.47262    0.77060    0.75300    1.000
    H237     H        0.47910    0.77020    0.78050    1.000
    C370     C        0.40926    0.67500    0.65580    1.000
    H238     H        0.41300    0.64460    0.65220    1.000
    C371     C        0.35346    0.30350    0.70100    1.000
    H239     H        0.36210    0.28050    0.70580    1.000
    C372     C        0.34194    0.14690    0.89110    1.000
    H240     H        0.35000    0.15160    0.91530    1.000
    C373     C        0.35531    0.57770    0.51310    1.000
    C374     C        0.36445    0.60770    0.54620    1.000
    C375     C        0.37135    0.59120    0.58550    1.000
    H241     H        0.36950    0.56040    0.59290    1.000
    C376     C        0.38068    0.61770    0.61390    1.000
    H242     H        0.38510    0.60490    0.64100    1.000
    C377     C        0.38405    0.66290    0.60500    1.000
    C378     C        0.37559    0.68060    0.56640    1.000
    H243     H        0.37660    0.71190    0.56000    1.000
    C379     C        0.36583    0.65320    0.53740    1.000
    H244     H        0.36020    0.66580    0.51170    1.000
    C380     C        0.32903    0.17210    0.82240    1.000
    C381     C        0.34031    0.17850    0.86050    1.000
    H245     H        0.34670    0.20600    0.86380    1.000
    C382     C        0.41915    0.70420    0.68390    1.000
    H246     H        0.42870    0.69170    0.70100    1.000
    C383     C        0.31980    0.13280    0.81980    1.000
    H247     H        0.31220    0.12650    0.79510    1.000
    C384     C        0.40047    0.76710    0.66390    1.000
    H248     H        0.39760    0.79840    0.66500    1.000
    C385     C        0.39078    0.73810    0.64060    1.000
    H249     H        0.38030    0.75000    0.62680    1.000
    C386     C        0.55874    0.73880    0.71630    1.000
    C387     C        0.53813    0.74900    0.71520    1.000
    C388     C        0.52799    0.73310    0.67930    1.000
    H250     H        0.53350    0.71670    0.65560    1.000
    C389     C        0.50991    0.74140    0.67850    1.000
    H251     H        0.50300    0.73210    0.65330    1.000
    C390     C        0.50151    0.76340    0.71460    1.000
    C391     C        0.51231    0.77840    0.74930    1.000
    H252     H        0.50670    0.79270    0.77420    1.000
    C392     C        0.52990    0.77420    0.75000    1.000
    H253     H        0.53680    0.78770    0.77320    1.000
    C393     C        0.48200    0.76860    0.71460    1.000
    C394     C        0.47173    0.76930    0.67440    1.000
    H254     H        0.47740    0.76780    0.64590    1.000
    C395     C        0.45393    0.77200    0.67730    1.000
    H255     H        0.44730    0.77110    0.65010    1.000
    C396     C        0.44530    0.77580    0.71420    1.000
    C397     C        0.32203    0.10130    0.85560    1.000
    H256     H        0.31550    0.07380    0.85490    1.000
    C398     C        0.32769    0.20360    0.78490    1.000
    C399     C        0.35548    0.98130    0.91730    1.000
    C400     C        0.36675    0.95080    0.88740    1.000
    C401     C        0.37946    0.96740    0.85870    1.000
    H257     H        0.38180    0.99900    0.85750    1.000
    C402     C        0.38856    0.93900    0.83250    1.000
    H258     H        0.39700    0.95190    0.81240    1.000
    C403     C        0.38691    0.89390    0.83170    1.000
    C404     C        0.37348    0.87660    0.86090    1.000
    H259     H        0.37100    0.84510    0.86140    1.000
    C405     C        0.36429    0.90520    0.88800    1.000
    H260     H        0.35580    0.89300    0.90830    1.000
    C406     C        0.39754    0.86450    0.80310    1.000
    C407     C        0.41425    0.87610    0.78430    1.000
    H261     H        0.41950    0.90420    0.79230    1.000
    C408     C        0.42276    0.84970    0.75640    1.000
    H262     H        0.43360    0.86020    0.74370    1.000
    C409     C        0.41673    0.80690    0.74450    1.000
    C410     C        0.40070    0.79250    0.76340    1.000
    H263     H        0.39630    0.76310    0.75670    1.000
    C411     C        0.39095    0.82080    0.79220    1.000
    H264     H        0.37990    0.81070    0.80440    1.000
    N33      N        0.42605    0.77990    0.71390    1.000
    N34      N        0.33294    0.10892    0.88980    1.000
    N35      N        0.33697    0.24143    0.77700    1.000
    N36      N        0.31775    0.23350    0.72210    1.000
    N37      N        0.31621    0.19870    0.75130    1.000
    N38      N        0.35035    0.26090    0.80430    1.000
    H265     H        0.35340    0.24800    0.82970    1.000
    H266     H        0.35560    0.28610    0.79580    1.000
    N39      N        0.34799    0.37850    0.67180    1.000
    O49      O        0.34452    0.59673    0.48550    1.000
    O50      O        0.35817    0.53652    0.51500    1.000
    O51      O        0.34775    0.96304    0.94980    1.000
    O52      O        0.35563    0.02255    0.90740    1.000
    O53      O        0.56377    0.71729    0.68570    1.000
    O54      O        0.56670    0.75340    0.74900    1.000
    Zn13     Zn       0.33733    0.05929    0.93550    1.000
    Zn14     Zn       0.34303    0.97853    0.01790    1.000
    C412     C        0.37087    0.91290    0.05360    1.000
    C413     C        0.38223    0.88060    0.02730    1.000
    C414     C        0.38804    0.89330    0.98500    1.000
    H267     H        0.38490    0.92190    0.97280    1.000
    C415     C        0.39878    0.86300    0.96040    1.000
    H268     H        0.40280    0.87090    0.93110    1.000
    C416     C        0.40353    0.82190    0.97850    1.000
    C417     C        0.39833    0.80990    0.02090    1.000
    H269     H        0.40230    0.78220    0.03360    1.000
    C418     C        0.38693    0.83900    0.04610    1.000
    H270     H        0.38270    0.83040    0.07490    1.000
    C419     C        0.41456    0.78900    0.95160    1.000
    C420     C        0.41129    0.78340    0.90470    1.000
    H271     H        0.40220    0.80040    0.89010    1.000
    C421     C        0.42122    0.75380    0.88150    1.000
    H272     H        0.41900    0.74940    0.85040    1.000
    C422     C        0.43462    0.72950    0.90240    1.000
    C423     C        0.43843    0.73530    0.94660    1.000
    H273     H        0.44810    0.71920    0.95950    1.000
    C424     C        0.42868    0.76370    0.97300    1.000
    H274     H        0.43110    0.76670    0.00420    1.000
    C425     C        0.36905    0.48940    0.69320    1.000
    C426     C        0.38077    0.52010    0.72110    1.000
    C427     C        0.39728    0.52670    0.70790    1.000
    H275     H        0.40150    0.51340    0.68090    1.000
    C428     C        0.40908    0.55470    0.73550    1.000
    H276     H        0.42120    0.55800    0.72710    1.000
    C429     C        0.40321    0.57510    0.77110    1.000
    C430     C        0.38487    0.56950    0.78440    1.000
    H277     H        0.38030    0.58360    0.81070    1.000
    C431     C        0.37423    0.54290    0.75750    1.000
    H278     H        0.36190    0.54020    0.76450    1.000
    C432     C        0.41540    0.60580    0.79900    1.000
    C433     C        0.42929    0.62660    0.78160    1.000
    H279     H        0.43270    0.61900    0.75180    1.000
    C434     C        0.43929    0.65930    0.80410    1.000
    H280     H        0.44800    0.67710    0.78890    1.000
    C435     C        0.43601    0.66440    0.84870    1.000
    C436     C        0.42163    0.64030    0.86980    1.000
    H281     H        0.41920    0.64540    0.90070    1.000
    C437     C        0.41187    0.61160    0.84750    1.000
    H282     H        0.40270    0.59500    0.86200    1.000
    C438     C        0.57510    0.76690    0.85550    1.000
    C439     C        0.55561    0.75350    0.85830    1.000
    C440     C        0.54394    0.78180    0.88090    1.000
    H283     H        0.54810    0.80840    0.89530    1.000
    C441     C        0.52588    0.77030    0.88190    1.000
    H284     H        0.51770    0.78960    0.89700    1.000
    C442     C        0.51979    0.73270    0.86220    1.000
    C443     C        0.53120    0.70380    0.83980    1.000
    H285     H        0.52660    0.67740    0.82580    1.000
    C444     C        0.55027    0.71380    0.83770    1.000
    H286     H        0.55850    0.69430    0.82310    1.000
    C445     C        0.50016    0.72160    0.86390    1.000
    C446     C        0.48813    0.75740    0.87210    1.000
    H287     H        0.49250    0.78720    0.87640    1.000
    C447     C        0.47017    0.74930    0.87400    1.000
    H288     H        0.46210    0.77360    0.87850    1.000
    C448     C        0.46373    0.70520    0.86930    1.000
    C449     C        0.47505    0.67110    0.86170    1.000
    H289     H        0.47050    0.64130    0.85870    1.000
    C450     C        0.49397    0.67850    0.85810    1.000
    H290     H        0.50190    0.65430    0.85180    1.000
    N40      N        0.44508    0.69610    0.87520    1.000
    O55      O        0.58551    0.74567    0.83030    1.000
    O56      O        0.57948    0.79940    0.88080    1.000
    O57      O        0.36776    0.95104    0.03720    1.000
    O58      O        0.36601    0.89917    0.09100    1.000
    O59      O        0.37407    0.47292    0.65900    1.000
    O60      O        0.35249    0.48170    0.71060    1.000
    Zn15     Zn       0.35448    0.43527    0.63770    1.000
    C451     C        0.32520    0.83510    0.20620    1.000
    H291     H        0.31320    0.83160    0.21600    1.000
    C452     C        0.35807    0.84570    0.17880    1.000
    H292     H        0.37000    0.84850    0.16850    1.000
    C453     C        0.39418    0.19000    0.13340    1.000
    C454     C        0.32960    0.87720    0.18460    1.000
    H293     H        0.32140    0.90110    0.17960    1.000
    C455     C        0.45398    0.27340    0.25560    1.000
    H294     H        0.44770    0.27350    0.28330    1.000
    C456     C        0.33692    0.79860    0.21410    1.000
    C457     C        0.33029    0.75830    0.23840    1.000
    C458     C        0.41596    0.24800    0.18800    1.000
    C459     C        0.47262    0.27060    0.25300    1.000
    H295     H        0.47910    0.27020    0.28050    1.000
    C460     C        0.40926    0.17500    0.15580    1.000
    H296     H        0.41300    0.14460    0.15220    1.000
    C461     C        0.35346    0.80350    0.20100    1.000
    H297     H        0.36210    0.78050    0.20580    1.000
    C462     C        0.34194    0.64690    0.39110    1.000
    H298     H        0.35000    0.65160    0.41530    1.000
    C463     C        0.35531    0.07770    0.01310    1.000
    C464     C        0.36445    0.10770    0.04620    1.000
    C465     C        0.37135    0.09120    0.08550    1.000
    H299     H        0.36950    0.06040    0.09290    1.000
    C466     C        0.38068    0.11770    0.11390    1.000
    H300     H        0.38510    0.10490    0.14100    1.000
    C467     C        0.38405    0.16290    0.10500    1.000
    C468     C        0.37559    0.18060    0.06640    1.000
    H301     H        0.37660    0.21190    0.06000    1.000
    C469     C        0.36583    0.15320    0.03740    1.000
    H302     H        0.36020    0.16580    0.01170    1.000
    C470     C        0.32903    0.67210    0.32240    1.000
    C471     C        0.34031    0.67850    0.36050    1.000
    H303     H        0.34670    0.70600    0.36380    1.000
    C472     C        0.41915    0.20420    0.18390    1.000
    H304     H        0.42870    0.19170    0.20100    1.000
    C473     C        0.31980    0.63280    0.31980    1.000
    H305     H        0.31220    0.62650    0.29510    1.000
    C474     C        0.40047    0.26710    0.16390    1.000
    H306     H        0.39760    0.29840    0.16500    1.000
    C475     C        0.39078    0.23810    0.14060    1.000
    H307     H        0.38030    0.25000    0.12680    1.000
    C476     C        0.55874    0.23880    0.21630    1.000
    C477     C        0.53813    0.24900    0.21520    1.000
    C478     C        0.52799    0.23310    0.17930    1.000
    H308     H        0.53350    0.21670    0.15560    1.000
    C479     C        0.50991    0.24140    0.17850    1.000
    H309     H        0.50300    0.23210    0.15330    1.000
    C480     C        0.50151    0.26340    0.21460    1.000
    C481     C        0.51231    0.27840    0.24930    1.000
    H310     H        0.50670    0.29270    0.27420    1.000
    C482     C        0.52990    0.27420    0.25000    1.000
    H311     H        0.53680    0.28770    0.27320    1.000
    C483     C        0.48200    0.26860    0.21460    1.000
    C484     C        0.47173    0.26930    0.17440    1.000
    H312     H        0.47740    0.26780    0.14590    1.000
    C485     C        0.45393    0.27200    0.17730    1.000
    H313     H        0.44730    0.27110    0.15010    1.000
    C486     C        0.44530    0.27580    0.21420    1.000
    C487     C        0.32203    0.60130    0.35560    1.000
    H314     H        0.31550    0.57380    0.35490    1.000
    C488     C        0.32769    0.70360    0.28490    1.000
    C489     C        0.35548    0.48130    0.41730    1.000
    C490     C        0.36675    0.45080    0.38740    1.000
    C491     C        0.37946    0.46740    0.35870    1.000
    H315     H        0.38180    0.49900    0.35750    1.000
    C492     C        0.38856    0.43900    0.33250    1.000
    H316     H        0.39700    0.45190    0.31240    1.000
    C493     C        0.38691    0.39390    0.33170    1.000
    C494     C        0.37348    0.37660    0.36090    1.000
    H317     H        0.37100    0.34510    0.36140    1.000
    C495     C        0.36429    0.40520    0.38800    1.000
    H318     H        0.35580    0.39300    0.40830    1.000
    C496     C        0.39754    0.36450    0.30310    1.000
    C497     C        0.41425    0.37610    0.28430    1.000
    H319     H        0.41950    0.40420    0.29230    1.000
    C498     C        0.42276    0.34970    0.25640    1.000
    H320     H        0.43360    0.36020    0.24370    1.000
    C499     C        0.41673    0.30690    0.24450    1.000
    C500     C        0.40070    0.29250    0.26340    1.000
    H321     H        0.39630    0.26310    0.25670    1.000
    C501     C        0.39095    0.32080    0.29220    1.000
    H322     H        0.37990    0.31070    0.30440    1.000
    N41      N        0.42605    0.27990    0.21390    1.000
    N42      N        0.33294    0.60892    0.38980    1.000
    N43      N        0.33697    0.74143    0.27700    1.000
    N44      N        0.31775    0.73350    0.22210    1.000
    N45      N        0.31621    0.69870    0.25130    1.000
    N46      N        0.35035    0.76090    0.30430    1.000
    H323     H        0.35340    0.74800    0.32970    1.000
    H324     H        0.35560    0.78610    0.29580    1.000
    N47      N        0.34799    0.87850    0.17180    1.000
    O61      O        0.34452    0.09673    0.98550    1.000
    O62      O        0.35817    0.03652    0.01500    1.000
    O63      O        0.34775    0.46304    0.44980    1.000
    O64      O        0.35563    0.52255    0.40740    1.000
    O65      O        0.56377    0.21729    0.18570    1.000
    O66      O        0.56670    0.25340    0.24900    1.000
    Zn16     Zn       0.33733    0.55929    0.43550    1.000
    Zn17     Zn       0.34303    0.47853    0.51790    1.000
    C502     C        0.37087    0.41290    0.55360    1.000
    C503     C        0.38223    0.38060    0.52730    1.000
    C504     C        0.38804    0.39330    0.48500    1.000
    H325     H        0.38490    0.42190    0.47280    1.000
    C505     C        0.39878    0.36300    0.46040    1.000
    H326     H        0.40280    0.37090    0.43110    1.000
    C506     C        0.40353    0.32190    0.47850    1.000
    C507     C        0.39833    0.30990    0.52090    1.000
    H327     H        0.40230    0.28220    0.53360    1.000
    C508     C        0.38693    0.33900    0.54610    1.000
    H328     H        0.38270    0.33040    0.57490    1.000
    C509     C        0.41456    0.28900    0.45160    1.000
    C510     C        0.41129    0.28340    0.40470    1.000
    H329     H        0.40220    0.30040    0.39010    1.000
    C511     C        0.42122    0.25380    0.38150    1.000
    H330     H        0.41900    0.24940    0.35040    1.000
    C512     C        0.43462    0.22950    0.40240    1.000
    C513     C        0.43843    0.23530    0.44660    1.000
    H331     H        0.44810    0.21920    0.45950    1.000
    C514     C        0.42868    0.26370    0.47300    1.000
    H332     H        0.43110    0.26670    0.50420    1.000
    C515     C        0.36905    0.98940    0.19320    1.000
    C516     C        0.38077    0.02010    0.22110    1.000
    C517     C        0.39728    0.02670    0.20790    1.000
    H333     H        0.40150    0.01340    0.18090    1.000
    C518     C        0.40908    0.05470    0.23550    1.000
    H334     H        0.42120    0.05800    0.22710    1.000
    C519     C        0.40321    0.07510    0.27110    1.000
    C520     C        0.38487    0.06950    0.28440    1.000
    H335     H        0.38030    0.08360    0.31070    1.000
    C521     C        0.37423    0.04290    0.25750    1.000
    H336     H        0.36190    0.04020    0.26450    1.000
    C522     C        0.41540    0.10580    0.29900    1.000
    C523     C        0.42929    0.12660    0.28160    1.000
    H337     H        0.43270    0.11900    0.25180    1.000
    C524     C        0.43929    0.15930    0.30410    1.000
    H338     H        0.44800    0.17710    0.28890    1.000
    C525     C        0.43601    0.16440    0.34870    1.000
    C526     C        0.42163    0.14030    0.36980    1.000
    H339     H        0.41920    0.14540    0.40070    1.000
    C527     C        0.41187    0.11160    0.34750    1.000
    H340     H        0.40270    0.09500    0.36200    1.000
    C528     C        0.57510    0.26690    0.35550    1.000
    C529     C        0.55561    0.25350    0.35830    1.000
    C530     C        0.54394    0.28180    0.38090    1.000
    H341     H        0.54810    0.30840    0.39530    1.000
    C531     C        0.52588    0.27030    0.38190    1.000
    H342     H        0.51770    0.28960    0.39700    1.000
    C532     C        0.51979    0.23270    0.36220    1.000
    C533     C        0.53120    0.20380    0.33980    1.000
    H343     H        0.52660    0.17740    0.32580    1.000
    C534     C        0.55027    0.21380    0.33770    1.000
    H344     H        0.55850    0.19430    0.32310    1.000
    C535     C        0.50016    0.22160    0.36390    1.000
    C536     C        0.48813    0.25740    0.37210    1.000
    H345     H        0.49250    0.28720    0.37640    1.000
    C537     C        0.47017    0.24930    0.37400    1.000
    H346     H        0.46210    0.27360    0.37850    1.000
    C538     C        0.46373    0.20520    0.36930    1.000
    C539     C        0.47505    0.17110    0.36170    1.000
    H347     H        0.47050    0.14130    0.35870    1.000
    C540     C        0.49397    0.17850    0.35810    1.000
    H348     H        0.50190    0.15430    0.35180    1.000
    N48      N        0.44508    0.19610    0.37520    1.000
    O67      O        0.58551    0.24567    0.33030    1.000
    O68      O        0.57948    0.29940    0.38080    1.000
    O69      O        0.36776    0.45104    0.53720    1.000
    O70      O        0.36601    0.39917    0.59100    1.000
    O71      O        0.37407    0.97292    0.15900    1.000
    O72      O        0.35249    0.98170    0.21060    1.000
    Zn18     Zn       0.35448    0.93527    0.13770    1.000
    C541     C        0.82520    0.33510    0.20620    1.000
    H349     H        0.81320    0.33160    0.21600    1.000
    C542     C        0.85807    0.34570    0.17880    1.000
    H350     H        0.87000    0.34850    0.16850    1.000
    C543     C        0.89418    0.69000    0.13340    1.000
    C544     C        0.82960    0.37720    0.18460    1.000
    H351     H        0.82140    0.40110    0.17960    1.000
    C545     C        0.95398    0.77340    0.25560    1.000
    H352     H        0.94770    0.77350    0.28330    1.000
    C546     C        0.83692    0.29860    0.21410    1.000
    C547     C        0.83029    0.25830    0.23840    1.000
    C548     C        0.91596    0.74800    0.18800    1.000
    C549     C        0.97262    0.77060    0.25300    1.000
    H353     H        0.97910    0.77020    0.28050    1.000
    C550     C        0.90926    0.67500    0.15580    1.000
    H354     H        0.91300    0.64460    0.15220    1.000
    C551     C        0.85346    0.30350    0.20100    1.000
    H355     H        0.86210    0.28050    0.20580    1.000
    C552     C        0.84194    0.14690    0.39110    1.000
    H356     H        0.85000    0.15160    0.41530    1.000
    C553     C        0.85531    0.57770    0.01310    1.000
    C554     C        0.86445    0.60770    0.04620    1.000
    C555     C        0.87135    0.59120    0.08550    1.000
    H357     H        0.86950    0.56040    0.09290    1.000
    C556     C        0.88068    0.61770    0.11390    1.000
    H358     H        0.88510    0.60490    0.14100    1.000
    C557     C        0.88405    0.66290    0.10500    1.000
    C558     C        0.87559    0.68060    0.06640    1.000
    H359     H        0.87660    0.71190    0.06000    1.000
    C559     C        0.86583    0.65320    0.03740    1.000
    H360     H        0.86020    0.66580    0.01170    1.000
    C560     C        0.82903    0.17210    0.32240    1.000
    C561     C        0.84031    0.17850    0.36050    1.000
    H361     H        0.84670    0.20600    0.36380    1.000
    C562     C        0.91915    0.70420    0.18390    1.000
    H362     H        0.92870    0.69170    0.20100    1.000
    C563     C        0.81980    0.13280    0.31980    1.000
    H363     H        0.81220    0.12650    0.29510    1.000
    C564     C        0.90047    0.76710    0.16390    1.000
    H364     H        0.89760    0.79840    0.16500    1.000
    C565     C        0.89078    0.73810    0.14060    1.000
    H365     H        0.88030    0.75000    0.12680    1.000
    C566     C        0.05874    0.73880    0.21630    1.000
    C567     C        0.03813    0.74900    0.21520    1.000
    C568     C        0.02799    0.73310    0.17930    1.000
    H366     H        0.03350    0.71670    0.15560    1.000
    C569     C        0.00991    0.74140    0.17850    1.000
    H367     H        0.00300    0.73210    0.15330    1.000
    C570     C        0.00151    0.76340    0.21460    1.000
    C571     C        0.01231    0.77840    0.24930    1.000
    H368     H        0.00670    0.79270    0.27420    1.000
    C572     C        0.02990    0.77420    0.25000    1.000
    H369     H        0.03680    0.78770    0.27320    1.000
    C573     C        0.98200    0.76860    0.21460    1.000
    C574     C        0.97173    0.76930    0.17440    1.000
    H370     H        0.97740    0.76780    0.14590    1.000
    C575     C        0.95393    0.77200    0.17730    1.000
    H371     H        0.94730    0.77110    0.15010    1.000
    C576     C        0.94530    0.77580    0.21420    1.000
    C577     C        0.82203    0.10130    0.35560    1.000
    H372     H        0.81550    0.07380    0.35490    1.000
    C578     C        0.82769    0.20360    0.28490    1.000
    C579     C        0.85548    0.98130    0.41730    1.000
    C580     C        0.86675    0.95080    0.38740    1.000
    C581     C        0.87946    0.96740    0.35870    1.000
    H373     H        0.88180    0.99900    0.35750    1.000
    C582     C        0.88856    0.93900    0.33250    1.000
    H374     H        0.89700    0.95190    0.31240    1.000
    C583     C        0.88691    0.89390    0.33170    1.000
    C584     C        0.87348    0.87660    0.36090    1.000
    H375     H        0.87100    0.84510    0.36140    1.000
    C585     C        0.86429    0.90520    0.38800    1.000
    H376     H        0.85580    0.89300    0.40830    1.000
    C586     C        0.89754    0.86450    0.30310    1.000
    C587     C        0.91425    0.87610    0.28430    1.000
    H377     H        0.91950    0.90420    0.29230    1.000
    C588     C        0.92276    0.84970    0.25640    1.000
    H378     H        0.93360    0.86020    0.24370    1.000
    C589     C        0.91673    0.80690    0.24450    1.000
    C590     C        0.90070    0.79250    0.26340    1.000
    H379     H        0.89630    0.76310    0.25670    1.000
    C591     C        0.89095    0.82080    0.29220    1.000
    H380     H        0.87990    0.81070    0.30440    1.000
    N49      N        0.92605    0.77990    0.21390    1.000
    N50      N        0.83294    0.10892    0.38980    1.000
    N51      N        0.83697    0.24143    0.27700    1.000
    N52      N        0.81775    0.23350    0.22210    1.000
    N53      N        0.81621    0.19870    0.25130    1.000
    N54      N        0.85035    0.26090    0.30430    1.000
    H381     H        0.85340    0.24800    0.32970    1.000
    H382     H        0.85560    0.28610    0.29580    1.000
    N55      N        0.84799    0.37850    0.17180    1.000
    O73      O        0.84452    0.59673    0.98550    1.000
    O74      O        0.85817    0.53652    0.01500    1.000
    O75      O        0.84775    0.96304    0.44980    1.000
    O76      O        0.85563    0.02255    0.40740    1.000
    O77      O        0.06377    0.71729    0.18570    1.000
    O78      O        0.06670    0.75340    0.24900    1.000
    Zn19     Zn       0.83733    0.05929    0.43550    1.000
    Zn20     Zn       0.84303    0.97853    0.51790    1.000
    C592     C        0.87087    0.91290    0.55360    1.000
    C593     C        0.88223    0.88060    0.52730    1.000
    C594     C        0.88804    0.89330    0.48500    1.000
    H383     H        0.88490    0.92190    0.47280    1.000
    C595     C        0.89878    0.86300    0.46040    1.000
    H384     H        0.90280    0.87090    0.43110    1.000
    C596     C        0.90353    0.82190    0.47850    1.000
    C597     C        0.89833    0.80990    0.52090    1.000
    H385     H        0.90230    0.78220    0.53360    1.000
    C598     C        0.88693    0.83900    0.54610    1.000
    H386     H        0.88270    0.83040    0.57490    1.000
    C599     C        0.91456    0.78900    0.45160    1.000
    C600     C        0.91129    0.78340    0.40470    1.000
    H387     H        0.90220    0.80040    0.39010    1.000
    C601     C        0.92122    0.75380    0.38150    1.000
    H388     H        0.91900    0.74940    0.35040    1.000
    C602     C        0.93462    0.72950    0.40240    1.000
    C603     C        0.93843    0.73530    0.44660    1.000
    H389     H        0.94810    0.71920    0.45950    1.000
    C604     C        0.92868    0.76370    0.47300    1.000
    H390     H        0.93110    0.76670    0.50420    1.000
    C605     C        0.86905    0.48940    0.19320    1.000
    C606     C        0.88077    0.52010    0.22110    1.000
    C607     C        0.89728    0.52670    0.20790    1.000
    H391     H        0.90150    0.51340    0.18090    1.000
    C608     C        0.90908    0.55470    0.23550    1.000
    H392     H        0.92120    0.55800    0.22710    1.000
    C609     C        0.90321    0.57510    0.27110    1.000
    C610     C        0.88487    0.56950    0.28440    1.000
    H393     H        0.88030    0.58360    0.31070    1.000
    C611     C        0.87423    0.54290    0.25750    1.000
    H394     H        0.86190    0.54020    0.26450    1.000
    C612     C        0.91540    0.60580    0.29900    1.000
    C613     C        0.92929    0.62660    0.28160    1.000
    H395     H        0.93270    0.61900    0.25180    1.000
    C614     C        0.93929    0.65930    0.30410    1.000
    H396     H        0.94800    0.67710    0.28890    1.000
    C615     C        0.93601    0.66440    0.34870    1.000
    C616     C        0.92163    0.64030    0.36980    1.000
    H397     H        0.91920    0.64540    0.40070    1.000
    C617     C        0.91187    0.61160    0.34750    1.000
    H398     H        0.90270    0.59500    0.36200    1.000
    C618     C        0.07510    0.76690    0.35550    1.000
    C619     C        0.05561    0.75350    0.35830    1.000
    C620     C        0.04394    0.78180    0.38090    1.000
    H399     H        0.04810    0.80840    0.39530    1.000
    C621     C        0.02588    0.77030    0.38190    1.000
    H400     H        0.01770    0.78960    0.39700    1.000
    C622     C        0.01979    0.73270    0.36220    1.000
    C623     C        0.03120    0.70380    0.33980    1.000
    H401     H        0.02660    0.67740    0.32580    1.000
    C624     C        0.05027    0.71380    0.33770    1.000
    H402     H        0.05850    0.69430    0.32310    1.000
    C625     C        0.00016    0.72160    0.36390    1.000
    C626     C        0.98813    0.75740    0.37210    1.000
    H403     H        0.99250    0.78720    0.37640    1.000
    C627     C        0.97017    0.74930    0.37400    1.000
    H404     H        0.96210    0.77360    0.37850    1.000
    C628     C        0.96373    0.70520    0.36930    1.000
    C629     C        0.97505    0.67110    0.36170    1.000
    H405     H        0.97050    0.64130    0.35870    1.000
    C630     C        0.99397    0.67850    0.35810    1.000
    H406     H        0.00190    0.65430    0.35180    1.000
    N56      N        0.94508    0.69610    0.37520    1.000
    O79      O        0.08551    0.74567    0.33030    1.000
    O80      O        0.07948    0.79940    0.38080    1.000
    O81      O        0.86776    0.95104    0.53720    1.000
    O82      O        0.86601    0.89917    0.59100    1.000
    O83      O        0.87407    0.47292    0.15900    1.000
    O84      O        0.85249    0.48170    0.21060    1.000
    Zn21     Zn       0.85448    0.43527    0.13770    1.000
    C631     C        0.82520    0.83510    0.70620    1.000
    H407     H        0.81320    0.83160    0.71600    1.000
    C632     C        0.85807    0.84570    0.67880    1.000
    H408     H        0.87000    0.84850    0.66850    1.000
    C633     C        0.89418    0.19000    0.63340    1.000
    C634     C        0.82960    0.87720    0.68460    1.000
    H409     H        0.82140    0.90110    0.67960    1.000
    C635     C        0.95398    0.27340    0.75560    1.000
    H410     H        0.94770    0.27350    0.78330    1.000
    C636     C        0.83692    0.79860    0.71410    1.000
    C637     C        0.83029    0.75830    0.73840    1.000
    C638     C        0.91596    0.24800    0.68800    1.000
    C639     C        0.97262    0.27060    0.75300    1.000
    H411     H        0.97910    0.27020    0.78050    1.000
    C640     C        0.90926    0.17500    0.65580    1.000
    H412     H        0.91300    0.14460    0.65220    1.000
    C641     C        0.85346    0.80350    0.70100    1.000
    H413     H        0.86210    0.78050    0.70580    1.000
    C642     C        0.84194    0.64690    0.89110    1.000
    H414     H        0.85000    0.65160    0.91530    1.000
    C643     C        0.85531    0.07770    0.51310    1.000
    C644     C        0.86445    0.10770    0.54620    1.000
    C645     C        0.87135    0.09120    0.58550    1.000
    H415     H        0.86950    0.06040    0.59290    1.000
    C646     C        0.88068    0.11770    0.61390    1.000
    H416     H        0.88510    0.10490    0.64100    1.000
    C647     C        0.88405    0.16290    0.60500    1.000
    C648     C        0.87559    0.18060    0.56640    1.000
    H417     H        0.87660    0.21190    0.56000    1.000
    C649     C        0.86583    0.15320    0.53740    1.000
    H418     H        0.86020    0.16580    0.51170    1.000
    C650     C        0.82903    0.67210    0.82240    1.000
    C651     C        0.84031    0.67850    0.86050    1.000
    H419     H        0.84670    0.70600    0.86380    1.000
    C652     C        0.91915    0.20420    0.68390    1.000
    H420     H        0.92870    0.19170    0.70100    1.000
    C653     C        0.81980    0.63280    0.81980    1.000
    H421     H        0.81220    0.62650    0.79510    1.000
    C654     C        0.90047    0.26710    0.66390    1.000
    H422     H        0.89760    0.29840    0.66500    1.000
    C655     C        0.89078    0.23810    0.64060    1.000
    H423     H        0.88030    0.25000    0.62680    1.000
    C656     C        0.05874    0.23880    0.71630    1.000
    C657     C        0.03813    0.24900    0.71520    1.000
    C658     C        0.02799    0.23310    0.67930    1.000
    H424     H        0.03350    0.21670    0.65560    1.000
    C659     C        0.00991    0.24140    0.67850    1.000
    H425     H        0.00300    0.23210    0.65330    1.000
    C660     C        0.00151    0.26340    0.71460    1.000
    C661     C        0.01231    0.27840    0.74930    1.000
    H426     H        0.00670    0.29270    0.77420    1.000
    C662     C        0.02990    0.27420    0.75000    1.000
    H427     H        0.03680    0.28770    0.77320    1.000
    C663     C        0.98200    0.26860    0.71460    1.000
    C664     C        0.97173    0.26930    0.67440    1.000
    H428     H        0.97740    0.26780    0.64590    1.000
    C665     C        0.95393    0.27200    0.67730    1.000
    H429     H        0.94730    0.27110    0.65010    1.000
    C666     C        0.94530    0.27580    0.71420    1.000
    C667     C        0.82203    0.60130    0.85560    1.000
    H430     H        0.81550    0.57380    0.85490    1.000
    C668     C        0.82769    0.70360    0.78490    1.000
    C669     C        0.85548    0.48130    0.91730    1.000
    C670     C        0.86675    0.45080    0.88740    1.000
    C671     C        0.87946    0.46740    0.85870    1.000
    H431     H        0.88180    0.49900    0.85750    1.000
    C672     C        0.88856    0.43900    0.83250    1.000
    H432     H        0.89700    0.45190    0.81240    1.000
    C673     C        0.88691    0.39390    0.83170    1.000
    C674     C        0.87348    0.37660    0.86090    1.000
    H433     H        0.87100    0.34510    0.86140    1.000
    C675     C        0.86429    0.40520    0.88800    1.000
    H434     H        0.85580    0.39300    0.90830    1.000
    C676     C        0.89754    0.36450    0.80310    1.000
    C677     C        0.91425    0.37610    0.78430    1.000
    H435     H        0.91950    0.40420    0.79230    1.000
    C678     C        0.92276    0.34970    0.75640    1.000
    H436     H        0.93360    0.36020    0.74370    1.000
    C679     C        0.91673    0.30690    0.74450    1.000
    C680     C        0.90070    0.29250    0.76340    1.000
    H437     H        0.89630    0.26310    0.75670    1.000
    C681     C        0.89095    0.32080    0.79220    1.000
    H438     H        0.87990    0.31070    0.80440    1.000
    N57      N        0.92605    0.27990    0.71390    1.000
    N58      N        0.83294    0.60892    0.88980    1.000
    N59      N        0.83697    0.74143    0.77700    1.000
    N60      N        0.81775    0.73350    0.72210    1.000
    N61      N        0.81621    0.69870    0.75130    1.000
    N62      N        0.85035    0.76090    0.80430    1.000
    H439     H        0.85340    0.74800    0.82970    1.000
    H440     H        0.85560    0.78610    0.79580    1.000
    N63      N        0.84799    0.87850    0.67180    1.000
    O85      O        0.84452    0.09673    0.48550    1.000
    O86      O        0.85817    0.03652    0.51500    1.000
    O87      O        0.84775    0.46304    0.94980    1.000
    O88      O        0.85563    0.52255    0.90740    1.000
    O89      O        0.06377    0.21729    0.68570    1.000
    O90      O        0.06670    0.25340    0.74900    1.000
    Zn22     Zn       0.83733    0.55929    0.93550    1.000
    Zn23     Zn       0.84303    0.47853    0.01790    1.000
    C682     C        0.87087    0.41290    0.05360    1.000
    C683     C        0.88223    0.38060    0.02730    1.000
    C684     C        0.88804    0.39330    0.98500    1.000
    H441     H        0.88490    0.42190    0.97280    1.000
    C685     C        0.89878    0.36300    0.96040    1.000
    H442     H        0.90280    0.37090    0.93110    1.000
    C686     C        0.90353    0.32190    0.97850    1.000
    C687     C        0.89833    0.30990    0.02090    1.000
    H443     H        0.90230    0.28220    0.03360    1.000
    C688     C        0.88693    0.33900    0.04610    1.000
    H444     H        0.88270    0.33040    0.07490    1.000
    C689     C        0.91456    0.28900    0.95160    1.000
    C690     C        0.91129    0.28340    0.90470    1.000
    H445     H        0.90220    0.30040    0.89010    1.000
    C691     C        0.92122    0.25380    0.88150    1.000
    H446     H        0.91900    0.24940    0.85040    1.000
    C692     C        0.93462    0.22950    0.90240    1.000
    C693     C        0.93843    0.23530    0.94660    1.000
    H447     H        0.94810    0.21920    0.95950    1.000
    C694     C        0.92868    0.26370    0.97300    1.000
    H448     H        0.93110    0.26670    0.00420    1.000
    C695     C        0.86905    0.98940    0.69320    1.000
    C696     C        0.88077    0.02010    0.72110    1.000
    C697     C        0.89728    0.02670    0.70790    1.000
    H449     H        0.90150    0.01340    0.68090    1.000
    C698     C        0.90908    0.05470    0.73550    1.000
    H450     H        0.92120    0.05800    0.72710    1.000
    C699     C        0.90321    0.07510    0.77110    1.000
    C700     C        0.88487    0.06950    0.78440    1.000
    H451     H        0.88030    0.08360    0.81070    1.000
    C701     C        0.87423    0.04290    0.75750    1.000
    H452     H        0.86190    0.04020    0.76450    1.000
    C702     C        0.91540    0.10580    0.79900    1.000
    C703     C        0.92929    0.12660    0.78160    1.000
    H453     H        0.93270    0.11900    0.75180    1.000
    C704     C        0.93929    0.15930    0.80410    1.000
    H454     H        0.94800    0.17710    0.78890    1.000
    C705     C        0.93601    0.16440    0.84870    1.000
    C706     C        0.92163    0.14030    0.86980    1.000
    H455     H        0.91920    0.14540    0.90070    1.000
    C707     C        0.91187    0.11160    0.84750    1.000
    H456     H        0.90270    0.09500    0.86200    1.000
    C708     C        0.07510    0.26690    0.85550    1.000
    C709     C        0.05561    0.25350    0.85830    1.000
    C710     C        0.04394    0.28180    0.88090    1.000
    H457     H        0.04810    0.30840    0.89530    1.000
    C711     C        0.02588    0.27030    0.88190    1.000
    H458     H        0.01770    0.28960    0.89700    1.000
    C712     C        0.01979    0.23270    0.86220    1.000
    C713     C        0.03120    0.20380    0.83980    1.000
    H459     H        0.02660    0.17740    0.82580    1.000
    C714     C        0.05027    0.21380    0.83770    1.000
    H460     H        0.05850    0.19430    0.82310    1.000
    C715     C        0.00016    0.22160    0.86390    1.000
    C716     C        0.98813    0.25740    0.87210    1.000
    H461     H        0.99250    0.28720    0.87640    1.000
    C717     C        0.97017    0.24930    0.87400    1.000
    H462     H        0.96210    0.27360    0.87850    1.000
    C718     C        0.96373    0.20520    0.86930    1.000
    C719     C        0.97505    0.17110    0.86170    1.000
    H463     H        0.97050    0.14130    0.85870    1.000
    C720     C        0.99397    0.17850    0.85810    1.000
    H464     H        0.00190    0.15430    0.85180    1.000
    N64      N        0.94508    0.19610    0.87520    1.000
    O91      O        0.08551    0.24567    0.83030    1.000
    O92      O        0.07948    0.29940    0.88080    1.000
    O93      O        0.86776    0.45104    0.03720    1.000
    O94      O        0.86601    0.39917    0.09100    1.000
    O95      O        0.87407    0.97292    0.65900    1.000
    O96      O        0.85249    0.98170    0.71060    1.000
    Zn24     Zn       0.85448    0.93527    0.63770    1.000
    C721     C        0.92480    0.08510    0.45620    1.000
    H465     H        0.93680    0.08160    0.46600    1.000
    C722     C        0.89193    0.09570    0.42880    1.000
    H466     H        0.88000    0.09850    0.41850    1.000
    C723     C        0.85582    0.44000    0.38340    1.000
    C724     C        0.92040    0.12720    0.43460    1.000
    H467     H        0.92860    0.15110    0.42960    1.000
    C725     C        0.79602    0.52340    0.50560    1.000
    H468     H        0.80230    0.52350    0.53330    1.000
    C726     C        0.91308    0.04860    0.46410    1.000
    C727     C        0.91971    0.00830    0.48840    1.000
    C728     C        0.83404    0.49800    0.43800    1.000
    C729     C        0.77738    0.52060    0.50300    1.000
    H469     H        0.77090    0.52020    0.53050    1.000
    C730     C        0.84074    0.42500    0.40580    1.000
    H470     H        0.83700    0.39460    0.40220    1.000
    C731     C        0.89654    0.05350    0.45100    1.000
    H471     H        0.88790    0.03050    0.45580    1.000
    C732     C        0.90806    0.89690    0.64110    1.000
    H472     H        0.90000    0.90160    0.66530    1.000
    C733     C        0.89469    0.32770    0.26310    1.000
    C734     C        0.88555    0.35770    0.29620    1.000
    C735     C        0.87865    0.34120    0.33550    1.000
    H473     H        0.88050    0.31040    0.34290    1.000
    C736     C        0.86932    0.36770    0.36390    1.000
    H474     H        0.86490    0.35490    0.39100    1.000
    C737     C        0.86595    0.41290    0.35500    1.000
    C738     C        0.87441    0.43060    0.31640    1.000
    H475     H        0.87340    0.46190    0.31000    1.000
    C739     C        0.88417    0.40320    0.28740    1.000
    H476     H        0.88980    0.41580    0.26170    1.000
    C740     C        0.92097    0.92210    0.57240    1.000
    C741     C        0.90969    0.92850    0.61050    1.000
    H477     H        0.90330    0.95600    0.61380    1.000
    C742     C        0.83085    0.45420    0.43390    1.000
    H478     H        0.82130    0.44170    0.45100    1.000
    C743     C        0.93020    0.88280    0.56980    1.000
    H479     H        0.93780    0.87650    0.54510    1.000
    C744     C        0.84953    0.51710    0.41390    1.000
    H480     H        0.85240    0.54840    0.41500    1.000
    C745     C        0.85922    0.48810    0.39060    1.000
    H481     H        0.86970    0.50000    0.37680    1.000
    C746     C        0.69126    0.48880    0.46630    1.000
    C747     C        0.71187    0.49900    0.46520    1.000
    C748     C        0.72201    0.48310    0.42930    1.000
    H482     H        0.71650    0.46670    0.40560    1.000
    C749     C        0.74009    0.49140    0.42850    1.000
    H483     H        0.74700    0.48210    0.40330    1.000
    C750     C        0.74849    0.51340    0.46460    1.000
    C751     C        0.73769    0.52840    0.49930    1.000
    H484     H        0.74330    0.54270    0.52420    1.000
    C752     C        0.72010    0.52420    0.50000    1.000
    H485     H        0.71320    0.53770    0.52320    1.000
    C753     C        0.76800    0.51860    0.46460    1.000
    C754     C        0.77827    0.51930    0.42440    1.000
    H486     H        0.77260    0.51780    0.39590    1.000
    C755     C        0.79607    0.52200    0.42730    1.000
    H487     H        0.80270    0.52110    0.40010    1.000
    C756     C        0.80470    0.52580    0.46420    1.000
    C757     C        0.92797    0.85130    0.60560    1.000
    H488     H        0.93450    0.82380    0.60490    1.000
    C758     C        0.92231    0.95360    0.53490    1.000
    C759     C        0.89452    0.73130    0.66730    1.000
    C760     C        0.88325    0.70080    0.63740    1.000
    C761     C        0.87054    0.71740    0.60870    1.000
    H489     H        0.86820    0.74900    0.60750    1.000
    C762     C        0.86144    0.68900    0.58250    1.000
    H490     H        0.85300    0.70190    0.56240    1.000
    C763     C        0.86309    0.64390    0.58170    1.000
    C764     C        0.87652    0.62660    0.61090    1.000
    H491     H        0.87900    0.59510    0.61140    1.000
    C765     C        0.88571    0.65520    0.63800    1.000
    H492     H        0.89420    0.64300    0.65830    1.000
    C766     C        0.85246    0.61450    0.55310    1.000
    C767     C        0.83575    0.62610    0.53430    1.000
    H493     H        0.83050    0.65420    0.54230    1.000
    C768     C        0.82724    0.59970    0.50640    1.000
    H494     H        0.81640    0.61020    0.49370    1.000
    C769     C        0.83327    0.55690    0.49450    1.000
    C770     C        0.84930    0.54250    0.51340    1.000
    H495     H        0.85370    0.51310    0.50670    1.000
    C771     C        0.85905    0.57080    0.54220    1.000
    H496     H        0.87010    0.56070    0.55440    1.000
    N65      N        0.82395    0.52990    0.46390    1.000
    N66      N        0.91706    0.85892    0.63980    1.000
    N67      N        0.91303    0.99143    0.52700    1.000
    N68      N        0.93225    0.98350    0.47210    1.000
    N69      N        0.93379    0.94870    0.50130    1.000
    N70      N        0.89965    0.01090    0.55430    1.000
    H497     H        0.89660    0.99800    0.57970    1.000
    H498     H        0.89440    0.03610    0.54580    1.000
    N71      N        0.90201    0.12850    0.42180    1.000
    O97      O        0.90548    0.34673    0.23550    1.000
    O98      O        0.89183    0.28652    0.26500    1.000
    O99      O        0.90225    0.71304    0.69980    1.000
    O100     O        0.89437    0.77255    0.65740    1.000
    O101     O        0.68623    0.46729    0.43570    1.000
    O102     O        0.68330    0.50340    0.49900    1.000
    Zn25     Zn       0.91267    0.80929    0.68550    1.000
    Zn26     Zn       0.90697    0.72853    0.76790    1.000
    C772     C        0.87913    0.66290    0.80360    1.000
    C773     C        0.86777    0.63060    0.77730    1.000
    C774     C        0.86196    0.64330    0.73500    1.000
    H499     H        0.86510    0.67190    0.72280    1.000
    C775     C        0.85122    0.61300    0.71040    1.000
    H500     H        0.84720    0.62090    0.68110    1.000
    C776     C        0.84647    0.57190    0.72850    1.000
    C777     C        0.85167    0.55990    0.77090    1.000
    H501     H        0.84770    0.53220    0.78360    1.000
    C778     C        0.86307    0.58900    0.79610    1.000
    H502     H        0.86730    0.58040    0.82490    1.000
    C779     C        0.83544    0.53900    0.70160    1.000
    C780     C        0.83871    0.53340    0.65470    1.000
    H503     H        0.84780    0.55040    0.64010    1.000
    C781     C        0.82878    0.50380    0.63150    1.000
    H504     H        0.83100    0.49940    0.60040    1.000
    C782     C        0.81538    0.47950    0.65240    1.000
    C783     C        0.81157    0.48530    0.69660    1.000
    H505     H        0.80190    0.46920    0.70950    1.000
    C784     C        0.82132    0.51370    0.72300    1.000
    H506     H        0.81890    0.51670    0.75420    1.000
    C785     C        0.88095    0.23940    0.44320    1.000
    C786     C        0.86923    0.27010    0.47110    1.000
    C787     C        0.85272    0.27670    0.45790    1.000
    H507     H        0.84850    0.26340    0.43090    1.000
    C788     C        0.84092    0.30470    0.48550    1.000
    H508     H        0.82880    0.30800    0.47710    1.000
    C789     C        0.84679    0.32510    0.52110    1.000
    C790     C        0.86513    0.31950    0.53440    1.000
    H509     H        0.86970    0.33360    0.56070    1.000
    C791     C        0.87577    0.29290    0.50750    1.000
    H510     H        0.88810    0.29020    0.51450    1.000
    C792     C        0.83460    0.35580    0.54900    1.000
    C793     C        0.82071    0.37660    0.53160    1.000
    H511     H        0.81730    0.36900    0.50180    1.000
    C794     C        0.81071    0.40930    0.55410    1.000
    H512     H        0.80200    0.42710    0.53890    1.000
    C795     C        0.81399    0.41440    0.59870    1.000
    C796     C        0.82837    0.39030    0.61980    1.000
    H513     H        0.83080    0.39540    0.65070    1.000
    C797     C        0.83813    0.36160    0.59750    1.000
    H514     H        0.84730    0.34500    0.61200    1.000
    C798     C        0.67490    0.51690    0.60550    1.000
    C799     C        0.69439    0.50350    0.60830    1.000
    C800     C        0.70606    0.53180    0.63090    1.000
    H515     H        0.70190    0.55840    0.64530    1.000
    C801     C        0.72412    0.52030    0.63190    1.000
    H516     H        0.73230    0.53960    0.64700    1.000
    C802     C        0.73021    0.48270    0.61220    1.000
    C803     C        0.71880    0.45380    0.58980    1.000
    H517     H        0.72340    0.42740    0.57580    1.000
    C804     C        0.69973    0.46380    0.58770    1.000
    H518     H        0.69150    0.44430    0.57310    1.000
    C805     C        0.74984    0.47160    0.61390    1.000
    C806     C        0.76187    0.50740    0.62210    1.000
    H519     H        0.75750    0.53720    0.62640    1.000
    C807     C        0.77983    0.49930    0.62400    1.000
    H520     H        0.78790    0.52360    0.62850    1.000
    C808     C        0.78627    0.45520    0.61930    1.000
    C809     C        0.77495    0.42110    0.61170    1.000
    H521     H        0.77950    0.39130    0.60870    1.000
    C810     C        0.75603    0.42850    0.60810    1.000
    H522     H        0.74810    0.40430    0.60180    1.000
    N72      N        0.80492    0.44610    0.62520    1.000
    O103     O        0.66449    0.49567    0.58030    1.000
    O104     O        0.67052    0.54940    0.63080    1.000
    O105     O        0.88224    0.70104    0.78720    1.000
    O106     O        0.88399    0.64917    0.84100    1.000
    O107     O        0.87593    0.22292    0.40900    1.000
    O108     O        0.89751    0.23170    0.46060    1.000
    Zn27     Zn       0.89552    0.18527    0.38770    1.000
    C811     C        0.92480    0.58510    0.95620    1.000
    H523     H        0.93680    0.58160    0.96600    1.000
    C812     C        0.89193    0.59570    0.92880    1.000
    H524     H        0.88000    0.59850    0.91850    1.000
    C813     C        0.85582    0.94000    0.88340    1.000
    C814     C        0.92040    0.62720    0.93460    1.000
    H525     H        0.92860    0.65110    0.92960    1.000
    C815     C        0.79602    0.02340    0.00560    1.000
    H526     H        0.80230    0.02350    0.03330    1.000
    C816     C        0.91308    0.54860    0.96410    1.000
    C817     C        0.91971    0.50830    0.98840    1.000
    C818     C        0.83404    0.99800    0.93800    1.000
    C819     C        0.77738    0.02060    0.00300    1.000
    H527     H        0.77090    0.02020    0.03050    1.000
    C820     C        0.84074    0.92500    0.90580    1.000
    H528     H        0.83700    0.89460    0.90220    1.000
    C821     C        0.89654    0.55350    0.95100    1.000
    H529     H        0.88790    0.53050    0.95580    1.000
    C822     C        0.90806    0.39690    0.14110    1.000
    H530     H        0.90000    0.40160    0.16530    1.000
    C823     C        0.89469    0.82770    0.76310    1.000
    C824     C        0.88555    0.85770    0.79620    1.000
    C825     C        0.87865    0.84120    0.83550    1.000
    H531     H        0.88050    0.81040    0.84290    1.000
    C826     C        0.86932    0.86770    0.86390    1.000
    H532     H        0.86490    0.85490    0.89100    1.000
    C827     C        0.86595    0.91290    0.85500    1.000
    C828     C        0.87441    0.93060    0.81640    1.000
    H533     H        0.87340    0.96190    0.81000    1.000
    C829     C        0.88417    0.90320    0.78740    1.000
    H534     H        0.88980    0.91580    0.76170    1.000
    C830     C        0.92097    0.42210    0.07240    1.000
    C831     C        0.90969    0.42850    0.11050    1.000
    H535     H        0.90330    0.45600    0.11380    1.000
    C832     C        0.83085    0.95420    0.93390    1.000
    H536     H        0.82130    0.94170    0.95100    1.000
    C833     C        0.93020    0.38280    0.06980    1.000
    H537     H        0.93780    0.37650    0.04510    1.000
    C834     C        0.84953    0.01710    0.91390    1.000
    H538     H        0.85240    0.04840    0.91500    1.000
    C835     C        0.85922    0.98810    0.89060    1.000
    H539     H        0.86970    0.00000    0.87680    1.000
    C836     C        0.69126    0.98880    0.96630    1.000
    C837     C        0.71187    0.99900    0.96520    1.000
    C838     C        0.72201    0.98310    0.92930    1.000
    H540     H        0.71650    0.96670    0.90560    1.000
    C839     C        0.74009    0.99140    0.92850    1.000
    H541     H        0.74700    0.98210    0.90330    1.000
    C840     C        0.74849    0.01340    0.96460    1.000
    C841     C        0.73769    0.02840    0.99930    1.000
    H542     H        0.74330    0.04270    0.02420    1.000
    C842     C        0.72010    0.02420    0.00000    1.000
    H543     H        0.71320    0.03770    0.02320    1.000
    C843     C        0.76800    0.01860    0.96460    1.000
    C844     C        0.77827    0.01930    0.92440    1.000
    H544     H        0.77260    0.01780    0.89590    1.000
    C845     C        0.79607    0.02200    0.92730    1.000
    H545     H        0.80270    0.02110    0.90010    1.000
    C846     C        0.80470    0.02580    0.96420    1.000
    C847     C        0.92797    0.35130    0.10560    1.000
    H546     H        0.93450    0.32380    0.10490    1.000
    C848     C        0.92231    0.45360    0.03490    1.000
    C849     C        0.89452    0.23130    0.16730    1.000
    C850     C        0.88325    0.20080    0.13740    1.000
    C851     C        0.87054    0.21740    0.10870    1.000
    H547     H        0.86820    0.24900    0.10750    1.000
    C852     C        0.86144    0.18900    0.08250    1.000
    H548     H        0.85300    0.20190    0.06240    1.000
    C853     C        0.86309    0.14390    0.08170    1.000
    C854     C        0.87652    0.12660    0.11090    1.000
    H549     H        0.87900    0.09510    0.11140    1.000
    C855     C        0.88571    0.15520    0.13800    1.000
    H550     H        0.89420    0.14300    0.15830    1.000
    C856     C        0.85246    0.11450    0.05310    1.000
    C857     C        0.83575    0.12610    0.03430    1.000
    H551     H        0.83050    0.15420    0.04230    1.000
    C858     C        0.82724    0.09970    0.00640    1.000
    H552     H        0.81640    0.11020    0.99370    1.000
    C859     C        0.83327    0.05690    0.99450    1.000
    C860     C        0.84930    0.04250    0.01340    1.000
    H553     H        0.85370    0.01310    0.00670    1.000
    C861     C        0.85905    0.07080    0.04220    1.000
    H554     H        0.87010    0.06070    0.05440    1.000
    N73      N        0.82395    0.02990    0.96390    1.000
    N74      N        0.91706    0.35892    0.13980    1.000
    N75      N        0.91303    0.49143    0.02700    1.000
    N76      N        0.93225    0.48350    0.97210    1.000
    N77      N        0.93379    0.44870    0.00130    1.000
    N78      N        0.89965    0.51090    0.05430    1.000
    H555     H        0.89660    0.49800    0.07970    1.000
    H556     H        0.89440    0.53610    0.04580    1.000
    N79      N        0.90201    0.62850    0.92180    1.000
    O109     O        0.90548    0.84673    0.73550    1.000
    O110     O        0.89183    0.78652    0.76500    1.000
    O111     O        0.90225    0.21304    0.19980    1.000
    O112     O        0.89437    0.27255    0.15740    1.000
    O113     O        0.68623    0.96729    0.93570    1.000
    O114     O        0.68330    0.00340    0.99900    1.000
    Zn28     Zn       0.91267    0.30929    0.18550    1.000
    Zn29     Zn       0.90697    0.22853    0.26790    1.000
    C862     C        0.87913    0.16290    0.30360    1.000
    C863     C        0.86777    0.13060    0.27730    1.000
    C864     C        0.86196    0.14330    0.23500    1.000
    H557     H        0.86510    0.17190    0.22280    1.000
    C865     C        0.85122    0.11300    0.21040    1.000
    H558     H        0.84720    0.12090    0.18110    1.000
    C866     C        0.84647    0.07190    0.22850    1.000
    C867     C        0.85167    0.05990    0.27090    1.000
    H559     H        0.84770    0.03220    0.28360    1.000
    C868     C        0.86307    0.08900    0.29610    1.000
    H560     H        0.86730    0.08040    0.32490    1.000
    C869     C        0.83544    0.03900    0.20160    1.000
    C870     C        0.83871    0.03340    0.15470    1.000
    H561     H        0.84780    0.05040    0.14010    1.000
    C871     C        0.82878    0.00380    0.13150    1.000
    H562     H        0.83100    0.99940    0.10040    1.000
    C872     C        0.81538    0.97950    0.15240    1.000
    C873     C        0.81157    0.98530    0.19660    1.000
    H563     H        0.80190    0.96920    0.20950    1.000
    C874     C        0.82132    0.01370    0.22300    1.000
    H564     H        0.81890    0.01670    0.25420    1.000
    C875     C        0.88095    0.73940    0.94320    1.000
    C876     C        0.86923    0.77010    0.97110    1.000
    C877     C        0.85272    0.77670    0.95790    1.000
    H565     H        0.84850    0.76340    0.93090    1.000
    C878     C        0.84092    0.80470    0.98550    1.000
    H566     H        0.82880    0.80800    0.97710    1.000
    C879     C        0.84679    0.82510    0.02110    1.000
    C880     C        0.86513    0.81950    0.03440    1.000
    H567     H        0.86970    0.83360    0.06070    1.000
    C881     C        0.87577    0.79290    0.00750    1.000
    H568     H        0.88810    0.79020    0.01450    1.000
    C882     C        0.83460    0.85580    0.04900    1.000
    C883     C        0.82071    0.87660    0.03160    1.000
    H569     H        0.81730    0.86900    0.00180    1.000
    C884     C        0.81071    0.90930    0.05410    1.000
    H570     H        0.80200    0.92710    0.03890    1.000
    C885     C        0.81399    0.91440    0.09870    1.000
    C886     C        0.82837    0.89030    0.11980    1.000
    H571     H        0.83080    0.89540    0.15070    1.000
    C887     C        0.83813    0.86160    0.09750    1.000
    H572     H        0.84730    0.84500    0.11200    1.000
    C888     C        0.67490    0.01690    0.10550    1.000
    C889     C        0.69439    0.00350    0.10830    1.000
    C890     C        0.70606    0.03180    0.13090    1.000
    H573     H        0.70190    0.05840    0.14530    1.000
    C891     C        0.72412    0.02030    0.13190    1.000
    H574     H        0.73230    0.03960    0.14700    1.000
    C892     C        0.73021    0.98270    0.11220    1.000
    C893     C        0.71880    0.95380    0.08980    1.000
    H575     H        0.72340    0.92740    0.07580    1.000
    C894     C        0.69973    0.96380    0.08770    1.000
    H576     H        0.69150    0.94430    0.07310    1.000
    C895     C        0.74984    0.97160    0.11390    1.000
    C896     C        0.76187    0.00740    0.12210    1.000
    H577     H        0.75750    0.03720    0.12640    1.000
    C897     C        0.77983    0.99930    0.12400    1.000
    H578     H        0.78790    0.02360    0.12850    1.000
    C898     C        0.78627    0.95520    0.11930    1.000
    C899     C        0.77495    0.92110    0.11170    1.000
    H579     H        0.77950    0.89130    0.10870    1.000
    C900     C        0.75603    0.92850    0.10810    1.000
    H580     H        0.74810    0.90430    0.10180    1.000
    N80      N        0.80492    0.94610    0.12520    1.000
    O115     O        0.66449    0.99567    0.08030    1.000
    O116     O        0.67052    0.04940    0.13080    1.000
    O117     O        0.88224    0.20104    0.28720    1.000
    O118     O        0.88399    0.14917    0.34100    1.000
    O119     O        0.87593    0.72292    0.90900    1.000
    O120     O        0.89751    0.73170    0.96060    1.000
    Zn30     Zn       0.89552    0.68527    0.88770    1.000
    C901     C        0.42480    0.08510    0.95620    1.000
    H581     H        0.43680    0.08160    0.96600    1.000
    C902     C        0.39193    0.09570    0.92880    1.000
    H582     H        0.38000    0.09850    0.91850    1.000
    C903     C        0.35582    0.44000    0.88340    1.000
    C904     C        0.42040    0.12720    0.93460    1.000
    H583     H        0.42860    0.15110    0.92960    1.000
    C905     C        0.29602    0.52340    0.00560    1.000
    H584     H        0.30230    0.52350    0.03330    1.000
    C906     C        0.41308    0.04860    0.96410    1.000
    C907     C        0.41971    0.00830    0.98840    1.000
    C908     C        0.33404    0.49800    0.93800    1.000
    C909     C        0.27738    0.52060    0.00300    1.000
    H585     H        0.27090    0.52020    0.03050    1.000
    C910     C        0.34074    0.42500    0.90580    1.000
    H586     H        0.33700    0.39460    0.90220    1.000
    C911     C        0.39654    0.05350    0.95100    1.000
    H587     H        0.38790    0.03050    0.95580    1.000
    C912     C        0.40806    0.89690    0.14110    1.000
    H588     H        0.40000    0.90160    0.16530    1.000
    C913     C        0.39469    0.32770    0.76310    1.000
    C914     C        0.38555    0.35770    0.79620    1.000
    C915     C        0.37865    0.34120    0.83550    1.000
    H589     H        0.38050    0.31040    0.84290    1.000
    C916     C        0.36932    0.36770    0.86390    1.000
    H590     H        0.36490    0.35490    0.89100    1.000
    C917     C        0.36595    0.41290    0.85500    1.000
    C918     C        0.37441    0.43060    0.81640    1.000
    H591     H        0.37340    0.46190    0.81000    1.000
    C919     C        0.38417    0.40320    0.78740    1.000
    H592     H        0.38980    0.41580    0.76170    1.000
    C920     C        0.42097    0.92210    0.07240    1.000
    C921     C        0.40969    0.92850    0.11050    1.000
    H593     H        0.40330    0.95600    0.11380    1.000
    C922     C        0.33085    0.45420    0.93390    1.000
    H594     H        0.32130    0.44170    0.95100    1.000
    C923     C        0.43020    0.88280    0.06980    1.000
    H595     H        0.43780    0.87650    0.04510    1.000
    C924     C        0.34953    0.51710    0.91390    1.000
    H596     H        0.35240    0.54840    0.91500    1.000
    C925     C        0.35922    0.48810    0.89060    1.000
    H597     H        0.36970    0.50000    0.87680    1.000
    C926     C        0.19126    0.48880    0.96630    1.000
    C927     C        0.21187    0.49900    0.96520    1.000
    C928     C        0.22201    0.48310    0.92930    1.000
    H598     H        0.21650    0.46670    0.90560    1.000
    C929     C        0.24009    0.49140    0.92850    1.000
    H599     H        0.24700    0.48210    0.90330    1.000
    C930     C        0.24849    0.51340    0.96460    1.000
    C931     C        0.23769    0.52840    0.99930    1.000
    H600     H        0.24330    0.54270    0.02420    1.000
    C932     C        0.22010    0.52420    0.00000    1.000
    H601     H        0.21320    0.53770    0.02320    1.000
    C933     C        0.26800    0.51860    0.96460    1.000
    C934     C        0.27827    0.51930    0.92440    1.000
    H602     H        0.27260    0.51780    0.89590    1.000
    C935     C        0.29607    0.52200    0.92730    1.000
    H603     H        0.30270    0.52110    0.90010    1.000
    C936     C        0.30470    0.52580    0.96420    1.000
    C937     C        0.42797    0.85130    0.10560    1.000
    H604     H        0.43450    0.82380    0.10490    1.000
    C938     C        0.42231    0.95360    0.03490    1.000
    C939     C        0.39452    0.73130    0.16730    1.000
    C940     C        0.38325    0.70080    0.13740    1.000
    C941     C        0.37054    0.71740    0.10870    1.000
    H605     H        0.36820    0.74900    0.10750    1.000
    C942     C        0.36144    0.68900    0.08250    1.000
    H606     H        0.35300    0.70190    0.06240    1.000
    C943     C        0.36309    0.64390    0.08170    1.000
    C944     C        0.37652    0.62660    0.11090    1.000
    H607     H        0.37900    0.59510    0.11140    1.000
    C945     C        0.38571    0.65520    0.13800    1.000
    H608     H        0.39420    0.64300    0.15830    1.000
    C946     C        0.35246    0.61450    0.05310    1.000
    C947     C        0.33575    0.62610    0.03430    1.000
    H609     H        0.33050    0.65420    0.04230    1.000
    C948     C        0.32724    0.59970    0.00640    1.000
    H610     H        0.31640    0.61020    0.99370    1.000
    C949     C        0.33327    0.55690    0.99450    1.000
    C950     C        0.34930    0.54250    0.01340    1.000
    H611     H        0.35370    0.51310    0.00670    1.000
    C951     C        0.35905    0.57080    0.04220    1.000
    H612     H        0.37010    0.56070    0.05440    1.000
    N81      N        0.32395    0.52990    0.96390    1.000
    N82      N        0.41706    0.85892    0.13980    1.000
    N83      N        0.41303    0.99143    0.02700    1.000
    N84      N        0.43225    0.98350    0.97210    1.000
    N85      N        0.43379    0.94870    0.00130    1.000
    N86      N        0.39965    0.01090    0.05430    1.000
    H613     H        0.39660    0.99800    0.07970    1.000
    H614     H        0.39440    0.03610    0.04580    1.000
    N87      N        0.40201    0.12850    0.92180    1.000
    O121     O        0.40548    0.34673    0.73550    1.000
    O122     O        0.39183    0.28652    0.76500    1.000
    O123     O        0.40225    0.71304    0.19980    1.000
    O124     O        0.39437    0.77255    0.15740    1.000
    O125     O        0.18623    0.46729    0.93570    1.000
    O126     O        0.18330    0.50340    0.99900    1.000
    Zn31     Zn       0.41267    0.80929    0.18550    1.000
    Zn32     Zn       0.40697    0.72853    0.26790    1.000
    C952     C        0.37913    0.66290    0.30360    1.000
    C953     C        0.36777    0.63060    0.27730    1.000
    C954     C        0.36196    0.64330    0.23500    1.000
    H615     H        0.36510    0.67190    0.22280    1.000
    C955     C        0.35122    0.61300    0.21040    1.000
    H616     H        0.34720    0.62090    0.18110    1.000
    C956     C        0.34647    0.57190    0.22850    1.000
    C957     C        0.35167    0.55990    0.27090    1.000
    H617     H        0.34770    0.53220    0.28360    1.000
    C958     C        0.36307    0.58900    0.29610    1.000
    H618     H        0.36730    0.58040    0.32490    1.000
    C959     C        0.33544    0.53900    0.20160    1.000
    C960     C        0.33871    0.53340    0.15470    1.000
    H619     H        0.34780    0.55040    0.14010    1.000
    C961     C        0.32878    0.50380    0.13150    1.000
    H620     H        0.33100    0.49940    0.10040    1.000
    C962     C        0.31538    0.47950    0.15240    1.000
    C963     C        0.31157    0.48530    0.19660    1.000
    H621     H        0.30190    0.46920    0.20950    1.000
    C964     C        0.32132    0.51370    0.22300    1.000
    H622     H        0.31890    0.51670    0.25420    1.000
    C965     C        0.38095    0.23940    0.94320    1.000
    C966     C        0.36923    0.27010    0.97110    1.000
    C967     C        0.35272    0.27670    0.95790    1.000
    H623     H        0.34850    0.26340    0.93090    1.000
    C968     C        0.34092    0.30470    0.98550    1.000
    H624     H        0.32880    0.30800    0.97710    1.000
    C969     C        0.34679    0.32510    0.02110    1.000
    C970     C        0.36513    0.31950    0.03440    1.000
    H625     H        0.36970    0.33360    0.06070    1.000
    C971     C        0.37577    0.29290    0.00750    1.000
    H626     H        0.38810    0.29020    0.01450    1.000
    C972     C        0.33460    0.35580    0.04900    1.000
    C973     C        0.32071    0.37660    0.03160    1.000
    H627     H        0.31730    0.36900    0.00180    1.000
    C974     C        0.31071    0.40930    0.05410    1.000
    H628     H        0.30200    0.42710    0.03890    1.000
    C975     C        0.31399    0.41440    0.09870    1.000
    C976     C        0.32837    0.39030    0.11980    1.000
    H629     H        0.33080    0.39540    0.15070    1.000
    C977     C        0.33813    0.36160    0.09750    1.000
    H630     H        0.34730    0.34500    0.11200    1.000
    C978     C        0.17490    0.51690    0.10550    1.000
    C979     C        0.19439    0.50350    0.10830    1.000
    C980     C        0.20606    0.53180    0.13090    1.000
    H631     H        0.20190    0.55840    0.14530    1.000
    C981     C        0.22412    0.52030    0.13190    1.000
    H632     H        0.23230    0.53960    0.14700    1.000
    C982     C        0.23021    0.48270    0.11220    1.000
    C983     C        0.21880    0.45380    0.08980    1.000
    H633     H        0.22340    0.42740    0.07580    1.000
    C984     C        0.19973    0.46380    0.08770    1.000
    H634     H        0.19150    0.44430    0.07310    1.000
    C985     C        0.24984    0.47160    0.11390    1.000
    C986     C        0.26187    0.50740    0.12210    1.000
    H635     H        0.25750    0.53720    0.12640    1.000
    C987     C        0.27983    0.49930    0.12400    1.000
    H636     H        0.28790    0.52360    0.12850    1.000
    C988     C        0.28627    0.45520    0.11930    1.000
    C989     C        0.27495    0.42110    0.11170    1.000
    H637     H        0.27950    0.39130    0.10870    1.000
    C990     C        0.25603    0.42850    0.10810    1.000
    H638     H        0.24810    0.40430    0.10180    1.000
    N88      N        0.30492    0.44610    0.12520    1.000
    O127     O        0.16449    0.49567    0.08030    1.000
    O128     O        0.17052    0.54940    0.13080    1.000
    O129     O        0.38224    0.70104    0.28720    1.000
    O130     O        0.38399    0.64917    0.34100    1.000
    O131     O        0.37593    0.22292    0.90900    1.000
    O132     O        0.39751    0.23170    0.96060    1.000
    Zn33     Zn       0.39552    0.18527    0.88770    1.000
    C991     C        0.42480    0.58510    0.45620    1.000
    H639     H        0.43680    0.58160    0.46600    1.000
    C992     C        0.39193    0.59570    0.42880    1.000
    H640     H        0.38000    0.59850    0.41850    1.000
    C993     C        0.35582    0.94000    0.38340    1.000
    C994     C        0.42040    0.62720    0.43460    1.000
    H641     H        0.42860    0.65110    0.42960    1.000
    C995     C        0.29602    0.02340    0.50560    1.000
    H642     H        0.30230    0.02350    0.53330    1.000
    C996     C        0.41308    0.54860    0.46410    1.000
    C997     C        0.41971    0.50830    0.48840    1.000
    C998     C        0.33404    0.99800    0.43800    1.000
    C999     C        0.27738    0.02060    0.50300    1.000
    H643     H        0.27090    0.02020    0.53050    1.000
    C1000    C        0.34074    0.92500    0.40580    1.000
    H644     H        0.33700    0.89460    0.40220    1.000
    C1001    C        0.39654    0.55350    0.45100    1.000
    H645     H        0.38790    0.53050    0.45580    1.000
    C1002    C        0.40806    0.39690    0.64110    1.000
    H646     H        0.40000    0.40160    0.66530    1.000
    C1003    C        0.39469    0.82770    0.26310    1.000
    C1004    C        0.38555    0.85770    0.29620    1.000
    C1005    C        0.37865    0.84120    0.33550    1.000
    H647     H        0.38050    0.81040    0.34290    1.000
    C1006    C        0.36932    0.86770    0.36390    1.000
    H648     H        0.36490    0.85490    0.39100    1.000
    C1007    C        0.36595    0.91290    0.35500    1.000
    C1008    C        0.37441    0.93060    0.31640    1.000
    H649     H        0.37340    0.96190    0.31000    1.000
    C1009    C        0.38417    0.90320    0.28740    1.000
    H650     H        0.38980    0.91580    0.26170    1.000
    C1010    C        0.42097    0.42210    0.57240    1.000
    C1011    C        0.40969    0.42850    0.61050    1.000
    H651     H        0.40330    0.45600    0.61380    1.000
    C1012    C        0.33085    0.95420    0.43390    1.000
    H652     H        0.32130    0.94170    0.45100    1.000
    C1013    C        0.43020    0.38280    0.56980    1.000
    H653     H        0.43780    0.37650    0.54510    1.000
    C1014    C        0.34953    0.01710    0.41390    1.000
    H654     H        0.35240    0.04840    0.41500    1.000
    C1015    C        0.35922    0.98810    0.39060    1.000
    H655     H        0.36970    0.00000    0.37680    1.000
    C1016    C        0.19126    0.98880    0.46630    1.000
    C1017    C        0.21187    0.99900    0.46520    1.000
    C1018    C        0.22201    0.98310    0.42930    1.000
    H656     H        0.21650    0.96670    0.40560    1.000
    C1019    C        0.24009    0.99140    0.42850    1.000
    H657     H        0.24700    0.98210    0.40330    1.000
    C1020    C        0.24849    0.01340    0.46460    1.000
    C1021    C        0.23769    0.02840    0.49930    1.000
    H658     H        0.24330    0.04270    0.52420    1.000
    C1022    C        0.22010    0.02420    0.50000    1.000
    H659     H        0.21320    0.03770    0.52320    1.000
    C1023    C        0.26800    0.01860    0.46460    1.000
    C1024    C        0.27827    0.01930    0.42440    1.000
    H660     H        0.27260    0.01780    0.39590    1.000
    C1025    C        0.29607    0.02200    0.42730    1.000
    H661     H        0.30270    0.02110    0.40010    1.000
    C1026    C        0.30470    0.02580    0.46420    1.000
    C1027    C        0.42797    0.35130    0.60560    1.000
    H662     H        0.43450    0.32380    0.60490    1.000
    C1028    C        0.42231    0.45360    0.53490    1.000
    C1029    C        0.39452    0.23130    0.66730    1.000
    C1030    C        0.38325    0.20080    0.63740    1.000
    C1031    C        0.37054    0.21740    0.60870    1.000
    H663     H        0.36820    0.24900    0.60750    1.000
    C1032    C        0.36144    0.18900    0.58250    1.000
    H664     H        0.35300    0.20190    0.56240    1.000
    C1033    C        0.36309    0.14390    0.58170    1.000
    C1034    C        0.37652    0.12660    0.61090    1.000
    H665     H        0.37900    0.09510    0.61140    1.000
    C1035    C        0.38571    0.15520    0.63800    1.000
    H666     H        0.39420    0.14300    0.65830    1.000
    C1036    C        0.35246    0.11450    0.55310    1.000
    C1037    C        0.33575    0.12610    0.53430    1.000
    H667     H        0.33050    0.15420    0.54230    1.000
    C1038    C        0.32724    0.09970    0.50640    1.000
    H668     H        0.31640    0.11020    0.49370    1.000
    C1039    C        0.33327    0.05690    0.49450    1.000
    C1040    C        0.34930    0.04250    0.51340    1.000
    H669     H        0.35370    0.01310    0.50670    1.000
    C1041    C        0.35905    0.07080    0.54220    1.000
    H670     H        0.37010    0.06070    0.55440    1.000
    N89      N        0.32395    0.02990    0.46390    1.000
    N90      N        0.41706    0.35892    0.63980    1.000
    N91      N        0.41303    0.49143    0.52700    1.000
    N92      N        0.43225    0.48350    0.47210    1.000
    N93      N        0.43379    0.44870    0.50130    1.000
    N94      N        0.39965    0.51090    0.55430    1.000
    H671     H        0.39660    0.49800    0.57970    1.000
    H672     H        0.39440    0.53610    0.54580    1.000
    N95      N        0.40201    0.62850    0.42180    1.000
    O133     O        0.40548    0.84673    0.23550    1.000
    O134     O        0.39183    0.78652    0.26500    1.000
    O135     O        0.40225    0.21304    0.69980    1.000
    O136     O        0.39437    0.27255    0.65740    1.000
    O137     O        0.18623    0.96729    0.43570    1.000
    O138     O        0.18330    0.00340    0.49900    1.000
    Zn34     Zn       0.41267    0.30929    0.68550    1.000
    Zn35     Zn       0.40697    0.22853    0.76790    1.000
    C1042    C        0.37913    0.16290    0.80360    1.000
    C1043    C        0.36777    0.13060    0.77730    1.000
    C1044    C        0.36196    0.14330    0.73500    1.000
    H673     H        0.36510    0.17190    0.72280    1.000
    C1045    C        0.35122    0.11300    0.71040    1.000
    H674     H        0.34720    0.12090    0.68110    1.000
    C1046    C        0.34647    0.07190    0.72850    1.000
    C1047    C        0.35167    0.05990    0.77090    1.000
    H675     H        0.34770    0.03220    0.78360    1.000
    C1048    C        0.36307    0.08900    0.79610    1.000
    H676     H        0.36730    0.08040    0.82490    1.000
    C1049    C        0.33544    0.03900    0.70160    1.000
    C1050    C        0.33871    0.03340    0.65470    1.000
    H677     H        0.34780    0.05040    0.64010    1.000
    C1051    C        0.32878    0.00380    0.63150    1.000
    H678     H        0.33100    0.99940    0.60040    1.000
    C1052    C        0.31538    0.97950    0.65240    1.000
    C1053    C        0.31157    0.98530    0.69660    1.000
    H679     H        0.30190    0.96920    0.70950    1.000
    C1054    C        0.32132    0.01370    0.72300    1.000
    H680     H        0.31890    0.01670    0.75420    1.000
    C1055    C        0.38095    0.73940    0.44320    1.000
    C1056    C        0.36923    0.77010    0.47110    1.000
    C1057    C        0.35272    0.77670    0.45790    1.000
    H681     H        0.34850    0.76340    0.43090    1.000
    C1058    C        0.34092    0.80470    0.48550    1.000
    H682     H        0.32880    0.80800    0.47710    1.000
    C1059    C        0.34679    0.82510    0.52110    1.000
    C1060    C        0.36513    0.81950    0.53440    1.000
    H683     H        0.36970    0.83360    0.56070    1.000
    C1061    C        0.37577    0.79290    0.50750    1.000
    H684     H        0.38810    0.79020    0.51450    1.000
    C1062    C        0.33460    0.85580    0.54900    1.000
    C1063    C        0.32071    0.87660    0.53160    1.000
    H685     H        0.31730    0.86900    0.50180    1.000
    C1064    C        0.31071    0.90930    0.55410    1.000
    H686     H        0.30200    0.92710    0.53890    1.000
    C1065    C        0.31399    0.91440    0.59870    1.000
    C1066    C        0.32837    0.89030    0.61980    1.000
    H687     H        0.33080    0.89540    0.65070    1.000
    C1067    C        0.33813    0.86160    0.59750    1.000
    H688     H        0.34730    0.84500    0.61200    1.000
    C1068    C        0.17490    0.01690    0.60550    1.000
    C1069    C        0.19439    0.00350    0.60830    1.000
    C1070    C        0.20606    0.03180    0.63090    1.000
    H689     H        0.20190    0.05840    0.64530    1.000
    C1071    C        0.22412    0.02030    0.63190    1.000
    H690     H        0.23230    0.03960    0.64700    1.000
    C1072    C        0.23021    0.98270    0.61220    1.000
    C1073    C        0.21880    0.95380    0.58980    1.000
    H691     H        0.22340    0.92740    0.57580    1.000
    C1074    C        0.19973    0.96380    0.58770    1.000
    H692     H        0.19150    0.94430    0.57310    1.000
    C1075    C        0.24984    0.97160    0.61390    1.000
    C1076    C        0.26187    0.00740    0.62210    1.000
    H693     H        0.25750    0.03720    0.62640    1.000
    C1077    C        0.27983    0.99930    0.62400    1.000
    H694     H        0.28790    0.02360    0.62850    1.000
    C1078    C        0.28627    0.95520    0.61930    1.000
    C1079    C        0.27495    0.92110    0.61170    1.000
    H695     H        0.27950    0.89130    0.60870    1.000
    C1080    C        0.25603    0.92850    0.60810    1.000
    H696     H        0.24810    0.90430    0.60180    1.000
    N96      N        0.30492    0.94610    0.62520    1.000
    O139     O        0.16449    0.99567    0.58030    1.000
    O140     O        0.17052    0.04940    0.63080    1.000
    O141     O        0.38224    0.20104    0.78720    1.000
    O142     O        0.38399    0.14917    0.84100    1.000
    O143     O        0.37593    0.72292    0.40900    1.000
    O144     O        0.39751    0.73170    0.46060    1.000
    Zn36     Zn       0.39552    0.68527    0.38770    1.000
    C1081    C        0.17480    0.16490    0.70620    1.000
    H697     H        0.18680    0.16840    0.71600    1.000
    C1082    C        0.14193    0.15430    0.67880    1.000
    H698     H        0.13000    0.15150    0.66850    1.000
    C1083    C        0.10582    0.81000    0.63340    1.000
    C1084    C        0.17040    0.12280    0.68460    1.000
    H699     H        0.17860    0.09890    0.67960    1.000
    C1085    C        0.04602    0.72660    0.75560    1.000
    H700     H        0.05230    0.72650    0.78330    1.000
    C1086    C        0.16308    0.20140    0.71410    1.000
    C1087    C        0.16971    0.24170    0.73840    1.000
    C1088    C        0.08404    0.75200    0.68800    1.000
    C1089    C        0.02738    0.72940    0.75300    1.000
    H701     H        0.02090    0.72980    0.78050    1.000
    C1090    C        0.09074    0.82500    0.65580    1.000
    H702     H        0.08700    0.85540    0.65220    1.000
    C1091    C        0.14654    0.19650    0.70100    1.000
    H703     H        0.13790    0.21950    0.70580    1.000
    C1092    C        0.15806    0.35310    0.89110    1.000
    H704     H        0.15000    0.34840    0.91530    1.000
    C1093    C        0.14469    0.92230    0.51310    1.000
    C1094    C        0.13555    0.89230    0.54620    1.000
    C1095    C        0.12865    0.90880    0.58550    1.000
    H705     H        0.13050    0.93960    0.59290    1.000
    C1096    C        0.11932    0.88230    0.61390    1.000
    H706     H        0.11490    0.89510    0.64100    1.000
    C1097    C        0.11595    0.83710    0.60500    1.000
    C1098    C        0.12441    0.81940    0.56640    1.000
    H707     H        0.12340    0.78810    0.56000    1.000
    C1099    C        0.13417    0.84680    0.53740    1.000
    H708     H        0.13980    0.83420    0.51170    1.000
    C1100    C        0.17097    0.32790    0.82240    1.000
    C1101    C        0.15969    0.32150    0.86050    1.000
    H709     H        0.15330    0.29400    0.86380    1.000
    C1102    C        0.08085    0.79580    0.68390    1.000
    H710     H        0.07130    0.80830    0.70100    1.000
    C1103    C        0.18020    0.36720    0.81980    1.000
    H711     H        0.18780    0.37350    0.79510    1.000
    C1104    C        0.09953    0.73290    0.66390    1.000
    H712     H        0.10240    0.70160    0.66500    1.000
    C1105    C        0.10922    0.76190    0.64060    1.000
    H713     H        0.11970    0.75000    0.62680    1.000
    C1106    C        0.94126    0.76120    0.71630    1.000
    C1107    C        0.96187    0.75100    0.71520    1.000
    C1108    C        0.97201    0.76690    0.67930    1.000
    H714     H        0.96650    0.78330    0.65560    1.000
    C1109    C        0.99009    0.75860    0.67850    1.000
    H715     H        0.99700    0.76790    0.65330    1.000
    C1110    C        0.99849    0.73660    0.71460    1.000
    C1111    C        0.98769    0.72160    0.74930    1.000
    H716     H        0.99330    0.70730    0.77420    1.000
    C1112    C        0.97010    0.72580    0.75000    1.000
    H717     H        0.96320    0.71230    0.77320    1.000
    C1113    C        0.01800    0.73140    0.71460    1.000
    C1114    C        0.02827    0.73070    0.67440    1.000
    H718     H        0.02260    0.73220    0.64590    1.000
    C1115    C        0.04607    0.72800    0.67730    1.000
    H719     H        0.05270    0.72890    0.65010    1.000
    C1116    C        0.05470    0.72420    0.71420    1.000
    C1117    C        0.17797    0.39870    0.85560    1.000
    H720     H        0.18450    0.42620    0.85490    1.000
    C1118    C        0.17231    0.29640    0.78490    1.000
    C1119    C        0.14452    0.51870    0.91730    1.000
    C1120    C        0.13325    0.54920    0.88740    1.000
    C1121    C        0.12054    0.53260    0.85870    1.000
    H721     H        0.11820    0.50100    0.85750    1.000
    C1122    C        0.11144    0.56100    0.83250    1.000
    H722     H        0.10300    0.54810    0.81240    1.000
    C1123    C        0.11309    0.60610    0.83170    1.000
    C1124    C        0.12652    0.62340    0.86090    1.000
    H723     H        0.12900    0.65490    0.86140    1.000
    C1125    C        0.13571    0.59480    0.88800    1.000
    H724     H        0.14420    0.60700    0.90830    1.000
    C1126    C        0.10246    0.63550    0.80310    1.000
    C1127    C        0.08575    0.62390    0.78430    1.000
    H725     H        0.08050    0.59580    0.79230    1.000
    C1128    C        0.07724    0.65030    0.75640    1.000
    H726     H        0.06640    0.63980    0.74370    1.000
    C1129    C        0.08327    0.69310    0.74450    1.000
    C1130    C        0.09930    0.70750    0.76340    1.000
    H727     H        0.10370    0.73690    0.75670    1.000
    C1131    C        0.10905    0.67920    0.79220    1.000
    H728     H        0.12010    0.68930    0.80440    1.000
    N97      N        0.07395    0.72010    0.71390    1.000
    N98      N        0.16706    0.39108    0.88980    1.000
    N99      N        0.16303    0.25857    0.77700    1.000
    N100     N        0.18225    0.26650    0.72210    1.000
    N101     N        0.18379    0.30130    0.75130    1.000
    N102     N        0.14965    0.23910    0.80430    1.000
    H729     H        0.14660    0.25200    0.82970    1.000
    H730     H        0.14440    0.21390    0.79580    1.000
    N103     N        0.15201    0.12150    0.67180    1.000
    O145     O        0.15548    0.90327    0.48550    1.000
    O146     O        0.14183    0.96348    0.51500    1.000
    O147     O        0.15225    0.53696    0.94980    1.000
    O148     O        0.14437    0.47745    0.90740    1.000
    O149     O        0.93623    0.78271    0.68570    1.000
    O150     O        0.93330    0.74660    0.74900    1.000
    Zn37     Zn       0.16267    0.44071    0.93550    1.000
    Zn38     Zn       0.15697    0.52147    0.01790    1.000
    C1132    C        0.12913    0.58710    0.05360    1.000
    C1133    C        0.11777    0.61940    0.02730    1.000
    C1134    C        0.11196    0.60670    0.98500    1.000
    H731     H        0.11510    0.57810    0.97280    1.000
    C1135    C        0.10122    0.63700    0.96040    1.000
    H732     H        0.09720    0.62910    0.93110    1.000
    C1136    C        0.09647    0.67810    0.97850    1.000
    C1137    C        0.10167    0.69010    0.02090    1.000
    H733     H        0.09770    0.71780    0.03360    1.000
    C1138    C        0.11307    0.66100    0.04610    1.000
    H734     H        0.11730    0.66960    0.07490    1.000
    C1139    C        0.08544    0.71100    0.95160    1.000
    C1140    C        0.08871    0.71660    0.90470    1.000
    H735     H        0.09780    0.69960    0.89010    1.000
    C1141    C        0.07878    0.74620    0.88150    1.000
    H736     H        0.08100    0.75060    0.85040    1.000
    C1142    C        0.06538    0.77050    0.90240    1.000
    C1143    C        0.06157    0.76470    0.94660    1.000
    H737     H        0.05190    0.78080    0.95950    1.000
    C1144    C        0.07132    0.73630    0.97300    1.000
    H738     H        0.06890    0.73330    0.00420    1.000
    C1145    C        0.13095    0.01060    0.69320    1.000
    C1146    C        0.11923    0.97990    0.72110    1.000
    C1147    C        0.10272    0.97330    0.70790    1.000
    H739     H        0.09850    0.98660    0.68090    1.000
    C1148    C        0.09092    0.94530    0.73550    1.000
    H740     H        0.07880    0.94200    0.72710    1.000
    C1149    C        0.09679    0.92490    0.77110    1.000
    C1150    C        0.11513    0.93050    0.78440    1.000
    H741     H        0.11970    0.91640    0.81070    1.000
    C1151    C        0.12577    0.95710    0.75750    1.000
    H742     H        0.13810    0.95980    0.76450    1.000
    C1152    C        0.08460    0.89420    0.79900    1.000
    C1153    C        0.07071    0.87340    0.78160    1.000
    H743     H        0.06730    0.88100    0.75180    1.000
    C1154    C        0.06071    0.84070    0.80410    1.000
    H744     H        0.05200    0.82290    0.78890    1.000
    C1155    C        0.06399    0.83560    0.84870    1.000
    C1156    C        0.07837    0.85970    0.86980    1.000
    H745     H        0.08080    0.85460    0.90070    1.000
    C1157    C        0.08813    0.88840    0.84750    1.000
    H746     H        0.09730    0.90500    0.86200    1.000
    C1158    C        0.92490    0.73310    0.85550    1.000
    C1159    C        0.94439    0.74650    0.85830    1.000
    C1160    C        0.95606    0.71820    0.88090    1.000
    H747     H        0.95190    0.69160    0.89530    1.000
    C1161    C        0.97412    0.72970    0.88190    1.000
    H748     H        0.98230    0.71040    0.89700    1.000
    C1162    C        0.98021    0.76730    0.86220    1.000
    C1163    C        0.96880    0.79620    0.83980    1.000
    H749     H        0.97340    0.82260    0.82580    1.000
    C1164    C        0.94973    0.78620    0.83770    1.000
    H750     H        0.94150    0.80570    0.82310    1.000
    C1165    C        0.99984    0.77840    0.86390    1.000
    C1166    C        0.01187    0.74260    0.87210    1.000
    H751     H        0.00750    0.71280    0.87640    1.000
    C1167    C        0.02983    0.75070    0.87400    1.000
    H752     H        0.03790    0.72640    0.87850    1.000
    C1168    C        0.03627    0.79480    0.86930    1.000
    C1169    C        0.02495    0.82890    0.86170    1.000
    H753     H        0.02950    0.85870    0.85870    1.000
    C1170    C        0.00603    0.82150    0.85810    1.000
    H754     H        0.99810    0.84570    0.85180    1.000
    N104     N        0.05492    0.80390    0.87520    1.000
    O151     O        0.91449    0.75433    0.83030    1.000
    O152     O        0.92052    0.70060    0.88080    1.000
    O153     O        0.13224    0.54896    0.03720    1.000
    O154     O        0.13399    0.60083    0.09100    1.000
    O155     O        0.12593    0.02708    0.65900    1.000
    O156     O        0.14751    0.01830    0.71060    1.000
    Zn39     Zn       0.14552    0.06473    0.63770    1.000
    C1171    C        0.17480    0.66490    0.20620    1.000
    H755     H        0.18680    0.66840    0.21600    1.000
    C1172    C        0.14193    0.65430    0.17880    1.000
    H756     H        0.13000    0.65150    0.16850    1.000
    C1173    C        0.10582    0.31000    0.13340    1.000
    C1174    C        0.17040    0.62280    0.18460    1.000
    H757     H        0.17860    0.59890    0.17960    1.000
    C1175    C        0.04602    0.22660    0.25560    1.000
    H758     H        0.05230    0.22650    0.28330    1.000
    C1176    C        0.16308    0.70140    0.21410    1.000
    C1177    C        0.16971    0.74170    0.23840    1.000
    C1178    C        0.08404    0.25200    0.18800    1.000
    C1179    C        0.02738    0.22940    0.25300    1.000
    H759     H        0.02090    0.22980    0.28050    1.000
    C1180    C        0.09074    0.32500    0.15580    1.000
    H760     H        0.08700    0.35540    0.15220    1.000
    C1181    C        0.14654    0.69650    0.20100    1.000
    H761     H        0.13790    0.71950    0.20580    1.000
    C1182    C        0.15806    0.85310    0.39110    1.000
    H762     H        0.15000    0.84840    0.41530    1.000
    C1183    C        0.14469    0.42230    0.01310    1.000
    C1184    C        0.13555    0.39230    0.04620    1.000
    C1185    C        0.12865    0.40880    0.08550    1.000
    H763     H        0.13050    0.43960    0.09290    1.000
    C1186    C        0.11932    0.38230    0.11390    1.000
    H764     H        0.11490    0.39510    0.14100    1.000
    C1187    C        0.11595    0.33710    0.10500    1.000
    C1188    C        0.12441    0.31940    0.06640    1.000
    H765     H        0.12340    0.28810    0.06000    1.000
    C1189    C        0.13417    0.34680    0.03740    1.000
    H766     H        0.13980    0.33420    0.01170    1.000
    C1190    C        0.17097    0.82790    0.32240    1.000
    C1191    C        0.15969    0.82150    0.36050    1.000
    H767     H        0.15330    0.79400    0.36380    1.000
    C1192    C        0.08085    0.29580    0.18390    1.000
    H768     H        0.07130    0.30830    0.20100    1.000
    C1193    C        0.18020    0.86720    0.31980    1.000
    H769     H        0.18780    0.87350    0.29510    1.000
    C1194    C        0.09953    0.23290    0.16390    1.000
    H770     H        0.10240    0.20160    0.16500    1.000
    C1195    C        0.10922    0.26190    0.14060    1.000
    H771     H        0.11970    0.25000    0.12680    1.000
    C1196    C        0.94126    0.26120    0.21630    1.000
    C1197    C        0.96187    0.25100    0.21520    1.000
    C1198    C        0.97201    0.26690    0.17930    1.000
    H772     H        0.96650    0.28330    0.15560    1.000
    C1199    C        0.99009    0.25860    0.17850    1.000
    H773     H        0.99700    0.26790    0.15330    1.000
    C1200    C        0.99849    0.23660    0.21460    1.000
    C1201    C        0.98769    0.22160    0.24930    1.000
    H774     H        0.99330    0.20730    0.27420    1.000
    C1202    C        0.97010    0.22580    0.25000    1.000
    H775     H        0.96320    0.21230    0.27320    1.000
    C1203    C        0.01800    0.23140    0.21460    1.000
    C1204    C        0.02827    0.23070    0.17440    1.000
    H776     H        0.02260    0.23220    0.14590    1.000
    C1205    C        0.04607    0.22800    0.17730    1.000
    H777     H        0.05270    0.22890    0.15010    1.000
    C1206    C        0.05470    0.22420    0.21420    1.000
    C1207    C        0.17797    0.89870    0.35560    1.000
    H778     H        0.18450    0.92620    0.35490    1.000
    C1208    C        0.17231    0.79640    0.28490    1.000
    C1209    C        0.14452    0.01870    0.41730    1.000
    C1210    C        0.13325    0.04920    0.38740    1.000
    C1211    C        0.12054    0.03260    0.35870    1.000
    H779     H        0.11820    0.00100    0.35750    1.000
    C1212    C        0.11144    0.06100    0.33250    1.000
    H780     H        0.10300    0.04810    0.31240    1.000
    C1213    C        0.11309    0.10610    0.33170    1.000
    C1214    C        0.12652    0.12340    0.36090    1.000
    H781     H        0.12900    0.15490    0.36140    1.000
    C1215    C        0.13571    0.09480    0.38800    1.000
    H782     H        0.14420    0.10700    0.40830    1.000
    C1216    C        0.10246    0.13550    0.30310    1.000
    C1217    C        0.08575    0.12390    0.28430    1.000
    H783     H        0.08050    0.09580    0.29230    1.000
    C1218    C        0.07724    0.15030    0.25640    1.000
    H784     H        0.06640    0.13980    0.24370    1.000
    C1219    C        0.08327    0.19310    0.24450    1.000
    C1220    C        0.09930    0.20750    0.26340    1.000
    H785     H        0.10370    0.23690    0.25670    1.000
    C1221    C        0.10905    0.17920    0.29220    1.000
    H786     H        0.12010    0.18930    0.30440    1.000
    N105     N        0.07395    0.22010    0.21390    1.000
    N106     N        0.16706    0.89108    0.38980    1.000
    N107     N        0.16303    0.75857    0.27700    1.000
    N108     N        0.18225    0.76650    0.22210    1.000
    N109     N        0.18379    0.80130    0.25130    1.000
    N110     N        0.14965    0.73910    0.30430    1.000
    H787     H        0.14660    0.75200    0.32970    1.000
    H788     H        0.14440    0.71390    0.29580    1.000
    N111     N        0.15201    0.62150    0.17180    1.000
    O157     O        0.15548    0.40327    0.98550    1.000
    O158     O        0.14183    0.46348    0.01500    1.000
    O159     O        0.15225    0.03696    0.44980    1.000
    O160     O        0.14437    0.97745    0.40740    1.000
    O161     O        0.93623    0.28271    0.18570    1.000
    O162     O        0.93330    0.24660    0.24900    1.000
    Zn40     Zn       0.16267    0.94071    0.43550    1.000
    Zn41     Zn       0.15697    0.02147    0.51790    1.000
    C1222    C        0.12913    0.08710    0.55360    1.000
    C1223    C        0.11777    0.11940    0.52730    1.000
    C1224    C        0.11196    0.10670    0.48500    1.000
    H789     H        0.11510    0.07810    0.47280    1.000
    C1225    C        0.10122    0.13700    0.46040    1.000
    H790     H        0.09720    0.12910    0.43110    1.000
    C1226    C        0.09647    0.17810    0.47850    1.000
    C1227    C        0.10167    0.19010    0.52090    1.000
    H791     H        0.09770    0.21780    0.53360    1.000
    C1228    C        0.11307    0.16100    0.54610    1.000
    H792     H        0.11730    0.16960    0.57490    1.000
    C1229    C        0.08544    0.21100    0.45160    1.000
    C1230    C        0.08871    0.21660    0.40470    1.000
    H793     H        0.09780    0.19960    0.39010    1.000
    C1231    C        0.07878    0.24620    0.38150    1.000
    H794     H        0.08100    0.25060    0.35040    1.000
    C1232    C        0.06538    0.27050    0.40240    1.000
    C1233    C        0.06157    0.26470    0.44660    1.000
    H795     H        0.05190    0.28080    0.45950    1.000
    C1234    C        0.07132    0.23630    0.47300    1.000
    H796     H        0.06890    0.23330    0.50420    1.000
    C1235    C        0.13095    0.51060    0.19320    1.000
    C1236    C        0.11923    0.47990    0.22110    1.000
    C1237    C        0.10272    0.47330    0.20790    1.000
    H797     H        0.09850    0.48660    0.18090    1.000
    C1238    C        0.09092    0.44530    0.23550    1.000
    H798     H        0.07880    0.44200    0.22710    1.000
    C1239    C        0.09679    0.42490    0.27110    1.000
    C1240    C        0.11513    0.43050    0.28440    1.000
    H799     H        0.11970    0.41640    0.31070    1.000
    C1241    C        0.12577    0.45710    0.25750    1.000
    H800     H        0.13810    0.45980    0.26450    1.000
    C1242    C        0.08460    0.39420    0.29900    1.000
    C1243    C        0.07071    0.37340    0.28160    1.000
    H801     H        0.06730    0.38100    0.25180    1.000
    C1244    C        0.06071    0.34070    0.30410    1.000
    H802     H        0.05200    0.32290    0.28890    1.000
    C1245    C        0.06399    0.33560    0.34870    1.000
    C1246    C        0.07837    0.35970    0.36980    1.000
    H803     H        0.08080    0.35460    0.40070    1.000
    C1247    C        0.08813    0.38840    0.34750    1.000
    H804     H        0.09730    0.40500    0.36200    1.000
    C1248    C        0.92490    0.23310    0.35550    1.000
    C1249    C        0.94439    0.24650    0.35830    1.000
    C1250    C        0.95606    0.21820    0.38090    1.000
    H805     H        0.95190    0.19160    0.39530    1.000
    C1251    C        0.97412    0.22970    0.38190    1.000
    H806     H        0.98230    0.21040    0.39700    1.000
    C1252    C        0.98021    0.26730    0.36220    1.000
    C1253    C        0.96880    0.29620    0.33980    1.000
    H807     H        0.97340    0.32260    0.32580    1.000
    C1254    C        0.94973    0.28620    0.33770    1.000
    H808     H        0.94150    0.30570    0.32310    1.000
    C1255    C        0.99984    0.27840    0.36390    1.000
    C1256    C        0.01187    0.24260    0.37210    1.000
    H809     H        0.00750    0.21280    0.37640    1.000
    C1257    C        0.02983    0.25070    0.37400    1.000
    H810     H        0.03790    0.22640    0.37850    1.000
    C1258    C        0.03627    0.29480    0.36930    1.000
    C1259    C        0.02495    0.32890    0.36170    1.000
    H811     H        0.02950    0.35870    0.35870    1.000
    C1260    C        0.00603    0.32150    0.35810    1.000
    H812     H        0.99810    0.34570    0.35180    1.000
    N112     N        0.05492    0.30390    0.37520    1.000
    O163     O        0.91449    0.25433    0.33030    1.000
    O164     O        0.92052    0.20060    0.38080    1.000
    O165     O        0.13224    0.04896    0.53720    1.000
    O166     O        0.13399    0.10083    0.59100    1.000
    O167     O        0.12593    0.52708    0.15900    1.000
    O168     O        0.14751    0.51830    0.21060    1.000
    Zn42     Zn       0.14552    0.56473    0.13770    1.000
    C1261    C        0.67480    0.16490    0.20620    1.000
    H813     H        0.68680    0.16840    0.21600    1.000
    C1262    C        0.64193    0.15430    0.17880    1.000
    H814     H        0.63000    0.15150    0.16850    1.000
    C1263    C        0.60582    0.81000    0.13340    1.000
    C1264    C        0.67040    0.12280    0.18460    1.000
    H815     H        0.67860    0.09890    0.17960    1.000
    C1265    C        0.54602    0.72660    0.25560    1.000
    H816     H        0.55230    0.72650    0.28330    1.000
    C1266    C        0.66308    0.20140    0.21410    1.000
    C1267    C        0.66971    0.24170    0.23840    1.000
    C1268    C        0.58404    0.75200    0.18800    1.000
    C1269    C        0.52738    0.72940    0.25300    1.000
    H817     H        0.52090    0.72980    0.28050    1.000
    C1270    C        0.59074    0.82500    0.15580    1.000
    H818     H        0.58700    0.85540    0.15220    1.000
    C1271    C        0.64654    0.19650    0.20100    1.000
    H819     H        0.63790    0.21950    0.20580    1.000
    C1272    C        0.65806    0.35310    0.39110    1.000
    H820     H        0.65000    0.34840    0.41530    1.000
    C1273    C        0.64469    0.92230    0.01310    1.000
    C1274    C        0.63555    0.89230    0.04620    1.000
    C1275    C        0.62865    0.90880    0.08550    1.000
    H821     H        0.63050    0.93960    0.09290    1.000
    C1276    C        0.61932    0.88230    0.11390    1.000
    H822     H        0.61490    0.89510    0.14100    1.000
    C1277    C        0.61595    0.83710    0.10500    1.000
    C1278    C        0.62441    0.81940    0.06640    1.000
    H823     H        0.62340    0.78810    0.06000    1.000
    C1279    C        0.63417    0.84680    0.03740    1.000
    H824     H        0.63980    0.83420    0.01170    1.000
    C1280    C        0.67097    0.32790    0.32240    1.000
    C1281    C        0.65969    0.32150    0.36050    1.000
    H825     H        0.65330    0.29400    0.36380    1.000
    C1282    C        0.58085    0.79580    0.18390    1.000
    H826     H        0.57130    0.80830    0.20100    1.000
    C1283    C        0.68020    0.36720    0.31980    1.000
    H827     H        0.68780    0.37350    0.29510    1.000
    C1284    C        0.59953    0.73290    0.16390    1.000
    H828     H        0.60240    0.70160    0.16500    1.000
    C1285    C        0.60922    0.76190    0.14060    1.000
    H829     H        0.61970    0.75000    0.12680    1.000
    C1286    C        0.44126    0.76120    0.21630    1.000
    C1287    C        0.46187    0.75100    0.21520    1.000
    C1288    C        0.47201    0.76690    0.17930    1.000
    H830     H        0.46650    0.78330    0.15560    1.000
    C1289    C        0.49009    0.75860    0.17850    1.000
    H831     H        0.49700    0.76790    0.15330    1.000
    C1290    C        0.49849    0.73660    0.21460    1.000
    C1291    C        0.48769    0.72160    0.24930    1.000
    H832     H        0.49330    0.70730    0.27420    1.000
    C1292    C        0.47010    0.72580    0.25000    1.000
    H833     H        0.46320    0.71230    0.27320    1.000
    C1293    C        0.51800    0.73140    0.21460    1.000
    C1294    C        0.52827    0.73070    0.17440    1.000
    H834     H        0.52260    0.73220    0.14590    1.000
    C1295    C        0.54607    0.72800    0.17730    1.000
    H835     H        0.55270    0.72890    0.15010    1.000
    C1296    C        0.55470    0.72420    0.21420    1.000
    C1297    C        0.67797    0.39870    0.35560    1.000
    H836     H        0.68450    0.42620    0.35490    1.000
    C1298    C        0.67231    0.29640    0.28490    1.000
    C1299    C        0.64452    0.51870    0.41730    1.000
    C1300    C        0.63325    0.54920    0.38740    1.000
    C1301    C        0.62054    0.53260    0.35870    1.000
    H837     H        0.61820    0.50100    0.35750    1.000
    C1302    C        0.61144    0.56100    0.33250    1.000
    H838     H        0.60300    0.54810    0.31240    1.000
    C1303    C        0.61309    0.60610    0.33170    1.000
    C1304    C        0.62652    0.62340    0.36090    1.000
    H839     H        0.62900    0.65490    0.36140    1.000
    C1305    C        0.63571    0.59480    0.38800    1.000
    H840     H        0.64420    0.60700    0.40830    1.000
    C1306    C        0.60246    0.63550    0.30310    1.000
    C1307    C        0.58575    0.62390    0.28430    1.000
    H841     H        0.58050    0.59580    0.29230    1.000
    C1308    C        0.57724    0.65030    0.25640    1.000
    H842     H        0.56640    0.63980    0.24370    1.000
    C1309    C        0.58327    0.69310    0.24450    1.000
    C1310    C        0.59930    0.70750    0.26340    1.000
    H843     H        0.60370    0.73690    0.25670    1.000
    C1311    C        0.60905    0.67920    0.29220    1.000
    H844     H        0.62010    0.68930    0.30440    1.000
    N113     N        0.57395    0.72010    0.21390    1.000
    N114     N        0.66706    0.39108    0.38980    1.000
    N115     N        0.66303    0.25857    0.27700    1.000
    N116     N        0.68225    0.26650    0.22210    1.000
    N117     N        0.68379    0.30130    0.25130    1.000
    N118     N        0.64965    0.23910    0.30430    1.000
    H845     H        0.64660    0.25200    0.32970    1.000
    H846     H        0.64440    0.21390    0.29580    1.000
    N119     N        0.65201    0.12150    0.17180    1.000
    O169     O        0.65548    0.90327    0.98550    1.000
    O170     O        0.64183    0.96348    0.01500    1.000
    O171     O        0.65225    0.53696    0.44980    1.000
    O172     O        0.64437    0.47745    0.40740    1.000
    O173     O        0.43623    0.78271    0.18570    1.000
    O174     O        0.43330    0.74660    0.24900    1.000
    Zn43     Zn       0.66267    0.44071    0.43550    1.000
    Zn44     Zn       0.65697    0.52147    0.51790    1.000
    C1312    C        0.62913    0.58710    0.55360    1.000
    C1313    C        0.61777    0.61940    0.52730    1.000
    C1314    C        0.61196    0.60670    0.48500    1.000
    H847     H        0.61510    0.57810    0.47280    1.000
    C1315    C        0.60122    0.63700    0.46040    1.000
    H848     H        0.59720    0.62910    0.43110    1.000
    C1316    C        0.59647    0.67810    0.47850    1.000
    C1317    C        0.60167    0.69010    0.52090    1.000
    H849     H        0.59770    0.71780    0.53360    1.000
    C1318    C        0.61307    0.66100    0.54610    1.000
    H850     H        0.61730    0.66960    0.57490    1.000
    C1319    C        0.58544    0.71100    0.45160    1.000
    C1320    C        0.58871    0.71660    0.40470    1.000
    H851     H        0.59780    0.69960    0.39010    1.000
    C1321    C        0.57878    0.74620    0.38150    1.000
    H852     H        0.58100    0.75060    0.35040    1.000
    C1322    C        0.56538    0.77050    0.40240    1.000
    C1323    C        0.56157    0.76470    0.44660    1.000
    H853     H        0.55190    0.78080    0.45950    1.000
    C1324    C        0.57132    0.73630    0.47300    1.000
    H854     H        0.56890    0.73330    0.50420    1.000
    C1325    C        0.63095    0.01060    0.19320    1.000
    C1326    C        0.61923    0.97990    0.22110    1.000
    C1327    C        0.60272    0.97330    0.20790    1.000
    H855     H        0.59850    0.98660    0.18090    1.000
    C1328    C        0.59092    0.94530    0.23550    1.000
    H856     H        0.57880    0.94200    0.22710    1.000
    C1329    C        0.59679    0.92490    0.27110    1.000
    C1330    C        0.61513    0.93050    0.28440    1.000
    H857     H        0.61970    0.91640    0.31070    1.000
    C1331    C        0.62577    0.95710    0.25750    1.000
    H858     H        0.63810    0.95980    0.26450    1.000
    C1332    C        0.58460    0.89420    0.29900    1.000
    C1333    C        0.57071    0.87340    0.28160    1.000
    H859     H        0.56730    0.88100    0.25180    1.000
    C1334    C        0.56071    0.84070    0.30410    1.000
    H860     H        0.55200    0.82290    0.28890    1.000
    C1335    C        0.56399    0.83560    0.34870    1.000
    C1336    C        0.57837    0.85970    0.36980    1.000
    H861     H        0.58080    0.85460    0.40070    1.000
    C1337    C        0.58813    0.88840    0.34750    1.000
    H862     H        0.59730    0.90500    0.36200    1.000
    C1338    C        0.42490    0.73310    0.35550    1.000
    C1339    C        0.44439    0.74650    0.35830    1.000
    C1340    C        0.45606    0.71820    0.38090    1.000
    H863     H        0.45190    0.69160    0.39530    1.000
    C1341    C        0.47412    0.72970    0.38190    1.000
    H864     H        0.48230    0.71040    0.39700    1.000
    C1342    C        0.48021    0.76730    0.36220    1.000
    C1343    C        0.46880    0.79620    0.33980    1.000
    H865     H        0.47340    0.82260    0.32580    1.000
    C1344    C        0.44973    0.78620    0.33770    1.000
    H866     H        0.44150    0.80570    0.32310    1.000
    C1345    C        0.49984    0.77840    0.36390    1.000
    C1346    C        0.51187    0.74260    0.37210    1.000
    H867     H        0.50750    0.71280    0.37640    1.000
    C1347    C        0.52983    0.75070    0.37400    1.000
    H868     H        0.53790    0.72640    0.37850    1.000
    C1348    C        0.53627    0.79480    0.36930    1.000
    C1349    C        0.52495    0.82890    0.36170    1.000
    H869     H        0.52950    0.85870    0.35870    1.000
    C1350    C        0.50603    0.82150    0.35810    1.000
    H870     H        0.49810    0.84570    0.35180    1.000
    N120     N        0.55492    0.80390    0.37520    1.000
    O175     O        0.41449    0.75433    0.33030    1.000
    O176     O        0.42052    0.70060    0.38080    1.000
    O177     O        0.63224    0.54896    0.53720    1.000
    O178     O        0.63399    0.60083    0.59100    1.000
    O179     O        0.62593    0.02708    0.15900    1.000
    O180     O        0.64751    0.01830    0.21060    1.000
    Zn45     Zn       0.64552    0.06473    0.13770    1.000
    C1351    C        0.67480    0.66490    0.70620    1.000
    H871     H        0.68680    0.66840    0.71600    1.000
    C1352    C        0.64193    0.65430    0.67880    1.000
    H872     H        0.63000    0.65150    0.66850    1.000
    C1353    C        0.60582    0.31000    0.63340    1.000
    C1354    C        0.67040    0.62280    0.68460    1.000
    H873     H        0.67860    0.59890    0.67960    1.000
    C1355    C        0.54602    0.22660    0.75560    1.000
    H874     H        0.55230    0.22650    0.78330    1.000
    C1356    C        0.66308    0.70140    0.71410    1.000
    C1357    C        0.66971    0.74170    0.73840    1.000
    C1358    C        0.58404    0.25200    0.68800    1.000
    C1359    C        0.52738    0.22940    0.75300    1.000
    H875     H        0.52090    0.22980    0.78050    1.000
    C1360    C        0.59074    0.32500    0.65580    1.000
    H876     H        0.58700    0.35540    0.65220    1.000
    C1361    C        0.64654    0.69650    0.70100    1.000
    H877     H        0.63790    0.71950    0.70580    1.000
    C1362    C        0.65806    0.85310    0.89110    1.000
    H878     H        0.65000    0.84840    0.91530    1.000
    C1363    C        0.64469    0.42230    0.51310    1.000
    C1364    C        0.63555    0.39230    0.54620    1.000
    C1365    C        0.62865    0.40880    0.58550    1.000
    H879     H        0.63050    0.43960    0.59290    1.000
    C1366    C        0.61932    0.38230    0.61390    1.000
    H880     H        0.61490    0.39510    0.64100    1.000
    C1367    C        0.61595    0.33710    0.60500    1.000
    C1368    C        0.62441    0.31940    0.56640    1.000
    H881     H        0.62340    0.28810    0.56000    1.000
    C1369    C        0.63417    0.34680    0.53740    1.000
    H882     H        0.63980    0.33420    0.51170    1.000
    C1370    C        0.67097    0.82790    0.82240    1.000
    C1371    C        0.65969    0.82150    0.86050    1.000
    H883     H        0.65330    0.79400    0.86380    1.000
    C1372    C        0.58085    0.29580    0.68390    1.000
    H884     H        0.57130    0.30830    0.70100    1.000
    C1373    C        0.68020    0.86720    0.81980    1.000
    H885     H        0.68780    0.87350    0.79510    1.000
    C1374    C        0.59953    0.23290    0.66390    1.000
    H886     H        0.60240    0.20160    0.66500    1.000
    C1375    C        0.60922    0.26190    0.64060    1.000
    H887     H        0.61970    0.25000    0.62680    1.000
    C1376    C        0.44126    0.26120    0.71630    1.000
    C1377    C        0.46187    0.25100    0.71520    1.000
    C1378    C        0.47201    0.26690    0.67930    1.000
    H888     H        0.46650    0.28330    0.65560    1.000
    C1379    C        0.49009    0.25860    0.67850    1.000
    H889     H        0.49700    0.26790    0.65330    1.000
    C1380    C        0.49849    0.23660    0.71460    1.000
    C1381    C        0.48769    0.22160    0.74930    1.000
    H890     H        0.49330    0.20730    0.77420    1.000
    C1382    C        0.47010    0.22580    0.75000    1.000
    H891     H        0.46320    0.21230    0.77320    1.000
    C1383    C        0.51800    0.23140    0.71460    1.000
    C1384    C        0.52827    0.23070    0.67440    1.000
    H892     H        0.52260    0.23220    0.64590    1.000
    C1385    C        0.54607    0.22800    0.67730    1.000
    H893     H        0.55270    0.22890    0.65010    1.000
    C1386    C        0.55470    0.22420    0.71420    1.000
    C1387    C        0.67797    0.89870    0.85560    1.000
    H894     H        0.68450    0.92620    0.85490    1.000
    C1388    C        0.67231    0.79640    0.78490    1.000
    C1389    C        0.64452    0.01870    0.91730    1.000
    C1390    C        0.63325    0.04920    0.88740    1.000
    C1391    C        0.62054    0.03260    0.85870    1.000
    H895     H        0.61820    0.00100    0.85750    1.000
    C1392    C        0.61144    0.06100    0.83250    1.000
    H896     H        0.60300    0.04810    0.81240    1.000
    C1393    C        0.61309    0.10610    0.83170    1.000
    C1394    C        0.62652    0.12340    0.86090    1.000
    H897     H        0.62900    0.15490    0.86140    1.000
    C1395    C        0.63571    0.09480    0.88800    1.000
    H898     H        0.64420    0.10700    0.90830    1.000
    C1396    C        0.60246    0.13550    0.80310    1.000
    C1397    C        0.58575    0.12390    0.78430    1.000
    H899     H        0.58050    0.09580    0.79230    1.000
    C1398    C        0.57724    0.15030    0.75640    1.000
    H900     H        0.56640    0.13980    0.74370    1.000
    C1399    C        0.58327    0.19310    0.74450    1.000
    C1400    C        0.59930    0.20750    0.76340    1.000
    H901     H        0.60370    0.23690    0.75670    1.000
    C1401    C        0.60905    0.17920    0.79220    1.000
    H902     H        0.62010    0.18930    0.80440    1.000
    N121     N        0.57395    0.22010    0.71390    1.000
    N122     N        0.66706    0.89108    0.88980    1.000
    N123     N        0.66303    0.75857    0.77700    1.000
    N124     N        0.68225    0.76650    0.72210    1.000
    N125     N        0.68379    0.80130    0.75130    1.000
    N126     N        0.64965    0.73910    0.80430    1.000
    H903     H        0.64660    0.75200    0.82970    1.000
    H904     H        0.64440    0.71390    0.79580    1.000
    N127     N        0.65201    0.62150    0.67180    1.000
    O181     O        0.65548    0.40327    0.48550    1.000
    O182     O        0.64183    0.46348    0.51500    1.000
    O183     O        0.65225    0.03696    0.94980    1.000
    O184     O        0.64437    0.97745    0.90740    1.000
    O185     O        0.43623    0.28271    0.68570    1.000
    O186     O        0.43330    0.24660    0.74900    1.000
    Zn46     Zn       0.66267    0.94071    0.93550    1.000
    Zn47     Zn       0.65697    0.02147    0.01790    1.000
    C1402    C        0.62913    0.08710    0.05360    1.000
    C1403    C        0.61777    0.11940    0.02730    1.000
    C1404    C        0.61196    0.10670    0.98500    1.000
    H905     H        0.61510    0.07810    0.97280    1.000
    C1405    C        0.60122    0.13700    0.96040    1.000
    H906     H        0.59720    0.12910    0.93110    1.000
    C1406    C        0.59647    0.17810    0.97850    1.000
    C1407    C        0.60167    0.19010    0.02090    1.000
    H907     H        0.59770    0.21780    0.03360    1.000
    C1408    C        0.61307    0.16100    0.04610    1.000
    H908     H        0.61730    0.16960    0.07490    1.000
    C1409    C        0.58544    0.21100    0.95160    1.000
    C1410    C        0.58871    0.21660    0.90470    1.000
    H909     H        0.59780    0.19960    0.89010    1.000
    C1411    C        0.57878    0.24620    0.88150    1.000
    H910     H        0.58100    0.25060    0.85040    1.000
    C1412    C        0.56538    0.27050    0.90240    1.000
    C1413    C        0.56157    0.26470    0.94660    1.000
    H911     H        0.55190    0.28080    0.95950    1.000
    C1414    C        0.57132    0.23630    0.97300    1.000
    H912     H        0.56890    0.23330    0.00420    1.000
    C1415    C        0.63095    0.51060    0.69320    1.000
    C1416    C        0.61923    0.47990    0.72110    1.000
    C1417    C        0.60272    0.47330    0.70790    1.000
    H913     H        0.59850    0.48660    0.68090    1.000
    C1418    C        0.59092    0.44530    0.73550    1.000
    H914     H        0.57880    0.44200    0.72710    1.000
    C1419    C        0.59679    0.42490    0.77110    1.000
    C1420    C        0.61513    0.43050    0.78440    1.000
    H915     H        0.61970    0.41640    0.81070    1.000
    C1421    C        0.62577    0.45710    0.75750    1.000
    H916     H        0.63810    0.45980    0.76450    1.000
    C1422    C        0.58460    0.39420    0.79900    1.000
    C1423    C        0.57071    0.37340    0.78160    1.000
    H917     H        0.56730    0.38100    0.75180    1.000
    C1424    C        0.56071    0.34070    0.80410    1.000
    H918     H        0.55200    0.32290    0.78890    1.000
    C1425    C        0.56399    0.33560    0.84870    1.000
    C1426    C        0.57837    0.35970    0.86980    1.000
    H919     H        0.58080    0.35460    0.90070    1.000
    C1427    C        0.58813    0.38840    0.84750    1.000
    H920     H        0.59730    0.40500    0.86200    1.000
    C1428    C        0.42490    0.23310    0.85550    1.000
    C1429    C        0.44439    0.24650    0.85830    1.000
    C1430    C        0.45606    0.21820    0.88090    1.000
    H921     H        0.45190    0.19160    0.89530    1.000
    C1431    C        0.47412    0.22970    0.88190    1.000
    H922     H        0.48230    0.21040    0.89700    1.000
    C1432    C        0.48021    0.26730    0.86220    1.000
    C1433    C        0.46880    0.29620    0.83980    1.000
    H923     H        0.47340    0.32260    0.82580    1.000
    C1434    C        0.44973    0.28620    0.83770    1.000
    H924     H        0.44150    0.30570    0.82310    1.000
    C1435    C        0.49984    0.27840    0.86390    1.000
    C1436    C        0.51187    0.24260    0.87210    1.000
    H925     H        0.50750    0.21280    0.87640    1.000
    C1437    C        0.52983    0.25070    0.87400    1.000
    H926     H        0.53790    0.22640    0.87850    1.000
    C1438    C        0.53627    0.29480    0.86930    1.000
    C1439    C        0.52495    0.32890    0.86170    1.000
    H927     H        0.52950    0.35870    0.85870    1.000
    C1440    C        0.50603    0.32150    0.85810    1.000
    H928     H        0.49810    0.34570    0.85180    1.000
    N128     N        0.55492    0.30390    0.87520    1.000
    O187     O        0.41449    0.25433    0.83030    1.000
    O188     O        0.42052    0.20060    0.88080    1.000
    O189     O        0.63224    0.04896    0.03720    1.000
    O190     O        0.63399    0.10083    0.09100    1.000
    O191     O        0.62593    0.52708    0.65900    1.000
    O192     O        0.64751    0.51830    0.71060    1.000
    Zn48     Zn       0.64552    0.56473    0.63770    1.000
