data_functionalizedCrystal
_audit_creation_method	'EQeq! by Chris Wilmer'
_symmetry_space_group_name_H-M	'P1'
_symmetry_Int_Tables_number	1
_symmetry_cell_setting	triclinic
loop_
_symmetry_equiv_pos_as_xyz
  x,y,z
_cell_length_a	13.645
_cell_length_b	14.2731
_cell_length_c	16.1135
_cell_angle_alpha	116.289
_cell_angle_beta	99.0059
_cell_angle_gamma	90
loop_
_atom_site_label
_atom_site_type_symbol
_atom_site_fract_x
_atom_site_fract_y
_atom_site_fract_z
_atom_site_charge
Mof_Nd	Nd	0.04339	0.03041	0.63589	2.179
Mof_Nd	Nd	0.45661	0.39452	0.36411	2.205
Mof_Nd	Nd	0.95661	0.96959	0.36411	2.179
Mof_Nd	Nd	0.54339	0.60548	0.63589	2.205
Mof_H 	H 	0.9173	0.1182	0.9352	0.009
Mof_H 	H 	0.8781	0.2227	0.0802	0.078
Mof_H 	H 	0.9019	0.471	0.0332	0.086
Mof_H 	H 	0.9503	0.3667	0.89	0.018
Mof_H 	H 	0.887	0.384	0.198	0.03
Mof_H 	H 	0.9207	0.698	0.3184	0.029
Mof_H 	H 	0.7246	0.4724	0.2874	0.049
Mof_H 	H 	0.8016	0.7204	0.5394	0.006
Mof_H 	H 	0.5827	0.183	0.0648	0.01
Mof_H 	H 	0.6219	0.1425	0.9198	0.075
Mof_H 	H 	0.5981	0.4378	0.9668	0.085
Mof_H 	H 	0.5497	0.4767	0.11	0.019
Mof_H 	H 	0.613	0.186	0.802	0.029
Mof_H 	H 	0.5793	0.3796	0.6816	0.03
Mof_H 	H 	0.7754	0.185	0.7126	0.05
Mof_H 	H 	0.6984	0.181	0.4606	0.008
Mof_H 	H 	0.0827	0.8818	0.0648	0.009
Mof_H 	H 	0.1219	0.7773	0.9198	0.078
Mof_H 	H 	0.0981	0.529	0.9668	0.086
Mof_H 	H 	0.0497	0.6333	0.11	0.018
Mof_H 	H 	0.113	0.616	0.802	0.03
Mof_H 	H 	0.0793	0.302	0.6816	0.029
Mof_H 	H 	0.2754	0.5276	0.7126	0.049
Mof_H 	H 	0.1984	0.2796	0.4606	0.006
Mof_H 	H 	0.4173	0.817	0.9352	0.01
Mof_H 	H 	0.3781	0.8575	0.0802	0.075
Mof_H 	H 	0.4019	0.5622	0.0332	0.085
Mof_H 	H 	0.4503	0.5233	0.89	0.019
Mof_H 	H 	0.387	0.814	0.198	0.029
Mof_H 	H 	0.4207	0.6204	0.3184	0.03
Mof_H 	H 	0.2246	0.815	0.2874	0.05
Mof_H 	H 	0.3016	0.819	0.5394	0.008
Mof_C 	C 	0.979	0.1649	0.8094	0.347
Mof_C 	C 	0.9424	0.2325	0.8986	-0.138
Mof_C 	C 	0.9165	0.1901	0.9554	0.07
Mof_C 	C 	0.8894	0.252	0.041	-0.166
Mof_C 	C 	0.8795	0.3532	0.0674	0.096
Mof_C 	C 	0.9049	0.3992	0.013	-0.152
Mof_C 	C 	0.9351	0.3366	0.9276	0.069
Mof_C 	C 	0.8548	0.4204	0.163	-0.013
Mof_C 	C 	0.9293	0.8283	0.5002	0.423
Mof_C 	C 	0.8729	0.7248	0.4398	-0.154
Mof_C 	C 	0.8812	0.6691	0.3446	-0.02
Mof_C 	C 	0.8308	0.5717	0.2902	0.037
Mof_C 	C 	0.7633	0.5346	0.3264	-0.013
Mof_C 	C 	0.7522	0.5892	0.421	-0.16
Mof_C 	C 	0.8076	0.6835	0.4764	0.079
Mof_C 	C 	0.6788	0.5479	0.4568	0.469
Mof_C 	C 	0.521	0.3555	0.1906	0.337
Mof_C 	C 	0.5576	0.3339	0.1014	-0.132
Mof_C 	C 	0.5835	0.2347	0.0446	0.064
Mof_C 	C 	0.6106	0.211	0.959	-0.162
Mof_C 	C 	0.6205	0.2858	0.9326	0.092
Mof_C 	C 	0.5951	0.3862	0.987	-0.145
Mof_C 	C 	0.5649	0.409	0.0724	0.061
Mof_C 	C 	0.6452	0.2574	0.837	-0.011
Mof_C 	C 	0.5707	0.3281	0.4998	0.424
Mof_C 	C 	0.6271	0.285	0.5602	-0.153
Mof_C 	C 	0.6188	0.3245	0.6554	-0.021
Mof_C 	C 	0.6692	0.2815	0.7098	0.038
Mof_C 	C 	0.7367	0.2082	0.6736	-0.014
Mof_C 	C 	0.7478	0.1682	0.579	-0.158
Mof_C 	C 	0.6924	0.2071	0.5236	0.078
Mof_C 	C 	0.8212	0.0911	0.5432	0.466
Mof_C 	C 	0.021	0.8351	0.1906	0.347
Mof_C 	C 	0.0576	0.7675	0.1014	-0.138
Mof_C 	C 	0.0835	0.8099	0.0446	0.07
Mof_C 	C 	0.1106	0.748	0.959	-0.166
Mof_C 	C 	0.1205	0.6468	0.9326	0.096
Mof_C 	C 	0.0951	0.6008	0.987	-0.152
Mof_C 	C 	0.0649	0.6634	0.0724	0.069
Mof_C 	C 	0.1452	0.5796	0.837	-0.013
Mof_C 	C 	0.0707	0.1717	0.4998	0.423
Mof_C 	C 	0.1271	0.2752	0.5602	-0.154
Mof_C 	C 	0.1188	0.3309	0.6554	-0.02
Mof_C 	C 	0.1692	0.4283	0.7098	0.037
Mof_C 	C 	0.2367	0.4654	0.6736	-0.013
Mof_C 	C 	0.2478	0.4108	0.579	-0.16
Mof_C 	C 	0.1924	0.3165	0.5236	0.079
Mof_C 	C 	0.3212	0.4521	0.5432	0.469
Mof_C 	C 	0.479	0.6445	0.8094	0.337
Mof_C 	C 	0.4424	0.6661	0.8986	-0.132
Mof_C 	C 	0.4165	0.7653	0.9554	0.064
Mof_C 	C 	0.3894	0.789	0.041	-0.162
Mof_C 	C 	0.3795	0.7142	0.0674	0.092
Mof_C 	C 	0.4049	0.6138	0.013	-0.145
Mof_C 	C 	0.4351	0.591	0.9276	0.061
Mof_C 	C 	0.3548	0.7426	0.163	-0.011
Mof_C 	C 	0.4293	0.6719	0.5002	0.424
Mof_C 	C 	0.3729	0.715	0.4398	-0.153
Mof_C 	C 	0.3812	0.6755	0.3446	-0.021
Mof_C 	C 	0.3308	0.7185	0.2902	0.038
Mof_C 	C 	0.2633	0.7918	0.3264	-0.014
Mof_C 	C 	0.2522	0.8318	0.421	-0.158
Mof_C 	C 	0.3076	0.7929	0.4764	0.078
Mof_C 	C 	0.1788	0.9089	0.4568	0.466
Mof_N 	N 	0.8509	0.5156	0.197	-0.116
Mof_N 	N 	0.6491	0.3186	0.803	-0.116
Mof_N 	N 	0.1491	0.4844	0.803	-0.116
Mof_N 	N 	0.3509	0.6814	0.197	-0.116
Mof_O 	O 	0.9828	0.0696	0.7844	-0.483
Mof_O 	O 	0.0063	0.20844	0.76168	-0.455
Mof_O 	O 	0.948	0.86028	0.58836	-0.492
Mof_O 	O 	0.9608	0.88299	0.46358	-0.644
Mof_O 	O 	0.6692	0.60289	0.54278	-0.563
Mof_O 	O 	0.6286	0.46183	0.40226	-0.522
Mof_O 	O 	0.5172	0.2852	0.2156	-0.488
Mof_O 	O 	0.4937	0.44676	0.23832	-0.447
Mof_O 	O 	0.552	0.27192	0.41164	-0.493
Mof_O 	O 	0.5392	0.41941	0.53642	-0.646
Mof_O 	O 	0.8308	0.06011	0.45722	-0.555
Mof_O 	O 	0.8714	0.05957	0.59774	-0.513
Mof_O 	O 	0.0172	0.9304	0.2156	-0.483
Mof_O 	O 	0.9937	0.79156	0.23832	-0.455
Mof_O 	O 	0.052	0.13972	0.41164	-0.492
Mof_O 	O 	0.0392	0.11701	0.53642	-0.644
Mof_O 	O 	0.3308	0.39711	0.45722	-0.563
Mof_O 	O 	0.3714	0.53817	0.59774	-0.522
Mof_O 	O 	0.4828	0.7148	0.7844	-0.488
Mof_O 	O 	0.5063	0.55324	0.76168	-0.447
Mof_O 	O 	0.448	0.72808	0.58836	-0.493
Mof_O 	O 	0.4608	0.58059	0.46358	-0.646
Mof_O 	O 	0.1692	0.93989	0.54278	-0.555
Mof_O 	O 	0.1286	0.94043	0.40226	-0.513
_end
