# CIF file generated by openbabel 3.1.0, see https://openbabel.org
data_I
_chemical_name_common 'image0'
_cell_length_a 14.6905
_cell_length_b 8.0472
_cell_length_c 15.8688
_cell_angle_alpha 90
_cell_angle_beta 112.929
_cell_angle_gamma 90
_space_group_name_H-M_alt 'P 1'
_space_group_name_Hall 'P 1'
loop_
    _symmetry_equiv_pos_as_xyz
    x,y,z
loop_
    _atom_site_label
    _atom_site_type_symbol
    _atom_site_fract_x
    _atom_site_fract_y
    _atom_site_fract_z
    _atom_site_occupancy
    P1       P        0.51646    0.39359    0.39624    1.000
    H1       H        0.54300    0.26900    0.35440    1.000
    P2       P        0.35225    0.15057    0.62141    1.000
    H2       H        0.40900    0.00600    0.64840    1.000
    Be1      Be       0.36160    0.36810    0.47140    1.000
    O1       O        0.60778    0.44980    0.47698    1.000
    O2       O        0.43775    0.32150    0.42348    1.000
    O3       O        0.47610    0.52660    0.32434    1.000
    O4       O        0.24836    0.10640    0.60813    1.000
    O5       O        0.40071    0.25320    0.70613    1.000
    O6       O        0.36486    0.21900    0.53872    1.000
    P3       P        0.01646    0.89359    0.39624    1.000
    H3       H        0.04300    0.76900    0.35440    1.000
    P4       P        0.85225    0.65057    0.62141    1.000
    H4       H        0.90900    0.50600    0.64840    1.000
    Be2      Be       0.86160    0.86810    0.47140    1.000
    O7       O        0.10778    0.94980    0.47698    1.000
    O8       O        0.93775    0.82150    0.42348    1.000
    O9       O        0.97610    0.02660    0.32434    1.000
    O10      O        0.74836    0.60640    0.60813    1.000
    O11      O        0.90071    0.75320    0.70613    1.000
    O12      O        0.86486    0.71900    0.53872    1.000
    P5       P        0.48354    0.39359    0.10376    1.000
    H5       H        0.45700    0.26900    0.14560    1.000
    P6       P        0.64775    0.15057    0.87859    1.000
    H6       H        0.59100    0.00600    0.85160    1.000
    Be3      Be       0.63840    0.36810    0.02860    1.000
    O13      O        0.39222    0.44980    0.02302    1.000
    O14      O        0.56225    0.32150    0.07652    1.000
    O15      O        0.52390    0.52660    0.17566    1.000
    O16      O        0.75164    0.10640    0.89187    1.000
    O17      O        0.59929    0.25320    0.79387    1.000
    O18      O        0.63514    0.21900    0.96128    1.000
    P7       P        0.98354    0.89359    0.10376    1.000
    H7       H        0.95700    0.76900    0.14560    1.000
    P8       P        0.14775    0.65057    0.87859    1.000
    H8       H        0.09100    0.50600    0.85160    1.000
    Be4      Be       0.13840    0.86810    0.02860    1.000
    O19      O        0.89222    0.94980    0.02302    1.000
    O20      O        0.06225    0.82150    0.07652    1.000
    O21      O        0.02390    0.02660    0.17566    1.000
    O22      O        0.25164    0.60640    0.89187    1.000
    O23      O        0.09929    0.75320    0.79387    1.000
    O24      O        0.13514    0.71900    0.96128    1.000
    P9       P        0.48354    0.60641    0.60376    1.000
    H9       H        0.45700    0.73100    0.64560    1.000
    P10      P        0.64775    0.84943    0.37859    1.000
    H10      H        0.59100    0.99400    0.35160    1.000
    Be5      Be       0.63840    0.63190    0.52860    1.000
    O25      O        0.39222    0.55020    0.52302    1.000
    O26      O        0.56225    0.67850    0.57652    1.000
    O27      O        0.52390    0.47340    0.67566    1.000
    O28      O        0.75164    0.89360    0.39187    1.000
    O29      O        0.59929    0.74680    0.29387    1.000
    O30      O        0.63514    0.78100    0.46128    1.000
    P11      P        0.98354    0.10641    0.60376    1.000
    H11      H        0.95700    0.23100    0.64560    1.000
    P12      P        0.14775    0.34943    0.37859    1.000
    H12      H        0.09100    0.49400    0.35160    1.000
    Be6      Be       0.13840    0.13190    0.52860    1.000
    O31      O        0.89222    0.05020    0.52302    1.000
    O32      O        0.06225    0.17850    0.57652    1.000
    O33      O        0.02390    0.97340    0.67566    1.000
    O34      O        0.25164    0.39360    0.39187    1.000
    O35      O        0.09929    0.24680    0.29387    1.000
    O36      O        0.13514    0.28100    0.46128    1.000
    P13      P        0.51646    0.60641    0.89624    1.000
    H13      H        0.54300    0.73100    0.85440    1.000
    P14      P        0.35225    0.84943    0.12141    1.000
    H14      H        0.40900    0.99400    0.14840    1.000
    Be7      Be       0.36160    0.63190    0.97140    1.000
    O37      O        0.60778    0.55020    0.97698    1.000
    O38      O        0.43775    0.67850    0.92348    1.000
    O39      O        0.47610    0.47340    0.82434    1.000
    O40      O        0.24836    0.89360    0.10813    1.000
    O41      O        0.40071    0.74680    0.20613    1.000
    O42      O        0.36486    0.78100    0.03872    1.000
    P15      P        0.01646    0.10641    0.89624    1.000
    H15      H        0.04300    0.23100    0.85440    1.000
    P16      P        0.85225    0.34943    0.12141    1.000
    H16      H        0.90900    0.49400    0.14840    1.000
    Be8      Be       0.86160    0.13190    0.97140    1.000
    O43      O        0.10778    0.05020    0.97698    1.000
    O44      O        0.93775    0.17850    0.92348    1.000
    O45      O        0.97610    0.97340    0.82434    1.000
    O46      O        0.74836    0.39360    0.10813    1.000
    O47      O        0.90071    0.24680    0.20613    1.000
    O48      O        0.86486    0.28100    0.03872    1.000
    Be9      Be       0.50000    0.63410    0.25000    1.000
    Be10     Be       0.00000    0.13410    0.25000    1.000
    Be11     Be       0.50000    0.36590    0.75000    1.000
    Be12     Be       0.00000    0.86590    0.75000    1.000
