# CIF file generated by openbabel 3.1.0, see https://openbabel.org
data_I
_chemical_name_common 'image0'
_cell_length_a 12.6368
_cell_length_b 14.4827
_cell_length_c 18.082
_cell_angle_alpha 83.373
_cell_angle_beta 69.732
_cell_angle_gamma 85.888
_space_group_name_H-M_alt 'P 1'
_space_group_name_Hall 'P 1'
loop_
    _symmetry_equiv_pos_as_xyz
    x,y,z
loop_
    _atom_site_label
    _atom_site_type_symbol
    _atom_site_fract_x
    _atom_site_fract_y
    _atom_site_fract_z
    _atom_site_occupancy
    Ni1      Ni       0.20734    0.02331    0.48400    1.000
    C1       C        0.22751    0.22828    0.48168    1.000
    C2       C        0.21777    0.31363    0.43553    1.000
    H1       H        0.24070    0.37160    0.44030    1.000
    C3       C        0.16914    0.29414    0.38398    1.000
    H2       H        0.15220    0.33600    0.34630    1.000
    C4       C        0.14830    0.19664    0.39810    1.000
    N1       N        0.18841    0.15573    0.45665    1.000
    C5       C        0.08994    0.15206    0.36168    1.000
    C6       C        0.07212    0.05812    0.37670    1.000
    C7       C        0.00225    0.01117    0.34756    1.000
    H3       H        0.95610    0.03870    0.32020    1.000
    C8       C        0.01473    0.92017    0.36657    1.000
    H4       H        0.97830    0.87260    0.35570    1.000
    C9       C        0.09533    0.91001    0.40713    1.000
    N2       N        0.12577    0.99565    0.41707    1.000
    C10      C        0.14341    0.82528    0.42529    1.000
    C11      C        0.21498    0.81915    0.46924    1.000
    C12      C        0.27054    0.73469    0.48783    1.000
    H5       H        0.27140    0.67770    0.46860    1.000
    C13      C        0.32114    0.75329    0.53832    1.000
    H6       H        0.36220    0.71120    0.56170    1.000
    C14      C        0.30019    0.84987    0.54952    1.000
    N3       N        0.23749    0.89091    0.50422    1.000
    C15      C        0.33459    0.89391    0.60072    1.000
    C16      C        0.31768    0.98795    0.60662    1.000
    C17      C        0.33983    0.03413    0.66472    1.000
    H7       H        0.36410    0.00610    0.70520    1.000
    C18      C        0.31930    0.12552    0.65053    1.000
    H8       H        0.32570    0.17260    0.67950    1.000
    C19      C        0.28530    0.13617    0.58137    1.000
    N4       N        0.27865    0.05143    0.55749    1.000
    C20      C        0.26734    0.22179    0.54402    1.000
    C21      C        0.04534    0.20786    0.30327    1.000
    C22      C        0.96164    0.27521    0.32627    1.000
    H9       H        0.93160    0.28640    0.37930    1.000
    C23      C        0.92138    0.32654    0.27193    1.000
    H10      H        0.86470    0.37200    0.28850    1.000
    C24      C        0.96436    0.31089    0.19421    1.000
    C25      C        0.04984    0.24516    0.16900    1.000
    H11      H        0.08100    0.23580    0.11560    1.000
    C26      C        0.08902    0.19313    0.22404    1.000
    H12      H        0.14560    0.14760    0.20740    1.000
    C27      C        0.95480    0.35620    0.06529    1.000
    H13      H        0.96980    0.29130    0.05530    1.000
    H14      H        0.02400    0.38950    0.03970    1.000
    C28      C        0.86280    0.39790    0.03383    1.000
    O1       O        0.91487    0.36451    0.14675    1.000
    O2       O        0.76949    0.40924    0.07563    1.000
    O3       O        0.89885    0.41701    0.95912    1.000
    H15      H        0.84660    0.43830    0.94460    1.000
    C29      C        0.12658    0.74104    0.39058    1.000
    C30      C        0.15463    0.74313    0.30980    1.000
    H16      H        0.17600    0.79910    0.27880    1.000
    C31      C        0.15225    0.66505    0.27282    1.000
    H17      H        0.17130    0.66890    0.21810    1.000
    C32      C        0.12142    0.58185    0.31803    1.000
    C33      C        0.08727    0.57952    0.40015    1.000
    H18      H        0.06280    0.52430    0.43140    1.000
    C34      C        0.08934    0.65745    0.43516    1.000
    H19      H        0.06530    0.65460    0.49010    1.000
    C35      C        0.13917    0.50259    0.20684    1.000
    H20      H        0.09130    0.55230    0.19340    1.000
    H21      H        0.11480    0.44460    0.19700    1.000
    C36      C        0.25951    0.51733    0.15170    1.000
    O4       O        0.12146    0.49969    0.28842    1.000
    O5       O        0.33859    0.51024    0.17752    1.000
    O6       O        0.27041    0.53415    0.08002    1.000
    C37      C        0.38699    0.83796    0.65464    1.000
    C38      C        0.32346    0.77705    0.71417    1.000
    H22      H        0.24990    0.76710    0.71770    1.000
    C39      C        0.36596    0.72989    0.76929    1.000
    H23      H        0.32130    0.68860    0.80930    1.000
    C40      C        0.47390    0.74402    0.76488    1.000
    C41      C        0.54182    0.80144    0.70330    1.000
    H24      H        0.61660    0.80860    0.69840    1.000
    C42      C        0.49764    0.84852    0.64866    1.000
    H25      H        0.54320    0.88780    0.60730    1.000
    C43      C        0.60467    0.72436    0.83375    1.000
    H26      H        0.60420    0.79170    0.82980    1.000
    H27      H        0.67170    0.70290    0.79300    1.000
    C44      C        0.60523    0.68450    0.91428    1.000
    O7       O        0.50777    0.69511    0.82346    1.000
    O8       O        0.69297    0.71179    0.92646    1.000
    H28      H        0.69230    0.69060    0.97070    1.000
    O9       O        0.53831    0.63361    0.96014    1.000
    C45      C        0.29927    0.30841    0.56833    1.000
    C46      C        0.22514    0.38305    0.58785    1.000
    H29      H        0.15200    0.37970    0.58770    1.000
    C47      C        0.25754    0.46251    0.60751    1.000
    H30      H        0.20640    0.51260    0.62030    1.000
    C48      C        0.36719    0.46873    0.60837    1.000
    C49      C        0.44113    0.39449    0.59038    1.000
    H31      H        0.51370    0.39710    0.59190    1.000
    C50      C        0.40739    0.31536    0.56987    1.000
    H32      H        0.45860    0.26540    0.55670    1.000
    C51      C        0.50220    0.56436    0.62549    1.000
    H33      H        0.51480    0.63040    0.62020    1.000
    H34      H        0.55520    0.53840    0.57910    1.000
    C52      C        0.52495    0.51921    0.69833    1.000
    O10      O        0.39045    0.55153    0.62822    1.000
    O11      O        0.63276    0.52530    0.68773    1.000
    H35      H        0.64500    0.50320    0.72800    1.000
    O12      O        0.45627    0.48677    0.75671    1.000
    K1       K        0.42860    0.50226    0.91774    1.000
    Ni2      Ni       0.79266    0.97669    0.51600    1.000
    C53      C        0.77249    0.77172    0.51832    1.000
    C54      C        0.78223    0.68637    0.56447    1.000
    H36      H        0.75930    0.62840    0.55970    1.000
    C55      C        0.83086    0.70586    0.61602    1.000
    H37      H        0.84780    0.66400    0.65370    1.000
    C56      C        0.85170    0.80336    0.60190    1.000
    N5       N        0.81159    0.84427    0.54335    1.000
    C57      C        0.91006    0.84794    0.63832    1.000
    C58      C        0.92788    0.94188    0.62330    1.000
    C59      C        0.99775    0.98883    0.65244    1.000
    H38      H        0.04390    0.96130    0.67980    1.000
    C60      C        0.98527    0.07983    0.63343    1.000
    H39      H        0.02170    0.12740    0.64430    1.000
    C61      C        0.90467    0.08999    0.59287    1.000
    N6       N        0.87423    0.00435    0.58293    1.000
    C62      C        0.85659    0.17472    0.57471    1.000
    C63      C        0.78502    0.18085    0.53076    1.000
    C64      C        0.72946    0.26531    0.51217    1.000
    H40      H        0.72860    0.32230    0.53140    1.000
    C65      C        0.67886    0.24671    0.46168    1.000
    H41      H        0.63780    0.28880    0.43830    1.000
    C66      C        0.69981    0.15013    0.45048    1.000
    N7       N        0.76251    0.10909    0.49578    1.000
    C67      C        0.66541    0.10609    0.39928    1.000
    C68      C        0.68232    0.01205    0.39338    1.000
    C69      C        0.66017    0.96587    0.33528    1.000
    H42      H        0.63590    0.99390    0.29480    1.000
    C70      C        0.68070    0.87448    0.34947    1.000
    H43      H        0.67430    0.82740    0.32050    1.000
    C71      C        0.71470    0.86383    0.41863    1.000
    N8       N        0.72135    0.94857    0.44251    1.000
    C72      C        0.73266    0.77821    0.45598    1.000
    C73      C        0.95466    0.79214    0.69673    1.000
    C74      C        0.03836    0.72479    0.67373    1.000
    H44      H        0.06840    0.71360    0.62070    1.000
    C75      C        0.07862    0.67346    0.72807    1.000
    H45      H        0.13530    0.62800    0.71150    1.000
    C76      C        0.03564    0.68911    0.80579    1.000
    C77      C        0.95016    0.75484    0.83100    1.000
    H46      H        0.91900    0.76420    0.88440    1.000
    C78      C        0.91098    0.80687    0.77596    1.000
    H47      H        0.85440    0.85240    0.79260    1.000
    C79      C        0.04520    0.64380    0.93471    1.000
    H48      H        0.03020    0.70870    0.94470    1.000
    H49      H        0.97600    0.61050    0.96030    1.000
    C80      C        0.13720    0.60210    0.96617    1.000
    O13      O        0.08513    0.63549    0.85325    1.000
    O14      O        0.23051    0.59076    0.92437    1.000
    O15      O        0.10115    0.58299    0.04088    1.000
    H50      H        0.15340    0.56170    0.05540    1.000
    C81      C        0.87342    0.25896    0.60942    1.000
    C82      C        0.84537    0.25687    0.69020    1.000
    H51      H        0.82400    0.20090    0.72120    1.000
    C83      C        0.84775    0.33495    0.72718    1.000
    H52      H        0.82870    0.33110    0.78190    1.000
    C84      C        0.87858    0.41815    0.68197    1.000
    C85      C        0.91273    0.42048    0.59985    1.000
    H53      H        0.93720    0.47570    0.56860    1.000
    C86      C        0.91066    0.34255    0.56484    1.000
    H54      H        0.93470    0.34540    0.50990    1.000
    C87      C        0.86083    0.49741    0.79316    1.000
    H55      H        0.90870    0.44770    0.80660    1.000
    H56      H        0.88520    0.55540    0.80300    1.000
    C88      C        0.74049    0.48267    0.84830    1.000
    O16      O        0.87854    0.50031    0.71158    1.000
    O17      O        0.66141    0.48976    0.82248    1.000
    O18      O        0.72959    0.46585    0.91998    1.000
    C89      C        0.61301    0.16204    0.34536    1.000
    C90      C        0.67654    0.22295    0.28583    1.000
    H57      H        0.75010    0.23290    0.28230    1.000
    C91      C        0.63404    0.27011    0.23071    1.000
    H58      H        0.67870    0.31140    0.19070    1.000
    C92      C        0.52610    0.25598    0.23512    1.000
    C93      C        0.45818    0.19856    0.29670    1.000
    H59      H        0.38340    0.19140    0.30160    1.000
    C94      C        0.50236    0.15148    0.35134    1.000
    H60      H        0.45680    0.11220    0.39270    1.000
    C95      C        0.39533    0.27564    0.16625    1.000
    H61      H        0.39580    0.20830    0.17020    1.000
    H62      H        0.32830    0.29710    0.20700    1.000
    C96      C        0.39477    0.31550    0.08572    1.000
    O19      O        0.49223    0.30489    0.17654    1.000
    O20      O        0.30703    0.28821    0.07354    1.000
    H63      H        0.30770    0.30940    0.02930    1.000
    O21      O        0.46169    0.36639    0.03986    1.000
    C97      C        0.70073    0.69159    0.43167    1.000
    C98      C        0.77486    0.61695    0.41215    1.000
    H64      H        0.84800    0.62030    0.41230    1.000
    C99      C        0.74246    0.53749    0.39249    1.000
    H65      H        0.79360    0.48740    0.37970    1.000
    C100     C        0.63281    0.53127    0.39163    1.000
    C101     C        0.55887    0.60551    0.40962    1.000
    H66      H        0.48630    0.60290    0.40810    1.000
    C102     C        0.59261    0.68464    0.43013    1.000
    H67      H        0.54140    0.73460    0.44330    1.000
    C103     C        0.49780    0.43564    0.37451    1.000
    H68      H        0.48520    0.36960    0.37980    1.000
    H69      H        0.44480    0.46160    0.42090    1.000
    C104     C        0.47505    0.48079    0.30167    1.000
    O22      O        0.60955    0.44847    0.37178    1.000
    O23      O        0.36724    0.47470    0.31227    1.000
    H70      H        0.35500    0.49680    0.27200    1.000
    O24      O        0.54373    0.51323    0.24329    1.000
    K2       K        0.57140    0.49774    0.08226    1.000
