# CIF file generated by openbabel 3.1.0, see https://openbabel.org
data_I
_chemical_name_common 'image0'
_cell_length_a 6.6514
_cell_length_b 18.347
_cell_length_c 8.4311
_cell_angle_alpha 90
_cell_angle_beta 90
_cell_angle_gamma 90
_space_group_name_H-M_alt 'P 1'
_space_group_name_Hall 'P 1'
loop_
    _symmetry_equiv_pos_as_xyz
    x,y,z
loop_
    _atom_site_label
    _atom_site_type_symbol
    _atom_site_fract_x
    _atom_site_fract_y
    _atom_site_fract_z
    _atom_site_occupancy
    O1       O        0.98730    0.05010    0.43040    1.000
    O2       O        0.66470    0.09510    0.22860    1.000
    O3       O        0.31940    0.25790    0.84720    1.000
    C1       C        0.23700    0.24400    0.97490    1.000
    H1       H        0.21970    0.28260    0.04510    1.000
    O4       O        0.17510    0.18360    0.01820    1.000
    O5       O        0.48730    0.55010    0.43040    1.000
    O6       O        0.16470    0.59510    0.22860    1.000
    O7       O        0.81940    0.75790    0.84720    1.000
    C2       C        0.73700    0.74400    0.97490    1.000
    H2       H        0.71970    0.78260    0.04510    1.000
    O8       O        0.67510    0.68360    0.01820    1.000
    O9       O        0.01270    0.94990    0.93040    1.000
    O10      O        0.33530    0.90490    0.72860    1.000
    O11      O        0.68060    0.74210    0.34720    1.000
    C3       C        0.76300    0.75600    0.47490    1.000
    H3       H        0.78030    0.71740    0.54510    1.000
    O12      O        0.82490    0.81640    0.51820    1.000
    O13      O        0.51270    0.44990    0.93040    1.000
    O14      O        0.83530    0.40490    0.72860    1.000
    O15      O        0.18060    0.24210    0.34720    1.000
    C4       C        0.26300    0.25600    0.47490    1.000
    H4       H        0.28030    0.21740    0.54510    1.000
    O16      O        0.32490    0.31640    0.51820    1.000
    O17      O        0.01270    0.05010    0.06960    1.000
    O18      O        0.33530    0.09510    0.27140    1.000
    O19      O        0.68060    0.25790    0.65280    1.000
    C5       C        0.76300    0.24400    0.52510    1.000
    H5       H        0.78030    0.28260    0.45490    1.000
    O20      O        0.82490    0.18360    0.48180    1.000
    O21      O        0.51270    0.55010    0.06960    1.000
    O22      O        0.83530    0.59510    0.27140    1.000
    O23      O        0.18060    0.75790    0.65280    1.000
    C6       C        0.26300    0.74400    0.52510    1.000
    H6       H        0.28030    0.78260    0.45490    1.000
    O24      O        0.32490    0.68360    0.48180    1.000
    O25      O        0.98730    0.94990    0.56960    1.000
    O26      O        0.66470    0.90490    0.77140    1.000
    O27      O        0.31940    0.74210    0.15280    1.000
    C7       C        0.23700    0.75600    0.02510    1.000
    H7       H        0.21970    0.71740    0.95490    1.000
    O28      O        0.17510    0.81640    0.98180    1.000
    O29      O        0.48730    0.44990    0.56960    1.000
    O30      O        0.16470    0.40490    0.77140    1.000
    O31      O        0.81940    0.24210    0.15280    1.000
    C8       C        0.73700    0.25600    0.02510    1.000
    H8       H        0.71970    0.21740    0.95490    1.000
    O32      O        0.67510    0.31640    0.98180    1.000
    Er1      Er       0.00000    0.14272    0.25000    1.000
    Er2      Er       0.50000    0.64272    0.25000    1.000
    Er3      Er       0.00000    0.85728    0.75000    1.000
    Er4      Er       0.50000    0.35728    0.75000    1.000
    C9       C        0.07590    0.00000    0.50000    1.000
    H9       H        0.21570    0.00000    0.50000    1.000
    C10      C        0.57590    0.50000    0.50000    1.000
    H10      H        0.71570    0.50000    0.50000    1.000
    C11      C        0.92410    0.00000    0.00000    1.000
    H11      H        0.78430    0.00000    0.00000    1.000
    C12      C        0.42410    0.50000    0.00000    1.000
    H12      H        0.28430    0.50000    0.00000    1.000
    C13      C        0.50000    0.12630    0.25000    1.000
    H13      H        0.50000    0.17700    0.25000    1.000
    C14      C        0.00000    0.62630    0.25000    1.000
    H14      H        0.00000    0.67700    0.25000    1.000
    C15      C        0.50000    0.87370    0.75000    1.000
    H15      H        0.50000    0.82300    0.75000    1.000
    C16      C        0.00000    0.37370    0.75000    1.000
    H16      H        0.00000    0.32300    0.75000    1.000
