data_functionalizedCrystal
_audit_creation_method	'EQeq! by Chris Wilmer'
_symmetry_space_group_name_H-M	'P1'
_symmetry_Int_Tables_number	1
_symmetry_cell_setting	triclinic
loop_
_symmetry_equiv_pos_as_xyz
  x,y,z
_cell_length_a	21.35
_cell_length_b	8.581
_cell_length_c	20.54
_cell_angle_alpha	90
_cell_angle_beta	118.107
_cell_angle_gamma	90
loop_
_atom_site_label
_atom_site_type_symbol
_atom_site_fract_x
_atom_site_fract_y
_atom_site_fract_z
_atom_site_charge
Mof_O 	O 	0.165	0.0777	0.9503	-0.37
Mof_O 	O 	0.4342	0.029	0.391	-0.463
Mof_O 	O 	0.0639	0.0397	0.9545	-0.283
Mof_O 	O 	0.3712	0.9488	0.2777	-0.232
Mof_O 	O 	0.414	0.0207	0.5167	-0.468
Mof_O 	O 	0.3319	0.9153	0.5378	-0.378
Mof_N 	N 	0.2898	0.7526	0.3156	-0.079
Mof_N 	N 	0.2689	0.7687	0.4102	-0.209
Mof_C 	C 	0.2438	0.7652	0.1788	0.248
Mof_C 	C 	0.3246	0.8644	0.4231	-0.061
Mof_C 	C 	0.3605	0.9379	0.4978	0.421
Mof_C 	C 	0.2314	0.856	0.0633	0.196
Mof_H 	H 	0.2491	0.8643	0.0299	-0.034
Mof_C 	C 	0.3377	0.8561	0.3629	-0.036
Mof_C 	C 	0.1794	0.8263	0.1618	-0.27
Mof_H 	H 	0.1609	0.8139	0.1945	0.147
Mof_C 	C 	0.1294	0.0209	0.9795	0.414
Mof_C 	C 	0.2508	0.7022	0.3465	0.096
Mof_H 	H 	0.2149	0.6283	0.3251	0.022
Mof_C 	C 	0.167	0.9239	0.0472	-0.265
Mof_C 	C 	0.3858	0.9471	0.3433	0.396
Mof_C 	C 	0.2692	0.7774	0.1277	-0.271
Mof_H 	H 	0.3122	0.7314	0.1377	0.147
Mof_C 	C 	0.1403	0.9075	0.0959	0.19
Mof_H 	H 	0.0964	0.9502	0.0852	-0.027
Mof_C 	C 	0.2876	0.6792	0.25	-0.229
Mof_H 	H 	0.2687	0.5746	0.2454	0.116
Mof_H 	H 	0.3358	0.67	0.2574	0.121
Mof_O 	O 	0.665	0.5777	0.9503	-0.362
Mof_O 	O 	0.9342	0.529	0.391	-0.364
Mof_O 	O 	0.5639	0.5397	0.9545	-0.247
Mof_O 	O 	0.8712	0.4488	0.2777	-0.225
Mof_O 	O 	0.914	0.5207	0.5167	-0.37
Mof_O 	O 	0.8319	0.4153	0.5378	-0.373
Mof_N 	N 	0.7898	0.2526	0.3156	-0.084
Mof_N 	N 	0.7689	0.2687	0.4102	-0.215
Mof_C 	C 	0.7438	0.2652	0.1788	0.26
Mof_C 	C 	0.8246	0.3644	0.4231	-0.059
Mof_C 	C 	0.8605	0.4379	0.4978	0.343
Mof_C 	C 	0.7314	0.356	0.0633	0.239
Mof_H 	H 	0.7491	0.3643	0.0299	-0.065
Mof_C 	C 	0.8377	0.3561	0.3629	-0.032
Mof_C 	C 	0.6794	0.3263	0.1618	-0.31
Mof_H 	H 	0.6609	0.3139	0.1945	0.154
Mof_C 	C 	0.6294	0.5209	0.9795	0.475
Mof_C 	C 	0.7508	0.2022	0.3465	0.086
Mof_H 	H 	0.7149	0.1283	0.3251	0.009
Mof_C 	C 	0.667	0.4239	0.0472	-0.349
Mof_C 	C 	0.8858	0.4471	0.3433	0.318
Mof_C 	C 	0.7692	0.2774	0.1277	-0.313
Mof_H 	H 	0.8122	0.2314	0.1377	0.154
Mof_C 	C 	0.6403	0.4075	0.0959	0.23
Mof_H 	H 	0.5964	0.4502	0.0852	-0.046
Mof_C 	C 	0.7876	0.1792	0.25	-0.233
Mof_H 	H 	0.7687	0.0746	0.2454	0.097
Mof_H 	H 	0.8358	0.17	0.2574	0.117
Mof_O 	O 	0.835	0.0777	0.5497	-0.361
Mof_O 	O 	0.5658	0.029	0.109	-0.479
Mof_O 	O 	0.9361	0.0397	0.5455	-0.224
Mof_O 	O 	0.6288	0.9488	0.2223	-0.236
Mof_O 	O 	0.586	0.0207	0.9833	-0.323
Mof_O 	O 	0.6681	0.9153	0.9622	-0.251
Mof_N 	N 	0.7102	0.7526	0.1844	-0.081
Mof_N 	N 	0.7311	0.7687	0.0898	-0.225
Mof_C 	C 	0.7562	0.7652	0.3212	0.165
Mof_C 	C 	0.6754	0.8644	0.0769	-0.01
Mof_C 	C 	0.6395	0.9379	0.0022	0.181
Mof_C 	C 	0.7686	0.856	0.4367	0.059
Mof_H 	H 	0.7509	0.8643	0.4701	0.046
Mof_C 	C 	0.6623	0.8561	0.1371	-0.067
Mof_C 	C 	0.8206	0.8263	0.3382	-0.157
Mof_H 	H 	0.8391	0.8139	0.3055	0.121
Mof_C 	C 	0.8706	0.0209	0.5205	0.266
Mof_C 	C 	0.7492	0.7022	0.1535	0.098
Mof_H 	H 	0.7851	0.6283	0.1749	0.028
Mof_C 	C 	0.833	0.9239	0.4528	-0.061
Mof_C 	C 	0.6142	0.9471	0.1567	0.406
Mof_C 	C 	0.7308	0.7774	0.3723	-0.154
Mof_H 	H 	0.6878	0.7314	0.3623	0.113
Mof_C 	C 	0.8597	0.9075	0.4041	0.058
Mof_H 	H 	0.9036	0.9502	0.4148	0.066
Mof_C 	C 	0.7124	0.6792	0.25	-0.183
Mof_H 	H 	0.7313	0.5746	0.2546	0.102
Mof_H 	H 	0.6642	0.67	0.2426	0.108
Mof_O 	O 	0.335	0.5777	0.5497	-0.368
Mof_O 	O 	0.0658	0.529	0.109	-0.439
Mof_O 	O 	0.4361	0.5397	0.5455	-0.248
Mof_O 	O 	0.1288	0.4488	0.2223	-0.256
Mof_O 	O 	0.086	0.5207	0.9833	-0.268
Mof_O 	O 	0.1681	0.4153	0.9622	-0.254
Mof_N 	N 	0.2102	0.2526	0.1844	-0.087
Mof_N 	N 	0.2311	0.2687	0.0898	-0.233
Mof_C 	C 	0.2562	0.2652	0.3212	0.179
Mof_C 	C 	0.1754	0.3644	0.0769	-0.011
Mof_C 	C 	0.1395	0.4379	0.0022	0.096
Mof_C 	C 	0.2686	0.356	0.4367	0.112
Mof_H 	H 	0.2509	0.3643	0.4701	0.007
Mof_C 	C 	0.1623	0.3561	0.1371	-0.077
Mof_C 	C 	0.3206	0.3263	0.3382	-0.209
Mof_H 	H 	0.3391	0.3139	0.3055	0.12
Mof_C 	C 	0.3706	0.5209	0.5205	0.345
Mof_C 	C 	0.2492	0.2022	0.1535	0.085
Mof_H 	H 	0.2851	0.1283	0.1749	0.01
Mof_C 	C 	0.333	0.4239	0.4528	-0.171
Mof_C 	C 	0.1142	0.4471	0.1567	0.333
Mof_C 	C 	0.2308	0.2774	0.3723	-0.203
Mof_H 	H 	0.1878	0.2314	0.3623	0.11
Mof_C 	C 	0.3597	0.4075	0.4041	0.112
Mof_H 	H 	0.4036	0.4502	0.4148	0.013
Mof_C 	C 	0.2124	0.1792	0.25	-0.183
Mof_H 	H 	0.2313	0.0746	0.2546	0.08
Mof_H 	H 	0.1642	0.17	0.2426	0.089
Mof_O 	O 	0.835	0.9223	0.0497	-0.358
Mof_O 	O 	0.5658	0.971	0.609	-0.328
Mof_O 	O 	0.9361	0.9603	0.0455	-0.213
Mof_O 	O 	0.6288	0.0512	0.7223	-0.243
Mof_O 	O 	0.586	0.9793	0.4833	-0.332
Mof_O 	O 	0.6681	0.0847	0.4622	-0.384
Mof_N 	N 	0.7102	0.2474	0.6844	-0.089
Mof_N 	N 	0.7311	0.2313	0.5898	-0.213
Mof_C 	C 	0.7562	0.2348	0.8212	0.172
Mof_C 	C 	0.6754	0.1356	0.5769	-0.061
Mof_C 	C 	0.6395	0.0621	0.5022	0.273
Mof_C 	C 	0.7686	0.144	0.9367	0.078
Mof_H 	H 	0.7509	0.1357	0.9701	0.038
Mof_C 	C 	0.6623	0.1439	0.6371	-0.032
Mof_C 	C 	0.8206	0.1737	0.8382	-0.188
Mof_H 	H 	0.8391	0.1861	0.8055	0.117
Mof_C 	C 	0.8706	0.9791	0.0205	0.295
Mof_C 	C 	0.7492	0.2978	0.6535	0.089
Mof_H 	H 	0.7851	0.3717	0.6749	0.027
Mof_C 	C 	0.833	0.0761	0.9528	-0.106
Mof_C 	C 	0.6142	0.0529	0.6567	0.25
Mof_C 	C 	0.7308	0.2226	0.8723	-0.179
Mof_H 	H 	0.6878	0.2686	0.8623	0.12
Mof_C 	C 	0.8597	0.0925	0.9041	0.075
Mof_H 	H 	0.9036	0.0498	0.9148	0.041
Mof_C 	C 	0.7124	0.3208	0.75	-0.193
Mof_H 	H 	0.7313	0.4254	0.7546	0.107
Mof_H 	H 	0.6642	0.33	0.7426	0.111
Mof_O 	O 	0.335	0.4223	0.0497	-0.368
Mof_O 	O 	0.0658	0.471	0.609	-0.422
Mof_O 	O 	0.4361	0.4603	0.0455	-0.252
Mof_O 	O 	0.1288	0.5512	0.7223	-0.249
Mof_O 	O 	0.086	0.4793	0.4833	-0.427
Mof_O 	O 	0.1681	0.5847	0.4622	-0.39
Mof_N 	N 	0.2102	0.7474	0.6844	-0.084
Mof_N 	N 	0.2311	0.7313	0.5898	-0.207
Mof_C 	C 	0.2562	0.7348	0.8212	0.153
Mof_C 	C 	0.1754	0.6356	0.5769	-0.064
Mof_C 	C 	0.1395	0.5621	0.5022	0.351
Mof_C 	C 	0.2686	0.644	0.9367	0.025
Mof_H 	H 	0.2509	0.6357	0.9701	0.075
Mof_C 	C 	0.1623	0.6439	0.6371	-0.035
Mof_C 	C 	0.3206	0.6737	0.8382	-0.14
Mof_H 	H 	0.3391	0.6861	0.8055	0.108
Mof_C 	C 	0.3706	0.4791	0.0205	0.222
Mof_C 	C 	0.2492	0.7978	0.6535	0.099
Mof_H 	H 	0.2851	0.8717	0.6749	0.04
Mof_C 	C 	0.333	0.5761	0.9528	-0.007
Mof_C 	C 	0.1142	0.5529	0.6567	0.327
Mof_C 	C 	0.2308	0.7226	0.8723	-0.128
Mof_H 	H 	0.1878	0.7686	0.8623	0.111
Mof_C 	C 	0.3597	0.5925	0.9041	0.025
Mof_H 	H 	0.4036	0.5498	0.9148	0.065
Mof_C 	C 	0.2124	0.8208	0.75	-0.185
Mof_H 	H 	0.2313	0.9254	0.7546	0.124
Mof_H 	H 	0.1642	0.83	0.7426	0.114
Mof_O 	O 	0.165	0.9223	0.4503	-0.381
Mof_O 	O 	0.4342	0.971	0.891	-0.297
Mof_O 	O 	0.0639	0.9603	0.4545	-0.279
Mof_O 	O 	0.3712	0.0512	0.7777	-0.239
Mof_O 	O 	0.414	0.9793	0.0167	-0.464
Mof_O 	O 	0.3319	0.0847	0.0378	-0.502
Mof_N 	N 	0.2898	0.2474	0.8156	-0.087
Mof_N 	N 	0.2689	0.2313	0.9102	-0.186
Mof_C 	C 	0.2438	0.2348	0.6788	0.253
Mof_C 	C 	0.3246	0.1356	0.9231	-0.109
Mof_C 	C 	0.3605	0.0621	0.9978	0.518
Mof_C 	C 	0.2314	0.144	0.5633	0.21
Mof_H 	H 	0.2491	0.1357	0.5299	-0.041
Mof_C 	C 	0.3377	0.1439	0.8629	0.002
Mof_C 	C 	0.1794	0.1737	0.6618	-0.298
Mof_H 	H 	0.1609	0.1861	0.6945	0.142
Mof_C 	C 	0.1294	0.9791	0.4795	0.436
Mof_C 	C 	0.2508	0.2978	0.8465	0.087
Mof_H 	H 	0.2149	0.3717	0.8251	0.023
Mof_C 	C 	0.167	0.0761	0.5472	-0.304
Mof_C 	C 	0.3858	0.0529	0.8433	0.238
Mof_C 	C 	0.2692	0.2226	0.6277	-0.292
Mof_H 	H 	0.3122	0.2686	0.6377	0.152
Mof_C 	C 	0.1403	0.0925	0.5959	0.203
Mof_H 	H 	0.0964	0.0498	0.5852	-0.05
Mof_C 	C 	0.2876	0.3208	0.75	-0.238
Mof_H 	H 	0.2687	0.4254	0.7454	0.119
Mof_H 	H 	0.3358	0.33	0.7574	0.125
Mof_O 	O 	0.665	0.4223	0.4503	-0.374
Mof_O 	O 	0.9342	0.471	0.891	-0.336
Mof_O 	O 	0.5639	0.4603	0.4545	-0.254
Mof_O 	O 	0.8712	0.5512	0.7777	-0.219
Mof_O 	O 	0.914	0.4793	0.0167	-0.501
Mof_O 	O 	0.8319	0.5847	0.0378	-0.485
Mof_N 	N 	0.7898	0.7474	0.8156	-0.081
Mof_N 	N 	0.7689	0.7313	0.9102	-0.181
Mof_C 	C 	0.7438	0.7348	0.6788	0.238
Mof_C 	C 	0.8246	0.6356	0.9231	-0.102
Mof_C 	C 	0.8605	0.5621	0.9978	0.576
Mof_C 	C 	0.7314	0.644	0.5633	0.157
Mof_H 	H 	0.7491	0.6357	0.5299	-0.002
Mof_C 	C 	0.8377	0.6439	0.8629	0.009
Mof_C 	C 	0.6794	0.6737	0.6618	-0.246
Mof_H 	H 	0.6609	0.6861	0.6945	0.143
Mof_C 	C 	0.6294	0.4791	0.4795	0.358
Mof_C 	C 	0.7508	0.7978	0.8465	0.099
Mof_H 	H 	0.7149	0.8717	0.8251	0.04
Mof_C 	C 	0.667	0.5761	0.5472	-0.195
Mof_C 	C 	0.8858	0.5529	0.8433	0.31
Mof_C 	C 	0.7692	0.7226	0.6277	-0.243
Mof_H 	H 	0.8122	0.7686	0.6377	0.155
Mof_C 	C 	0.6403	0.5925	0.5959	0.148
Mof_H 	H 	0.5964	0.5498	0.5852	0.002
Mof_C 	C 	0.7876	0.8208	0.75	-0.237
Mof_H 	H 	0.7687	0.9254	0.7454	0.142
Mof_H 	H 	0.8358	0.83	0.7574	0.143
Mof_Co	Co	0.5	1.52104e-32	0.5	1.141
Mof_Co	Co	2.65328e-33	0.5	0.5	1.132
Mof_Co	Co	0.5	0	-0	1.102
Mof_Co	Co	-0	0.5	-0	1.093
Mof_Co	Co	0.25	0.75	0.5	1.175
Mof_Co	Co	0.75	0.75	-0	1.137
Mof_Co	Co	0.75	0.25	0.5	1.169
Mof_Co	Co	0.25	0.25	-0	1.128
_end
