# CIF file generated by openbabel 3.1.0, see https://openbabel.org
data_I
_chemical_name_common 'image0'
_cell_length_a 13.8325
_cell_length_b 40.435
_cell_length_c 60.962
_cell_angle_alpha 90
_cell_angle_beta 90
_cell_angle_gamma 90
_space_group_name_H-M_alt 'P 1'
_space_group_name_Hall 'P 1'
loop_
    _symmetry_equiv_pos_as_xyz
    x,y,z
loop_
    _atom_site_label
    _atom_site_type_symbol
    _atom_site_fract_x
    _atom_site_fract_y
    _atom_site_fract_z
    _atom_site_occupancy
    O1       O        0.04400    0.53620    0.52760    1.000
    O2       O        0.06650    0.54600    0.48430    1.000
    C1       C        0.78860    0.70142    0.37632    1.000
    C2       C        0.77620    0.71990    0.39533    1.000
    H1       H        0.81070    0.71460    0.40790    1.000
    C3       C        0.71200    0.74640    0.39551    1.000
    H2       H        0.70370    0.75880    0.40820    1.000
    C4       C        0.66040    0.75430    0.37670    1.000
    C5       C        0.67280    0.73580    0.35767    1.000
    H3       H        0.63830    0.74120    0.34510    1.000
    C6       C        0.73700    0.70940    0.35749    1.000
    H4       H        0.74530    0.69700    0.34480    1.000
    Cu1      Cu       0.08789    0.50930    0.50401    1.000
    C7       C        0.78170    0.56990    0.57602    1.000
    C8       C        0.69470    0.55794    0.58418    1.000
    H5       H        0.66880    0.53840    0.57870    1.000
    C9       C        0.64640    0.57510    0.60061    1.000
    H6       H        0.58820    0.56710    0.60610    1.000
    C10      C        0.68520    0.60430    0.60888    1.000
    C11      C        0.77220    0.61627    0.60071    1.000
    H7       H        0.79820    0.63580    0.60620    1.000
    C12      C        0.82050    0.59910    0.58428    1.000
    H8       H        0.87880    0.60710    0.57880    1.000
    C13      C        0.88370    0.65261    0.39461    1.000
    C14      C        0.97110    0.63650    0.39816    1.000
    H9       H        0.02400    0.64100    0.38930    1.000
    C15      C        0.97930    0.61350    0.41502    1.000
    H10      H        0.03770    0.60270    0.41740    1.000
    C16      C        0.90020    0.60670    0.42834    1.000
    C17      C        0.81280    0.62280    0.42479    1.000
    H11      H        0.75990    0.61830    0.43370    1.000
    C18      C        0.80460    0.64580    0.40793    1.000
    H12      H        0.74620    0.65660    0.40560    1.000
    C19      C        0.91230    0.55390    0.55160    1.000
    H13      H        0.95420    0.56690    0.55980    1.000
    C20      C        0.91040    0.58220    0.44640    1.000
    H14      H        0.85350    0.57190    0.45080    1.000
    C21      C        0.82280    0.55290    0.55710    1.000
    H15      H        0.78110    0.54040    0.54840    1.000
    C22      C        0.60200    0.78410    0.37740    1.000
    C23      C        0.98970    0.57300    0.45710    1.000
    H16      H        0.04700    0.58360    0.45340    1.000
    C24      C        0.95490    0.53370    0.53120    1.000
    C25      C        0.99500    0.54690    0.47480    1.000
    O3       O        0.88320    0.51910    0.52094    1.000
    O4       O        0.91250    0.53000    0.47612    1.000
    C26      C        0.49400    0.82940    0.37200    1.000
    O5       O        0.49160    0.84330    0.39130    1.000
    O6       O        0.45600    0.83790    0.35720    1.000
    C27      C        0.28600    0.87610    0.48070    1.000
    O7       O        0.32690    0.87550    0.43050    1.000
    C28      C        0.55100    0.79930    0.36650    1.000
    C29      C        0.68200    0.44270    0.38960    1.000
    O8       O        0.04400    0.03620    0.02760    1.000
    O9       O        0.06650    0.04600    0.98430    1.000
    C30      C        0.78860    0.20142    0.87632    1.000
    C31      C        0.77620    0.21990    0.89533    1.000
    H17      H        0.81070    0.21460    0.90790    1.000
    C32      C        0.71200    0.24640    0.89551    1.000
    H18      H        0.70370    0.25880    0.90820    1.000
    C33      C        0.66040    0.25430    0.87670    1.000
    C34      C        0.67280    0.23580    0.85767    1.000
    H19      H        0.63830    0.24120    0.84510    1.000
    C35      C        0.73700    0.20940    0.85749    1.000
    H20      H        0.74530    0.19700    0.84480    1.000
    Cu2      Cu       0.08789    0.00930    0.00401    1.000
    C36      C        0.78170    0.06990    0.07602    1.000
    C37      C        0.69470    0.05794    0.08418    1.000
    H21      H        0.66880    0.03840    0.07870    1.000
    C38      C        0.64640    0.07510    0.10061    1.000
    H22      H        0.58820    0.06710    0.10610    1.000
    C39      C        0.68520    0.10430    0.10888    1.000
    C40      C        0.77220    0.11627    0.10071    1.000
    H23      H        0.79820    0.13580    0.10620    1.000
    C41      C        0.82050    0.09910    0.08428    1.000
    H24      H        0.87880    0.10710    0.07880    1.000
    C42      C        0.88370    0.15261    0.89461    1.000
    C43      C        0.97110    0.13650    0.89816    1.000
    H25      H        0.02400    0.14100    0.88930    1.000
    C44      C        0.97930    0.11350    0.91502    1.000
    H26      H        0.03770    0.10270    0.91740    1.000
    C45      C        0.90020    0.10670    0.92834    1.000
    C46      C        0.81280    0.12280    0.92479    1.000
    H27      H        0.75990    0.11830    0.93370    1.000
    C47      C        0.80460    0.14580    0.90793    1.000
    H28      H        0.74620    0.15660    0.90560    1.000
    C48      C        0.91230    0.05390    0.05160    1.000
    H29      H        0.95420    0.06690    0.05980    1.000
    C49      C        0.91040    0.08220    0.94640    1.000
    H30      H        0.85350    0.07190    0.95080    1.000
    C50      C        0.82280    0.05290    0.05710    1.000
    H31      H        0.78110    0.04040    0.04840    1.000
    C51      C        0.60200    0.28410    0.87740    1.000
    C52      C        0.98970    0.07300    0.95710    1.000
    H32      H        0.04700    0.08360    0.95340    1.000
    C53      C        0.95490    0.03370    0.03120    1.000
    C54      C        0.99500    0.04690    0.97480    1.000
    O10      O        0.88320    0.01910    0.02094    1.000
    O11      O        0.91250    0.03000    0.97612    1.000
    C55      C        0.49400    0.32940    0.87200    1.000
    O12      O        0.49160    0.34330    0.89130    1.000
    O13      O        0.45600    0.33790    0.85720    1.000
    C56      C        0.28600    0.37610    0.98070    1.000
    O14      O        0.32690    0.37550    0.93050    1.000
    C57      C        0.55100    0.29930    0.86650    1.000
    C58      C        0.68200    0.94270    0.88960    1.000
    O15      O        0.54400    0.53620    0.02760    1.000
    O16      O        0.56650    0.54600    0.98430    1.000
    C59      C        0.28860    0.70142    0.87632    1.000
    C60      C        0.27620    0.71990    0.89533    1.000
    H33      H        0.31070    0.71460    0.90790    1.000
    C61      C        0.21200    0.74640    0.89551    1.000
    H34      H        0.20370    0.75880    0.90820    1.000
    C62      C        0.16040    0.75430    0.87670    1.000
    C63      C        0.17280    0.73580    0.85767    1.000
    H35      H        0.13830    0.74120    0.84510    1.000
    C64      C        0.23700    0.70940    0.85749    1.000
    H36      H        0.24530    0.69700    0.84480    1.000
    Cu3      Cu       0.58789    0.50930    0.00401    1.000
    C65      C        0.28170    0.56990    0.07602    1.000
    C66      C        0.19470    0.55794    0.08418    1.000
    H37      H        0.16880    0.53840    0.07870    1.000
    C67      C        0.14640    0.57510    0.10061    1.000
    H38      H        0.08820    0.56710    0.10610    1.000
    C68      C        0.18520    0.60430    0.10888    1.000
    C69      C        0.27220    0.61627    0.10071    1.000
    H39      H        0.29820    0.63580    0.10620    1.000
    C70      C        0.32050    0.59910    0.08428    1.000
    H40      H        0.37880    0.60710    0.07880    1.000
    C71      C        0.38370    0.65261    0.89461    1.000
    C72      C        0.47110    0.63650    0.89816    1.000
    H41      H        0.52400    0.64100    0.88930    1.000
    C73      C        0.47930    0.61350    0.91502    1.000
    H42      H        0.53770    0.60270    0.91740    1.000
    C74      C        0.40020    0.60670    0.92834    1.000
    C75      C        0.31280    0.62280    0.92479    1.000
    H43      H        0.25990    0.61830    0.93370    1.000
    C76      C        0.30460    0.64580    0.90793    1.000
    H44      H        0.24620    0.65660    0.90560    1.000
    C77      C        0.41230    0.55390    0.05160    1.000
    H45      H        0.45420    0.56690    0.05980    1.000
    C78      C        0.41040    0.58220    0.94640    1.000
    H46      H        0.35350    0.57190    0.95080    1.000
    C79      C        0.32280    0.55290    0.05710    1.000
    H47      H        0.28110    0.54040    0.04840    1.000
    C80      C        0.10200    0.78410    0.87740    1.000
    C81      C        0.48970    0.57300    0.95710    1.000
    H48      H        0.54700    0.58360    0.95340    1.000
    C82      C        0.45490    0.53370    0.03120    1.000
    C83      C        0.49500    0.54690    0.97480    1.000
    O17      O        0.38320    0.51910    0.02094    1.000
    O18      O        0.41250    0.53000    0.97612    1.000
    C84      C        0.99400    0.82940    0.87200    1.000
    O19      O        0.99160    0.84330    0.89130    1.000
    O20      O        0.95600    0.83790    0.85720    1.000
    C85      C        0.78600    0.87610    0.98070    1.000
    O21      O        0.82690    0.87550    0.93050    1.000
    C86      C        0.05100    0.79930    0.86650    1.000
    C87      C        0.18200    0.44270    0.88960    1.000
    O22      O        0.54400    0.03620    0.52760    1.000
    O23      O        0.56650    0.04600    0.48430    1.000
    C88      C        0.28860    0.20142    0.37632    1.000
    C89      C        0.27620    0.21990    0.39533    1.000
    H49      H        0.31070    0.21460    0.40790    1.000
    C90      C        0.21200    0.24640    0.39551    1.000
    H50      H        0.20370    0.25880    0.40820    1.000
    C91      C        0.16040    0.25430    0.37670    1.000
    C92      C        0.17280    0.23580    0.35767    1.000
    H51      H        0.13830    0.24120    0.34510    1.000
    C93      C        0.23700    0.20940    0.35749    1.000
    H52      H        0.24530    0.19700    0.34480    1.000
    Cu4      Cu       0.58789    0.00930    0.50401    1.000
    C94      C        0.28170    0.06990    0.57602    1.000
    C95      C        0.19470    0.05794    0.58418    1.000
    H53      H        0.16880    0.03840    0.57870    1.000
    C96      C        0.14640    0.07510    0.60061    1.000
    H54      H        0.08820    0.06710    0.60610    1.000
    C97      C        0.18520    0.10430    0.60888    1.000
    C98      C        0.27220    0.11627    0.60071    1.000
    H55      H        0.29820    0.13580    0.60620    1.000
    C99      C        0.32050    0.09910    0.58428    1.000
    H56      H        0.37880    0.10710    0.57880    1.000
    C100     C        0.38370    0.15261    0.39461    1.000
    C101     C        0.47110    0.13650    0.39816    1.000
    H57      H        0.52400    0.14100    0.38930    1.000
    C102     C        0.47930    0.11350    0.41502    1.000
    H58      H        0.53770    0.10270    0.41740    1.000
    C103     C        0.40020    0.10670    0.42834    1.000
    C104     C        0.31280    0.12280    0.42479    1.000
    H59      H        0.25990    0.11830    0.43370    1.000
    C105     C        0.30460    0.14580    0.40793    1.000
    H60      H        0.24620    0.15660    0.40560    1.000
    C106     C        0.41230    0.05390    0.55160    1.000
    H61      H        0.45420    0.06690    0.55980    1.000
    C107     C        0.41040    0.08220    0.44640    1.000
    H62      H        0.35350    0.07190    0.45080    1.000
    C108     C        0.32280    0.05290    0.55710    1.000
    H63      H        0.28110    0.04040    0.54840    1.000
    C109     C        0.10200    0.28410    0.37740    1.000
    C110     C        0.48970    0.07300    0.45710    1.000
    H64      H        0.54700    0.08360    0.45340    1.000
    C111     C        0.45490    0.03370    0.53120    1.000
    C112     C        0.49500    0.04690    0.47480    1.000
    O24      O        0.38320    0.01910    0.52094    1.000
    O25      O        0.41250    0.03000    0.47612    1.000
    C113     C        0.99400    0.32940    0.37200    1.000
    O26      O        0.99160    0.34330    0.39130    1.000
    O27      O        0.95600    0.33790    0.35720    1.000
    C114     C        0.78600    0.37610    0.48070    1.000
    O28      O        0.82690    0.37550    0.43050    1.000
    C115     C        0.05100    0.29930    0.36650    1.000
    C116     C        0.18200    0.94270    0.38960    1.000
    O29      O        0.70600    0.21380    0.52760    1.000
    O30      O        0.68350    0.20400    0.48430    1.000
    C117     C        0.96140    0.04858    0.37632    1.000
    C118     C        0.97380    0.03010    0.39533    1.000
    H65      H        0.93930    0.03540    0.40790    1.000
    C119     C        0.03800    0.00360    0.39551    1.000
    H66      H        0.04630    0.99120    0.40820    1.000
    C120     C        0.08960    0.99570    0.37670    1.000
    C121     C        0.07720    0.01420    0.35767    1.000
    H67      H        0.11170    0.00880    0.34510    1.000
    C122     C        0.01300    0.04060    0.35749    1.000
    H68      H        0.00470    0.05300    0.34480    1.000
    Cu5      Cu       0.66211    0.24070    0.50401    1.000
    C123     C        0.96830    0.18010    0.57602    1.000
    C124     C        0.05530    0.19206    0.58418    1.000
    H69      H        0.08120    0.21160    0.57870    1.000
    C125     C        0.10360    0.17490    0.60061    1.000
    H70      H        0.16180    0.18290    0.60610    1.000
    C126     C        0.06480    0.14570    0.60888    1.000
    C127     C        0.97780    0.13373    0.60071    1.000
    H71      H        0.95180    0.11420    0.60620    1.000
    C128     C        0.92950    0.15090    0.58428    1.000
    H72      H        0.87120    0.14290    0.57880    1.000
    C129     C        0.86630    0.09739    0.39461    1.000
    C130     C        0.77890    0.11350    0.39816    1.000
    H73      H        0.72600    0.10900    0.38930    1.000
    C131     C        0.77070    0.13650    0.41502    1.000
    H74      H        0.71230    0.14730    0.41740    1.000
    C132     C        0.84980    0.14330    0.42834    1.000
    C133     C        0.93720    0.12720    0.42479    1.000
    H75      H        0.99010    0.13170    0.43370    1.000
    C134     C        0.94540    0.10420    0.40793    1.000
    H76      H        0.00380    0.09340    0.40560    1.000
    C135     C        0.83770    0.19610    0.55160    1.000
    H77      H        0.79580    0.18310    0.55980    1.000
    C136     C        0.83960    0.16780    0.44640    1.000
    H78      H        0.89650    0.17810    0.45080    1.000
    C137     C        0.92720    0.19710    0.55710    1.000
    H79      H        0.96890    0.20960    0.54840    1.000
    C138     C        0.14800    0.96590    0.37740    1.000
    C139     C        0.76030    0.17700    0.45710    1.000
    H80      H        0.70300    0.16640    0.45340    1.000
    C140     C        0.79510    0.21630    0.53120    1.000
    C141     C        0.75500    0.20310    0.47480    1.000
    O31      O        0.86680    0.23090    0.52094    1.000
    O32      O        0.83750    0.22000    0.47612    1.000
    C142     C        0.25600    0.92060    0.37200    1.000
    O33      O        0.25840    0.90670    0.39130    1.000
    O34      O        0.29400    0.91210    0.35720    1.000
    C143     C        0.46400    0.87390    0.48070    1.000
    O35      O        0.42310    0.87450    0.43050    1.000
    C144     C        0.19900    0.95070    0.36650    1.000
    C145     C        0.06800    0.30730    0.38960    1.000
    O36      O        0.70600    0.71380    0.02760    1.000
    O37      O        0.68350    0.70400    0.98430    1.000
    C146     C        0.96140    0.54858    0.87632    1.000
    C147     C        0.97380    0.53010    0.89533    1.000
    H81      H        0.93930    0.53540    0.90790    1.000
    C148     C        0.03800    0.50360    0.89551    1.000
    H82      H        0.04630    0.49120    0.90820    1.000
    C149     C        0.08960    0.49570    0.87670    1.000
    C150     C        0.07720    0.51420    0.85767    1.000
    H83      H        0.11170    0.50880    0.84510    1.000
    C151     C        0.01300    0.54060    0.85749    1.000
    H84      H        0.00470    0.55300    0.84480    1.000
    Cu6      Cu       0.66211    0.74070    0.00401    1.000
    C152     C        0.96830    0.68010    0.07602    1.000
    C153     C        0.05530    0.69206    0.08418    1.000
    H85      H        0.08120    0.71160    0.07870    1.000
    C154     C        0.10360    0.67490    0.10061    1.000
    H86      H        0.16180    0.68290    0.10610    1.000
    C155     C        0.06480    0.64570    0.10888    1.000
    C156     C        0.97780    0.63373    0.10071    1.000
    H87      H        0.95180    0.61420    0.10620    1.000
    C157     C        0.92950    0.65090    0.08428    1.000
    H88      H        0.87120    0.64290    0.07880    1.000
    C158     C        0.86630    0.59739    0.89461    1.000
    C159     C        0.77890    0.61350    0.89816    1.000
    H89      H        0.72600    0.60900    0.88930    1.000
    C160     C        0.77070    0.63650    0.91502    1.000
    H90      H        0.71230    0.64730    0.91740    1.000
    C161     C        0.84980    0.64330    0.92834    1.000
    C162     C        0.93720    0.62720    0.92479    1.000
    H91      H        0.99010    0.63170    0.93370    1.000
    C163     C        0.94540    0.60420    0.90793    1.000
    H92      H        0.00380    0.59340    0.90560    1.000
    C164     C        0.83770    0.69610    0.05160    1.000
    H93      H        0.79580    0.68310    0.05980    1.000
    C165     C        0.83960    0.66780    0.94640    1.000
    H94      H        0.89650    0.67810    0.95080    1.000
    C166     C        0.92720    0.69710    0.05710    1.000
    H95      H        0.96890    0.70960    0.04840    1.000
    C167     C        0.14800    0.46590    0.87740    1.000
    C168     C        0.76030    0.67700    0.95710    1.000
    H96      H        0.70300    0.66640    0.95340    1.000
    C169     C        0.79510    0.71630    0.03120    1.000
    C170     C        0.75500    0.70310    0.97480    1.000
    O38      O        0.86680    0.73090    0.02094    1.000
    O39      O        0.83750    0.72000    0.97612    1.000
    C171     C        0.25600    0.42060    0.87200    1.000
    O40      O        0.25840    0.40670    0.89130    1.000
    O41      O        0.29400    0.41210    0.85720    1.000
    C172     C        0.46400    0.37390    0.98070    1.000
    O42      O        0.42310    0.37450    0.93050    1.000
    C173     C        0.19900    0.45070    0.86650    1.000
    C174     C        0.06800    0.80730    0.88960    1.000
    O43      O        0.20600    0.21380    0.02760    1.000
    O44      O        0.18350    0.20400    0.98430    1.000
    C175     C        0.46140    0.04858    0.87632    1.000
    C176     C        0.47380    0.03010    0.89533    1.000
    H97      H        0.43930    0.03540    0.90790    1.000
    C177     C        0.53800    0.00360    0.89551    1.000
    H98      H        0.54630    0.99120    0.90820    1.000
    C178     C        0.58960    0.99570    0.87670    1.000
    C179     C        0.57720    0.01420    0.85767    1.000
    H99      H        0.61170    0.00880    0.84510    1.000
    C180     C        0.51300    0.04060    0.85749    1.000
    H100     H        0.50470    0.05300    0.84480    1.000
    Cu7      Cu       0.16211    0.24070    0.00401    1.000
    C181     C        0.46830    0.18010    0.07602    1.000
    C182     C        0.55530    0.19206    0.08418    1.000
    H101     H        0.58120    0.21160    0.07870    1.000
    C183     C        0.60360    0.17490    0.10061    1.000
    H102     H        0.66180    0.18290    0.10610    1.000
    C184     C        0.56480    0.14570    0.10888    1.000
    C185     C        0.47780    0.13373    0.10071    1.000
    H103     H        0.45180    0.11420    0.10620    1.000
    C186     C        0.42950    0.15090    0.08428    1.000
    H104     H        0.37120    0.14290    0.07880    1.000
    C187     C        0.36630    0.09739    0.89461    1.000
    C188     C        0.27890    0.11350    0.89816    1.000
    H105     H        0.22600    0.10900    0.88930    1.000
    C189     C        0.27070    0.13650    0.91502    1.000
    H106     H        0.21230    0.14730    0.91740    1.000
    C190     C        0.34980    0.14330    0.92834    1.000
    C191     C        0.43720    0.12720    0.92479    1.000
    H107     H        0.49010    0.13170    0.93370    1.000
    C192     C        0.44540    0.10420    0.90793    1.000
    H108     H        0.50380    0.09340    0.90560    1.000
    C193     C        0.33770    0.19610    0.05160    1.000
    H109     H        0.29580    0.18310    0.05980    1.000
    C194     C        0.33960    0.16780    0.94640    1.000
    H110     H        0.39650    0.17810    0.95080    1.000
    C195     C        0.42720    0.19710    0.05710    1.000
    H111     H        0.46890    0.20960    0.04840    1.000
    C196     C        0.64800    0.96590    0.87740    1.000
    C197     C        0.26030    0.17700    0.95710    1.000
    H112     H        0.20300    0.16640    0.95340    1.000
    C198     C        0.29510    0.21630    0.03120    1.000
    C199     C        0.25500    0.20310    0.97480    1.000
    O45      O        0.36680    0.23090    0.02094    1.000
    O46      O        0.33750    0.22000    0.97612    1.000
    C200     C        0.75600    0.92060    0.87200    1.000
    O47      O        0.75840    0.90670    0.89130    1.000
    O48      O        0.79400    0.91210    0.85720    1.000
    C201     C        0.96400    0.87390    0.98070    1.000
    O49      O        0.92310    0.87450    0.93050    1.000
    C202     C        0.69900    0.95070    0.86650    1.000
    C203     C        0.56800    0.30730    0.88960    1.000
    O50      O        0.20600    0.71380    0.52760    1.000
    O51      O        0.18350    0.70400    0.48430    1.000
    C204     C        0.46140    0.54858    0.37632    1.000
    C205     C        0.47380    0.53010    0.39533    1.000
    H113     H        0.43930    0.53540    0.40790    1.000
    C206     C        0.53800    0.50360    0.39551    1.000
    H114     H        0.54630    0.49120    0.40820    1.000
    C207     C        0.58960    0.49570    0.37670    1.000
    C208     C        0.57720    0.51420    0.35767    1.000
    H115     H        0.61170    0.50880    0.34510    1.000
    C209     C        0.51300    0.54060    0.35749    1.000
    H116     H        0.50470    0.55300    0.34480    1.000
    Cu8      Cu       0.16211    0.74070    0.50401    1.000
    C210     C        0.46830    0.68010    0.57602    1.000
    C211     C        0.55530    0.69206    0.58418    1.000
    H117     H        0.58120    0.71160    0.57870    1.000
    C212     C        0.60360    0.67490    0.60061    1.000
    H118     H        0.66180    0.68290    0.60610    1.000
    C213     C        0.56480    0.64570    0.60888    1.000
    C214     C        0.47780    0.63373    0.60071    1.000
    H119     H        0.45180    0.61420    0.60620    1.000
    C215     C        0.42950    0.65090    0.58428    1.000
    H120     H        0.37120    0.64290    0.57880    1.000
    C216     C        0.36630    0.59739    0.39461    1.000
    C217     C        0.27890    0.61350    0.39816    1.000
    H121     H        0.22600    0.60900    0.38930    1.000
    C218     C        0.27070    0.63650    0.41502    1.000
    H122     H        0.21230    0.64730    0.41740    1.000
    C219     C        0.34980    0.64330    0.42834    1.000
    C220     C        0.43720    0.62720    0.42479    1.000
    H123     H        0.49010    0.63170    0.43370    1.000
    C221     C        0.44540    0.60420    0.40793    1.000
    H124     H        0.50380    0.59340    0.40560    1.000
    C222     C        0.33770    0.69610    0.55160    1.000
    H125     H        0.29580    0.68310    0.55980    1.000
    C223     C        0.33960    0.66780    0.44640    1.000
    H126     H        0.39650    0.67810    0.45080    1.000
    C224     C        0.42720    0.69710    0.55710    1.000
    H127     H        0.46890    0.70960    0.54840    1.000
    C225     C        0.64800    0.46590    0.37740    1.000
    C226     C        0.26030    0.67700    0.45710    1.000
    H128     H        0.20300    0.66640    0.45340    1.000
    C227     C        0.29510    0.71630    0.53120    1.000
    C228     C        0.25500    0.70310    0.47480    1.000
    O52      O        0.36680    0.73090    0.52094    1.000
    O53      O        0.33750    0.72000    0.47612    1.000
    C229     C        0.75600    0.42060    0.37200    1.000
    O54      O        0.75840    0.40670    0.39130    1.000
    O55      O        0.79400    0.41210    0.35720    1.000
    C230     C        0.96400    0.37390    0.48070    1.000
    O56      O        0.92310    0.37450    0.43050    1.000
    C231     C        0.69900    0.45070    0.36650    1.000
    C232     C        0.56800    0.80730    0.38960    1.000
    O57      O        0.70600    0.53620    0.22240    1.000
    O58      O        0.68350    0.54600    0.26570    1.000
    C233     C        0.96140    0.70142    0.37368    1.000
    C234     C        0.97380    0.71990    0.35467    1.000
    H129     H        0.93930    0.71460    0.34210    1.000
    C235     C        0.03800    0.74640    0.35449    1.000
    H130     H        0.04630    0.75880    0.34180    1.000
    C236     C        0.08960    0.75430    0.37330    1.000
    C237     C        0.07720    0.73580    0.39233    1.000
    H131     H        0.11170    0.74120    0.40490    1.000
    C238     C        0.01300    0.70940    0.39251    1.000
    H132     H        0.00470    0.69700    0.40520    1.000
    Cu9      Cu       0.66211    0.50930    0.24599    1.000
    C239     C        0.96830    0.56990    0.17398    1.000
    C240     C        0.05530    0.55794    0.16582    1.000
    H133     H        0.08120    0.53840    0.17130    1.000
    C241     C        0.10360    0.57510    0.14939    1.000
    H134     H        0.16180    0.56710    0.14390    1.000
    C242     C        0.06480    0.60430    0.14112    1.000
    C243     C        0.97780    0.61627    0.14929    1.000
    H135     H        0.95180    0.63580    0.14380    1.000
    C244     C        0.92950    0.59910    0.16572    1.000
    H136     H        0.87120    0.60710    0.17120    1.000
    C245     C        0.86630    0.65261    0.35539    1.000
    C246     C        0.77890    0.63650    0.35184    1.000
    H137     H        0.72600    0.64100    0.36070    1.000
    C247     C        0.77070    0.61350    0.33498    1.000
    H138     H        0.71230    0.60270    0.33260    1.000
    C248     C        0.84980    0.60670    0.32166    1.000
    C249     C        0.93720    0.62280    0.32521    1.000
    H139     H        0.99010    0.61830    0.31630    1.000
    C250     C        0.94540    0.64580    0.34207    1.000
    H140     H        0.00380    0.65660    0.34440    1.000
    C251     C        0.83770    0.55390    0.19840    1.000
    H141     H        0.79580    0.56690    0.19020    1.000
    C252     C        0.83960    0.58220    0.30360    1.000
    H142     H        0.89650    0.57190    0.29920    1.000
    C253     C        0.92720    0.55290    0.19290    1.000
    H143     H        0.96890    0.54040    0.20160    1.000
    C254     C        0.14800    0.78410    0.37260    1.000
    C255     C        0.76030    0.57300    0.29290    1.000
    H144     H        0.70300    0.58360    0.29660    1.000
    C256     C        0.79510    0.53370    0.21880    1.000
    C257     C        0.75500    0.54690    0.27520    1.000
    O59      O        0.86680    0.51910    0.22906    1.000
    O60      O        0.83750    0.53000    0.27388    1.000
    C258     C        0.25600    0.82940    0.37800    1.000
    O61      O        0.25840    0.84330    0.35870    1.000
    O62      O        0.29400    0.83790    0.39280    1.000
    C259     C        0.46400    0.87610    0.26930    1.000
    O63      O        0.42310    0.87550    0.31950    1.000
    C260     C        0.19900    0.79930    0.38350    1.000
    C261     C        0.06800    0.44270    0.36040    1.000
    O64      O        0.70600    0.03620    0.72240    1.000
    O65      O        0.68350    0.04600    0.76570    1.000
    C262     C        0.96140    0.20142    0.87368    1.000
    C263     C        0.97380    0.21990    0.85467    1.000
    H145     H        0.93930    0.21460    0.84210    1.000
    C264     C        0.03800    0.24640    0.85449    1.000
    H146     H        0.04630    0.25880    0.84180    1.000
    C265     C        0.08960    0.25430    0.87330    1.000
    C266     C        0.07720    0.23580    0.89233    1.000
    H147     H        0.11170    0.24120    0.90490    1.000
    C267     C        0.01300    0.20940    0.89251    1.000
    H148     H        0.00470    0.19700    0.90520    1.000
    Cu10     Cu       0.66211    0.00930    0.74599    1.000
    C268     C        0.96830    0.06990    0.67398    1.000
    C269     C        0.05530    0.05794    0.66582    1.000
    H149     H        0.08120    0.03840    0.67130    1.000
    C270     C        0.10360    0.07510    0.64939    1.000
    H150     H        0.16180    0.06710    0.64390    1.000
    C271     C        0.06480    0.10430    0.64112    1.000
    C272     C        0.97780    0.11627    0.64929    1.000
    H151     H        0.95180    0.13580    0.64380    1.000
    C273     C        0.92950    0.09910    0.66572    1.000
    H152     H        0.87120    0.10710    0.67120    1.000
    C274     C        0.86630    0.15261    0.85539    1.000
    C275     C        0.77890    0.13650    0.85184    1.000
    H153     H        0.72600    0.14100    0.86070    1.000
    C276     C        0.77070    0.11350    0.83498    1.000
    H154     H        0.71230    0.10270    0.83260    1.000
    C277     C        0.84980    0.10670    0.82166    1.000
    C278     C        0.93720    0.12280    0.82521    1.000
    H155     H        0.99010    0.11830    0.81630    1.000
    C279     C        0.94540    0.14580    0.84207    1.000
    H156     H        0.00380    0.15660    0.84440    1.000
    C280     C        0.83770    0.05390    0.69840    1.000
    H157     H        0.79580    0.06690    0.69020    1.000
    C281     C        0.83960    0.08220    0.80360    1.000
    H158     H        0.89650    0.07190    0.79920    1.000
    C282     C        0.92720    0.05290    0.69290    1.000
    H159     H        0.96890    0.04040    0.70160    1.000
    C283     C        0.14800    0.28410    0.87260    1.000
    C284     C        0.76030    0.07300    0.79290    1.000
    H160     H        0.70300    0.08360    0.79660    1.000
    C285     C        0.79510    0.03370    0.71880    1.000
    C286     C        0.75500    0.04690    0.77520    1.000
    O66      O        0.86680    0.01910    0.72906    1.000
    O67      O        0.83750    0.03000    0.77388    1.000
    C287     C        0.25600    0.32940    0.87800    1.000
    O68      O        0.25840    0.34330    0.85870    1.000
    O69      O        0.29400    0.33790    0.89280    1.000
    C288     C        0.46400    0.37610    0.76930    1.000
    O70      O        0.42310    0.37550    0.81950    1.000
    C289     C        0.19900    0.29930    0.88350    1.000
    C290     C        0.06800    0.94270    0.86040    1.000
    O71      O        0.20600    0.53620    0.72240    1.000
    O72      O        0.18350    0.54600    0.76570    1.000
    C291     C        0.46140    0.70142    0.87368    1.000
    C292     C        0.47380    0.71990    0.85467    1.000
    H161     H        0.43930    0.71460    0.84210    1.000
    C293     C        0.53800    0.74640    0.85449    1.000
    H162     H        0.54630    0.75880    0.84180    1.000
    C294     C        0.58960    0.75430    0.87330    1.000
    C295     C        0.57720    0.73580    0.89233    1.000
    H163     H        0.61170    0.74120    0.90490    1.000
    C296     C        0.51300    0.70940    0.89251    1.000
    H164     H        0.50470    0.69700    0.90520    1.000
    Cu11     Cu       0.16211    0.50930    0.74599    1.000
    C297     C        0.46830    0.56990    0.67398    1.000
    C298     C        0.55530    0.55794    0.66582    1.000
    H165     H        0.58120    0.53840    0.67130    1.000
    C299     C        0.60360    0.57510    0.64939    1.000
    H166     H        0.66180    0.56710    0.64390    1.000
    C300     C        0.56480    0.60430    0.64112    1.000
    C301     C        0.47780    0.61627    0.64929    1.000
    H167     H        0.45180    0.63580    0.64380    1.000
    C302     C        0.42950    0.59910    0.66572    1.000
    H168     H        0.37120    0.60710    0.67120    1.000
    C303     C        0.36630    0.65261    0.85539    1.000
    C304     C        0.27890    0.63650    0.85184    1.000
    H169     H        0.22600    0.64100    0.86070    1.000
    C305     C        0.27070    0.61350    0.83498    1.000
    H170     H        0.21230    0.60270    0.83260    1.000
    C306     C        0.34980    0.60670    0.82166    1.000
    C307     C        0.43720    0.62280    0.82521    1.000
    H171     H        0.49010    0.61830    0.81630    1.000
    C308     C        0.44540    0.64580    0.84207    1.000
    H172     H        0.50380    0.65660    0.84440    1.000
    C309     C        0.33770    0.55390    0.69840    1.000
    H173     H        0.29580    0.56690    0.69020    1.000
    C310     C        0.33960    0.58220    0.80360    1.000
    H174     H        0.39650    0.57190    0.79920    1.000
    C311     C        0.42720    0.55290    0.69290    1.000
    H175     H        0.46890    0.54040    0.70160    1.000
    C312     C        0.64800    0.78410    0.87260    1.000
    C313     C        0.26030    0.57300    0.79290    1.000
    H176     H        0.20300    0.58360    0.79660    1.000
    C314     C        0.29510    0.53370    0.71880    1.000
    C315     C        0.25500    0.54690    0.77520    1.000
    O73      O        0.36680    0.51910    0.72906    1.000
    O74      O        0.33750    0.53000    0.77388    1.000
    C316     C        0.75600    0.82940    0.87800    1.000
    O75      O        0.75840    0.84330    0.85870    1.000
    O76      O        0.79400    0.83790    0.89280    1.000
    C317     C        0.96400    0.87610    0.76930    1.000
    O77      O        0.92310    0.87550    0.81950    1.000
    C318     C        0.69900    0.79930    0.88350    1.000
    C319     C        0.56800    0.44270    0.86040    1.000
    O78      O        0.20600    0.03620    0.22240    1.000
    O79      O        0.18350    0.04600    0.26570    1.000
    C320     C        0.46140    0.20142    0.37368    1.000
    C321     C        0.47380    0.21990    0.35467    1.000
    H177     H        0.43930    0.21460    0.34210    1.000
    C322     C        0.53800    0.24640    0.35449    1.000
    H178     H        0.54630    0.25880    0.34180    1.000
    C323     C        0.58960    0.25430    0.37330    1.000
    C324     C        0.57720    0.23580    0.39233    1.000
    H179     H        0.61170    0.24120    0.40490    1.000
    C325     C        0.51300    0.20940    0.39251    1.000
    H180     H        0.50470    0.19700    0.40520    1.000
    Cu12     Cu       0.16211    0.00930    0.24599    1.000
    C326     C        0.46830    0.06990    0.17398    1.000
    C327     C        0.55530    0.05794    0.16582    1.000
    H181     H        0.58120    0.03840    0.17130    1.000
    C328     C        0.60360    0.07510    0.14939    1.000
    H182     H        0.66180    0.06710    0.14390    1.000
    C329     C        0.56480    0.10430    0.14112    1.000
    C330     C        0.47780    0.11627    0.14929    1.000
    H183     H        0.45180    0.13580    0.14380    1.000
    C331     C        0.42950    0.09910    0.16572    1.000
    H184     H        0.37120    0.10710    0.17120    1.000
    C332     C        0.36630    0.15261    0.35539    1.000
    C333     C        0.27890    0.13650    0.35184    1.000
    H185     H        0.22600    0.14100    0.36070    1.000
    C334     C        0.27070    0.11350    0.33498    1.000
    H186     H        0.21230    0.10270    0.33260    1.000
    C335     C        0.34980    0.10670    0.32166    1.000
    C336     C        0.43720    0.12280    0.32521    1.000
    H187     H        0.49010    0.11830    0.31630    1.000
    C337     C        0.44540    0.14580    0.34207    1.000
    H188     H        0.50380    0.15660    0.34440    1.000
    C338     C        0.33770    0.05390    0.19840    1.000
    H189     H        0.29580    0.06690    0.19020    1.000
    C339     C        0.33960    0.08220    0.30360    1.000
    H190     H        0.39650    0.07190    0.29920    1.000
    C340     C        0.42720    0.05290    0.19290    1.000
    H191     H        0.46890    0.04040    0.20160    1.000
    C341     C        0.64800    0.28410    0.37260    1.000
    C342     C        0.26030    0.07300    0.29290    1.000
    H192     H        0.20300    0.08360    0.29660    1.000
    C343     C        0.29510    0.03370    0.21880    1.000
    C344     C        0.25500    0.04690    0.27520    1.000
    O80      O        0.36680    0.01910    0.22906    1.000
    O81      O        0.33750    0.03000    0.27388    1.000
    C345     C        0.75600    0.32940    0.37800    1.000
    O82      O        0.75840    0.34330    0.35870    1.000
    O83      O        0.79400    0.33790    0.39280    1.000
    C346     C        0.96400    0.37610    0.26930    1.000
    O84      O        0.92310    0.37550    0.31950    1.000
    C347     C        0.69900    0.29930    0.38350    1.000
    C348     C        0.56800    0.94270    0.36040    1.000
    O85      O        0.04400    0.21380    0.22240    1.000
    O86      O        0.06650    0.20400    0.26570    1.000
    C349     C        0.78860    0.04858    0.37368    1.000
    C350     C        0.77620    0.03010    0.35467    1.000
    H193     H        0.81070    0.03540    0.34210    1.000
    C351     C        0.71200    0.00360    0.35449    1.000
    H194     H        0.70370    0.99120    0.34180    1.000
    C352     C        0.66040    0.99570    0.37330    1.000
    C353     C        0.67280    0.01420    0.39233    1.000
    H195     H        0.63830    0.00880    0.40490    1.000
    C354     C        0.73700    0.04060    0.39251    1.000
    H196     H        0.74530    0.05300    0.40520    1.000
    Cu13     Cu       0.08789    0.24070    0.24599    1.000
    C355     C        0.78170    0.18010    0.17398    1.000
    C356     C        0.69470    0.19206    0.16582    1.000
    H197     H        0.66880    0.21160    0.17130    1.000
    C357     C        0.64640    0.17490    0.14939    1.000
    H198     H        0.58820    0.18290    0.14390    1.000
    C358     C        0.68520    0.14570    0.14112    1.000
    C359     C        0.77220    0.13373    0.14929    1.000
    H199     H        0.79820    0.11420    0.14380    1.000
    C360     C        0.82050    0.15090    0.16572    1.000
    H200     H        0.87880    0.14290    0.17120    1.000
    C361     C        0.88370    0.09739    0.35539    1.000
    C362     C        0.97110    0.11350    0.35184    1.000
    H201     H        0.02400    0.10900    0.36070    1.000
    C363     C        0.97930    0.13650    0.33498    1.000
    H202     H        0.03770    0.14730    0.33260    1.000
    C364     C        0.90020    0.14330    0.32166    1.000
    C365     C        0.81280    0.12720    0.32521    1.000
    H203     H        0.75990    0.13170    0.31630    1.000
    C366     C        0.80460    0.10420    0.34207    1.000
    H204     H        0.74620    0.09340    0.34440    1.000
    C367     C        0.91230    0.19610    0.19840    1.000
    H205     H        0.95420    0.18310    0.19020    1.000
    C368     C        0.91040    0.16780    0.30360    1.000
    H206     H        0.85350    0.17810    0.29920    1.000
    C369     C        0.82280    0.19710    0.19290    1.000
    H207     H        0.78110    0.20960    0.20160    1.000
    C370     C        0.60200    0.96590    0.37260    1.000
    C371     C        0.98970    0.17700    0.29290    1.000
    H208     H        0.04700    0.16640    0.29660    1.000
    C372     C        0.95490    0.21630    0.21880    1.000
    C373     C        0.99500    0.20310    0.27520    1.000
    O87      O        0.88320    0.23090    0.22906    1.000
    O88      O        0.91250    0.22000    0.27388    1.000
    C374     C        0.49400    0.92060    0.37800    1.000
    O89      O        0.49160    0.90670    0.35870    1.000
    O90      O        0.45600    0.91210    0.39280    1.000
    C375     C        0.28600    0.87390    0.26930    1.000
    O91      O        0.32690    0.87450    0.31950    1.000
    C376     C        0.55100    0.95070    0.38350    1.000
    C377     C        0.68200    0.30730    0.36040    1.000
    O92      O        0.04400    0.71380    0.72240    1.000
    O93      O        0.06650    0.70400    0.76570    1.000
    C378     C        0.78860    0.54858    0.87368    1.000
    C379     C        0.77620    0.53010    0.85467    1.000
    H209     H        0.81070    0.53540    0.84210    1.000
    C380     C        0.71200    0.50360    0.85449    1.000
    H210     H        0.70370    0.49120    0.84180    1.000
    C381     C        0.66040    0.49570    0.87330    1.000
    C382     C        0.67280    0.51420    0.89233    1.000
    H211     H        0.63830    0.50880    0.90490    1.000
    C383     C        0.73700    0.54060    0.89251    1.000
    H212     H        0.74530    0.55300    0.90520    1.000
    Cu14     Cu       0.08789    0.74070    0.74599    1.000
    C384     C        0.78170    0.68010    0.67398    1.000
    C385     C        0.69470    0.69206    0.66582    1.000
    H213     H        0.66880    0.71160    0.67130    1.000
    C386     C        0.64640    0.67490    0.64939    1.000
    H214     H        0.58820    0.68290    0.64390    1.000
    C387     C        0.68520    0.64570    0.64112    1.000
    C388     C        0.77220    0.63373    0.64929    1.000
    H215     H        0.79820    0.61420    0.64380    1.000
    C389     C        0.82050    0.65090    0.66572    1.000
    H216     H        0.87880    0.64290    0.67120    1.000
    C390     C        0.88370    0.59739    0.85539    1.000
    C391     C        0.97110    0.61350    0.85184    1.000
    H217     H        0.02400    0.60900    0.86070    1.000
    C392     C        0.97930    0.63650    0.83498    1.000
    H218     H        0.03770    0.64730    0.83260    1.000
    C393     C        0.90020    0.64330    0.82166    1.000
    C394     C        0.81280    0.62720    0.82521    1.000
    H219     H        0.75990    0.63170    0.81630    1.000
    C395     C        0.80460    0.60420    0.84207    1.000
    H220     H        0.74620    0.59340    0.84440    1.000
    C396     C        0.91230    0.69610    0.69840    1.000
    H221     H        0.95420    0.68310    0.69020    1.000
    C397     C        0.91040    0.66780    0.80360    1.000
    H222     H        0.85350    0.67810    0.79920    1.000
    C398     C        0.82280    0.69710    0.69290    1.000
    H223     H        0.78110    0.70960    0.70160    1.000
    C399     C        0.60200    0.46590    0.87260    1.000
    C400     C        0.98970    0.67700    0.79290    1.000
    H224     H        0.04700    0.66640    0.79660    1.000
    C401     C        0.95490    0.71630    0.71880    1.000
    C402     C        0.99500    0.70310    0.77520    1.000
    O94      O        0.88320    0.73090    0.72906    1.000
    O95      O        0.91250    0.72000    0.77388    1.000
    C403     C        0.49400    0.42060    0.87800    1.000
    O96      O        0.49160    0.40670    0.85870    1.000
    O97      O        0.45600    0.41210    0.89280    1.000
    C404     C        0.28600    0.37390    0.76930    1.000
    O98      O        0.32690    0.37450    0.81950    1.000
    C405     C        0.55100    0.45070    0.88350    1.000
    C406     C        0.68200    0.80730    0.86040    1.000
    O99      O        0.54400    0.21380    0.72240    1.000
    O100     O        0.56650    0.20400    0.76570    1.000
    C407     C        0.28860    0.04858    0.87368    1.000
    C408     C        0.27620    0.03010    0.85467    1.000
    H225     H        0.31070    0.03540    0.84210    1.000
    C409     C        0.21200    0.00360    0.85449    1.000
    H226     H        0.20370    0.99120    0.84180    1.000
    C410     C        0.16040    0.99570    0.87330    1.000
    C411     C        0.17280    0.01420    0.89233    1.000
    H227     H        0.13830    0.00880    0.90490    1.000
    C412     C        0.23700    0.04060    0.89251    1.000
    H228     H        0.24530    0.05300    0.90520    1.000
    Cu15     Cu       0.58789    0.24070    0.74599    1.000
    C413     C        0.28170    0.18010    0.67398    1.000
    C414     C        0.19470    0.19206    0.66582    1.000
    H229     H        0.16880    0.21160    0.67130    1.000
    C415     C        0.14640    0.17490    0.64939    1.000
    H230     H        0.08820    0.18290    0.64390    1.000
    C416     C        0.18520    0.14570    0.64112    1.000
    C417     C        0.27220    0.13373    0.64929    1.000
    H231     H        0.29820    0.11420    0.64380    1.000
    C418     C        0.32050    0.15090    0.66572    1.000
    H232     H        0.37880    0.14290    0.67120    1.000
    C419     C        0.38370    0.09739    0.85539    1.000
    C420     C        0.47110    0.11350    0.85184    1.000
    H233     H        0.52400    0.10900    0.86070    1.000
    C421     C        0.47930    0.13650    0.83498    1.000
    H234     H        0.53770    0.14730    0.83260    1.000
    C422     C        0.40020    0.14330    0.82166    1.000
    C423     C        0.31280    0.12720    0.82521    1.000
    H235     H        0.25990    0.13170    0.81630    1.000
    C424     C        0.30460    0.10420    0.84207    1.000
    H236     H        0.24620    0.09340    0.84440    1.000
    C425     C        0.41230    0.19610    0.69840    1.000
    H237     H        0.45420    0.18310    0.69020    1.000
    C426     C        0.41040    0.16780    0.80360    1.000
    H238     H        0.35350    0.17810    0.79920    1.000
    C427     C        0.32280    0.19710    0.69290    1.000
    H239     H        0.28110    0.20960    0.70160    1.000
    C428     C        0.10200    0.96590    0.87260    1.000
    C429     C        0.48970    0.17700    0.79290    1.000
    H240     H        0.54700    0.16640    0.79660    1.000
    C430     C        0.45490    0.21630    0.71880    1.000
    C431     C        0.49500    0.20310    0.77520    1.000
    O101     O        0.38320    0.23090    0.72906    1.000
    O102     O        0.41250    0.22000    0.77388    1.000
    C432     C        0.99400    0.92060    0.87800    1.000
    O103     O        0.99160    0.90670    0.85870    1.000
    O104     O        0.95600    0.91210    0.89280    1.000
    C433     C        0.78600    0.87390    0.76930    1.000
    O105     O        0.82690    0.87450    0.81950    1.000
    C434     C        0.05100    0.95070    0.88350    1.000
    C435     C        0.18200    0.30730    0.86040    1.000
    O106     O        0.54400    0.71380    0.22240    1.000
    O107     O        0.56650    0.70400    0.26570    1.000
    C436     C        0.28860    0.54858    0.37368    1.000
    C437     C        0.27620    0.53010    0.35467    1.000
    H241     H        0.31070    0.53540    0.34210    1.000
    C438     C        0.21200    0.50360    0.35449    1.000
    H242     H        0.20370    0.49120    0.34180    1.000
    C439     C        0.16040    0.49570    0.37330    1.000
    C440     C        0.17280    0.51420    0.39233    1.000
    H243     H        0.13830    0.50880    0.40490    1.000
    C441     C        0.23700    0.54060    0.39251    1.000
    H244     H        0.24530    0.55300    0.40520    1.000
    Cu16     Cu       0.58789    0.74070    0.24599    1.000
    C442     C        0.28170    0.68010    0.17398    1.000
    C443     C        0.19470    0.69206    0.16582    1.000
    H245     H        0.16880    0.71160    0.17130    1.000
    C444     C        0.14640    0.67490    0.14939    1.000
    H246     H        0.08820    0.68290    0.14390    1.000
    C445     C        0.18520    0.64570    0.14112    1.000
    C446     C        0.27220    0.63373    0.14929    1.000
    H247     H        0.29820    0.61420    0.14380    1.000
    C447     C        0.32050    0.65090    0.16572    1.000
    H248     H        0.37880    0.64290    0.17120    1.000
    C448     C        0.38370    0.59739    0.35539    1.000
    C449     C        0.47110    0.61350    0.35184    1.000
    H249     H        0.52400    0.60900    0.36070    1.000
    C450     C        0.47930    0.63650    0.33498    1.000
    H250     H        0.53770    0.64730    0.33260    1.000
    C451     C        0.40020    0.64330    0.32166    1.000
    C452     C        0.31280    0.62720    0.32521    1.000
    H251     H        0.25990    0.63170    0.31630    1.000
    C453     C        0.30460    0.60420    0.34207    1.000
    H252     H        0.24620    0.59340    0.34440    1.000
    C454     C        0.41230    0.69610    0.19840    1.000
    H253     H        0.45420    0.68310    0.19020    1.000
    C455     C        0.41040    0.66780    0.30360    1.000
    H254     H        0.35350    0.67810    0.29920    1.000
    C456     C        0.32280    0.69710    0.19290    1.000
    H255     H        0.28110    0.70960    0.20160    1.000
    C457     C        0.10200    0.46590    0.37260    1.000
    C458     C        0.48970    0.67700    0.29290    1.000
    H256     H        0.54700    0.66640    0.29660    1.000
    C459     C        0.45490    0.71630    0.21880    1.000
    C460     C        0.49500    0.70310    0.27520    1.000
    O108     O        0.38320    0.73090    0.22906    1.000
    O109     O        0.41250    0.72000    0.27388    1.000
    C461     C        0.99400    0.42060    0.37800    1.000
    O110     O        0.99160    0.40670    0.35870    1.000
    O111     O        0.95600    0.41210    0.39280    1.000
    C462     C        0.78600    0.37390    0.26930    1.000
    O112     O        0.82690    0.37450    0.31950    1.000
    C463     C        0.05100    0.45070    0.38350    1.000
    C464     C        0.18200    0.80730    0.36040    1.000
    O113     O        0.95600    0.46380    0.47240    1.000
    O114     O        0.93350    0.45400    0.51570    1.000
    C465     C        0.21140    0.29858    0.62368    1.000
    C466     C        0.22380    0.28010    0.60467    1.000
    H257     H        0.18930    0.28540    0.59210    1.000
    C467     C        0.28800    0.25360    0.60449    1.000
    H258     H        0.29630    0.24120    0.59180    1.000
    C468     C        0.33960    0.24570    0.62330    1.000
    C469     C        0.32720    0.26420    0.64233    1.000
    H259     H        0.36170    0.25880    0.65490    1.000
    C470     C        0.26300    0.29060    0.64251    1.000
    H260     H        0.25470    0.30300    0.65520    1.000
    Cu17     Cu       0.91211    0.49070    0.49599    1.000
    C471     C        0.21830    0.43010    0.42398    1.000
    C472     C        0.30530    0.44206    0.41582    1.000
    H261     H        0.33120    0.46160    0.42130    1.000
    C473     C        0.35360    0.42490    0.39939    1.000
    H262     H        0.41180    0.43290    0.39390    1.000
    C474     C        0.31480    0.39570    0.39112    1.000
    C475     C        0.22780    0.38373    0.39929    1.000
    H263     H        0.20180    0.36420    0.39380    1.000
    C476     C        0.17950    0.40090    0.41572    1.000
    H264     H        0.12120    0.39290    0.42120    1.000
    C477     C        0.11630    0.34739    0.60539    1.000
    C478     C        0.02890    0.36350    0.60184    1.000
    H265     H        0.97600    0.35900    0.61070    1.000
    C479     C        0.02070    0.38650    0.58498    1.000
    H266     H        0.96230    0.39730    0.58260    1.000
    C480     C        0.09980    0.39330    0.57166    1.000
    C481     C        0.18720    0.37720    0.57521    1.000
    H267     H        0.24010    0.38170    0.56630    1.000
    C482     C        0.19540    0.35420    0.59207    1.000
    H268     H        0.25380    0.34340    0.59440    1.000
    C483     C        0.08770    0.44610    0.44840    1.000
    H269     H        0.04580    0.43310    0.44020    1.000
    C484     C        0.08960    0.41780    0.55360    1.000
    H270     H        0.14650    0.42810    0.54920    1.000
    C485     C        0.17720    0.44710    0.44290    1.000
    H271     H        0.21890    0.45960    0.45160    1.000
    C486     C        0.39800    0.21590    0.62260    1.000
    C487     C        0.01030    0.42700    0.54290    1.000
    H272     H        0.95300    0.41640    0.54660    1.000
    C488     C        0.04510    0.46630    0.46880    1.000
    C489     C        0.00500    0.45310    0.52520    1.000
    O115     O        0.11680    0.48090    0.47906    1.000
    O116     O        0.08750    0.47000    0.52388    1.000
    C490     C        0.50600    0.17060    0.62800    1.000
    O117     O        0.50840    0.15670    0.60870    1.000
    O118     O        0.54400    0.16210    0.64280    1.000
    C491     C        0.71400    0.12390    0.51930    1.000
    O119     O        0.67310    0.12450    0.56950    1.000
    C492     C        0.44900    0.20070    0.63350    1.000
    C493     C        0.31800    0.55730    0.61040    1.000
    O120     O        0.95600    0.96380    0.97240    1.000
    O121     O        0.93350    0.95400    0.01570    1.000
    C494     C        0.21140    0.79858    0.12368    1.000
    C495     C        0.22380    0.78010    0.10467    1.000
    H273     H        0.18930    0.78540    0.09210    1.000
    C496     C        0.28800    0.75360    0.10449    1.000
    H274     H        0.29630    0.74120    0.09180    1.000
    C497     C        0.33960    0.74570    0.12330    1.000
    C498     C        0.32720    0.76420    0.14233    1.000
    H275     H        0.36170    0.75880    0.15490    1.000
    C499     C        0.26300    0.79060    0.14251    1.000
    H276     H        0.25470    0.80300    0.15520    1.000
    Cu18     Cu       0.91211    0.99070    0.99599    1.000
    C500     C        0.21830    0.93010    0.92398    1.000
    C501     C        0.30530    0.94206    0.91582    1.000
    H277     H        0.33120    0.96160    0.92130    1.000
    C502     C        0.35360    0.92490    0.89939    1.000
    H278     H        0.41180    0.93290    0.89390    1.000
    C503     C        0.31480    0.89570    0.89112    1.000
    C504     C        0.22780    0.88373    0.89929    1.000
    H279     H        0.20180    0.86420    0.89380    1.000
    C505     C        0.17950    0.90090    0.91572    1.000
    H280     H        0.12120    0.89290    0.92120    1.000
    C506     C        0.11630    0.84739    0.10539    1.000
    C507     C        0.02890    0.86350    0.10184    1.000
    H281     H        0.97600    0.85900    0.11070    1.000
    C508     C        0.02070    0.88650    0.08498    1.000
    H282     H        0.96230    0.89730    0.08260    1.000
    C509     C        0.09980    0.89330    0.07166    1.000
    C510     C        0.18720    0.87720    0.07521    1.000
    H283     H        0.24010    0.88170    0.06630    1.000
    C511     C        0.19540    0.85420    0.09207    1.000
    H284     H        0.25380    0.84340    0.09440    1.000
    C512     C        0.08770    0.94610    0.94840    1.000
    H285     H        0.04580    0.93310    0.94020    1.000
    C513     C        0.08960    0.91780    0.05360    1.000
    H286     H        0.14650    0.92810    0.04920    1.000
    C514     C        0.17720    0.94710    0.94290    1.000
    H287     H        0.21890    0.95960    0.95160    1.000
    C515     C        0.39800    0.71590    0.12260    1.000
    C516     C        0.01030    0.92700    0.04290    1.000
    H288     H        0.95300    0.91640    0.04660    1.000
    C517     C        0.04510    0.96630    0.96880    1.000
    C518     C        0.00500    0.95310    0.02520    1.000
    O122     O        0.11680    0.98090    0.97906    1.000
    O123     O        0.08750    0.97000    0.02388    1.000
    C519     C        0.50600    0.67060    0.12800    1.000
    O124     O        0.50840    0.65670    0.10870    1.000
    O125     O        0.54400    0.66210    0.14280    1.000
    C520     C        0.71400    0.62390    0.01930    1.000
    O126     O        0.67310    0.62450    0.06950    1.000
    C521     C        0.44900    0.70070    0.13350    1.000
    C522     C        0.31800    0.05730    0.11040    1.000
    O127     O        0.45600    0.46380    0.97240    1.000
    O128     O        0.43350    0.45400    0.01570    1.000
    C523     C        0.71140    0.29858    0.12368    1.000
    C524     C        0.72380    0.28010    0.10467    1.000
    H289     H        0.68930    0.28540    0.09210    1.000
    C525     C        0.78800    0.25360    0.10449    1.000
    H290     H        0.79630    0.24120    0.09180    1.000
    C526     C        0.83960    0.24570    0.12330    1.000
    C527     C        0.82720    0.26420    0.14233    1.000
    H291     H        0.86170    0.25880    0.15490    1.000
    C528     C        0.76300    0.29060    0.14251    1.000
    H292     H        0.75470    0.30300    0.15520    1.000
    Cu19     Cu       0.41211    0.49070    0.99599    1.000
    C529     C        0.71830    0.43010    0.92398    1.000
    C530     C        0.80530    0.44206    0.91582    1.000
    H293     H        0.83120    0.46160    0.92130    1.000
    C531     C        0.85360    0.42490    0.89939    1.000
    H294     H        0.91180    0.43290    0.89390    1.000
    C532     C        0.81480    0.39570    0.89112    1.000
    C533     C        0.72780    0.38373    0.89929    1.000
    H295     H        0.70180    0.36420    0.89380    1.000
    C534     C        0.67950    0.40090    0.91572    1.000
    H296     H        0.62120    0.39290    0.92120    1.000
    C535     C        0.61630    0.34739    0.10539    1.000
    C536     C        0.52890    0.36350    0.10184    1.000
    H297     H        0.47600    0.35900    0.11070    1.000
    C537     C        0.52070    0.38650    0.08498    1.000
    H298     H        0.46230    0.39730    0.08260    1.000
    C538     C        0.59980    0.39330    0.07166    1.000
    C539     C        0.68720    0.37720    0.07521    1.000
    H299     H        0.74010    0.38170    0.06630    1.000
    C540     C        0.69540    0.35420    0.09207    1.000
    H300     H        0.75380    0.34340    0.09440    1.000
    C541     C        0.58770    0.44610    0.94840    1.000
    H301     H        0.54580    0.43310    0.94020    1.000
    C542     C        0.58960    0.41780    0.05360    1.000
    H302     H        0.64650    0.42810    0.04920    1.000
    C543     C        0.67720    0.44710    0.94290    1.000
    H303     H        0.71890    0.45960    0.95160    1.000
    C544     C        0.89800    0.21590    0.12260    1.000
    C545     C        0.51030    0.42700    0.04290    1.000
    H304     H        0.45300    0.41640    0.04660    1.000
    C546     C        0.54510    0.46630    0.96880    1.000
    C547     C        0.50500    0.45310    0.02520    1.000
    O129     O        0.61680    0.48090    0.97906    1.000
    O130     O        0.58750    0.47000    0.02388    1.000
    C548     C        0.00600    0.17060    0.12800    1.000
    O131     O        0.00840    0.15670    0.10870    1.000
    O132     O        0.04400    0.16210    0.14280    1.000
    C549     C        0.21400    0.12390    0.01930    1.000
    O133     O        0.17310    0.12450    0.06950    1.000
    C550     C        0.94900    0.20070    0.13350    1.000
    C551     C        0.81800    0.55730    0.11040    1.000
    O134     O        0.45600    0.96380    0.47240    1.000
    O135     O        0.43350    0.95400    0.51570    1.000
    C552     C        0.71140    0.79858    0.62368    1.000
    C553     C        0.72380    0.78010    0.60467    1.000
    H305     H        0.68930    0.78540    0.59210    1.000
    C554     C        0.78800    0.75360    0.60449    1.000
    H306     H        0.79630    0.74120    0.59180    1.000
    C555     C        0.83960    0.74570    0.62330    1.000
    C556     C        0.82720    0.76420    0.64233    1.000
    H307     H        0.86170    0.75880    0.65490    1.000
    C557     C        0.76300    0.79060    0.64251    1.000
    H308     H        0.75470    0.80300    0.65520    1.000
    Cu20     Cu       0.41211    0.99070    0.49599    1.000
    C558     C        0.71830    0.93010    0.42398    1.000
    C559     C        0.80530    0.94206    0.41582    1.000
    H309     H        0.83120    0.96160    0.42130    1.000
    C560     C        0.85360    0.92490    0.39939    1.000
    H310     H        0.91180    0.93290    0.39390    1.000
    C561     C        0.81480    0.89570    0.39112    1.000
    C562     C        0.72780    0.88373    0.39929    1.000
    H311     H        0.70180    0.86420    0.39380    1.000
    C563     C        0.67950    0.90090    0.41572    1.000
    H312     H        0.62120    0.89290    0.42120    1.000
    C564     C        0.61630    0.84739    0.60539    1.000
    C565     C        0.52890    0.86350    0.60184    1.000
    H313     H        0.47600    0.85900    0.61070    1.000
    C566     C        0.52070    0.88650    0.58498    1.000
    H314     H        0.46230    0.89730    0.58260    1.000
    C567     C        0.59980    0.89330    0.57166    1.000
    C568     C        0.68720    0.87720    0.57521    1.000
    H315     H        0.74010    0.88170    0.56630    1.000
    C569     C        0.69540    0.85420    0.59207    1.000
    H316     H        0.75380    0.84340    0.59440    1.000
    C570     C        0.58770    0.94610    0.44840    1.000
    H317     H        0.54580    0.93310    0.44020    1.000
    C571     C        0.58960    0.91780    0.55360    1.000
    H318     H        0.64650    0.92810    0.54920    1.000
    C572     C        0.67720    0.94710    0.44290    1.000
    H319     H        0.71890    0.95960    0.45160    1.000
    C573     C        0.89800    0.71590    0.62260    1.000
    C574     C        0.51030    0.92700    0.54290    1.000
    H320     H        0.45300    0.91640    0.54660    1.000
    C575     C        0.54510    0.96630    0.46880    1.000
    C576     C        0.50500    0.95310    0.52520    1.000
    O136     O        0.61680    0.98090    0.47906    1.000
    O137     O        0.58750    0.97000    0.52388    1.000
    C577     C        0.00600    0.67060    0.62800    1.000
    O138     O        0.00840    0.65670    0.60870    1.000
    O139     O        0.04400    0.66210    0.64280    1.000
    C578     C        0.21400    0.62390    0.51930    1.000
    O140     O        0.17310    0.62450    0.56950    1.000
    C579     C        0.94900    0.70070    0.63350    1.000
    C580     C        0.81800    0.05730    0.61040    1.000
    O141     O        0.29400    0.78620    0.47240    1.000
    O142     O        0.31650    0.79600    0.51570    1.000
    C581     C        0.03860    0.95142    0.62368    1.000
    C582     C        0.02620    0.96990    0.60467    1.000
    H321     H        0.06070    0.96460    0.59210    1.000
    C583     C        0.96200    0.99640    0.60449    1.000
    H322     H        0.95370    0.00880    0.59180    1.000
    C584     C        0.91040    0.00430    0.62330    1.000
    C585     C        0.92280    0.98580    0.64233    1.000
    H323     H        0.88830    0.99120    0.65490    1.000
    C586     C        0.98700    0.95940    0.64251    1.000
    H324     H        0.99530    0.94700    0.65520    1.000
    Cu21     Cu       0.33789    0.75930    0.49599    1.000
    C587     C        0.03170    0.81990    0.42398    1.000
    C588     C        0.94470    0.80794    0.41582    1.000
    H325     H        0.91880    0.78840    0.42130    1.000
    C589     C        0.89640    0.82510    0.39939    1.000
    H326     H        0.83820    0.81710    0.39390    1.000
    C590     C        0.93520    0.85430    0.39112    1.000
    C591     C        0.02220    0.86627    0.39929    1.000
    H327     H        0.04820    0.88580    0.39380    1.000
    C592     C        0.07050    0.84910    0.41572    1.000
    H328     H        0.12880    0.85710    0.42120    1.000
    C593     C        0.13370    0.90261    0.60539    1.000
    C594     C        0.22110    0.88650    0.60184    1.000
    H329     H        0.27400    0.89100    0.61070    1.000
    C595     C        0.22930    0.86350    0.58498    1.000
    H330     H        0.28770    0.85270    0.58260    1.000
    C596     C        0.15020    0.85670    0.57166    1.000
    C597     C        0.06280    0.87280    0.57521    1.000
    H331     H        0.00990    0.86830    0.56630    1.000
    C598     C        0.05460    0.89580    0.59207    1.000
    H332     H        0.99620    0.90660    0.59440    1.000
    C599     C        0.16230    0.80390    0.44840    1.000
    H333     H        0.20420    0.81690    0.44020    1.000
    C600     C        0.16040    0.83220    0.55360    1.000
    H334     H        0.10350    0.82190    0.54920    1.000
    C601     C        0.07280    0.80290    0.44290    1.000
    H335     H        0.03110    0.79040    0.45160    1.000
    C602     C        0.85200    0.03410    0.62260    1.000
    C603     C        0.23970    0.82300    0.54290    1.000
    H336     H        0.29700    0.83360    0.54660    1.000
    C604     C        0.20490    0.78370    0.46880    1.000
    C605     C        0.24500    0.79690    0.52520    1.000
    O143     O        0.13320    0.76910    0.47906    1.000
    O144     O        0.16250    0.78000    0.52388    1.000
    C606     C        0.74400    0.07940    0.62800    1.000
    O145     O        0.74160    0.09330    0.60870    1.000
    O146     O        0.70600    0.08790    0.64280    1.000
    C607     C        0.53600    0.12610    0.51930    1.000
    O147     O        0.57690    0.12550    0.56950    1.000
    C608     C        0.80100    0.04930    0.63350    1.000
    C609     C        0.93200    0.69270    0.61040    1.000
    O148     O        0.29400    0.28620    0.97240    1.000
    O149     O        0.31650    0.29600    0.01570    1.000
    C610     C        0.03860    0.45142    0.12368    1.000
    C611     C        0.02620    0.46990    0.10467    1.000
    H337     H        0.06070    0.46460    0.09210    1.000
    C612     C        0.96200    0.49640    0.10449    1.000
    H338     H        0.95370    0.50880    0.09180    1.000
    C613     C        0.91040    0.50430    0.12330    1.000
    C614     C        0.92280    0.48580    0.14233    1.000
    H339     H        0.88830    0.49120    0.15490    1.000
    C615     C        0.98700    0.45940    0.14251    1.000
    H340     H        0.99530    0.44700    0.15520    1.000
    Cu22     Cu       0.33789    0.25930    0.99599    1.000
    C616     C        0.03170    0.31990    0.92398    1.000
    C617     C        0.94470    0.30794    0.91582    1.000
    H341     H        0.91880    0.28840    0.92130    1.000
    C618     C        0.89640    0.32510    0.89939    1.000
    H342     H        0.83820    0.31710    0.89390    1.000
    C619     C        0.93520    0.35430    0.89112    1.000
    C620     C        0.02220    0.36627    0.89929    1.000
    H343     H        0.04820    0.38580    0.89380    1.000
    C621     C        0.07050    0.34910    0.91572    1.000
    H344     H        0.12880    0.35710    0.92120    1.000
    C622     C        0.13370    0.40261    0.10539    1.000
    C623     C        0.22110    0.38650    0.10184    1.000
    H345     H        0.27400    0.39100    0.11070    1.000
    C624     C        0.22930    0.36350    0.08498    1.000
    H346     H        0.28770    0.35270    0.08260    1.000
    C625     C        0.15020    0.35670    0.07166    1.000
    C626     C        0.06280    0.37280    0.07521    1.000
    H347     H        0.00990    0.36830    0.06630    1.000
    C627     C        0.05460    0.39580    0.09207    1.000
    H348     H        0.99620    0.40660    0.09440    1.000
    C628     C        0.16230    0.30390    0.94840    1.000
    H349     H        0.20420    0.31690    0.94020    1.000
    C629     C        0.16040    0.33220    0.05360    1.000
    H350     H        0.10350    0.32190    0.04920    1.000
    C630     C        0.07280    0.30290    0.94290    1.000
    H351     H        0.03110    0.29040    0.95160    1.000
    C631     C        0.85200    0.53410    0.12260    1.000
    C632     C        0.23970    0.32300    0.04290    1.000
    H352     H        0.29700    0.33360    0.04660    1.000
    C633     C        0.20490    0.28370    0.96880    1.000
    C634     C        0.24500    0.29690    0.02520    1.000
    O150     O        0.13320    0.26910    0.97906    1.000
    O151     O        0.16250    0.28000    0.02388    1.000
    C635     C        0.74400    0.57940    0.12800    1.000
    O152     O        0.74160    0.59330    0.10870    1.000
    O153     O        0.70600    0.58790    0.14280    1.000
    C636     C        0.53600    0.62610    0.01930    1.000
    O154     O        0.57690    0.62550    0.06950    1.000
    C637     C        0.80100    0.54930    0.13350    1.000
    C638     C        0.93200    0.19270    0.11040    1.000
    O155     O        0.79400    0.78620    0.97240    1.000
    O156     O        0.81650    0.79600    0.01570    1.000
    C639     C        0.53860    0.95142    0.12368    1.000
    C640     C        0.52620    0.96990    0.10467    1.000
    H353     H        0.56070    0.96460    0.09210    1.000
    C641     C        0.46200    0.99640    0.10449    1.000
    H354     H        0.45370    0.00880    0.09180    1.000
    C642     C        0.41040    0.00430    0.12330    1.000
    C643     C        0.42280    0.98580    0.14233    1.000
    H355     H        0.38830    0.99120    0.15490    1.000
    C644     C        0.48700    0.95940    0.14251    1.000
    H356     H        0.49530    0.94700    0.15520    1.000
    Cu23     Cu       0.83789    0.75930    0.99599    1.000
    C645     C        0.53170    0.81990    0.92398    1.000
    C646     C        0.44470    0.80794    0.91582    1.000
    H357     H        0.41880    0.78840    0.92130    1.000
    C647     C        0.39640    0.82510    0.89939    1.000
    H358     H        0.33820    0.81710    0.89390    1.000
    C648     C        0.43520    0.85430    0.89112    1.000
    C649     C        0.52220    0.86627    0.89929    1.000
    H359     H        0.54820    0.88580    0.89380    1.000
    C650     C        0.57050    0.84910    0.91572    1.000
    H360     H        0.62880    0.85710    0.92120    1.000
    C651     C        0.63370    0.90261    0.10539    1.000
    C652     C        0.72110    0.88650    0.10184    1.000
    H361     H        0.77400    0.89100    0.11070    1.000
    C653     C        0.72930    0.86350    0.08498    1.000
    H362     H        0.78770    0.85270    0.08260    1.000
    C654     C        0.65020    0.85670    0.07166    1.000
    C655     C        0.56280    0.87280    0.07521    1.000
    H363     H        0.50990    0.86830    0.06630    1.000
    C656     C        0.55460    0.89580    0.09207    1.000
    H364     H        0.49620    0.90660    0.09440    1.000
    C657     C        0.66230    0.80390    0.94840    1.000
    H365     H        0.70420    0.81690    0.94020    1.000
    C658     C        0.66040    0.83220    0.05360    1.000
    H366     H        0.60350    0.82190    0.04920    1.000
    C659     C        0.57280    0.80290    0.94290    1.000
    H367     H        0.53110    0.79040    0.95160    1.000
    C660     C        0.35200    0.03410    0.12260    1.000
    C661     C        0.73970    0.82300    0.04290    1.000
    H368     H        0.79700    0.83360    0.04660    1.000
    C662     C        0.70490    0.78370    0.96880    1.000
    C663     C        0.74500    0.79690    0.02520    1.000
    O157     O        0.63320    0.76910    0.97906    1.000
    O158     O        0.66250    0.78000    0.02388    1.000
    C664     C        0.24400    0.07940    0.12800    1.000
    O159     O        0.24160    0.09330    0.10870    1.000
    O160     O        0.20600    0.08790    0.14280    1.000
    C665     C        0.03600    0.12610    0.01930    1.000
    O161     O        0.07690    0.12550    0.06950    1.000
    C666     C        0.30100    0.04930    0.13350    1.000
    C667     C        0.43200    0.69270    0.11040    1.000
    O162     O        0.79400    0.28620    0.47240    1.000
    O163     O        0.81650    0.29600    0.51570    1.000
    C668     C        0.53860    0.45142    0.62368    1.000
    C669     C        0.52620    0.46990    0.60467    1.000
    H369     H        0.56070    0.46460    0.59210    1.000
    C670     C        0.46200    0.49640    0.60449    1.000
    H370     H        0.45370    0.50880    0.59180    1.000
    C671     C        0.41040    0.50430    0.62330    1.000
    C672     C        0.42280    0.48580    0.64233    1.000
    H371     H        0.38830    0.49120    0.65490    1.000
    C673     C        0.48700    0.45940    0.64251    1.000
    H372     H        0.49530    0.44700    0.65520    1.000
    Cu24     Cu       0.83789    0.25930    0.49599    1.000
    C674     C        0.53170    0.31990    0.42398    1.000
    C675     C        0.44470    0.30794    0.41582    1.000
    H373     H        0.41880    0.28840    0.42130    1.000
    C676     C        0.39640    0.32510    0.39939    1.000
    H374     H        0.33820    0.31710    0.39390    1.000
    C677     C        0.43520    0.35430    0.39112    1.000
    C678     C        0.52220    0.36627    0.39929    1.000
    H375     H        0.54820    0.38580    0.39380    1.000
    C679     C        0.57050    0.34910    0.41572    1.000
    H376     H        0.62880    0.35710    0.42120    1.000
    C680     C        0.63370    0.40261    0.60539    1.000
    C681     C        0.72110    0.38650    0.60184    1.000
    H377     H        0.77400    0.39100    0.61070    1.000
    C682     C        0.72930    0.36350    0.58498    1.000
    H378     H        0.78770    0.35270    0.58260    1.000
    C683     C        0.65020    0.35670    0.57166    1.000
    C684     C        0.56280    0.37280    0.57521    1.000
    H379     H        0.50990    0.36830    0.56630    1.000
    C685     C        0.55460    0.39580    0.59207    1.000
    H380     H        0.49620    0.40660    0.59440    1.000
    C686     C        0.66230    0.30390    0.44840    1.000
    H381     H        0.70420    0.31690    0.44020    1.000
    C687     C        0.66040    0.33220    0.55360    1.000
    H382     H        0.60350    0.32190    0.54920    1.000
    C688     C        0.57280    0.30290    0.44290    1.000
    H383     H        0.53110    0.29040    0.45160    1.000
    C689     C        0.35200    0.53410    0.62260    1.000
    C690     C        0.73970    0.32300    0.54290    1.000
    H384     H        0.79700    0.33360    0.54660    1.000
    C691     C        0.70490    0.28370    0.46880    1.000
    C692     C        0.74500    0.29690    0.52520    1.000
    O164     O        0.63320    0.26910    0.47906    1.000
    O165     O        0.66250    0.28000    0.52388    1.000
    C693     C        0.24400    0.57940    0.62800    1.000
    O166     O        0.24160    0.59330    0.60870    1.000
    O167     O        0.20600    0.58790    0.64280    1.000
    C694     C        0.03600    0.62610    0.51930    1.000
    O168     O        0.07690    0.62550    0.56950    1.000
    C695     C        0.30100    0.54930    0.63350    1.000
    C696     C        0.43200    0.19270    0.61040    1.000
    O169     O        0.29400    0.46380    0.77760    1.000
    O170     O        0.31650    0.45400    0.73430    1.000
    C697     C        0.03860    0.29858    0.62632    1.000
    C698     C        0.02620    0.28010    0.64533    1.000
    H385     H        0.06070    0.28540    0.65790    1.000
    C699     C        0.96200    0.25360    0.64551    1.000
    H386     H        0.95370    0.24120    0.65820    1.000
    C700     C        0.91040    0.24570    0.62670    1.000
    C701     C        0.92280    0.26420    0.60767    1.000
    H387     H        0.88830    0.25880    0.59510    1.000
    C702     C        0.98700    0.29060    0.60749    1.000
    H388     H        0.99530    0.30300    0.59480    1.000
    Cu25     Cu       0.33789    0.49070    0.75401    1.000
    C703     C        0.03170    0.43010    0.82602    1.000
    C704     C        0.94470    0.44206    0.83418    1.000
    H389     H        0.91880    0.46160    0.82870    1.000
    C705     C        0.89640    0.42490    0.85061    1.000
    H390     H        0.83820    0.43290    0.85610    1.000
    C706     C        0.93520    0.39570    0.85888    1.000
    C707     C        0.02220    0.38373    0.85071    1.000
    H391     H        0.04820    0.36420    0.85620    1.000
    C708     C        0.07050    0.40090    0.83428    1.000
    H392     H        0.12880    0.39290    0.82880    1.000
    C709     C        0.13370    0.34739    0.64461    1.000
    C710     C        0.22110    0.36350    0.64816    1.000
    H393     H        0.27400    0.35900    0.63930    1.000
    C711     C        0.22930    0.38650    0.66502    1.000
    H394     H        0.28770    0.39730    0.66740    1.000
    C712     C        0.15020    0.39330    0.67834    1.000
    C713     C        0.06280    0.37720    0.67479    1.000
    H395     H        0.00990    0.38170    0.68370    1.000
    C714     C        0.05460    0.35420    0.65793    1.000
    H396     H        0.99620    0.34340    0.65560    1.000
    C715     C        0.16230    0.44610    0.80160    1.000
    H397     H        0.20420    0.43310    0.80980    1.000
    C716     C        0.16040    0.41780    0.69640    1.000
    H398     H        0.10350    0.42810    0.70080    1.000
    C717     C        0.07280    0.44710    0.80710    1.000
    H399     H        0.03110    0.45960    0.79840    1.000
    C718     C        0.85200    0.21590    0.62740    1.000
    C719     C        0.23970    0.42700    0.70710    1.000
    H400     H        0.29700    0.41640    0.70340    1.000
    C720     C        0.20490    0.46630    0.78120    1.000
    C721     C        0.24500    0.45310    0.72480    1.000
    O171     O        0.13320    0.48090    0.77094    1.000
    O172     O        0.16250    0.47000    0.72612    1.000
    C722     C        0.74400    0.17060    0.62200    1.000
    O173     O        0.74160    0.15670    0.64130    1.000
    O174     O        0.70600    0.16210    0.60720    1.000
    C723     C        0.53600    0.12390    0.73070    1.000
    O175     O        0.57690    0.12450    0.68050    1.000
    C724     C        0.80100    0.20070    0.61650    1.000
    C725     C        0.93200    0.55730    0.63960    1.000
    O176     O        0.29400    0.96380    0.27760    1.000
    O177     O        0.31650    0.95400    0.23430    1.000
    C726     C        0.03860    0.79858    0.12632    1.000
    C727     C        0.02620    0.78010    0.14533    1.000
    H401     H        0.06070    0.78540    0.15790    1.000
    C728     C        0.96200    0.75360    0.14551    1.000
    H402     H        0.95370    0.74120    0.15820    1.000
    C729     C        0.91040    0.74570    0.12670    1.000
    C730     C        0.92280    0.76420    0.10767    1.000
    H403     H        0.88830    0.75880    0.09510    1.000
    C731     C        0.98700    0.79060    0.10749    1.000
    H404     H        0.99530    0.80300    0.09480    1.000
    Cu26     Cu       0.33789    0.99070    0.25401    1.000
    C732     C        0.03170    0.93010    0.32602    1.000
    C733     C        0.94470    0.94206    0.33418    1.000
    H405     H        0.91880    0.96160    0.32870    1.000
    C734     C        0.89640    0.92490    0.35061    1.000
    H406     H        0.83820    0.93290    0.35610    1.000
    C735     C        0.93520    0.89570    0.35888    1.000
    C736     C        0.02220    0.88373    0.35071    1.000
    H407     H        0.04820    0.86420    0.35620    1.000
    C737     C        0.07050    0.90090    0.33428    1.000
    H408     H        0.12880    0.89290    0.32880    1.000
    C738     C        0.13370    0.84739    0.14461    1.000
    C739     C        0.22110    0.86350    0.14816    1.000
    H409     H        0.27400    0.85900    0.13930    1.000
    C740     C        0.22930    0.88650    0.16502    1.000
    H410     H        0.28770    0.89730    0.16740    1.000
    C741     C        0.15020    0.89330    0.17834    1.000
    C742     C        0.06280    0.87720    0.17479    1.000
    H411     H        0.00990    0.88170    0.18370    1.000
    C743     C        0.05460    0.85420    0.15793    1.000
    H412     H        0.99620    0.84340    0.15560    1.000
    C744     C        0.16230    0.94610    0.30160    1.000
    H413     H        0.20420    0.93310    0.30980    1.000
    C745     C        0.16040    0.91780    0.19640    1.000
    H414     H        0.10350    0.92810    0.20080    1.000
    C746     C        0.07280    0.94710    0.30710    1.000
    H415     H        0.03110    0.95960    0.29840    1.000
    C747     C        0.85200    0.71590    0.12740    1.000
    C748     C        0.23970    0.92700    0.20710    1.000
    H416     H        0.29700    0.91640    0.20340    1.000
    C749     C        0.20490    0.96630    0.28120    1.000
    C750     C        0.24500    0.95310    0.22480    1.000
    O178     O        0.13320    0.98090    0.27094    1.000
    O179     O        0.16250    0.97000    0.22612    1.000
    C751     C        0.74400    0.67060    0.12200    1.000
    O180     O        0.74160    0.65670    0.14130    1.000
    O181     O        0.70600    0.66210    0.10720    1.000
    C752     C        0.53600    0.62390    0.23070    1.000
    O182     O        0.57690    0.62450    0.18050    1.000
    C753     C        0.80100    0.70070    0.11650    1.000
    C754     C        0.93200    0.05730    0.13960    1.000
    O183     O        0.79400    0.46380    0.27760    1.000
    O184     O        0.81650    0.45400    0.23430    1.000
    C755     C        0.53860    0.29858    0.12632    1.000
    C756     C        0.52620    0.28010    0.14533    1.000
    H417     H        0.56070    0.28540    0.15790    1.000
    C757     C        0.46200    0.25360    0.14551    1.000
    H418     H        0.45370    0.24120    0.15820    1.000
    C758     C        0.41040    0.24570    0.12670    1.000
    C759     C        0.42280    0.26420    0.10767    1.000
    H419     H        0.38830    0.25880    0.09510    1.000
    C760     C        0.48700    0.29060    0.10749    1.000
    H420     H        0.49530    0.30300    0.09480    1.000
    Cu27     Cu       0.83789    0.49070    0.25401    1.000
    C761     C        0.53170    0.43010    0.32602    1.000
    C762     C        0.44470    0.44206    0.33418    1.000
    H421     H        0.41880    0.46160    0.32870    1.000
    C763     C        0.39640    0.42490    0.35061    1.000
    H422     H        0.33820    0.43290    0.35610    1.000
    C764     C        0.43520    0.39570    0.35888    1.000
    C765     C        0.52220    0.38373    0.35071    1.000
    H423     H        0.54820    0.36420    0.35620    1.000
    C766     C        0.57050    0.40090    0.33428    1.000
    H424     H        0.62880    0.39290    0.32880    1.000
    C767     C        0.63370    0.34739    0.14461    1.000
    C768     C        0.72110    0.36350    0.14816    1.000
    H425     H        0.77400    0.35900    0.13930    1.000
    C769     C        0.72930    0.38650    0.16502    1.000
    H426     H        0.78770    0.39730    0.16740    1.000
    C770     C        0.65020    0.39330    0.17834    1.000
    C771     C        0.56280    0.37720    0.17479    1.000
    H427     H        0.50990    0.38170    0.18370    1.000
    C772     C        0.55460    0.35420    0.15793    1.000
    H428     H        0.49620    0.34340    0.15560    1.000
    C773     C        0.66230    0.44610    0.30160    1.000
    H429     H        0.70420    0.43310    0.30980    1.000
    C774     C        0.66040    0.41780    0.19640    1.000
    H430     H        0.60350    0.42810    0.20080    1.000
    C775     C        0.57280    0.44710    0.30710    1.000
    H431     H        0.53110    0.45960    0.29840    1.000
    C776     C        0.35200    0.21590    0.12740    1.000
    C777     C        0.73970    0.42700    0.20710    1.000
    H432     H        0.79700    0.41640    0.20340    1.000
    C778     C        0.70490    0.46630    0.28120    1.000
    C779     C        0.74500    0.45310    0.22480    1.000
    O185     O        0.63320    0.48090    0.27094    1.000
    O186     O        0.66250    0.47000    0.22612    1.000
    C780     C        0.24400    0.17060    0.12200    1.000
    O187     O        0.24160    0.15670    0.14130    1.000
    O188     O        0.20600    0.16210    0.10720    1.000
    C781     C        0.03600    0.12390    0.23070    1.000
    O189     O        0.07690    0.12450    0.18050    1.000
    C782     C        0.30100    0.20070    0.11650    1.000
    C783     C        0.43200    0.55730    0.13960    1.000
    O190     O        0.79400    0.96380    0.77760    1.000
    O191     O        0.81650    0.95400    0.73430    1.000
    C784     C        0.53860    0.79858    0.62632    1.000
    C785     C        0.52620    0.78010    0.64533    1.000
    H433     H        0.56070    0.78540    0.65790    1.000
    C786     C        0.46200    0.75360    0.64551    1.000
    H434     H        0.45370    0.74120    0.65820    1.000
    C787     C        0.41040    0.74570    0.62670    1.000
    C788     C        0.42280    0.76420    0.60767    1.000
    H435     H        0.38830    0.75880    0.59510    1.000
    C789     C        0.48700    0.79060    0.60749    1.000
    H436     H        0.49530    0.80300    0.59480    1.000
    Cu28     Cu       0.83789    0.99070    0.75401    1.000
    C790     C        0.53170    0.93010    0.82602    1.000
    C791     C        0.44470    0.94206    0.83418    1.000
    H437     H        0.41880    0.96160    0.82870    1.000
    C792     C        0.39640    0.92490    0.85061    1.000
    H438     H        0.33820    0.93290    0.85610    1.000
    C793     C        0.43520    0.89570    0.85888    1.000
    C794     C        0.52220    0.88373    0.85071    1.000
    H439     H        0.54820    0.86420    0.85620    1.000
    C795     C        0.57050    0.90090    0.83428    1.000
    H440     H        0.62880    0.89290    0.82880    1.000
    C796     C        0.63370    0.84739    0.64461    1.000
    C797     C        0.72110    0.86350    0.64816    1.000
    H441     H        0.77400    0.85900    0.63930    1.000
    C798     C        0.72930    0.88650    0.66502    1.000
    H442     H        0.78770    0.89730    0.66740    1.000
    C799     C        0.65020    0.89330    0.67834    1.000
    C800     C        0.56280    0.87720    0.67479    1.000
    H443     H        0.50990    0.88170    0.68370    1.000
    C801     C        0.55460    0.85420    0.65793    1.000
    H444     H        0.49620    0.84340    0.65560    1.000
    C802     C        0.66230    0.94610    0.80160    1.000
    H445     H        0.70420    0.93310    0.80980    1.000
    C803     C        0.66040    0.91780    0.69640    1.000
    H446     H        0.60350    0.92810    0.70080    1.000
    C804     C        0.57280    0.94710    0.80710    1.000
    H447     H        0.53110    0.95960    0.79840    1.000
    C805     C        0.35200    0.71590    0.62740    1.000
    C806     C        0.73970    0.92700    0.70710    1.000
    H448     H        0.79700    0.91640    0.70340    1.000
    C807     C        0.70490    0.96630    0.78120    1.000
    C808     C        0.74500    0.95310    0.72480    1.000
    O192     O        0.63320    0.98090    0.77094    1.000
    O193     O        0.66250    0.97000    0.72612    1.000
    C809     C        0.24400    0.67060    0.62200    1.000
    O194     O        0.24160    0.65670    0.64130    1.000
    O195     O        0.20600    0.66210    0.60720    1.000
    C810     C        0.03600    0.62390    0.73070    1.000
    O196     O        0.07690    0.62450    0.68050    1.000
    C811     C        0.30100    0.70070    0.61650    1.000
    C812     C        0.43200    0.05730    0.63960    1.000
    O197     O        0.95600    0.78620    0.77760    1.000
    O198     O        0.93350    0.79600    0.73430    1.000
    C813     C        0.21140    0.95142    0.62632    1.000
    C814     C        0.22380    0.96990    0.64533    1.000
    H449     H        0.18930    0.96460    0.65790    1.000
    C815     C        0.28800    0.99640    0.64551    1.000
    H450     H        0.29630    0.00880    0.65820    1.000
    C816     C        0.33960    0.00430    0.62670    1.000
    C817     C        0.32720    0.98580    0.60767    1.000
    H451     H        0.36170    0.99120    0.59510    1.000
    C818     C        0.26300    0.95940    0.60749    1.000
    H452     H        0.25470    0.94700    0.59480    1.000
    Cu29     Cu       0.91211    0.75930    0.75401    1.000
    C819     C        0.21830    0.81990    0.82602    1.000
    C820     C        0.30530    0.80794    0.83418    1.000
    H453     H        0.33120    0.78840    0.82870    1.000
    C821     C        0.35360    0.82510    0.85061    1.000
    H454     H        0.41180    0.81710    0.85610    1.000
    C822     C        0.31480    0.85430    0.85888    1.000
    C823     C        0.22780    0.86627    0.85071    1.000
    H455     H        0.20180    0.88580    0.85620    1.000
    C824     C        0.17950    0.84910    0.83428    1.000
    H456     H        0.12120    0.85710    0.82880    1.000
    C825     C        0.11630    0.90261    0.64461    1.000
    C826     C        0.02890    0.88650    0.64816    1.000
    H457     H        0.97600    0.89100    0.63930    1.000
    C827     C        0.02070    0.86350    0.66502    1.000
    H458     H        0.96230    0.85270    0.66740    1.000
    C828     C        0.09980    0.85670    0.67834    1.000
    C829     C        0.18720    0.87280    0.67479    1.000
    H459     H        0.24010    0.86830    0.68370    1.000
    C830     C        0.19540    0.89580    0.65793    1.000
    H460     H        0.25380    0.90660    0.65560    1.000
    C831     C        0.08770    0.80390    0.80160    1.000
    H461     H        0.04580    0.81690    0.80980    1.000
    C832     C        0.08960    0.83220    0.69640    1.000
    H462     H        0.14650    0.82190    0.70080    1.000
    C833     C        0.17720    0.80290    0.80710    1.000
    H463     H        0.21890    0.79040    0.79840    1.000
    C834     C        0.39800    0.03410    0.62740    1.000
    C835     C        0.01030    0.82300    0.70710    1.000
    H464     H        0.95300    0.83360    0.70340    1.000
    C836     C        0.04510    0.78370    0.78120    1.000
    C837     C        0.00500    0.79690    0.72480    1.000
    O199     O        0.11680    0.76910    0.77094    1.000
    O200     O        0.08750    0.78000    0.72612    1.000
    C838     C        0.50600    0.07940    0.62200    1.000
    O201     O        0.50840    0.09330    0.64130    1.000
    O202     O        0.54400    0.08790    0.60720    1.000
    C839     C        0.71400    0.12610    0.73070    1.000
    O203     O        0.67310    0.12550    0.68050    1.000
    C840     C        0.44900    0.04930    0.61650    1.000
    C841     C        0.31800    0.69270    0.63960    1.000
    O204     O        0.95600    0.28620    0.27760    1.000
    O205     O        0.93350    0.29600    0.23430    1.000
    C842     C        0.21140    0.45142    0.12632    1.000
    C843     C        0.22380    0.46990    0.14533    1.000
    H465     H        0.18930    0.46460    0.15790    1.000
    C844     C        0.28800    0.49640    0.14551    1.000
    H466     H        0.29630    0.50880    0.15820    1.000
    C845     C        0.33960    0.50430    0.12670    1.000
    C846     C        0.32720    0.48580    0.10767    1.000
    H467     H        0.36170    0.49120    0.09510    1.000
    C847     C        0.26300    0.45940    0.10749    1.000
    H468     H        0.25470    0.44700    0.09480    1.000
    Cu30     Cu       0.91211    0.25930    0.25401    1.000
    C848     C        0.21830    0.31990    0.32602    1.000
    C849     C        0.30530    0.30794    0.33418    1.000
    H469     H        0.33120    0.28840    0.32870    1.000
    C850     C        0.35360    0.32510    0.35061    1.000
    H470     H        0.41180    0.31710    0.35610    1.000
    C851     C        0.31480    0.35430    0.35888    1.000
    C852     C        0.22780    0.36627    0.35071    1.000
    H471     H        0.20180    0.38580    0.35620    1.000
    C853     C        0.17950    0.34910    0.33428    1.000
    H472     H        0.12120    0.35710    0.32880    1.000
    C854     C        0.11630    0.40261    0.14461    1.000
    C855     C        0.02890    0.38650    0.14816    1.000
    H473     H        0.97600    0.39100    0.13930    1.000
    C856     C        0.02070    0.36350    0.16502    1.000
    H474     H        0.96230    0.35270    0.16740    1.000
    C857     C        0.09980    0.35670    0.17834    1.000
    C858     C        0.18720    0.37280    0.17479    1.000
    H475     H        0.24010    0.36830    0.18370    1.000
    C859     C        0.19540    0.39580    0.15793    1.000
    H476     H        0.25380    0.40660    0.15560    1.000
    C860     C        0.08770    0.30390    0.30160    1.000
    H477     H        0.04580    0.31690    0.30980    1.000
    C861     C        0.08960    0.33220    0.19640    1.000
    H478     H        0.14650    0.32190    0.20080    1.000
    C862     C        0.17720    0.30290    0.30710    1.000
    H479     H        0.21890    0.29040    0.29840    1.000
    C863     C        0.39800    0.53410    0.12740    1.000
    C864     C        0.01030    0.32300    0.20710    1.000
    H480     H        0.95300    0.33360    0.20340    1.000
    C865     C        0.04510    0.28370    0.28120    1.000
    C866     C        0.00500    0.29690    0.22480    1.000
    O206     O        0.11680    0.26910    0.27094    1.000
    O207     O        0.08750    0.28000    0.22612    1.000
    C867     C        0.50600    0.57940    0.12200    1.000
    O208     O        0.50840    0.59330    0.14130    1.000
    O209     O        0.54400    0.58790    0.10720    1.000
    C868     C        0.71400    0.62610    0.23070    1.000
    O210     O        0.67310    0.62550    0.18050    1.000
    C869     C        0.44900    0.54930    0.11650    1.000
    C870     C        0.31800    0.19270    0.13960    1.000
    O211     O        0.45600    0.78620    0.27760    1.000
    O212     O        0.43350    0.79600    0.23430    1.000
    C871     C        0.71140    0.95142    0.12632    1.000
    C872     C        0.72380    0.96990    0.14533    1.000
    H481     H        0.68930    0.96460    0.15790    1.000
    C873     C        0.78800    0.99640    0.14551    1.000
    H482     H        0.79630    0.00880    0.15820    1.000
    C874     C        0.83960    0.00430    0.12670    1.000
    C875     C        0.82720    0.98580    0.10767    1.000
    H483     H        0.86170    0.99120    0.09510    1.000
    C876     C        0.76300    0.95940    0.10749    1.000
    H484     H        0.75470    0.94700    0.09480    1.000
    Cu31     Cu       0.41211    0.75930    0.25401    1.000
    C877     C        0.71830    0.81990    0.32602    1.000
    C878     C        0.80530    0.80794    0.33418    1.000
    H485     H        0.83120    0.78840    0.32870    1.000
    C879     C        0.85360    0.82510    0.35061    1.000
    H486     H        0.91180    0.81710    0.35610    1.000
    C880     C        0.81480    0.85430    0.35888    1.000
    C881     C        0.72780    0.86627    0.35071    1.000
    H487     H        0.70180    0.88580    0.35620    1.000
    C882     C        0.67950    0.84910    0.33428    1.000
    H488     H        0.62120    0.85710    0.32880    1.000
    C883     C        0.61630    0.90261    0.14461    1.000
    C884     C        0.52890    0.88650    0.14816    1.000
    H489     H        0.47600    0.89100    0.13930    1.000
    C885     C        0.52070    0.86350    0.16502    1.000
    H490     H        0.46230    0.85270    0.16740    1.000
    C886     C        0.59980    0.85670    0.17834    1.000
    C887     C        0.68720    0.87280    0.17479    1.000
    H491     H        0.74010    0.86830    0.18370    1.000
    C888     C        0.69540    0.89580    0.15793    1.000
    H492     H        0.75380    0.90660    0.15560    1.000
    C889     C        0.58770    0.80390    0.30160    1.000
    H493     H        0.54580    0.81690    0.30980    1.000
    C890     C        0.58960    0.83220    0.19640    1.000
    H494     H        0.64650    0.82190    0.20080    1.000
    C891     C        0.67720    0.80290    0.30710    1.000
    H495     H        0.71890    0.79040    0.29840    1.000
    C892     C        0.89800    0.03410    0.12740    1.000
    C893     C        0.51030    0.82300    0.20710    1.000
    H496     H        0.45300    0.83360    0.20340    1.000
    C894     C        0.54510    0.78370    0.28120    1.000
    C895     C        0.50500    0.79690    0.22480    1.000
    O213     O        0.61680    0.76910    0.27094    1.000
    O214     O        0.58750    0.78000    0.22612    1.000
    C896     C        0.00600    0.07940    0.12200    1.000
    O215     O        0.00840    0.09330    0.14130    1.000
    O216     O        0.04400    0.08790    0.10720    1.000
    C897     C        0.21400    0.12610    0.23070    1.000
    O217     O        0.17310    0.12550    0.18050    1.000
    C898     C        0.94900    0.04930    0.11650    1.000
    C899     C        0.81800    0.69270    0.13960    1.000
    O218     O        0.45600    0.28620    0.77760    1.000
    O219     O        0.43350    0.29600    0.73430    1.000
    C900     C        0.71140    0.45142    0.62632    1.000
    C901     C        0.72380    0.46990    0.64533    1.000
    H497     H        0.68930    0.46460    0.65790    1.000
    C902     C        0.78800    0.49640    0.64551    1.000
    H498     H        0.79630    0.50880    0.65820    1.000
    C903     C        0.83960    0.50430    0.62670    1.000
    C904     C        0.82720    0.48580    0.60767    1.000
    H499     H        0.86170    0.49120    0.59510    1.000
    C905     C        0.76300    0.45940    0.60749    1.000
    H500     H        0.75470    0.44700    0.59480    1.000
    Cu32     Cu       0.41211    0.25930    0.75401    1.000
    C906     C        0.71830    0.31990    0.82602    1.000
    C907     C        0.80530    0.30794    0.83418    1.000
    H501     H        0.83120    0.28840    0.82870    1.000
    C908     C        0.85360    0.32510    0.85061    1.000
    H502     H        0.91180    0.31710    0.85610    1.000
    C909     C        0.81480    0.35430    0.85888    1.000
    C910     C        0.72780    0.36627    0.85071    1.000
    H503     H        0.70180    0.38580    0.85620    1.000
    C911     C        0.67950    0.34910    0.83428    1.000
    H504     H        0.62120    0.35710    0.82880    1.000
    C912     C        0.61630    0.40261    0.64461    1.000
    C913     C        0.52890    0.38650    0.64816    1.000
    H505     H        0.47600    0.39100    0.63930    1.000
    C914     C        0.52070    0.36350    0.66502    1.000
    H506     H        0.46230    0.35270    0.66740    1.000
    C915     C        0.59980    0.35670    0.67834    1.000
    C916     C        0.68720    0.37280    0.67479    1.000
    H507     H        0.74010    0.36830    0.68370    1.000
    C917     C        0.69540    0.39580    0.65793    1.000
    H508     H        0.75380    0.40660    0.65560    1.000
    C918     C        0.58770    0.30390    0.80160    1.000
    H509     H        0.54580    0.31690    0.80980    1.000
    C919     C        0.58960    0.33220    0.69640    1.000
    H510     H        0.64650    0.32190    0.70080    1.000
    C920     C        0.67720    0.30290    0.80710    1.000
    H511     H        0.71890    0.29040    0.79840    1.000
    C921     C        0.89800    0.53410    0.62740    1.000
    C922     C        0.51030    0.32300    0.70710    1.000
    H512     H        0.45300    0.33360    0.70340    1.000
    C923     C        0.54510    0.28370    0.78120    1.000
    C924     C        0.50500    0.29690    0.72480    1.000
    O220     O        0.61680    0.26910    0.77094    1.000
    O221     O        0.58750    0.28000    0.72612    1.000
    C925     C        0.00600    0.57940    0.62200    1.000
    O222     O        0.00840    0.59330    0.64130    1.000
    O223     O        0.04400    0.58790    0.60720    1.000
    C926     C        0.21400    0.62610    0.73070    1.000
    O224     O        0.17310    0.62550    0.68050    1.000
    C927     C        0.94900    0.54930    0.61650    1.000
    C928     C        0.81800    0.19270    0.63960    1.000
    Cu33     Cu       0.37500    0.87500    0.39606    1.000
    C929     C        0.37500    0.87500    0.44410    1.000
    N1       N        0.37500    0.87500    0.46640    1.000
    Cu34     Cu       0.37500    0.37500    0.89606    1.000
    C930     C        0.37500    0.37500    0.94410    1.000
    N2       N        0.37500    0.37500    0.96640    1.000
    Cu35     Cu       0.87500    0.87500    0.89606    1.000
    C931     C        0.87500    0.87500    0.94410    1.000
    N3       N        0.87500    0.87500    0.96640    1.000
    Cu36     Cu       0.87500    0.37500    0.39606    1.000
    C932     C        0.87500    0.37500    0.44410    1.000
    N4       N        0.87500    0.37500    0.46640    1.000
    Cu37     Cu       0.37500    0.87500    0.35394    1.000
    C933     C        0.37500    0.87500    0.30590    1.000
    N5       N        0.37500    0.87500    0.28360    1.000
    Cu38     Cu       0.37500    0.37500    0.85394    1.000
    C934     C        0.37500    0.37500    0.80590    1.000
    N6       N        0.37500    0.37500    0.78360    1.000
    Cu39     Cu       0.87500    0.87500    0.85394    1.000
    C935     C        0.87500    0.87500    0.80590    1.000
    N7       N        0.87500    0.87500    0.78360    1.000
    Cu40     Cu       0.87500    0.37500    0.35394    1.000
    C936     C        0.87500    0.37500    0.30590    1.000
    N8       N        0.87500    0.37500    0.28360    1.000
    Cu41     Cu       0.62500    0.12500    0.60394    1.000
    C937     C        0.62500    0.12500    0.55590    1.000
    N9       N        0.62500    0.12500    0.53360    1.000
    Cu42     Cu       0.62500    0.62500    0.10394    1.000
    C938     C        0.62500    0.62500    0.05590    1.000
    N10      N        0.62500    0.62500    0.03360    1.000
    Cu43     Cu       0.12500    0.12500    0.10394    1.000
    C939     C        0.12500    0.12500    0.05590    1.000
    N11      N        0.12500    0.12500    0.03360    1.000
    Cu44     Cu       0.12500    0.62500    0.60394    1.000
    C940     C        0.12500    0.62500    0.55590    1.000
    N12      N        0.12500    0.62500    0.53360    1.000
    Cu45     Cu       0.62500    0.12500    0.64606    1.000
    C941     C        0.62500    0.12500    0.69410    1.000
    N13      N        0.62500    0.12500    0.71640    1.000
    Cu46     Cu       0.62500    0.62500    0.14606    1.000
    C942     C        0.62500    0.62500    0.19410    1.000
    N14      N        0.62500    0.62500    0.21640    1.000
    Cu47     Cu       0.12500    0.12500    0.14606    1.000
    C943     C        0.12500    0.12500    0.19410    1.000
    N15      N        0.12500    0.12500    0.21640    1.000
    Cu48     Cu       0.12500    0.62500    0.64606    1.000
    C944     C        0.12500    0.62500    0.69410    1.000
    N16      N        0.12500    0.62500    0.71640    1.000
    C945     C        0.87500    0.67700    0.37500    1.000
    C946     C        0.87500    0.17700    0.87500    1.000
    C947     C        0.37500    0.67700    0.87500    1.000
    C948     C        0.37500    0.17700    0.37500    1.000
    C949     C        0.87500    0.07300    0.37500    1.000
    C950     C        0.87500    0.57300    0.87500    1.000
    C951     C        0.37500    0.07300    0.87500    1.000
    C952     C        0.37500    0.57300    0.37500    1.000
    C953     C        0.12500    0.32300    0.62500    1.000
    C954     C        0.12500    0.82300    0.12500    1.000
    C955     C        0.62500    0.32300    0.12500    1.000
    C956     C        0.62500    0.82300    0.62500    1.000
    C957     C        0.12500    0.92700    0.62500    1.000
    C958     C        0.12500    0.42700    0.12500    1.000
    C959     C        0.62500    0.92700    0.12500    1.000
    C960     C        0.62500    0.42700    0.62500    1.000
    C961     C        0.62500    0.62500    0.62500    1.000
    C962     C        0.12500    0.12500    0.62500    1.000
    C963     C        0.12500    0.62500    0.12500    1.000
    C964     C        0.62500    0.12500    0.12500    1.000
    C965     C        0.37500    0.37500    0.37500    1.000
    C966     C        0.87500    0.87500    0.37500    1.000
    C967     C        0.87500    0.37500    0.87500    1.000
    C968     C        0.37500    0.87500    0.87500    1.000
