data_functionalizedCrystal
_audit_creation_method	'EQeq! by Chris Wilmer'
_symmetry_space_group_name_H-M	'P1'
_symmetry_Int_Tables_number	1
_symmetry_cell_setting	triclinic
loop_
_symmetry_equiv_pos_as_xyz
  x,y,z
_cell_length_a	8.8084
_cell_length_b	8.8084
_cell_length_c	40.078
_cell_angle_alpha	86.3071
_cell_angle_beta	86.3071
_cell_angle_gamma	82.9376
loop_
_atom_site_label
_atom_site_type_symbol
_atom_site_fract_x
_atom_site_fract_y
_atom_site_fract_z
_atom_site_charge
Mof_Ni	Ni	0.7478	0.80464	0.11827	1.115
Mof_Ni	Ni	0.96858	0.58942	0.16415	1.106
Mof_Ni	Ni	0.90505	0.13885	0.10462	1.106
Mof_Ni	Ni	0.19536	0.2522	0.38173	1.109
Mof_Ni	Ni	0.41058	0.03142	0.33585	1.097
Mof_Ni	Ni	0.86115	0.09495	0.39538	1.104
Mof_Ni	Ni	0.2522	0.19536	0.88173	1.109
Mof_Ni	Ni	0.03142	0.41058	0.83585	1.097
Mof_Ni	Ni	0.09495	0.86115	0.89538	1.104
Mof_Ni	Ni	0.80464	0.7478	0.61827	1.114
Mof_Ni	Ni	0.58942	0.96858	0.66415	1.105
Mof_Ni	Ni	0.13885	0.90505	0.60462	1.106
Mof_H 	H 	0.9889	0.6175	0.9672	0.118
Mof_H 	H 	0.3227	0.8807	0.9747	0.101
Mof_H 	H 	0.3906	0.3084	0.2475	0.004
Mof_H 	H 	0.0568	0.571	0.2954	0.004
Mof_H 	H 	0.0038	0.8626	0.2078	0.145
Mof_H 	H 	0.1577	0.9167	0.1921	0.162
Mof_H 	H 	0.2738	0.7824	0.1488	0.152
Mof_H 	H 	0.3692	0.6602	0.1716	0.15
Mof_H 	H 	0.0123	0.7189	0.2469	0.09
Mof_H 	H 	0.1145	0.5181	0.9326	0.138
Mof_H 	H 	0.2933	0.4793	0.9282	0.152
Mof_H 	H 	0.4359	0.6551	0.9092	0.168
Mof_H 	H 	0.4414	0.7214	0.9444	0.15
Mof_H 	H 	0.3498	0.4574	0.1991	0.095
Mof_H 	H 	0.8865	0.6835	0.019	-0.017
Mof_H 	H 	0.2166	0.9476	0.0269	0.006
Mof_H 	H 	0.3825	0.0111	0.5328	0.038
Mof_H 	H 	0.1193	0.6773	0.5253	0.067
Mof_H 	H 	0.6916	0.6094	0.2525	0.008
Mof_H 	H 	0.429	0.9432	0.2046	0.008
Mof_H 	H 	0.1374	0.9962	0.2922	0.137
Mof_H 	H 	0.0833	0.8423	0.3079	0.148
Mof_H 	H 	0.2176	0.7262	0.3512	0.151
Mof_H 	H 	0.3398	0.6308	0.3284	0.148
Mof_H 	H 	0.2811	0.9877	0.2531	0.094
Mof_H 	H 	0.4819	0.8855	0.5674	0.15
Mof_H 	H 	0.5207	0.7067	0.5718	0.157
Mof_H 	H 	0.3449	0.5641	0.5908	0.168
Mof_H 	H 	0.2786	0.5586	0.5556	0.152
Mof_H 	H 	0.5426	0.6502	0.3009	0.097
Mof_H 	H 	0.3165	0.1135	0.481	0.044
Mof_H 	H 	0.0524	0.7834	0.4731	0.038
Mof_H 	H 	0.0111	0.3825	0.0328	0.038
Mof_H 	H 	0.6773	0.1193	0.0253	0.067
Mof_H 	H 	0.6094	0.6916	0.7525	0.008
Mof_H 	H 	0.9432	0.429	0.7046	0.008
Mof_H 	H 	0.9962	0.1374	0.7922	0.137
Mof_H 	H 	0.8423	0.0833	0.8079	0.148
Mof_H 	H 	0.7262	0.2176	0.8512	0.151
Mof_H 	H 	0.6308	0.3398	0.8284	0.148
Mof_H 	H 	0.9877	0.2811	0.7531	0.094
Mof_H 	H 	0.8855	0.4819	0.0674	0.15
Mof_H 	H 	0.7067	0.5207	0.0718	0.157
Mof_H 	H 	0.5641	0.3449	0.0908	0.168
Mof_H 	H 	0.5586	0.2786	0.0556	0.151
Mof_H 	H 	0.6502	0.5426	0.8009	0.097
Mof_H 	H 	0.1135	0.3165	0.981	0.043
Mof_H 	H 	0.7834	0.0524	0.9731	0.038
Mof_H 	H 	0.6175	0.9889	0.4672	0.118
Mof_H 	H 	0.8807	0.3227	0.4747	0.102
Mof_H 	H 	0.3084	0.3906	0.7475	0.004
Mof_H 	H 	0.571	0.0568	0.7954	0.004
Mof_H 	H 	0.8626	0.0038	0.7078	0.145
Mof_H 	H 	0.9167	0.1577	0.6921	0.162
Mof_H 	H 	0.7824	0.2738	0.6488	0.152
Mof_H 	H 	0.6602	0.3692	0.6716	0.15
Mof_H 	H 	0.7189	0.0123	0.7469	0.09
Mof_H 	H 	0.5181	0.1145	0.4326	0.138
Mof_H 	H 	0.4793	0.2933	0.4282	0.152
Mof_H 	H 	0.6551	0.4359	0.4092	0.168
Mof_H 	H 	0.7214	0.4414	0.4444	0.149
Mof_H 	H 	0.4574	0.3498	0.6991	0.095
Mof_H 	H 	0.6835	0.8865	0.519	-0.018
Mof_H 	H 	0.9476	0.2166	0.5269	0.006
Mof_C 	C 	0.0361	0.6839	0.97916	-0.251
Mof_C 	C 	0.2348	0.8404	0.98341	-0.2
Mof_C 	C 	0.3144	0.3914	0.2475	0.102
Mof_C 	C 	0.2268	0.423	0.27671	-0.174
Mof_C 	C 	0.2523	0.3193	0.30747	0.401
Mof_C 	C 	0.1158	0.5472	0.27596	0.101
Mof_C 	C 	1.73328e-18	0.9076	0.15702	0.471
Mof_C 	C 	0.0777	0.8535	0.18883	-0.384
Mof_C 	C 	0.2735	0.6827	0.16057	-0.355
Mof_C 	C 	0.1792	0.6056	0.21791	0.112
Mof_C 	C 	0.1958	0.5538	0.88397	0.443
Mof_C 	C 	0.0899	0.6371	0.24697	-0.186
Mof_C 	C 	0.2068	0.5514	0.9215	-0.389
Mof_C 	C 	0.0399	0.8243	0.02837	-0.207
Mof_C 	C 	0.388	0.7334	0.92377	-0.356
Mof_C 	C 	0.2903	0.4811	0.21849	-0.191
Mof_C 	C 	0.4087	0.8883	0.9071	0.402
Mof_C 	C 	0.974	0.7242	0.01016	0.166
Mof_C 	C 	0.1703	0.8809	0.01484	0.128
Mof_C 	C 	0.964	0.8722	0.06132	0.432
Mof_C 	C 	0.2676	0.5632	0.13492	0.398
Mof_C 	C 	0.1681	0.7405	0.9653	0.142
Mof_C 	C 	0.3161	0.9639	0.52084	-0.07
Mof_C 	C 	0.1596	0.7652	0.51659	-0.11
Mof_C 	C 	0.6086	0.6856	0.2525	0.102
Mof_C 	C 	0.577	0.7732	0.22329	-0.17
Mof_C 	C 	0.6807	0.7477	0.19253	0.4
Mof_C 	C 	0.4528	0.8842	0.22404	0.102
Mof_C 	C 	0.0924	0	0.34298	0.42
Mof_C 	C 	0.1465	0.9223	0.31117	-0.342
Mof_C 	C 	0.3173	0.7265	0.33943	-0.349
Mof_C 	C 	0.3944	0.8208	0.28209	0.115
Mof_C 	C 	0.4462	0.8042	0.61603	0.448
Mof_C 	C 	0.3629	0.9101	0.25303	-0.183
Mof_C 	C 	0.4486	0.7932	0.5785	-0.399
Mof_C 	C 	0.1757	0.9601	0.47163	-0.068
Mof_C 	C 	0.2666	0.612	0.57623	-0.361
Mof_C 	C 	0.5189	0.7097	0.28151	-0.189
Mof_C 	C 	0.1117	0.5913	0.5929	0.405
Mof_C 	C 	0.2758	0.026	0.48984	-0.023
Mof_C 	C 	0.1191	0.8297	0.48516	0.022
Mof_C 	C 	0.1278	0.036	0.43868	0.343
Mof_C 	C 	0.4368	0.7324	0.36508	0.396
Mof_C 	C 	0.2595	0.8319	0.5347	0.055
Mof_C 	C 	0.9639	0.3161	0.02084	-0.072
Mof_C 	C 	0.7652	0.1596	0.01659	-0.112
Mof_C 	C 	0.6856	0.6086	0.7525	0.102
Mof_C 	C 	0.7732	0.577	0.72329	-0.17
Mof_C 	C 	0.7477	0.6807	0.69253	0.4
Mof_C 	C 	0.8842	0.4528	0.72404	0.102
Mof_C 	C 	9.24417e-18	0.0924	0.84298	0.42
Mof_C 	C 	0.9223	0.1465	0.81117	-0.342
Mof_C 	C 	0.7265	0.3173	0.83943	-0.349
Mof_C 	C 	0.8208	0.3944	0.78209	0.115
Mof_C 	C 	0.8042	0.4462	0.11603	0.448
Mof_C 	C 	0.9101	0.3629	0.75303	-0.183
Mof_C 	C 	0.7932	0.4486	0.0785	-0.399
Mof_C 	C 	0.9601	0.1757	0.97163	-0.069
Mof_C 	C 	0.612	0.2666	0.07623	-0.361
Mof_C 	C 	0.7097	0.5189	0.78151	-0.189
Mof_C 	C 	0.5913	0.1117	0.0929	0.405
Mof_C 	C 	0.026	0.2758	0.98984	-0.022
Mof_C 	C 	0.8297	0.1191	0.98516	0.024
Mof_C 	C 	0.036	0.1278	0.93868	0.343
Mof_C 	C 	0.7324	0.4368	0.86508	0.396
Mof_C 	C 	0.8319	0.2595	0.0347	0.057
Mof_C 	C 	0.6839	0.0361	0.47916	-0.252
Mof_C 	C 	0.8404	0.2348	0.48341	-0.202
Mof_C 	C 	0.3914	0.3144	0.7475	0.102
Mof_C 	C 	0.423	0.2268	0.77671	-0.174
Mof_C 	C 	0.3193	0.2523	0.80747	0.401
Mof_C 	C 	0.5472	0.1158	0.77596	0.101
Mof_C 	C 	0.9076	0	0.65702	0.472
Mof_C 	C 	0.8535	0.0777	0.68883	-0.385
Mof_C 	C 	0.6827	0.2735	0.66057	-0.355
Mof_C 	C 	0.6056	0.1792	0.71791	0.112
Mof_C 	C 	0.5538	0.1958	0.38397	0.443
Mof_C 	C 	0.6371	0.0899	0.74697	-0.186
Mof_C 	C 	0.5514	0.2068	0.4215	-0.389
Mof_C 	C 	0.8243	0.0399	0.52837	-0.208
Mof_C 	C 	0.7334	0.388	0.42377	-0.356
Mof_C 	C 	0.4811	0.2903	0.71849	-0.191
Mof_C 	C 	0.8883	0.4087	0.4071	0.402
Mof_C 	C 	0.7242	0.974	0.51016	0.168
Mof_C 	C 	0.8809	0.1703	0.51484	0.131
Mof_C 	C 	0.8722	0.964	0.56132	0.433
Mof_C 	C 	0.5632	0.2676	0.63492	0.398
Mof_C 	C 	0.7405	0.1681	0.4653	0.143
Mof_N 	N 	0.145	0.6918	0.18667	-0.121
Mof_N 	N 	0.2261	0.7063	0.93175	-0.122
Mof_N 	N 	0.3082	0.855	0.31333	-0.122
Mof_N 	N 	0.2937	0.7739	0.56825	-0.106
Mof_N 	N 	0.855	0.3082	0.81333	-0.122
Mof_N 	N 	0.7739	0.2937	0.06825	-0.106
Mof_N 	N 	0.6918	0.145	0.68667	-0.121
Mof_N 	N 	0.7063	0.2261	0.43175	-0.122
Mof_O 	O 	0.9829	0.0467	0.14924	-0.456
Mof_O 	O 	0.9524	0.8054	0.14092	-0.547
Mof_O 	O 	0.3395	0.1975	0.30299	-0.46
Mof_O 	O 	0.1833	0.3591	0.33469	-0.428
Mof_O 	O 	0.1446	0.5046	0.1336	-0.43
Mof_O 	O 	0.8586	0.7974	0.073	-0.449
Mof_O 	O 	0.193	0.4302	0.87065	-0.543
Mof_O 	O 	0.2944	0.9588	0.89147	-0.517
Mof_O 	O 	0.183	0.6804	0.86744	-0.435
Mof_O 	O 	0.0112	0.984	0.07393	-0.447
Mof_O 	O 	0.3842	0.5338	0.11654	-0.296
Mof_O 	O 	0.5354	0.9354	0.90826	-0.298
Mof_O 	O 	0.9533	0.0171	0.35076	-0.434
Mof_O 	O 	0.1946	0.0476	0.35908	-0.545
Mof_O 	O 	0.8025	0.6605	0.19701	-0.453
Mof_O 	O 	0.6409	0.8167	0.16531	-0.422
Mof_O 	O 	0.4954	0.8554	0.3664	-0.417
Mof_O 	O 	0.2026	0.1414	0.427	-0.435
Mof_O 	O 	0.5698	0.807	0.62935	-0.541
Mof_O 	O 	0.0412	0.7056	0.60853	-0.528
Mof_O 	O 	0.3196	0.817	0.63256	-0.435
Mof_O 	O 	0.016	0.9888	0.42607	-0.417
Mof_O 	O 	0.4662	0.6158	0.38346	-0.294
Mof_O 	O 	0.0646	0.4646	0.59174	-0.309
Mof_O 	O 	0.0171	0.9533	0.85076	-0.434
Mof_O 	O 	0.0476	0.1946	0.85908	-0.545
Mof_O 	O 	0.6605	0.8025	0.69701	-0.453
Mof_O 	O 	0.8167	0.6409	0.66531	-0.422
Mof_O 	O 	0.8554	0.4954	0.8664	-0.417
Mof_O 	O 	0.1414	0.2026	0.927	-0.435
Mof_O 	O 	0.807	0.5698	0.12935	-0.541
Mof_O 	O 	0.7056	0.0412	0.10853	-0.528
Mof_O 	O 	0.817	0.3196	0.13256	-0.435
Mof_O 	O 	0.9888	0.016	0.92607	-0.417
Mof_O 	O 	0.6158	0.4662	0.88346	-0.294
Mof_O 	O 	0.4646	0.0646	0.09174	-0.31
Mof_O 	O 	0.0467	0.9829	0.64924	-0.456
Mof_O 	O 	0.8054	0.9524	0.64092	-0.548
Mof_O 	O 	0.1975	0.3395	0.80299	-0.46
Mof_O 	O 	0.3591	0.1833	0.83469	-0.428
Mof_O 	O 	0.5046	0.1446	0.6336	-0.43
Mof_O 	O 	0.7974	0.8586	0.573	-0.449
Mof_O 	O 	0.4302	0.193	0.37065	-0.543
Mof_O 	O 	0.9588	0.2944	0.39147	-0.517
Mof_O 	O 	0.6804	0.183	0.36744	-0.435
Mof_O 	O 	0.984	0.0112	0.57393	-0.447
Mof_O 	O 	0.5338	0.3842	0.61654	-0.296
Mof_O 	O 	0.9354	0.5354	0.40826	-0.298
_end
