data_functionalizedCrystal
_audit_creation_method	'EQeq! by Chris Wilmer'
_symmetry_space_group_name_H-M	'P1'
_symmetry_Int_Tables_number	1
_symmetry_cell_setting	triclinic
loop_
_symmetry_equiv_pos_as_xyz
  x,y,z
_cell_length_a	16.5764
_cell_length_b	16.5764
_cell_length_c	25.2504
_cell_angle_alpha	90
_cell_angle_beta	90
_cell_angle_gamma	120
loop_
_atom_site_label
_atom_site_type_symbol
_atom_site_fract_x
_atom_site_fract_y
_atom_site_fract_z
_atom_site_charge
Mof_Zn	Zn	0.71402	0.28597	-0	1.197
Mof_Zn	Zn	0.57195	0.28597	0.66667	1.21
Mof_Zn	Zn	0.71402	0.42804	0.33333	1.211
Mof_Zn	Zn	0.28598	0.71403	-0	1.198
Mof_Zn	Zn	0.42805	0.71403	0.66667	1.211
Mof_Zn	Zn	0.28598	0.57196	0.33333	1.211
Mof_H 	H 	0.8204	0.5946	0.9108	0.089
Mof_H 	H 	0.6417	0.0991	0.0531	-0.04
Mof_H 	H 	0.583	0.9445	0.0315	0.147
Mof_H 	H 	0.6367	0.0217	0.8795	0.17
Mof_H 	H 	0.6823	0.1698	0.9058	-0.024
Mof_H 	H 	0.4852	0.6961	0.9582	0.017
Mof_H 	H 	0.4395	0.5413	0.952	0.094
Mof_H 	H 	0.5742	0.5873	0.8235	0.086
Mof_H 	H 	0.5986	0.734	0.8235	0.013
Mof_H 	H 	0.5452	0.8328	0.9667	0.184
Mof_H 	H 	0.8603	0.7383	0.8044	0.153
Mof_H 	H 	0.7742	0.1796	0.57747	0.082
Mof_H 	H 	0.4574	0.3583	0.71977	-0.043
Mof_H 	H 	0.3615	0.417	0.69817	0.132
Mof_H 	H 	0.385	0.3633	0.54617	0.161
Mof_H 	H 	0.4875	0.3177	0.57247	-0.019
Mof_H 	H 	0.2109	0.5148	0.62487	0.007
Mof_H 	H 	0.1018	0.5605	0.61867	0.084
Mof_H 	H 	0.0131	0.4258	0.49017	0.085
Mof_H 	H 	0.1354	0.4014	0.49017	0.013
Mof_H 	H 	0.2876	0.4548	0.63337	0.166
Mof_H 	H 	0.878	0.1397	0.47107	0.151
Mof_H 	H 	0.4054	0.2258	0.24413	0.081
Mof_H 	H 	0.9009	0.5426	0.38643	-0.043
Mof_H 	H 	0.0555	0.6385	0.36483	0.132
Mof_H 	H 	0.9783	0.615	0.21283	0.161
Mof_H 	H 	0.8302	0.5125	0.23913	-0.019
Mof_H 	H 	0.3039	0.7891	0.29153	0.007
Mof_H 	H 	0.4587	0.8982	0.28533	0.084
Mof_H 	H 	0.4127	0.9869	0.15683	0.085
Mof_H 	H 	0.266	0.8646	0.15683	0.011
Mof_H 	H 	0.1672	0.7124	0.30003	0.167
Mof_H 	H 	0.2617	0.122	0.13773	0.147
Mof_H 	H 	0.1796	0.4054	0.9108	0.089
Mof_H 	H 	0.3583	0.9009	0.0531	-0.04
Mof_H 	H 	0.417	0.0555	0.0315	0.147
Mof_H 	H 	0.3633	0.9783	0.8795	0.17
Mof_H 	H 	0.3177	0.8302	0.9058	-0.024
Mof_H 	H 	0.5148	0.3039	0.9582	0.017
Mof_H 	H 	0.5605	0.4587	0.952	0.094
Mof_H 	H 	0.4258	0.4127	0.8235	0.086
Mof_H 	H 	0.4014	0.266	0.8235	0.013
Mof_H 	H 	0.4548	0.1672	0.9667	0.184
Mof_H 	H 	0.1397	0.2617	0.8044	0.153
Mof_H 	H 	0.2258	0.8204	0.57747	0.082
Mof_H 	H 	0.5426	0.6417	0.71977	-0.043
Mof_H 	H 	0.6385	0.583	0.69817	0.132
Mof_H 	H 	0.615	0.6367	0.54617	0.161
Mof_H 	H 	0.5125	0.6823	0.57247	-0.019
Mof_H 	H 	0.7891	0.4852	0.62487	0.007
Mof_H 	H 	0.8982	0.4395	0.61867	0.084
Mof_H 	H 	0.9869	0.5742	0.49017	0.085
Mof_H 	H 	0.8646	0.5986	0.49017	0.013
Mof_H 	H 	0.7124	0.5452	0.63337	0.166
Mof_H 	H 	0.122	0.8603	0.47107	0.151
Mof_H 	H 	0.5946	0.7742	0.24413	0.081
Mof_H 	H 	0.0991	0.4574	0.38643	-0.043
Mof_H 	H 	0.9445	0.3615	0.36483	0.132
Mof_H 	H 	0.0217	0.385	0.21283	0.161
Mof_H 	H 	0.1698	0.4875	0.23913	-0.019
Mof_H 	H 	0.6961	0.2109	0.29153	0.007
Mof_H 	H 	0.5413	0.1018	0.28533	0.084
Mof_H 	H 	0.5873	0.0131	0.15683	0.085
Mof_H 	H 	0.734	0.1354	0.15683	0.011
Mof_H 	H 	0.8328	0.2876	0.30003	0.167
Mof_H 	H 	0.7383	0.878	0.13773	0.147
Mof_H 	H 	0.2258	0.4054	0.75587	0.083
Mof_H 	H 	0.5426	0.9009	0.61357	-0.043
Mof_H 	H 	0.6385	0.0555	0.63517	0.132
Mof_H 	H 	0.615	0.9783	0.78717	0.161
Mof_H 	H 	0.5125	0.8302	0.76087	-0.019
Mof_H 	H 	0.7891	0.3039	0.70847	0.007
Mof_H 	H 	0.8982	0.4587	0.71467	0.083
Mof_H 	H 	0.9869	0.4127	0.84317	0.085
Mof_H 	H 	0.8646	0.266	0.84317	0.015
Mof_H 	H 	0.7124	0.1672	0.69997	0.166
Mof_H 	H 	0.122	0.2617	0.86227	0.156
Mof_H 	H 	0.5946	0.8204	0.0892	0.075
Mof_H 	H 	0.0991	0.6417	0.9469	-0.045
Mof_H 	H 	0.9445	0.583	0.9685	0.118
Mof_H 	H 	0.0217	0.6367	0.1205	0.151
Mof_H 	H 	0.1698	0.6823	0.0942	-0.013
Mof_H 	H 	0.6961	0.4852	0.0418	-0.002
Mof_H 	H 	0.5413	0.4395	0.048	0.074
Mof_H 	H 	0.5873	0.5742	0.1765	0.084
Mof_H 	H 	0.734	0.5986	0.1765	0.014
Mof_H 	H 	0.8328	0.5452	0.0333	0.149
Mof_H 	H 	0.7383	0.8603	0.1956	0.149
Mof_H 	H 	0.1796	0.7742	0.42253	0.082
Mof_H 	H 	0.3583	0.4574	0.28023	-0.043
Mof_H 	H 	0.417	0.3615	0.30183	0.132
Mof_H 	H 	0.3633	0.385	0.45383	0.161
Mof_H 	H 	0.3177	0.4875	0.42753	-0.019
Mof_H 	H 	0.5148	0.2109	0.37513	0.007
Mof_H 	H 	0.5605	0.1018	0.38133	0.084
Mof_H 	H 	0.4258	0.0131	0.50983	0.085
Mof_H 	H 	0.4014	0.1354	0.50983	0.013
Mof_H 	H 	0.4548	0.2876	0.36663	0.167
Mof_H 	H 	0.1397	0.878	0.52893	0.151
Mof_H 	H 	0.7742	0.5946	0.75587	0.083
Mof_H 	H 	0.4574	0.0991	0.61357	-0.043
Mof_H 	H 	0.3615	0.9445	0.63517	0.132
Mof_H 	H 	0.385	0.0217	0.78717	0.161
Mof_H 	H 	0.4875	0.1698	0.76087	-0.019
Mof_H 	H 	0.2109	0.6961	0.70847	0.007
Mof_H 	H 	0.1018	0.5413	0.71467	0.083
Mof_H 	H 	0.0131	0.5873	0.84317	0.085
Mof_H 	H 	0.1354	0.734	0.84317	0.015
Mof_H 	H 	0.2876	0.8328	0.69997	0.166
Mof_H 	H 	0.878	0.7383	0.86227	0.156
Mof_H 	H 	0.4054	0.1796	0.0892	0.075
Mof_H 	H 	0.9009	0.3583	0.9469	-0.045
Mof_H 	H 	0.0555	0.417	0.9685	0.118
Mof_H 	H 	0.9783	0.3633	0.1205	0.151
Mof_H 	H 	0.8302	0.3177	0.0942	-0.013
Mof_H 	H 	0.3039	0.5148	0.0418	-0.002
Mof_H 	H 	0.4587	0.5605	0.048	0.074
Mof_H 	H 	0.4127	0.4258	0.1765	0.084
Mof_H 	H 	0.266	0.4014	0.1765	0.014
Mof_H 	H 	0.1672	0.4548	0.0333	0.149
Mof_H 	H 	0.2617	0.1397	0.1956	0.149
Mof_H 	H 	0.8204	0.2258	0.42253	0.082
Mof_H 	H 	0.6417	0.5426	0.28023	-0.043
Mof_H 	H 	0.583	0.6385	0.30183	0.132
Mof_H 	H 	0.6367	0.615	0.45383	0.161
Mof_H 	H 	0.6823	0.5125	0.42753	-0.019
Mof_H 	H 	0.4852	0.7891	0.37513	0.007
Mof_H 	H 	0.4395	0.8982	0.38133	0.084
Mof_H 	H 	0.5742	0.9869	0.50983	0.085
Mof_H 	H 	0.5986	0.8646	0.50983	0.013
Mof_H 	H 	0.5452	0.7124	0.36663	0.167
Mof_H 	H 	0.8603	0.122	0.52893	0.151
Mof_H 	H 	0.6764	0.3528	0.83333	0.075
Mof_H 	H 	0.6764	0.3236	0.5	0.073
Mof_H 	H 	0.6472	0.3236	0.16667	0.071
Mof_H 	H 	0.3236	0.6472	0.83333	0.075
Mof_H 	H 	0.3236	0.6764	0.5	0.073
Mof_H 	H 	0.3528	0.6764	0.16667	0.071
Mof_C 	C 	0.7415	0.41487	0.93037	0.316
Mof_C 	C 	0.74906	0.46504	0.8792	-0.021
Mof_C 	C 	0.79572	0.56233	0.8794	-0.134
Mof_C 	C 	0.63841	0.08286	0.0176	0.14
Mof_C 	C 	0.60486	0.98924	0.00485	-0.338
Mof_C 	C 	0.60423	0.96353	0.95325	0.325
Mof_C 	C 	0.63526	0.03472	0.91521	-0.286
Mof_C 	C 	0.66341	0.12381	0.93162	0.174
Mof_C 	C 	0.58824	0.83675	0.89703	0.286
Mof_C 	C 	0.55586	0.73459	0.89482	-0.146
Mof_C 	C 	0.5058	0.67587	0.92962	0.087
Mof_C 	C 	0.4803	0.5821	0.92674	-0.147
Mof_C 	C 	0.51162	0.5489	0.88969	0.079
Mof_C 	C 	0.5545	0.6072	0.85264	-0.157
Mof_C 	C 	0.5729	0.6974	0.85353	0.091
Mof_C 	C 	0.67337	0.2585	0.59704	0.323
Mof_C 	C 	0.71598	0.25094	0.54587	-0.028
Mof_C 	C 	0.76661	0.20428	0.54607	-0.129
Mof_C 	C 	0.44445	0.36159	0.68427	0.16
Mof_C 	C 	0.38438	0.39514	0.67152	-0.275
Mof_C 	C 	0.3593	0.39577	0.61992	0.264
Mof_C 	C 	0.39946	0.36474	0.58188	-0.261
Mof_C 	C 	0.4604	0.33659	0.59829	0.153
Mof_C 	C 	0.24851	0.41176	0.5637	0.278
Mof_C 	C 	0.17873	0.44414	0.56149	-0.146
Mof_C 	C 	0.17007	0.4942	0.59629	0.084
Mof_C 	C 	0.1018	0.5197	0.59341	-0.149
Mof_C 	C 	0.03728	0.48838	0.55636	0.076
Mof_C 	C 	0.0527	0.4455	0.51931	-0.156
Mof_C 	C 	0.1245	0.4271	0.5202	0.089
Mof_C 	C 	0.58513	0.32663	0.2637	0.324
Mof_C 	C 	0.53496	0.28402	0.21253	-0.031
Mof_C 	C 	0.43767	0.23339	0.21273	-0.125
Mof_C 	C 	0.91714	0.55555	0.35093	0.16
Mof_C 	C 	0.01076	0.61562	0.33818	-0.275
Mof_C 	C 	0.03647	0.6407	0.28658	0.264
Mof_C 	C 	0.96528	0.60054	0.24854	-0.261
Mof_C 	C 	0.87619	0.5396	0.26495	0.153
Mof_C 	C 	0.16325	0.75149	0.23036	0.279
Mof_C 	C 	0.26541	0.82127	0.22815	-0.148
Mof_C 	C 	0.32413	0.82993	0.26295	0.085
Mof_C 	C 	0.4179	0.8982	0.26007	-0.149
Mof_C 	C 	0.4511	0.96272	0.22302	0.077
Mof_C 	C 	0.3928	0.9473	0.18597	-0.157
Mof_C 	C 	0.3026	0.8755	0.18686	0.09
Mof_C 	C 	0.2585	0.58513	0.93037	0.316
Mof_C 	C 	0.25094	0.53496	0.8792	-0.021
Mof_C 	C 	0.20428	0.43767	0.8794	-0.134
Mof_C 	C 	0.36159	0.91714	0.0176	0.14
Mof_C 	C 	0.39514	0.01076	0.00485	-0.338
Mof_C 	C 	0.39577	0.03647	0.95325	0.325
Mof_C 	C 	0.36474	0.96528	0.91521	-0.286
Mof_C 	C 	0.33659	0.87619	0.93162	0.174
Mof_C 	C 	0.41176	0.16325	0.89703	0.286
Mof_C 	C 	0.44414	0.26541	0.89482	-0.146
Mof_C 	C 	0.4942	0.32413	0.92962	0.087
Mof_C 	C 	0.5197	0.4179	0.92674	-0.147
Mof_C 	C 	0.48838	0.4511	0.88969	0.079
Mof_C 	C 	0.4455	0.3928	0.85264	-0.157
Mof_C 	C 	0.4271	0.3026	0.85353	0.091
Mof_C 	C 	0.32663	0.7415	0.59704	0.323
Mof_C 	C 	0.28402	0.74906	0.54587	-0.028
Mof_C 	C 	0.23339	0.79572	0.54607	-0.129
Mof_C 	C 	0.55555	0.63841	0.68427	0.16
Mof_C 	C 	0.61562	0.60486	0.67152	-0.275
Mof_C 	C 	0.6407	0.60423	0.61992	0.264
Mof_C 	C 	0.60054	0.63526	0.58188	-0.261
Mof_C 	C 	0.5396	0.66341	0.59829	0.153
Mof_C 	C 	0.75149	0.58824	0.5637	0.278
Mof_C 	C 	0.82127	0.55586	0.56149	-0.146
Mof_C 	C 	0.82993	0.5058	0.59629	0.084
Mof_C 	C 	0.8982	0.4803	0.59341	-0.149
Mof_C 	C 	0.96272	0.51162	0.55636	0.076
Mof_C 	C 	0.9473	0.5545	0.51931	-0.156
Mof_C 	C 	0.8755	0.5729	0.5202	0.089
Mof_C 	C 	0.41487	0.67337	0.2637	0.324
Mof_C 	C 	0.46504	0.71598	0.21253	-0.031
Mof_C 	C 	0.56233	0.76661	0.21273	-0.125
Mof_C 	C 	0.08286	0.44445	0.35093	0.16
Mof_C 	C 	0.98924	0.38438	0.33818	-0.275
Mof_C 	C 	0.96353	0.3593	0.28658	0.264
Mof_C 	C 	0.03472	0.39946	0.24854	-0.261
Mof_C 	C 	0.12381	0.4604	0.26495	0.153
Mof_C 	C 	0.83675	0.24851	0.23036	0.279
Mof_C 	C 	0.73459	0.17873	0.22815	-0.148
Mof_C 	C 	0.67587	0.17007	0.26295	0.085
Mof_C 	C 	0.5821	0.1018	0.26007	-0.149
Mof_C 	C 	0.5489	0.03728	0.22302	0.077
Mof_C 	C 	0.6072	0.0527	0.18597	-0.157
Mof_C 	C 	0.6974	0.1245	0.18686	0.09
Mof_C 	C 	0.32663	0.58513	0.7363	0.322
Mof_C 	C 	0.28402	0.53496	0.78747	-0.025
Mof_C 	C 	0.23339	0.43767	0.78727	-0.132
Mof_C 	C 	0.55555	0.91714	0.64907	0.16
Mof_C 	C 	0.61562	0.01076	0.66182	-0.275
Mof_C 	C 	0.6407	0.03647	0.71342	0.264
Mof_C 	C 	0.60054	0.96528	0.75146	-0.261
Mof_C 	C 	0.5396	0.87619	0.73505	0.153
Mof_C 	C 	0.75149	0.16325	0.76964	0.278
Mof_C 	C 	0.82127	0.26541	0.77185	-0.145
Mof_C 	C 	0.82993	0.32413	0.73705	0.082
Mof_C 	C 	0.8982	0.4179	0.73993	-0.147
Mof_C 	C 	0.96272	0.4511	0.77698	0.076
Mof_C 	C 	0.9473	0.3928	0.81403	-0.154
Mof_C 	C 	0.8755	0.3026	0.81314	0.087
Mof_C 	C 	0.41487	0.7415	0.06963	0.329
Mof_C 	C 	0.46504	0.74906	0.1208	-0.035
Mof_C 	C 	0.56233	0.79572	0.1206	-0.123
Mof_C 	C 	0.08286	0.63841	0.9824	0.18
Mof_C 	C 	0.98924	0.60486	0.99515	-0.211
Mof_C 	C 	0.96353	0.60423	0.04675	0.203
Mof_C 	C 	0.03472	0.63526	0.08479	-0.236
Mof_C 	C 	0.12381	0.66341	0.06838	0.132
Mof_C 	C 	0.83675	0.58824	0.10297	0.271
Mof_C 	C 	0.73459	0.55586	0.10518	-0.146
Mof_C 	C 	0.67587	0.5058	0.07038	0.081
Mof_C 	C 	0.5821	0.4803	0.07326	-0.149
Mof_C 	C 	0.5489	0.51162	0.11031	0.073
Mof_C 	C 	0.6072	0.5545	0.14736	-0.155
Mof_C 	C 	0.6974	0.5729	0.14647	0.086
Mof_C 	C 	0.2585	0.67337	0.40296	0.323
Mof_C 	C 	0.25094	0.71598	0.45413	-0.028
Mof_C 	C 	0.20428	0.76661	0.45393	-0.129
Mof_C 	C 	0.36159	0.44445	0.31573	0.16
Mof_C 	C 	0.39514	0.38438	0.32848	-0.275
Mof_C 	C 	0.39577	0.3593	0.38008	0.264
Mof_C 	C 	0.36474	0.39946	0.41812	-0.261
Mof_C 	C 	0.33659	0.4604	0.40171	0.153
Mof_C 	C 	0.41176	0.24851	0.4363	0.278
Mof_C 	C 	0.44414	0.17873	0.43851	-0.146
Mof_C 	C 	0.4942	0.17007	0.40371	0.084
Mof_C 	C 	0.5197	0.1018	0.40659	-0.148
Mof_C 	C 	0.48838	0.03728	0.44364	0.076
Mof_C 	C 	0.4455	0.0527	0.48069	-0.156
Mof_C 	C 	0.4271	0.1245	0.4798	0.089
Mof_C 	C 	0.67337	0.41487	0.7363	0.322
Mof_C 	C 	0.71598	0.46504	0.78747	-0.025
Mof_C 	C 	0.76661	0.56233	0.78727	-0.132
Mof_C 	C 	0.44445	0.08286	0.64907	0.16
Mof_C 	C 	0.38438	0.98924	0.66182	-0.275
Mof_C 	C 	0.3593	0.96353	0.71342	0.264
Mof_C 	C 	0.39946	0.03472	0.75146	-0.261
Mof_C 	C 	0.4604	0.12381	0.73505	0.153
Mof_C 	C 	0.24851	0.83675	0.76964	0.278
Mof_C 	C 	0.17873	0.73459	0.77185	-0.145
Mof_C 	C 	0.17007	0.67587	0.73705	0.082
Mof_C 	C 	0.1018	0.5821	0.73993	-0.147
Mof_C 	C 	0.03728	0.5489	0.77698	0.076
Mof_C 	C 	0.0527	0.6072	0.81403	-0.154
Mof_C 	C 	0.1245	0.6974	0.81314	0.087
Mof_C 	C 	0.58513	0.2585	0.06963	0.329
Mof_C 	C 	0.53496	0.25094	0.1208	-0.035
Mof_C 	C 	0.43767	0.20428	0.1206	-0.123
Mof_C 	C 	0.91714	0.36159	0.9824	0.18
Mof_C 	C 	0.01076	0.39514	0.99515	-0.211
Mof_C 	C 	0.03647	0.39577	0.04675	0.203
Mof_C 	C 	0.96528	0.36474	0.08479	-0.236
Mof_C 	C 	0.87619	0.33659	0.06838	0.132
Mof_C 	C 	0.16325	0.41176	0.10297	0.271
Mof_C 	C 	0.26541	0.44414	0.10518	-0.146
Mof_C 	C 	0.32413	0.4942	0.07038	0.081
Mof_C 	C 	0.4179	0.5197	0.07326	-0.149
Mof_C 	C 	0.4511	0.48838	0.11031	0.073
Mof_C 	C 	0.3928	0.4455	0.14736	-0.155
Mof_C 	C 	0.3026	0.4271	0.14647	0.086
Mof_C 	C 	0.7415	0.32663	0.40296	0.323
Mof_C 	C 	0.74906	0.28402	0.45413	-0.028
Mof_C 	C 	0.79572	0.23339	0.45393	-0.129
Mof_C 	C 	0.63841	0.55555	0.31573	0.16
Mof_C 	C 	0.60486	0.61562	0.32848	-0.275
Mof_C 	C 	0.60423	0.6407	0.38008	0.264
Mof_C 	C 	0.63526	0.60054	0.41812	-0.261
Mof_C 	C 	0.66341	0.5396	0.40171	0.153
Mof_C 	C 	0.58824	0.75149	0.4363	0.278
Mof_C 	C 	0.55586	0.82127	0.43851	-0.146
Mof_C 	C 	0.5058	0.82993	0.40371	0.084
Mof_C 	C 	0.4803	0.8982	0.40659	-0.148
Mof_C 	C 	0.51162	0.96272	0.44364	0.076
Mof_C 	C 	0.5545	0.9473	0.48069	-0.156
Mof_C 	C 	0.5729	0.8755	0.4798	0.089
Mof_C 	C 	0.70884	0.41768	0.83333	-0.034
Mof_C 	C 	0.80536	0.61072	0.83333	0.158
Mof_C 	C 	0.70884	0.29116	0.5	-0.03
Mof_C 	C 	0.80536	0.19464	0.5	0.153
Mof_C 	C 	0.58232	0.29116	0.16667	-0.025
Mof_C 	C 	0.38928	0.19464	0.16667	0.148
Mof_C 	C 	0.29116	0.58232	0.83333	-0.034
Mof_C 	C 	0.19464	0.38928	0.83333	0.158
Mof_C 	C 	0.29116	0.70884	0.5	-0.03
Mof_C 	C 	0.19464	0.80536	0.5	0.153
Mof_C 	C 	0.41768	0.70884	0.16667	-0.025
Mof_C 	C 	0.61072	0.80536	0.16667	0.148
Mof_N 	N 	0.66555	0.14901	0.98188	-0.271
Mof_N 	N 	0.57531	0.87226	0.94197	-0.304
Mof_N 	N 	0.48346	0.33445	0.64855	-0.294
Mof_N 	N 	0.29695	0.42469	0.60864	-0.291
Mof_N 	N 	0.85099	0.51654	0.31521	-0.294
Mof_N 	N 	0.12774	0.70305	0.2753	-0.291
Mof_N 	N 	0.33445	0.85099	0.98188	-0.271
Mof_N 	N 	0.42469	0.12774	0.94197	-0.304
Mof_N 	N 	0.51654	0.66555	0.64855	-0.294
Mof_N 	N 	0.70305	0.57531	0.60864	-0.291
Mof_N 	N 	0.14901	0.48346	0.31521	-0.294
Mof_N 	N 	0.87226	0.29695	0.2753	-0.291
Mof_N 	N 	0.51654	0.85099	0.68479	-0.294
Mof_N 	N 	0.70305	0.12774	0.7247	-0.29
Mof_N 	N 	0.14901	0.66555	0.01812	-0.315
Mof_N 	N 	0.87226	0.57531	0.05803	-0.278
Mof_N 	N 	0.33445	0.48346	0.35145	-0.294
Mof_N 	N 	0.42469	0.29695	0.39136	-0.291
Mof_N 	N 	0.48346	0.14901	0.68479	-0.294
Mof_N 	N 	0.29695	0.87226	0.7247	-0.29
Mof_N 	N 	0.85099	0.33445	0.01812	-0.315
Mof_N 	N 	0.12774	0.42469	0.05803	-0.278
Mof_N 	N 	0.66555	0.51654	0.35145	-0.294
Mof_N 	N 	0.57531	0.70305	0.39136	-0.291
Mof_N 	N 	0.85413	0.70826	0.83333	-0.318
Mof_N 	N 	0.85413	0.14588	0.5	-0.316
Mof_N 	N 	0.29175	0.14588	0.16667	-0.314
Mof_N 	N 	0.14587	0.29174	0.83333	-0.318
Mof_N 	N 	0.14587	0.85412	0.5	-0.316
Mof_N 	N 	0.70825	0.85412	0.16667	-0.314
Mof_O 	O 	0.70929	0.32993	0.92827	-0.443
Mof_O 	O 	0.76761	0.45995	0.9724	-0.327
Mof_O 	O 	0.62125	0.88483	0.85843	-0.258
Mof_O 	O 	0.62064	0.29071	0.59494	-0.456
Mof_O 	O 	0.69234	0.23239	0.63907	-0.352
Mof_O 	O 	0.26358	0.37875	0.5251	-0.257
Mof_O 	O 	0.67007	0.37936	0.2616	-0.456
Mof_O 	O 	0.54005	0.30766	0.30573	-0.352
Mof_O 	O 	0.11517	0.73642	0.19176	-0.258
Mof_O 	O 	0.29071	0.67007	0.92827	-0.443
Mof_O 	O 	0.23239	0.54005	0.9724	-0.327
Mof_O 	O 	0.37875	0.11517	0.85843	-0.258
Mof_O 	O 	0.37936	0.70929	0.59494	-0.456
Mof_O 	O 	0.30766	0.76761	0.63907	-0.352
Mof_O 	O 	0.73642	0.62125	0.5251	-0.257
Mof_O 	O 	0.32993	0.62064	0.2616	-0.456
Mof_O 	O 	0.45995	0.69234	0.30573	-0.352
Mof_O 	O 	0.88483	0.26358	0.19176	-0.258
Mof_O 	O 	0.37936	0.67007	0.7384	-0.455
Mof_O 	O 	0.30766	0.54005	0.69427	-0.352
Mof_O 	O 	0.73642	0.11517	0.80824	-0.255
Mof_O 	O 	0.32993	0.70929	0.07173	-0.463
Mof_O 	O 	0.45995	0.76761	0.0276	-0.375
Mof_O 	O 	0.88483	0.62125	0.14157	-0.255
Mof_O 	O 	0.29071	0.62064	0.40506	-0.456
Mof_O 	O 	0.23239	0.69234	0.36093	-0.352
Mof_O 	O 	0.37875	0.26358	0.4749	-0.257
Mof_O 	O 	0.62064	0.32993	0.7384	-0.455
Mof_O 	O 	0.69234	0.45995	0.69427	-0.352
Mof_O 	O 	0.26358	0.88483	0.80824	-0.255
Mof_O 	O 	0.67007	0.29071	0.07173	-0.463
Mof_O 	O 	0.54005	0.23239	0.0276	-0.375
Mof_O 	O 	0.11517	0.37875	0.14157	-0.255
Mof_O 	O 	0.70929	0.37936	0.40506	-0.456
Mof_O 	O 	0.76761	0.30766	0.36093	-0.352
Mof_O 	O 	0.62125	0.73642	0.4749	-0.257
_end
