# CIF file generated by openbabel 3.1.0, see https://openbabel.org
data_I
_chemical_name_common 'image0'
_cell_length_a 6.7507
_cell_length_b 16.9798
_cell_length_c 12.9232
_cell_angle_alpha 90
_cell_angle_beta 90
_cell_angle_gamma 90
_space_group_name_H-M_alt 'P 1'
_space_group_name_Hall 'P 1'
loop_
    _symmetry_equiv_pos_as_xyz
    x,y,z
loop_
    _atom_site_label
    _atom_site_type_symbol
    _atom_site_fract_x
    _atom_site_fract_y
    _atom_site_fract_z
    _atom_site_occupancy
    O1       O        0.65290    0.16640    0.16430    1.000
    O2       O        0.32220    0.16740    0.14650    1.000
    C1       C        0.50200    0.06600    0.06370    1.000
    C2       C        0.65980    0.01140    0.07090    1.000
    C3       C        0.34870    0.05220    0.99550    1.000
    H1       H        0.24440    0.08790    0.99410    1.000
    C4       C        0.49250    0.13920    0.12890    1.000
    C5       C        0.83100    0.01850    0.14650    1.000
    H2       H        0.81610    0.06580    0.18640    1.000
    H3       H        0.95350    0.02050    0.10890    1.000
    H4       H        0.83150    0.97380    0.19190    1.000
    O3       O        0.84710    0.83360    0.66430    1.000
    O4       O        0.17780    0.83260    0.64650    1.000
    C6       C        0.99800    0.93400    0.56370    1.000
    C7       C        0.84020    0.98860    0.57090    1.000
    C8       C        0.15130    0.94780    0.49550    1.000
    H5       H        0.25560    0.91210    0.49410    1.000
    C9       C        0.00750    0.86080    0.62890    1.000
    C10      C        0.66900    0.98150    0.64650    1.000
    H6       H        0.68390    0.93420    0.68640    1.000
    H7       H        0.54650    0.97950    0.60890    1.000
    H8       H        0.66850    0.02620    0.69190    1.000
    O5       O        0.34710    0.66640    0.83570    1.000
    O6       O        0.67780    0.66740    0.85350    1.000
    C11      C        0.49800    0.56600    0.93630    1.000
    C12      C        0.34020    0.51140    0.92910    1.000
    C13      C        0.65130    0.55220    0.00450    1.000
    H9       H        0.75560    0.58790    0.00590    1.000
    C14      C        0.50750    0.63920    0.87110    1.000
    C15      C        0.16900    0.51850    0.85350    1.000
    H10      H        0.18390    0.56580    0.81360    1.000
    H11      H        0.04650    0.52050    0.89110    1.000
    H12      H        0.16850    0.47380    0.80810    1.000
    O7       O        0.15290    0.33360    0.33570    1.000
    O8       O        0.82220    0.33260    0.35350    1.000
    C16      C        0.00200    0.43400    0.43630    1.000
    C17      C        0.15980    0.48860    0.42910    1.000
    C18      C        0.84870    0.44780    0.50450    1.000
    H13      H        0.74440    0.41210    0.50590    1.000
    C19      C        0.99250    0.36080    0.37110    1.000
    C20      C        0.33100    0.48150    0.35350    1.000
    H14      H        0.31610    0.43420    0.31360    1.000
    H15      H        0.45350    0.47950    0.39110    1.000
    H16      H        0.33150    0.52620    0.30810    1.000
    O9       O        0.34710    0.83360    0.83570    1.000
    O10      O        0.67780    0.83260    0.85350    1.000
    C21      C        0.49800    0.93400    0.93630    1.000
    C22      C        0.34020    0.98860    0.92910    1.000
    C23      C        0.65130    0.94780    0.00450    1.000
    H17      H        0.75560    0.91210    0.00590    1.000
    C24      C        0.50750    0.86080    0.87110    1.000
    C25      C        0.16900    0.98150    0.85350    1.000
    H18      H        0.18390    0.93420    0.81360    1.000
    H19      H        0.04650    0.97950    0.89110    1.000
    H20      H        0.16850    0.02620    0.80810    1.000
    O11      O        0.15290    0.16640    0.33570    1.000
    O12      O        0.82220    0.16740    0.35350    1.000
    C26      C        0.00200    0.06600    0.43630    1.000
    C27      C        0.15980    0.01140    0.42910    1.000
    C28      C        0.84870    0.05220    0.50450    1.000
    H21      H        0.74440    0.08790    0.50590    1.000
    C29      C        0.99250    0.13920    0.37110    1.000
    C30      C        0.33100    0.01850    0.35350    1.000
    H22      H        0.31610    0.06580    0.31360    1.000
    H23      H        0.45350    0.02050    0.39110    1.000
    H24      H        0.33150    0.97380    0.30810    1.000
    O13      O        0.65290    0.33360    0.16430    1.000
    O14      O        0.32220    0.33260    0.14650    1.000
    C31      C        0.50200    0.43400    0.06370    1.000
    C32      C        0.65980    0.48860    0.07090    1.000
    C33      C        0.34870    0.44780    0.99550    1.000
    H25      H        0.24440    0.41210    0.99410    1.000
    C34      C        0.49250    0.36080    0.12890    1.000
    C35      C        0.83100    0.48150    0.14650    1.000
    H26      H        0.81610    0.43420    0.18640    1.000
    H27      H        0.95350    0.47950    0.10890    1.000
    H28      H        0.83150    0.52620    0.19190    1.000
    O15      O        0.84710    0.66640    0.66430    1.000
    O16      O        0.17780    0.66740    0.64650    1.000
    C36      C        0.99800    0.56600    0.56370    1.000
    C37      C        0.84020    0.51140    0.57090    1.000
    C38      C        0.15130    0.55220    0.49550    1.000
    H29      H        0.25560    0.58790    0.49410    1.000
    C39      C        0.00750    0.63920    0.62890    1.000
    C40      C        0.66900    0.51850    0.64650    1.000
    H30      H        0.68390    0.56580    0.68640    1.000
    H31      H        0.54650    0.52050    0.60890    1.000
    H32      H        0.66850    0.47380    0.69190    1.000
    V1       V        0.70470    0.25000    0.26655    1.000
    O17      O        0.48250    0.25000    0.31340    1.000
    V2       V        0.79530    0.75000    0.76655    1.000
    O18      O        0.01750    0.75000    0.81340    1.000
    V3       V        0.29530    0.75000    0.73345    1.000
    O19      O        0.51750    0.75000    0.68660    1.000
    V4       V        0.20470    0.25000    0.23345    1.000
    O20      O        0.98250    0.25000    0.18660    1.000
