data_functionalizedCrystal
_audit_creation_method	'EQeq! by Chris Wilmer'
_symmetry_space_group_name_H-M	'P1'
_symmetry_Int_Tables_number	1
_symmetry_cell_setting	triclinic
loop_
_symmetry_equiv_pos_as_xyz
  x,y,z
_cell_length_a	32.118
_cell_length_b	15.2133
_cell_length_c	13.1789
_cell_angle_alpha	90
_cell_angle_beta	95.256
_cell_angle_gamma	90
loop_
_atom_site_label
_atom_site_type_symbol
_atom_site_fract_x
_atom_site_fract_y
_atom_site_fract_z
_atom_site_charge
Mof_La	La	0.81188	0.79352	0.52861	1.963
Mof_O 	O 	0.86373	0.6732	0.4972	-0.412
Mof_O 	O 	0.8844	0.8072	0.4583	-0.429
Mof_O 	O 	0.23031	0.3401	0.4466	-0.569
Mof_O 	O 	0.28446	0.4208	0.4172	-0.478
Mof_O 	O 	0.20612	0.7299	0.1445	-0.48
Mof_O 	O 	0.26574	0.6548	0.1585	-0.535
Mof_C 	C 	0.92969	0.6861	0.432	-0.1
Mof_C 	C 	0.93408	0.5952	0.431	0.055
Mof_C 	C 	0.97103	0.55774	0.4044	0
Mof_C 	C 	0.0036	0.61115	0.37893	0.001
Mof_C 	C 	0.99922	0.70204	0.38	-0.023
Mof_C 	C 	0.96227	0.73951	0.4065	0.033
Mof_C 	C 	0.04197	0.57402	0.35333	0.045
Mof_C 	C 	0.08243	0.60948	0.3453	0.033
Mof_N 	N 	0.10951	0.5392	0.3247	-0.086
Mof_N 	N 	0.08578	0.46033	0.3199	-0.054
Mof_N 	N 	0.04403	0.48184	0.3376	-0.073
Mof_C 	C 	0.15005	0.5387	0.3144	0.016
Mof_C 	C 	0.17532	0.475	0.3642	0.049
Mof_C 	C 	0.21804	0.4742	0.3543	-0.179
Mof_C 	C 	0.23549	0.5372	0.2946	0.104
Mof_C 	C 	0.21022	0.6009	0.2448	-0.179
Mof_C 	C 	0.1675	0.6017	0.2547	0.061
Mof_C 	C 	0.8905	0.7254	0.4645	0.318
Mof_C 	C 	0.246	0.4072	0.4082	0.44
Mof_C 	C 	0.2291	0.6672	0.1772	0.481
Mof_La	La	0.31188	0.29352	0.52861	1.962
Mof_O 	O 	0.36373	0.1732	0.4972	-0.413
Mof_O 	O 	0.3844	0.3072	0.4583	-0.429
Mof_O 	O 	0.73031	0.8401	0.4466	-0.569
Mof_O 	O 	0.78446	0.9208	0.4172	-0.478
Mof_O 	O 	0.70612	0.2299	0.1445	-0.481
Mof_O 	O 	0.76574	0.1548	0.1585	-0.535
Mof_C 	C 	0.42969	0.1861	0.432	-0.099
Mof_C 	C 	0.43408	0.0952	0.431	0.054
Mof_C 	C 	0.47103	0.05774	0.4044	0
Mof_C 	C 	0.5036	0.11115	0.37893	0.001
Mof_C 	C 	0.49922	0.20204	0.38	-0.023
Mof_C 	C 	0.46227	0.23951	0.4065	0.033
Mof_C 	C 	0.54197	0.07402	0.35333	0.045
Mof_C 	C 	0.58243	0.10948	0.3453	0.033
Mof_N 	N 	0.60951	0.0392	0.3247	-0.086
Mof_N 	N 	0.58578	0.96033	0.3199	-0.053
Mof_N 	N 	0.54403	0.98184	0.3376	-0.073
Mof_C 	C 	0.65005	0.0387	0.3144	0.015
Mof_C 	C 	0.67532	0.975	0.3642	0.049
Mof_C 	C 	0.71804	0.9742	0.3543	-0.179
Mof_C 	C 	0.73549	0.0372	0.2946	0.103
Mof_C 	C 	0.71022	0.1009	0.2448	-0.179
Mof_C 	C 	0.6675	0.1017	0.2547	0.061
Mof_C 	C 	0.3905	0.2254	0.4645	0.318
Mof_C 	C 	0.746	0.9072	0.4082	0.44
Mof_C 	C 	0.7291	0.1672	0.1772	0.48
Mof_La	La	0.18812	0.79352	0.97139	1.958
Mof_O 	O 	0.13627	0.6732	0.0028	-0.412
Mof_O 	O 	0.1156	0.8072	0.0417	-0.428
Mof_O 	O 	0.76969	0.3401	0.0534	-0.569
Mof_O 	O 	0.71554	0.4208	0.0828	-0.478
Mof_O 	O 	0.79388	0.7299	0.3555	-0.48
Mof_O 	O 	0.73426	0.6548	0.3415	-0.535
Mof_C 	C 	0.07031	0.6861	0.068	-0.099
Mof_C 	C 	0.06592	0.5952	0.069	0.054
Mof_C 	C 	0.02897	0.55774	0.0956	0.001
Mof_C 	C 	0.9964	0.61115	0.12107	-0
Mof_C 	C 	0.00078	0.70204	0.12	-0.022
Mof_C 	C 	0.03773	0.73951	0.0935	0.033
Mof_C 	C 	0.95803	0.57402	0.14667	0.046
Mof_C 	C 	0.91757	0.60948	0.1547	0.033
Mof_N 	N 	0.89049	0.5392	0.1753	-0.086
Mof_N 	N 	0.91422	0.46033	0.1801	-0.054
Mof_N 	N 	0.95597	0.48184	0.1624	-0.073
Mof_C 	C 	0.84995	0.5387	0.1856	0.016
Mof_C 	C 	0.82468	0.475	0.1358	0.049
Mof_C 	C 	0.78196	0.4742	0.1457	-0.179
Mof_C 	C 	0.76451	0.5372	0.2054	0.104
Mof_C 	C 	0.78978	0.6009	0.2552	-0.179
Mof_C 	C 	0.8325	0.6017	0.2453	0.061
Mof_C 	C 	0.1095	0.7254	0.0355	0.318
Mof_C 	C 	0.754	0.4072	0.0918	0.44
Mof_C 	C 	0.7709	0.6672	0.3228	0.481
Mof_La	La	0.68812	0.29352	0.97139	1.966
Mof_O 	O 	0.63627	0.1732	0.0028	-0.414
Mof_O 	O 	0.6156	0.3072	0.0417	-0.429
Mof_O 	O 	0.26969	0.8401	0.0534	-0.569
Mof_O 	O 	0.21554	0.9208	0.0828	-0.476
Mof_O 	O 	0.29388	0.2299	0.3555	-0.48
Mof_O 	O 	0.23426	0.1548	0.3415	-0.535
Mof_C 	C 	0.57031	0.1861	0.068	-0.1
Mof_C 	C 	0.56592	0.0952	0.069	0.054
Mof_C 	C 	0.52897	0.05774	0.0956	-0
Mof_C 	C 	0.4964	0.11115	0.12107	0.001
Mof_C 	C 	0.50078	0.20204	0.12	-0.023
Mof_C 	C 	0.53773	0.23951	0.0935	0.033
Mof_C 	C 	0.45803	0.07402	0.14667	0.044
Mof_C 	C 	0.41757	0.10948	0.1547	0.033
Mof_N 	N 	0.39049	0.0392	0.1753	-0.086
Mof_N 	N 	0.41422	0.96033	0.1801	-0.053
Mof_N 	N 	0.45597	0.98184	0.1624	-0.072
Mof_C 	C 	0.34995	0.0387	0.1856	0.014
Mof_C 	C 	0.32468	0.975	0.1358	0.05
Mof_C 	C 	0.28196	0.9742	0.1457	-0.178
Mof_C 	C 	0.26451	0.0372	0.2054	0.102
Mof_C 	C 	0.28978	0.1009	0.2552	-0.179
Mof_C 	C 	0.3325	0.1017	0.2453	0.061
Mof_C 	C 	0.6095	0.2254	0.0355	0.318
Mof_C 	C 	0.254	0.9072	0.0918	0.44
Mof_C 	C 	0.2709	0.1672	0.3228	0.48
Mof_La	La	0.18812	0.20648	0.47139	1.962
Mof_O 	O 	0.13627	0.3268	0.5028	-0.413
Mof_O 	O 	0.1156	0.1928	0.5417	-0.429
Mof_O 	O 	0.76969	0.6599	0.5534	-0.569
Mof_O 	O 	0.71554	0.5792	0.5828	-0.478
Mof_O 	O 	0.79388	0.2701	0.8555	-0.48
Mof_O 	O 	0.73426	0.3452	0.8415	-0.535
Mof_C 	C 	0.07031	0.3139	0.568	-0.1
Mof_C 	C 	0.06592	0.4048	0.569	0.055
Mof_C 	C 	0.02897	0.44226	0.5956	0
Mof_C 	C 	0.9964	0.38885	0.62107	0.001
Mof_C 	C 	0.00078	0.29796	0.62	-0.023
Mof_C 	C 	0.03773	0.26049	0.5935	0.033
Mof_C 	C 	0.95803	0.42598	0.64667	0.045
Mof_C 	C 	0.91757	0.39052	0.6547	0.033
Mof_N 	N 	0.89049	0.4608	0.6753	-0.086
Mof_N 	N 	0.91422	0.53967	0.6801	-0.054
Mof_N 	N 	0.95597	0.51816	0.6624	-0.073
Mof_C 	C 	0.84995	0.4613	0.6856	0.016
Mof_C 	C 	0.82468	0.525	0.6358	0.049
Mof_C 	C 	0.78196	0.5258	0.6457	-0.179
Mof_C 	C 	0.76451	0.4628	0.7054	0.104
Mof_C 	C 	0.78978	0.3991	0.7552	-0.179
Mof_C 	C 	0.8325	0.3983	0.7453	0.061
Mof_C 	C 	0.1095	0.2746	0.5355	0.318
Mof_C 	C 	0.754	0.5928	0.5918	0.44
Mof_C 	C 	0.7709	0.3328	0.8228	0.481
Mof_La	La	0.68812	0.70648	0.47139	1.962
Mof_O 	O 	0.63627	0.8268	0.5028	-0.413
Mof_O 	O 	0.6156	0.6928	0.5417	-0.429
Mof_O 	O 	0.26969	0.1599	0.5534	-0.569
Mof_O 	O 	0.21554	0.0792	0.5828	-0.478
Mof_O 	O 	0.29388	0.7701	0.8555	-0.481
Mof_O 	O 	0.23426	0.8452	0.8415	-0.535
Mof_C 	C 	0.57031	0.8139	0.568	-0.099
Mof_C 	C 	0.56592	0.9048	0.569	0.054
Mof_C 	C 	0.52897	0.94226	0.5956	0
Mof_C 	C 	0.4964	0.88885	0.62107	0.001
Mof_C 	C 	0.50078	0.79796	0.62	-0.023
Mof_C 	C 	0.53773	0.76049	0.5935	0.033
Mof_C 	C 	0.45803	0.92598	0.64667	0.045
Mof_C 	C 	0.41757	0.89052	0.6547	0.033
Mof_N 	N 	0.39049	0.9608	0.6753	-0.086
Mof_N 	N 	0.41422	0.03967	0.6801	-0.053
Mof_N 	N 	0.45597	0.01816	0.6624	-0.073
Mof_C 	C 	0.34995	0.9613	0.6856	0.015
Mof_C 	C 	0.32468	0.025	0.6358	0.049
Mof_C 	C 	0.28196	0.0258	0.6457	-0.179
Mof_C 	C 	0.26451	0.9628	0.7054	0.103
Mof_C 	C 	0.28978	0.8991	0.7552	-0.179
Mof_C 	C 	0.3325	0.8983	0.7453	0.061
Mof_C 	C 	0.6095	0.7746	0.5355	0.318
Mof_C 	C 	0.254	0.0928	0.5918	0.44
Mof_C 	C 	0.2709	0.8328	0.8228	0.48
Mof_La	La	0.81188	0.20648	0.02861	1.958
Mof_O 	O 	0.86373	0.3268	0.9972	-0.412
Mof_O 	O 	0.8844	0.1928	0.9583	-0.428
Mof_O 	O 	0.23031	0.6599	0.9466	-0.569
Mof_O 	O 	0.28446	0.5792	0.9172	-0.478
Mof_O 	O 	0.20612	0.2701	0.6445	-0.48
Mof_O 	O 	0.26574	0.3452	0.6585	-0.535
Mof_C 	C 	0.92969	0.3139	0.932	-0.099
Mof_C 	C 	0.93408	0.4048	0.931	0.054
Mof_C 	C 	0.97103	0.44226	0.9044	0.001
Mof_C 	C 	0.0036	0.38885	0.87893	-0
Mof_C 	C 	0.99922	0.29796	0.88	-0.022
Mof_C 	C 	0.96227	0.26049	0.9065	0.033
Mof_C 	C 	0.04197	0.42598	0.85333	0.046
Mof_C 	C 	0.08243	0.39052	0.8453	0.033
Mof_N 	N 	0.10951	0.4608	0.8247	-0.086
Mof_N 	N 	0.08578	0.53967	0.8199	-0.054
Mof_N 	N 	0.04403	0.51816	0.8376	-0.073
Mof_C 	C 	0.15005	0.4613	0.8144	0.016
Mof_C 	C 	0.17532	0.525	0.8642	0.049
Mof_C 	C 	0.21804	0.5258	0.8543	-0.179
Mof_C 	C 	0.23549	0.4628	0.7946	0.104
Mof_C 	C 	0.21022	0.3991	0.7448	-0.179
Mof_C 	C 	0.1675	0.3983	0.7547	0.061
Mof_C 	C 	0.8905	0.2746	0.9645	0.318
Mof_C 	C 	0.246	0.5928	0.9082	0.44
Mof_C 	C 	0.2291	0.3328	0.6772	0.481
Mof_La	La	0.31188	0.70648	0.02861	1.966
Mof_O 	O 	0.36373	0.8268	0.9972	-0.414
Mof_O 	O 	0.3844	0.6928	0.9583	-0.429
Mof_O 	O 	0.73031	0.1599	0.9466	-0.569
Mof_O 	O 	0.78446	0.0792	0.9172	-0.476
Mof_O 	O 	0.70612	0.7701	0.6445	-0.48
Mof_O 	O 	0.76574	0.8452	0.6585	-0.535
Mof_C 	C 	0.42969	0.8139	0.932	-0.1
Mof_C 	C 	0.43408	0.9048	0.931	0.054
Mof_C 	C 	0.47103	0.94226	0.9044	-0
Mof_C 	C 	0.5036	0.88885	0.87893	0.001
Mof_C 	C 	0.49922	0.79796	0.88	-0.023
Mof_C 	C 	0.46227	0.76049	0.9065	0.033
Mof_C 	C 	0.54197	0.92598	0.85333	0.044
Mof_C 	C 	0.58243	0.89052	0.8453	0.033
Mof_N 	N 	0.60951	0.9608	0.8247	-0.086
Mof_N 	N 	0.58578	0.03967	0.8199	-0.053
Mof_N 	N 	0.54403	0.01816	0.8376	-0.072
Mof_C 	C 	0.65005	0.9613	0.8144	0.014
Mof_C 	C 	0.67532	0.025	0.8642	0.05
Mof_C 	C 	0.71804	0.0258	0.8543	-0.178
Mof_C 	C 	0.73549	0.9628	0.7946	0.102
Mof_C 	C 	0.71022	0.8991	0.7448	-0.179
Mof_C 	C 	0.6675	0.8983	0.7547	0.061
Mof_C 	C 	0.3905	0.7746	0.9645	0.318
Mof_C 	C 	0.746	0.0928	0.9082	0.44
Mof_C 	C 	0.7291	0.8328	0.6772	0.48
_end
