data_functionalizedCrystal
_audit_creation_method	'EQeq! by Chris Wilmer'
_symmetry_space_group_name_H-M	'P1'
_symmetry_Int_Tables_number	1
_symmetry_cell_setting	triclinic
loop_
_symmetry_equiv_pos_as_xyz
  x,y,z
_cell_length_a	23.6519
_cell_length_b	13.0546
_cell_length_c	26.462
_cell_angle_alpha	90
_cell_angle_beta	115.424
_cell_angle_gamma	90
loop_
_atom_site_label
_atom_site_type_symbol
_atom_site_fract_x
_atom_site_fract_y
_atom_site_fract_z
_atom_site_charge
Mof_O 	O 	0.0068	0.594	0.1863	-0.155
Mof_C 	C 	0.0684	0.6199	0.2026	0.13
Mof_C 	C 	0.1116	0.5714	0.2503	-0.105
Mof_H 	H 	0.0979	0.5217	0.2689	0.095
Mof_C 	C 	0.1748	0.596	0.2709	-0.025
Mof_C 	C 	0.1948	0.668	0.2437	-0.01
Mof_H 	H 	0.238	0.6848	0.2578	-0.018
Mof_C 	C 	0.1515	0.717	0.196	-0.054
Mof_C 	C 	0.0883	0.6926	0.1755	-0.064
Mof_H 	H 	0.0588	0.7257	0.1429	0.063
Mof_C 	C 	0.225	0.5488	0.3185	0.369
Mof_C 	C 	0.1705	0.8079	0.1678	0.353
Mof_Zn	Zn	0.25241	0.36531	0.38626	1.232
Mof_Zn	Zn	0.35934	0.51385	0.39631	1.214
Mof_O 	O 	0.3276	0.4339	0.443	-0.601
Mof_O 	O 	0.5493	0.4819	0.5777	-0.427
Mof_O 	O 	0.2867	0.2221	0.5804	-0.462
Mof_O 	O 	0.2205	0.7883	0.163	-0.459
Mof_C 	C 	0.5297	0.4202	0.6039	0.271
Mof_O 	O 	0.5667	0.3787	0.65	-0.265
Mof_C 	C 	0.4623	0.3958	0.5777	0.027
Mof_O 	O 	0.281	0.5641	0.3322	-0.479
Mof_C 	C 	0.3415	0.2495	0.6059	0.316
Mof_C 	C 	0.3624	0.4015	0.4964	0.256
Mof_O 	O 	0.3722	0.2224	0.6576	-0.261
Mof_O 	O 	0.137	0.8858	0.1487	-0.434
Mof_C 	C 	0.4347	0.338	0.6059	-0.064
Mof_H 	H 	0.4595	0.3169	0.6433	0.088
Mof_C 	C 	0.4261	0.4257	0.5241	-0.204
Mof_H 	H 	0.4448	0.4644	0.5049	0.097
Mof_O 	O 	0.2051	0.4819	0.3436	-0.467
Mof_C 	C 	0.3351	0.3438	0.5258	-0.188
Mof_H 	H 	0.2918	0.3273	0.5083	0.108
Mof_C 	C 	0.3721	0.3114	0.5802	0.002
Mof_O 	O 	0.0201	0.712	0.2329	-0.12
Mof_C 	C 	0.0761	0.6948	0.2373	0.105
Mof_C 	C 	0.1215	0.6324	0.2763	-0.019
Mof_H 	H 	0.1121	0.594	0.3022	0.067
Mof_C 	C 	0.1808	0.626	0.2775	-0.026
Mof_C 	C 	0.1946	0.682	0.2397	0.008
Mof_H 	H 	0.2351	0.6783	0.2405	0.081
Mof_C 	C 	0.1492	0.745	0.2006	0.009
Mof_C 	C 	0.09	0.751	0.1994	-0.056
Mof_H 	H 	0.0589	0.7936	0.1727	0.074
Mof_O 	O 	0.5068	0.094	0.1863	-0.155
Mof_C 	C 	0.5684	0.1199	0.2026	0.131
Mof_C 	C 	0.6116	0.0714	0.2503	-0.105
Mof_H 	H 	0.5979	0.0217	0.2689	0.095
Mof_C 	C 	0.6748	0.096	0.2709	-0.025
Mof_C 	C 	0.6948	0.168	0.2437	-0.01
Mof_H 	H 	0.738	0.1848	0.2578	-0.018
Mof_C 	C 	0.6515	0.217	0.196	-0.054
Mof_C 	C 	0.5883	0.1926	0.1755	-0.064
Mof_H 	H 	0.5588	0.2257	0.1429	0.063
Mof_C 	C 	0.725	0.0488	0.3185	0.368
Mof_C 	C 	0.6705	0.3079	0.1678	0.353
Mof_Zn	Zn	0.75241	0.86531	0.38626	1.232
Mof_Zn	Zn	0.85934	0.01385	0.39631	1.213
Mof_O 	O 	0.8276	0.9339	0.443	-0.601
Mof_O 	O 	0.0493	0.9819	0.5777	-0.428
Mof_O 	O 	0.7867	0.7221	0.5804	-0.462
Mof_O 	O 	0.7205	0.2883	0.163	-0.459
Mof_C 	C 	0.0297	0.9202	0.6039	0.271
Mof_O 	O 	0.0667	0.8787	0.65	-0.265
Mof_C 	C 	0.9623	0.8958	0.5777	0.027
Mof_O 	O 	0.781	0.0641	0.3322	-0.479
Mof_C 	C 	0.8415	0.7495	0.6059	0.316
Mof_C 	C 	0.8624	0.9015	0.4964	0.256
Mof_O 	O 	0.8722	0.7224	0.6576	-0.261
Mof_O 	O 	0.637	0.3858	0.1487	-0.435
Mof_C 	C 	0.9347	0.838	0.6059	-0.064
Mof_H 	H 	0.9595	0.8169	0.6433	0.087
Mof_C 	C 	0.9261	0.9257	0.5241	-0.204
Mof_H 	H 	0.9448	0.9644	0.5049	0.097
Mof_O 	O 	0.7051	0.9819	0.3436	-0.466
Mof_C 	C 	0.8351	0.8438	0.5258	-0.188
Mof_H 	H 	0.7918	0.8273	0.5083	0.108
Mof_C 	C 	0.8721	0.8114	0.5802	0.001
Mof_O 	O 	0.5201	0.212	0.2329	-0.12
Mof_C 	C 	0.5761	0.1948	0.2373	0.105
Mof_C 	C 	0.6215	0.1324	0.2763	-0.019
Mof_H 	H 	0.6121	0.094	0.3022	0.067
Mof_C 	C 	0.6808	0.126	0.2775	-0.026
Mof_C 	C 	0.6946	0.182	0.2397	0.008
Mof_H 	H 	0.7351	0.1783	0.2405	0.081
Mof_C 	C 	0.6492	0.245	0.2006	0.009
Mof_C 	C 	0.59	0.251	0.1994	-0.056
Mof_H 	H 	0.5589	0.2936	0.1727	0.074
Mof_O 	O 	0.9932	0.594	0.3137	-0.155
Mof_C 	C 	0.9316	0.6199	0.2974	0.129
Mof_C 	C 	0.8884	0.5714	0.2497	-0.103
Mof_H 	H 	0.9021	0.5217	0.2311	0.095
Mof_C 	C 	0.8252	0.596	0.2291	-0.024
Mof_C 	C 	0.8052	0.668	0.2563	-0.01
Mof_H 	H 	0.762	0.6848	0.2422	-0.016
Mof_C 	C 	0.8485	0.717	0.304	-0.053
Mof_C 	C 	0.9117	0.6926	0.3245	-0.062
Mof_H 	H 	0.9412	0.7257	0.3571	0.062
Mof_C 	C 	0.775	0.5488	0.1815	0.368
Mof_C 	C 	0.8295	0.8079	0.3322	0.353
Mof_Zn	Zn	0.74759	0.36531	0.11374	1.232
Mof_Zn	Zn	0.64066	0.51385	0.10369	1.214
Mof_O 	O 	0.6724	0.4339	0.057	-0.601
Mof_O 	O 	0.4507	0.4819	0.9223	-0.427
Mof_O 	O 	0.7133	0.2221	0.9196	-0.462
Mof_O 	O 	0.7795	0.7883	0.337	-0.459
Mof_C 	C 	0.4703	0.4202	0.8961	0.271
Mof_O 	O 	0.4333	0.3787	0.85	-0.265
Mof_C 	C 	0.5377	0.3958	0.9223	0.027
Mof_O 	O 	0.719	0.5641	0.1678	-0.479
Mof_C 	C 	0.6585	0.2495	0.8941	0.316
Mof_C 	C 	0.6376	0.4015	0.0036	0.255
Mof_O 	O 	0.6278	0.2224	0.8424	-0.261
Mof_O 	O 	0.863	0.8858	0.3513	-0.435
Mof_C 	C 	0.5653	0.338	0.8941	-0.063
Mof_H 	H 	0.5405	0.3169	0.8567	0.088
Mof_C 	C 	0.5739	0.4257	0.9759	-0.203
Mof_H 	H 	0.5552	0.4644	0.9951	0.096
Mof_O 	O 	0.7949	0.4819	0.1564	-0.467
Mof_C 	C 	0.6649	0.3438	0.9742	-0.188
Mof_H 	H 	0.7082	0.3273	0.9917	0.108
Mof_C 	C 	0.6279	0.3114	0.9198	0.001
Mof_O 	O 	0.9799	0.712	0.2671	-0.12
Mof_C 	C 	0.9239	0.6948	0.2627	0.106
Mof_C 	C 	0.8785	0.6324	0.2237	-0.02
Mof_H 	H 	0.8879	0.594	0.1978	0.067
Mof_C 	C 	0.8192	0.626	0.2225	-0.026
Mof_C 	C 	0.8054	0.682	0.2603	0.008
Mof_H 	H 	0.7649	0.6783	0.2595	0.08
Mof_C 	C 	0.8508	0.745	0.2994	0.009
Mof_C 	C 	0.91	0.751	0.3006	-0.058
Mof_H 	H 	0.9411	0.7936	0.3273	0.074
Mof_O 	O 	0.4932	0.094	0.3137	-0.155
Mof_C 	C 	0.4316	0.1199	0.2974	0.132
Mof_C 	C 	0.3884	0.0714	0.2497	-0.106
Mof_H 	H 	0.4021	0.0217	0.2311	0.096
Mof_C 	C 	0.3252	0.096	0.2291	-0.025
Mof_C 	C 	0.3052	0.168	0.2563	-0.01
Mof_H 	H 	0.262	0.1848	0.2422	-0.018
Mof_C 	C 	0.3485	0.217	0.304	-0.054
Mof_C 	C 	0.4117	0.1926	0.3245	-0.065
Mof_H 	H 	0.4412	0.2257	0.3571	0.063
Mof_C 	C 	0.275	0.0488	0.1815	0.367
Mof_C 	C 	0.3295	0.3079	0.3322	0.353
Mof_Zn	Zn	0.24759	0.86531	0.11374	1.232
Mof_Zn	Zn	0.14066	0.01385	0.10369	1.213
Mof_O 	O 	0.1724	0.9339	0.057	-0.601
Mof_O 	O 	0.9507	0.9819	0.9223	-0.428
Mof_O 	O 	0.2133	0.7221	0.9196	-0.462
Mof_O 	O 	0.2795	0.2883	0.337	-0.459
Mof_C 	C 	0.9703	0.9202	0.8961	0.27
Mof_O 	O 	0.9333	0.8787	0.85	-0.265
Mof_C 	C 	0.0377	0.8958	0.9223	0.029
Mof_O 	O 	0.219	0.0641	0.1678	-0.479
Mof_C 	C 	0.1585	0.7495	0.8941	0.316
Mof_C 	C 	0.1376	0.9015	0.0036	0.259
Mof_O 	O 	0.1278	0.7224	0.8424	-0.261
Mof_O 	O 	0.363	0.3858	0.3513	-0.435
Mof_C 	C 	0.0653	0.838	0.8941	-0.065
Mof_H 	H 	0.0405	0.8169	0.8567	0.088
Mof_C 	C 	0.0739	0.9257	0.9759	-0.207
Mof_H 	H 	0.0552	0.9644	0.9951	0.097
Mof_O 	O 	0.2949	0.9819	0.1564	-0.465
Mof_C 	C 	0.1649	0.8438	0.9742	-0.191
Mof_H 	H 	0.2082	0.8273	0.9917	0.108
Mof_C 	C 	0.1279	0.8114	0.9198	0.003
Mof_O 	O 	0.4799	0.212	0.2671	-0.12
Mof_C 	C 	0.4239	0.1948	0.2627	0.103
Mof_C 	C 	0.3785	0.1324	0.2237	-0.018
Mof_H 	H 	0.3879	0.094	0.1978	0.066
Mof_C 	C 	0.3192	0.126	0.2225	-0.025
Mof_C 	C 	0.3054	0.182	0.2603	0.008
Mof_H 	H 	0.2649	0.1783	0.2595	0.081
Mof_C 	C 	0.3508	0.245	0.2994	0.01
Mof_C 	C 	0.41	0.251	0.3006	-0.055
Mof_H 	H 	0.4411	0.2936	0.3273	0.073
Mof_O 	O 	0.9932	0.406	0.8137	-0.155
Mof_C 	C 	0.9316	0.3801	0.7974	0.13
Mof_C 	C 	0.8884	0.4286	0.7497	-0.105
Mof_H 	H 	0.9021	0.4783	0.7311	0.095
Mof_C 	C 	0.8252	0.404	0.7291	-0.025
Mof_C 	C 	0.8052	0.332	0.7563	-0.01
Mof_H 	H 	0.762	0.3152	0.7422	-0.018
Mof_C 	C 	0.8485	0.283	0.804	-0.054
Mof_C 	C 	0.9117	0.3074	0.8245	-0.064
Mof_H 	H 	0.9412	0.2743	0.8571	0.063
Mof_C 	C 	0.775	0.4512	0.6815	0.369
Mof_C 	C 	0.8295	0.1921	0.8322	0.353
Mof_Zn	Zn	0.74759	0.63469	0.61374	1.232
Mof_Zn	Zn	0.64066	0.48615	0.60369	1.214
Mof_O 	O 	0.6724	0.5661	0.557	-0.601
Mof_O 	O 	0.4507	0.5181	0.4223	-0.427
Mof_O 	O 	0.7133	0.7779	0.4196	-0.462
Mof_O 	O 	0.7795	0.2117	0.837	-0.459
Mof_C 	C 	0.4703	0.5798	0.3961	0.271
Mof_O 	O 	0.4333	0.6213	0.35	-0.265
Mof_C 	C 	0.5377	0.6042	0.4223	0.027
Mof_O 	O 	0.719	0.4359	0.6678	-0.479
Mof_C 	C 	0.6585	0.7505	0.3941	0.316
Mof_C 	C 	0.6376	0.5985	0.5036	0.256
Mof_O 	O 	0.6278	0.7776	0.3424	-0.261
Mof_O 	O 	0.863	0.1142	0.8513	-0.434
Mof_C 	C 	0.5653	0.662	0.3941	-0.064
Mof_H 	H 	0.5405	0.6831	0.3567	0.088
Mof_C 	C 	0.5739	0.5743	0.4759	-0.204
Mof_H 	H 	0.5552	0.5356	0.4951	0.097
Mof_O 	O 	0.7949	0.5181	0.6564	-0.467
Mof_C 	C 	0.6649	0.6562	0.4742	-0.188
Mof_H 	H 	0.7082	0.6727	0.4917	0.108
Mof_C 	C 	0.6279	0.6886	0.4198	0.002
Mof_O 	O 	0.9799	0.288	0.7671	-0.12
Mof_C 	C 	0.9239	0.3052	0.7627	0.105
Mof_C 	C 	0.8785	0.3676	0.7237	-0.019
Mof_H 	H 	0.8879	0.406	0.6978	0.067
Mof_C 	C 	0.8192	0.374	0.7225	-0.026
Mof_C 	C 	0.8054	0.318	0.7603	0.008
Mof_H 	H 	0.7649	0.3217	0.7595	0.081
Mof_C 	C 	0.8508	0.255	0.7994	0.009
Mof_C 	C 	0.91	0.249	0.8006	-0.056
Mof_H 	H 	0.9411	0.2064	0.8273	0.074
Mof_O 	O 	0.4932	0.906	0.8137	-0.155
Mof_C 	C 	0.4316	0.8801	0.7974	0.131
Mof_C 	C 	0.3884	0.9286	0.7497	-0.105
Mof_H 	H 	0.4021	0.9783	0.7311	0.095
Mof_C 	C 	0.3252	0.904	0.7291	-0.025
Mof_C 	C 	0.3052	0.832	0.7563	-0.01
Mof_H 	H 	0.262	0.8152	0.7422	-0.018
Mof_C 	C 	0.3485	0.783	0.804	-0.054
Mof_C 	C 	0.4117	0.8074	0.8245	-0.064
Mof_H 	H 	0.4412	0.7743	0.8571	0.063
Mof_C 	C 	0.275	0.9512	0.6815	0.368
Mof_C 	C 	0.3295	0.6921	0.8322	0.353
Mof_Zn	Zn	0.24759	0.13469	0.61374	1.232
Mof_Zn	Zn	0.14066	0.98615	0.60369	1.213
Mof_O 	O 	0.1724	0.0661	0.557	-0.601
Mof_O 	O 	0.9507	0.0181	0.4223	-0.428
Mof_O 	O 	0.2133	0.2779	0.4196	-0.462
Mof_O 	O 	0.2795	0.7117	0.837	-0.459
Mof_C 	C 	0.9703	0.0798	0.3961	0.271
Mof_O 	O 	0.9333	0.1213	0.35	-0.265
Mof_C 	C 	0.0377	0.1042	0.4223	0.027
Mof_O 	O 	0.219	0.9359	0.6678	-0.479
Mof_C 	C 	0.1585	0.2505	0.3941	0.316
Mof_C 	C 	0.1376	0.0985	0.5036	0.256
Mof_O 	O 	0.1278	0.2776	0.3424	-0.261
Mof_O 	O 	0.363	0.6142	0.8513	-0.435
Mof_C 	C 	0.0653	0.162	0.3941	-0.064
Mof_H 	H 	0.0405	0.1831	0.3567	0.087
Mof_C 	C 	0.0739	0.0743	0.4759	-0.204
Mof_H 	H 	0.0552	0.0356	0.4951	0.097
Mof_O 	O 	0.2949	0.0181	0.6564	-0.466
Mof_C 	C 	0.1649	0.1562	0.4742	-0.188
Mof_H 	H 	0.2082	0.1727	0.4917	0.108
Mof_C 	C 	0.1279	0.1886	0.4198	0.001
Mof_O 	O 	0.4799	0.788	0.7671	-0.12
Mof_C 	C 	0.4239	0.8052	0.7627	0.105
Mof_C 	C 	0.3785	0.8676	0.7237	-0.019
Mof_H 	H 	0.3879	0.906	0.6978	0.067
Mof_C 	C 	0.3192	0.874	0.7225	-0.026
Mof_C 	C 	0.3054	0.818	0.7603	0.008
Mof_H 	H 	0.2649	0.8217	0.7595	0.081
Mof_C 	C 	0.3508	0.755	0.7994	0.009
Mof_C 	C 	0.41	0.749	0.8006	-0.056
Mof_H 	H 	0.4411	0.7064	0.8273	0.074
Mof_O 	O 	0.0068	0.406	0.6863	-0.155
Mof_C 	C 	0.0684	0.3801	0.7026	0.129
Mof_C 	C 	0.1116	0.4286	0.7503	-0.103
Mof_H 	H 	0.0979	0.4783	0.7689	0.095
Mof_C 	C 	0.1748	0.404	0.7709	-0.024
Mof_C 	C 	0.1948	0.332	0.7437	-0.01
Mof_H 	H 	0.238	0.3152	0.7578	-0.016
Mof_C 	C 	0.1515	0.283	0.696	-0.053
Mof_C 	C 	0.0883	0.3074	0.6755	-0.062
Mof_H 	H 	0.0588	0.2743	0.6429	0.062
Mof_C 	C 	0.225	0.4512	0.8185	0.368
Mof_C 	C 	0.1705	0.1921	0.6678	0.353
Mof_Zn	Zn	0.25241	0.63469	0.88626	1.232
Mof_Zn	Zn	0.35934	0.48615	0.89631	1.214
Mof_O 	O 	0.3276	0.5661	0.943	-0.601
Mof_O 	O 	0.5493	0.5181	0.0777	-0.427
Mof_O 	O 	0.2867	0.7779	0.0804	-0.462
Mof_O 	O 	0.2205	0.2117	0.663	-0.459
Mof_C 	C 	0.5297	0.5798	0.1039	0.271
Mof_O 	O 	0.5667	0.6213	0.15	-0.265
Mof_C 	C 	0.4623	0.6042	0.0777	0.027
Mof_O 	O 	0.281	0.4359	0.8322	-0.479
Mof_C 	C 	0.3415	0.7505	0.1059	0.316
Mof_C 	C 	0.3624	0.5985	0.9964	0.255
Mof_O 	O 	0.3722	0.7776	0.1576	-0.261
Mof_O 	O 	0.137	0.1142	0.6487	-0.435
Mof_C 	C 	0.4347	0.662	0.1059	-0.063
Mof_H 	H 	0.4595	0.6831	0.1433	0.088
Mof_C 	C 	0.4261	0.5743	0.0241	-0.203
Mof_H 	H 	0.4448	0.5356	0.0049	0.096
Mof_O 	O 	0.2051	0.5181	0.8436	-0.467
Mof_C 	C 	0.3351	0.6562	0.0258	-0.188
Mof_H 	H 	0.2918	0.6727	0.0083	0.108
Mof_C 	C 	0.3721	0.6886	0.0802	0.001
Mof_O 	O 	0.0201	0.288	0.7329	-0.12
Mof_C 	C 	0.0761	0.3052	0.7373	0.106
Mof_C 	C 	0.1215	0.3676	0.7763	-0.02
Mof_H 	H 	0.1121	0.406	0.8022	0.067
Mof_C 	C 	0.1808	0.374	0.7775	-0.026
Mof_C 	C 	0.1946	0.318	0.7397	0.008
Mof_H 	H 	0.2351	0.3217	0.7405	0.08
Mof_C 	C 	0.1492	0.255	0.7006	0.009
Mof_C 	C 	0.09	0.249	0.6994	-0.058
Mof_H 	H 	0.0589	0.2064	0.6727	0.074
Mof_O 	O 	0.5068	0.906	0.6863	-0.155
Mof_C 	C 	0.5684	0.8801	0.7026	0.132
Mof_C 	C 	0.6116	0.9286	0.7503	-0.106
Mof_H 	H 	0.5979	0.9783	0.7689	0.096
Mof_C 	C 	0.6748	0.904	0.7709	-0.025
Mof_C 	C 	0.6948	0.832	0.7437	-0.01
Mof_H 	H 	0.738	0.8152	0.7578	-0.018
Mof_C 	C 	0.6515	0.783	0.696	-0.054
Mof_C 	C 	0.5883	0.8074	0.6755	-0.065
Mof_H 	H 	0.5588	0.7743	0.6429	0.063
Mof_C 	C 	0.725	0.9512	0.8185	0.367
Mof_C 	C 	0.6705	0.6921	0.6678	0.353
Mof_Zn	Zn	0.75241	0.13469	0.88626	1.232
Mof_Zn	Zn	0.85934	0.98615	0.89631	1.213
Mof_O 	O 	0.8276	0.0661	0.943	-0.601
Mof_O 	O 	0.0493	0.0181	0.0777	-0.428
Mof_O 	O 	0.7867	0.2779	0.0804	-0.462
Mof_O 	O 	0.7205	0.7117	0.663	-0.459
Mof_C 	C 	0.0297	0.0798	0.1039	0.27
Mof_O 	O 	0.0667	0.1213	0.15	-0.265
Mof_C 	C 	0.9623	0.1042	0.0777	0.029
Mof_O 	O 	0.781	0.9359	0.8322	-0.479
Mof_C 	C 	0.8415	0.2505	0.1059	0.316
Mof_C 	C 	0.8624	0.0985	0.9964	0.259
Mof_O 	O 	0.8722	0.2776	0.1576	-0.261
Mof_O 	O 	0.637	0.6142	0.6487	-0.435
Mof_C 	C 	0.9347	0.162	0.1059	-0.065
Mof_H 	H 	0.9595	0.1831	0.1433	0.088
Mof_C 	C 	0.9261	0.0743	0.0241	-0.207
Mof_H 	H 	0.9448	0.0356	0.0049	0.097
Mof_O 	O 	0.7051	0.0181	0.8436	-0.465
Mof_C 	C 	0.8351	0.1562	0.0258	-0.191
Mof_H 	H 	0.7918	0.1727	0.0083	0.108
Mof_C 	C 	0.8721	0.1886	0.0802	0.003
Mof_O 	O 	0.5201	0.788	0.7329	-0.12
Mof_C 	C 	0.5761	0.8052	0.7373	0.103
Mof_C 	C 	0.6215	0.8676	0.7763	-0.018
Mof_H 	H 	0.6121	0.906	0.8022	0.066
Mof_C 	C 	0.6808	0.874	0.7775	-0.025
Mof_C 	C 	0.6946	0.818	0.7397	0.008
Mof_H 	H 	0.7351	0.8217	0.7405	0.081
Mof_C 	C 	0.6492	0.755	0.7006	0.01
Mof_C 	C 	0.59	0.749	0.6994	-0.055
Mof_H 	H 	0.5589	0.7064	0.6727	0.073
_end
