data_functionalizedCrystal
_audit_creation_method	'EQeq! by Chris Wilmer'
_symmetry_space_group_name_H-M	'P1'
_symmetry_Int_Tables_number	1
_symmetry_cell_setting	triclinic
loop_
_symmetry_equiv_pos_as_xyz
  x,y,z
_cell_length_a	17.0531
_cell_length_b	17.0531
_cell_length_c	10.7397
_cell_angle_alpha	90
_cell_angle_beta	90
_cell_angle_gamma	90
loop_
_atom_site_label
_atom_site_type_symbol
_atom_site_fract_x
_atom_site_fract_y
_atom_site_fract_z
_atom_site_charge
Mof_W 	W 	0.33813	0.94138	0.1934	1.368
Mof_P 	P 	0.36522	0.83297	0.4462	0.553
Mof_O 	O 	0.4268	0.9311	0.108	-0.448
Mof_O 	O 	0.2503	0.9665	0.3317	-0.393
Mof_O 	O 	0.293	0.8503	0.1649	-0.478
Mof_O 	O 	0.3926	0.8948	0.3486	-0.325
Mof_O 	O 	0.3401	0.7575	0.3831	-0.35
Mof_O 	O 	0.2957	0.8685	0.5211	-0.31
Mof_O 	O 	0.4341	0.8215	0.5342	-0.364
Mof_W 	W 	0.83813	0.44138	0.6934	1.278
Mof_P 	P 	0.86522	0.33297	0.9462	0.621
Mof_O 	O 	0.9268	0.4311	0.608	-0.376
Mof_O 	O 	0.7503	0.4665	0.8317	-0.405
Mof_O 	O 	0.793	0.3503	0.6649	-0.451
Mof_O 	O 	0.8926	0.3948	0.8486	-0.293
Mof_O 	O 	0.8401	0.2575	0.8831	-0.325
Mof_O 	O 	0.7957	0.3685	0.0211	-0.367
Mof_O 	O 	0.9341	0.3215	0.0342	-0.328
Mof_W 	W 	0.16187	0.05862	0.6934	1.171
Mof_P 	P 	0.13478	0.16703	0.9462	0.618
Mof_O 	O 	0.0732	0.0689	0.608	-0.512
Mof_O 	O 	0.2497	0.0335	0.8317	-0.43
Mof_O 	O 	0.207	0.1497	0.6649	-0.461
Mof_O 	O 	0.1074	0.1052	0.8486	-0.364
Mof_O 	O 	0.1599	0.2425	0.8831	-0.362
Mof_O 	O 	0.2043	0.1315	0.0211	-0.387
Mof_O 	O 	0.0659	0.1785	0.0342	-0.479
Mof_W 	W 	0.66187	0.55862	0.1934	1.275
Mof_P 	P 	0.63478	0.66703	0.4462	0.55
Mof_O 	O 	0.5732	0.5689	0.108	-0.468
Mof_O 	O 	0.7497	0.5335	0.3317	-0.399
Mof_O 	O 	0.707	0.6497	0.1649	-0.466
Mof_O 	O 	0.6074	0.6052	0.3486	-0.331
Mof_O 	O 	0.6599	0.7425	0.3831	-0.344
Mof_O 	O 	0.7043	0.6315	0.5211	-0.314
Mof_O 	O 	0.5659	0.6785	0.5342	-0.37
Mof_W 	W 	0.80862	0.58813	0.4434	1.273
Mof_P 	P 	0.91703	0.61522	0.6962	0.548
Mof_O 	O 	0.8189	0.6768	0.358	-0.432
Mof_O 	O 	0.7835	0.5003	0.5817	-0.403
Mof_O 	O 	0.8997	0.543	0.4149	-0.391
Mof_O 	O 	0.8552	0.6426	0.5986	-0.312
Mof_O 	O 	0.9925	0.5901	0.6331	-0.242
Mof_O 	O 	0.8815	0.5457	0.7711	-0.287
Mof_O 	O 	0.9285	0.6841	0.7842	-0.291
Mof_W 	W 	0.30862	0.08813	0.9434	1.351
Mof_P 	P 	0.41703	0.11522	0.1962	0.554
Mof_O 	O 	0.3189	0.1768	0.858	-0.453
Mof_O 	O 	0.2835	0.0003	0.0817	-0.495
Mof_O 	O 	0.3997	0.043	0.9149	-0.47
Mof_O 	O 	0.3552	0.1426	0.0986	-0.364
Mof_O 	O 	0.4925	0.0901	0.1331	-0.379
Mof_O 	O 	0.3815	0.0457	0.2711	-0.367
Mof_O 	O 	0.4285	0.1841	0.2842	-0.382
Mof_W 	W 	0.69138	0.41187	0.9434	1.361
Mof_P 	P 	0.58297	0.38478	0.1962	0.552
Mof_O 	O 	0.6811	0.3232	0.858	-0.454
Mof_O 	O 	0.7165	0.4997	0.0817	-0.428
Mof_O 	O 	0.6003	0.457	0.9149	-0.445
Mof_O 	O 	0.6448	0.3574	0.0986	-0.36
Mof_O 	O 	0.5075	0.4099	0.1331	-0.364
Mof_O 	O 	0.6185	0.4543	0.2711	-0.318
Mof_O 	O 	0.5715	0.3159	0.2842	-0.376
Mof_W 	W 	0.19138	0.91187	0.4434	1.272
Mof_P 	P 	0.08297	0.88478	0.6962	0.546
Mof_O 	O 	0.1811	0.8232	0.358	-0.471
Mof_O 	O 	0.2165	0.9997	0.5817	-0.344
Mof_O 	O 	0.1003	0.957	0.4149	-0.472
Mof_O 	O 	0.1448	0.8574	0.5986	-0.336
Mof_O 	O 	0.0075	0.9099	0.6331	-0.394
Mof_O 	O 	0.1185	0.9543	0.7711	-0.273
Mof_O 	O 	0.0715	0.8159	0.7842	-0.402
Mof_W 	W 	0.66187	0.05862	0.8066	1.17
Mof_P 	P 	0.63478	0.16703	0.5538	0.549
Mof_O 	O 	0.5732	0.0689	0.892	-0.441
Mof_O 	O 	0.7497	0.0335	0.6683	-0.417
Mof_O 	O 	0.707	0.1497	0.8351	-0.437
Mof_O 	O 	0.6074	0.1052	0.6514	-0.334
Mof_O 	O 	0.6599	0.2425	0.6169	-0.346
Mof_O 	O 	0.7043	0.1315	0.4789	-0.324
Mof_O 	O 	0.5659	0.1785	0.4658	-0.379
Mof_W 	W 	0.16187	0.55862	0.3066	1.266
Mof_P 	P 	0.13478	0.66703	0.0538	0.471
Mof_O 	O 	0.0732	0.5689	0.392	-0.502
Mof_O 	O 	0.2497	0.5335	0.1683	-0.406
Mof_O 	O 	0.207	0.6497	0.3351	-0.465
Mof_O 	O 	0.1074	0.6052	0.1514	-0.364
Mof_O 	O 	0.1599	0.7425	0.1169	-0.368
Mof_O 	O 	0.2043	0.6315	0.9789	-0.263
Mof_O 	O 	0.0659	0.6785	0.9658	-0.38
Mof_W 	W 	0.83813	0.94138	0.3066	1.36
Mof_P 	P 	0.86522	0.83297	0.0538	0.468
Mof_O 	O 	0.9268	0.9311	0.392	-0.36
Mof_O 	O 	0.7503	0.9665	0.1683	-0.383
Mof_O 	O 	0.793	0.8503	0.3351	-0.453
Mof_O 	O 	0.8926	0.8948	0.1514	-0.295
Mof_O 	O 	0.8401	0.7575	0.1169	-0.331
Mof_O 	O 	0.7957	0.8685	0.9789	-0.237
Mof_O 	O 	0.9341	0.8215	0.9658	-0.229
Mof_W 	W 	0.33813	0.44138	0.8066	1.271
Mof_P 	P 	0.36522	0.33297	0.5538	0.55
Mof_O 	O 	0.4268	0.4311	0.892	-0.429
Mof_O 	O 	0.2503	0.4665	0.6683	-0.412
Mof_O 	O 	0.293	0.3503	0.8351	-0.451
Mof_O 	O 	0.3926	0.3948	0.6514	-0.329
Mof_O 	O 	0.3401	0.2575	0.6169	-0.353
Mof_O 	O 	0.2957	0.3685	0.4789	-0.321
Mof_O 	O 	0.4341	0.3215	0.4658	-0.374
Mof_W 	W 	0.19138	0.41187	0.5566	1.271
Mof_P 	P 	0.08297	0.38478	0.3038	0.548
Mof_O 	O 	0.1811	0.3232	0.642	-0.47
Mof_O 	O 	0.2165	0.4997	0.4183	-0.406
Mof_O 	O 	0.1003	0.457	0.5851	-0.5
Mof_O 	O 	0.1448	0.3574	0.4014	-0.344
Mof_O 	O 	0.0075	0.4099	0.3669	-0.428
Mof_O 	O 	0.1185	0.4543	0.2289	-0.344
Mof_O 	O 	0.0715	0.3159	0.2158	-0.423
Mof_W 	W 	0.69138	0.91187	0.0566	1.178
Mof_P 	P 	0.58297	0.88478	0.8038	0.546
Mof_O 	O 	0.6811	0.8232	0.142	-0.449
Mof_O 	O 	0.7165	0.9997	0.9183	-0.306
Mof_O 	O 	0.6003	0.957	0.0851	-0.433
Mof_O 	O 	0.6448	0.8574	0.9014	-0.289
Mof_O 	O 	0.5075	0.9099	0.8669	-0.297
Mof_O 	O 	0.6185	0.9543	0.7289	-0.264
Mof_O 	O 	0.5715	0.8159	0.7158	-0.361
Mof_W 	W 	0.30862	0.58813	0.0566	1.181
Mof_P 	P 	0.41703	0.61522	0.8038	0.548
Mof_O 	O 	0.3189	0.6768	0.142	-0.45
Mof_O 	O 	0.2835	0.5003	0.9183	-0.382
Mof_O 	O 	0.3997	0.543	0.0851	-0.463
Mof_O 	O 	0.3552	0.6426	0.9014	-0.297
Mof_O 	O 	0.4925	0.5901	0.8669	-0.325
Mof_O 	O 	0.3815	0.5457	0.7289	-0.317
Mof_O 	O 	0.4285	0.6841	0.7158	-0.367
Mof_W 	W 	0.80862	0.08813	0.5566	1.271
Mof_P 	P 	0.91703	0.11522	0.3038	0.55
Mof_O 	O 	0.8189	0.1768	0.642	-0.43
Mof_O 	O 	0.7835	0.0003	0.4183	-0.458
Mof_O 	O 	0.8997	0.043	0.5851	-0.408
Mof_O 	O 	0.8552	0.1426	0.4014	-0.318
Mof_O 	O 	0.9925	0.0901	0.3669	-0.262
Mof_O 	O 	0.8815	0.0457	0.2289	-0.349
Mof_O 	O 	0.9285	0.1841	0.2158	-0.308
Mof_Ni	Ni	0.5	0.75	0.625	1.144
Mof_Ni	Ni	-7.15164e-34	0.25	0.125	1.063
Mof_Ni	Ni	2.06613e-33	0.75	0.875	1.072
Mof_Ni	Ni	0.5	0.25	0.375	1.14
Mof_Ni	Ni	0.25	0.75	0.25	1.146
Mof_Ni	Ni	0.25	0.25	0.75	1.148
Mof_Ni	Ni	1.18065e-33	0.5	0.5	1.072
Mof_Ni	Ni	0.5	0	-0	1.097
Mof_Ni	Ni	0.5	0.5	-0	1.125
Mof_Ni	Ni	1.18065e-33	0	0.5	1.04
Mof_Ni	Ni	0.75	0.25	0.75	1.151
Mof_Ni	Ni	0.75	0.75	0.25	1.149
_end
