data_functionalizedCrystal
_audit_creation_method	'EQeq! by Chris Wilmer'
_symmetry_space_group_name_H-M	'P1'
_symmetry_Int_Tables_number	1
_symmetry_cell_setting	triclinic
loop_
_symmetry_equiv_pos_as_xyz
  x,y,z
_cell_length_a	14.751
_cell_length_b	14.751
_cell_length_c	14.751
_cell_angle_alpha	109.471
_cell_angle_beta	109.471
_cell_angle_gamma	109.471
loop_
_atom_site_label
_atom_site_type_symbol
_atom_site_fract_x
_atom_site_fract_y
_atom_site_fract_z
_atom_site_charge
Mof_Zn	Zn	0.25	0.5	0.75	1.177
Mof_Zn	Zn	0.5	0.75	0.25	1.177
Mof_Zn	Zn	0.75	0.25	0.5	1.177
Mof_Zn	Zn	0.5	0.25	0.75	1.177
Mof_Zn	Zn	0.25	0.75	0.5	1.177
Mof_Zn	Zn	0.75	0.5	0.25	1.177
Mof_H 	H 	0.6564	0.2368	0.136	0.008
Mof_H 	H 	0.4196	0.8992	0.7632	0.008
Mof_H 	H 	0.3436	0.4796	0.5804	0.007
Mof_H 	H 	0.6564	0.136	0.2368	0.008
Mof_H 	H 	0.2368	0.6564	0.136	0.008
Mof_H 	H 	0.4196	0.7632	0.8992	0.008
Mof_H 	H 	0.864	0.1008	0.5204	0.006
Mof_H 	H 	0.5804	0.3436	0.4796	0.007
Mof_H 	H 	0.8992	0.4196	0.7632	0.008
Mof_H 	H 	0.136	0.6564	0.2368	0.008
Mof_H 	H 	0.8992	0.7632	0.4196	0.008
Mof_H 	H 	0.2368	0.136	0.6564	0.008
Mof_H 	H 	0.1008	0.5204	0.864	0.006
Mof_H 	H 	0.864	0.5204	0.1008	0.006
Mof_H 	H 	0.5804	0.4796	0.3436	0.007
Mof_H 	H 	0.7632	0.4196	0.8992	0.008
Mof_H 	H 	0.1008	0.864	0.5204	0.006
Mof_H 	H 	0.136	0.2368	0.6564	0.008
Mof_H 	H 	0.5204	0.1008	0.864	0.006
Mof_H 	H 	0.4796	0.3436	0.5804	0.007
Mof_H 	H 	0.3436	0.5804	0.4796	0.007
Mof_H 	H 	0.5204	0.864	0.1008	0.006
Mof_H 	H 	0.7632	0.8992	0.4196	0.008
Mof_H 	H 	0.4796	0.5804	0.3436	0.007
Mof_C 	C 	0.41485	0.9443	0.73235	-0.009
Mof_C 	C 	0.9443	0.41485	0.73235	-0.009
Mof_C 	C 	0.3175	0.52945	0.58515	-0.006
Mof_C 	C 	0.38354	0.75408	0.38354	0.116
Mof_C 	C 	0.37054	0.61646	-0	0.118
Mof_C 	C 	0.41485	0.73235	0.9443	-0.009
Mof_C 	C 	0.6804	0.6804	0.1894	-0.138
Mof_C 	C 	0.58515	0.52945	0.3175	-0.006
Mof_C 	C 	0.0557	0.47055	0.78805	-0.004
Mof_C 	C 	0.62946	0.62946	0.24592	0.116
Mof_C 	C 	5.75141e-17	0.509	0.3196	-0.137
Mof_C 	C 	0.3196	-4.60113e-17	0.509	-0.137
Mof_C 	C 	0.509	-4.60113e-17	0.3196	-0.137
Mof_C 	C 	0.62946	0.24592	0.62946	0.116
Mof_C 	C 	0.491	0.491	0.8106	-0.138
Mof_C 	C 	0.1894	0.6804	0.6804	-0.138
Mof_C 	C 	0.73235	0.9443	0.41485	-0.009
Mof_C 	C 	0.6825	0.26765	0.21195	-0.006
Mof_C 	C 	0.9443	0.73235	0.41485	-0.009
Mof_C 	C 	0.58515	0.3175	0.52945	-0.006
Mof_C 	C 	0.24592	0.62946	0.62946	0.116
Mof_C 	C 	0.3175	0.58515	0.52945	-0.006
Mof_C 	C 	0.78805	0.0557	0.47055	-0.004
Mof_C 	C 	0.26765	0.21195	0.6825	-0.006
Mof_C 	C 	0.47055	0.0557	0.78805	-0.004
Mof_C 	C 	0.52945	0.58515	0.3175	-0.006
Mof_C 	C 	0.6825	0.21195	0.26765	-0.006
Mof_C 	C 	0.75408	0.38354	0.38354	0.116
Mof_C 	C 	6.90169e-17	0.61646	0.37054	0.118
Mof_C 	C 	0.0557	0.78805	0.47055	-0.004
Mof_C 	C 	0.491	0.8106	0.491	-0.138
Mof_C 	C 	5.75141e-17	0.3196	0.509	-0.137
Mof_C 	C 	0.21195	0.26765	0.6825	-0.006
Mof_C 	C 	0.61646	0.37054	-0	0.118
Mof_C 	C 	0.509	0.3196	-0	-0.137
Mof_C 	C 	0.37054	-4.60113e-17	0.61646	0.118
Mof_C 	C 	0.21195	0.6825	0.26765	-0.006
Mof_C 	C 	0.3196	0.509	-0	-0.137
Mof_C 	C 	0.26765	0.6825	0.21195	-0.006
Mof_C 	C 	0.47055	0.78805	0.0557	-0.004
Mof_C 	C 	8.05197e-17	0.37054	0.61646	0.118
Mof_C 	C 	0.73235	0.41485	0.9443	-0.009
Mof_C 	C 	0.61646	-2.30056e-17	0.37054	0.118
Mof_C 	C 	0.38354	0.38354	0.75408	0.116
Mof_C 	C 	0.52945	0.3175	0.58515	-0.006
Mof_C 	C 	0.8106	0.491	0.491	-0.138
Mof_C 	C 	0.6804	0.1894	0.6804	-0.138
Mof_C 	C 	0.78805	0.47055	0.0557	-0.004
Mof_N 	N 	0.27245	0.65059	0.55822	-0.285
Mof_N 	N 	0.34941	0.62186	0.90763	-0.285
Mof_N 	N 	0.44178	0.09237	0.71423	-0.285
Mof_N 	N 	0.44178	0.71423	0.09237	-0.285
Mof_N 	N 	0.65059	0.27245	0.55822	-0.285
Mof_N 	N 	0.55822	0.65059	0.27245	-0.285
Mof_N 	N 	0.55822	0.27245	0.65059	-0.285
Mof_N 	N 	0.37814	0.28577	0.72755	-0.285
Mof_N 	N 	0.09237	0.71423	0.44178	-0.285
Mof_N 	N 	0.90763	0.34941	0.62186	-0.285
Mof_N 	N 	0.62186	0.34941	0.90763	-0.285
Mof_N 	N 	0.62186	0.90763	0.34941	-0.285
Mof_N 	N 	0.72755	0.28577	0.37814	-0.285
Mof_N 	N 	0.37814	0.72755	0.28577	-0.285
Mof_N 	N 	0.28577	0.37814	0.72755	-0.285
Mof_N 	N 	0.34941	0.90763	0.62186	-0.285
Mof_N 	N 	0.09237	0.44178	0.71423	-0.285
Mof_N 	N 	0.65059	0.55822	0.27245	-0.285
Mof_N 	N 	0.72755	0.37814	0.28577	-0.285
Mof_N 	N 	0.71423	0.44178	0.09237	-0.285
Mof_N 	N 	0.27245	0.55822	0.65059	-0.285
Mof_N 	N 	0.90763	0.62186	0.34941	-0.285
Mof_N 	N 	0.28577	0.72755	0.37814	-0.285
Mof_N 	N 	0.71423	0.09237	0.44178	-0.285
_end
