data_functionalizedCrystal
_audit_creation_method	'EQeq! by Chris Wilmer'
_symmetry_space_group_name_H-M	'P1'
_symmetry_Int_Tables_number	1
_symmetry_cell_setting	triclinic
loop_
_symmetry_equiv_pos_as_xyz
  x,y,z
_cell_length_a	34.4391
_cell_length_b	15.0959
_cell_length_c	29.9556
_cell_angle_alpha	90
_cell_angle_beta	101.454
_cell_angle_gamma	90
loop_
_atom_site_label
_atom_site_type_symbol
_atom_site_fract_x
_atom_site_fract_y
_atom_site_fract_z
_atom_site_charge
Mof_Zn	Zn	0.57772	0.2662	0.84554	1.166
Mof_Zn	Zn	0.36566	0.9727	0.70934	1.156
Mof_Zn	Zn	0.08164	0.00737	0.34312	1.159
Mof_Zn	Zn	0.8684	0.2929	0.20486	1.155
Mof_Zn	Zn	0.17805	0.5281	0.0268	1.056
Mof_Zn	Zn	0.1697	0.2452	0.5182	0.614
Mof_I 	I 	0.61283	0.1512	0.8033	-0.207
Mof_I 	I 	0.5242	0.2377	0.8899	-0.166
Mof_I 	I 	0.3411	0.9137	0.787	-0.798
Mof_I 	I 	0.3681	0.1275	0.6943	-0.599
Mof_I 	I 	0.2294	0.1514	0.5475	0.223
Mof_I 	I 	0.1268	0.2348	0.43943	-0.518
Mof_I 	I 	0.02972	0.0383	0.3906	-0.137
Mof_I 	I 	0.1198	0.1176	0.3026	-0.235
Mof_I 	I 	0.8388	0.339	0.285	-0.427
Mof_I 	I 	0.8874	0.1517	0.1668	-0.157
Mof_I 	I 	0.1475	0.5705	0.9545	1.384
Mof_I 	I 	0.25	0.6039	0.0703	-2.449
Mof_N 	N 	0.5611	0.3647	0.7983	-0.269
Mof_C 	C 	0.5294	0.4198	0.8003	0.047
Mof_H 	H 	0.5118	0.4065	0.8202	-0.001
Mof_C 	C 	0.5233	0.4958	0.7726	-0.107
Mof_H 	H 	0.5017	0.5343	0.774	0.067
Mof_C 	C 	0.5485	0.5148	0.7434	0.055
Mof_C 	C 	0.5784	0.4596	0.7417	-0.124
Mof_H 	H 	0.5953	0.4704	0.7207	0.084
Mof_C 	C 	0.5849	0.3891	0.7692	0.075
Mof_H 	H 	0.6076	0.3539	0.7684	-0.009
Mof_N 	N 	0.4172	0.8999	0.7074	-0.267
Mof_C 	C 	0.4346	0.898	0.6669	0.075
Mof_H 	H 	0.4244	0.9337	0.6413	-0.015
Mof_C 	C 	0.4624	0.8492	0.6668	-0.135
Mof_H 	H 	0.4738	0.8526	0.6405	0.086
Mof_C 	C 	0.4796	0.7905	0.6989	0.059
Mof_C 	C 	0.4315	0.8431	0.7407	0.071
Mof_H 	H 	0.4195	0.8391	0.7667	-0.001
Mof_C 	C 	0.463	0.7908	0.7379	-0.119
Mof_H 	H 	0.474	0.7538	0.7629	0.08
Mof_N 	N 	0.6355	0.7279	0.5662	-0.288
Mof_C 	C 	0.641	0.659	0.5941	0.05
Mof_H 	H 	0.6587	0.6144	0.5882	-0.019
Mof_C 	C 	0.6212	0.646	0.6353	-0.091
Mof_H 	H 	0.6302	0.6078	0.6606	0.071
Mof_C 	C 	0.5858	0.7019	0.6281	0.047
Mof_C 	C 	0.5775	0.7621	0.5946	-0.118
Mof_H 	H 	0.5531	0.7935	0.5902	0.081
Mof_C 	C 	0.6035	0.7787	0.5667	0.078
Mof_H 	H 	0.5988	0.8283	0.5468	-0.015
Mof_C 	C 	0.5438	0.5981	0.715	0.082
Mof_N 	N 	0.5151	0.6571	0.7235	-0.147
Mof_C 	C 	0.5118	0.7265	0.6958	0.08
Mof_N 	N 	0.5328	0.7438	0.663	-0.14
Mof_C 	C 	0.5589	0.6829	0.6593	0.1
Mof_N 	N 	0.5663	0.6099	0.6857	-0.141
Mof_N 	N 	0.3264	0.912	0.658	-0.27
Mof_C 	C 	0.3199	0.823	0.6628	0.048
Mof_H 	H 	0.3331	0.7922	0.6892	0.014
Mof_C 	C 	0.2938	0.7781	0.6284	-0.095
Mof_H 	H 	0.2921	0.7153	0.6293	0.077
Mof_C 	C 	0.2703	0.8244	0.5928	0.041
Mof_C 	C 	0.2765	0.9139	0.5917	-0.124
Mof_H 	H 	0.2619	0.9481	0.5674	0.089
Mof_C 	C 	0.3028	0.9539	0.6242	0.08
Mof_H 	H 	0.3049	0.0166	0.623	0.002
Mof_N 	N 	0.1856	0.3799	0.5267	-0.277
Mof_C 	C 	0.1655	0.4335	0.498	0.087
Mof_H 	H 	0.1446	0.4093	0.4759	-0.02
Mof_C 	C 	0.1719	0.5226	0.4966	-0.126
Mof_H 	H 	0.157	0.5572	0.4727	0.083
Mof_C 	C 	0.1995	0.5621	0.5296	0.05
Mof_C 	C 	0.2222	0.5064	0.5629	-0.097
Mof_H 	H 	0.2437	0.5295	0.5845	0.072
Mof_C 	C 	0.2117	0.4125	0.5634	0.04
Mof_H 	H 	0.2227	0.3755	0.5884	0.003
Mof_N 	N 	0.1235	0.9371	0.3886	-0.288
Mof_C 	C 	0.1228	0.8491	0.3875	0.063
Mof_H 	H 	0.1048	0.8207	0.3636	-0.006
Mof_C 	C 	0.1478	0.7952	0.4208	-0.105
Mof_H 	H 	0.1495	0.7329	0.4169	0.084
Mof_C 	C 	0.1704	0.8387	0.46	0.051
Mof_C 	C 	0.1752	0.9295	0.4543	-0.141
Mof_H 	H 	0.1949	0.9623	0.4744	0.074
Mof_C 	C 	0.1497	0.9707	0.4175	0.115
Mof_H 	H 	0.1532	0.0327	0.4147	-0.043
Mof_C 	C 	0.2406	0.7781	0.5586	0.085
Mof_N 	N 	0.2359	0.6924	0.5633	-0.146
Mof_C 	C 	0.2069	0.6587	0.5306	0.099
Mof_N 	N 	0.1844	0.7018	0.4969	-0.135
Mof_C 	C 	0.1935	0.7877	0.4946	0.098
Mof_N 	N 	0.2215	0.8294	0.5244	-0.144
Mof_N 	N 	0.0621	0.9041	0.2972	-0.285
Mof_C 	C 	0.0357	0.8485	0.3007	0.119
Mof_H 	H 	0.0204	0.8607	0.3231	-0.028
Mof_C 	C 	0.0264	0.7731	0.2761	-0.153
Mof_H 	H 	0.0052	0.7356	0.2804	0.081
Mof_C 	C 	0.0497	0.7539	0.2441	0.06
Mof_C 	C 	0.0778	0.8165	0.2372	-0.114
Mof_H 	H 	0.0931	0.8086	0.2143	0.086
Mof_C 	C 	0.0827	0.892	0.2656	0.072
Mof_H 	H 	0.1017	0.9355	0.2615	-0.016
Mof_N 	N 	0.9187	0.3683	0.2055	-0.301
Mof_C 	C 	0.9336	0.3675	0.173	0.14
Mof_H 	H 	0.9232	0.3259	0.1499	-0.031
Mof_C 	C 	0.967	0.425	0.1642	-0.132
Mof_H 	H 	0.978	0.4233	0.1376	0.108
Mof_C 	C 	0.9793	0.4831	0.2021	0.081
Mof_C 	C 	0.964	0.4812	0.2375	-0.152
Mof_H 	H 	0.9737	0.5192	0.2625	0.088
Mof_C 	C 	0.933	0.4227	0.2391	0.101
Mof_H 	H 	0.9218	0.422	0.2656	-0.021
Mof_N 	N 	0.1412	0.542	0.0732	-0.295
Mof_C 	C 	0.1073	0.5045	0.0667	0.102
Mof_H 	H 	0.0995	0.4693	0.0401	-0.009
Mof_C 	C 	0.081	0.5124	0.0964	-0.131
Mof_H 	H 	0.0584	0.4753	0.0937	0.096
Mof_C 	C 	0.0891	0.5757	0.1295	0.075
Mof_C 	C 	0.1248	0.6148	0.1348	-0.128
Mof_H 	H 	0.131	0.6582	0.1582	0.081
Mof_C 	C 	0.1513	0.5987	0.1112	0.051
Mof_H 	H 	0.1769	0.6243	0.119	0.001
Mof_C 	C 	0.0444	0.6701	0.2183	0.095
Mof_N 	N 	0.0172	0.6148	0.2237	-0.153
Mof_C 	C 	0.0123	0.546	0.1956	0.093
Mof_N 	N 	0.0333	0.527	0.1657	-0.133
Mof_C 	C 	0.0638	0.5878	0.1649	0.079
Mof_N 	N 	0.069	0.6616	0.189	-0.135
Mof_N 	N 	0.1905	0.3942	0.0308	-0.307
Mof_C 	C 	0.2179	0.357	0.0561	0.144
Mof_H 	H 	0.2383	0.3934	0.0724	-0.004
Mof_C 	C 	0.2219	0.2701	0.0629	-0.187
Mof_H 	H 	0.2404	0.2493	0.0886	0.097
Mof_C 	C 	0.201	0.2116	0.0352	0.074
Mof_C 	C 	0.1726	0.2503	0.9996	-0.123
Mof_H 	H 	0.1564	0.2153	0.9769	0.1
Mof_C 	C 	0.1699	0.3427	0.9998	0.064
Mof_H 	H 	0.1518	0.37	0.9756	0.009
Mof_N 	N 	0.12	0.8377	0.8892	-0.274
Mof_C 	C 	0.1133	0.9231	0.9015	0.106
Mof_H 	H 	0.0903	0.9518	0.8852	-0.013
Mof_C 	C 	0.1357	0.9678	0.9334	-0.154
Mof_H 	H 	0.1296	0.028	0.9381	0.115
Mof_C 	C 	0.1663	0.9318	0.9593	0.105
Mof_C 	C 	0.1721	0.8433	0.9542	-0.14
Mof_H 	H 	0.1922	0.8136	0.9753	0.03
Mof_C 	C 	0.1495	0.7963	0.9193	0.067
Mof_H 	H 	0.1544	0.735	0.9159	-0.056
Mof_N 	N 	0.328	0.8595	0.1564	-0.27
Mof_C 	C 	0.307	0.8157	0.1207	0.044
Mof_H 	H 	0.3121	0.7544	0.1173	0.053
Mof_C 	C 	0.2776	0.8572	0.088	-0.084
Mof_H 	H 	0.2631	0.8258	0.0625	0.062
Mof_C 	C 	0.2708	0.9461	0.0947	0.027
Mof_C 	C 	0.2924	0.9907	0.1318	-0.124
Mof_H 	H 	0.2873	0.0508	0.1381	0.08
Mof_C 	C 	0.3221	0.9419	0.1594	0.106
Mof_H 	H 	0.3396	0.9732	0.1826	-0.008
Mof_C 	C 	0.2063	0.1152	0.0332	0.072
Mof_N 	N 	0.1818	0.0684	0.0037	-0.121
Mof_C 	C 	0.1907	0.9829	0.9999	0.099
Mof_N 	N 	0.2205	0.9415	0.0263	-0.154
Mof_C 	C 	0.2406	0.991	0.0598	0.06
Mof_N 	N 	0.2353	0.0793	0.065	-0.16
Mof_Zn	Zn	0.1783	0.2412	0.5286	0.607
Mof_I 	I 	0.6153	0.1524	0.8143	-0.108
Mof_I 	I 	0.5185	0.2442	0.8807	-0.14
Mof_I 	I 	0.3469	0.9565	0.7777	0.475
Mof_I 	I 	0.3826	0.1233	0.6657	0.194
Mof_I 	I 	0.2424	0.1575	0.567	-0.6
Mof_I 	I 	0.1395	0.2035	0.4485	0.107
Mof_I 	I 	0.0223	0.0238	0.3837	-0.18
Mof_I 	I 	0.1096	0.1252	0.3041	-0.103
Mof_I 	I 	0.8499	0.3156	0.2783	0.113
Mof_I 	I 	0.8773	0.1403	0.174	-0.142
Mof_I 	I 	0.1275	0.5442	0.9417	-1.828
Mof_I 	I 	0.2319	0.615	0.0477	2.047
Mof_Zn	Zn	0.07772	0.7662	0.84554	1.165
Mof_Zn	Zn	0.86566	0.4727	0.70934	1.155
Mof_Zn	Zn	0.58164	0.50737	0.34312	1.159
Mof_Zn	Zn	0.3684	0.7929	0.20486	1.155
Mof_Zn	Zn	0.67805	0.0281	0.0268	1.056
Mof_Zn	Zn	0.6697	0.7452	0.5182	0.614
Mof_I 	I 	0.11283	0.6512	0.8033	-0.206
Mof_I 	I 	0.0242	0.7377	0.8899	-0.166
Mof_I 	I 	0.8411	0.4137	0.787	-0.798
Mof_I 	I 	0.8681	0.6275	0.6943	-0.599
Mof_I 	I 	0.7294	0.6514	0.5475	0.223
Mof_I 	I 	0.6268	0.7348	0.43943	-0.518
Mof_I 	I 	0.52972	0.5383	0.3906	-0.136
Mof_I 	I 	0.6198	0.6176	0.3026	-0.235
Mof_I 	I 	0.3388	0.839	0.285	-0.427
Mof_I 	I 	0.3874	0.6517	0.1668	-0.156
Mof_I 	I 	0.6475	0.0705	0.9545	1.383
Mof_I 	I 	0.75	0.1039	0.0703	-2.447
Mof_N 	N 	0.0611	0.8647	0.7983	-0.268
Mof_C 	C 	0.0294	0.9198	0.8003	0.044
Mof_H 	H 	0.0118	0.9065	0.8202	0
Mof_C 	C 	0.0233	0.9958	0.7726	-0.1
Mof_H 	H 	0.0017	0.0343	0.774	0.063
Mof_C 	C 	0.0485	0.0148	0.7434	0.048
Mof_C 	C 	0.0784	0.9596	0.7417	-0.118
Mof_H 	H 	0.0953	0.9704	0.7207	0.083
Mof_C 	C 	0.0849	0.8891	0.7692	0.072
Mof_H 	H 	0.1076	0.8539	0.7684	-0.008
Mof_N 	N 	0.9172	0.3999	0.7074	-0.267
Mof_C 	C 	0.9346	0.398	0.6669	0.075
Mof_H 	H 	0.9244	0.4337	0.6413	-0.016
Mof_C 	C 	0.9624	0.3492	0.6668	-0.135
Mof_H 	H 	0.9738	0.3526	0.6405	0.086
Mof_C 	C 	0.9796	0.2905	0.6989	0.059
Mof_C 	C 	0.9315	0.3431	0.7407	0.071
Mof_H 	H 	0.9195	0.3391	0.7667	-0.001
Mof_C 	C 	0.963	0.2908	0.7379	-0.119
Mof_H 	H 	0.974	0.2538	0.7629	0.08
Mof_N 	N 	0.1355	0.2279	0.5662	-0.288
Mof_C 	C 	0.141	0.159	0.5941	0.05
Mof_H 	H 	0.1587	0.1144	0.5882	-0.019
Mof_C 	C 	0.1212	0.146	0.6353	-0.091
Mof_H 	H 	0.1302	0.1078	0.6606	0.071
Mof_C 	C 	0.0858	0.2019	0.6281	0.047
Mof_C 	C 	0.0775	0.2621	0.5946	-0.118
Mof_H 	H 	0.0531	0.2935	0.5902	0.081
Mof_C 	C 	0.1035	0.2787	0.5667	0.078
Mof_H 	H 	0.0988	0.3283	0.5468	-0.015
Mof_C 	C 	0.0438	0.0981	0.715	0.084
Mof_N 	N 	0.0151	0.1571	0.7235	-0.147
Mof_C 	C 	0.0118	0.2265	0.6958	0.08
Mof_N 	N 	0.0328	0.2438	0.663	-0.14
Mof_C 	C 	0.0589	0.1829	0.6593	0.1
Mof_N 	N 	0.0663	0.1099	0.6857	-0.142
Mof_N 	N 	0.8264	0.412	0.658	-0.27
Mof_C 	C 	0.8199	0.323	0.6628	0.047
Mof_H 	H 	0.8331	0.2922	0.6892	0.014
Mof_C 	C 	0.7938	0.2781	0.6284	-0.095
Mof_H 	H 	0.7921	0.2153	0.6293	0.077
Mof_C 	C 	0.7703	0.3244	0.5928	0.04
Mof_C 	C 	0.7765	0.4139	0.5917	-0.123
Mof_H 	H 	0.7619	0.4481	0.5674	0.088
Mof_C 	C 	0.8028	0.4539	0.6242	0.078
Mof_H 	H 	0.8049	0.5166	0.623	0.003
Mof_N 	N 	0.6856	0.8799	0.5267	-0.278
Mof_C 	C 	0.6655	0.9335	0.498	0.088
Mof_H 	H 	0.6446	0.9093	0.4759	-0.02
Mof_C 	C 	0.6719	0.0226	0.4966	-0.128
Mof_H 	H 	0.657	0.0572	0.4727	0.083
Mof_C 	C 	0.6995	0.0621	0.5296	0.051
Mof_C 	C 	0.7222	0.0064	0.5629	-0.099
Mof_H 	H 	0.7437	0.0295	0.5845	0.072
Mof_C 	C 	0.7117	0.9125	0.5634	0.041
Mof_H 	H 	0.7227	0.8755	0.5884	0.003
Mof_N 	N 	0.6235	0.4371	0.3886	-0.288
Mof_C 	C 	0.6228	0.3491	0.3875	0.062
Mof_H 	H 	0.6048	0.3207	0.3636	-0.006
Mof_C 	C 	0.6478	0.2952	0.4208	-0.105
Mof_H 	H 	0.6495	0.2329	0.4169	0.084
Mof_C 	C 	0.6704	0.3387	0.46	0.05
Mof_C 	C 	0.6752	0.4295	0.4543	-0.14
Mof_H 	H 	0.6949	0.4623	0.4744	0.073
Mof_C 	C 	0.6497	0.4707	0.4175	0.112
Mof_H 	H 	0.6532	0.5327	0.4147	-0.041
Mof_C 	C 	0.7406	0.2781	0.5586	0.085
Mof_N 	N 	0.7359	0.1924	0.5633	-0.146
Mof_C 	C 	0.7069	0.1587	0.5306	0.098
Mof_N 	N 	0.6844	0.2018	0.4969	-0.135
Mof_C 	C 	0.6935	0.2877	0.4946	0.098
Mof_N 	N 	0.7215	0.3294	0.5244	-0.145
Mof_N 	N 	0.5621	0.4041	0.2972	-0.285
Mof_C 	C 	0.5357	0.3485	0.3007	0.119
Mof_H 	H 	0.5204	0.3607	0.3231	-0.029
Mof_C 	C 	0.5264	0.2731	0.2761	-0.153
Mof_H 	H 	0.5052	0.2356	0.2804	0.081
Mof_C 	C 	0.5497	0.2539	0.2441	0.06
Mof_C 	C 	0.5778	0.3165	0.2372	-0.114
Mof_H 	H 	0.5931	0.3086	0.2143	0.086
Mof_C 	C 	0.5827	0.392	0.2656	0.072
Mof_H 	H 	0.6017	0.4355	0.2615	-0.017
Mof_N 	N 	0.4187	0.8683	0.2055	-0.301
Mof_C 	C 	0.4336	0.8675	0.173	0.14
Mof_H 	H 	0.4232	0.8259	0.1499	-0.031
Mof_C 	C 	0.467	0.925	0.1642	-0.132
Mof_H 	H 	0.478	0.9233	0.1376	0.108
Mof_C 	C 	0.4793	0.9831	0.2021	0.081
Mof_C 	C 	0.464	0.9812	0.2375	-0.151
Mof_H 	H 	0.4737	0.0192	0.2625	0.088
Mof_C 	C 	0.433	0.9227	0.2391	0.1
Mof_H 	H 	0.4218	0.922	0.2656	-0.021
Mof_N 	N 	0.6412	0.042	0.0732	-0.295
Mof_C 	C 	0.6073	0.0045	0.0667	0.102
Mof_H 	H 	0.5995	0.9693	0.0401	-0.009
Mof_C 	C 	0.581	0.0124	0.0964	-0.132
Mof_H 	H 	0.5584	0.9753	0.0937	0.097
Mof_C 	C 	0.5891	0.0757	0.1295	0.075
Mof_C 	C 	0.6248	0.1148	0.1348	-0.128
Mof_H 	H 	0.631	0.1582	0.1582	0.081
Mof_C 	C 	0.6513	0.0987	0.1112	0.051
Mof_H 	H 	0.6769	0.1243	0.119	0.001
Mof_C 	C 	0.5444	0.1701	0.2183	0.095
Mof_N 	N 	0.5172	0.1148	0.2237	-0.153
Mof_C 	C 	0.5123	0.046	0.1956	0.092
Mof_N 	N 	0.5333	0.027	0.1657	-0.133
Mof_C 	C 	0.5638	0.0878	0.1649	0.079
Mof_N 	N 	0.569	0.1616	0.189	-0.135
Mof_N 	N 	0.6905	0.8942	0.0308	-0.307
Mof_C 	C 	0.7179	0.857	0.0561	0.144
Mof_H 	H 	0.7383	0.8934	0.0724	-0.004
Mof_C 	C 	0.7219	0.7701	0.0629	-0.187
Mof_H 	H 	0.7404	0.7493	0.0886	0.097
Mof_C 	C 	0.701	0.7116	0.0352	0.074
Mof_C 	C 	0.6726	0.7503	0.9996	-0.123
Mof_H 	H 	0.6564	0.7153	0.9769	0.1
Mof_C 	C 	0.6699	0.8427	0.9998	0.064
Mof_H 	H 	0.6518	0.87	0.9756	0.009
Mof_N 	N 	0.62	0.3377	0.8892	-0.274
Mof_C 	C 	0.6133	0.4231	0.9015	0.109
Mof_H 	H 	0.5903	0.4518	0.8852	-0.014
Mof_C 	C 	0.6357	0.4678	0.9334	-0.159
Mof_H 	H 	0.6296	0.528	0.9381	0.117
Mof_C 	C 	0.6663	0.4318	0.9593	0.108
Mof_C 	C 	0.6721	0.3433	0.9542	-0.141
Mof_H 	H 	0.6922	0.3136	0.9753	0.031
Mof_C 	C 	0.6495	0.2963	0.9193	0.068
Mof_H 	H 	0.6544	0.235	0.9159	-0.056
Mof_N 	N 	0.828	0.3595	0.1564	-0.27
Mof_C 	C 	0.807	0.3157	0.1207	0.044
Mof_H 	H 	0.8121	0.2544	0.1173	0.052
Mof_C 	C 	0.7776	0.3572	0.088	-0.085
Mof_H 	H 	0.7631	0.3258	0.0625	0.062
Mof_C 	C 	0.7708	0.4461	0.0947	0.028
Mof_C 	C 	0.7924	0.4907	0.1318	-0.127
Mof_H 	H 	0.7873	0.5508	0.1381	0.081
Mof_C 	C 	0.8221	0.4419	0.1594	0.107
Mof_H 	H 	0.8396	0.4732	0.1826	-0.009
Mof_C 	C 	0.7063	0.6152	0.0332	0.072
Mof_N 	N 	0.6818	0.5684	0.0037	-0.12
Mof_C 	C 	0.6907	0.4829	0.9999	0.097
Mof_N 	N 	0.7205	0.4415	0.0263	-0.154
Mof_C 	C 	0.7406	0.491	0.0598	0.058
Mof_N 	N 	0.7353	0.5793	0.065	-0.159
Mof_Zn	Zn	0.6783	0.7412	0.5286	0.607
Mof_I 	I 	0.1153	0.6524	0.8143	-0.108
Mof_I 	I 	0.0185	0.7442	0.8807	-0.14
Mof_I 	I 	0.8469	0.4565	0.7777	0.475
Mof_I 	I 	0.8826	0.6233	0.6657	0.194
Mof_I 	I 	0.7424	0.6575	0.567	-0.6
Mof_I 	I 	0.6395	0.7035	0.4485	0.107
Mof_I 	I 	0.5223	0.5238	0.3837	-0.18
Mof_I 	I 	0.6096	0.6252	0.3041	-0.103
Mof_I 	I 	0.3499	0.8156	0.2783	0.113
Mof_I 	I 	0.3773	0.6403	0.174	-0.142
Mof_I 	I 	0.6275	0.0442	0.9417	-1.828
Mof_I 	I 	0.7319	0.115	0.0477	2.045
Mof_Zn	Zn	0.42228	0.2662	0.15446	1.165
Mof_Zn	Zn	0.63434	0.9727	0.29066	1.155
Mof_Zn	Zn	0.91836	0.00737	0.65688	1.159
Mof_Zn	Zn	0.1316	0.2929	0.79514	1.155
Mof_Zn	Zn	0.82195	0.5281	0.9732	1.056
Mof_Zn	Zn	0.8303	0.2452	0.4818	0.614
Mof_I 	I 	0.38717	0.1512	0.1967	-0.207
Mof_I 	I 	0.4758	0.2377	0.1101	-0.166
Mof_I 	I 	0.6589	0.9137	0.213	-0.798
Mof_I 	I 	0.6319	0.1275	0.3057	-0.599
Mof_I 	I 	0.7706	0.1514	0.4525	0.223
Mof_I 	I 	0.8732	0.2348	0.56057	-0.518
Mof_I 	I 	0.97028	0.0383	0.6094	-0.137
Mof_I 	I 	0.8802	0.1176	0.6974	-0.235
Mof_I 	I 	0.1612	0.339	0.715	-0.427
Mof_I 	I 	0.1126	0.1517	0.8332	-0.157
Mof_I 	I 	0.8525	0.5705	0.0455	1.384
Mof_I 	I 	0.75	0.6039	0.9297	-2.449
Mof_N 	N 	0.4389	0.3647	0.2017	-0.269
Mof_C 	C 	0.4706	0.4198	0.1997	0.047
Mof_H 	H 	0.4882	0.4065	0.1798	-0.001
Mof_C 	C 	0.4767	0.4958	0.2274	-0.107
Mof_H 	H 	0.4983	0.5343	0.226	0.067
Mof_C 	C 	0.4515	0.5148	0.2566	0.055
Mof_C 	C 	0.4216	0.4596	0.2583	-0.124
Mof_H 	H 	0.4047	0.4704	0.2793	0.084
Mof_C 	C 	0.4151	0.3891	0.2308	0.075
Mof_H 	H 	0.3924	0.3539	0.2316	-0.009
Mof_N 	N 	0.5828	0.8999	0.2926	-0.267
Mof_C 	C 	0.5654	0.898	0.3331	0.075
Mof_H 	H 	0.5756	0.9337	0.3587	-0.015
Mof_C 	C 	0.5376	0.8492	0.3332	-0.135
Mof_H 	H 	0.5262	0.8526	0.3595	0.086
Mof_C 	C 	0.5204	0.7905	0.3011	0.059
Mof_C 	C 	0.5685	0.8431	0.2593	0.071
Mof_H 	H 	0.5805	0.8391	0.2333	-0.001
Mof_C 	C 	0.537	0.7908	0.2621	-0.119
Mof_H 	H 	0.526	0.7538	0.2371	0.08
Mof_N 	N 	0.3645	0.7279	0.4338	-0.288
Mof_C 	C 	0.359	0.659	0.4059	0.05
Mof_H 	H 	0.3413	0.6144	0.4118	-0.019
Mof_C 	C 	0.3788	0.646	0.3647	-0.091
Mof_H 	H 	0.3698	0.6078	0.3394	0.071
Mof_C 	C 	0.4142	0.7019	0.3719	0.047
Mof_C 	C 	0.4225	0.7621	0.4054	-0.118
Mof_H 	H 	0.4469	0.7935	0.4098	0.081
Mof_C 	C 	0.3965	0.7787	0.4333	0.078
Mof_H 	H 	0.4012	0.8283	0.4532	-0.015
Mof_C 	C 	0.4562	0.5981	0.285	0.082
Mof_N 	N 	0.4849	0.6571	0.2765	-0.147
Mof_C 	C 	0.4882	0.7265	0.3042	0.08
Mof_N 	N 	0.4672	0.7438	0.337	-0.14
Mof_C 	C 	0.4411	0.6829	0.3407	0.1
Mof_N 	N 	0.4337	0.6099	0.3143	-0.141
Mof_N 	N 	0.6736	0.912	0.342	-0.27
Mof_C 	C 	0.6801	0.823	0.3372	0.048
Mof_H 	H 	0.6669	0.7922	0.3108	0.014
Mof_C 	C 	0.7062	0.7781	0.3716	-0.095
Mof_H 	H 	0.7079	0.7153	0.3707	0.077
Mof_C 	C 	0.7297	0.8244	0.4072	0.041
Mof_C 	C 	0.7235	0.9139	0.4083	-0.124
Mof_H 	H 	0.7381	0.9481	0.4326	0.089
Mof_C 	C 	0.6972	0.9539	0.3758	0.08
Mof_H 	H 	0.6951	0.0166	0.377	0.002
Mof_N 	N 	0.8144	0.3799	0.4733	-0.277
Mof_C 	C 	0.8345	0.4335	0.502	0.087
Mof_H 	H 	0.8554	0.4093	0.5241	-0.02
Mof_C 	C 	0.8281	0.5226	0.5034	-0.126
Mof_H 	H 	0.843	0.5572	0.5273	0.083
Mof_C 	C 	0.8005	0.5621	0.4704	0.05
Mof_C 	C 	0.7778	0.5064	0.4371	-0.097
Mof_H 	H 	0.7563	0.5295	0.4155	0.072
Mof_C 	C 	0.7883	0.4125	0.4366	0.04
Mof_H 	H 	0.7773	0.3755	0.4116	0.003
Mof_N 	N 	0.8765	0.9371	0.6114	-0.288
Mof_C 	C 	0.8772	0.8491	0.6125	0.063
Mof_H 	H 	0.8952	0.8207	0.6364	-0.006
Mof_C 	C 	0.8522	0.7952	0.5792	-0.105
Mof_H 	H 	0.8505	0.7329	0.5831	0.084
Mof_C 	C 	0.8296	0.8387	0.54	0.051
Mof_C 	C 	0.8248	0.9295	0.5457	-0.141
Mof_H 	H 	0.8051	0.9623	0.5256	0.074
Mof_C 	C 	0.8503	0.9707	0.5825	0.115
Mof_H 	H 	0.8468	0.0327	0.5853	-0.043
Mof_C 	C 	0.7594	0.7781	0.4414	0.085
Mof_N 	N 	0.7641	0.6924	0.4367	-0.146
Mof_C 	C 	0.7931	0.6587	0.4694	0.099
Mof_N 	N 	0.8156	0.7018	0.5031	-0.135
Mof_C 	C 	0.8065	0.7877	0.5054	0.098
Mof_N 	N 	0.7785	0.8294	0.4756	-0.144
Mof_N 	N 	0.9379	0.9041	0.7028	-0.285
Mof_C 	C 	0.9643	0.8485	0.6993	0.119
Mof_H 	H 	0.9796	0.8607	0.6769	-0.028
Mof_C 	C 	0.9736	0.7731	0.7239	-0.153
Mof_H 	H 	0.9948	0.7356	0.7196	0.081
Mof_C 	C 	0.9503	0.7539	0.7559	0.06
Mof_C 	C 	0.9222	0.8165	0.7628	-0.114
Mof_H 	H 	0.9069	0.8086	0.7857	0.086
Mof_C 	C 	0.9173	0.892	0.7344	0.072
Mof_H 	H 	0.8983	0.9355	0.7385	-0.016
Mof_N 	N 	0.0813	0.3683	0.7945	-0.301
Mof_C 	C 	0.0664	0.3675	0.827	0.14
Mof_H 	H 	0.0768	0.3259	0.8501	-0.031
Mof_C 	C 	0.033	0.425	0.8358	-0.132
Mof_H 	H 	0.022	0.4233	0.8624	0.108
Mof_C 	C 	0.0207	0.4831	0.7979	0.081
Mof_C 	C 	0.036	0.4812	0.7625	-0.152
Mof_H 	H 	0.0263	0.5192	0.7375	0.088
Mof_C 	C 	0.067	0.4227	0.7609	0.101
Mof_H 	H 	0.0782	0.422	0.7344	-0.021
Mof_N 	N 	0.8588	0.542	0.9268	-0.295
Mof_C 	C 	0.8927	0.5045	0.9333	0.102
Mof_H 	H 	0.9005	0.4693	0.9599	-0.009
Mof_C 	C 	0.919	0.5124	0.9036	-0.131
Mof_H 	H 	0.9416	0.4753	0.9063	0.096
Mof_C 	C 	0.9109	0.5757	0.8705	0.075
Mof_C 	C 	0.8752	0.6148	0.8652	-0.128
Mof_H 	H 	0.869	0.6582	0.8418	0.081
Mof_C 	C 	0.8487	0.5987	0.8888	0.051
Mof_H 	H 	0.8231	0.6243	0.881	0.001
Mof_C 	C 	0.9556	0.6701	0.7817	0.095
Mof_N 	N 	0.9828	0.6148	0.7763	-0.153
Mof_C 	C 	0.9877	0.546	0.8044	0.093
Mof_N 	N 	0.9667	0.527	0.8343	-0.133
Mof_C 	C 	0.9362	0.5878	0.8351	0.079
Mof_N 	N 	0.931	0.6616	0.811	-0.135
Mof_N 	N 	0.8095	0.3942	0.9692	-0.307
Mof_C 	C 	0.7821	0.357	0.9439	0.144
Mof_H 	H 	0.7617	0.3934	0.9276	-0.004
Mof_C 	C 	0.7781	0.2701	0.9371	-0.187
Mof_H 	H 	0.7596	0.2493	0.9114	0.097
Mof_C 	C 	0.799	0.2116	0.9648	0.074
Mof_C 	C 	0.8274	0.2503	0.0004	-0.123
Mof_H 	H 	0.8436	0.2153	0.0231	0.1
Mof_C 	C 	0.8301	0.3427	0.0002	0.064
Mof_H 	H 	0.8482	0.37	0.0244	0.009
Mof_N 	N 	0.88	0.8377	0.1108	-0.274
Mof_C 	C 	0.8867	0.9231	0.0985	0.106
Mof_H 	H 	0.9097	0.9518	0.1148	-0.013
Mof_C 	C 	0.8643	0.9678	0.0666	-0.154
Mof_H 	H 	0.8704	0.028	0.0619	0.115
Mof_C 	C 	0.8337	0.9318	0.0407	0.105
Mof_C 	C 	0.8279	0.8433	0.0458	-0.14
Mof_H 	H 	0.8078	0.8136	0.0247	0.03
Mof_C 	C 	0.8505	0.7963	0.0807	0.067
Mof_H 	H 	0.8456	0.735	0.0841	-0.056
Mof_N 	N 	0.672	0.8595	0.8436	-0.27
Mof_C 	C 	0.693	0.8157	0.8793	0.044
Mof_H 	H 	0.6879	0.7544	0.8827	0.053
Mof_C 	C 	0.7224	0.8572	0.912	-0.084
Mof_H 	H 	0.7369	0.8258	0.9375	0.062
Mof_C 	C 	0.7292	0.9461	0.9053	0.027
Mof_C 	C 	0.7076	0.9907	0.8682	-0.124
Mof_H 	H 	0.7127	0.0508	0.8619	0.08
Mof_C 	C 	0.6779	0.9419	0.8406	0.106
Mof_H 	H 	0.6604	0.9732	0.8174	-0.008
Mof_C 	C 	0.7937	0.1152	0.9668	0.072
Mof_N 	N 	0.8182	0.0684	0.9963	-0.121
Mof_C 	C 	0.8093	0.9829	0.0001	0.099
Mof_N 	N 	0.7795	0.9415	0.9737	-0.154
Mof_C 	C 	0.7594	0.991	0.9402	0.06
Mof_N 	N 	0.7647	0.0793	0.935	-0.16
Mof_Zn	Zn	0.8217	0.2412	0.4714	0.607
Mof_I 	I 	0.3847	0.1524	0.1857	-0.108
Mof_I 	I 	0.4815	0.2442	0.1193	-0.14
Mof_I 	I 	0.6531	0.9565	0.2223	0.475
Mof_I 	I 	0.6174	0.1233	0.3343	0.194
Mof_I 	I 	0.7576	0.1575	0.433	-0.6
Mof_I 	I 	0.8605	0.2035	0.5515	0.107
Mof_I 	I 	0.9777	0.0238	0.6163	-0.18
Mof_I 	I 	0.8904	0.1252	0.6959	-0.103
Mof_I 	I 	0.1501	0.3156	0.7217	0.113
Mof_I 	I 	0.1227	0.1403	0.826	-0.142
Mof_I 	I 	0.8725	0.5442	0.0583	-1.828
Mof_I 	I 	0.7681	0.615	0.9523	2.047
Mof_Zn	Zn	0.92228	0.7662	0.15446	1.165
Mof_Zn	Zn	0.13434	0.4727	0.29066	1.155
Mof_Zn	Zn	0.41836	0.50737	0.65688	1.159
Mof_Zn	Zn	0.6316	0.7929	0.79514	1.155
Mof_Zn	Zn	0.32195	0.0281	0.9732	1.056
Mof_Zn	Zn	0.3303	0.7452	0.4818	0.614
Mof_I 	I 	0.88717	0.6512	0.1967	-0.206
Mof_I 	I 	0.9758	0.7377	0.1101	-0.166
Mof_I 	I 	0.1589	0.4137	0.213	-0.798
Mof_I 	I 	0.1319	0.6275	0.3057	-0.599
Mof_I 	I 	0.2706	0.6514	0.4525	0.223
Mof_I 	I 	0.3732	0.7348	0.56057	-0.518
Mof_I 	I 	0.47028	0.5383	0.6094	-0.136
Mof_I 	I 	0.3802	0.6176	0.6974	-0.235
Mof_I 	I 	0.6612	0.839	0.715	-0.427
Mof_I 	I 	0.6126	0.6517	0.8332	-0.156
Mof_I 	I 	0.3525	0.0705	0.0455	1.383
Mof_I 	I 	0.25	0.1039	0.9297	-2.447
Mof_N 	N 	0.9389	0.8647	0.2017	-0.268
Mof_C 	C 	0.9706	0.9198	0.1997	0.044
Mof_H 	H 	0.9882	0.9065	0.1798	0
Mof_C 	C 	0.9767	0.9958	0.2274	-0.1
Mof_H 	H 	0.9983	0.0343	0.226	0.063
Mof_C 	C 	0.9515	0.0148	0.2566	0.048
Mof_C 	C 	0.9216	0.9596	0.2583	-0.118
Mof_H 	H 	0.9047	0.9704	0.2793	0.083
Mof_C 	C 	0.9151	0.8891	0.2308	0.072
Mof_H 	H 	0.8924	0.8539	0.2316	-0.008
Mof_N 	N 	0.0828	0.3999	0.2926	-0.267
Mof_C 	C 	0.0654	0.398	0.3331	0.075
Mof_H 	H 	0.0756	0.4337	0.3587	-0.016
Mof_C 	C 	0.0376	0.3492	0.3332	-0.135
Mof_H 	H 	0.0262	0.3526	0.3595	0.086
Mof_C 	C 	0.0204	0.2905	0.3011	0.059
Mof_C 	C 	0.0685	0.3431	0.2593	0.071
Mof_H 	H 	0.0805	0.3391	0.2333	-0.001
Mof_C 	C 	0.037	0.2908	0.2621	-0.119
Mof_H 	H 	0.026	0.2538	0.2371	0.08
Mof_N 	N 	0.8645	0.2279	0.4338	-0.288
Mof_C 	C 	0.859	0.159	0.4059	0.05
Mof_H 	H 	0.8413	0.1144	0.4118	-0.019
Mof_C 	C 	0.8788	0.146	0.3647	-0.091
Mof_H 	H 	0.8698	0.1078	0.3394	0.071
Mof_C 	C 	0.9142	0.2019	0.3719	0.047
Mof_C 	C 	0.9225	0.2621	0.4054	-0.118
Mof_H 	H 	0.9469	0.2935	0.4098	0.081
Mof_C 	C 	0.8965	0.2787	0.4333	0.078
Mof_H 	H 	0.9012	0.3283	0.4532	-0.015
Mof_C 	C 	0.9562	0.0981	0.285	0.084
Mof_N 	N 	0.9849	0.1571	0.2765	-0.147
Mof_C 	C 	0.9882	0.2265	0.3042	0.08
Mof_N 	N 	0.9672	0.2438	0.337	-0.14
Mof_C 	C 	0.9411	0.1829	0.3407	0.1
Mof_N 	N 	0.9337	0.1099	0.3143	-0.142
Mof_N 	N 	0.1736	0.412	0.342	-0.27
Mof_C 	C 	0.1801	0.323	0.3372	0.047
Mof_H 	H 	0.1669	0.2922	0.3108	0.014
Mof_C 	C 	0.2062	0.2781	0.3716	-0.095
Mof_H 	H 	0.2079	0.2153	0.3707	0.077
Mof_C 	C 	0.2297	0.3244	0.4072	0.04
Mof_C 	C 	0.2235	0.4139	0.4083	-0.123
Mof_H 	H 	0.2381	0.4481	0.4326	0.088
Mof_C 	C 	0.1972	0.4539	0.3758	0.078
Mof_H 	H 	0.1951	0.5166	0.377	0.003
Mof_N 	N 	0.3144	0.8799	0.4733	-0.278
Mof_C 	C 	0.3345	0.9335	0.502	0.088
Mof_H 	H 	0.3554	0.9093	0.5241	-0.02
Mof_C 	C 	0.3281	0.0226	0.5034	-0.128
Mof_H 	H 	0.343	0.0572	0.5273	0.083
Mof_C 	C 	0.3005	0.0621	0.4704	0.051
Mof_C 	C 	0.2778	0.0064	0.4371	-0.099
Mof_H 	H 	0.2563	0.0295	0.4155	0.072
Mof_C 	C 	0.2883	0.9125	0.4366	0.041
Mof_H 	H 	0.2773	0.8755	0.4116	0.003
Mof_N 	N 	0.3765	0.4371	0.6114	-0.288
Mof_C 	C 	0.3772	0.3491	0.6125	0.062
Mof_H 	H 	0.3952	0.3207	0.6364	-0.006
Mof_C 	C 	0.3522	0.2952	0.5792	-0.105
Mof_H 	H 	0.3505	0.2329	0.5831	0.084
Mof_C 	C 	0.3296	0.3387	0.54	0.05
Mof_C 	C 	0.3248	0.4295	0.5457	-0.14
Mof_H 	H 	0.3051	0.4623	0.5256	0.073
Mof_C 	C 	0.3503	0.4707	0.5825	0.112
Mof_H 	H 	0.3468	0.5327	0.5853	-0.041
Mof_C 	C 	0.2594	0.2781	0.4414	0.085
Mof_N 	N 	0.2641	0.1924	0.4367	-0.146
Mof_C 	C 	0.2931	0.1587	0.4694	0.098
Mof_N 	N 	0.3156	0.2018	0.5031	-0.135
Mof_C 	C 	0.3065	0.2877	0.5054	0.098
Mof_N 	N 	0.2785	0.3294	0.4756	-0.145
Mof_N 	N 	0.4379	0.4041	0.7028	-0.285
Mof_C 	C 	0.4643	0.3485	0.6993	0.119
Mof_H 	H 	0.4796	0.3607	0.6769	-0.029
Mof_C 	C 	0.4736	0.2731	0.7239	-0.153
Mof_H 	H 	0.4948	0.2356	0.7196	0.081
Mof_C 	C 	0.4503	0.2539	0.7559	0.06
Mof_C 	C 	0.4222	0.3165	0.7628	-0.114
Mof_H 	H 	0.4069	0.3086	0.7857	0.086
Mof_C 	C 	0.4173	0.392	0.7344	0.072
Mof_H 	H 	0.3983	0.4355	0.7385	-0.017
Mof_N 	N 	0.5813	0.8683	0.7945	-0.301
Mof_C 	C 	0.5664	0.8675	0.827	0.14
Mof_H 	H 	0.5768	0.8259	0.8501	-0.031
Mof_C 	C 	0.533	0.925	0.8358	-0.132
Mof_H 	H 	0.522	0.9233	0.8624	0.108
Mof_C 	C 	0.5207	0.9831	0.7979	0.081
Mof_C 	C 	0.536	0.9812	0.7625	-0.151
Mof_H 	H 	0.5263	0.0192	0.7375	0.088
Mof_C 	C 	0.567	0.9227	0.7609	0.1
Mof_H 	H 	0.5782	0.922	0.7344	-0.021
Mof_N 	N 	0.3588	0.042	0.9268	-0.295
Mof_C 	C 	0.3927	0.0045	0.9333	0.102
Mof_H 	H 	0.4005	0.9693	0.9599	-0.009
Mof_C 	C 	0.419	0.0124	0.9036	-0.132
Mof_H 	H 	0.4416	0.9753	0.9063	0.097
Mof_C 	C 	0.4109	0.0757	0.8705	0.075
Mof_C 	C 	0.3752	0.1148	0.8652	-0.128
Mof_H 	H 	0.369	0.1582	0.8418	0.081
Mof_C 	C 	0.3487	0.0987	0.8888	0.051
Mof_H 	H 	0.3231	0.1243	0.881	0.001
Mof_C 	C 	0.4556	0.1701	0.7817	0.095
Mof_N 	N 	0.4828	0.1148	0.7763	-0.153
Mof_C 	C 	0.4877	0.046	0.8044	0.092
Mof_N 	N 	0.4667	0.027	0.8343	-0.133
Mof_C 	C 	0.4362	0.0878	0.8351	0.079
Mof_N 	N 	0.431	0.1616	0.811	-0.135
Mof_N 	N 	0.3095	0.8942	0.9692	-0.307
Mof_C 	C 	0.2821	0.857	0.9439	0.144
Mof_H 	H 	0.2617	0.8934	0.9276	-0.004
Mof_C 	C 	0.2781	0.7701	0.9371	-0.187
Mof_H 	H 	0.2596	0.7493	0.9114	0.097
Mof_C 	C 	0.299	0.7116	0.9648	0.074
Mof_C 	C 	0.3274	0.7503	0.0004	-0.123
Mof_H 	H 	0.3436	0.7153	0.0231	0.1
Mof_C 	C 	0.3301	0.8427	0.0002	0.064
Mof_H 	H 	0.3482	0.87	0.0244	0.009
Mof_N 	N 	0.38	0.3377	0.1108	-0.274
Mof_C 	C 	0.3867	0.4231	0.0985	0.109
Mof_H 	H 	0.4097	0.4518	0.1148	-0.014
Mof_C 	C 	0.3643	0.4678	0.0666	-0.159
Mof_H 	H 	0.3704	0.528	0.0619	0.117
Mof_C 	C 	0.3337	0.4318	0.0407	0.108
Mof_C 	C 	0.3279	0.3433	0.0458	-0.141
Mof_H 	H 	0.3078	0.3136	0.0247	0.031
Mof_C 	C 	0.3505	0.2963	0.0807	0.068
Mof_H 	H 	0.3456	0.235	0.0841	-0.056
Mof_N 	N 	0.172	0.3595	0.8436	-0.27
Mof_C 	C 	0.193	0.3157	0.8793	0.044
Mof_H 	H 	0.1879	0.2544	0.8827	0.052
Mof_C 	C 	0.2224	0.3572	0.912	-0.085
Mof_H 	H 	0.2369	0.3258	0.9375	0.062
Mof_C 	C 	0.2292	0.4461	0.9053	0.028
Mof_C 	C 	0.2076	0.4907	0.8682	-0.127
Mof_H 	H 	0.2127	0.5508	0.8619	0.081
Mof_C 	C 	0.1779	0.4419	0.8406	0.107
Mof_H 	H 	0.1604	0.4732	0.8174	-0.009
Mof_C 	C 	0.2937	0.6152	0.9668	0.072
Mof_N 	N 	0.3182	0.5684	0.9963	-0.12
Mof_C 	C 	0.3093	0.4829	0.0001	0.097
Mof_N 	N 	0.2795	0.4415	0.9737	-0.154
Mof_C 	C 	0.2594	0.491	0.9402	0.058
Mof_N 	N 	0.2647	0.5793	0.935	-0.159
Mof_Zn	Zn	0.3217	0.7412	0.4714	0.607
Mof_I 	I 	0.8847	0.6524	0.1857	-0.108
Mof_I 	I 	0.9815	0.7442	0.1193	-0.14
Mof_I 	I 	0.1531	0.4565	0.2223	0.475
Mof_I 	I 	0.1174	0.6233	0.3343	0.194
Mof_I 	I 	0.2576	0.6575	0.433	-0.6
Mof_I 	I 	0.3605	0.7035	0.5515	0.107
Mof_I 	I 	0.4777	0.5238	0.6163	-0.18
Mof_I 	I 	0.3904	0.6252	0.6959	-0.103
Mof_I 	I 	0.6501	0.8156	0.7217	0.113
Mof_I 	I 	0.6227	0.6403	0.826	-0.142
Mof_I 	I 	0.3725	0.0442	0.0583	-1.828
Mof_I 	I 	0.2681	0.115	0.9523	2.045
_end
