# CIF file generated by openbabel 3.1.0, see https://openbabel.org
data_I
_chemical_name_common 'image0'
_cell_length_a 10.4767
_cell_length_b 10.4874
_cell_length_c 6.3225
_cell_angle_alpha 90
_cell_angle_beta 115.385
_cell_angle_gamma 90
_space_group_name_H-M_alt 'P 1'
_space_group_name_Hall 'P 1'
loop_
    _symmetry_equiv_pos_as_xyz
    x,y,z
loop_
    _atom_site_label
    _atom_site_type_symbol
    _atom_site_fract_x
    _atom_site_fract_y
    _atom_site_fract_z
    _atom_site_occupancy
    C1       C        0.31570    0.20980    0.54670    1.000
    H1       H        0.39710    0.26450    0.58270    1.000
    H2       H        0.32590    0.16970    0.69130    1.000
    N1       N        0.31430    0.11090    0.38210    1.000
    H3       H        0.30090    0.14830    0.24610    1.000
    H4       H        0.24040    0.05880    0.35320    1.000
    C2       C        0.81570    0.70980    0.54670    1.000
    H5       H        0.89710    0.76450    0.58270    1.000
    H6       H        0.82590    0.66970    0.69130    1.000
    N2       N        0.81430    0.61090    0.38210    1.000
    H7       H        0.80090    0.64830    0.24610    1.000
    H8       H        0.74040    0.55880    0.35320    1.000
    C3       C        0.68430    0.20980    0.95330    1.000
    H9       H        0.60290    0.26450    0.91730    1.000
    H10      H        0.67410    0.16970    0.80870    1.000
    N3       N        0.68570    0.11090    0.11790    1.000
    H11      H        0.69910    0.14830    0.25390    1.000
    H12      H        0.75960    0.05880    0.14680    1.000
    C4       C        0.18430    0.70980    0.95330    1.000
    H13      H        0.10290    0.76450    0.91730    1.000
    H14      H        0.17410    0.66970    0.80870    1.000
    N4       N        0.18570    0.61090    0.11790    1.000
    H15      H        0.19910    0.64830    0.25390    1.000
    H16      H        0.25960    0.55880    0.14680    1.000
    C5       C        0.68430    0.79020    0.45330    1.000
    H17      H        0.60290    0.73550    0.41730    1.000
    H18      H        0.67410    0.83030    0.30870    1.000
    N5       N        0.68570    0.88910    0.61790    1.000
    H19      H        0.69910    0.85170    0.75390    1.000
    H20      H        0.75960    0.94120    0.64680    1.000
    C6       C        0.18430    0.29020    0.45330    1.000
    H21      H        0.10290    0.23550    0.41730    1.000
    H22      H        0.17410    0.33030    0.30870    1.000
    N6       N        0.18570    0.38910    0.61790    1.000
    H23      H        0.19910    0.35170    0.75390    1.000
    H24      H        0.25960    0.44120    0.64680    1.000
    C7       C        0.31570    0.79020    0.04670    1.000
    H25      H        0.39710    0.73550    0.08270    1.000
    H26      H        0.32590    0.83030    0.19130    1.000
    N7       N        0.31430    0.88910    0.88210    1.000
    H27      H        0.30090    0.85170    0.74610    1.000
    H28      H        0.24040    0.94120    0.85320    1.000
    C8       C        0.81570    0.29020    0.04670    1.000
    H29      H        0.89710    0.23550    0.08270    1.000
    H30      H        0.82590    0.33030    0.19130    1.000
    N8       N        0.81430    0.38910    0.88210    1.000
    H31      H        0.80090    0.35170    0.74610    1.000
    H32      H        0.74040    0.44120    0.85320    1.000
    Ag1      Ag       0.50000    0.00000    0.50000    1.000
    Ag2      Ag       0.00000    0.50000    0.50000    1.000
    Ag3      Ag       0.50000    0.00000    0.00000    1.000
    Ag4      Ag       0.00000    0.50000    0.00000    1.000
