data_functionalizedCrystal
_audit_creation_method	'EQeq! by Chris Wilmer'
_symmetry_space_group_name_H-M	'P1'
_symmetry_Int_Tables_number	1
_symmetry_cell_setting	triclinic
loop_
_symmetry_equiv_pos_as_xyz
  x,y,z
_cell_length_a	24.5681
_cell_length_b	24.5681
_cell_length_c	24.5681
_cell_angle_alpha	90
_cell_angle_beta	90
_cell_angle_gamma	90
loop_
_atom_site_label
_atom_site_type_symbol
_atom_site_fract_x
_atom_site_fract_y
_atom_site_fract_z
_atom_site_charge
Mof_O 	O 	0.1517	0.9996	0.9124	-0.16
Mof_O 	O 	0.0876	0.0038	0.848	-0.163
Mof_C 	C 	0.1368	0.0093	0.8642	0.282
Mof_C 	C 	0.1672	0.0115	0.8117	-0.044
Mof_C 	C 	0.2233	0.0149	0.8211	0.015
Mof_C 	C 	0.2396	0.0125	0.7236	0.029
Mof_C 	C 	0.147	0.0144	0.7589	0.011
Mof_C 	C 	0.1823	0.01	0.715	0.014
Mof_C 	C 	0.1868	0.0092	0.8308	-0.052
Mof_C 	C 	0.1795	0.9863	0.779	0.063
Mof_C 	C 	0.2769	0.9917	0.763	-0.037
Mof_C 	C 	0.239	0.0179	0.8508	0.039
Mof_C 	C 	0.2835	0.0139	0.8162	-0.019
Mof_O 	O 	0.1517	0.4996	0.4124	-0.165
Mof_O 	O 	0.0876	0.5038	0.348	-0.163
Mof_C 	C 	0.1368	0.5093	0.3642	0.287
Mof_C 	C 	0.1672	0.5115	0.3117	-0.056
Mof_C 	C 	0.2233	0.5149	0.3211	0.035
Mof_C 	C 	0.2396	0.5125	0.2236	0.011
Mof_C 	C 	0.147	0.5144	0.2589	0.027
Mof_C 	C 	0.1823	0.51	0.215	0.004
Mof_C 	C 	0.1868	0.5092	0.3308	-0.039
Mof_C 	C 	0.1795	0.4863	0.279	0.05
Mof_C 	C 	0.2769	0.4917	0.263	-0.021
Mof_C 	C 	0.239	0.5179	0.3508	0.02
Mof_C 	C 	0.2835	0.5139	0.3162	-0.003
Mof_O 	O 	0.6517	0.9996	0.4124	-0.16
Mof_O 	O 	0.5876	0.0038	0.348	-0.162
Mof_C 	C 	0.6368	0.0093	0.3642	0.283
Mof_C 	C 	0.6672	0.0115	0.3117	-0.043
Mof_C 	C 	0.7233	0.0149	0.3211	0.017
Mof_C 	C 	0.7396	0.0125	0.2236	0.03
Mof_C 	C 	0.647	0.0144	0.2589	0.013
Mof_C 	C 	0.6823	0.01	0.215	0.015
Mof_C 	C 	0.6868	0.0092	0.3308	-0.051
Mof_C 	C 	0.6795	0.9863	0.279	0.064
Mof_C 	C 	0.7769	0.9917	0.263	-0.036
Mof_C 	C 	0.739	0.0179	0.3508	0.04
Mof_C 	C 	0.7835	0.0139	0.3162	-0.018
Mof_O 	O 	0.6517	0.4996	0.9124	-0.163
Mof_O 	O 	0.5876	0.5038	0.848	-0.161
Mof_C 	C 	0.6368	0.5093	0.8642	0.287
Mof_C 	C 	0.6672	0.5115	0.8117	-0.054
Mof_C 	C 	0.7233	0.5149	0.8211	0.033
Mof_C 	C 	0.7396	0.5125	0.7236	0.011
Mof_C 	C 	0.647	0.5144	0.7589	0.028
Mof_C 	C 	0.6823	0.51	0.715	0.005
Mof_C 	C 	0.6868	0.5092	0.8308	-0.039
Mof_C 	C 	0.6795	0.4863	0.779	0.05
Mof_C 	C 	0.7769	0.4917	0.763	-0.02
Mof_C 	C 	0.739	0.5179	0.8508	0.022
Mof_C 	C 	0.7835	0.5139	0.8162	-0.003
Mof_O 	O 	0.8483	0.0004	0.9124	-0.167
Mof_O 	O 	0.9124	0.9962	0.848	-0.159
Mof_C 	C 	0.8632	0.9907	0.8642	0.292
Mof_C 	C 	0.8328	0.9885	0.8117	-0.067
Mof_C 	C 	0.7767	0.9851	0.8211	0.051
Mof_C 	C 	0.7604	0.9875	0.7236	-0.007
Mof_C 	C 	0.853	0.9856	0.7589	0.043
Mof_C 	C 	0.8177	0.99	0.715	-0.005
Mof_C 	C 	0.8132	0.9908	0.8308	-0.028
Mof_C 	C 	0.8205	0.0137	0.779	0.036
Mof_C 	C 	0.7231	0.0083	0.763	-0.005
Mof_C 	C 	0.761	0.9821	0.8508	0.003
Mof_C 	C 	0.7165	0.9861	0.8162	0.012
Mof_O 	O 	0.8483	0.5004	0.4124	-0.164
Mof_O 	O 	0.9124	0.4962	0.348	-0.16
Mof_C 	C 	0.8632	0.4907	0.3642	0.288
Mof_C 	C 	0.8328	0.4885	0.3117	-0.055
Mof_C 	C 	0.7767	0.4851	0.3211	0.034
Mof_C 	C 	0.7604	0.4875	0.2236	0.012
Mof_C 	C 	0.853	0.4856	0.2589	0.029
Mof_C 	C 	0.8177	0.49	0.215	0.005
Mof_C 	C 	0.8132	0.4908	0.3308	-0.039
Mof_C 	C 	0.8205	0.5137	0.279	0.05
Mof_C 	C 	0.7231	0.5083	0.263	-0.021
Mof_C 	C 	0.761	0.4821	0.3508	0.021
Mof_C 	C 	0.7165	0.4861	0.3162	-0.003
Mof_O 	O 	0.3483	0.0004	0.4124	-0.169
Mof_O 	O 	0.4124	0.9962	0.348	-0.161
Mof_C 	C 	0.3632	0.9907	0.3642	0.292
Mof_C 	C 	0.3328	0.9885	0.3117	-0.069
Mof_C 	C 	0.2767	0.9851	0.3211	0.053
Mof_C 	C 	0.2604	0.9875	0.2236	-0.007
Mof_C 	C 	0.353	0.9856	0.2589	0.043
Mof_C 	C 	0.3177	0.99	0.215	-0.006
Mof_C 	C 	0.3132	0.9908	0.3308	-0.027
Mof_C 	C 	0.3205	0.0137	0.279	0.036
Mof_C 	C 	0.2231	0.0083	0.263	-0.005
Mof_C 	C 	0.261	0.9821	0.3508	0.001
Mof_C 	C 	0.2165	0.9861	0.3162	0.012
Mof_O 	O 	0.3483	0.5004	0.9124	-0.163
Mof_O 	O 	0.4124	0.4962	0.848	-0.161
Mof_C 	C 	0.3632	0.4907	0.8642	0.287
Mof_C 	C 	0.3328	0.4885	0.8117	-0.055
Mof_C 	C 	0.2767	0.4851	0.8211	0.034
Mof_C 	C 	0.2604	0.4875	0.7236	0.011
Mof_C 	C 	0.353	0.4856	0.7589	0.028
Mof_C 	C 	0.3177	0.49	0.715	0.005
Mof_C 	C 	0.3132	0.4908	0.8308	-0.039
Mof_C 	C 	0.3205	0.5137	0.779	0.05
Mof_C 	C 	0.2231	0.5083	0.763	-0.02
Mof_C 	C 	0.261	0.4821	0.8508	0.021
Mof_C 	C 	0.2165	0.4861	0.8162	-0.003
Mof_O 	O 	0.8483	0.9996	0.0876	-0.16
Mof_O 	O 	0.9124	0.0038	0.152	-0.161
Mof_C 	C 	0.8632	0.0093	0.1358	0.283
Mof_C 	C 	0.8328	0.0115	0.1883	-0.044
Mof_C 	C 	0.7767	0.0149	0.1789	0.018
Mof_C 	C 	0.7604	0.0125	0.2764	0.03
Mof_C 	C 	0.853	0.0144	0.2411	0.014
Mof_C 	C 	0.8177	0.01	0.285	0.015
Mof_C 	C 	0.8132	0.0092	0.1692	-0.051
Mof_C 	C 	0.8205	0.9863	0.221	0.063
Mof_C 	C 	0.7231	0.9917	0.237	-0.036
Mof_C 	C 	0.761	0.0179	0.1492	0.038
Mof_C 	C 	0.7165	0.0139	0.1838	-0.019
Mof_O 	O 	0.8483	0.4996	0.5876	-0.164
Mof_O 	O 	0.9124	0.5038	0.652	-0.16
Mof_C 	C 	0.8632	0.5093	0.6358	0.288
Mof_C 	C 	0.8328	0.5115	0.6883	-0.055
Mof_C 	C 	0.7767	0.5149	0.6789	0.034
Mof_C 	C 	0.7604	0.5125	0.7764	0.011
Mof_C 	C 	0.853	0.5144	0.7411	0.029
Mof_C 	C 	0.8177	0.51	0.785	0.005
Mof_C 	C 	0.8132	0.5092	0.6692	-0.039
Mof_C 	C 	0.8205	0.4863	0.721	0.049
Mof_C 	C 	0.7231	0.4917	0.737	-0.021
Mof_C 	C 	0.761	0.5179	0.6492	0.021
Mof_C 	C 	0.7165	0.5139	0.6838	-0.004
Mof_O 	O 	0.3483	0.9996	0.5876	-0.16
Mof_O 	O 	0.4124	0.0038	0.652	-0.162
Mof_C 	C 	0.3632	0.0093	0.6358	0.283
Mof_C 	C 	0.3328	0.0115	0.6883	-0.044
Mof_C 	C 	0.2767	0.0149	0.6789	0.018
Mof_C 	C 	0.2604	0.0125	0.7764	0.03
Mof_C 	C 	0.353	0.0144	0.7411	0.013
Mof_C 	C 	0.3177	0.01	0.785	0.015
Mof_C 	C 	0.3132	0.0092	0.6692	-0.051
Mof_C 	C 	0.3205	0.9863	0.721	0.064
Mof_C 	C 	0.2231	0.9917	0.737	-0.036
Mof_C 	C 	0.261	0.0179	0.6492	0.039
Mof_C 	C 	0.2165	0.0139	0.6838	-0.019
Mof_O 	O 	0.3483	0.4996	0.0876	-0.165
Mof_O 	O 	0.4124	0.5038	0.152	-0.162
Mof_C 	C 	0.3632	0.5093	0.1358	0.288
Mof_C 	C 	0.3328	0.5115	0.1883	-0.057
Mof_C 	C 	0.2767	0.5149	0.1789	0.036
Mof_C 	C 	0.2604	0.5125	0.2764	0.011
Mof_C 	C 	0.353	0.5144	0.2411	0.029
Mof_C 	C 	0.3177	0.51	0.285	0.004
Mof_C 	C 	0.3132	0.5092	0.1692	-0.039
Mof_C 	C 	0.3205	0.4863	0.221	0.05
Mof_C 	C 	0.2231	0.4917	0.237	-0.021
Mof_C 	C 	0.261	0.5179	0.1492	0.019
Mof_C 	C 	0.2165	0.5139	0.1838	-0.004
Mof_O 	O 	0.1517	0.0004	0.0876	-0.169
Mof_O 	O 	0.0876	0.9962	0.152	-0.161
Mof_C 	C 	0.1368	0.9907	0.1358	0.292
Mof_C 	C 	0.1672	0.9885	0.1883	-0.069
Mof_C 	C 	0.2233	0.9851	0.1789	0.053
Mof_C 	C 	0.2396	0.9875	0.2764	-0.008
Mof_C 	C 	0.147	0.9856	0.2411	0.043
Mof_C 	C 	0.1823	0.99	0.285	-0.006
Mof_C 	C 	0.1868	0.9908	0.1692	-0.027
Mof_C 	C 	0.1795	0.0137	0.221	0.036
Mof_C 	C 	0.2769	0.0083	0.237	-0.006
Mof_C 	C 	0.239	0.9821	0.1492	0
Mof_C 	C 	0.2835	0.9861	0.1838	0.012
Mof_O 	O 	0.1517	0.5004	0.5876	-0.164
Mof_O 	O 	0.0876	0.4962	0.652	-0.162
Mof_C 	C 	0.1368	0.4907	0.6358	0.288
Mof_C 	C 	0.1672	0.4885	0.6883	-0.056
Mof_C 	C 	0.2233	0.4851	0.6789	0.034
Mof_C 	C 	0.2396	0.4875	0.7764	0.011
Mof_C 	C 	0.147	0.4856	0.7411	0.028
Mof_C 	C 	0.1823	0.49	0.785	0.005
Mof_C 	C 	0.1868	0.4908	0.6692	-0.039
Mof_C 	C 	0.1795	0.5137	0.721	0.05
Mof_C 	C 	0.2769	0.5083	0.737	-0.021
Mof_C 	C 	0.239	0.4821	0.6492	0.021
Mof_C 	C 	0.2835	0.4861	0.6838	-0.003
Mof_O 	O 	0.6517	0.0004	0.5876	-0.168
Mof_O 	O 	0.5876	0.9962	0.652	-0.161
Mof_C 	C 	0.6368	0.9907	0.6358	0.292
Mof_C 	C 	0.6672	0.9885	0.6883	-0.067
Mof_C 	C 	0.7233	0.9851	0.6789	0.051
Mof_C 	C 	0.7396	0.9875	0.7764	-0.007
Mof_C 	C 	0.647	0.9856	0.7411	0.043
Mof_C 	C 	0.6823	0.99	0.785	-0.005
Mof_C 	C 	0.6868	0.9908	0.6692	-0.028
Mof_C 	C 	0.6795	0.0137	0.721	0.036
Mof_C 	C 	0.7769	0.0083	0.737	-0.006
Mof_C 	C 	0.739	0.9821	0.6492	0.003
Mof_C 	C 	0.7835	0.9861	0.6838	0.011
Mof_O 	O 	0.6517	0.5004	0.0876	-0.165
Mof_O 	O 	0.5876	0.4962	0.152	-0.162
Mof_C 	C 	0.6368	0.4907	0.1358	0.288
Mof_C 	C 	0.6672	0.4885	0.1883	-0.056
Mof_C 	C 	0.7233	0.4851	0.1789	0.035
Mof_C 	C 	0.7396	0.4875	0.2764	0.011
Mof_C 	C 	0.647	0.4856	0.2411	0.028
Mof_C 	C 	0.6823	0.49	0.285	0.005
Mof_C 	C 	0.6868	0.4908	0.1692	-0.039
Mof_C 	C 	0.6795	0.5137	0.221	0.05
Mof_C 	C 	0.7769	0.5083	0.237	-0.021
Mof_C 	C 	0.739	0.4821	0.1492	0.02
Mof_C 	C 	0.7835	0.4861	0.1838	-0.004
Mof_O 	O 	0.9124	0.1517	0.9996	-0.159
Mof_O 	O 	0.848	0.0876	0.0038	-0.162
Mof_C 	C 	0.8642	0.1368	0.0093	0.283
Mof_C 	C 	0.8117	0.1672	0.0115	-0.043
Mof_C 	C 	0.8211	0.2233	0.0149	0.016
Mof_C 	C 	0.7236	0.2396	0.0125	0.03
Mof_C 	C 	0.7589	0.147	0.0144	0.012
Mof_C 	C 	0.715	0.1823	0.01	0.015
Mof_C 	C 	0.8308	0.1868	0.0092	-0.051
Mof_C 	C 	0.779	0.1795	0.9863	0.064
Mof_C 	C 	0.763	0.2769	0.9917	-0.036
Mof_C 	C 	0.8508	0.239	0.0179	0.04
Mof_C 	C 	0.8162	0.2835	0.0139	-0.018
Mof_O 	O 	0.9124	0.6517	0.4996	-0.163
Mof_O 	O 	0.848	0.5876	0.5038	-0.161
Mof_C 	C 	0.8642	0.6368	0.5093	0.287
Mof_C 	C 	0.8117	0.6672	0.5115	-0.054
Mof_C 	C 	0.8211	0.7233	0.5149	0.033
Mof_C 	C 	0.7236	0.7396	0.5125	0.011
Mof_C 	C 	0.7589	0.647	0.5144	0.028
Mof_C 	C 	0.715	0.6823	0.51	0.005
Mof_C 	C 	0.8308	0.6868	0.5092	-0.039
Mof_C 	C 	0.779	0.6795	0.4863	0.05
Mof_C 	C 	0.763	0.7769	0.4917	-0.02
Mof_C 	C 	0.8508	0.739	0.5179	0.022
Mof_C 	C 	0.8162	0.7835	0.5139	-0.003
Mof_O 	O 	0.4124	0.1517	0.4996	-0.164
Mof_O 	O 	0.348	0.0876	0.5038	-0.162
Mof_C 	C 	0.3642	0.1368	0.5093	0.288
Mof_C 	C 	0.3117	0.1672	0.5115	-0.056
Mof_C 	C 	0.3211	0.2233	0.5149	0.035
Mof_C 	C 	0.2236	0.2396	0.5125	0.011
Mof_C 	C 	0.2589	0.147	0.5144	0.027
Mof_C 	C 	0.215	0.1823	0.51	0.004
Mof_C 	C 	0.3308	0.1868	0.5092	-0.039
Mof_C 	C 	0.279	0.1795	0.4863	0.05
Mof_C 	C 	0.263	0.2769	0.4917	-0.021
Mof_C 	C 	0.3508	0.239	0.5179	0.02
Mof_C 	C 	0.3162	0.2835	0.5139	-0.003
Mof_O 	O 	0.4124	0.6517	0.9996	-0.16
Mof_O 	O 	0.348	0.5876	0.0038	-0.162
Mof_C 	C 	0.3642	0.6368	0.0093	0.283
Mof_C 	C 	0.3117	0.6672	0.0115	-0.043
Mof_C 	C 	0.3211	0.7233	0.0149	0.017
Mof_C 	C 	0.2236	0.7396	0.0125	0.03
Mof_C 	C 	0.2589	0.647	0.0144	0.013
Mof_C 	C 	0.215	0.6823	0.01	0.015
Mof_C 	C 	0.3308	0.6868	0.0092	-0.051
Mof_C 	C 	0.279	0.6795	0.9863	0.064
Mof_C 	C 	0.263	0.7769	0.9917	-0.036
Mof_C 	C 	0.3508	0.739	0.0179	0.04
Mof_C 	C 	0.3162	0.7835	0.0139	-0.018
Mof_O 	O 	0.9124	0.8483	0.0004	-0.167
Mof_O 	O 	0.848	0.9124	0.9962	-0.159
Mof_C 	C 	0.8642	0.8632	0.9907	0.292
Mof_C 	C 	0.8117	0.8328	0.9885	-0.067
Mof_C 	C 	0.8211	0.7767	0.9851	0.051
Mof_C 	C 	0.7236	0.7604	0.9875	-0.007
Mof_C 	C 	0.7589	0.853	0.9856	0.043
Mof_C 	C 	0.715	0.8177	0.99	-0.005
Mof_C 	C 	0.8308	0.8132	0.9908	-0.028
Mof_C 	C 	0.779	0.8205	0.0137	0.036
Mof_C 	C 	0.763	0.7231	0.0083	-0.005
Mof_C 	C 	0.8508	0.761	0.9821	0.003
Mof_C 	C 	0.8162	0.7165	0.9861	0.012
Mof_O 	O 	0.9124	0.3483	0.5004	-0.163
Mof_O 	O 	0.848	0.4124	0.4962	-0.161
Mof_C 	C 	0.8642	0.3632	0.4907	0.287
Mof_C 	C 	0.8117	0.3328	0.4885	-0.055
Mof_C 	C 	0.8211	0.2767	0.4851	0.034
Mof_C 	C 	0.7236	0.2604	0.4875	0.011
Mof_C 	C 	0.7589	0.353	0.4856	0.028
Mof_C 	C 	0.715	0.3177	0.49	0.005
Mof_C 	C 	0.8308	0.3132	0.4908	-0.039
Mof_C 	C 	0.779	0.3205	0.5137	0.05
Mof_C 	C 	0.763	0.2231	0.5083	-0.02
Mof_C 	C 	0.8508	0.261	0.4821	0.021
Mof_C 	C 	0.8162	0.2165	0.4861	-0.003
Mof_O 	O 	0.4124	0.8483	0.5004	-0.164
Mof_O 	O 	0.348	0.9124	0.4962	-0.16
Mof_C 	C 	0.3642	0.8632	0.4907	0.288
Mof_C 	C 	0.3117	0.8328	0.4885	-0.055
Mof_C 	C 	0.3211	0.7767	0.4851	0.034
Mof_C 	C 	0.2236	0.7604	0.4875	0.012
Mof_C 	C 	0.2589	0.853	0.4856	0.029
Mof_C 	C 	0.215	0.8177	0.49	0.005
Mof_C 	C 	0.3308	0.8132	0.4908	-0.039
Mof_C 	C 	0.279	0.8205	0.5137	0.05
Mof_C 	C 	0.263	0.7231	0.5083	-0.021
Mof_C 	C 	0.3508	0.761	0.4821	0.021
Mof_C 	C 	0.3162	0.7165	0.4861	-0.003
Mof_O 	O 	0.4124	0.3483	0.0004	-0.169
Mof_O 	O 	0.348	0.4124	0.9962	-0.161
Mof_C 	C 	0.3642	0.3632	0.9907	0.292
Mof_C 	C 	0.3117	0.3328	0.9885	-0.069
Mof_C 	C 	0.3211	0.2767	0.9851	0.053
Mof_C 	C 	0.2236	0.2604	0.9875	-0.007
Mof_C 	C 	0.2589	0.353	0.9856	0.043
Mof_C 	C 	0.215	0.3177	0.99	-0.006
Mof_C 	C 	0.3308	0.3132	0.9908	-0.027
Mof_C 	C 	0.279	0.3205	0.0137	0.036
Mof_C 	C 	0.263	0.2231	0.0083	-0.005
Mof_C 	C 	0.3508	0.261	0.9821	0.001
Mof_C 	C 	0.3162	0.2165	0.9861	0.012
Mof_O 	O 	0.0876	0.8483	0.9996	-0.16
Mof_O 	O 	0.152	0.9124	0.0038	-0.161
Mof_C 	C 	0.1358	0.8632	0.0093	0.283
Mof_C 	C 	0.1883	0.8328	0.0115	-0.044
Mof_C 	C 	0.1789	0.7767	0.0149	0.018
Mof_C 	C 	0.2764	0.7604	0.0125	0.03
Mof_C 	C 	0.2411	0.853	0.0144	0.014
Mof_C 	C 	0.285	0.8177	0.01	0.015
Mof_C 	C 	0.1692	0.8132	0.0092	-0.051
Mof_C 	C 	0.221	0.8205	0.9863	0.063
Mof_C 	C 	0.237	0.7231	0.9917	-0.036
Mof_C 	C 	0.1492	0.761	0.0179	0.038
Mof_C 	C 	0.1838	0.7165	0.0139	-0.019
Mof_O 	O 	0.0876	0.3483	0.4996	-0.165
Mof_O 	O 	0.152	0.4124	0.5038	-0.162
Mof_C 	C 	0.1358	0.3632	0.5093	0.288
Mof_C 	C 	0.1883	0.3328	0.5115	-0.057
Mof_C 	C 	0.1789	0.2767	0.5149	0.036
Mof_C 	C 	0.2764	0.2604	0.5125	0.011
Mof_C 	C 	0.2411	0.353	0.5144	0.029
Mof_C 	C 	0.285	0.3177	0.51	0.004
Mof_C 	C 	0.1692	0.3132	0.5092	-0.039
Mof_C 	C 	0.221	0.3205	0.4863	0.05
Mof_C 	C 	0.237	0.2231	0.4917	-0.021
Mof_C 	C 	0.1492	0.261	0.5179	0.019
Mof_C 	C 	0.1838	0.2165	0.5139	-0.004
Mof_O 	O 	0.5876	0.8483	0.4996	-0.164
Mof_O 	O 	0.652	0.9124	0.5038	-0.16
Mof_C 	C 	0.6358	0.8632	0.5093	0.288
Mof_C 	C 	0.6883	0.8328	0.5115	-0.055
Mof_C 	C 	0.6789	0.7767	0.5149	0.034
Mof_C 	C 	0.7764	0.7604	0.5125	0.011
Mof_C 	C 	0.7411	0.853	0.5144	0.029
Mof_C 	C 	0.785	0.8177	0.51	0.005
Mof_C 	C 	0.6692	0.8132	0.5092	-0.039
Mof_C 	C 	0.721	0.8205	0.4863	0.049
Mof_C 	C 	0.737	0.7231	0.4917	-0.021
Mof_C 	C 	0.6492	0.761	0.5179	0.021
Mof_C 	C 	0.6838	0.7165	0.5139	-0.004
Mof_O 	O 	0.5876	0.3483	0.9996	-0.16
Mof_O 	O 	0.652	0.4124	0.0038	-0.162
Mof_C 	C 	0.6358	0.3632	0.0093	0.283
Mof_C 	C 	0.6883	0.3328	0.0115	-0.044
Mof_C 	C 	0.6789	0.2767	0.0149	0.018
Mof_C 	C 	0.7764	0.2604	0.0125	0.03
Mof_C 	C 	0.7411	0.353	0.0144	0.013
Mof_C 	C 	0.785	0.3177	0.01	0.015
Mof_C 	C 	0.6692	0.3132	0.0092	-0.051
Mof_C 	C 	0.721	0.3205	0.9863	0.064
Mof_C 	C 	0.737	0.2231	0.9917	-0.036
Mof_C 	C 	0.6492	0.261	0.0179	0.039
Mof_C 	C 	0.6838	0.2165	0.0139	-0.019
Mof_O 	O 	0.0876	0.1517	0.0004	-0.169
Mof_O 	O 	0.152	0.0876	0.9962	-0.161
Mof_C 	C 	0.1358	0.1368	0.9907	0.292
Mof_C 	C 	0.1883	0.1672	0.9885	-0.069
Mof_C 	C 	0.1789	0.2233	0.9851	0.053
Mof_C 	C 	0.2764	0.2396	0.9875	-0.008
Mof_C 	C 	0.2411	0.147	0.9856	0.043
Mof_C 	C 	0.285	0.1823	0.99	-0.006
Mof_C 	C 	0.1692	0.1868	0.9908	-0.027
Mof_C 	C 	0.221	0.1795	0.0137	0.036
Mof_C 	C 	0.237	0.2769	0.0083	-0.006
Mof_C 	C 	0.1492	0.239	0.9821	0
Mof_C 	C 	0.1838	0.2835	0.9861	0.012
Mof_O 	O 	0.0876	0.6517	0.5004	-0.165
Mof_O 	O 	0.152	0.5876	0.4962	-0.162
Mof_C 	C 	0.1358	0.6368	0.4907	0.288
Mof_C 	C 	0.1883	0.6672	0.4885	-0.056
Mof_C 	C 	0.1789	0.7233	0.4851	0.035
Mof_C 	C 	0.2764	0.7396	0.4875	0.011
Mof_C 	C 	0.2411	0.647	0.4856	0.028
Mof_C 	C 	0.285	0.6823	0.49	0.005
Mof_C 	C 	0.1692	0.6868	0.4908	-0.039
Mof_C 	C 	0.221	0.6795	0.5137	0.05
Mof_C 	C 	0.237	0.7769	0.5083	-0.021
Mof_C 	C 	0.1492	0.739	0.4821	0.02
Mof_C 	C 	0.1838	0.7835	0.4861	-0.004
Mof_O 	O 	0.5876	0.1517	0.5004	-0.164
Mof_O 	O 	0.652	0.0876	0.4962	-0.162
Mof_C 	C 	0.6358	0.1368	0.4907	0.288
Mof_C 	C 	0.6883	0.1672	0.4885	-0.056
Mof_C 	C 	0.6789	0.2233	0.4851	0.034
Mof_C 	C 	0.7764	0.2396	0.4875	0.011
Mof_C 	C 	0.7411	0.147	0.4856	0.028
Mof_C 	C 	0.785	0.1823	0.49	0.005
Mof_C 	C 	0.6692	0.1868	0.4908	-0.039
Mof_C 	C 	0.721	0.1795	0.5137	0.05
Mof_C 	C 	0.737	0.2769	0.5083	-0.021
Mof_C 	C 	0.6492	0.239	0.4821	0.021
Mof_C 	C 	0.6838	0.2835	0.4861	-0.003
Mof_O 	O 	0.5876	0.6517	0.0004	-0.168
Mof_O 	O 	0.652	0.5876	0.9962	-0.161
Mof_C 	C 	0.6358	0.6368	0.9907	0.292
Mof_C 	C 	0.6883	0.6672	0.9885	-0.067
Mof_C 	C 	0.6789	0.7233	0.9851	0.051
Mof_C 	C 	0.7764	0.7396	0.9875	-0.007
Mof_C 	C 	0.7411	0.647	0.9856	0.043
Mof_C 	C 	0.785	0.6823	0.99	-0.005
Mof_C 	C 	0.6692	0.6868	0.9908	-0.028
Mof_C 	C 	0.721	0.6795	0.0137	0.036
Mof_C 	C 	0.737	0.7769	0.0083	-0.006
Mof_C 	C 	0.6492	0.739	0.9821	0.003
Mof_C 	C 	0.6838	0.7835	0.9861	0.011
Mof_O 	O 	0.9996	0.9124	0.1517	-0.159
Mof_O 	O 	0.0038	0.848	0.0876	-0.162
Mof_C 	C 	0.0093	0.8642	0.1368	0.283
Mof_C 	C 	0.0115	0.8117	0.1672	-0.043
Mof_C 	C 	0.0149	0.8211	0.2233	0.016
Mof_C 	C 	0.0125	0.7236	0.2396	0.03
Mof_C 	C 	0.0144	0.7589	0.147	0.012
Mof_C 	C 	0.01	0.715	0.1823	0.015
Mof_C 	C 	0.0092	0.8308	0.1868	-0.051
Mof_C 	C 	0.9863	0.779	0.1795	0.064
Mof_C 	C 	0.9917	0.763	0.2769	-0.036
Mof_C 	C 	0.0179	0.8508	0.239	0.04
Mof_C 	C 	0.0139	0.8162	0.2835	-0.018
Mof_O 	O 	0.9996	0.4124	0.6517	-0.16
Mof_O 	O 	0.0038	0.348	0.5876	-0.162
Mof_C 	C 	0.0093	0.3642	0.6368	0.283
Mof_C 	C 	0.0115	0.3117	0.6672	-0.043
Mof_C 	C 	0.0149	0.3211	0.7233	0.017
Mof_C 	C 	0.0125	0.2236	0.7396	0.03
Mof_C 	C 	0.0144	0.2589	0.647	0.013
Mof_C 	C 	0.01	0.215	0.6823	0.015
Mof_C 	C 	0.0092	0.3308	0.6868	-0.051
Mof_C 	C 	0.9863	0.279	0.6795	0.064
Mof_C 	C 	0.9917	0.263	0.7769	-0.036
Mof_C 	C 	0.0179	0.3508	0.739	0.04
Mof_C 	C 	0.0139	0.3162	0.7835	-0.018
Mof_O 	O 	0.4996	0.9124	0.6517	-0.163
Mof_O 	O 	0.5038	0.848	0.5876	-0.161
Mof_C 	C 	0.5093	0.8642	0.6368	0.287
Mof_C 	C 	0.5115	0.8117	0.6672	-0.054
Mof_C 	C 	0.5149	0.8211	0.7233	0.033
Mof_C 	C 	0.5125	0.7236	0.7396	0.011
Mof_C 	C 	0.5144	0.7589	0.647	0.028
Mof_C 	C 	0.51	0.715	0.6823	0.005
Mof_C 	C 	0.5092	0.8308	0.6868	-0.039
Mof_C 	C 	0.4863	0.779	0.6795	0.05
Mof_C 	C 	0.4917	0.763	0.7769	-0.02
Mof_C 	C 	0.5179	0.8508	0.739	0.022
Mof_C 	C 	0.5139	0.8162	0.7835	-0.003
Mof_O 	O 	0.4996	0.4124	0.1517	-0.164
Mof_O 	O 	0.5038	0.348	0.0876	-0.162
Mof_C 	C 	0.5093	0.3642	0.1368	0.288
Mof_C 	C 	0.5115	0.3117	0.1672	-0.056
Mof_C 	C 	0.5149	0.3211	0.2233	0.035
Mof_C 	C 	0.5125	0.2236	0.2396	0.011
Mof_C 	C 	0.5144	0.2589	0.147	0.027
Mof_C 	C 	0.51	0.215	0.1823	0.004
Mof_C 	C 	0.5092	0.3308	0.1868	-0.039
Mof_C 	C 	0.4863	0.279	0.1795	0.05
Mof_C 	C 	0.4917	0.263	0.2769	-0.021
Mof_C 	C 	0.5179	0.3508	0.239	0.02
Mof_C 	C 	0.5139	0.3162	0.2835	-0.003
Mof_O 	O 	0.0004	0.9124	0.8483	-0.167
Mof_O 	O 	0.9962	0.848	0.9124	-0.159
Mof_C 	C 	0.9907	0.8642	0.8632	0.292
Mof_C 	C 	0.9885	0.8117	0.8328	-0.067
Mof_C 	C 	0.9851	0.8211	0.7767	0.051
Mof_C 	C 	0.9875	0.7236	0.7604	-0.007
Mof_C 	C 	0.9856	0.7589	0.853	0.043
Mof_C 	C 	0.99	0.715	0.8177	-0.005
Mof_C 	C 	0.9908	0.8308	0.8132	-0.028
Mof_C 	C 	0.0137	0.779	0.8205	0.036
Mof_C 	C 	0.0083	0.763	0.7231	-0.005
Mof_C 	C 	0.9821	0.8508	0.761	0.003
Mof_C 	C 	0.9861	0.8162	0.7165	0.012
Mof_O 	O 	0.0004	0.4124	0.3483	-0.169
Mof_O 	O 	0.9962	0.348	0.4124	-0.161
Mof_C 	C 	0.9907	0.3642	0.3632	0.292
Mof_C 	C 	0.9885	0.3117	0.3328	-0.069
Mof_C 	C 	0.9851	0.3211	0.2767	0.053
Mof_C 	C 	0.9875	0.2236	0.2604	-0.007
Mof_C 	C 	0.9856	0.2589	0.353	0.043
Mof_C 	C 	0.99	0.215	0.3177	-0.006
Mof_C 	C 	0.9908	0.3308	0.3132	-0.027
Mof_C 	C 	0.0137	0.279	0.3205	0.036
Mof_C 	C 	0.0083	0.263	0.2231	-0.005
Mof_C 	C 	0.9821	0.3508	0.261	0.001
Mof_C 	C 	0.9861	0.3162	0.2165	0.012
Mof_O 	O 	0.5004	0.9124	0.3483	-0.163
Mof_O 	O 	0.4962	0.848	0.4124	-0.161
Mof_C 	C 	0.4907	0.8642	0.3632	0.287
Mof_C 	C 	0.4885	0.8117	0.3328	-0.055
Mof_C 	C 	0.4851	0.8211	0.2767	0.034
Mof_C 	C 	0.4875	0.7236	0.2604	0.011
Mof_C 	C 	0.4856	0.7589	0.353	0.028
Mof_C 	C 	0.49	0.715	0.3177	0.005
Mof_C 	C 	0.4908	0.8308	0.3132	-0.039
Mof_C 	C 	0.5137	0.779	0.3205	0.05
Mof_C 	C 	0.5083	0.763	0.2231	-0.02
Mof_C 	C 	0.4821	0.8508	0.261	0.021
Mof_C 	C 	0.4861	0.8162	0.2165	-0.003
Mof_O 	O 	0.5004	0.4124	0.8483	-0.164
Mof_O 	O 	0.4962	0.348	0.9124	-0.16
Mof_C 	C 	0.4907	0.3642	0.8632	0.288
Mof_C 	C 	0.4885	0.3117	0.8328	-0.055
Mof_C 	C 	0.4851	0.3211	0.7767	0.034
Mof_C 	C 	0.4875	0.2236	0.7604	0.012
Mof_C 	C 	0.4856	0.2589	0.853	0.029
Mof_C 	C 	0.49	0.215	0.8177	0.005
Mof_C 	C 	0.4908	0.3308	0.8132	-0.039
Mof_C 	C 	0.5137	0.279	0.8205	0.05
Mof_C 	C 	0.5083	0.263	0.7231	-0.021
Mof_C 	C 	0.4821	0.3508	0.761	0.021
Mof_C 	C 	0.4861	0.3162	0.7165	-0.003
Mof_O 	O 	0.9996	0.0876	0.8483	-0.16
Mof_O 	O 	0.0038	0.152	0.9124	-0.161
Mof_C 	C 	0.0093	0.1358	0.8632	0.283
Mof_C 	C 	0.0115	0.1883	0.8328	-0.044
Mof_C 	C 	0.0149	0.1789	0.7767	0.018
Mof_C 	C 	0.0125	0.2764	0.7604	0.03
Mof_C 	C 	0.0144	0.2411	0.853	0.014
Mof_C 	C 	0.01	0.285	0.8177	0.015
Mof_C 	C 	0.0092	0.1692	0.8132	-0.051
Mof_C 	C 	0.9863	0.221	0.8205	0.063
Mof_C 	C 	0.9917	0.237	0.7231	-0.036
Mof_C 	C 	0.0179	0.1492	0.761	0.038
Mof_C 	C 	0.0139	0.1838	0.7165	-0.019
Mof_O 	O 	0.9996	0.5876	0.3483	-0.16
Mof_O 	O 	0.0038	0.652	0.4124	-0.162
Mof_C 	C 	0.0093	0.6358	0.3632	0.283
Mof_C 	C 	0.0115	0.6883	0.3328	-0.044
Mof_C 	C 	0.0149	0.6789	0.2767	0.018
Mof_C 	C 	0.0125	0.7764	0.2604	0.03
Mof_C 	C 	0.0144	0.7411	0.353	0.013
Mof_C 	C 	0.01	0.785	0.3177	0.015
Mof_C 	C 	0.0092	0.6692	0.3132	-0.051
Mof_C 	C 	0.9863	0.721	0.3205	0.064
Mof_C 	C 	0.9917	0.737	0.2231	-0.036
Mof_C 	C 	0.0179	0.6492	0.261	0.039
Mof_C 	C 	0.0139	0.6838	0.2165	-0.019
Mof_O 	O 	0.4996	0.0876	0.3483	-0.165
Mof_O 	O 	0.5038	0.152	0.4124	-0.162
Mof_C 	C 	0.5093	0.1358	0.3632	0.288
Mof_C 	C 	0.5115	0.1883	0.3328	-0.057
Mof_C 	C 	0.5149	0.1789	0.2767	0.036
Mof_C 	C 	0.5125	0.2764	0.2604	0.011
Mof_C 	C 	0.5144	0.2411	0.353	0.029
Mof_C 	C 	0.51	0.285	0.3177	0.004
Mof_C 	C 	0.5092	0.1692	0.3132	-0.039
Mof_C 	C 	0.4863	0.221	0.3205	0.05
Mof_C 	C 	0.4917	0.237	0.2231	-0.021
Mof_C 	C 	0.5179	0.1492	0.261	0.019
Mof_C 	C 	0.5139	0.1838	0.2165	-0.004
Mof_O 	O 	0.4996	0.5876	0.8483	-0.164
Mof_O 	O 	0.5038	0.652	0.9124	-0.16
Mof_C 	C 	0.5093	0.6358	0.8632	0.288
Mof_C 	C 	0.5115	0.6883	0.8328	-0.055
Mof_C 	C 	0.5149	0.6789	0.7767	0.034
Mof_C 	C 	0.5125	0.7764	0.7604	0.011
Mof_C 	C 	0.5144	0.7411	0.853	0.029
Mof_C 	C 	0.51	0.785	0.8177	0.005
Mof_C 	C 	0.5092	0.6692	0.8132	-0.039
Mof_C 	C 	0.4863	0.721	0.8205	0.049
Mof_C 	C 	0.4917	0.737	0.7231	-0.021
Mof_C 	C 	0.5179	0.6492	0.761	0.021
Mof_C 	C 	0.5139	0.6838	0.7165	-0.004
Mof_O 	O 	0.0004	0.0876	0.1517	-0.169
Mof_O 	O 	0.9962	0.152	0.0876	-0.161
Mof_C 	C 	0.9907	0.1358	0.1368	0.292
Mof_C 	C 	0.9885	0.1883	0.1672	-0.069
Mof_C 	C 	0.9851	0.1789	0.2233	0.053
Mof_C 	C 	0.9875	0.2764	0.2396	-0.008
Mof_C 	C 	0.9856	0.2411	0.147	0.043
Mof_C 	C 	0.99	0.285	0.1823	-0.006
Mof_C 	C 	0.9908	0.1692	0.1868	-0.027
Mof_C 	C 	0.0137	0.221	0.1795	0.036
Mof_C 	C 	0.0083	0.237	0.2769	-0.006
Mof_C 	C 	0.9821	0.1492	0.239	0
Mof_C 	C 	0.9861	0.1838	0.2835	0.012
Mof_O 	O 	0.0004	0.5876	0.6517	-0.168
Mof_O 	O 	0.9962	0.652	0.5876	-0.161
Mof_C 	C 	0.9907	0.6358	0.6368	0.292
Mof_C 	C 	0.9885	0.6883	0.6672	-0.067
Mof_C 	C 	0.9851	0.6789	0.7233	0.051
Mof_C 	C 	0.9875	0.7764	0.7396	-0.007
Mof_C 	C 	0.9856	0.7411	0.647	0.043
Mof_C 	C 	0.99	0.785	0.6823	-0.005
Mof_C 	C 	0.9908	0.6692	0.6868	-0.028
Mof_C 	C 	0.0137	0.721	0.6795	0.036
Mof_C 	C 	0.0083	0.737	0.7769	-0.006
Mof_C 	C 	0.9821	0.6492	0.739	0.003
Mof_C 	C 	0.9861	0.6838	0.7835	0.011
Mof_O 	O 	0.5004	0.0876	0.6517	-0.165
Mof_O 	O 	0.4962	0.152	0.5876	-0.162
Mof_C 	C 	0.4907	0.1358	0.6368	0.288
Mof_C 	C 	0.4885	0.1883	0.6672	-0.056
Mof_C 	C 	0.4851	0.1789	0.7233	0.035
Mof_C 	C 	0.4875	0.2764	0.7396	0.011
Mof_C 	C 	0.4856	0.2411	0.647	0.028
Mof_C 	C 	0.49	0.285	0.6823	0.005
Mof_C 	C 	0.4908	0.1692	0.6868	-0.039
Mof_C 	C 	0.5137	0.221	0.6795	0.05
Mof_C 	C 	0.5083	0.237	0.7769	-0.021
Mof_C 	C 	0.4821	0.1492	0.739	0.02
Mof_C 	C 	0.4861	0.1838	0.7835	-0.004
Mof_O 	O 	0.5004	0.5876	0.1517	-0.164
Mof_O 	O 	0.4962	0.652	0.0876	-0.162
Mof_C 	C 	0.4907	0.6358	0.1368	0.288
Mof_C 	C 	0.4885	0.6883	0.1672	-0.056
Mof_C 	C 	0.4851	0.6789	0.2233	0.034
Mof_C 	C 	0.4875	0.7764	0.2396	0.011
Mof_C 	C 	0.4856	0.7411	0.147	0.028
Mof_C 	C 	0.49	0.785	0.1823	0.005
Mof_C 	C 	0.4908	0.6692	0.1868	-0.039
Mof_C 	C 	0.5137	0.721	0.1795	0.05
Mof_C 	C 	0.5083	0.737	0.2769	-0.021
Mof_C 	C 	0.4821	0.6492	0.239	0.021
Mof_C 	C 	0.4861	0.6838	0.2835	-0.003
Mof_U 	U 	0.11022	0	-0	0.039
Mof_U 	U 	0.11022	0.5	0.5	0.044
Mof_U 	U 	0.61022	0	0.5	0.042
Mof_U 	U 	0.61022	0.5	-0	0.042
Mof_U 	U 	0.88978	0	-0	0.039
Mof_U 	U 	0.88978	0.5	0.5	0.044
Mof_U 	U 	0.38978	0	0.5	0.041
Mof_U 	U 	0.38978	0.5	-0	0.041
Mof_U 	U 	-0	0.11022	-0	0.039
Mof_U 	U 	1.8747e-33	0.61022	0.5	0.042
Mof_U 	U 	0.5	0.11022	0.5	0.044
Mof_U 	U 	0.5	0.61022	-0	0.042
Mof_U 	U 	-0	0.88978	-0	0.039
Mof_U 	U 	1.8747e-33	0.38978	0.5	0.041
Mof_U 	U 	0.5	0.88978	0.5	0.044
Mof_U 	U 	0.5	0.38978	-0	0.041
Mof_U 	U 	4.13259e-34	0	0.11022	0.039
Mof_U 	U 	-4.52124e-33	0.5	0.61022	0.042
Mof_U 	U 	0.5	0	0.61022	0.042
Mof_U 	U 	0.5	0.5	0.11022	0.044
Mof_U 	U 	3.33614e-33	0	0.88978	0.039
Mof_U 	U 	1.46144e-33	0.5	0.38978	0.041
Mof_U 	U 	0.5	0	0.38978	0.041
Mof_U 	U 	0.5	0.5	0.88978	0.044
Mof_O 	O 	0.0426	0.9574	0.0426	-0.021
Mof_O 	O 	0.0426	0.4574	0.5426	-0.022
Mof_O 	O 	0.5426	0.9574	0.5426	-0.019
Mof_O 	O 	0.5426	0.4574	0.0426	-0.022
Mof_O 	O 	0.9574	0.0426	0.0426	-0.021
Mof_O 	O 	0.9574	0.5426	0.5426	-0.019
Mof_O 	O 	0.4574	0.0426	0.5426	-0.022
Mof_O 	O 	0.4574	0.5426	0.0426	-0.022
Mof_O 	O 	0.9574	0.9574	0.9574	-0.016
Mof_O 	O 	0.9574	0.4574	0.4574	-0.019
Mof_O 	O 	0.4574	0.9574	0.4574	-0.019
Mof_O 	O 	0.4574	0.4574	0.9574	-0.019
Mof_O 	O 	0.0426	0.0426	0.9574	-0.021
Mof_O 	O 	0.0426	0.5426	0.4574	-0.022
Mof_O 	O 	0.5426	0.0426	0.4574	-0.022
Mof_O 	O 	0.5426	0.5426	0.9574	-0.019
Mof_O 	O 	0.0581	0.0581	0.0581	-0.022
Mof_O 	O 	0.0581	0.5581	0.5581	-0.02
Mof_O 	O 	0.5581	0.0581	0.5581	-0.02
Mof_O 	O 	0.5581	0.5581	0.0581	-0.02
Mof_O 	O 	0.9419	0.9419	0.0581	-0.017
Mof_O 	O 	0.9419	0.4419	0.5581	-0.018
Mof_O 	O 	0.4419	0.9419	0.5581	-0.018
Mof_O 	O 	0.4419	0.4419	0.0581	-0.02
Mof_O 	O 	0.9419	0.0581	0.9419	-0.017
Mof_O 	O 	0.9419	0.5581	0.4419	-0.018
Mof_O 	O 	0.4419	0.0581	0.4419	-0.02
Mof_O 	O 	0.4419	0.5581	0.9419	-0.018
Mof_O 	O 	0.0581	0.9419	0.9419	-0.017
Mof_O 	O 	0.0581	0.4419	0.4419	-0.02
Mof_O 	O 	0.5581	0.9419	0.4419	-0.018
Mof_O 	O 	0.5581	0.4419	0.9419	-0.018
_end
