data_functionalizedCrystal
_audit_creation_method	'EQeq! by Chris Wilmer'
_symmetry_space_group_name_H-M	'P1'
_symmetry_Int_Tables_number	1
_symmetry_cell_setting	triclinic
loop_
_symmetry_equiv_pos_as_xyz
  x,y,z
_cell_length_a	11.6695
_cell_length_b	16.3235
_cell_length_c	16.3235
_cell_angle_alpha	90
_cell_angle_beta	90
_cell_angle_gamma	90
loop_
_atom_site_label
_atom_site_type_symbol
_atom_site_fract_x
_atom_site_fract_y
_atom_site_fract_z
_atom_site_charge
Mof_Zn	Zn	0.13561	0.3861	0.34743	1.225
Mof_Zn	Zn	0.13561	0.6139	0.65257	1.225
Mof_Zn	Zn	0.13561	0.65257	0.3861	1.225
Mof_Zn	Zn	0.13561	0.34743	0.6139	1.225
Mof_Zn	Zn	0.36439	0.1139	0.84743	1.225
Mof_Zn	Zn	0.36439	0.8861	0.15257	1.225
Mof_Zn	Zn	0.36439	0.84743	0.8861	1.225
Mof_Zn	Zn	0.36439	0.15257	0.1139	1.225
Mof_Zn	Zn	0.86439	0.6139	0.65257	1.222
Mof_Zn	Zn	0.86439	0.3861	0.34743	1.222
Mof_Zn	Zn	0.86439	0.34743	0.6139	1.222
Mof_Zn	Zn	0.86439	0.65257	0.3861	1.222
Mof_Zn	Zn	0.63561	0.8861	0.15257	1.225
Mof_Zn	Zn	0.63561	0.1139	0.84743	1.225
Mof_Zn	Zn	0.63561	0.15257	0.1139	1.225
Mof_Zn	Zn	0.63561	0.84743	0.8861	1.225
Mof_H 	H 	0.172	0.152	0.24	0.007
Mof_H 	H 	0.172	0.848	0.76	0.007
Mof_H 	H 	0.172	0.76	0.152	0.007
Mof_H 	H 	0.172	0.24	0.848	0.007
Mof_H 	H 	0.328	0.348	0.74	0.007
Mof_H 	H 	0.328	0.652	0.26	0.007
Mof_H 	H 	0.328	0.74	0.652	0.007
Mof_H 	H 	0.328	0.26	0.348	0.007
Mof_H 	H 	0.828	0.848	0.76	0.01
Mof_H 	H 	0.828	0.152	0.24	0.01
Mof_H 	H 	0.828	0.24	0.848	0.01
Mof_H 	H 	0.828	0.76	0.152	0.01
Mof_H 	H 	0.672	0.652	0.26	0.006
Mof_H 	H 	0.672	0.348	0.74	0.006
Mof_H 	H 	0.672	0.26	0.348	0.006
Mof_H 	H 	0.672	0.74	0.652	0.006
Mof_H 	H 	-6.01529e-33	0.483	0.401	0.293
Mof_H 	H 	-1.33104e-32	0.95	0.171	0.017
Mof_H 	H 	-4.97683e-33	0.517	0.599	0.293
Mof_H 	H 	4.34788e-33	0.05	0.829	0.017
Mof_H 	H 	2.5332e-33	0.599	0.483	0.293
Mof_H 	H 	4.98249e-33	0.829	0.95	0.017
Mof_H 	H 	-1.35253e-32	0.401	0.517	0.293
Mof_H 	H 	2.29184e-33	0.171	0.05	0.017
Mof_H 	H 	0.5	0.017	0.901	0.292
Mof_H 	H 	0.5	0.55	0.671	0.02
Mof_H 	H 	0.5	0.983	0.099	0.292
Mof_H 	H 	0.5	0.45	0.329	0.02
Mof_H 	H 	0.5	0.901	0.983	0.292
Mof_H 	H 	0.5	0.671	0.45	0.02
Mof_H 	H 	0.5	0.099	0.017	0.292
Mof_H 	H 	0.5	0.329	0.55	0.02
Mof_C 	C 	0.1028	0.125	0.2328	0.113
Mof_C 	C 	0.1035	0.0453	0.2028	-0.185
Mof_C 	C 	0.2143	0.0026	0.1847	0.408
Mof_C 	C 	0.1028	0.875	0.7672	0.113
Mof_C 	C 	0.1035	0.9547	0.7972	-0.185
Mof_C 	C 	0.2143	0.9974	0.8153	0.408
Mof_C 	C 	0.1028	0.7672	0.125	0.113
Mof_C 	C 	0.1035	0.7972	0.0453	-0.185
Mof_C 	C 	0.2143	0.8153	0.0026	0.408
Mof_C 	C 	0.1028	0.2328	0.875	0.113
Mof_C 	C 	0.1035	0.2028	0.9547	-0.185
Mof_C 	C 	0.2143	0.1847	0.9974	0.408
Mof_C 	C 	0.3972	0.375	0.7328	0.112
Mof_C 	C 	0.3965	0.4547	0.7028	-0.181
Mof_C 	C 	0.2857	0.4974	0.6847	0.406
Mof_C 	C 	0.3972	0.625	0.2672	0.112
Mof_C 	C 	0.3965	0.5453	0.2972	-0.181
Mof_C 	C 	0.2857	0.5026	0.3153	0.406
Mof_C 	C 	0.3972	0.7328	0.625	0.112
Mof_C 	C 	0.3965	0.7028	0.5453	-0.181
Mof_C 	C 	0.2857	0.6847	0.5026	0.406
Mof_C 	C 	0.3972	0.2672	0.375	0.112
Mof_C 	C 	0.3965	0.2972	0.4547	-0.181
Mof_C 	C 	0.2857	0.3153	0.4974	0.406
Mof_C 	C 	0.8972	0.875	0.7672	0.097
Mof_C 	C 	0.8965	0.9547	0.7972	-0.197
Mof_C 	C 	0.7857	0.9974	0.8153	0.409
Mof_C 	C 	0.8972	0.125	0.2328	0.097
Mof_C 	C 	0.8965	0.0453	0.2028	-0.197
Mof_C 	C 	0.7857	0.0026	0.1847	0.409
Mof_C 	C 	0.8972	0.2328	0.875	0.097
Mof_C 	C 	0.8965	0.2028	0.9547	-0.197
Mof_C 	C 	0.7857	0.1847	0.9974	0.409
Mof_C 	C 	0.8972	0.7672	0.125	0.097
Mof_C 	C 	0.8965	0.7972	0.0453	-0.197
Mof_C 	C 	0.7857	0.8153	0.0026	0.409
Mof_C 	C 	0.6028	0.625	0.2672	0.112
Mof_C 	C 	0.6035	0.5453	0.2972	-0.182
Mof_C 	C 	0.7143	0.5026	0.3153	0.406
Mof_C 	C 	0.6028	0.375	0.7328	0.112
Mof_C 	C 	0.6035	0.4547	0.7028	-0.182
Mof_C 	C 	0.7143	0.4974	0.6847	0.406
Mof_C 	C 	0.6028	0.2672	0.375	0.112
Mof_C 	C 	0.6035	0.2972	0.4547	-0.182
Mof_C 	C 	0.7143	0.3153	0.4974	0.406
Mof_C 	C 	0.6028	0.7328	0.625	0.112
Mof_C 	C 	0.6035	0.7028	0.5453	-0.182
Mof_C 	C 	0.7143	0.6847	0.5026	0.406
Mof_C 	C 	1.30908e-33	0.1642	0.2496	-0.16
Mof_C 	C 	9.95449e-34	0.0048	0.1898	0.132
Mof_C 	C 	1.49632e-33	0.2484	0.2853	0.444
Mof_C 	C 	1.20541e-32	0.8358	0.7504	-0.16
Mof_C 	C 	3.6723e-32	0.9952	0.8102	0.132
Mof_C 	C 	-4.37002e-33	0.7516	0.7147	0.444
Mof_C 	C 	-1.16842e-33	0.7504	0.1642	-0.16
Mof_C 	C 	-2.19471e-33	0.8102	0.0048	0.132
Mof_C 	C 	9.42121e-33	0.7147	0.2484	0.444
Mof_C 	C 	1.2502e-32	0.2496	0.8358	-0.16
Mof_C 	C 	5.21955e-33	0.1898	0.9952	0.132
Mof_C 	C 	3.94194e-33	0.2853	0.7516	0.444
Mof_C 	C 	0.5	0.3358	0.7496	-0.173
Mof_C 	C 	0.5	0.4952	0.6898	0.109
Mof_C 	C 	0.5	0.2516	0.7853	0.427
Mof_C 	C 	0.5	0.6642	0.2504	-0.173
Mof_C 	C 	0.5	0.5048	0.3102	0.109
Mof_C 	C 	0.5	0.7484	0.2147	0.427
Mof_C 	C 	0.5	0.7496	0.6642	-0.173
Mof_C 	C 	0.5	0.6898	0.5048	0.109
Mof_C 	C 	0.5	0.7853	0.7484	0.427
Mof_C 	C 	0.5	0.2504	0.3358	-0.173
Mof_C 	C 	0.5	0.3102	0.4952	0.109
Mof_C 	C 	0.5	0.2147	0.2516	0.427
Mof_O 	O 	0.0957	0.2799	0.3001	-0.507
Mof_O 	O 	0.3011	0.0422	0.1659	-0.514
Mof_O 	O 	0.2154	0.9257	0.1899	-0.474
Mof_O 	O 	0.0957	0.7201	0.6999	-0.507
Mof_O 	O 	0.3011	0.9578	0.8341	-0.514
Mof_O 	O 	0.2154	0.0743	0.8101	-0.474
Mof_O 	O 	0.0957	0.6999	0.2799	-0.507
Mof_O 	O 	0.3011	0.8341	0.0422	-0.514
Mof_O 	O 	0.2154	0.8101	0.9257	-0.474
Mof_O 	O 	0.0957	0.3001	0.7201	-0.507
Mof_O 	O 	0.3011	0.1659	0.9578	-0.514
Mof_O 	O 	0.2154	0.1899	0.0743	-0.474
Mof_O 	O 	0.4043	0.2201	0.8001	-0.505
Mof_O 	O 	0.1989	0.4578	0.6659	-0.512
Mof_O 	O 	0.2846	0.5743	0.6899	-0.474
Mof_O 	O 	0.4043	0.7799	0.1999	-0.505
Mof_O 	O 	0.1989	0.5422	0.3341	-0.512
Mof_O 	O 	0.2846	0.4257	0.3101	-0.474
Mof_O 	O 	0.4043	0.8001	0.7799	-0.505
Mof_O 	O 	0.1989	0.6659	0.5422	-0.512
Mof_O 	O 	0.2846	0.6899	0.4257	-0.474
Mof_O 	O 	0.4043	0.1999	0.2201	-0.505
Mof_O 	O 	0.1989	0.3341	0.4578	-0.512
Mof_O 	O 	0.2846	0.3101	0.5743	-0.474
Mof_O 	O 	0.9043	0.7201	0.6999	-0.521
Mof_O 	O 	0.6989	0.9578	0.8341	-0.515
Mof_O 	O 	0.7846	0.0743	0.8101	-0.479
Mof_O 	O 	0.9043	0.2799	0.3001	-0.521
Mof_O 	O 	0.6989	0.0422	0.1659	-0.515
Mof_O 	O 	0.7846	0.9257	0.1899	-0.479
Mof_O 	O 	0.9043	0.3001	0.7201	-0.521
Mof_O 	O 	0.6989	0.1659	0.9578	-0.515
Mof_O 	O 	0.7846	0.1899	0.0743	-0.479
Mof_O 	O 	0.9043	0.6999	0.2799	-0.521
Mof_O 	O 	0.6989	0.8341	0.0422	-0.515
Mof_O 	O 	0.7846	0.8101	0.9257	-0.479
Mof_O 	O 	0.5957	0.7799	0.1999	-0.506
Mof_O 	O 	0.8011	0.5422	0.3341	-0.518
Mof_O 	O 	0.7154	0.4257	0.3101	-0.476
Mof_O 	O 	0.5957	0.2201	0.8001	-0.506
Mof_O 	O 	0.8011	0.4578	0.6659	-0.518
Mof_O 	O 	0.7154	0.5743	0.6899	-0.476
Mof_O 	O 	0.5957	0.1999	0.2201	-0.506
Mof_O 	O 	0.8011	0.3341	0.4578	-0.518
Mof_O 	O 	0.7154	0.3101	0.5743	-0.476
Mof_O 	O 	0.5957	0.8001	0.7799	-0.506
Mof_O 	O 	0.8011	0.6659	0.5422	-0.518
Mof_O 	O 	0.7154	0.6899	0.4257	-0.476
Mof_O 	O 	1.01927e-32	0.431	0.3955	-0.819
Mof_O 	O 	3.17044e-33	0.569	0.6045	-0.819
Mof_O 	O 	1.03789e-32	0.6045	0.431	-0.819
Mof_O 	O 	2.98425e-33	0.3955	0.569	-0.819
Mof_O 	O 	0.5	0.069	0.8955	-0.826
Mof_O 	O 	0.5	0.931	0.1045	-0.826
Mof_O 	O 	0.5	0.8955	0.931	-0.826
Mof_O 	O 	0.5	0.1045	0.069	-0.826
_end
