data_functionalizedCrystal
_audit_creation_method	'EQeq! by Chris Wilmer'
_symmetry_space_group_name_H-M	'P1'
_symmetry_Int_Tables_number	1
_symmetry_cell_setting	triclinic
loop_
_symmetry_equiv_pos_as_xyz
  x,y,z
_cell_length_a	15.155
_cell_length_b	26.139
_cell_length_c	31.908
_cell_angle_alpha	90
_cell_angle_beta	90
_cell_angle_gamma	90
loop_
_atom_site_label
_atom_site_type_symbol
_atom_site_fract_x
_atom_site_fract_y
_atom_site_fract_z
_atom_site_charge
Mof_O 	O 	0.4887	0.4119	0.60175	-0.51
Mof_O 	O 	0.3542	0.434	0.6157	-0.531
Mof_O 	O 	0.4891	0.3391	0.5298	-0.509
Mof_O 	O 	0.3552	0.3126	0.5183	-0.533
Mof_C 	C 	0.4367	0.3106	0.5095	0.369
Mof_C 	C 	0.4688	0.2786	0.4746	-0.178
Mof_C 	C 	0.4138	0.2438	0.4544	0.5
Mof_C 	C 	0.5559	0.284	0.4618	-0.222
Mof_C 	C 	0.446	0.2145	0.4215	-0.221
Mof_N 	N 	0.3273	0.2357	0.4666	0.59
Mof_C 	C 	0.5881	0.2547	0.4288	0.51
Mof_H 	H 	0.5935	0.3078	0.4756	0.132
Mof_H 	H 	0.4085	0.1908	0.4077	0.141
Mof_C 	C 	0.5332	0.22	0.40865	-0.177
Mof_H 	H 	0.295	0.2127	0.4536	-0.087
Mof_H 	H 	0.3046	0.2535	0.4874	-0.041
Mof_H 	H 	0.6477	0.2584	0.42	-0.705
Mof_C 	C 	0.5649	0.187	0.3733	0.383
Mof_H 	H 	0.6457	0.4901	0.7132	-0.681
Mof_N 	N 	0.326	0.514	0.6661	0.619
Mof_H 	H 	0.2948	0.5381	0.6789	-0.103
Mof_H 	H 	0.3029	0.4967	0.6454	-0.049
Mof_O 	O 	0.4887	0.9119	0.10175	-0.509
Mof_O 	O 	0.3542	0.934	0.1157	-0.53
Mof_O 	O 	0.4891	0.8391	0.0298	-0.508
Mof_O 	O 	0.3552	0.8126	0.0183	-0.533
Mof_C 	C 	0.4367	0.8106	0.0095	0.37
Mof_C 	C 	0.4688	0.7786	0.9746	-0.177
Mof_C 	C 	0.4138	0.7438	0.9544	0.5
Mof_C 	C 	0.5559	0.784	0.9618	-0.222
Mof_C 	C 	0.446	0.7145	0.9215	-0.221
Mof_N 	N 	0.3273	0.7357	0.9666	0.59
Mof_C 	C 	0.5881	0.7547	0.9288	0.51
Mof_H 	H 	0.5935	0.8078	0.9756	0.132
Mof_H 	H 	0.4085	0.6908	0.9077	0.141
Mof_C 	C 	0.5332	0.72	0.90865	-0.177
Mof_H 	H 	0.295	0.7127	0.9536	-0.087
Mof_H 	H 	0.3046	0.7535	0.9874	-0.041
Mof_H 	H 	0.6477	0.7584	0.92	-0.705
Mof_C 	C 	0.5649	0.687	0.8733	0.383
Mof_H 	H 	0.6457	0.9901	0.2132	-0.681
Mof_N 	N 	0.326	0.014	0.1661	0.618
Mof_H 	H 	0.2948	0.0381	0.1789	-0.103
Mof_H 	H 	0.3029	0.9967	0.1454	-0.049
Mof_O 	O 	0.9887	0.4119	0.10175	-0.509
Mof_O 	O 	0.8542	0.434	0.1157	-0.53
Mof_O 	O 	0.9891	0.3391	0.0298	-0.509
Mof_O 	O 	0.8552	0.3126	0.0183	-0.533
Mof_C 	C 	0.9367	0.3106	0.0095	0.37
Mof_C 	C 	0.9688	0.2786	0.9746	-0.178
Mof_C 	C 	0.9138	0.2438	0.9544	0.501
Mof_C 	C 	0.0559	0.284	0.9618	-0.221
Mof_C 	C 	0.946	0.2145	0.9215	-0.222
Mof_N 	N 	0.8273	0.2357	0.9666	0.59
Mof_C 	C 	0.0881	0.2547	0.9288	0.509
Mof_H 	H 	0.0935	0.3078	0.9756	0.132
Mof_H 	H 	0.9085	0.1908	0.9077	0.141
Mof_C 	C 	0.0332	0.22	0.90865	-0.176
Mof_H 	H 	0.795	0.2127	0.9536	-0.087
Mof_H 	H 	0.8046	0.2535	0.9874	-0.041
Mof_H 	H 	0.1477	0.2584	0.92	-0.705
Mof_C 	C 	0.0649	0.187	0.8733	0.383
Mof_H 	H 	0.1457	0.4901	0.2132	-0.681
Mof_N 	N 	0.826	0.514	0.1661	0.619
Mof_H 	H 	0.7948	0.5381	0.1789	-0.103
Mof_H 	H 	0.8029	0.4967	0.1454	-0.049
Mof_O 	O 	0.9887	0.9119	0.60175	-0.509
Mof_O 	O 	0.8542	0.934	0.6157	-0.53
Mof_O 	O 	0.9891	0.8391	0.5298	-0.508
Mof_O 	O 	0.8552	0.8126	0.5183	-0.532
Mof_C 	C 	0.9367	0.8106	0.5095	0.37
Mof_C 	C 	0.9688	0.7786	0.4746	-0.176
Mof_C 	C 	0.9138	0.7438	0.4544	0.5
Mof_C 	C 	0.0559	0.784	0.4618	-0.223
Mof_C 	C 	0.946	0.7145	0.4215	-0.22
Mof_N 	N 	0.8273	0.7357	0.4666	0.591
Mof_C 	C 	0.0881	0.7547	0.4288	0.51
Mof_H 	H 	0.0935	0.8078	0.4756	0.132
Mof_H 	H 	0.9085	0.6908	0.4077	0.141
Mof_C 	C 	0.0332	0.72	0.40865	-0.178
Mof_H 	H 	0.795	0.7127	0.4536	-0.087
Mof_H 	H 	0.8046	0.7535	0.4874	-0.041
Mof_H 	H 	0.1477	0.7584	0.42	-0.705
Mof_C 	C 	0.0649	0.687	0.3733	0.384
Mof_H 	H 	0.1457	0.9901	0.7132	-0.682
Mof_N 	N 	0.826	0.014	0.6661	0.619
Mof_H 	H 	0.7948	0.0381	0.6789	-0.104
Mof_H 	H 	0.8029	0.9967	0.6454	-0.049
Mof_O 	O 	0.2613	0.3381	0.60175	-0.509
Mof_O 	O 	0.3958	0.316	0.6157	-0.53
Mof_O 	O 	0.2609	0.4109	0.5298	-0.508
Mof_O 	O 	0.3948	0.4374	0.5183	-0.532
Mof_C 	C 	0.3133	0.4394	0.5095	0.37
Mof_C 	C 	0.2812	0.4714	0.4746	-0.177
Mof_C 	C 	0.3362	0.5062	0.4544	0.5
Mof_C 	C 	0.1941	0.466	0.4618	-0.222
Mof_C 	C 	0.304	0.5355	0.4215	-0.221
Mof_N 	N 	0.4227	0.5143	0.4666	0.59
Mof_C 	C 	0.1619	0.4953	0.4288	0.51
Mof_H 	H 	0.1565	0.4422	0.4756	0.132
Mof_H 	H 	0.3415	0.5592	0.4077	0.141
Mof_C 	C 	0.2168	0.53	0.40865	-0.177
Mof_H 	H 	0.455	0.5373	0.4536	-0.087
Mof_H 	H 	0.4454	0.4965	0.4874	-0.041
Mof_H 	H 	0.1023	0.4916	0.42	-0.705
Mof_C 	C 	0.1851	0.563	0.3733	0.383
Mof_H 	H 	0.1043	0.2599	0.7132	-0.681
Mof_N 	N 	0.424	0.236	0.6661	0.619
Mof_H 	H 	0.4552	0.2119	0.6789	-0.103
Mof_H 	H 	0.4471	0.2533	0.6454	-0.049
Mof_O 	O 	0.2613	0.8381	0.10175	-0.509
Mof_O 	O 	0.3958	0.816	0.1157	-0.53
Mof_O 	O 	0.2609	0.9109	0.0298	-0.509
Mof_O 	O 	0.3948	0.9374	0.0183	-0.533
Mof_C 	C 	0.3133	0.9394	0.0095	0.37
Mof_C 	C 	0.2812	0.9714	0.9746	-0.177
Mof_C 	C 	0.3362	0.0062	0.9544	0.501
Mof_C 	C 	0.1941	0.966	0.9618	-0.222
Mof_C 	C 	0.304	0.0355	0.9215	-0.222
Mof_N 	N 	0.4227	0.0143	0.9666	0.59
Mof_C 	C 	0.1619	0.9953	0.9288	0.509
Mof_H 	H 	0.1565	0.9422	0.9756	0.132
Mof_H 	H 	0.3415	0.0592	0.9077	0.141
Mof_C 	C 	0.2168	0.03	0.90865	-0.176
Mof_H 	H 	0.455	0.0373	0.9536	-0.087
Mof_H 	H 	0.4454	0.9965	0.9874	-0.041
Mof_H 	H 	0.1023	0.9916	0.92	-0.706
Mof_C 	C 	0.1851	0.063	0.8733	0.383
Mof_H 	H 	0.1043	0.7599	0.2132	-0.681
Mof_N 	N 	0.424	0.736	0.1661	0.619
Mof_H 	H 	0.4552	0.7119	0.1789	-0.103
Mof_H 	H 	0.4471	0.7533	0.1454	-0.049
Mof_O 	O 	0.7613	0.3381	0.10175	-0.509
Mof_O 	O 	0.8958	0.316	0.1157	-0.53
Mof_O 	O 	0.7609	0.4109	0.0298	-0.508
Mof_O 	O 	0.8948	0.4374	0.0183	-0.533
Mof_C 	C 	0.8133	0.4394	0.0095	0.37
Mof_C 	C 	0.7812	0.4714	0.9746	-0.177
Mof_C 	C 	0.8362	0.5062	0.9544	0.5
Mof_C 	C 	0.6941	0.466	0.9618	-0.222
Mof_C 	C 	0.804	0.5355	0.9215	-0.221
Mof_N 	N 	0.9227	0.5143	0.9666	0.59
Mof_C 	C 	0.6619	0.4953	0.9288	0.51
Mof_H 	H 	0.6565	0.4422	0.9756	0.132
Mof_H 	H 	0.8415	0.5592	0.9077	0.141
Mof_C 	C 	0.7168	0.53	0.90865	-0.177
Mof_H 	H 	0.955	0.5373	0.9536	-0.087
Mof_H 	H 	0.9454	0.4965	0.9874	-0.041
Mof_H 	H 	0.6023	0.4916	0.92	-0.705
Mof_C 	C 	0.6851	0.563	0.8733	0.383
Mof_H 	H 	0.6043	0.2599	0.2132	-0.681
Mof_N 	N 	0.924	0.236	0.1661	0.618
Mof_H 	H 	0.9552	0.2119	0.1789	-0.104
Mof_H 	H 	0.9471	0.2533	0.1454	-0.049
Mof_O 	O 	0.7613	0.8381	0.60175	-0.509
Mof_O 	O 	0.8958	0.816	0.6157	-0.53
Mof_O 	O 	0.7609	0.9109	0.5298	-0.508
Mof_O 	O 	0.8948	0.9374	0.5183	-0.532
Mof_C 	C 	0.8133	0.9394	0.5095	0.37
Mof_C 	C 	0.7812	0.9714	0.4746	-0.176
Mof_C 	C 	0.8362	0.0062	0.4544	0.5
Mof_C 	C 	0.6941	0.966	0.4618	-0.223
Mof_C 	C 	0.804	0.0355	0.4215	-0.221
Mof_N 	N 	0.9227	0.0143	0.4666	0.591
Mof_C 	C 	0.6619	0.9953	0.4288	0.51
Mof_H 	H 	0.6565	0.9422	0.4756	0.132
Mof_H 	H 	0.8415	0.0592	0.4077	0.141
Mof_C 	C 	0.7168	0.03	0.40865	-0.178
Mof_H 	H 	0.955	0.0373	0.4536	-0.087
Mof_H 	H 	0.9454	0.9965	0.4874	-0.041
Mof_H 	H 	0.6023	0.9916	0.42	-0.705
Mof_C 	C 	0.6851	0.063	0.3733	0.384
Mof_H 	H 	0.6043	0.7599	0.7132	-0.681
Mof_N 	N 	0.924	0.736	0.6661	0.619
Mof_H 	H 	0.9552	0.7119	0.6789	-0.103
Mof_H 	H 	0.9471	0.7533	0.6454	-0.049
Mof_O 	O 	0.7387	0.5881	0.85175	-0.509
Mof_O 	O 	0.6042	0.566	0.8657	-0.53
Mof_O 	O 	0.7391	0.6609	0.7798	-0.508
Mof_O 	O 	0.6052	0.6874	0.7683	-0.532
Mof_C 	C 	0.6867	0.6894	0.7595	0.37
Mof_C 	C 	0.7188	0.7214	0.7246	-0.177
Mof_C 	C 	0.6638	0.7562	0.7044	0.5
Mof_C 	C 	0.8059	0.716	0.7118	-0.222
Mof_C 	C 	0.696	0.7855	0.6715	-0.221
Mof_N 	N 	0.5773	0.7643	0.7166	0.59
Mof_C 	C 	0.8381	0.7453	0.6788	0.51
Mof_H 	H 	0.8435	0.6922	0.7256	0.132
Mof_H 	H 	0.6585	0.8092	0.6577	0.141
Mof_C 	C 	0.7832	0.78	0.65865	-0.177
Mof_H 	H 	0.545	0.7873	0.7036	-0.087
Mof_H 	H 	0.5546	0.7465	0.7374	-0.041
Mof_H 	H 	0.8977	0.7416	0.67	-0.705
Mof_C 	C 	0.8149	0.813	0.6233	0.383
Mof_H 	H 	0.8957	0.5099	0.9632	-0.681
Mof_N 	N 	0.576	0.486	0.9161	0.619
Mof_H 	H 	0.5448	0.4619	0.9289	-0.103
Mof_H 	H 	0.5529	0.5033	0.8954	-0.049
Mof_O 	O 	0.7387	0.0881	0.35175	-0.509
Mof_O 	O 	0.6042	0.066	0.3657	-0.53
Mof_O 	O 	0.7391	0.1609	0.2798	-0.509
Mof_O 	O 	0.6052	0.1874	0.2683	-0.532
Mof_C 	C 	0.6867	0.1894	0.2595	0.37
Mof_C 	C 	0.7188	0.2214	0.2246	-0.177
Mof_C 	C 	0.6638	0.2562	0.2044	0.5
Mof_C 	C 	0.8059	0.216	0.2118	-0.222
Mof_C 	C 	0.696	0.2855	0.1715	-0.221
Mof_N 	N 	0.5773	0.2643	0.2166	0.59
Mof_C 	C 	0.8381	0.2453	0.1788	0.509
Mof_H 	H 	0.8435	0.1922	0.2256	0.132
Mof_H 	H 	0.6585	0.3092	0.1577	0.141
Mof_C 	C 	0.7832	0.28	0.15865	-0.177
Mof_H 	H 	0.545	0.2873	0.2036	-0.087
Mof_H 	H 	0.5546	0.2465	0.2374	-0.041
Mof_H 	H 	0.8977	0.2416	0.17	-0.705
Mof_C 	C 	0.8149	0.313	0.1233	0.383
Mof_H 	H 	0.8957	0.0099	0.4632	-0.683
Mof_N 	N 	0.576	0.986	0.4161	0.618
Mof_H 	H 	0.5448	0.9619	0.4289	-0.103
Mof_H 	H 	0.5529	0.0033	0.3954	-0.049
Mof_O 	O 	0.2387	0.5881	0.35175	-0.509
Mof_O 	O 	0.1042	0.566	0.3657	-0.53
Mof_O 	O 	0.2391	0.6609	0.2798	-0.508
Mof_O 	O 	0.1052	0.6874	0.2683	-0.533
Mof_C 	C 	0.1867	0.6894	0.2595	0.37
Mof_C 	C 	0.2188	0.7214	0.2246	-0.177
Mof_C 	C 	0.1638	0.7562	0.2044	0.5
Mof_C 	C 	0.3059	0.716	0.2118	-0.222
Mof_C 	C 	0.196	0.7855	0.1715	-0.221
Mof_N 	N 	0.0773	0.7643	0.2166	0.59
Mof_C 	C 	0.3381	0.7453	0.1788	0.51
Mof_H 	H 	0.3435	0.6922	0.2256	0.132
Mof_H 	H 	0.1585	0.8092	0.1577	0.141
Mof_C 	C 	0.2832	0.78	0.15865	-0.177
Mof_H 	H 	0.045	0.7873	0.2036	-0.087
Mof_H 	H 	0.0546	0.7465	0.2374	-0.041
Mof_H 	H 	0.3977	0.7416	0.17	-0.705
Mof_C 	C 	0.3149	0.813	0.1233	0.384
Mof_H 	H 	0.3957	0.5099	0.4632	-0.681
Mof_N 	N 	0.076	0.486	0.4161	0.619
Mof_H 	H 	0.0448	0.4619	0.4289	-0.104
Mof_H 	H 	0.0529	0.5033	0.3954	-0.049
Mof_O 	O 	0.2387	0.0881	0.85175	-0.509
Mof_O 	O 	0.1042	0.066	0.8657	-0.53
Mof_O 	O 	0.2391	0.1609	0.7798	-0.508
Mof_O 	O 	0.1052	0.1874	0.7683	-0.532
Mof_C 	C 	0.1867	0.1894	0.7595	0.37
Mof_C 	C 	0.2188	0.2214	0.7246	-0.177
Mof_C 	C 	0.1638	0.2562	0.7044	0.5
Mof_C 	C 	0.3059	0.216	0.7118	-0.222
Mof_C 	C 	0.196	0.2855	0.6715	-0.221
Mof_N 	N 	0.0773	0.2643	0.7166	0.59
Mof_C 	C 	0.3381	0.2453	0.6788	0.51
Mof_H 	H 	0.3435	0.1922	0.7256	0.132
Mof_H 	H 	0.1585	0.3092	0.6577	0.141
Mof_C 	C 	0.2832	0.28	0.65865	-0.177
Mof_H 	H 	0.045	0.2873	0.7036	-0.087
Mof_H 	H 	0.0546	0.2465	0.7374	-0.041
Mof_H 	H 	0.3977	0.2416	0.67	-0.705
Mof_C 	C 	0.3149	0.313	0.6233	0.383
Mof_H 	H 	0.3957	0.0099	0.9632	-0.681
Mof_N 	N 	0.076	0.986	0.9161	0.62
Mof_H 	H 	0.0448	0.9619	0.9289	-0.104
Mof_H 	H 	0.0529	0.0033	0.8954	-0.049
Mof_O 	O 	0.5113	0.6619	0.85175	-0.509
Mof_O 	O 	0.6458	0.684	0.8657	-0.53
Mof_O 	O 	0.5109	0.5891	0.7798	-0.508
Mof_O 	O 	0.6448	0.5626	0.7683	-0.532
Mof_C 	C 	0.5633	0.5606	0.7595	0.37
Mof_C 	C 	0.5312	0.5286	0.7246	-0.177
Mof_C 	C 	0.5862	0.4938	0.7044	0.5
Mof_C 	C 	0.4441	0.534	0.7118	-0.222
Mof_C 	C 	0.554	0.4645	0.6715	-0.221
Mof_N 	N 	0.6727	0.4857	0.7166	0.59
Mof_C 	C 	0.4119	0.5047	0.6788	0.51
Mof_H 	H 	0.4065	0.5578	0.7256	0.132
Mof_H 	H 	0.5915	0.4408	0.6577	0.141
Mof_C 	C 	0.4668	0.47	0.65865	-0.177
Mof_H 	H 	0.705	0.4627	0.7036	-0.087
Mof_H 	H 	0.6954	0.5035	0.7374	-0.041
Mof_H 	H 	0.3523	0.5084	0.67	-0.705
Mof_C 	C 	0.4351	0.437	0.6233	0.383
Mof_H 	H 	0.3543	0.7401	0.9632	-0.681
Mof_N 	N 	0.674	0.764	0.9161	0.619
Mof_H 	H 	0.7052	0.7881	0.9289	-0.103
Mof_H 	H 	0.6971	0.7467	0.8954	-0.049
Mof_O 	O 	0.5113	0.1619	0.35175	-0.509
Mof_O 	O 	0.6458	0.184	0.3657	-0.53
Mof_O 	O 	0.5109	0.0891	0.2798	-0.508
Mof_O 	O 	0.6448	0.0626	0.2683	-0.533
Mof_C 	C 	0.5633	0.0606	0.2595	0.37
Mof_C 	C 	0.5312	0.0286	0.2246	-0.177
Mof_C 	C 	0.5862	0.9938	0.2044	0.5
Mof_C 	C 	0.4441	0.034	0.2118	-0.222
Mof_C 	C 	0.554	0.9645	0.1715	-0.221
Mof_N 	N 	0.6727	0.9857	0.2166	0.59
Mof_C 	C 	0.4119	0.0047	0.1788	0.51
Mof_H 	H 	0.4065	0.0578	0.2256	0.132
Mof_H 	H 	0.5915	0.9408	0.1577	0.141
Mof_C 	C 	0.4668	0.97	0.15865	-0.177
Mof_H 	H 	0.705	0.9627	0.2036	-0.087
Mof_H 	H 	0.6954	0.0035	0.2374	-0.041
Mof_H 	H 	0.3523	0.0084	0.17	-0.705
Mof_C 	C 	0.4351	0.937	0.1233	0.383
Mof_H 	H 	0.3543	0.2401	0.4632	-0.681
Mof_N 	N 	0.674	0.264	0.4161	0.619
Mof_H 	H 	0.7052	0.2881	0.4289	-0.103
Mof_H 	H 	0.6971	0.2467	0.3954	-0.049
Mof_O 	O 	0.0113	0.6619	0.35175	-0.509
Mof_O 	O 	0.1458	0.684	0.3657	-0.53
Mof_O 	O 	0.0109	0.5891	0.2798	-0.509
Mof_O 	O 	0.1448	0.5626	0.2683	-0.533
Mof_C 	C 	0.0633	0.5606	0.2595	0.37
Mof_C 	C 	0.0312	0.5286	0.2246	-0.177
Mof_C 	C 	0.0862	0.4938	0.2044	0.5
Mof_C 	C 	0.9441	0.534	0.2118	-0.222
Mof_C 	C 	0.054	0.4645	0.1715	-0.221
Mof_N 	N 	0.1727	0.4857	0.2166	0.59
Mof_C 	C 	0.9119	0.5047	0.1788	0.51
Mof_H 	H 	0.9065	0.5578	0.2256	0.132
Mof_H 	H 	0.0915	0.4408	0.1577	0.141
Mof_C 	C 	0.9668	0.47	0.15865	-0.177
Mof_H 	H 	0.205	0.4627	0.2036	-0.087
Mof_H 	H 	0.1954	0.5035	0.2374	-0.041
Mof_H 	H 	0.8523	0.5084	0.17	-0.705
Mof_C 	C 	0.9351	0.437	0.1233	0.384
Mof_H 	H 	0.8543	0.7401	0.4632	-0.682
Mof_N 	N 	0.174	0.764	0.4161	0.618
Mof_H 	H 	0.2052	0.7881	0.4289	-0.103
Mof_H 	H 	0.1971	0.7467	0.3954	-0.049
Mof_O 	O 	0.0113	0.1619	0.85175	-0.509
Mof_O 	O 	0.1458	0.184	0.8657	-0.53
Mof_O 	O 	0.0109	0.0891	0.7798	-0.508
Mof_O 	O 	0.1448	0.0626	0.7683	-0.532
Mof_C 	C 	0.0633	0.0606	0.7595	0.37
Mof_C 	C 	0.0312	0.0286	0.7246	-0.175
Mof_C 	C 	0.0862	0.9938	0.7044	0.5
Mof_C 	C 	0.9441	0.034	0.7118	-0.224
Mof_C 	C 	0.054	0.9645	0.6715	-0.223
Mof_N 	N 	0.1727	0.9857	0.7166	0.591
Mof_C 	C 	0.9119	0.0047	0.6788	0.509
Mof_H 	H 	0.9065	0.0578	0.7256	0.133
Mof_H 	H 	0.0915	0.9408	0.6577	0.141
Mof_C 	C 	0.9668	0.97	0.65865	-0.176
Mof_H 	H 	0.205	0.9627	0.7036	-0.087
Mof_H 	H 	0.1954	0.0035	0.7374	-0.041
Mof_H 	H 	0.8523	0.0084	0.67	-0.706
Mof_C 	C 	0.9351	0.937	0.6233	0.383
Mof_H 	H 	0.8543	0.2401	0.9632	-0.681
Mof_N 	N 	0.174	0.264	0.9161	0.619
Mof_H 	H 	0.2052	0.2881	0.9289	-0.104
Mof_H 	H 	0.1971	0.2467	0.8954	-0.049
Mof_In	In	0.375	0.375	0.5656	2.597
Mof_In	In	0.375	0.875	0.0656	2.597
Mof_In	In	0.875	0.375	0.0656	2.597
Mof_In	In	0.875	0.875	0.5656	2.597
Mof_In	In	0.625	0.625	0.8156	2.597
Mof_In	In	0.625	0.125	0.3156	2.597
Mof_In	In	0.125	0.625	0.3156	2.597
Mof_In	In	0.125	0.125	0.8156	2.597
Mof_O 	O 	0.2613	0.4119	0.14825	-0.509
Mof_O 	O 	0.3958	0.434	0.1343	-0.53
Mof_O 	O 	0.2609	0.3391	0.2202	-0.508
Mof_O 	O 	0.3948	0.3126	0.2317	-0.532
Mof_C 	C 	0.3133	0.3106	0.2405	0.37
Mof_C 	C 	0.2812	0.2786	0.2754	-0.177
Mof_C 	C 	0.3362	0.2438	0.2956	0.5
Mof_C 	C 	0.1941	0.284	0.2882	-0.222
Mof_C 	C 	0.304	0.2145	0.3285	-0.221
Mof_N 	N 	0.4227	0.2357	0.2834	0.59
Mof_C 	C 	0.1619	0.2547	0.3212	0.51
Mof_H 	H 	0.1565	0.3078	0.2744	0.132
Mof_H 	H 	0.3415	0.1908	0.3423	0.141
Mof_C 	C 	0.2168	0.22	0.34135	-0.177
Mof_H 	H 	0.455	0.2127	0.2964	-0.087
Mof_H 	H 	0.4454	0.2535	0.2626	-0.041
Mof_H 	H 	0.1023	0.2584	0.33	-0.705
Mof_C 	C 	0.1851	0.187	0.3767	0.383
Mof_H 	H 	0.1043	0.4901	0.0368	-0.681
Mof_N 	N 	0.424	0.514	0.0839	0.619
Mof_H 	H 	0.4552	0.5381	0.0711	-0.103
Mof_H 	H 	0.4471	0.4967	0.1046	-0.049
Mof_O 	O 	0.2613	0.9119	0.64825	-0.509
Mof_O 	O 	0.3958	0.934	0.6343	-0.53
Mof_O 	O 	0.2609	0.8391	0.7202	-0.509
Mof_O 	O 	0.3948	0.8126	0.7317	-0.532
Mof_C 	C 	0.3133	0.8106	0.7405	0.37
Mof_C 	C 	0.2812	0.7786	0.7754	-0.177
Mof_C 	C 	0.3362	0.7438	0.7956	0.5
Mof_C 	C 	0.1941	0.784	0.7882	-0.222
Mof_C 	C 	0.304	0.7145	0.8285	-0.221
Mof_N 	N 	0.4227	0.7357	0.7834	0.59
Mof_C 	C 	0.1619	0.7547	0.8212	0.509
Mof_H 	H 	0.1565	0.8078	0.7744	0.132
Mof_H 	H 	0.3415	0.6908	0.8423	0.141
Mof_C 	C 	0.2168	0.72	0.84135	-0.177
Mof_H 	H 	0.455	0.7127	0.7964	-0.087
Mof_H 	H 	0.4454	0.7535	0.7626	-0.041
Mof_H 	H 	0.1023	0.7584	0.83	-0.705
Mof_C 	C 	0.1851	0.687	0.8767	0.383
Mof_H 	H 	0.1043	0.9901	0.5368	-0.683
Mof_N 	N 	0.424	0.014	0.5839	0.618
Mof_H 	H 	0.4552	0.0381	0.5711	-0.103
Mof_H 	H 	0.4471	0.9967	0.6046	-0.049
Mof_O 	O 	0.7613	0.4119	0.64825	-0.509
Mof_O 	O 	0.8958	0.434	0.6343	-0.53
Mof_O 	O 	0.7609	0.3391	0.7202	-0.508
Mof_O 	O 	0.8948	0.3126	0.7317	-0.533
Mof_C 	C 	0.8133	0.3106	0.7405	0.37
Mof_C 	C 	0.7812	0.2786	0.7754	-0.177
Mof_C 	C 	0.8362	0.2438	0.7956	0.5
Mof_C 	C 	0.6941	0.284	0.7882	-0.222
Mof_C 	C 	0.804	0.2145	0.8285	-0.221
Mof_N 	N 	0.9227	0.2357	0.7834	0.59
Mof_C 	C 	0.6619	0.2547	0.8212	0.51
Mof_H 	H 	0.6565	0.3078	0.7744	0.132
Mof_H 	H 	0.8415	0.1908	0.8423	0.141
Mof_C 	C 	0.7168	0.22	0.84135	-0.177
Mof_H 	H 	0.955	0.2127	0.7964	-0.087
Mof_H 	H 	0.9454	0.2535	0.7626	-0.041
Mof_H 	H 	0.6023	0.2584	0.83	-0.705
Mof_C 	C 	0.6851	0.187	0.8767	0.384
Mof_H 	H 	0.6043	0.4901	0.5368	-0.681
Mof_N 	N 	0.924	0.514	0.5839	0.619
Mof_H 	H 	0.9552	0.5381	0.5711	-0.104
Mof_H 	H 	0.9471	0.4967	0.6046	-0.049
Mof_O 	O 	0.7613	0.9119	0.14825	-0.509
Mof_O 	O 	0.8958	0.934	0.1343	-0.53
Mof_O 	O 	0.7609	0.8391	0.2202	-0.508
Mof_O 	O 	0.8948	0.8126	0.2317	-0.532
Mof_C 	C 	0.8133	0.8106	0.2405	0.37
Mof_C 	C 	0.7812	0.7786	0.2754	-0.177
Mof_C 	C 	0.8362	0.7438	0.2956	0.5
Mof_C 	C 	0.6941	0.784	0.2882	-0.222
Mof_C 	C 	0.804	0.7145	0.3285	-0.221
Mof_N 	N 	0.9227	0.7357	0.2834	0.59
Mof_C 	C 	0.6619	0.7547	0.3212	0.51
Mof_H 	H 	0.6565	0.8078	0.2744	0.132
Mof_H 	H 	0.8415	0.6908	0.3423	0.141
Mof_C 	C 	0.7168	0.72	0.34135	-0.177
Mof_H 	H 	0.955	0.7127	0.2964	-0.087
Mof_H 	H 	0.9454	0.7535	0.2626	-0.041
Mof_H 	H 	0.6023	0.7584	0.33	-0.705
Mof_C 	C 	0.6851	0.687	0.3767	0.383
Mof_H 	H 	0.6043	0.9901	0.0368	-0.681
Mof_N 	N 	0.924	0.014	0.0839	0.62
Mof_H 	H 	0.9552	0.0381	0.0711	-0.104
Mof_H 	H 	0.9471	0.9967	0.1046	-0.049
Mof_O 	O 	0.4887	0.3381	0.14825	-0.509
Mof_O 	O 	0.3542	0.316	0.1343	-0.53
Mof_O 	O 	0.4891	0.4109	0.2202	-0.508
Mof_O 	O 	0.3552	0.4374	0.2317	-0.532
Mof_C 	C 	0.4367	0.4394	0.2405	0.37
Mof_C 	C 	0.4688	0.4714	0.2754	-0.177
Mof_C 	C 	0.4138	0.5062	0.2956	0.5
Mof_C 	C 	0.5559	0.466	0.2882	-0.222
Mof_C 	C 	0.446	0.5355	0.3285	-0.221
Mof_N 	N 	0.3273	0.5143	0.2834	0.59
Mof_C 	C 	0.5881	0.4953	0.3212	0.51
Mof_H 	H 	0.5935	0.4422	0.2744	0.132
Mof_H 	H 	0.4085	0.5592	0.3423	0.141
Mof_C 	C 	0.5332	0.53	0.34135	-0.177
Mof_H 	H 	0.295	0.5373	0.2964	-0.087
Mof_H 	H 	0.3046	0.4965	0.2626	-0.041
Mof_H 	H 	0.6477	0.4916	0.33	-0.705
Mof_C 	C 	0.5649	0.563	0.3767	0.383
Mof_H 	H 	0.6457	0.2599	0.0368	-0.681
Mof_N 	N 	0.326	0.236	0.0839	0.619
Mof_H 	H 	0.2948	0.2119	0.0711	-0.103
Mof_H 	H 	0.3029	0.2533	0.1046	-0.049
Mof_O 	O 	0.4887	0.8381	0.64825	-0.509
Mof_O 	O 	0.3542	0.816	0.6343	-0.53
Mof_O 	O 	0.4891	0.9109	0.7202	-0.508
Mof_O 	O 	0.3552	0.9374	0.7317	-0.533
Mof_C 	C 	0.4367	0.9394	0.7405	0.37
Mof_C 	C 	0.4688	0.9714	0.7754	-0.177
Mof_C 	C 	0.4138	0.0062	0.7956	0.5
Mof_C 	C 	0.5559	0.966	0.7882	-0.222
Mof_C 	C 	0.446	0.0355	0.8285	-0.221
Mof_N 	N 	0.3273	0.0143	0.7834	0.59
Mof_C 	C 	0.5881	0.9953	0.8212	0.51
Mof_H 	H 	0.5935	0.9422	0.7744	0.132
Mof_H 	H 	0.4085	0.0592	0.8423	0.141
Mof_C 	C 	0.5332	0.03	0.84135	-0.177
Mof_H 	H 	0.295	0.0373	0.7964	-0.087
Mof_H 	H 	0.3046	0.9965	0.7626	-0.041
Mof_H 	H 	0.6477	0.9916	0.83	-0.705
Mof_C 	C 	0.5649	0.063	0.8767	0.383
Mof_H 	H 	0.6457	0.7599	0.5368	-0.681
Mof_N 	N 	0.326	0.736	0.5839	0.619
Mof_H 	H 	0.2948	0.7119	0.5711	-0.103
Mof_H 	H 	0.3029	0.7533	0.6046	-0.049
Mof_O 	O 	0.9887	0.3381	0.64825	-0.509
Mof_O 	O 	0.8542	0.316	0.6343	-0.53
Mof_O 	O 	0.9891	0.4109	0.7202	-0.509
Mof_O 	O 	0.8552	0.4374	0.7317	-0.533
Mof_C 	C 	0.9367	0.4394	0.7405	0.37
Mof_C 	C 	0.9688	0.4714	0.7754	-0.177
Mof_C 	C 	0.9138	0.5062	0.7956	0.5
Mof_C 	C 	0.0559	0.466	0.7882	-0.222
Mof_C 	C 	0.946	0.5355	0.8285	-0.221
Mof_N 	N 	0.8273	0.5143	0.7834	0.59
Mof_C 	C 	0.0881	0.4953	0.8212	0.51
Mof_H 	H 	0.0935	0.4422	0.7744	0.132
Mof_H 	H 	0.9085	0.5592	0.8423	0.141
Mof_C 	C 	0.0332	0.53	0.84135	-0.177
Mof_H 	H 	0.795	0.5373	0.7964	-0.087
Mof_H 	H 	0.8046	0.4965	0.7626	-0.041
Mof_H 	H 	0.1477	0.4916	0.83	-0.705
Mof_C 	C 	0.0649	0.563	0.8767	0.384
Mof_H 	H 	0.1457	0.2599	0.5368	-0.682
Mof_N 	N 	0.826	0.236	0.5839	0.618
Mof_H 	H 	0.7948	0.2119	0.5711	-0.103
Mof_H 	H 	0.8029	0.2533	0.6046	-0.049
Mof_O 	O 	0.9887	0.8381	0.14825	-0.509
Mof_O 	O 	0.8542	0.816	0.1343	-0.53
Mof_O 	O 	0.9891	0.9109	0.2202	-0.508
Mof_O 	O 	0.8552	0.9374	0.2317	-0.532
Mof_C 	C 	0.9367	0.9394	0.2405	0.37
Mof_C 	C 	0.9688	0.9714	0.2754	-0.175
Mof_C 	C 	0.9138	0.0062	0.2956	0.5
Mof_C 	C 	0.0559	0.966	0.2882	-0.224
Mof_C 	C 	0.946	0.0355	0.3285	-0.223
Mof_N 	N 	0.8273	0.0143	0.2834	0.591
Mof_C 	C 	0.0881	0.9953	0.3212	0.509
Mof_H 	H 	0.0935	0.9422	0.2744	0.133
Mof_H 	H 	0.9085	0.0592	0.3423	0.141
Mof_C 	C 	0.0332	0.03	0.34135	-0.176
Mof_H 	H 	0.795	0.0373	0.2964	-0.087
Mof_H 	H 	0.8046	0.9965	0.2626	-0.041
Mof_H 	H 	0.1477	0.9916	0.33	-0.706
Mof_C 	C 	0.0649	0.063	0.3767	0.383
Mof_H 	H 	0.1457	0.7599	0.0368	-0.681
Mof_N 	N 	0.826	0.736	0.0839	0.619
Mof_H 	H 	0.7948	0.7119	0.0711	-0.104
Mof_H 	H 	0.8029	0.7533	0.1046	-0.049
Mof_O 	O 	0.5113	0.5881	0.39825	-0.509
Mof_O 	O 	0.6458	0.566	0.3843	-0.53
Mof_O 	O 	0.5109	0.6609	0.4702	-0.508
Mof_O 	O 	0.6448	0.6874	0.4817	-0.532
Mof_C 	C 	0.5633	0.6894	0.4905	0.37
Mof_C 	C 	0.5312	0.7214	0.5254	-0.177
Mof_C 	C 	0.5862	0.7562	0.5456	0.5
Mof_C 	C 	0.4441	0.716	0.5382	-0.222
Mof_C 	C 	0.554	0.7855	0.5785	-0.221
Mof_N 	N 	0.6727	0.7643	0.5334	0.59
Mof_C 	C 	0.4119	0.7453	0.5712	0.51
Mof_H 	H 	0.4065	0.6922	0.5244	0.132
Mof_H 	H 	0.5915	0.8092	0.5923	0.141
Mof_C 	C 	0.4668	0.78	0.59135	-0.177
Mof_H 	H 	0.705	0.7873	0.5464	-0.087
Mof_H 	H 	0.6954	0.7465	0.5126	-0.041
Mof_H 	H 	0.3523	0.7416	0.58	-0.705
Mof_C 	C 	0.4351	0.813	0.6267	0.383
Mof_H 	H 	0.3543	0.5099	0.2868	-0.681
Mof_N 	N 	0.674	0.486	0.3339	0.619
Mof_H 	H 	0.7052	0.4619	0.3211	-0.103
Mof_H 	H 	0.6971	0.5033	0.3546	-0.049
Mof_O 	O 	0.5113	0.0881	0.89825	-0.509
Mof_O 	O 	0.6458	0.066	0.8843	-0.53
Mof_O 	O 	0.5109	0.1609	0.9702	-0.508
Mof_O 	O 	0.6448	0.1874	0.9817	-0.533
Mof_C 	C 	0.5633	0.1894	0.9905	0.37
Mof_C 	C 	0.5312	0.2214	0.0254	-0.177
Mof_C 	C 	0.5862	0.2562	0.0456	0.5
Mof_C 	C 	0.4441	0.216	0.0382	-0.222
Mof_C 	C 	0.554	0.2855	0.0785	-0.221
Mof_N 	N 	0.6727	0.2643	0.0334	0.59
Mof_C 	C 	0.4119	0.2453	0.0712	0.51
Mof_H 	H 	0.4065	0.1922	0.0244	0.132
Mof_H 	H 	0.5915	0.3092	0.0923	0.141
Mof_C 	C 	0.4668	0.28	0.09135	-0.177
Mof_H 	H 	0.705	0.2873	0.0464	-0.087
Mof_H 	H 	0.6954	0.2465	0.0126	-0.041
Mof_H 	H 	0.3523	0.2416	0.08	-0.705
Mof_C 	C 	0.4351	0.313	0.1267	0.383
Mof_H 	H 	0.3543	0.0099	0.7868	-0.681
Mof_N 	N 	0.674	0.986	0.8339	0.618
Mof_H 	H 	0.7052	0.9619	0.8211	-0.103
Mof_H 	H 	0.6971	0.0033	0.8546	-0.049
Mof_O 	O 	0.0113	0.5881	0.89825	-0.509
Mof_O 	O 	0.1458	0.566	0.8843	-0.53
Mof_O 	O 	0.0109	0.6609	0.9702	-0.509
Mof_O 	O 	0.1448	0.6874	0.9817	-0.533
Mof_C 	C 	0.0633	0.6894	0.9905	0.37
Mof_C 	C 	0.0312	0.7214	0.0254	-0.178
Mof_C 	C 	0.0862	0.7562	0.0456	0.501
Mof_C 	C 	0.9441	0.716	0.0382	-0.221
Mof_C 	C 	0.054	0.7855	0.0785	-0.222
Mof_N 	N 	0.1727	0.7643	0.0334	0.59
Mof_C 	C 	0.9119	0.7453	0.0712	0.509
Mof_H 	H 	0.9065	0.6922	0.0244	0.132
Mof_H 	H 	0.0915	0.8092	0.0923	0.141
Mof_C 	C 	0.9668	0.78	0.09135	-0.176
Mof_H 	H 	0.205	0.7873	0.0464	-0.087
Mof_H 	H 	0.1954	0.7465	0.0126	-0.041
Mof_H 	H 	0.8523	0.7416	0.08	-0.705
Mof_C 	C 	0.9351	0.813	0.1267	0.383
Mof_H 	H 	0.8543	0.5099	0.7868	-0.681
Mof_N 	N 	0.174	0.486	0.8339	0.619
Mof_H 	H 	0.2052	0.4619	0.8211	-0.103
Mof_H 	H 	0.1971	0.5033	0.8546	-0.049
Mof_O 	O 	0.0113	0.0881	0.39825	-0.509
Mof_O 	O 	0.1458	0.066	0.3843	-0.53
Mof_O 	O 	0.0109	0.1609	0.4702	-0.508
Mof_O 	O 	0.1448	0.1874	0.4817	-0.532
Mof_C 	C 	0.0633	0.1894	0.4905	0.37
Mof_C 	C 	0.0312	0.2214	0.5254	-0.176
Mof_C 	C 	0.0862	0.2562	0.5456	0.5
Mof_C 	C 	0.9441	0.216	0.5382	-0.223
Mof_C 	C 	0.054	0.2855	0.5785	-0.22
Mof_N 	N 	0.1727	0.2643	0.5334	0.591
Mof_C 	C 	0.9119	0.2453	0.5712	0.51
Mof_H 	H 	0.9065	0.1922	0.5244	0.132
Mof_H 	H 	0.0915	0.3092	0.5923	0.141
Mof_C 	C 	0.9668	0.28	0.59135	-0.178
Mof_H 	H 	0.205	0.2873	0.5464	-0.087
Mof_H 	H 	0.1954	0.2465	0.5126	-0.041
Mof_H 	H 	0.8523	0.2416	0.58	-0.705
Mof_C 	C 	0.9351	0.313	0.6267	0.384
Mof_H 	H 	0.8543	0.0099	0.2868	-0.682
Mof_N 	N 	0.174	0.986	0.3339	0.619
Mof_H 	H 	0.2052	0.9619	0.3211	-0.104
Mof_H 	H 	0.1971	0.0033	0.3546	-0.049
Mof_O 	O 	0.7387	0.6619	0.39825	-0.509
Mof_O 	O 	0.6042	0.684	0.3843	-0.53
Mof_O 	O 	0.7391	0.5891	0.4702	-0.508
Mof_O 	O 	0.6052	0.5626	0.4817	-0.532
Mof_C 	C 	0.6867	0.5606	0.4905	0.37
Mof_C 	C 	0.7188	0.5286	0.5254	-0.177
Mof_C 	C 	0.6638	0.4938	0.5456	0.5
Mof_C 	C 	0.8059	0.534	0.5382	-0.222
Mof_C 	C 	0.696	0.4645	0.5785	-0.221
Mof_N 	N 	0.5773	0.4857	0.5334	0.59
Mof_C 	C 	0.8381	0.5047	0.5712	0.51
Mof_H 	H 	0.8435	0.5578	0.5244	0.132
Mof_H 	H 	0.6585	0.4408	0.5923	0.141
Mof_C 	C 	0.7832	0.47	0.59135	-0.177
Mof_H 	H 	0.545	0.4627	0.5464	-0.087
Mof_H 	H 	0.5546	0.5035	0.5126	-0.041
Mof_H 	H 	0.8977	0.5084	0.58	-0.705
Mof_C 	C 	0.8149	0.437	0.6267	0.383
Mof_H 	H 	0.8957	0.7401	0.2868	-0.681
Mof_N 	N 	0.576	0.764	0.3339	0.619
Mof_H 	H 	0.5448	0.7881	0.3211	-0.103
Mof_H 	H 	0.5529	0.7467	0.3546	-0.049
Mof_O 	O 	0.7387	0.1619	0.89825	-0.509
Mof_O 	O 	0.6042	0.184	0.8843	-0.53
Mof_O 	O 	0.7391	0.0891	0.9702	-0.509
Mof_O 	O 	0.6052	0.0626	0.9817	-0.533
Mof_C 	C 	0.6867	0.0606	0.9905	0.37
Mof_C 	C 	0.7188	0.0286	0.0254	-0.177
Mof_C 	C 	0.6638	0.9938	0.0456	0.501
Mof_C 	C 	0.8059	0.034	0.0382	-0.222
Mof_C 	C 	0.696	0.9645	0.0785	-0.222
Mof_N 	N 	0.5773	0.9857	0.0334	0.59
Mof_C 	C 	0.8381	0.0047	0.0712	0.509
Mof_H 	H 	0.8435	0.0578	0.0244	0.132
Mof_H 	H 	0.6585	0.9408	0.0923	0.141
Mof_C 	C 	0.7832	0.97	0.09135	-0.176
Mof_H 	H 	0.545	0.9627	0.0464	-0.087
Mof_H 	H 	0.5546	0.0035	0.0126	-0.041
Mof_H 	H 	0.8977	0.0084	0.08	-0.706
Mof_C 	C 	0.8149	0.937	0.1267	0.383
Mof_H 	H 	0.8957	0.2401	0.7868	-0.681
Mof_N 	N 	0.576	0.264	0.8339	0.619
Mof_H 	H 	0.5448	0.2881	0.8211	-0.103
Mof_H 	H 	0.5529	0.2467	0.8546	-0.049
Mof_O 	O 	0.2387	0.6619	0.89825	-0.509
Mof_O 	O 	0.1042	0.684	0.8843	-0.53
Mof_O 	O 	0.2391	0.5891	0.9702	-0.508
Mof_O 	O 	0.1052	0.5626	0.9817	-0.533
Mof_C 	C 	0.1867	0.5606	0.9905	0.37
Mof_C 	C 	0.2188	0.5286	0.0254	-0.177
Mof_C 	C 	0.1638	0.4938	0.0456	0.5
Mof_C 	C 	0.3059	0.534	0.0382	-0.222
Mof_C 	C 	0.196	0.4645	0.0785	-0.221
Mof_N 	N 	0.0773	0.4857	0.0334	0.59
Mof_C 	C 	0.3381	0.5047	0.0712	0.51
Mof_H 	H 	0.3435	0.5578	0.0244	0.132
Mof_H 	H 	0.1585	0.4408	0.0923	0.141
Mof_C 	C 	0.2832	0.47	0.09135	-0.177
Mof_H 	H 	0.045	0.4627	0.0464	-0.087
Mof_H 	H 	0.0546	0.5035	0.0126	-0.041
Mof_H 	H 	0.3977	0.5084	0.08	-0.705
Mof_C 	C 	0.3149	0.437	0.1267	0.383
Mof_H 	H 	0.3957	0.7401	0.7868	-0.681
Mof_N 	N 	0.076	0.764	0.8339	0.618
Mof_H 	H 	0.0448	0.7881	0.8211	-0.104
Mof_H 	H 	0.0529	0.7467	0.8546	-0.049
Mof_O 	O 	0.2387	0.1619	0.39825	-0.509
Mof_O 	O 	0.1042	0.184	0.3843	-0.53
Mof_O 	O 	0.2391	0.0891	0.4702	-0.508
Mof_O 	O 	0.1052	0.0626	0.4817	-0.532
Mof_C 	C 	0.1867	0.0606	0.4905	0.37
Mof_C 	C 	0.2188	0.0286	0.5254	-0.176
Mof_C 	C 	0.1638	0.9938	0.5456	0.5
Mof_C 	C 	0.3059	0.034	0.5382	-0.223
Mof_C 	C 	0.196	0.9645	0.5785	-0.221
Mof_N 	N 	0.0773	0.9857	0.5334	0.591
Mof_C 	C 	0.3381	0.0047	0.5712	0.51
Mof_H 	H 	0.3435	0.0578	0.5244	0.132
Mof_H 	H 	0.1585	0.9408	0.5923	0.141
Mof_C 	C 	0.2832	0.97	0.59135	-0.178
Mof_H 	H 	0.045	0.9627	0.5464	-0.087
Mof_H 	H 	0.0546	0.0035	0.5126	-0.041
Mof_H 	H 	0.3977	0.0084	0.58	-0.705
Mof_C 	C 	0.3149	0.937	0.6267	0.384
Mof_H 	H 	0.3957	0.2401	0.2868	-0.681
Mof_N 	N 	0.076	0.264	0.3339	0.619
Mof_H 	H 	0.0448	0.2881	0.3211	-0.103
Mof_H 	H 	0.0529	0.2467	0.3546	-0.049
Mof_In	In	0.375	0.375	0.1844	2.597
Mof_In	In	0.375	0.875	0.6844	2.597
Mof_In	In	0.875	0.375	0.6844	2.597
Mof_In	In	0.875	0.875	0.1844	2.597
Mof_In	In	0.625	0.625	0.4344	2.597
Mof_In	In	0.625	0.125	0.9344	2.597
Mof_In	In	0.125	0.625	0.9344	2.597
Mof_In	In	0.125	0.125	0.4344	2.597
_end
