data_functionalizedCrystal
_audit_creation_method	'EQeq! by Chris Wilmer'
_symmetry_space_group_name_H-M	'P1'
_symmetry_Int_Tables_number	1
_symmetry_cell_setting	triclinic
loop_
_symmetry_equiv_pos_as_xyz
  x,y,z
_cell_length_a	20.723
_cell_length_b	5.2095
_cell_length_c	17.8741
_cell_angle_alpha	90
_cell_angle_beta	90
_cell_angle_gamma	90
loop_
_atom_site_label
_atom_site_type_symbol
_atom_site_fract_x
_atom_site_fract_y
_atom_site_fract_z
_atom_site_charge
Mof_Zn	Zn	0.14899	0.78467	0.42511	1.219
Mof_Zn	Zn	0.24657	0.27287	0.394	1.216
Mof_Zn	Zn	0.37154	0.65091	0.40747	1.22
Mof_Zn	Zn	0.00102	0.22523	0.44115	1.227
Mof_Zn	Zn	0.24991	0.61516	0.12879	1.21
Mof_P 	P 	0.25749	0.7646	0.30388	0.554
Mof_P 	P 	0.13943	0.2694	0.52174	0.543
Mof_P 	P 	0.01207	0.75	0.3461	0.539
Mof_P 	P 	0.35927	0.1488	0.50469	0.552
Mof_O 	O 	0.22073	0.6233	0.3691	-0.663
Mof_O 	O 	0.32875	0.7041	0.31356	-0.505
Mof_O 	O 	0.23178	0.6618	0.23078	-0.483
Mof_O 	O 	0.24308	0.0476	0.3113	-0.509
Mof_O 	O 	0.16251	0.1939	0.60005	-0.456
Mof_O 	O 	0.18145	0.1249	0.4623	-0.665
Mof_O 	O 	0.14948	0.5594	0.51157	-0.51
Mof_O 	O 	0.07017	0.1883	0.51322	-0.479
Mof_O 	O 	0.9637	0.9004	0.3979	-0.626
Mof_O 	O 	0.07755	0.8657	0.3648	-0.526
Mof_O 	O 	0.0072	0.465	0.3621	-0.499
Mof_O 	O 	0.99616	0.8014	0.265	-0.227
Mof_O 	O 	0.33178	0.3171	0.43984	-0.655
Mof_O 	O 	0.342	0.8678	0.48901	-0.525
Mof_O 	O 	0.32733	0.2316	0.57776	-0.469
Mof_O 	O 	0.43096	0.192	0.5101	-0.468
Mof_Zn	Zn	0.85101	0.21533	0.92511	1.207
Mof_Zn	Zn	0.75343	0.72713	0.894	1.214
Mof_Zn	Zn	0.62846	0.34909	0.90747	1.218
Mof_Zn	Zn	0.99898	0.77477	0.94115	1.207
Mof_Zn	Zn	0.75009	0.38484	0.62879	1.204
Mof_P 	P 	0.74251	0.2354	0.80388	0.562
Mof_P 	P 	0.86057	0.7306	0.02174	0.589
Mof_P 	P 	0.98793	0.25	0.8461	0.54
Mof_P 	P 	0.64073	0.8512	0.00469	0.642
Mof_O 	O 	0.77927	0.3767	0.8691	-0.671
Mof_O 	O 	0.67125	0.2959	0.81356	-0.506
Mof_O 	O 	0.76822	0.3382	0.73078	-0.487
Mof_O 	O 	0.75692	0.9524	0.8113	-0.519
Mof_O 	O 	0.83749	0.8061	0.10005	-0.454
Mof_O 	O 	0.81855	0.8751	0.9623	-0.72
Mof_O 	O 	0.85052	0.4406	0.01157	-0.475
Mof_O 	O 	0.92983	0.8117	0.01322	-0.452
Mof_O 	O 	0.0363	0.0996	0.8979	-0.639
Mof_O 	O 	0.92245	0.1343	0.8648	-0.535
Mof_O 	O 	0.9928	0.535	0.8621	-0.512
Mof_O 	O 	0.00384	0.1986	0.765	-0.23
Mof_O 	O 	0.66822	0.6829	0.93984	-0.703
Mof_O 	O 	0.658	0.1322	0.98901	-0.583
Mof_O 	O 	0.67267	0.7684	0.07776	-0.463
Mof_O 	O 	0.56904	0.808	0.0101	-0.446
Mof_Zn	Zn	0.64899	0.71533	0.42511	1.219
Mof_Zn	Zn	0.74657	0.22713	0.394	1.216
Mof_Zn	Zn	0.87154	0.84909	0.40747	1.221
Mof_Zn	Zn	0.50102	0.27477	0.44115	1.227
Mof_Zn	Zn	0.74991	0.88484	0.12879	1.21
Mof_P 	P 	0.75749	0.7354	0.30388	0.56
Mof_P 	P 	0.63943	0.2306	0.52174	0.543
Mof_P 	P 	0.51207	0.75	0.3461	0.539
Mof_P 	P 	0.85927	0.3512	0.50469	0.548
Mof_O 	O 	0.72073	0.8767	0.3691	-0.663
Mof_O 	O 	0.82875	0.7959	0.31356	-0.504
Mof_O 	O 	0.73178	0.8382	0.23078	-0.483
Mof_O 	O 	0.74308	0.4524	0.3113	-0.515
Mof_O 	O 	0.66251	0.3061	0.60005	-0.457
Mof_O 	O 	0.68145	0.3751	0.4623	-0.667
Mof_O 	O 	0.64948	0.9406	0.51157	-0.509
Mof_O 	O 	0.57017	0.3117	0.51322	-0.48
Mof_O 	O 	0.4637	0.5996	0.3979	-0.627
Mof_O 	O 	0.57755	0.6343	0.3648	-0.523
Mof_O 	O 	0.5072	0.035	0.3621	-0.495
Mof_O 	O 	0.49616	0.6986	0.265	-0.23
Mof_O 	O 	0.83178	0.1829	0.43984	-0.655
Mof_O 	O 	0.842	0.6322	0.48901	-0.52
Mof_O 	O 	0.82733	0.2684	0.57776	-0.469
Mof_O 	O 	0.93096	0.308	0.5101	-0.467
Mof_Zn	Zn	0.35101	0.28467	0.92511	1.207
Mof_Zn	Zn	0.25343	0.77287	0.894	1.212
Mof_Zn	Zn	0.12846	0.15091	0.90747	1.219
Mof_Zn	Zn	0.49898	0.72523	0.94115	1.207
Mof_Zn	Zn	0.25009	0.11516	0.62879	1.205
Mof_P 	P 	0.24251	0.2646	0.80388	0.561
Mof_P 	P 	0.36057	0.7694	0.02174	0.58
Mof_P 	P 	0.48793	0.25	0.8461	0.544
Mof_P 	P 	0.14073	0.6488	0.00469	0.639
Mof_O 	O 	0.27927	0.1233	0.8691	-0.668
Mof_O 	O 	0.17125	0.2041	0.81356	-0.505
Mof_O 	O 	0.26822	0.1618	0.73078	-0.485
Mof_O 	O 	0.25692	0.5476	0.8113	-0.52
Mof_O 	O 	0.33749	0.6939	0.10005	-0.454
Mof_O 	O 	0.31855	0.6249	0.9623	-0.717
Mof_O 	O 	0.35052	0.0594	0.01157	-0.471
Mof_O 	O 	0.42983	0.6883	0.01322	-0.453
Mof_O 	O 	0.5363	0.4004	0.8979	-0.644
Mof_O 	O 	0.42245	0.3657	0.8648	-0.536
Mof_O 	O 	0.4928	0.965	0.8621	-0.515
Mof_O 	O 	0.50384	0.3014	0.765	-0.232
Mof_O 	O 	0.16822	0.8171	0.93984	-0.703
Mof_O 	O 	0.158	0.3678	0.98901	-0.58
Mof_O 	O 	0.17267	0.7316	0.07776	-0.465
Mof_O 	O 	0.06904	0.692	0.0101	-0.448
_end
