# CIF file generated by openbabel 3.1.0, see https://openbabel.org
data_I
_chemical_name_common 'image0'
_cell_length_a 7.7092
_cell_length_b 9.1132
_cell_length_c 12.2839
_cell_angle_alpha 90
_cell_angle_beta 90
_cell_angle_gamma 90
_space_group_name_H-M_alt 'P 1'
_space_group_name_Hall 'P 1'
loop_
    _symmetry_equiv_pos_as_xyz
    x,y,z
loop_
    _atom_site_label
    _atom_site_type_symbol
    _atom_site_fract_x
    _atom_site_fract_y
    _atom_site_fract_z
    _atom_site_occupancy
    O1       O        0.75800    0.63200    0.43870    1.000
    O2       O        0.07870    0.64630    0.34410    1.000
    C1       C        0.51240    0.71080    0.34030    1.000
    H1       H        0.45290    0.66370    0.40150    1.000
    H2       H        0.47150    0.66790    0.27180    1.000
    H3       H        0.48750    0.81630    0.34080    1.000
    C2       C        0.70580    0.68700    0.35080    1.000
    C3       C        0.81790    0.72520    0.26370    1.000
    C4       C        0.00130    0.70350    0.26610    1.000
    C5       C        0.10690    0.75780    0.17000    1.000
    H4       H        0.21050    0.80890    0.19660    1.000
    H5       H        0.03670    0.82550    0.12650    1.000
    H6       H        0.14190    0.67410    0.12500    1.000
    C6       C        0.74110    0.79900    0.17320    1.000
    N1       N        0.67610    0.85520    0.10110    1.000
    O3       O        0.24200    0.36800    0.43870    1.000
    O4       O        0.92130    0.35370    0.34410    1.000
    C7       C        0.48760    0.28920    0.34030    1.000
    H7       H        0.54710    0.33630    0.40150    1.000
    H8       H        0.52850    0.33210    0.27180    1.000
    H9       H        0.51250    0.18370    0.34080    1.000
    C8       C        0.29420    0.31300    0.35080    1.000
    C9       C        0.18210    0.27480    0.26370    1.000
    C10      C        0.99870    0.29650    0.26610    1.000
    C11      C        0.89310    0.24220    0.17000    1.000
    H10      H        0.78950    0.19110    0.19660    1.000
    H11      H        0.96330    0.17450    0.12650    1.000
    H12      H        0.85810    0.32590    0.12500    1.000
    C12      C        0.25890    0.20100    0.17320    1.000
    N2       N        0.32390    0.14480    0.10110    1.000
    O5       O        0.24200    0.63200    0.56130    1.000
    O6       O        0.92130    0.64630    0.65590    1.000
    C13      C        0.48760    0.71080    0.65970    1.000
    H13      H        0.54710    0.66370    0.59850    1.000
    H14      H        0.52850    0.66790    0.72820    1.000
    H15      H        0.51250    0.81630    0.65920    1.000
    C14      C        0.29420    0.68700    0.64920    1.000
    C15      C        0.18210    0.72520    0.73630    1.000
    C16      C        0.99870    0.70350    0.73390    1.000
    C17      C        0.89310    0.75780    0.83000    1.000
    H16      H        0.78950    0.80890    0.80340    1.000
    H17      H        0.96330    0.82550    0.87350    1.000
    H18      H        0.85810    0.67410    0.87500    1.000
    C18      C        0.25890    0.79900    0.82680    1.000
    N3       N        0.32390    0.85520    0.89890    1.000
    O7       O        0.75800    0.36800    0.56130    1.000
    O8       O        0.07870    0.35370    0.65590    1.000
    C19      C        0.51240    0.28920    0.65970    1.000
    H19      H        0.45290    0.33630    0.59850    1.000
    H20      H        0.47150    0.33210    0.72820    1.000
    H21      H        0.48750    0.18370    0.65920    1.000
    C20      C        0.70580    0.31300    0.64920    1.000
    C21      C        0.81790    0.27480    0.73630    1.000
    C22      C        0.00130    0.29650    0.73390    1.000
    C23      C        0.10690    0.24220    0.83000    1.000
    H22      H        0.21050    0.19110    0.80340    1.000
    H23      H        0.03670    0.17450    0.87350    1.000
    H24      H        0.14190    0.32590    0.87500    1.000
    C24      C        0.74110    0.20100    0.82680    1.000
    N4       N        0.67610    0.14480    0.89890    1.000
    Eu1      Eu       0.00000    0.50000    0.50000    1.000
    Ag1      Ag       0.50000    0.00000    0.00000    1.000
