# CIF file generated by openbabel 3.1.0, see https://openbabel.org
data_I
_chemical_name_common 'image0'
_cell_length_a 6.0078
_cell_length_b 16.9401
_cell_length_c 13.0061
_cell_angle_alpha 90
_cell_angle_beta 116.158
_cell_angle_gamma 90
_space_group_name_H-M_alt 'P 1'
_space_group_name_Hall 'P 1'
loop_
    _symmetry_equiv_pos_as_xyz
    x,y,z
loop_
    _atom_site_label
    _atom_site_type_symbol
    _atom_site_fract_x
    _atom_site_fract_y
    _atom_site_fract_z
    _atom_site_occupancy
    Sr1      Sr       0.81786    0.49947    0.59430    1.000
    S1       S        0.40700    0.24147    0.29953    1.000
    O1       O        0.17860    0.09262    0.18845    1.000
    O2       O        0.44810    0.06210    0.11886    1.000
    O3       O        0.51560    0.39432    0.42877    1.000
    O4       O        0.88100    0.41452    0.43023    1.000
    C1       C        0.68180    0.37694    0.39900    1.000
    C2       C        0.64700    0.30611    0.32670    1.000
    C3       C        0.79090    0.28169    0.27580    1.000
    H1       H        0.92930    0.30920    0.28070    1.000
    C4       C        0.70750    0.21037    0.21490    1.000
    H2       H        0.78470    0.18600    0.17520    1.000
    C5       C        0.50160    0.18086    0.22040    1.000
    C6       C        0.36450    0.10591    0.17150    1.000
    Sr2      Sr       0.18214    0.99947    0.90570    1.000
    S2       S        0.59300    0.74147    0.20047    1.000
    O5       O        0.82140    0.59262    0.31155    1.000
    O6       O        0.55190    0.56210    0.38114    1.000
    O7       O        0.48440    0.89432    0.07123    1.000
    O8       O        0.11900    0.91452    0.06977    1.000
    C7       C        0.31820    0.87694    0.10100    1.000
    C8       C        0.35300    0.80611    0.17330    1.000
    C9       C        0.20910    0.78169    0.22420    1.000
    H3       H        0.07070    0.80920    0.21930    1.000
    C10      C        0.29250    0.71037    0.28510    1.000
    H4       H        0.21530    0.68600    0.32480    1.000
    C11      C        0.49840    0.68086    0.27960    1.000
    C12      C        0.63550    0.60591    0.32850    1.000
    Sr3      Sr       0.18214    0.50053    0.40570    1.000
    S3       S        0.59300    0.75853    0.70047    1.000
    O9       O        0.82140    0.90738    0.81155    1.000
    O10      O        0.55190    0.93790    0.88114    1.000
    O11      O        0.48440    0.60568    0.57123    1.000
    O12      O        0.11900    0.58548    0.56977    1.000
    C13      C        0.31820    0.62306    0.60100    1.000
    C14      C        0.35300    0.69389    0.67330    1.000
    C15      C        0.20910    0.71831    0.72420    1.000
    H5       H        0.07070    0.69080    0.71930    1.000
    C16      C        0.29250    0.78963    0.78510    1.000
    H6       H        0.21530    0.81400    0.82480    1.000
    C17      C        0.49840    0.81914    0.77960    1.000
    C18      C        0.63550    0.89409    0.82850    1.000
    Sr4      Sr       0.81786    0.00053    0.09430    1.000
    S4       S        0.40700    0.25853    0.79953    1.000
    O13      O        0.17860    0.40738    0.68845    1.000
    O14      O        0.44810    0.43790    0.61886    1.000
    O15      O        0.51560    0.10568    0.92877    1.000
    O16      O        0.88100    0.08548    0.93023    1.000
    C19      C        0.68180    0.12306    0.89900    1.000
    C20      C        0.64700    0.19389    0.82670    1.000
    C21      C        0.79090    0.21831    0.77580    1.000
    H7       H        0.92930    0.19080    0.78070    1.000
    C22      C        0.70750    0.28963    0.71490    1.000
    H8       H        0.78470    0.31400    0.67520    1.000
    C23      C        0.50160    0.31914    0.72040    1.000
    C24      C        0.36450    0.39409    0.67150    1.000
