# CIF file generated by openbabel 3.1.0, see https://openbabel.org
data_I
_chemical_name_common 'HISGAT_clean'
_cell_length_a 13.3553
_cell_length_b 14.5612
_cell_length_c 23.34
_cell_angle_alpha 107.946
_cell_angle_beta 90
_cell_angle_gamma 117.296
_space_group_name_H-M_alt 'P 1'
_space_group_name_Hall 'P 1'
loop_
    _symmetry_equiv_pos_as_xyz
    x,y,z
loop_
    _atom_site_label
    _atom_site_type_symbol
    _atom_site_fract_x
    _atom_site_fract_y
    _atom_site_fract_z
    _atom_site_occupancy
    K1       K        0.12751    0.24354    0.93014    1.000
    K2       K        0.18854    0.99488    0.87073    1.000
    K3       K        0.98598    0.00000    0.75000    1.000
    K4       K        0.87113    0.75988    0.82040    1.000
    K5       K        0.00000    0.00000    0.50000    1.000
    K6       K        0.88875    0.75988    0.32040    1.000
    K7       K        0.87249    0.75646    0.06986    1.000
    K8       K        0.19366    0.00512    0.62927    1.000
    K9       K        0.01402    0.00000    0.25000    1.000
    K10      K        0.11603    0.24354    0.43014    1.000
    K11      K        0.00000    0.00000    0.00000    1.000
    K12      K        0.81146    0.00512    0.12927    1.000
    K13      K        0.11125    0.24012    0.67960    1.000
    K14      K        0.88397    0.75646    0.56986    1.000
    K15      K        0.12887    0.24012    0.17960    1.000
    K16      K        0.80634    0.99488    0.37073    1.000
    H1       H        0.89320    0.96760    0.88830    1.000
    H2       H        0.07440    0.65280    0.49250    1.000
    H3       H        0.38940    0.52240    0.94870    1.000
    H4       H        0.78380    0.36120    0.68940    1.000
    H5       H        0.62230    0.47780    0.30170    1.000
    H6       H        0.40920    0.35480    0.75970    1.000
    H7       H        0.57740    0.36120    0.18940    1.000
    H8       H        0.59940    0.74400    0.59230    1.000
    H9       H        0.07380    0.64360    0.23570    1.000
    H10      H        0.15240    0.76480    0.35330    1.000
    H11      H        0.11130    0.00700    0.36510    1.000
    H12      H        0.41690    0.36660    0.51810    1.000
    H13      H        0.21160    0.64060    0.56290    1.000
    H14      H        0.85540    0.25600    0.90770    1.000
    H15      H        0.37770    0.52220    0.69830    1.000
    H16      H        0.42260    0.63880    0.81060    1.000
    H17      H        0.57100    0.35940    0.93710    1.000
    H18      H        0.58360    0.36060    0.69050    1.000
    H19      H        0.61240    0.76480    0.85330    1.000
    H20      H        0.40730    0.62320    0.55400    1.000
    H21      H        0.14990    0.75860    0.84930    1.000
    H22      H        0.39130    0.24140    0.65070    1.000
    H23      H        0.12060    0.51040    0.94200    1.000
    H24      H        0.89570    0.00700    0.86510    1.000
    H25      H        0.10430    0.99300    0.13490    1.000
    H26      H        0.59270    0.37680    0.44600    1.000
    H27      H        0.88260    0.48160    0.30160    1.000
    H28      H        0.21620    0.63880    0.31060    1.000
    H29      H        0.10680    0.03240    0.11170    1.000
    H30      H        0.85010    0.24140    0.15070    1.000
    H31      H        0.38760    0.23520    0.14670    1.000
    H32      H        0.59900    0.48160    0.80160    1.000
    H33      H        0.58310    0.63340    0.48190    1.000
    H34      H        0.61020    0.48960    0.55800    1.000
    H35      H        0.94970    0.36660    0.01810    1.000
    H36      H        0.40100    0.51840    0.19840    1.000
    H37      H        0.61060    0.47760    0.05130    1.000
    H38      H        0.14750    0.76600    0.60530    1.000
    H39      H        0.78410    0.37680    0.94600    1.000
    H40      H        0.77700    0.36060    0.19050    1.000
    H41      H        0.92620    0.35640    0.76430    1.000
    H42      H        0.14460    0.74400    0.09230    1.000
    H43      H        0.43020    0.35640    0.26430    1.000
    H44      H        0.40060    0.25600    0.40770    1.000
    H45      H        0.38150    0.23400    0.89470    1.000
    H46      H        0.88870    0.99300    0.63490    1.000
    H47      H        0.78840    0.35940    0.43710    1.000
    H48      H        0.57840    0.65280    0.99250    1.000
    H49      H        0.21590    0.62320    0.05400    1.000
    H50      H        0.41640    0.63940    0.30950    1.000
    H51      H        0.42900    0.64060    0.06290    1.000
    H52      H        0.11740    0.51840    0.69840    1.000
    H53      H        0.92560    0.03240    0.61170    1.000
    H54      H        0.92560    0.34720    0.50750    1.000
    H55      H        0.86700    0.47760    0.55130    1.000
    H56      H        0.22300    0.63940    0.80950    1.000
    H57      H        0.07440    0.96760    0.38830    1.000
    H58      H        0.05030    0.63340    0.98190    1.000
    H59      H        0.56980    0.64360    0.73570    1.000
    H60      H        0.85250    0.23400    0.39470    1.000
    H61      H        0.05440    0.64520    0.74030    1.000
    H62      H        0.60870    0.75860    0.34930    1.000
    H63      H        0.13300    0.52240    0.44870    1.000
    H64      H        0.87940    0.48960    0.05800    1.000
    H65      H        0.42160    0.34720    0.00750    1.000
    H66      H        0.14450    0.52220    0.19830    1.000
    H67      H        0.59080    0.64520    0.24030    1.000
    H68      H        0.94560    0.35480    0.25970    1.000
    H69      H        0.61850    0.76600    0.10530    1.000
    H70      H        0.38980    0.51040    0.44200    1.000
    H71      H        0.84760    0.23520    0.64670    1.000
    H72      H        0.85550    0.47780    0.80170    1.000
    C1       C        0.55814    0.64508    0.20508    1.000
    C2       C        0.11046    0.72412    0.42843    1.000
    C3       C        0.87606    0.43132    0.32010    1.000
    C4       C        0.54955    0.63470    0.44750    1.000
    C5       C        0.18811    0.56242    0.12264    1.000
    C6       C        0.37709    0.27898    0.82168    1.000
    C7       C        0.60241    0.43182    0.87296    1.000
    C8       C        0.10501    0.70782    0.16873    1.000
    C9       C        0.06384    0.80868    0.70704    1.000
    C10      C        0.72808    0.79356    0.69530    1.000
    C11      C        0.18034    0.64168    0.59860    1.000
    C12      C        0.44956    0.63832    0.34420    1.000
    C13      C        0.85723    0.28286    0.37550    1.000
    C14      C        0.18796    0.62772    0.09070    1.000
    C15      C        0.61451    0.43442    0.62689    1.000
    C16      C        0.93616    0.19132    0.29296    1.000
    C17      C        0.43555    0.29050    0.63170    1.000
    C18      C        0.15052    0.71764    0.37310    1.000
    C19      C        0.37431    0.56242    0.62264    1.000
    C20      C        0.57788    0.43276    0.32276    1.000
    C21      C        0.12394    0.56868    0.67990    1.000
    C22      C        0.43976    0.62772    0.59070    1.000
    C23      C        0.56637    0.42774    0.06986    1.000
    C24      C        0.18778    0.64156    0.34710    1.000
    C25      C        0.08694    0.64508    0.70508    1.000
    C26      C        0.18009    0.56558    0.87311    1.000
    C27      C        0.56712    0.71764    0.87310    1.000
    C28      C        0.81124    0.36168    0.15580    1.000
    C29      C        0.39719    0.29218    0.33127    1.000
    C30      C        0.27192    0.20644    0.30470    1.000
    C31      C        0.17059    0.56818    0.62704    1.000
    C32      C        0.09811    0.72102    0.67832    1.000
    C33      C        0.26531    0.18662    0.04210    1.000
    C34      C        0.38820    0.57040    0.87599    1.000
    C35      C        0.12761    0.56122    0.92384    1.000
    C36      C        0.10317    0.65034    0.45613    1.000
    C37      C        0.81780    0.42960    0.62401    1.000
    C38      C        0.39759    0.56818    0.12704    1.000
    C39      C        0.86137    0.42774    0.56986    1.000
    C40      C        0.46325    0.35990    0.30048    1.000
    C41      C        0.57437    0.71714    0.12450    1.000
    C42      C        0.43288    0.28236    0.12690    1.000
    C43      C        0.42563    0.28286    0.87550    1.000
    C44      C        0.14505    0.70950    0.86830    1.000
    C45      C        0.91485    0.36530    0.05250    1.000
    C46      C        0.44474    0.56868    0.17990    1.000
    C47      C        0.85432    0.29984    0.88620    1.000
    C48      C        0.44552    0.29984    0.38620    1.000
    C49      C        0.54622    0.35844    0.15290    1.000
    C50      C        0.38549    0.56558    0.37311    1.000
    C51      C        0.06548    0.79356    0.19530    1.000
    C52      C        0.93452    0.20644    0.80470    1.000
    C53      C        0.81991    0.43442    0.12689    1.000
    C54      C        0.56024    0.37228    0.40930    1.000
    C55      C        0.87239    0.43878    0.07616    1.000
    C56      C        0.81966    0.35832    0.40140    1.000
    C57      C        0.08515    0.63470    0.94750    1.000
    C58      C        0.84948    0.28236    0.62690    1.000
    C59      C        0.62291    0.72102    0.17832    1.000
    C60      C        0.14277    0.71714    0.62450    1.000
    C61      C        0.44186    0.35492    0.79492    1.000
    C62      C        0.94715    0.20810    0.05300    1.000
    C63      C        0.90526    0.29072    0.08030    1.000
    C64      C        0.09474    0.70928    0.91970    1.000
    C65      C        0.53675    0.64010    0.69952    1.000
    C66      C        0.25516    0.19132    0.79296    1.000
    C67      C        0.81189    0.43758    0.87736    1.000
    C68      C        0.89499    0.29218    0.83127    1.000
    C69      C        0.92131    0.18662    0.54210    1.000
    C70      C        0.61366    0.72412    0.92843    1.000
    C71      C        0.55448    0.70016    0.61380    1.000
    C72      C        0.53866    0.35832    0.90140    1.000
    C73      C        0.85495    0.29050    0.13170    1.000
    C74      C        0.61180    0.42960    0.12401    1.000
    C75      C        0.13863    0.57226    0.43014    1.000
    C76      C        0.89665    0.35990    0.80048    1.000
    C77      C        0.85488    0.43276    0.82276    1.000
    C78      C        0.45045    0.36530    0.55250    1.000
    C79      C        0.14568    0.70016    0.11380    1.000
    C80      C        0.56639    0.43878    0.57616    1.000
    C81      C        0.38546    0.29072    0.58030    1.000
    C82      C        0.62569    0.43758    0.37736    1.000
    C83      C        0.43363    0.57226    0.93014    1.000
    C84      C        0.89683    0.34966    0.54387    1.000
    C85      C        0.81222    0.35844    0.65290    1.000
    C86      C        0.90189    0.27898    0.32168    1.000
    C87      C        0.73905    0.79190    0.44700    1.000
    C88      C        0.26095    0.20810    0.55300    1.000
    C89      C        0.43361    0.56122    0.42384    1.000
    C90      C        0.73469    0.81338    0.95790    1.000
    C91      C        0.18876    0.63832    0.84420    1.000
    C92      C        0.38634    0.27588    0.07157    1.000
    C93      C        0.61454    0.70928    0.41970    1.000
    C94      C        0.81204    0.37228    0.90930    1.000
    C95      C        0.05285    0.79190    0.94700    1.000
    C96      C        0.91306    0.35492    0.29492    1.000
    C97      C        0.10335    0.64010    0.19952    1.000
    C98      C        0.56445    0.70950    0.36830    1.000
    C99      C        0.42212    0.56724    0.67724    1.000
    C100     C        0.46134    0.64168    0.09860    1.000
    C101     C        0.54717    0.65034    0.95613    1.000
    C102     C        0.14512    0.56724    0.17724    1.000
    C103     C        0.18220    0.57040    0.37599    1.000
    C104     C        0.74484    0.80868    0.20704    1.000
    C105     C        0.45283    0.34966    0.04387    1.000
    C106     C        0.07869    0.81338    0.45790    1.000
    C107     C        0.82941    0.43182    0.37296    1.000
    C108     C        0.55044    0.36168    0.65580    1.000
    C109     C        0.55526    0.43132    0.82010    1.000
    C110     C        0.45378    0.64156    0.84710    1.000
    C111     C        0.60281    0.70782    0.66873    1.000
    C112     C        0.88954    0.27588    0.57157    1.000
    S1       S        0.25115    0.47730    0.09603    1.000
    S2       S        0.22615    0.47730    0.59603    1.000
    S3       S        0.23734    0.47964    0.34524    1.000
    S4       S        0.74885    0.52270    0.90397    1.000
    S5       S        0.76266    0.52036    0.65476    1.000
    S6       S        0.77385    0.52270    0.40397    1.000
    S7       S        0.24230    0.47964    0.84524    1.000
    S8       S        0.75770    0.52036    0.15476    1.000
    O1       O        0.20609    0.13958    0.07593    1.000
    O2       O        0.23942    0.44664    0.03052    1.000
    O3       O        0.77007    0.55034    0.22030    1.000
    O4       O        0.93349    0.13958    0.57593    1.000
    O5       O        0.05063    0.84686    0.91491    1.000
    O6       O        0.78340    0.84340    0.66143    1.000
    O7       O        0.04622    0.99784    0.12479    1.000
    O8       O        0.05188    0.82736    0.76174    1.000
    O9       O        0.77412    0.80004    0.49827    1.000
    O10      O        0.79391    0.86042    0.92407    1.000
    O11      O        0.94855    0.14310    0.32654    1.000
    O12      O        0.94000    0.15660    0.83857    1.000
    O13      O        0.19455    0.14310    0.82654    1.000
    O14      O        0.23667    0.19294    0.25227    1.000
    O15      O        0.94937    0.15314    0.08509    1.000
    O16      O        0.22588    0.19996    0.50173    1.000
    O17      O        0.23546    0.16652    0.98692    1.000
    O18      O        0.93106    0.16652    0.48692    1.000
    O19      O        0.79035    0.60690    0.87700    1.000
    O20      O        0.18345    0.39310    0.62300    1.000
    O21      O        0.06894    0.83348    0.51308    1.000
    O22      O        0.20377    0.15314    0.58509    1.000
    O23      O        0.05145    0.85690    0.67346    1.000
    O24      O        0.94812    0.17264    0.23826    1.000
    O25      O        0.80545    0.85690    0.17346    1.000
    O26      O        0.19482    0.39524    0.37196    1.000
    O27      O        0.22993    0.44966    0.77970    1.000
    O28      O        0.76333    0.80706    0.74773    1.000
    O29      O        0.78027    0.55034    0.72030    1.000
    O30      O        0.81655    0.60690    0.37700    1.000
    O31      O        0.95627    0.19294    0.75227    1.000
    O32      O        0.21660    0.15660    0.33857    1.000
    O33      O        0.21973    0.44966    0.27970    1.000
    O34      O        0.06000    0.84340    0.16143    1.000
    O35      O        0.97408    0.19996    0.00173    1.000
    O36      O        0.20042    0.39524    0.87196    1.000
    O37      O        0.22452    0.17264    0.73826    1.000
    O38      O        0.20965    0.39310    0.12300    1.000
    O39      O        0.77548    0.82736    0.26174    1.000
    O40      O        0.79623    0.84686    0.41491    1.000
    O41      O        0.20722    0.44664    0.53052    1.000
    O42      O        0.02592    0.80004    0.99827    1.000
    O43      O        0.76058    0.55336    0.96948    1.000
    O44      O        0.04373    0.80706    0.24773    1.000
    O45      O        0.79958    0.60476    0.12804    1.000
    O46      O        0.95378    0.00216    0.87521    1.000
    O47      O        0.80518    0.60476    0.62804    1.000
    O48      O        0.76454    0.83348    0.01308    1.000
    O49      O        0.95162    0.99784    0.62479    1.000
    O50      O        0.04838    0.00216    0.37521    1.000
    O51      O        0.06651    0.86042    0.42407    1.000
    O52      O        0.79278    0.55336    0.46948    1.000
