data_functionalizedCrystal
_audit_creation_method	'EQeq! by Chris Wilmer'
_symmetry_space_group_name_H-M	'P1'
_symmetry_Int_Tables_number	1
_symmetry_cell_setting	triclinic
loop_
_symmetry_equiv_pos_as_xyz
  x,y,z
_cell_length_a	17.9128
_cell_length_b	20.0002
_cell_length_c	20.8725
_cell_angle_alpha	71.645
_cell_angle_beta	70.305
_cell_angle_gamma	68.981
loop_
_atom_site_label
_atom_site_type_symbol
_atom_site_fract_x
_atom_site_fract_y
_atom_site_fract_z
_atom_site_charge
Mof_Zn	Zn	0.86657	0.84052	0.88164	1.175
Mof_Zn	Zn	0.45755	0.27499	0.45868	1.215
Mof_Zn	Zn	0.71952	0.85165	0.02233	1.2
Mof_Zn	Zn	0.86905	0.71152	0.01707	1.206
Mof_Zn	Zn	0.89105	0.8586	0.02352	1.212
Mof_Zn	Zn	0.30982	0.42072	0.45933	1.207
Mof_Zn	Zn	0.27672	0.27588	0.4531	1.183
Mof_Zn	Zn	0.30633	0.29236	0.58939	1.209
Mof_H 	H 	0.7396	0.5631	0.1583	0.063
Mof_H 	H 	0.7282	0.4457	0.2297	0.07
Mof_H 	H 	0.1428	0.3883	0.3001	0.025
Mof_H 	H 	0.5994	0.1471	0.3137	0.051
Mof_H 	H 	0.0217	0.5276	0.9244	0.039
Mof_H 	H 	0.444	0.1862	0.7358	0.062
Mof_H 	H 	0.1091	0.6717	0.6397	0.05
Mof_H 	H 	0.1276	0.996	0.6414	0.061
Mof_H 	H 	0.6391	0.1429	0.5716	0.041
Mof_H 	H 	0.1036	0.4469	0.8529	0.067
Mof_H 	H 	0.9872	0.0435	0.9193	0.053
Mof_H 	H 	0.1879	0.4215	0.7369	0.059
Mof_H 	H 	0.7296	0.0869	0.2324	0.057
Mof_H 	H 	0.6458	0.3785	0.3145	0.036
Mof_H 	H 	0.4483	0.5547	0.3258	0.053
Mof_H 	H 	0.738	0.0046	0.7679	0.032
Mof_H 	H 	0.052	0.1324	0.8483	0.06
Mof_H 	H 	0.5335	0.7429	0.1572	0.04
Mof_H 	H 	0.0135	0.577	0.1485	0.059
Mof_H 	H 	0.1327	0.1815	0.7309	0.048
Mof_H 	H 	0.0702	0.459	0.2173	0.06
Mof_H 	H 	0.4592	0.6707	0.2395	0.058
Mof_H 	H 	0.7233	0.0739	0.6436	0.05
Mof_H 	H 	0.1601	0.6847	0.2155	0.06
Mof_H 	H 	0.1986	0.5907	0.57	0.038
Mof_H 	H 	0.0738	0.7546	0.1436	0.039
Mof_H 	H 	0.7958	0.0083	0.1574	0.051
Mof_H 	H 	0.5793	0.9668	0.1798	0.067
Mof_H 	H 	0.0412	0.9466	0.7606	0.05
Mof_H 	H 	0.3897	0.1062	0.3411	0.024
Mof_H 	H 	0.1988	0.0794	0.5719	0.024
Mof_H 	H 	0.5366	0.0338	0.9297	0.035
Mof_H 	H 	0.0339	0.6977	0.7567	0.038
Mof_H 	H 	0.2158	0.5665	0.2907	0.06
Mof_H 	H 	0.4583	0.1216	0.8591	0.07
Mof_H 	H 	0.4538	0.0255	0.2651	0.073
Mof_C 	C 	0.4469	0.0985	0.3185	0.042
Mof_C 	C 	0.0229	0.6223	0.8461	-0.1
Mof_C 	C 	0.7038	0.7055	0.0939	0.368
Mof_C 	C 	0.1301	0.0324	0.6601	-0.103
Mof_C 	C 	0.0988	0.48	0.233	-0.084
Mof_C 	C 	0.5654	0.0375	0.2421	0.056
Mof_C 	C 	0.1935	0.4719	0.2993	-0.067
Mof_C 	C 	0.0908	0.0918	0.7585	0.01
Mof_C 	C 	0.0119	0.9874	0.8457	-0.077
Mof_C 	C 	0.1713	0.4727	0.7175	-0.037
Mof_C 	C 	0.1738	0.1386	0.6453	-0.122
Mof_C 	C 	0.9773	0.719	0.0958	0.365
Mof_C 	C 	0.6084	0.9895	0.193	-0.059
Mof_C 	C 	0.0463	0.9831	0.7776	-0.039
Mof_C 	C 	0.6456	0.0155	0.8551	-0.105
Mof_C 	C 	0.5141	0.0975	0.8394	-0.101
Mof_C 	C 	0.0515	0.0947	0.8301	-0.072
Mof_C 	C 	0.6713	0.4683	0.2478	-0.102
Mof_C 	C 	0.1713	0.0822	0.619	0.034
Mof_C 	C 	0.1304	0.6619	0.2029	-0.089
Mof_C 	C 	0.693	0.978	0.1661	-0.067
Mof_C 	C 	0.6152	0.0728	0.2568	0.005
Mof_C 	C 	0.2426	0.4264	0.3548	0.34
Mof_C 	C 	0.5593	0.6924	0.1731	0.006
Mof_C 	C 	0.1016	0.5979	0.7326	0.011
Mof_C 	C 	0.0901	0.0347	0.7323	0.027
Mof_C 	C 	0.5496	0.5746	0.2501	0.014
Mof_C 	C 	0.7	0.958	0.8995	0.361
Mof_C 	C 	0.5612	0.0476	0.8813	0.028
Mof_C 	C 	0.666	0.094	0.6626	-0.077
Mof_C 	C 	0.0435	0.5981	0.1628	-0.034
Mof_C 	C 	0.2234	0.1908	0.6006	0.422
Mof_C 	C 	0.4462	0.1859	0.3797	0.39
Mof_C 	C 	0.0133	0.0422	0.8717	-0.008
Mof_C 	C 	0.6994	0.0616	0.2237	-0.067
Mof_C 	C 	0.4787	0.2151	0.599	0.381
Mof_C 	C 	0.5003	0.1612	0.7184	-0.043
Mof_C 	C 	0.4854	0.0498	0.2734	-0.118
Mof_C 	C 	0.5706	0.1223	0.3027	-0.012
Mof_C 	C 	0.1874	0.5448	0.2754	-0.048
Mof_C 	C 	0.1396	0.5874	0.2287	0.029
Mof_C 	C 	0.5165	0.6494	0.2221	-0.076
Mof_C 	C 	0.1431	0.438	0.2798	-0.002
Mof_C 	C 	0.6466	0.6601	0.1444	-0.074
Mof_C 	C 	0.6315	0.0786	0.7375	0.005
Mof_C 	C 	0.08	0.7033	0.1601	0.011
Mof_C 	C 	0.6177	0.136	0.6208	0.004
Mof_C 	C 	0.6818	0.5845	0.174	-0.05
Mof_C 	C 	0.7385	0.0155	0.1794	0.003
Mof_C 	C 	0.9664	0.674	0.8927	0.366
Mof_C 	C 	0.0905	0.4981	0.8329	-0.098
Mof_C 	C 	0.5481	0.1149	0.7643	0.032
Mof_C 	C 	0.1771	0.5731	0.6184	0.008
Mof_C 	C 	0.6356	0.5424	0.2234	0.043
Mof_C 	C 	0.5043	0.5324	0.3046	-0.026
Mof_C 	C 	0.2414	0.444	0.603	0.356
Mof_C 	C 	0.4895	0.1341	0.3301	-0.109
Mof_C 	C 	0.1962	0.4973	0.6481	-0.087
Mof_C 	C 	0.6222	0.4295	0.2983	0.029
Mof_C 	C 	0.4843	0.4166	0.3836	0.364
Mof_C 	C 	0.0501	0.6465	0.7765	-0.025
Mof_C 	C 	0.7367	0.9273	0.1153	0.357
Mof_C 	C 	0.6813	0.0283	0.7853	-0.023
Mof_C 	C 	0.1213	0.5211	0.7619	0.028
Mof_C 	C 	0.1326	0.1428	0.7138	-0.012
Mof_C 	C 	0.5385	0.4604	0.3279	-0.091
Mof_C 	C 	0.0949	0.5543	0.2075	0.023
Mof_C 	C 	0.5342	0.1704	0.6494	-0.076
Mof_C 	C 	0.1271	0.621	0.6604	-0.082
Mof_C 	C 	0.042	0.5456	0.8759	0.017
Mof_C 	C 	0.9673	0.9327	0.8933	0.352
Mof_C 	C 	0.0372	0.6698	0.1407	-0.077
Mof_O 	O 	0.2328	0.2315	0.6326	-0.513
Mof_O 	O 	0.2575	0.3764	0.6312	-0.503
Mof_O 	O 	0.5183	0.3459	0.3984	-0.47
Mof_O 	O 	0.3679	0.2033	0.3976	-0.48
Mof_O 	O 	0.8137	0.9171	0.092	-0.486
Mof_O 	O 	0.4125	0.4488	0.4114	-0.496
Mof_O 	O 	0.958	0.8883	0.8648	-0.465
Mof_O 	O 	0.3405	0.315	0.4884	-0.963
Mof_O 	O 	0.9576	0.7408	0.8658	-0.501
Mof_O 	O 	0.9461	0.9291	0.9586	-0.465
Mof_O 	O 	0.4047	0.2411	0.6263	-0.502
Mof_O 	O 	0.2575	0.3591	0.3664	-0.504
Mof_O 	O 	0.2514	0.1924	0.5403	-0.535
Mof_O 	O 	0.9712	0.7856	0.0728	-0.5
Mof_O 	O 	0.9327	0.6468	0.9556	-0.488
Mof_O 	O 	0.4909	0.2053	0.4012	-0.496
Mof_O 	O 	0.7736	0.9412	0.8781	-0.517
Mof_O 	O 	0.8379	0.8165	0.9865	-0.954
Mof_O 	O 	0.7773	0.6733	0.0744	-0.52
Mof_O 	O 	0.5137	0.2233	0.5345	-0.488
Mof_O 	O 	0.2629	0.4715	0.5368	-0.491
Mof_O 	O 	0.6569	0.9275	0.9615	-0.475
Mof_O 	O 	0.254	0.466	0.3884	-0.498
Mof_O 	O 	0.6907	0.9025	0.0995	-0.48
Mof_O 	O 	0.6665	0.7741	0.0732	-0.502
Mof_O 	O 	0.9401	0.6835	0.081	-0.489
Mof_Zn	Zn	0.10895	0.1414	0.97648	1.213
Mof_Zn	Zn	0.28048	0.14835	0.97767	1.201
Mof_Zn	Zn	0.13343	0.15948	0.11836	1.176
Mof_Zn	Zn	0.69018	0.57928	0.54067	1.208
Mof_Zn	Zn	0.72328	0.72412	0.5469	1.183
Mof_Zn	Zn	0.13095	0.28848	0.98293	1.207
Mof_Zn	Zn	0.54245	0.72501	0.54132	1.216
Mof_Zn	Zn	0.69367	0.70764	0.41061	1.209
Mof_H 	H 	0.8012	0.9206	0.4281	0.024
Mof_H 	H 	0.9262	0.2454	0.8564	0.039
Mof_H 	H 	0.9298	0.541	0.7827	0.06
Mof_H 	H 	0.8964	0.5531	0.1471	0.067
Mof_H 	H 	0.8572	0.6117	0.6999	0.025
Mof_H 	H 	0.3609	0.8571	0.4284	0.041
Mof_H 	H 	0.2042	0.9917	0.8426	0.051
Mof_H 	H 	0.4006	0.8529	0.6863	0.051
Mof_H 	H 	0.9865	0.423	0.8515	0.059
Mof_H 	H 	0.4665	0.2571	0.8428	0.04
Mof_H 	H 	0.6103	0.8938	0.6589	0.024
Mof_H 	H 	0.5417	0.8784	0.1409	0.07
Mof_H 	H 	0.3542	0.6215	0.6855	0.036
Mof_H 	H 	0.4634	0.9662	0.0703	0.035
Mof_H 	H 	0.9783	0.4724	0.0756	0.039
Mof_H 	H 	0.2718	0.5543	0.7703	0.07
Mof_H 	H 	0.5462	0.9745	0.7349	0.073
Mof_H 	H 	0.556	0.8138	0.2642	0.062
Mof_H 	H 	0.5408	0.3293	0.7605	0.058
Mof_H 	H 	0.8673	0.8185	0.2691	0.048
Mof_H 	H 	0.8724	0.004	0.3586	0.061
Mof_H 	H 	0.8909	0.3283	0.3603	0.05
Mof_H 	H 	0.9661	0.3023	0.2433	0.038
Mof_H 	H 	0.5517	0.4453	0.6742	0.053
Mof_H 	H 	0.8014	0.4093	0.43	0.038
Mof_H 	H 	0.4207	0.0332	0.8202	0.067
Mof_H 	H 	0.7842	0.4335	0.7093	0.06
Mof_H 	H 	0.2704	0.9131	0.7676	0.057
Mof_H 	H 	0.9588	0.0534	0.2394	0.05
Mof_H 	H 	0.8399	0.3153	0.7845	0.06
Mof_H 	H 	0.2767	0.9261	0.3564	0.05
Mof_H 	H 	0.8121	0.5785	0.2631	0.059
Mof_H 	H 	0.2604	0.4369	0.8417	0.063
Mof_H 	H 	0.948	0.8676	0.1517	0.06
Mof_H 	H 	0.0128	0.9565	0.0807	0.053
Mof_H 	H 	0.262	0.9954	0.2321	0.032
Mof_C 	C 	0.4388	0.9524	0.1187	0.028
Mof_C 	C 	0.8287	0.9178	0.381	0.034
Mof_C 	C 	0.9771	0.3777	0.1539	-0.1
Mof_C 	C 	0.7574	0.5736	0.6452	0.34
Mof_C 	C 	0.8038	0.5027	0.3519	-0.087
Mof_C 	C 	0.2962	0.2945	0.9061	0.368
Mof_C 	C 	0.3	0.042	0.1005	0.361
Mof_C 	C 	0.3644	0.4576	0.7766	0.043
Mof_C 	C 	0.0327	0.0673	0.1067	0.352
Mof_C 	C 	0.7766	0.8092	0.3994	0.422
Mof_C 	C 	0.3823	0.864	0.3792	0.004
Mof_C 	C 	0.3534	0.3399	0.8556	-0.074
Mof_C 	C 	0.4504	0.4254	0.7499	0.014
Mof_C 	C 	0.334	0.906	0.3374	-0.077
Mof_C 	C 	0.8699	0.9676	0.3399	-0.103
Mof_C 	C 	0.4658	0.8296	0.3506	-0.076
Mof_C 	C 	0.7586	0.556	0.397	0.356
Mof_C 	C 	0.9051	0.4457	0.7925	0.023
Mof_C 	C 	0.9499	0.3535	0.2235	-0.025
Mof_C 	C 	0.3848	0.9272	0.7432	0.005
Mof_C 	C 	0.8787	0.4789	0.2381	0.028
Mof_C 	C 	0.3187	0.9717	0.2147	-0.023
Mof_C 	C 	0.8674	0.8572	0.2862	-0.012
Mof_C 	C 	0.3778	0.5705	0.7017	0.029
Mof_C 	C 	0.9095	0.5019	0.1671	-0.098
Mof_C 	C 	0.9628	0.3302	0.8593	-0.077
Mof_C 	C 	0.8984	0.4021	0.2674	0.011
Mof_C 	C 	0.3685	0.9214	0.2625	0.005
Mof_C 	C 	0.3182	0.4155	0.826	-0.05
Mof_C 	C 	0.4346	0.9625	0.7579	0.056
Mof_C 	C 	0.8287	0.5273	0.2825	-0.037
Mof_C 	C 	0.4859	0.9025	0.1606	-0.101
Mof_C 	C 	0.9565	0.4019	0.8372	-0.034
Mof_C 	C 	0.8126	0.4552	0.7246	-0.048
Mof_C 	C 	0.4615	0.5396	0.6721	-0.091
Mof_C 	C 	0.4835	0.3506	0.7779	-0.076
Mof_C 	C 	0.9881	0.0126	0.1543	-0.077
Mof_C 	C 	0.2633	0.0727	0.8847	0.357
Mof_C 	C 	0.8262	0.8614	0.3547	-0.122
Mof_C 	C 	0.958	0.4544	0.1241	0.017
Mof_C 	C 	0.5146	0.9502	0.7266	-0.118
Mof_C 	C 	0.8729	0.379	0.3396	-0.082
Mof_C 	C 	0.3287	0.5317	0.7522	-0.102
Mof_C 	C 	0.307	0.022	0.8339	-0.067
Mof_C 	C 	0.8569	0.562	0.7202	-0.002
Mof_C 	C 	0.8229	0.4269	0.3816	0.008
Mof_C 	C 	0.2615	0.9845	0.8206	0.003
Mof_C 	C 	0.0336	0.326	0.1073	0.366
Mof_C 	C 	0.8604	0.4126	0.7713	0.029
Mof_C 	C 	0.9537	0.0169	0.2224	-0.039
Mof_C 	C 	0.5531	0.9015	0.6815	0.042
Mof_C 	C 	0.3006	0.9384	0.7763	-0.067
Mof_C 	C 	0.5157	0.5834	0.6164	0.364
Mof_C 	C 	0.0227	0.281	0.9042	0.365
Mof_C 	C 	0.3916	0.0105	0.807	-0.059
Mof_C 	C 	0.8696	0.3381	0.7971	-0.089
Mof_C 	C 	0.4294	0.8777	0.6973	-0.012
Mof_C 	C 	0.92	0.2967	0.8399	0.011
Mof_C 	C 	0.5538	0.8141	0.6203	0.39
Mof_C 	C 	0.5105	0.8659	0.6699	-0.109
Mof_C 	C 	0.9099	0.9653	0.2677	0.027
Mof_C 	C 	0.3544	0.9845	0.1449	-0.105
Mof_C 	C 	0.8065	0.5281	0.7007	-0.067
Mof_C 	C 	0.4997	0.8388	0.2816	-0.043
Mof_C 	C 	0.9012	0.52	0.767	-0.084
Mof_C 	C 	0.9485	0.9053	0.1699	-0.072
Mof_C 	C 	0.9092	0.9082	0.2415	0.01
Mof_C 	C 	0.5213	0.7849	0.401	0.381
Mof_C 	C 	0.4957	0.4676	0.6954	-0.026
Mof_C 	C 	0.9867	0.9578	0.1283	-0.008
Mof_C 	C 	0.4407	0.3076	0.8269	0.006
Mof_C 	C 	0.4519	0.8851	0.2357	0.032
Mof_O 	O 	0.5091	0.7947	0.5988	-0.496
Mof_O 	O 	0.4817	0.6541	0.6016	-0.47
Mof_O 	O 	0.7425	0.6236	0.3688	-0.503
Mof_O 	O 	0.1863	0.0829	0.908	-0.486
Mof_O 	O 	0.3431	0.0725	0.0385	-0.475
Mof_O 	O 	0.0288	0.2144	0.9272	-0.5
Mof_O 	O 	0.3093	0.0975	0.9005	-0.48
Mof_O 	O 	0.0673	0.3532	0.0444	-0.488
Mof_O 	O 	0.6595	0.685	0.5116	-0.963
Mof_O 	O 	0.5953	0.7589	0.3737	-0.502
Mof_O 	O 	0.746	0.534	0.6116	-0.498
Mof_O 	O 	0.0539	0.0709	0.0414	-0.465
Mof_O 	O 	0.7672	0.7685	0.3674	-0.513
Mof_O 	O 	0.4863	0.7767	0.4655	-0.488
Mof_O 	O 	0.7486	0.8076	0.4597	-0.535
Mof_O 	O 	0.6321	0.7967	0.6024	-0.48
Mof_O 	O 	0.2264	0.0588	0.1219	-0.517
Mof_O 	O 	0.042	0.1117	0.1352	-0.465
Mof_O 	O 	0.1621	0.1835	0.0135	-0.954
Mof_O 	O 	0.5875	0.5512	0.5886	-0.496
Mof_O 	O 	0.2227	0.3267	0.9256	-0.52
Mof_O 	O 	0.7371	0.5285	0.4632	-0.491
Mof_O 	O 	0.7425	0.6409	0.6336	-0.504
Mof_O 	O 	0.0424	0.2592	0.1342	-0.501
Mof_O 	O 	0.3335	0.2259	0.9268	-0.502
Mof_O 	O 	0.0599	0.3165	0.919	-0.489
_end
