# CIF file generated by openbabel 3.1.0, see https://openbabel.org
data_I
_chemical_name_common 'image0'
_cell_length_a 18.0913
_cell_length_b 16.9739
_cell_length_c 10.364
_cell_angle_alpha 90
_cell_angle_beta 90
_cell_angle_gamma 90
_space_group_name_H-M_alt 'P 1'
_space_group_name_Hall 'P 1'
loop_
    _symmetry_equiv_pos_as_xyz
    x,y,z
loop_
    _atom_site_label
    _atom_site_type_symbol
    _atom_site_fract_x
    _atom_site_fract_y
    _atom_site_fract_z
    _atom_site_occupancy
    Ga1      Ga       0.20363    0.23771    0.08534    1.000
    Ga2      Ga       0.39910    0.20742    0.11145    1.000
    Ga3      Ga       0.21336    0.41437    0.91233    1.000
    P1       P        0.32287    0.28415    0.88117    1.000
    P2       P        0.28283    0.06986    0.10519    1.000
    P3       P        0.07615    0.29690    0.89970    1.000
    F1       F        0.29857    0.24615    0.16940    1.000
    F2       F        0.21007    0.35507    0.08110    1.000
    O1       O        0.25601    0.23673    0.92340    1.000
    O2       O        0.21579    0.12353    0.08840    1.000
    O3       O        0.10798    0.24263    0.00350    1.000
    O4       O        0.34728    0.25706    0.74680    1.000
    O5       O        0.39080    0.27281    0.96950    1.000
    O6       O        0.30542    0.37299    0.88120    1.000
    O7       O        0.35790    0.11033    0.08130    1.000
    O8       O        0.07649    0.25175    0.77160    1.000
    O9       O        0.99750    0.32193    0.93590    1.000
    O10      O        0.28386    0.03197    0.24000    1.000
    O11      O        0.27539    0.00628    0.00090    1.000
    O12      O        0.12012    0.37451    0.88190    1.000
    O13      O        0.40830    0.92220    0.24900    1.000
    Ga4      Ga       0.29637    0.26229    0.58534    1.000
    Ga5      Ga       0.10090    0.29258    0.61145    1.000
    Ga6      Ga       0.28664    0.08563    0.41233    1.000
    P4       P        0.17713    0.21585    0.38117    1.000
    P5       P        0.21717    0.43014    0.60519    1.000
    P6       P        0.42385    0.20310    0.39970    1.000
    F3       F        0.20143    0.25385    0.66940    1.000
    F4       F        0.28993    0.14493    0.58110    1.000
    O14      O        0.24399    0.26327    0.42340    1.000
    O15      O        0.28421    0.37647    0.58840    1.000
    O16      O        0.39202    0.25737    0.50350    1.000
    O17      O        0.15272    0.24294    0.24680    1.000
    O18      O        0.10920    0.22719    0.46950    1.000
    O19      O        0.19458    0.12701    0.38120    1.000
    O20      O        0.14210    0.38967    0.58130    1.000
    O21      O        0.42351    0.24825    0.27160    1.000
    O22      O        0.50250    0.17807    0.43590    1.000
    O23      O        0.21614    0.46803    0.74000    1.000
    O24      O        0.22461    0.49372    0.50090    1.000
    O25      O        0.37988    0.12549    0.38190    1.000
    O26      O        0.09170    0.57780    0.74900    1.000
    Ga7      Ga       0.79637    0.23771    0.41466    1.000
    Ga8      Ga       0.60090    0.20742    0.38855    1.000
    Ga9      Ga       0.78664    0.41437    0.58767    1.000
    P7       P        0.67713    0.28415    0.61883    1.000
    P8       P        0.71717    0.06986    0.39481    1.000
    P9       P        0.92385    0.29690    0.60030    1.000
    F5       F        0.70143    0.24615    0.33060    1.000
    F6       F        0.78993    0.35507    0.41890    1.000
    O27      O        0.74399    0.23673    0.57660    1.000
    O28      O        0.78421    0.12353    0.41160    1.000
    O29      O        0.89202    0.24263    0.49650    1.000
    O30      O        0.65272    0.25706    0.75320    1.000
    O31      O        0.60920    0.27281    0.53050    1.000
    O32      O        0.69458    0.37299    0.61880    1.000
    O33      O        0.64210    0.11033    0.41870    1.000
    O34      O        0.92351    0.25175    0.72840    1.000
    O35      O        0.00250    0.32193    0.56410    1.000
    O36      O        0.71614    0.03197    0.26000    1.000
    O37      O        0.72461    0.00628    0.49910    1.000
    O38      O        0.87988    0.37451    0.61810    1.000
    O39      O        0.59170    0.92220    0.25100    1.000
    Ga10     Ga       0.70363    0.26229    0.91466    1.000
    Ga11     Ga       0.89910    0.29258    0.88855    1.000
    Ga12     Ga       0.71336    0.08563    0.08767    1.000
    P10      P        0.82287    0.21585    0.11883    1.000
    P11      P        0.78283    0.43014    0.89481    1.000
    P12      P        0.57615    0.20310    0.10030    1.000
    F7       F        0.79857    0.25385    0.83060    1.000
    F8       F        0.71007    0.14493    0.91890    1.000
    O40      O        0.75601    0.26327    0.07660    1.000
    O41      O        0.71579    0.37647    0.91160    1.000
    O42      O        0.60798    0.25737    0.99650    1.000
    O43      O        0.84728    0.24294    0.25320    1.000
    O44      O        0.89080    0.22719    0.03050    1.000
    O45      O        0.80542    0.12701    0.11880    1.000
    O46      O        0.85790    0.38967    0.91870    1.000
    O47      O        0.57649    0.24825    0.22840    1.000
    O48      O        0.49750    0.17807    0.06410    1.000
    O49      O        0.78386    0.46803    0.76000    1.000
    O50      O        0.77539    0.49372    0.99910    1.000
    O51      O        0.62012    0.12549    0.11810    1.000
    O52      O        0.90830    0.57780    0.75100    1.000
    Ga13     Ga       0.79637    0.76229    0.91466    1.000
    Ga14     Ga       0.60090    0.79258    0.88855    1.000
    Ga15     Ga       0.78664    0.58563    0.08767    1.000
    P13      P        0.67713    0.71585    0.11883    1.000
    P14      P        0.71717    0.93014    0.89481    1.000
    P15      P        0.92385    0.70310    0.10030    1.000
    F9       F        0.70143    0.75385    0.83060    1.000
    F10      F        0.78993    0.64493    0.91890    1.000
    O53      O        0.74399    0.76327    0.07660    1.000
    O54      O        0.78421    0.87647    0.91160    1.000
    O55      O        0.89202    0.75737    0.99650    1.000
    O56      O        0.65272    0.74294    0.25320    1.000
    O57      O        0.60920    0.72719    0.03050    1.000
    O58      O        0.69458    0.62701    0.11880    1.000
    O59      O        0.64210    0.88967    0.91870    1.000
    O60      O        0.92351    0.74825    0.22840    1.000
    O61      O        0.00250    0.67807    0.06410    1.000
    O62      O        0.71614    0.96803    0.76000    1.000
    O63      O        0.72461    0.99372    0.99910    1.000
    O64      O        0.87988    0.62549    0.11810    1.000
    O65      O        0.59170    0.07780    0.75100    1.000
    Ga16     Ga       0.70363    0.73771    0.41466    1.000
    Ga17     Ga       0.89910    0.70742    0.38855    1.000
    Ga18     Ga       0.71336    0.91437    0.58767    1.000
    P16      P        0.82287    0.78415    0.61883    1.000
    P17      P        0.78283    0.56986    0.39481    1.000
    P18      P        0.57615    0.79690    0.60030    1.000
    F11      F        0.79857    0.74615    0.33060    1.000
    F12      F        0.71007    0.85507    0.41890    1.000
    O66      O        0.75601    0.73673    0.57660    1.000
    O67      O        0.71579    0.62353    0.41160    1.000
    O68      O        0.60798    0.74263    0.49650    1.000
    O69      O        0.84728    0.75706    0.75320    1.000
    O70      O        0.89080    0.77281    0.53050    1.000
    O71      O        0.80542    0.87299    0.61880    1.000
    O72      O        0.85790    0.61033    0.41870    1.000
    O73      O        0.57649    0.75175    0.72840    1.000
    O74      O        0.49750    0.82193    0.56410    1.000
    O75      O        0.78386    0.53197    0.26000    1.000
    O76      O        0.77539    0.50628    0.49910    1.000
    O77      O        0.62012    0.87451    0.61810    1.000
    O78      O        0.90830    0.42220    0.25100    1.000
    Ga19     Ga       0.20363    0.76229    0.58534    1.000
    Ga20     Ga       0.39910    0.79258    0.61145    1.000
    Ga21     Ga       0.21336    0.58563    0.41233    1.000
    P19      P        0.32287    0.71585    0.38117    1.000
    P20      P        0.28283    0.93014    0.60519    1.000
    P21      P        0.07615    0.70310    0.39970    1.000
    F13      F        0.29857    0.75385    0.66940    1.000
    F14      F        0.21007    0.64493    0.58110    1.000
    O79      O        0.25601    0.76327    0.42340    1.000
    O80      O        0.21579    0.87647    0.58840    1.000
    O81      O        0.10798    0.75737    0.50350    1.000
    O82      O        0.34728    0.74294    0.24680    1.000
    O83      O        0.39080    0.72719    0.46950    1.000
    O84      O        0.30542    0.62701    0.38120    1.000
    O85      O        0.35790    0.88967    0.58130    1.000
    O86      O        0.07649    0.74825    0.27160    1.000
    O87      O        0.99750    0.67807    0.43590    1.000
    O88      O        0.28386    0.96803    0.74000    1.000
    O89      O        0.27539    0.99372    0.50090    1.000
    O90      O        0.12012    0.62549    0.38190    1.000
    O91      O        0.40830    0.07780    0.74900    1.000
    Ga22     Ga       0.29637    0.73771    0.08534    1.000
    Ga23     Ga       0.10090    0.70742    0.11145    1.000
    Ga24     Ga       0.28664    0.91437    0.91233    1.000
    P22      P        0.17713    0.78415    0.88117    1.000
    P23      P        0.21717    0.56986    0.10519    1.000
    P24      P        0.42385    0.79690    0.89970    1.000
    F15      F        0.20143    0.74615    0.16940    1.000
    F16      F        0.28993    0.85507    0.08110    1.000
    O92      O        0.24399    0.73673    0.92340    1.000
    O93      O        0.28421    0.62353    0.08840    1.000
    O94      O        0.39202    0.74263    0.00350    1.000
    O95      O        0.15272    0.75706    0.74680    1.000
    O96      O        0.10920    0.77281    0.96950    1.000
    O97      O        0.19458    0.87299    0.88120    1.000
    O98      O        0.14210    0.61033    0.08130    1.000
    O99      O        0.42351    0.75175    0.77160    1.000
    O100     O        0.50250    0.82193    0.93590    1.000
    O101     O        0.21614    0.53197    0.24000    1.000
    O102     O        0.22461    0.50628    0.00090    1.000
    O103     O        0.37988    0.87451    0.88190    1.000
    O104     O        0.09170    0.42220    0.24900    1.000
    Cs1      Cs       0.50000    0.00000    0.50000    1.000
    Cs2      Cs       0.00000    0.50000    0.00000    1.000
    Cs3      Cs       0.50000    0.00000    0.00000    1.000
    Cs4      Cs       0.00000    0.50000    0.50000    1.000
