data_functionalizedCrystal
_audit_creation_method	'EQeq! by Chris Wilmer'
_symmetry_space_group_name_H-M	'P1'
_symmetry_Int_Tables_number	1
_symmetry_cell_setting	triclinic
loop_
_symmetry_equiv_pos_as_xyz
  x,y,z
_cell_length_a	27.313
_cell_length_b	22.017
_cell_length_c	15.836
_cell_angle_alpha	90
_cell_angle_beta	103.218
_cell_angle_gamma	90
loop_
_atom_site_label
_atom_site_type_symbol
_atom_site_fract_x
_atom_site_fract_y
_atom_site_fract_z
_atom_site_charge
Mof_Cu	Cu	0.81065	0.42414	0.75286	0.878
Mof_N 	N 	0.748	0.4139	0.8751	-0.263
Mof_N 	N 	0.7774	0.3819	0.8329	-0.254
Mof_N 	N 	0.7553	0.3219	0.929	-0.287
Mof_N 	N 	0.8477	0.4685	0.6823	-0.262
Mof_O 	O 	0.7976	0.3559	0.6732	-0.432
Mof_O 	O 	0.7257	0.3948	0.5996	-0.319
Mof_O 	O 	0.9332	0.4384	0.4555	-0.415
Mof_O 	O 	0.9967	0.4388	0.3858	-0.412
Mof_O 	O 	0.7846	0.295	0.1043	-0.424
Mof_O 	O 	0.8481	0.2564	0.0634	-0.379
Mof_C 	C 	0.7036	0.393	0.9921	-0.628
Mof_H 	H 	0.6959	0.4356	0.987	0.177
Mof_H 	H 	0.7214	0.3842	0.0504	0.17
Mof_H 	H 	0.673	0.37	0.9783	0.21
Mof_C 	C 	0.7352	0.3768	0.9317	0.265
Mof_C 	C 	0.7807	0.3261	0.8649	0.314
Mof_C 	C 	0.8089	0.2734	0.8392	-0.859
Mof_H 	H 	0.8357	0.2882	0.815	0.267
Mof_H 	H 	0.7864	0.2492	0.7969	0.283
Mof_H 	H 	0.8225	0.2491	0.8894	0.275
Mof_C 	C 	0.881	0.4517	0.6372	0.332
Mof_C 	C 	0.8938	0.3885	0.618	-0.928
Mof_H 	H 	0.8802	0.3798	0.5578	0.313
Mof_H 	H 	0.8799	0.3608	0.653	0.294
Mof_H 	H 	0.9297	0.3839	0.6307	0.308
Mof_C 	C 	0.7579	0.3561	0.6126	0.336
Mof_C 	C 	0.7546	0.2999	0.5549	-0.073
Mof_C 	C 	0.7167	0.2938	0.4865	-0.03
Mof_H 	H 	0.6925	0.3243	0.4754	0.044
Mof_C 	C 	0.7892	0.2566	0.5712	-0.028
Mof_H 	H 	0.8164	0.2591	0.6186	0.032
Mof_C 	C 	0.831	0.2869	0.1126	0.352
Mof_C 	C 	0.8616	0.3182	0.1913	-0.093
Mof_C 	C 	0.8425	0.3406	0.2555	-0.013
Mof_H 	H 	0.8085	0.3349	0.2535	0.034
Mof_C 	C 	0.9135	0.3232	0.1957	-0.031
Mof_H 	H 	0.9284	0.3051	0.1548	0.029
Mof_C 	C 	0.953	0.4226	0.3969	0.341
Mof_C 	C 	0.9212	0.3829	0.328	-0.074
Mof_C 	C 	0.8732	0.3734	0.328	-0.03
Mof_H 	H 	0.8596	0.3874	0.3732	0.045
Mof_C 	C 	0.9417	0.3575	0.2661	-0.025
Mof_H 	H 	0.976	0.3628	0.2699	0.029
Mof_Cu	Cu	0.31065	0.92414	0.75286	0.886
Mof_N 	N 	0.248	0.9139	0.8751	-0.257
Mof_N 	N 	0.2774	0.8819	0.8329	-0.251
Mof_N 	N 	0.2553	0.8219	0.929	-0.29
Mof_N 	N 	0.3477	0.9685	0.6823	-0.252
Mof_O 	O 	0.2976	0.8559	0.6732	-0.432
Mof_O 	O 	0.2257	0.8948	0.5996	-0.311
Mof_O 	O 	0.4332	0.9384	0.4555	-0.402
Mof_O 	O 	0.4967	0.9388	0.3858	-0.398
Mof_O 	O 	0.2846	0.795	0.1043	-0.424
Mof_O 	O 	0.3481	0.7564	0.0634	-0.378
Mof_C 	C 	0.2036	0.893	0.9921	-0.654
Mof_H 	H 	0.1959	0.9356	0.987	0.193
Mof_H 	H 	0.2214	0.8842	0.0504	0.181
Mof_H 	H 	0.173	0.87	0.9783	0.221
Mof_C 	C 	0.2352	0.8768	0.9317	0.276
Mof_C 	C 	0.2807	0.8261	0.8649	0.317
Mof_C 	C 	0.3089	0.7734	0.8392	-0.866
Mof_H 	H 	0.3357	0.7882	0.815	0.271
Mof_H 	H 	0.2864	0.7492	0.7969	0.286
Mof_H 	H 	0.3225	0.7491	0.8894	0.279
Mof_C 	C 	0.381	0.9517	0.6372	0.37
Mof_C 	C 	0.3938	0.8885	0.618	-0.966
Mof_H 	H 	0.3802	0.8798	0.5578	0.327
Mof_H 	H 	0.3799	0.8608	0.653	0.306
Mof_H 	H 	0.4297	0.8839	0.6307	0.322
Mof_C 	C 	0.2579	0.8561	0.6126	0.335
Mof_C 	C 	0.2546	0.7999	0.5549	-0.07
Mof_C 	C 	0.2167	0.7938	0.4865	-0.03
Mof_H 	H 	0.1925	0.8243	0.4754	0.047
Mof_C 	C 	0.2892	0.7566	0.5712	-0.028
Mof_H 	H 	0.3164	0.7591	0.6186	0.033
Mof_C 	C 	0.331	0.7869	0.1126	0.353
Mof_C 	C 	0.3616	0.8182	0.1913	-0.092
Mof_C 	C 	0.3425	0.8406	0.2555	-0.009
Mof_H 	H 	0.3085	0.8349	0.2535	0.036
Mof_C 	C 	0.4135	0.8232	0.1957	-0.027
Mof_H 	H 	0.4284	0.8051	0.1548	0.031
Mof_C 	C 	0.453	0.9226	0.3969	0.339
Mof_C 	C 	0.4212	0.8829	0.328	-0.069
Mof_C 	C 	0.3732	0.8734	0.328	-0.03
Mof_H 	H 	0.3596	0.8874	0.3732	0.049
Mof_C 	C 	0.4417	0.8575	0.2661	-0.025
Mof_H 	H 	0.476	0.8628	0.2699	0.032
Mof_Cu	Cu	0.18935	0.42414	0.24714	0.874
Mof_N 	N 	0.252	0.4139	0.1249	-0.293
Mof_N 	N 	0.2226	0.3819	0.1671	-0.254
Mof_N 	N 	0.2447	0.3219	0.071	-0.326
Mof_N 	N 	0.1523	0.4685	0.3177	-0.264
Mof_O 	O 	0.2024	0.3559	0.3268	-0.434
Mof_O 	O 	0.2743	0.3948	0.4004	-0.32
Mof_O 	O 	0.0668	0.4384	0.5445	-0.416
Mof_O 	O 	0.0033	0.4388	0.6142	-0.41
Mof_O 	O 	0.2154	0.295	0.8957	-0.403
Mof_O 	O 	0.1519	0.2564	0.9366	-0.336
Mof_C 	C 	0.2964	0.393	0.0079	-1.091
Mof_H 	H 	0.3041	0.4356	0.013	0.283
Mof_H 	H 	0.2786	0.3842	0.9496	0.37
Mof_H 	H 	0.327	0.37	0.0217	0.322
Mof_C 	C 	0.2648	0.3768	0.0683	0.365
Mof_C 	C 	0.2193	0.3261	0.1351	0.288
Mof_C 	C 	0.1911	0.2734	0.1608	-0.809
Mof_H 	H 	0.1643	0.2882	0.185	0.243
Mof_H 	H 	0.2136	0.2492	0.2031	0.265
Mof_H 	H 	0.1775	0.2491	0.1106	0.24
Mof_C 	C 	0.119	0.4517	0.3628	0.328
Mof_C 	C 	0.1062	0.3885	0.382	-0.921
Mof_H 	H 	0.1198	0.3798	0.4422	0.312
Mof_H 	H 	0.1201	0.3608	0.347	0.289
Mof_H 	H 	0.0703	0.3839	0.3693	0.304
Mof_C 	C 	0.2421	0.3561	0.3874	0.337
Mof_C 	C 	0.2454	0.2999	0.4451	-0.073
Mof_C 	C 	0.2833	0.2938	0.5135	-0.029
Mof_H 	H 	0.3075	0.3243	0.5246	0.045
Mof_C 	C 	0.2108	0.2566	0.4288	-0.027
Mof_H 	H 	0.1836	0.2591	0.3814	0.03
Mof_C 	C 	0.169	0.2869	0.8874	0.345
Mof_C 	C 	0.1384	0.3182	0.8087	-0.077
Mof_C 	C 	0.1575	0.3406	0.7445	-0.018
Mof_H 	H 	0.1915	0.3349	0.7465	0.038
Mof_C 	C 	0.0865	0.3232	0.8043	-0.034
Mof_H 	H 	0.0716	0.3051	0.8452	0.045
Mof_C 	C 	0.047	0.4226	0.6031	0.343
Mof_C 	C 	0.0788	0.3829	0.672	-0.077
Mof_C 	C 	0.1268	0.3734	0.672	-0.022
Mof_H 	H 	0.1404	0.3874	0.6268	0.044
Mof_C 	C 	0.0583	0.3575	0.7339	-0.015
Mof_H 	H 	0.024	0.3628	0.7301	0.033
Mof_Cu	Cu	0.68935	0.92414	0.24714	0.883
Mof_N 	N 	0.752	0.9139	0.1249	-0.285
Mof_N 	N 	0.7226	0.8819	0.1671	-0.25
Mof_N 	N 	0.7447	0.8219	0.071	-0.328
Mof_N 	N 	0.6523	0.9685	0.3177	-0.253
Mof_O 	O 	0.7024	0.8559	0.3268	-0.433
Mof_O 	O 	0.7743	0.8948	0.4004	-0.311
Mof_O 	O 	0.5668	0.9384	0.5445	-0.402
Mof_O 	O 	0.5033	0.9388	0.6142	-0.396
Mof_O 	O 	0.7154	0.795	0.8957	-0.402
Mof_O 	O 	0.6519	0.7564	0.9366	-0.335
Mof_C 	C 	0.7964	0.893	0.0079	-1.112
Mof_H 	H 	0.8041	0.9356	0.013	0.3
Mof_H 	H 	0.7786	0.8842	0.9496	0.38
Mof_H 	H 	0.827	0.87	0.0217	0.331
Mof_C 	C 	0.7648	0.8768	0.0683	0.375
Mof_C 	C 	0.7193	0.8261	0.1351	0.291
Mof_C 	C 	0.6911	0.7734	0.1608	-0.815
Mof_H 	H 	0.6643	0.7882	0.185	0.247
Mof_H 	H 	0.7136	0.7492	0.2031	0.268
Mof_H 	H 	0.6775	0.7491	0.1106	0.243
Mof_C 	C 	0.619	0.9517	0.3628	0.365
Mof_C 	C 	0.6062	0.8885	0.382	-0.958
Mof_H 	H 	0.6198	0.8798	0.4422	0.325
Mof_H 	H 	0.6201	0.8608	0.347	0.301
Mof_H 	H 	0.5703	0.8839	0.3693	0.317
Mof_C 	C 	0.7421	0.8561	0.3874	0.335
Mof_C 	C 	0.7454	0.7999	0.4451	-0.071
Mof_C 	C 	0.7833	0.7938	0.5135	-0.029
Mof_H 	H 	0.8075	0.8243	0.5246	0.049
Mof_C 	C 	0.7108	0.7566	0.4288	-0.027
Mof_H 	H 	0.6836	0.7591	0.3814	0.031
Mof_C 	C 	0.669	0.7869	0.8874	0.347
Mof_C 	C 	0.6384	0.8182	0.8087	-0.077
Mof_C 	C 	0.6575	0.8406	0.7445	-0.015
Mof_H 	H 	0.6915	0.8349	0.7465	0.039
Mof_C 	C 	0.5865	0.8232	0.8043	-0.031
Mof_H 	H 	0.5716	0.8051	0.8452	0.047
Mof_C 	C 	0.547	0.9226	0.6031	0.341
Mof_C 	C 	0.5788	0.8829	0.672	-0.072
Mof_C 	C 	0.6268	0.8734	0.672	-0.023
Mof_H 	H 	0.6404	0.8874	0.6268	0.047
Mof_C 	C 	0.5583	0.8575	0.7339	-0.015
Mof_H 	H 	0.524	0.8628	0.7301	0.035
Mof_Cu	Cu	0.18935	0.57586	0.24714	0.875
Mof_N 	N 	0.252	0.5861	0.1249	-0.293
Mof_N 	N 	0.2226	0.6181	0.1671	-0.254
Mof_N 	N 	0.2447	0.6781	0.071	-0.327
Mof_N 	N 	0.1523	0.5315	0.3177	-0.264
Mof_O 	O 	0.2024	0.6441	0.3268	-0.434
Mof_O 	O 	0.2743	0.6052	0.4004	-0.321
Mof_O 	O 	0.0668	0.5616	0.5445	-0.416
Mof_O 	O 	0.0033	0.5612	0.6142	-0.41
Mof_O 	O 	0.2154	0.705	0.8957	-0.403
Mof_O 	O 	0.1519	0.7436	0.9366	-0.334
Mof_C 	C 	0.2964	0.607	0.0079	-1.091
Mof_H 	H 	0.3041	0.5644	0.013	0.284
Mof_H 	H 	0.2786	0.6158	0.9496	0.37
Mof_H 	H 	0.327	0.63	0.0217	0.322
Mof_C 	C 	0.2648	0.6232	0.0683	0.365
Mof_C 	C 	0.2193	0.6739	0.1351	0.29
Mof_C 	C 	0.1911	0.7266	0.1608	-0.818
Mof_H 	H 	0.1643	0.7118	0.185	0.247
Mof_H 	H 	0.2136	0.7508	0.2031	0.27
Mof_H 	H 	0.1775	0.7509	0.1106	0.245
Mof_C 	C 	0.119	0.5483	0.3628	0.329
Mof_C 	C 	0.1062	0.6115	0.382	-0.925
Mof_H 	H 	0.1198	0.6202	0.4422	0.314
Mof_H 	H 	0.1201	0.6392	0.347	0.291
Mof_H 	H 	0.0703	0.6161	0.3693	0.306
Mof_C 	C 	0.2421	0.6439	0.3874	0.338
Mof_C 	C 	0.2454	0.7001	0.4451	-0.077
Mof_C 	C 	0.2833	0.7062	0.5135	-0.024
Mof_H 	H 	0.3075	0.6757	0.5246	0.044
Mof_C 	C 	0.2108	0.7434	0.4288	-0.021
Mof_H 	H 	0.1836	0.7409	0.3814	0.03
Mof_C 	C 	0.169	0.7131	0.8874	0.345
Mof_C 	C 	0.1384	0.6818	0.8087	-0.076
Mof_C 	C 	0.1575	0.6594	0.7445	-0.019
Mof_H 	H 	0.1915	0.6651	0.7465	0.038
Mof_C 	C 	0.0865	0.6768	0.8043	-0.034
Mof_H 	H 	0.0716	0.6949	0.8452	0.047
Mof_C 	C 	0.047	0.5774	0.6031	0.344
Mof_C 	C 	0.0788	0.6171	0.672	-0.077
Mof_C 	C 	0.1268	0.6266	0.672	-0.021
Mof_H 	H 	0.1404	0.6126	0.6268	0.044
Mof_C 	C 	0.0583	0.6425	0.7339	-0.013
Mof_H 	H 	0.024	0.6372	0.7301	0.033
Mof_Cu	Cu	0.68935	0.07586	0.24714	0.872
Mof_N 	N 	0.752	0.0861	0.1249	-0.293
Mof_N 	N 	0.7226	0.1181	0.1671	-0.255
Mof_N 	N 	0.7447	0.1781	0.071	-0.325
Mof_N 	N 	0.6523	0.0315	0.3177	-0.276
Mof_O 	O 	0.7024	0.1441	0.3268	-0.436
Mof_O 	O 	0.7743	0.1052	0.4004	-0.328
Mof_O 	O 	0.5668	0.0616	0.5445	-0.422
Mof_O 	O 	0.5033	0.0612	0.6142	-0.416
Mof_O 	O 	0.7154	0.205	0.8957	-0.404
Mof_O 	O 	0.6519	0.2436	0.9366	-0.336
Mof_C 	C 	0.7964	0.107	0.0079	-1.062
Mof_H 	H 	0.8041	0.0644	0.013	0.268
Mof_H 	H 	0.7786	0.1158	0.9496	0.358
Mof_H 	H 	0.827	0.13	0.0217	0.31
Mof_C 	C 	0.7648	0.1232	0.0683	0.355
Mof_C 	C 	0.7193	0.1739	0.1351	0.288
Mof_C 	C 	0.6911	0.2266	0.1608	-0.812
Mof_H 	H 	0.6643	0.2118	0.185	0.244
Mof_H 	H 	0.7136	0.2508	0.2031	0.267
Mof_H 	H 	0.6775	0.2509	0.1106	0.241
Mof_C 	C 	0.619	0.0483	0.3628	0.321
Mof_C 	C 	0.6062	0.1115	0.382	-0.917
Mof_H 	H 	0.6198	0.1202	0.4422	0.31
Mof_H 	H 	0.6201	0.1392	0.347	0.288
Mof_H 	H 	0.5703	0.1161	0.3693	0.302
Mof_C 	C 	0.7421	0.1439	0.3874	0.339
Mof_C 	C 	0.7454	0.2001	0.4451	-0.078
Mof_C 	C 	0.7833	0.2062	0.5135	-0.024
Mof_H 	H 	0.8075	0.1757	0.5246	0.041
Mof_C 	C 	0.7108	0.2434	0.4288	-0.022
Mof_H 	H 	0.6836	0.2409	0.3814	0.029
Mof_C 	C 	0.669	0.2131	0.8874	0.345
Mof_C 	C 	0.6384	0.1818	0.8087	-0.077
Mof_C 	C 	0.6575	0.1594	0.7445	-0.021
Mof_H 	H 	0.6915	0.1651	0.7465	0.037
Mof_C 	C 	0.5865	0.1768	0.8043	-0.036
Mof_H 	H 	0.5716	0.1949	0.8452	0.045
Mof_C 	C 	0.547	0.0774	0.6031	0.342
Mof_C 	C 	0.5788	0.1171	0.672	-0.08
Mof_C 	C 	0.6268	0.1266	0.672	-0.022
Mof_H 	H 	0.6404	0.1126	0.6268	0.04
Mof_C 	C 	0.5583	0.1425	0.7339	-0.014
Mof_H 	H 	0.524	0.1372	0.7301	0.031
Mof_Cu	Cu	0.81065	0.57586	0.75286	0.878
Mof_N 	N 	0.748	0.5861	0.8751	-0.264
Mof_N 	N 	0.7774	0.6181	0.8329	-0.255
Mof_N 	N 	0.7553	0.6781	0.929	-0.289
Mof_N 	N 	0.8477	0.5315	0.6823	-0.263
Mof_O 	O 	0.7976	0.6441	0.6732	-0.433
Mof_O 	O 	0.7257	0.6052	0.5996	-0.321
Mof_O 	O 	0.9332	0.5616	0.4555	-0.416
Mof_O 	O 	0.9967	0.5612	0.3858	-0.413
Mof_O 	O 	0.7846	0.705	0.1043	-0.425
Mof_O 	O 	0.8481	0.7436	0.0634	-0.377
Mof_C 	C 	0.7036	0.607	0.9921	-0.63
Mof_H 	H 	0.6959	0.5644	0.987	0.176
Mof_H 	H 	0.7214	0.6158	0.0504	0.17
Mof_H 	H 	0.673	0.63	0.9783	0.21
Mof_C 	C 	0.7352	0.6232	0.9317	0.265
Mof_C 	C 	0.7807	0.6739	0.8649	0.316
Mof_C 	C 	0.8089	0.7266	0.8392	-0.868
Mof_H 	H 	0.8357	0.7118	0.815	0.271
Mof_H 	H 	0.7864	0.7508	0.7969	0.287
Mof_H 	H 	0.8225	0.7509	0.8894	0.28
Mof_C 	C 	0.881	0.5483	0.6372	0.333
Mof_C 	C 	0.8938	0.6115	0.618	-0.932
Mof_H 	H 	0.8802	0.6202	0.5578	0.315
Mof_H 	H 	0.8799	0.6392	0.653	0.296
Mof_H 	H 	0.9297	0.6161	0.6307	0.31
Mof_C 	C 	0.7579	0.6439	0.6126	0.337
Mof_C 	C 	0.7546	0.7001	0.5549	-0.076
Mof_C 	C 	0.7167	0.7062	0.4865	-0.025
Mof_H 	H 	0.6925	0.6757	0.4754	0.043
Mof_C 	C 	0.7892	0.7434	0.5712	-0.022
Mof_H 	H 	0.8164	0.7409	0.6186	0.032
Mof_C 	C 	0.831	0.7131	0.1126	0.352
Mof_C 	C 	0.8616	0.6818	0.1913	-0.091
Mof_C 	C 	0.8425	0.6594	0.2555	-0.013
Mof_H 	H 	0.8085	0.6651	0.2535	0.035
Mof_C 	C 	0.9135	0.6768	0.1957	-0.031
Mof_H 	H 	0.9284	0.6949	0.1548	0.031
Mof_C 	C 	0.953	0.5774	0.3969	0.342
Mof_C 	C 	0.9212	0.6171	0.328	-0.074
Mof_C 	C 	0.8732	0.6266	0.328	-0.029
Mof_H 	H 	0.8596	0.6126	0.3732	0.045
Mof_C 	C 	0.9417	0.6425	0.2661	-0.023
Mof_H 	H 	0.976	0.6372	0.2699	0.03
Mof_Cu	Cu	0.31065	0.07586	0.75286	0.875
Mof_N 	N 	0.248	0.0861	0.8751	-0.265
Mof_N 	N 	0.2774	0.1181	0.8329	-0.256
Mof_N 	N 	0.2553	0.1781	0.929	-0.287
Mof_N 	N 	0.3477	0.0315	0.6823	-0.275
Mof_O 	O 	0.2976	0.1441	0.6732	-0.435
Mof_O 	O 	0.2257	0.1052	0.5996	-0.328
Mof_O 	O 	0.4332	0.0616	0.4555	-0.422
Mof_O 	O 	0.4967	0.0612	0.3858	-0.418
Mof_O 	O 	0.2846	0.205	0.1043	-0.426
Mof_O 	O 	0.3481	0.2436	0.0634	-0.379
Mof_C 	C 	0.2036	0.107	0.9921	-0.605
Mof_H 	H 	0.1959	0.0644	0.987	0.161
Mof_H 	H 	0.2214	0.1158	0.0504	0.159
Mof_H 	H 	0.173	0.13	0.9783	0.2
Mof_C 	C 	0.2352	0.1232	0.9317	0.256
Mof_C 	C 	0.2807	0.1739	0.8649	0.314
Mof_C 	C 	0.3089	0.2266	0.8392	-0.862
Mof_H 	H 	0.3357	0.2118	0.815	0.268
Mof_H 	H 	0.2864	0.2508	0.7969	0.284
Mof_H 	H 	0.3225	0.2509	0.8894	0.277
Mof_C 	C 	0.381	0.0483	0.6372	0.326
Mof_C 	C 	0.3938	0.1115	0.618	-0.925
Mof_H 	H 	0.3802	0.1202	0.5578	0.312
Mof_H 	H 	0.3799	0.1392	0.653	0.293
Mof_H 	H 	0.4297	0.1161	0.6307	0.307
Mof_C 	C 	0.2579	0.1439	0.6126	0.338
Mof_C 	C 	0.2546	0.2001	0.5549	-0.078
Mof_C 	C 	0.2167	0.2062	0.4865	-0.025
Mof_H 	H 	0.1925	0.1757	0.4754	0.04
Mof_C 	C 	0.2892	0.2434	0.5712	-0.023
Mof_H 	H 	0.3164	0.2409	0.6186	0.031
Mof_C 	C 	0.331	0.2131	0.1126	0.351
Mof_C 	C 	0.3616	0.1818	0.1913	-0.092
Mof_C 	C 	0.3425	0.1594	0.2555	-0.015
Mof_H 	H 	0.3085	0.1651	0.2535	0.033
Mof_C 	C 	0.4135	0.1768	0.1957	-0.032
Mof_H 	H 	0.4284	0.1949	0.1548	0.029
Mof_C 	C 	0.453	0.0774	0.3969	0.34
Mof_C 	C 	0.4212	0.1171	0.328	-0.078
Mof_C 	C 	0.3732	0.1266	0.328	-0.03
Mof_H 	H 	0.3596	0.1126	0.3732	0.042
Mof_C 	C 	0.4417	0.1425	0.2661	-0.024
Mof_H 	H 	0.476	0.1372	0.2699	0.028
Mof_Cu	Cu	0.73927	0.5	0.84891	0.825
Mof_Cu	Cu	0.96182	0.5	0.54203	0.923
Mof_N 	N 	0.9029	0.5	0.6062	-0.288
Mof_O 	O 	0.8063	0.5	0.8183	-0.709
Mof_H 	H 	0.8333	0.5	0.863	0.192
Mof_Cu	Cu	0.23927	1.08918e-32	0.84891	0.814
Mof_Cu	Cu	0.46182	5.44588e-33	0.54203	0.911
Mof_N 	N 	0.4029	5.44588e-33	0.6062	-0.31
Mof_O 	O 	0.3063	5.44588e-33	0.8183	-0.722
Mof_H 	H 	0.3333	0	0.863	0.186
Mof_Cu	Cu	0.26073	0.5	0.15109	0.818
Mof_Cu	Cu	0.03818	0.5	0.45797	0.923
Mof_N 	N 	0.0971	0.5	0.3938	-0.287
Mof_O 	O 	0.1937	0.5	0.1817	-0.709
Mof_H 	H 	0.1667	0.5	0.137	0.176
Mof_Cu	Cu	0.76073	0	0.15109	0.807
Mof_Cu	Cu	0.53818	5.44588e-33	0.45797	0.91
Mof_N 	N 	0.5971	2.72294e-33	0.3938	-0.309
Mof_O 	O 	0.6937	0	0.1817	-0.723
Mof_H 	H 	0.6667	0	0.137	0.17
Mof_Cu	Cu	0.75	0.25	-0	0.887
Mof_Cu	Cu	0.25	0.25	-0	0.887
Mof_Cu	Cu	0.25	0.75	-0	0.887
Mof_Cu	Cu	0.75	0.75	-0	0.888
_end
