data_functionalizedCrystal
_audit_creation_method	'EQeq! by Chris Wilmer'
_symmetry_space_group_name_H-M	'P1'
_symmetry_Int_Tables_number	1
_symmetry_cell_setting	triclinic
loop_
_symmetry_equiv_pos_as_xyz
  x,y,z
_cell_length_a	27.3449
_cell_length_b	27.3449
_cell_length_c	28.2554
_cell_angle_alpha	90
_cell_angle_beta	90
_cell_angle_gamma	120
loop_
_atom_site_label
_atom_site_type_symbol
_atom_site_fract_x
_atom_site_fract_y
_atom_site_fract_z
_atom_site_charge
Mof_Cs	Cs	2.20742e-32	2.20742e-32	0.99617	3.464
Mof_Cs	Cs	-5.51856e-33	1.10371e-32	0.49617	3.748
Mof_Cs	Cs	0.33333	0.66666	0.54972	4.087
Mof_Cs	Cs	0.33333	0.66666	0.05579	4.068
Mof_Cs	Cs	0.66667	0.33334	0.04972	4.112
Mof_Cs	Cs	0.66667	0.33334	0.55579	4.017
Mof_In	In	0.1775	0.05567	0.99532	2.1
Mof_In	In	0.5113	0.72402	0.05411	2.492
Mof_In	In	0.61191	0.45568	0.0544	2.558
Mof_In	In	0.87817	0.8225	0.99532	2.172
Mof_In	In	0.21272	0.4887	0.05411	2.489
Mof_In	In	0.84377	0.38809	0.0544	2.56
Mof_In	In	0.94433	0.12183	0.99532	2.224
Mof_In	In	0.27598	0.78728	0.05411	2.491
Mof_In	In	0.54432	0.15623	0.0544	2.555
Mof_In	In	0.12183	0.94433	0.49532	2.356
Mof_In	In	0.78728	0.27598	0.55411	2.459
Mof_In	In	0.15623	0.54432	0.5544	2.527
Mof_In	In	0.05567	0.1775	0.49532	2.234
Mof_In	In	0.72402	0.5113	0.55411	2.459
Mof_In	In	0.45568	0.61191	0.5544	2.531
Mof_In	In	0.8225	0.87817	0.49532	2.304
Mof_In	In	0.4887	0.21272	0.55411	2.456
Mof_In	In	0.38809	0.84377	0.5544	2.534
Mof_H 	H 	0.5237	0.5651	0.05	0.076
Mof_H 	H 	0.3673	0.5172	0.085	0.029
Mof_H 	H 	0.4214	0.4101	0.0909	0.072
Mof_H 	H 	0.4354	0.7103	0.3653	0.062
Mof_H 	H 	0.4007	0.8255	0.3115	0.09
Mof_H 	H 	0.4033	0.8573	0.3879	-0.003
Mof_H 	H 	0.4999	0.7399	0.2973	0.081
Mof_H 	H 	0.5199	0.7249	0.2192	0.011
Mof_H 	H 	0.4012	0.7524	0.1686	-0.102
Mof_H 	H 	0.3779	0.7641	0.2456	0.073
Mof_H 	H 	0.3718	0.1389	0.021	0.127
Mof_H 	H 	0.3286	0.2538	0.9888	0.176
Mof_H 	H 	0.4867	0.3015	0.0207	0.07
Mof_H 	H 	0.3881	0.8516	0.7222	-0.018
Mof_H 	H 	0.3999	0.83	0.8003	0.113
Mof_H 	H 	0.4289	0.7104	0.7448	0.123
Mof_H 	H 	0.4155	0.7368	0.6703	-0.145
Mof_H 	H 	0.3729	0.7619	0.8642	0.033
Mof_H 	H 	0.5229	0.7338	0.8859	0.021
Mof_H 	H 	0.4931	0.7387	0.8119	0.058
Mof_H 	H 	0.1867	0.0521	0.8245	0.001
Mof_H 	H 	0.1672	0.0729	0.7492	0.083
Mof_H 	H 	0.0463	0.1007	0.8045	0.083
Mof_H 	H 	0.0675	0.0804	0.8784	-0.113
Mof_H 	H 	0.099	0.0429	0.686	0.066
Mof_H 	H 	0.0835	0.0623	0.6098	-0.102
Mof_H 	H 	0.0633	0.1888	0.666	0.025
Mof_H 	H 	0.0818	0.1643	0.7447	0.067
Mof_H 	H 	0.7092	0.8077	0.0355	0.096
Mof_H 	H 	0.8248	0.9701	0.0305	0.068
Mof_H 	H 	0.664	0.9239	0.0629	0.112
Mof_H 	H 	0.0414	0.4763	0.05	0.065
Mof_H 	H 	0.1499	0.6327	0.085	0.031
Mof_H 	H 	0.9887	0.5786	0.0909	0.117
Mof_H 	H 	0.2749	0.5646	0.3653	0.061
Mof_H 	H 	0.4248	0.5993	0.3115	0.088
Mof_H 	H 	0.454	0.5967	0.3879	-0.006
Mof_H 	H 	0.24	0.5001	0.2973	0.079
Mof_H 	H 	0.205	0.4801	0.2192	0.007
Mof_H 	H 	0.3512	0.5988	0.1686	-0.103
Mof_H 	H 	0.3862	0.6221	0.2456	0.073
Mof_H 	H 	0.7671	0.6282	0.021	0.13
Mof_H 	H 	0.9252	0.6714	0.9888	0.18
Mof_H 	H 	0.8148	0.5133	0.0207	0.07
Mof_H 	H 	0.4635	0.6119	0.7222	-0.022
Mof_H 	H 	0.4301	0.6001	0.8003	0.11
Mof_H 	H 	0.2815	0.5711	0.7448	0.122
Mof_H 	H 	0.3213	0.5845	0.6703	-0.146
Mof_H 	H 	0.389	0.6271	0.8642	0.032
Mof_H 	H 	0.2109	0.4771	0.8859	0.017
Mof_H 	H 	0.2456	0.5069	0.8119	0.055
Mof_H 	H 	0.8654	0.8133	0.8245	-0.047
Mof_H 	H 	0.9057	0.8328	0.7492	0.16
Mof_H 	H 	0.0544	0.9537	0.8045	0.228
Mof_H 	H 	0.0129	0.9325	0.8784	-0.224
Mof_H 	H 	0.9439	0.901	0.686	-0.038
Mof_H 	H 	0.9788	0.9165	0.6098	0.032
Mof_H 	H 	0.1255	0.9367	0.666	0.08
Mof_H 	H 	0.0825	0.9182	0.7447	0.009
Mof_H 	H 	0.0985	0.2908	0.0355	0.087
Mof_H 	H 	0.1453	0.1752	0.0305	0.055
Mof_H 	H 	0.2599	0.336	0.0629	0.101
Mof_H 	H 	0.4349	0.9586	0.05	0.085
Mof_H 	H 	0.4828	0.8501	0.085	0.027
Mof_H 	H 	0.5899	0.0113	0.0909	0.03
Mof_H 	H 	0.2897	0.7251	0.3653	0.063
Mof_H 	H 	0.1745	0.5752	0.3115	0.086
Mof_H 	H 	0.1427	0.546	0.3879	-0.011
Mof_H 	H 	0.2601	0.76	0.2973	0.08
Mof_H 	H 	0.2751	0.795	0.2192	0.013
Mof_H 	H 	0.2476	0.6488	0.1686	-0.102
Mof_H 	H 	0.2359	0.6138	0.2456	0.072
Mof_H 	H 	0.8611	0.2329	0.021	0.132
Mof_H 	H 	0.7462	0.0748	0.9888	0.169
Mof_H 	H 	0.6985	0.1852	0.0207	0.069
Mof_H 	H 	0.1484	0.5365	0.7222	-0.027
Mof_H 	H 	0.17	0.5699	0.8003	0.108
Mof_H 	H 	0.2896	0.7185	0.7448	0.124
Mof_H 	H 	0.2632	0.6787	0.6703	-0.146
Mof_H 	H 	0.2381	0.611	0.8642	0.03
Mof_H 	H 	0.2662	0.7891	0.8859	0.023
Mof_H 	H 	0.2613	0.7544	0.8119	0.057
Mof_H 	H 	0.9479	0.1346	0.8245	0.065
Mof_H 	H 	0.9271	0.0943	0.7492	0.026
Mof_H 	H 	0.8993	0.9456	0.8045	-0.018
Mof_H 	H 	0.9196	0.9871	0.8784	0.019
Mof_H 	H 	0.9571	0.0561	0.686	0.195
Mof_H 	H 	0.9377	0.0212	0.6098	-0.197
Mof_H 	H 	0.8112	0.8745	0.666	-0.007
Mof_H 	H 	0.8357	0.9175	0.7447	0.133
Mof_H 	H 	0.1923	0.9015	0.0355	0.096
Mof_H 	H 	0.0299	0.8547	0.0305	0.043
Mof_H 	H 	0.0761	0.7401	0.0629	0.091
Mof_H 	H 	0.9586	0.4349	0.55	0.083
Mof_H 	H 	0.8501	0.4828	0.585	0.028
Mof_H 	H 	0.0113	0.5899	0.5909	0.024
Mof_H 	H 	0.7251	0.2897	0.8653	0.055
Mof_H 	H 	0.5752	0.1745	0.8115	0.081
Mof_H 	H 	0.546	0.1427	0.8879	-0.009
Mof_H 	H 	0.76	0.2601	0.7973	0.079
Mof_H 	H 	0.795	0.2751	0.7192	0.012
Mof_H 	H 	0.6488	0.2476	0.6686	-0.101
Mof_H 	H 	0.6138	0.2359	0.7456	0.073
Mof_H 	H 	0.2329	0.8611	0.521	0.051
Mof_H 	H 	0.0748	0.7462	0.4888	0.072
Mof_H 	H 	0.1852	0.6985	0.5207	-0.001
Mof_H 	H 	0.5365	0.1484	0.2222	-0.025
Mof_H 	H 	0.5699	0.17	0.3003	0.109
Mof_H 	H 	0.7185	0.2896	0.2448	0.122
Mof_H 	H 	0.6787	0.2632	0.1703	-0.147
Mof_H 	H 	0.611	0.2381	0.3642	0.037
Mof_H 	H 	0.7891	0.2662	0.3859	0.02
Mof_H 	H 	0.7544	0.2613	0.3119	0.063
Mof_H 	H 	0.1346	0.9479	0.3245	0.068
Mof_H 	H 	0.0943	0.9271	0.2492	0.023
Mof_H 	H 	0.9456	0.8993	0.3045	-0.023
Mof_H 	H 	0.9871	0.9196	0.3784	0.019
Mof_H 	H 	0.0561	0.9571	0.186	0.197
Mof_H 	H 	0.0212	0.9377	0.1098	-0.191
Mof_H 	H 	0.8745	0.8112	0.166	-0.006
Mof_H 	H 	0.9175	0.8357	0.2447	0.135
Mof_H 	H 	0.9015	0.1923	0.5355	0.073
Mof_H 	H 	0.8547	0.0299	0.5305	0.014
Mof_H 	H 	0.7401	0.0761	0.5629	0.081
Mof_H 	H 	0.5651	0.5237	0.55	0.072
Mof_H 	H 	0.5172	0.3673	0.585	0.03
Mof_H 	H 	0.4101	0.4214	0.5909	0.071
Mof_H 	H 	0.7103	0.4354	0.8653	0.054
Mof_H 	H 	0.8255	0.4007	0.8115	0.085
Mof_H 	H 	0.8573	0.4033	0.8879	-0.001
Mof_H 	H 	0.7399	0.4999	0.7973	0.08
Mof_H 	H 	0.7249	0.5199	0.7192	0.01
Mof_H 	H 	0.7524	0.4012	0.6686	-0.101
Mof_H 	H 	0.7641	0.3779	0.7456	0.074
Mof_H 	H 	0.1389	0.3718	0.521	0.043
Mof_H 	H 	0.2538	0.3286	0.4888	0.077
Mof_H 	H 	0.3015	0.4867	0.5207	-0.001
Mof_H 	H 	0.8516	0.3881	0.2222	-0.017
Mof_H 	H 	0.83	0.3999	0.3003	0.114
Mof_H 	H 	0.7104	0.4289	0.2448	0.121
Mof_H 	H 	0.7368	0.4155	0.1703	-0.145
Mof_H 	H 	0.7619	0.3729	0.3642	0.04
Mof_H 	H 	0.7338	0.5229	0.3859	0.018
Mof_H 	H 	0.7387	0.4931	0.3119	0.064
Mof_H 	H 	0.0521	0.1867	0.3245	0.001
Mof_H 	H 	0.0729	0.1672	0.2492	0.085
Mof_H 	H 	0.1007	0.0463	0.3045	0.086
Mof_H 	H 	0.0804	0.0675	0.3784	-0.12
Mof_H 	H 	0.0429	0.099	0.186	0.064
Mof_H 	H 	0.0623	0.0835	0.1098	-0.09
Mof_H 	H 	0.1888	0.0633	0.166	0.029
Mof_H 	H 	0.1643	0.0818	0.2447	0.066
Mof_H 	H 	0.8077	0.7092	0.5355	0.073
Mof_H 	H 	0.9701	0.8248	0.5305	0.04
Mof_H 	H 	0.9239	0.664	0.5629	0.102
Mof_H 	H 	0.4763	0.0414	0.55	0.062
Mof_H 	H 	0.6327	0.1499	0.585	0.032
Mof_H 	H 	0.5786	0.9887	0.5909	0.114
Mof_H 	H 	0.5646	0.2749	0.8653	0.053
Mof_H 	H 	0.5993	0.4248	0.8115	0.083
Mof_H 	H 	0.5967	0.454	0.8879	-0.005
Mof_H 	H 	0.5001	0.24	0.7973	0.078
Mof_H 	H 	0.4801	0.205	0.7192	0.006
Mof_H 	H 	0.5988	0.3512	0.6686	-0.102
Mof_H 	H 	0.6221	0.3862	0.7456	0.074
Mof_H 	H 	0.6282	0.7671	0.521	0.05
Mof_H 	H 	0.6714	0.9252	0.4888	0.085
Mof_H 	H 	0.5133	0.8148	0.5207	0.002
Mof_H 	H 	0.6119	0.4635	0.2222	-0.02
Mof_H 	H 	0.6001	0.4301	0.3003	0.112
Mof_H 	H 	0.5711	0.2815	0.2448	0.121
Mof_H 	H 	0.5845	0.3213	0.1703	-0.146
Mof_H 	H 	0.6271	0.389	0.3642	0.039
Mof_H 	H 	0.4771	0.2109	0.3859	0.014
Mof_H 	H 	0.5069	0.2456	0.3119	0.062
Mof_H 	H 	0.8133	0.8654	0.3245	-0.041
Mof_H 	H 	0.8328	0.9057	0.2492	0.155
Mof_H 	H 	0.9537	0.0544	0.3045	0.219
Mof_H 	H 	0.9325	0.0129	0.3784	-0.218
Mof_H 	H 	0.901	0.9439	0.186	-0.028
Mof_H 	H 	0.9165	0.9788	0.1098	0.032
Mof_H 	H 	0.9367	0.1255	0.166	0.079
Mof_H 	H 	0.9182	0.0825	0.2447	0.015
Mof_H 	H 	0.2908	0.0985	0.5355	0.063
Mof_H 	H 	0.1752	0.1453	0.5305	0.024
Mof_H 	H 	0.336	0.2599	0.5629	0.09
Mof_C 	C 	0.5263	0.4748	0.0555	0.387
Mof_C 	C 	0.4776	0.4838	0.0652	-0.056
Mof_C 	C 	0.4882	0.5371	0.0598	-0.007
Mof_C 	C 	0.4475	0.5503	0.0687	-0.049
Mof_C 	C 	0.3959	0.5085	0.0814	-0.04
Mof_C 	C 	0.383	0.4546	0.0893	0.06
Mof_C 	C 	0.4268	0.4454	0.0827	-0.051
Mof_C 	C 	0.4585	0.6123	0.0402	0.475
Mof_C 	C 	0.4026	0.8166	0.4645	0.54
Mof_C 	C 	0.4107	0.7988	0.4224	-0.299
Mof_C 	C 	0.4195	0.7557	0.4128	0.043
Mof_C 	C 	0.4286	0.7402	0.3682	-0.139
Mof_C 	C 	0.4276	0.769	0.3279	0.058
Mof_C 	C 	0.4101	0.8098	0.3366	-0.164
Mof_C 	C 	0.4075	0.8259	0.3834	0.14
Mof_C 	C 	0.4349	0.7534	0.283	0.051
Mof_C 	C 	0.4785	0.7419	0.2726	-0.141
Mof_C 	C 	0.4911	0.733	0.2244	0.1
Mof_C 	C 	0.4642	0.736	0.19	-0.204
Mof_C 	C 	0.4201	0.749	0.1946	0.105
Mof_C 	C 	0.4072	0.7565	0.2415	-0.152
Mof_C 	C 	0.4829	0.7329	0.1411	0.371
Mof_C 	C 	0.4838	0.2088	0.0379	0.495
Mof_C 	C 	0.4353	0.2189	0.0214	-0.01
Mof_C 	C 	0.382	0.1765	0.0166	-0.155
Mof_C 	C 	0.3447	0.1925	0.0052	0.209
Mof_C 	C 	0.3567	0.2456	0.997	-0.388
Mof_C 	C 	0.4109	0.2864	0.0012	0.29
Mof_C 	C 	0.4497	0.273	0.0152	-0.176
Mof_C 	C 	0.2836	0.1431	0.9961	0.206
Mof_C 	C 	0.3918	0.813	0.6418	0.5
Mof_C 	C 	0.4	0.7944	0.6902	-0.329
Mof_C 	C 	0.3962	0.8229	0.7276	0.184
Mof_C 	C 	0.4041	0.811	0.7747	-0.234
Mof_C 	C 	0.4186	0.7687	0.7809	0.152
Mof_C 	C 	0.4213	0.7398	0.7414	-0.288
Mof_C 	C 	0.4123	0.7554	0.6967	0.273
Mof_C 	C 	0.4319	0.7564	0.8271	-0.027
Mof_C 	C 	0.4039	0.7569	0.8679	-0.047
Mof_C 	C 	0.4178	0.7506	0.9131	-0.062
Mof_C 	C 	0.4618	0.737	0.9163	-0.147
Mof_C 	C 	0.4911	0.7374	0.8816	0.044
Mof_C 	C 	0.4745	0.7435	0.8375	-0.085
Mof_C 	C 	0.4796	0.7334	0.9671	0.38
Mof_C 	C 	0.1458	0.0598	0.9094	0.448
Mof_C 	C 	0.1287	0.0655	0.8598	-0.232
Mof_C 	C 	0.1589	0.0618	0.8202	0.09
Mof_C 	C 	0.1466	0.0728	0.7754	-0.167
Mof_C 	C 	0.0995	0.0843	0.7708	0.073
Mof_C 	C 	0.0733	0.0898	0.8079	-0.214
Mof_C 	C 	0.0873	0.0787	0.8523	0.152
Mof_C 	C 	0.092	0.0991	0.7199	0.05
Mof_C 	C 	0.0925	0.0729	0.6818	-0.167
Mof_C 	C 	0.0845	0.0846	0.635	0.097
Mof_C 	C 	0.078	0.132	0.6286	-0.174
Mof_C 	C 	0.0727	0.1607	0.6697	0.037
Mof_C 	C 	0.0822	0.145	0.7177	-0.126
Mof_C 	C 	0.071	0.1482	0.5796	0.404
Mof_C 	C 	0.6173	0.8094	0.0489	0.263
Mof_C 	C 	0.6745	0.8572	0.0443	0.011
Mof_C 	C 	0.7175	0.845	0.0349	-0.064
Mof_C 	C 	0.7714	0.8866	0.025	0.013
Mof_C 	C 	0.7871	0.9421	0.0339	-0.096
Mof_C 	C 	0.7469	0.9573	0.0482	0.134
Mof_C 	C 	0.691	0.9148	0.0534	-0.115
Mof_C 	C 	0.8133	0.8727	0.9964	0.295
Mof_C 	C 	0.9485	0.4737	0.0555	0.414
Mof_C 	C 	0.0062	0.5224	0.0652	-0.072
Mof_C 	C 	0.0489	0.5118	0.0598	-0.005
Mof_C 	C 	0.1028	0.5525	0.0687	-0.049
Mof_C 	C 	0.1126	0.6041	0.0814	-0.049
Mof_C 	C 	0.0716	0.617	0.0893	0.075
Mof_C 	C 	0.0186	0.5732	0.0827	-0.115
Mof_C 	C 	0.1538	0.5415	0.0402	0.473
Mof_C 	C 	0.414	0.5974	0.4645	0.54
Mof_C 	C 	0.3881	0.5893	0.4224	-0.301
Mof_C 	C 	0.3362	0.5805	0.4128	0.043
Mof_C 	C 	0.3116	0.5714	0.3682	-0.139
Mof_C 	C 	0.3414	0.5724	0.3279	0.056
Mof_C 	C 	0.3997	0.5899	0.3366	-0.166
Mof_C 	C 	0.4184	0.5925	0.3834	0.14
Mof_C 	C 	0.3185	0.5651	0.283	0.05
Mof_C 	C 	0.2634	0.5215	0.2726	-0.143
Mof_C 	C 	0.2419	0.5089	0.2244	0.101
Mof_C 	C 	0.2718	0.5358	0.19	-0.206
Mof_C 	C 	0.3289	0.5799	0.1946	0.105
Mof_C 	C 	0.3493	0.5928	0.2415	-0.154
Mof_C 	C 	0.25	0.5171	0.1411	0.372
Mof_C 	C 	0.725	0.5162	0.0379	0.496
Mof_C 	C 	0.7836	0.5647	0.0214	-0.01
Mof_C 	C 	0.7945	0.618	0.0166	-0.152
Mof_C 	C 	0.8478	0.6553	0.0052	0.206
Mof_C 	C 	0.8889	0.6433	0.997	-0.38
Mof_C 	C 	0.8755	0.5891	0.0012	0.287
Mof_C 	C 	0.8233	0.5503	0.0152	-0.173
Mof_C 	C 	0.8595	0.7164	0.9961	0.208
Mof_C 	C 	0.4212	0.6082	0.6418	0.501
Mof_C 	C 	0.3944	0.6	0.6902	-0.331
Mof_C 	C 	0.4267	0.6038	0.7276	0.184
Mof_C 	C 	0.4069	0.5959	0.7747	-0.236
Mof_C 	C 	0.3501	0.5814	0.7809	0.152
Mof_C 	C 	0.3185	0.5787	0.7414	-0.29
Mof_C 	C 	0.3431	0.5877	0.6967	0.274
Mof_C 	C 	0.3245	0.5681	0.8271	-0.028
Mof_C 	C 	0.353	0.5961	0.8679	-0.047
Mof_C 	C 	0.3328	0.5822	0.9131	-0.064
Mof_C 	C 	0.2752	0.5382	0.9163	-0.148
Mof_C 	C 	0.2463	0.5089	0.8816	0.043
Mof_C 	C 	0.269	0.5255	0.8375	-0.086
Mof_C 	C 	0.2538	0.5204	0.9671	0.379
Mof_C 	C 	0.914	0.8542	0.9094	0.51
Mof_C 	C 	0.9368	0.8713	0.8598	-0.386
Mof_C 	C 	0.9029	0.8411	0.8202	0.263
Mof_C 	C 	0.9262	0.8534	0.7754	-0.347
Mof_C 	C 	0.9848	0.9005	0.7708	0.376
Mof_C 	C 	0.0165	0.9267	0.8079	-0.564
Mof_C 	C 	0.9914	0.9127	0.8523	0.473
Mof_C 	C 	0.0071	0.908	0.7199	-0.24
Mof_C 	C 	0.9804	0.9075	0.6818	0.191
Mof_C 	C 	0.0001	0.9155	0.635	-0.189
Mof_C 	C 	0.054	0.922	0.6286	-0.029
Mof_C 	C 	0.088	0.9273	0.6697	-0.083
Mof_C 	C 	0.0628	0.9178	0.7177	0.058
Mof_C 	C 	0.0772	0.929	0.5796	0.355
Mof_C 	C 	0.1921	0.3827	0.0489	0.266
Mof_C 	C 	0.1827	0.3255	0.0443	-0.001
Mof_C 	C 	0.1275	0.2825	0.0349	-0.055
Mof_C 	C 	0.1152	0.2286	0.025	-0.001
Mof_C 	C 	0.155	0.2129	0.0339	-0.083
Mof_C 	C 	0.2104	0.2531	0.0482	0.102
Mof_C 	C 	0.2238	0.309	0.0534	-0.101
Mof_C 	C 	0.0594	0.1867	0.9964	0.295
Mof_C 	C 	0.5252	0.0515	0.0555	0.361
Mof_C 	C 	0.5162	0.9938	0.0652	-0.042
Mof_C 	C 	0.4629	0.9511	0.0598	-0.008
Mof_C 	C 	0.4497	0.8972	0.0687	-0.05
Mof_C 	C 	0.4915	0.8874	0.0814	-0.032
Mof_C 	C 	0.5454	0.9284	0.0893	0.045
Mof_C 	C 	0.5546	0.9814	0.0827	0.008
Mof_C 	C 	0.3877	0.8462	0.0402	0.477
Mof_C 	C 	0.1834	0.586	0.4645	0.542
Mof_C 	C 	0.2012	0.6119	0.4224	-0.304
Mof_C 	C 	0.2443	0.6638	0.4128	0.044
Mof_C 	C 	0.2598	0.6884	0.3682	-0.141
Mof_C 	C 	0.231	0.6586	0.3279	0.057
Mof_C 	C 	0.1902	0.6003	0.3366	-0.169
Mof_C 	C 	0.1741	0.5816	0.3834	0.141
Mof_C 	C 	0.2466	0.6815	0.283	0.048
Mof_C 	C 	0.2581	0.7366	0.2726	-0.141
Mof_C 	C 	0.267	0.7581	0.2244	0.098
Mof_C 	C 	0.264	0.7282	0.19	-0.203
Mof_C 	C 	0.251	0.6711	0.1946	0.102
Mof_C 	C 	0.2435	0.6507	0.2415	-0.153
Mof_C 	C 	0.2671	0.75	0.1411	0.37
Mof_C 	C 	0.7912	0.275	0.0379	0.496
Mof_C 	C 	0.7811	0.2164	0.0214	-0.011
Mof_C 	C 	0.8235	0.2055	0.0166	-0.152
Mof_C 	C 	0.8075	0.1522	0.0052	0.204
Mof_C 	C 	0.7544	0.1111	0.997	-0.38
Mof_C 	C 	0.7136	0.1245	0.0012	0.282
Mof_C 	C 	0.727	0.1767	0.0152	-0.172
Mof_C 	C 	0.8569	0.1405	0.9961	0.208
Mof_C 	C 	0.187	0.5788	0.6418	0.502
Mof_C 	C 	0.2056	0.6056	0.6902	-0.335
Mof_C 	C 	0.1771	0.5733	0.7276	0.186
Mof_C 	C 	0.189	0.5931	0.7747	-0.24
Mof_C 	C 	0.2313	0.6499	0.7809	0.153
Mof_C 	C 	0.2602	0.6815	0.7414	-0.292
Mof_C 	C 	0.2446	0.6569	0.6967	0.276
Mof_C 	C 	0.2436	0.6755	0.8271	-0.031
Mof_C 	C 	0.2431	0.647	0.8679	-0.046
Mof_C 	C 	0.2494	0.6672	0.9131	-0.066
Mof_C 	C 	0.263	0.7248	0.9163	-0.145
Mof_C 	C 	0.2626	0.7537	0.8816	0.039
Mof_C 	C 	0.2565	0.731	0.8375	-0.083
Mof_C 	C 	0.2666	0.7462	0.9671	0.377
Mof_C 	C 	0.9402	0.086	0.9094	0.392
Mof_C 	C 	0.9345	0.0632	0.8598	-0.064
Mof_C 	C 	0.9382	0.0971	0.8202	-0.054
Mof_C 	C 	0.9272	0.0738	0.7754	0.016
Mof_C 	C 	0.9157	0.0152	0.7708	-0.181
Mof_C 	C 	0.9102	0.9835	0.8079	0.122
Mof_C 	C 	0.9213	0.0086	0.8523	-0.132
Mof_C 	C 	0.9009	0.9929	0.7199	0.331
Mof_C 	C 	0.9271	0.0196	0.6818	-0.479
Mof_C 	C 	0.9154	0.9999	0.635	0.372
Mof_C 	C 	0.868	0.946	0.6286	-0.286
Mof_C 	C 	0.8393	0.912	0.6697	0.165
Mof_C 	C 	0.855	0.9372	0.7177	-0.276
Mof_C 	C 	0.8518	0.9228	0.5796	0.448
Mof_C 	C 	0.1906	0.8079	0.0489	0.268
Mof_C 	C 	0.1428	0.8173	0.0443	-0.004
Mof_C 	C 	0.155	0.8725	0.0349	-0.053
Mof_C 	C 	0.1134	0.8848	0.025	0.002
Mof_C 	C 	0.0579	0.845	0.0339	-0.072
Mof_C 	C 	0.0427	0.7896	0.0482	0.072
Mof_C 	C 	0.0852	0.7762	0.0534	-0.089
Mof_C 	C 	0.1273	0.9406	0.9964	0.29
Mof_C 	C 	0.0515	0.5252	0.5555	0.352
Mof_C 	C 	0.9938	0.5162	0.5652	-0.043
Mof_C 	C 	0.9511	0.4629	0.5598	-0.012
Mof_C 	C 	0.8972	0.4497	0.5687	-0.049
Mof_C 	C 	0.8874	0.4915	0.5814	-0.035
Mof_C 	C 	0.9284	0.5454	0.5893	0.044
Mof_C 	C 	0.9814	0.5546	0.5827	0.012
Mof_C 	C 	0.8462	0.3877	0.5402	0.464
Mof_C 	C 	0.586	0.1834	0.9645	0.491
Mof_C 	C 	0.6119	0.2012	0.9224	-0.283
Mof_C 	C 	0.6638	0.2443	0.9128	0.015
Mof_C 	C 	0.6884	0.2598	0.8682	-0.126
Mof_C 	C 	0.6586	0.231	0.8279	0.046
Mof_C 	C 	0.6003	0.1902	0.8366	-0.158
Mof_C 	C 	0.5816	0.1741	0.8834	0.123
Mof_C 	C 	0.6815	0.2466	0.783	0.053
Mof_C 	C 	0.7366	0.2581	0.7726	-0.143
Mof_C 	C 	0.7581	0.267	0.7244	0.099
Mof_C 	C 	0.7282	0.264	0.69	-0.204
Mof_C 	C 	0.6711	0.251	0.6946	0.103
Mof_C 	C 	0.6507	0.2435	0.7415	-0.155
Mof_C 	C 	0.75	0.2671	0.6411	0.37
Mof_C 	C 	0.275	0.7912	0.5379	0.546
Mof_C 	C 	0.2164	0.7811	0.5214	-0.173
Mof_C 	C 	0.2055	0.8235	0.5166	0.057
Mof_C 	C 	0.1522	0.8075	0.5052	-0.059
Mof_C 	C 	0.1111	0.7544	0.497	-0.053
Mof_C 	C 	0.1245	0.7136	0.5012	0.048
Mof_C 	C 	0.1767	0.727	0.5152	0.016
Mof_C 	C 	0.1405	0.8569	0.4961	0.316
Mof_C 	C 	0.5788	0.187	0.1418	0.502
Mof_C 	C 	0.6056	0.2056	0.1902	-0.334
Mof_C 	C 	0.5733	0.1771	0.2276	0.184
Mof_C 	C 	0.5931	0.189	0.2747	-0.236
Mof_C 	C 	0.6499	0.2313	0.2809	0.148
Mof_C 	C 	0.6815	0.2602	0.2414	-0.289
Mof_C 	C 	0.6569	0.2446	0.1967	0.274
Mof_C 	C 	0.6755	0.2436	0.3271	-0.019
Mof_C 	C 	0.647	0.2431	0.3679	-0.06
Mof_C 	C 	0.6672	0.2494	0.4131	-0.04
Mof_C 	C 	0.7248	0.263	0.4163	-0.164
Mof_C 	C 	0.7537	0.2626	0.3816	0.061
Mof_C 	C 	0.731	0.2565	0.3375	-0.096
Mof_C 	C 	0.7462	0.2666	0.4671	0.43
Mof_C 	C 	0.086	0.9402	0.4094	0.394
Mof_C 	C 	0.0632	0.9345	0.3598	-0.06
Mof_C 	C 	0.0971	0.9382	0.3202	-0.059
Mof_C 	C 	0.0738	0.9272	0.2754	0.022
Mof_C 	C 	0.0152	0.9157	0.2708	-0.192
Mof_C 	C 	0.9835	0.9102	0.3079	0.135
Mof_C 	C 	0.0086	0.9213	0.3523	-0.143
Mof_C 	C 	0.9929	0.9009	0.2199	0.339
Mof_C 	C 	0.0196	0.9271	0.1818	-0.487
Mof_C 	C 	0.9999	0.9154	0.135	0.375
Mof_C 	C 	0.946	0.868	0.1286	-0.281
Mof_C 	C 	0.912	0.8393	0.1697	0.165
Mof_C 	C 	0.9372	0.855	0.2177	-0.279
Mof_C 	C 	0.9228	0.8518	0.0796	0.439
Mof_C 	C 	0.8079	0.1906	0.5489	0.274
Mof_C 	C 	0.8173	0.1428	0.5443	-0.037
Mof_C 	C 	0.8725	0.155	0.5349	-0.001
Mof_C 	C 	0.8848	0.1134	0.525	-0.091
Mof_C 	C 	0.845	0.0579	0.5339	-0.022
Mof_C 	C 	0.7896	0.0427	0.5482	0.042
Mof_C 	C 	0.7762	0.0852	0.5534	-0.067
Mof_C 	C 	0.9406	0.1273	0.4964	0.457
Mof_C 	C 	0.4748	0.5263	0.5555	0.381
Mof_C 	C 	0.4838	0.4776	0.5652	-0.059
Mof_C 	C 	0.5371	0.4882	0.5598	-0.01
Mof_C 	C 	0.5503	0.4475	0.5687	-0.049
Mof_C 	C 	0.5085	0.3959	0.5814	-0.044
Mof_C 	C 	0.4546	0.383	0.5893	0.059
Mof_C 	C 	0.4454	0.4268	0.5827	-0.054
Mof_C 	C 	0.6123	0.4585	0.5402	0.462
Mof_C 	C 	0.8166	0.4026	0.9645	0.49
Mof_C 	C 	0.7988	0.4107	0.9224	-0.278
Mof_C 	C 	0.7557	0.4195	0.9128	0.014
Mof_C 	C 	0.7402	0.4286	0.8682	-0.124
Mof_C 	C 	0.769	0.4276	0.8279	0.046
Mof_C 	C 	0.8098	0.4101	0.8366	-0.153
Mof_C 	C 	0.8259	0.4075	0.8834	0.122
Mof_C 	C 	0.7534	0.4349	0.783	0.056
Mof_C 	C 	0.7419	0.4785	0.7726	-0.143
Mof_C 	C 	0.733	0.4911	0.7244	0.102
Mof_C 	C 	0.736	0.4642	0.69	-0.204
Mof_C 	C 	0.749	0.4201	0.6946	0.106
Mof_C 	C 	0.7565	0.4072	0.7415	-0.155
Mof_C 	C 	0.7329	0.4829	0.6411	0.371
Mof_C 	C 	0.2088	0.4838	0.5379	0.547
Mof_C 	C 	0.2189	0.4353	0.5214	-0.177
Mof_C 	C 	0.1765	0.382	0.5166	0.061
Mof_C 	C 	0.1925	0.3447	0.5052	-0.063
Mof_C 	C 	0.2456	0.3567	0.497	-0.052
Mof_C 	C 	0.2864	0.4109	0.5012	0.05
Mof_C 	C 	0.273	0.4497	0.5152	0.018
Mof_C 	C 	0.1431	0.2836	0.4961	0.317
Mof_C 	C 	0.813	0.3918	0.1418	0.501
Mof_C 	C 	0.7944	0.4	0.1902	-0.328
Mof_C 	C 	0.8229	0.3962	0.2276	0.182
Mof_C 	C 	0.811	0.4041	0.2747	-0.231
Mof_C 	C 	0.7687	0.4186	0.2809	0.147
Mof_C 	C 	0.7398	0.4213	0.2414	-0.285
Mof_C 	C 	0.7554	0.4123	0.1967	0.271
Mof_C 	C 	0.7564	0.4319	0.3271	-0.015
Mof_C 	C 	0.7569	0.4039	0.3679	-0.061
Mof_C 	C 	0.7506	0.4178	0.4131	-0.035
Mof_C 	C 	0.737	0.4618	0.4163	-0.166
Mof_C 	C 	0.7374	0.4911	0.3816	0.065
Mof_C 	C 	0.7435	0.4745	0.3375	-0.097
Mof_C 	C 	0.7334	0.4796	0.4671	0.432
Mof_C 	C 	0.0598	0.1458	0.4094	0.454
Mof_C 	C 	0.0655	0.1287	0.3598	-0.238
Mof_C 	C 	0.0618	0.1589	0.3202	0.094
Mof_C 	C 	0.0728	0.1466	0.2754	-0.171
Mof_C 	C 	0.0843	0.0995	0.2708	0.079
Mof_C 	C 	0.0898	0.0733	0.3079	-0.221
Mof_C 	C 	0.0787	0.0873	0.3523	0.16
Mof_C 	C 	0.0991	0.092	0.2199	0.043
Mof_C 	C 	0.0729	0.0925	0.1818	-0.156
Mof_C 	C 	0.0846	0.0845	0.135	0.086
Mof_C 	C 	0.132	0.078	0.1286	-0.162
Mof_C 	C 	0.1607	0.0727	0.1697	0.031
Mof_C 	C 	0.145	0.0822	0.2177	-0.12
Mof_C 	C 	0.1482	0.071	0.0796	0.392
Mof_C 	C 	0.8094	0.6173	0.5489	0.27
Mof_C 	C 	0.8572	0.6745	0.5443	-0.02
Mof_C 	C 	0.845	0.7175	0.5349	-0.013
Mof_C 	C 	0.8866	0.7714	0.525	-0.078
Mof_C 	C 	0.9421	0.7871	0.5339	-0.048
Mof_C 	C 	0.9573	0.7469	0.5482	0.107
Mof_C 	C 	0.9148	0.691	0.5534	-0.094
Mof_C 	C 	0.8727	0.8133	0.4964	0.459
Mof_C 	C 	0.4737	0.9485	0.5555	0.408
Mof_C 	C 	0.5224	0.0062	0.5652	-0.074
Mof_C 	C 	0.5118	0.0489	0.5598	-0.008
Mof_C 	C 	0.5525	0.1028	0.5687	-0.049
Mof_C 	C 	0.6041	0.1126	0.5814	-0.053
Mof_C 	C 	0.617	0.0716	0.5893	0.075
Mof_C 	C 	0.5732	0.0186	0.5827	-0.116
Mof_C 	C 	0.5415	0.1538	0.5402	0.461
Mof_C 	C 	0.5974	0.414	0.9645	0.49
Mof_C 	C 	0.5893	0.3881	0.9224	-0.28
Mof_C 	C 	0.5805	0.3362	0.9128	0.013
Mof_C 	C 	0.5714	0.3116	0.8682	-0.124
Mof_C 	C 	0.5724	0.3414	0.8279	0.045
Mof_C 	C 	0.5899	0.3997	0.8366	-0.155
Mof_C 	C 	0.5925	0.4184	0.8834	0.122
Mof_C 	C 	0.5651	0.3185	0.783	0.055
Mof_C 	C 	0.5215	0.2634	0.7726	-0.146
Mof_C 	C 	0.5089	0.2419	0.7244	0.102
Mof_C 	C 	0.5358	0.2718	0.69	-0.207
Mof_C 	C 	0.5799	0.3289	0.6946	0.106
Mof_C 	C 	0.5928	0.3493	0.7415	-0.156
Mof_C 	C 	0.5171	0.25	0.6411	0.371
Mof_C 	C 	0.5162	0.725	0.5379	0.545
Mof_C 	C 	0.5647	0.7836	0.5214	-0.17
Mof_C 	C 	0.618	0.7945	0.5166	0.054
Mof_C 	C 	0.6553	0.8478	0.5052	-0.053
Mof_C 	C 	0.6433	0.8889	0.497	-0.059
Mof_C 	C 	0.5891	0.8755	0.5012	0.058
Mof_C 	C 	0.5503	0.8233	0.5152	0.012
Mof_C 	C 	0.7164	0.8595	0.4961	0.314
Mof_C 	C 	0.6082	0.4212	0.1418	0.501
Mof_C 	C 	0.6	0.3944	0.1902	-0.33
Mof_C 	C 	0.6038	0.4267	0.2276	0.183
Mof_C 	C 	0.5959	0.4069	0.2747	-0.233
Mof_C 	C 	0.5814	0.3501	0.2809	0.146
Mof_C 	C 	0.5787	0.3185	0.2414	-0.286
Mof_C 	C 	0.5877	0.3431	0.1967	0.272
Mof_C 	C 	0.5681	0.3245	0.3271	-0.016
Mof_C 	C 	0.5961	0.353	0.3679	-0.061
Mof_C 	C 	0.5822	0.3328	0.4131	-0.037
Mof_C 	C 	0.5382	0.2752	0.4163	-0.167
Mof_C 	C 	0.5089	0.2463	0.3816	0.064
Mof_C 	C 	0.5255	0.269	0.3375	-0.099
Mof_C 	C 	0.5204	0.2538	0.4671	0.432
Mof_C 	C 	0.8542	0.914	0.4094	0.51
Mof_C 	C 	0.8713	0.9368	0.3598	-0.375
Mof_C 	C 	0.8411	0.9029	0.3202	0.251
Mof_C 	C 	0.8534	0.9262	0.2754	-0.332
Mof_C 	C 	0.9005	0.9848	0.2708	0.353
Mof_C 	C 	0.9267	0.0165	0.3079	-0.535
Mof_C 	C 	0.9127	0.9914	0.3523	0.45
Mof_C 	C 	0.908	0.0071	0.2199	-0.216
Mof_C 	C 	0.9075	0.9804	0.1818	0.166
Mof_C 	C 	0.9155	0.0001	0.135	-0.17
Mof_C 	C 	0.922	0.054	0.1286	-0.031
Mof_C 	C 	0.9273	0.088	0.1697	-0.076
Mof_C 	C 	0.9178	0.0628	0.2177	0.047
Mof_C 	C 	0.929	0.0772	0.0796	0.348
Mof_C 	C 	0.3827	0.1921	0.5489	0.274
Mof_C 	C 	0.3255	0.1827	0.5443	-0.036
Mof_C 	C 	0.2825	0.1275	0.5349	-0
Mof_C 	C 	0.2286	0.1152	0.525	-0.098
Mof_C 	C 	0.2129	0.155	0.5339	-0.03
Mof_C 	C 	0.2531	0.2104	0.5482	0.07
Mof_C 	C 	0.309	0.2238	0.5534	-0.077
Mof_C 	C 	0.1867	0.0594	0.4964	0.469
Mof_N 	N 	0.4307	0.3452	0.9836	-0.158
Mof_N 	N 	0.7648	0.0181	0.0561	-0.113
Mof_N 	N 	0.3272	0.4253	0.0609	-0.088
Mof_N 	N 	0.9145	0.5693	0.9836	-0.149
Mof_N 	N 	0.2533	0.2352	0.0561	-0.093
Mof_N 	N 	0.0981	0.6728	0.0609	-0.094
Mof_N 	N 	0.6548	0.0855	0.9836	-0.162
Mof_N 	N 	0.9819	0.7467	0.0561	-0.074
Mof_N 	N 	0.5747	0.9019	0.0609	-0.082
Mof_N 	N 	0.0855	0.6548	0.4836	-0.104
Mof_N 	N 	0.7467	0.9819	0.5561	-0.079
Mof_N 	N 	0.9019	0.5747	0.5609	-0.086
Mof_N 	N 	0.3452	0.4307	0.4836	-0.098
Mof_N 	N 	0.0181	0.7648	0.5561	-0.119
Mof_N 	N 	0.4253	0.3272	0.5609	-0.092
Mof_N 	N 	0.5693	0.9145	0.4836	-0.092
Mof_N 	N 	0.2352	0.2533	0.5561	-0.098
Mof_N 	N 	0.6728	0.0981	0.5609	-0.098
Mof_O 	O 	0.5736	0.5116	0.0575	-0.526
Mof_O 	O 	0.5182	0.4239	0.0597	-0.516
Mof_O 	O 	0.404	0.7899	0.5046	-0.827
Mof_O 	O 	0.3951	0.8543	0.4758	-0.601
Mof_O 	O 	0.5309	0.2344	0.0393	-0.806
Mof_O 	O 	0.4638	0.1533	0.0485	-0.567
Mof_O 	O 	0.3823	0.8524	0.6337	-0.568
Mof_O 	O 	0.3942	0.785	0.6079	-0.836
Mof_O 	O 	0.4295	0.628	0.0522	-0.778
Mof_O 	O 	0.5127	0.6458	0.0505	-0.566
Mof_O 	O 	0.4567	0.7378	0.1051	-0.791
Mof_O 	O 	0.5249	0.7247	0.1347	-0.505
Mof_O 	O 	0.2417	0.1522	0.9935	-0.437
Mof_O 	O 	0.2726	0.0929	0.9964	-0.458
Mof_O 	O 	0.5165	0.7202	0.9759	-0.58
Mof_O 	O 	0.4566	0.737	0.0051	-0.785
Mof_O 	O 	0.1205	0.0656	0.9431	-0.78
Mof_O 	O 	0.186	0.0516	0.9143	-0.53
Mof_O 	O 	0.0697	0.122	0.5459	-0.799
Mof_O 	O 	0.0653	0.1941	0.5804	-0.445
Mof_O 	O 	0.6047	0.7586	0.0528	-0.474
Mof_O 	O 	0.5759	0.8216	0.0543	-0.431
Mof_O 	O 	0.8626	0.904	0.0018	-0.588
Mof_O 	O 	0.799	0.8209	0.0016	-0.484
Mof_O 	O 	0.938	0.4264	0.0575	-0.523
Mof_O 	O 	0.9057	0.4818	0.0597	-0.517
Mof_O 	O 	0.3859	0.596	0.5046	-0.827
Mof_O 	O 	0.4592	0.6049	0.4758	-0.604
Mof_O 	O 	0.7035	0.4691	0.0393	-0.806
Mof_O 	O 	0.6895	0.5362	0.0485	-0.564
Mof_O 	O 	0.4701	0.6177	0.6337	-0.571
Mof_O 	O 	0.3908	0.6058	0.6079	-0.836
Mof_O 	O 	0.1985	0.5705	0.0522	-0.778
Mof_O 	O 	0.1331	0.4873	0.0505	-0.569
Mof_O 	O 	0.2811	0.5433	0.1051	-0.792
Mof_O 	O 	0.1998	0.4751	0.1347	-0.508
Mof_O 	O 	0.9105	0.7583	0.9935	-0.436
Mof_O 	O 	0.8203	0.7274	0.9964	-0.455
Mof_O 	O 	0.2037	0.4835	0.9759	-0.583
Mof_O 	O 	0.2804	0.5434	0.0051	-0.785
Mof_O 	O 	0.9451	0.8795	0.9431	-0.778
Mof_O 	O 	0.8656	0.814	0.9143	-0.539
Mof_O 	O 	0.0523	0.9303	0.5459	-0.788
Mof_O 	O 	0.1288	0.9347	0.5804	-0.426
Mof_O 	O 	0.1539	0.3953	0.0528	-0.48
Mof_O 	O 	0.2457	0.4241	0.0543	-0.434
Mof_O 	O 	0.0414	0.1374	0.0018	-0.613
Mof_O 	O 	0.0219	0.201	0.0016	-0.512
Mof_O 	O 	0.4884	0.062	0.0575	-0.53
Mof_O 	O 	0.5761	0.0943	0.0597	-0.514
Mof_O 	O 	0.2101	0.6141	0.5046	-0.827
Mof_O 	O 	0.1457	0.5408	0.4758	-0.608
Mof_O 	O 	0.7656	0.2965	0.0393	-0.807
Mof_O 	O 	0.8467	0.3105	0.0485	-0.561
Mof_O 	O 	0.1476	0.5299	0.6337	-0.576
Mof_O 	O 	0.215	0.6092	0.6079	-0.837
Mof_O 	O 	0.372	0.8015	0.0522	-0.778
Mof_O 	O 	0.3542	0.8669	0.0505	-0.562
Mof_O 	O 	0.2622	0.7189	0.1051	-0.792
Mof_O 	O 	0.2753	0.8002	0.1347	-0.504
Mof_O 	O 	0.8478	0.0895	0.9935	-0.454
Mof_O 	O 	0.9071	0.1797	0.9964	-0.455
Mof_O 	O 	0.2798	0.7963	0.9759	-0.578
Mof_O 	O 	0.263	0.7196	0.0051	-0.785
Mof_O 	O 	0.9344	0.0549	0.9431	-0.769
Mof_O 	O 	0.9484	0.1344	0.9143	-0.507
Mof_O 	O 	0.878	0.9477	0.5459	-0.796
Mof_O 	O 	0.8059	0.8712	0.5804	-0.446
Mof_O 	O 	0.2414	0.8461	0.0528	-0.473
Mof_O 	O 	0.1784	0.7543	0.0543	-0.435
Mof_O 	O 	0.096	0.9586	0.0018	-0.572
Mof_O 	O 	0.1791	0.9781	0.0016	-0.453
Mof_O 	O 	0.062	0.4884	0.5575	-0.532
Mof_O 	O 	0.0943	0.5761	0.5597	-0.516
Mof_O 	O 	0.6141	0.2101	0.0046	-0.796
Mof_O 	O 	0.5408	0.1457	0.9758	-0.624
Mof_O 	O 	0.2965	0.7656	0.5393	-0.828
Mof_O 	O 	0.3105	0.8467	0.5485	-0.573
Mof_O 	O 	0.5299	0.1476	0.1337	-0.579
Mof_O 	O 	0.6092	0.215	0.1079	-0.843
Mof_O 	O 	0.8015	0.372	0.5522	-0.774
Mof_O 	O 	0.8669	0.3542	0.5505	-0.562
Mof_O 	O 	0.7189	0.2622	0.6051	-0.785
Mof_O 	O 	0.8002	0.2753	0.6347	-0.5
Mof_O 	O 	0.0895	0.8478	0.4935	-0.473
Mof_O 	O 	0.1797	0.9071	0.4964	-0.47
Mof_O 	O 	0.7963	0.2798	0.4759	-0.561
Mof_O 	O 	0.7196	0.263	0.5051	-0.822
Mof_O 	O 	0.0549	0.9344	0.4431	-0.789
Mof_O 	O 	0.1344	0.9484	0.4143	-0.515
Mof_O 	O 	0.9477	0.878	0.0459	-0.746
Mof_O 	O 	0.8712	0.8059	0.0804	-0.423
Mof_O 	O 	0.8461	0.2414	0.5528	-0.478
Mof_O 	O 	0.7543	0.1784	0.5543	-0.439
Mof_O 	O 	0.9586	0.096	0.5018	-0.682
Mof_O 	O 	0.9781	0.1791	0.5016	-0.544
Mof_O 	O 	0.5116	0.5736	0.5575	-0.528
Mof_O 	O 	0.4239	0.5182	0.5597	-0.518
Mof_O 	O 	0.7899	0.404	0.0046	-0.796
Mof_O 	O 	0.8543	0.3951	0.9758	-0.617
Mof_O 	O 	0.2344	0.5309	0.5393	-0.828
Mof_O 	O 	0.1533	0.4638	0.5485	-0.58
Mof_O 	O 	0.8524	0.3823	0.1337	-0.571
Mof_O 	O 	0.785	0.3942	0.1079	-0.842
Mof_O 	O 	0.628	0.4295	0.5522	-0.774
Mof_O 	O 	0.6458	0.5127	0.5505	-0.566
Mof_O 	O 	0.7378	0.4567	0.6051	-0.784
Mof_O 	O 	0.7247	0.5249	0.6347	-0.502
Mof_O 	O 	0.1522	0.2417	0.4935	-0.456
Mof_O 	O 	0.0929	0.2726	0.4964	-0.474
Mof_O 	O 	0.7202	0.5165	0.4759	-0.562
Mof_O 	O 	0.737	0.4566	0.5051	-0.821
Mof_O 	O 	0.0656	0.1205	0.4431	-0.8
Mof_O 	O 	0.0516	0.186	0.4143	-0.539
Mof_O 	O 	0.122	0.0697	0.0459	-0.747
Mof_O 	O 	0.1941	0.0653	0.0804	-0.419
Mof_O 	O 	0.7586	0.6047	0.5528	-0.48
Mof_O 	O 	0.8216	0.5759	0.5543	-0.435
Mof_O 	O 	0.904	0.8626	0.5018	-0.697
Mof_O 	O 	0.8209	0.799	0.5016	-0.575
Mof_O 	O 	0.4264	0.938	0.5575	-0.525
Mof_O 	O 	0.4818	0.9057	0.5597	-0.519
Mof_O 	O 	0.596	0.3859	0.0046	-0.796
Mof_O 	O 	0.6049	0.4592	0.9758	-0.621
Mof_O 	O 	0.4691	0.7035	0.5393	-0.827
Mof_O 	O 	0.5362	0.6895	0.5485	-0.576
Mof_O 	O 	0.6177	0.4701	0.1337	-0.574
Mof_O 	O 	0.6058	0.3908	0.1079	-0.842
Mof_O 	O 	0.5705	0.1985	0.5522	-0.774
Mof_O 	O 	0.4873	0.1331	0.5505	-0.569
Mof_O 	O 	0.5433	0.2811	0.6051	-0.785
Mof_O 	O 	0.4751	0.1998	0.6347	-0.505
Mof_O 	O 	0.7583	0.9105	0.4935	-0.455
Mof_O 	O 	0.7274	0.8203	0.4964	-0.469
Mof_O 	O 	0.4835	0.2037	0.4759	-0.565
Mof_O 	O 	0.5434	0.2804	0.5051	-0.822
Mof_O 	O 	0.8795	0.9451	0.4431	-0.798
Mof_O 	O 	0.814	0.8656	0.4143	-0.546
Mof_O 	O 	0.9303	0.0523	0.0459	-0.739
Mof_O 	O 	0.9347	0.1288	0.0804	-0.403
Mof_O 	O 	0.3953	0.1539	0.5528	-0.486
Mof_O 	O 	0.4241	0.2457	0.5543	-0.438
Mof_O 	O 	0.1374	0.0414	0.5018	-0.727
Mof_O 	O 	0.201	0.0219	0.5016	-0.606
_end
