data_functionalizedCrystal
_audit_creation_method	'EQeq! by Chris Wilmer'
_symmetry_space_group_name_H-M	'P1'
_symmetry_Int_Tables_number	1
_symmetry_cell_setting	triclinic
loop_
_symmetry_equiv_pos_as_xyz
  x,y,z
_cell_length_a	16.1558
_cell_length_b	16.1558
_cell_length_c	30.9598
_cell_angle_alpha	100.819
_cell_angle_beta	100.819
_cell_angle_gamma	95.831
loop_
_atom_site_label
_atom_site_type_symbol
_atom_site_fract_x
_atom_site_fract_y
_atom_site_fract_z
_atom_site_charge
Mof_Dy	Dy	0.18644	0.64029	0.69884	2.076
Mof_Dy	Dy	0.0143	0.63186	0.58735	1.786
Mof_Dy	Dy	0.35971	0.81356	0.80116	2.076
Mof_Dy	Dy	0.36814	0.9857	0.91265	1.784
Mof_Dy	Dy	0.81355	0.35971	0.30116	2.076
Mof_Dy	Dy	0.9857	0.36814	0.41265	1.786
Mof_Dy	Dy	0.64029	0.18644	0.19884	2.076
Mof_Dy	Dy	0.63186	0.0143	0.08735	1.785
Mof_H 	H 	0.4831	0.3049	0.4452	0.059
Mof_H 	H 	0.3999	0.3703	0.4976	0.058
Mof_H 	H 	0.3	0.2834	0.6406	0.057
Mof_H 	H 	0.3535	0.1941	0.6933	0.06
Mof_H 	H 	0.6374	0.0478	0.716	0.073
Mof_H 	H 	0.7281	0.9897	0.6648	0.063
Mof_H 	H 	0.6787	0.9305	0.4828	0.067
Mof_H 	H 	0.6245	0.0165	0.428	0.071
Mof_H 	H 	0.2255	0.2765	0.5319	0.104
Mof_H 	H 	0.1277	0.3671	0.5432	-0.006
Mof_H 	H 	0.3177	0.5449	0.6227	-0.02
Mof_H 	H 	0.4153	0.4523	0.6103	0.098
Mof_H 	H 	0.5821	0.1733	0.7618	0.115
Mof_H 	H 	0.5523	0.1403	0.8279	0.004
Mof_H 	H 	0.3349	0.9937	0.7564	-0.004
Mof_H 	H 	0.3656	0.0254	0.6898	0.093
Mof_H 	H 	0.6582	0.8512	0.6002	0.08
Mof_H 	H 	0.7534	0.7538	0.6059	0.027
Mof_H 	H 	0.9119	0.8987	0.5523	0.026
Mof_H 	H 	0.8151	0.9963	0.5505	0.081
Mof_H 	H 	0.6652	0.2726	0.4509	0.101
Mof_H 	H 	0.7021	0.2933	0.3832	-0.017
Mof_H 	H 	0.5186	0.1002	0.3144	-0.007
Mof_H 	H 	0.4826	0.0794	0.3805	0.109
Mof_H 	H 	0.9754	0.0582	0.6677	0.059
Mof_H 	H 	0.9126	0.1422	0.6145	0.06
Mof_H 	H 	0.6809	0.3511	0.6111	0.07
Mof_H 	H 	0.5928	0.4124	0.6631	0.058
Mof_H 	H 	0.904	0.9218	0.7055	0.093
Mof_H 	H 	0.9999	0.8227	0.705	0.001
Mof_H 	H 	0.723	0.1668	0.5626	0.114
Mof_H 	H 	0.7538	0.1746	0.4941	0.014
Mof_H 	H 	0.9355	0.3747	0.5542	0.012
Mof_H 	H 	0.9092	0.3574	0.6241	0.091
Mof_H 	H 	0.4685	0.3571	0.7042	0.102
Mof_H 	H 	0.3736	0.454	0.7026	-0.011
Mof_H 	H 	0.6951	0.5169	0.0548	0.059
Mof_H 	H 	0.6297	0.6001	0.0024	0.058
Mof_H 	H 	0.7166	0.7	0.8594	0.057
Mof_H 	H 	0.8059	0.6465	0.8067	0.06
Mof_H 	H 	0.9522	0.3626	0.784	0.073
Mof_H 	H 	0.0103	0.2719	0.8352	0.063
Mof_H 	H 	0.0695	0.3213	0.0172	0.067
Mof_H 	H 	0.9835	0.3755	0.072	0.071
Mof_H 	H 	0.7235	0.7745	0.9681	0.104
Mof_H 	H 	0.6329	0.8723	0.9568	-0.006
Mof_H 	H 	0.4551	0.6823	0.8773	-0.02
Mof_H 	H 	0.5477	0.5847	0.8897	0.098
Mof_H 	H 	0.8267	0.4179	0.7382	0.114
Mof_H 	H 	0.8597	0.4477	0.6721	0.004
Mof_H 	H 	0.0063	0.6651	0.7436	-0.004
Mof_H 	H 	0.9746	0.6344	0.8102	0.093
Mof_H 	H 	0.1488	0.3418	0.8998	0.08
Mof_H 	H 	0.2462	0.2466	0.8941	0.027
Mof_H 	H 	0.1013	0.0881	0.9477	0.026
Mof_H 	H 	0.0037	0.1849	0.9495	0.081
Mof_H 	H 	0.7274	0.3348	0.0491	0.101
Mof_H 	H 	0.7067	0.2979	0.1168	-0.017
Mof_H 	H 	0.8998	0.4814	0.1856	-0.007
Mof_H 	H 	0.9206	0.5174	0.1195	0.109
Mof_H 	H 	0.9418	0.0246	0.8323	0.059
Mof_H 	H 	0.8578	0.0874	0.8855	0.06
Mof_H 	H 	0.6489	0.3191	0.8889	0.07
Mof_H 	H 	0.5876	0.4072	0.8369	0.058
Mof_H 	H 	0.0782	0.096	0.7945	0.093
Mof_H 	H 	0.1773	0.0001	0.795	0.001
Mof_H 	H 	0.8332	0.277	0.9374	0.115
Mof_H 	H 	0.8254	0.2462	0.0059	0.013
Mof_H 	H 	0.6253	0.0645	0.9458	0.012
Mof_H 	H 	0.6426	0.0908	0.8759	0.091
Mof_H 	H 	0.6429	0.5315	0.7958	0.102
Mof_H 	H 	0.546	0.6264	0.7974	-0.011
Mof_H 	H 	0.5169	0.6951	0.5548	0.059
Mof_H 	H 	0.6001	0.6297	0.5024	0.058
Mof_H 	H 	0.7	0.7166	0.3594	0.057
Mof_H 	H 	0.6465	0.8059	0.3067	0.06
Mof_H 	H 	0.3626	0.9522	0.284	0.073
Mof_H 	H 	0.2719	0.0103	0.3352	0.063
Mof_H 	H 	0.3213	0.0695	0.5172	0.067
Mof_H 	H 	0.3755	0.9835	0.572	0.071
Mof_H 	H 	0.7745	0.7235	0.4681	0.104
Mof_H 	H 	0.8723	0.6329	0.4568	-0.006
Mof_H 	H 	0.6823	0.4551	0.3773	-0.02
Mof_H 	H 	0.5847	0.5477	0.3897	0.098
Mof_H 	H 	0.4179	0.8267	0.2382	0.115
Mof_H 	H 	0.4477	0.8597	0.1721	0.004
Mof_H 	H 	0.6651	0.0063	0.2436	-0.004
Mof_H 	H 	0.6344	0.9746	0.3102	0.093
Mof_H 	H 	0.3418	0.1488	0.3998	0.08
Mof_H 	H 	0.2466	0.2462	0.3941	0.027
Mof_H 	H 	0.0881	0.1013	0.4477	0.026
Mof_H 	H 	0.1849	0.0037	0.4495	0.081
Mof_H 	H 	0.3348	0.7274	0.5491	0.101
Mof_H 	H 	0.2979	0.7067	0.6168	-0.017
Mof_H 	H 	0.4814	0.8998	0.6856	-0.007
Mof_H 	H 	0.5174	0.9206	0.6195	0.109
Mof_H 	H 	0.0246	0.9418	0.3323	0.059
Mof_H 	H 	0.0874	0.8578	0.3855	0.06
Mof_H 	H 	0.3191	0.6489	0.3889	0.07
Mof_H 	H 	0.4072	0.5876	0.3369	0.058
Mof_H 	H 	0.096	0.0782	0.2945	0.093
Mof_H 	H 	0.0001	0.1773	0.295	0.001
Mof_H 	H 	0.277	0.8332	0.4374	0.114
Mof_H 	H 	0.2462	0.8254	0.5059	0.014
Mof_H 	H 	0.0645	0.6253	0.4458	0.012
Mof_H 	H 	0.0908	0.6426	0.3759	0.091
Mof_H 	H 	0.5315	0.6429	0.2958	0.102
Mof_H 	H 	0.6264	0.546	0.2974	-0.011
Mof_H 	H 	0.3049	0.4831	0.9452	0.059
Mof_H 	H 	0.3703	0.3999	0.9976	0.058
Mof_H 	H 	0.2834	0.3	0.1406	0.057
Mof_H 	H 	0.1941	0.3535	0.1933	0.06
Mof_H 	H 	0.0478	0.6374	0.216	0.073
Mof_H 	H 	0.9897	0.7281	0.1648	0.063
Mof_H 	H 	0.9305	0.6787	0.9828	0.067
Mof_H 	H 	0.0165	0.6245	0.928	0.071
Mof_H 	H 	0.2765	0.2255	0.0319	0.104
Mof_H 	H 	0.3671	0.1277	0.0432	-0.006
Mof_H 	H 	0.5449	0.3177	0.1227	-0.02
Mof_H 	H 	0.4523	0.4153	0.1103	0.098
Mof_H 	H 	0.1733	0.5821	0.2618	0.114
Mof_H 	H 	0.1403	0.5523	0.3279	0.004
Mof_H 	H 	0.9937	0.3349	0.2564	-0.004
Mof_H 	H 	0.0254	0.3656	0.1898	0.093
Mof_H 	H 	0.8512	0.6582	0.1002	0.08
Mof_H 	H 	0.7538	0.7534	0.1059	0.027
Mof_H 	H 	0.8987	0.9119	0.0523	0.026
Mof_H 	H 	0.9963	0.8151	0.0505	0.081
Mof_H 	H 	0.2726	0.6652	0.9509	0.101
Mof_H 	H 	0.2933	0.7021	0.8832	-0.017
Mof_H 	H 	0.1002	0.5186	0.8144	-0.007
Mof_H 	H 	0.0794	0.4826	0.8805	0.109
Mof_H 	H 	0.0582	0.9754	0.1677	0.059
Mof_H 	H 	0.1422	0.9126	0.1145	0.06
Mof_H 	H 	0.3511	0.6809	0.1111	0.07
Mof_H 	H 	0.4124	0.5928	0.1631	0.058
Mof_H 	H 	0.9218	0.904	0.2055	0.093
Mof_H 	H 	0.8227	0.9999	0.205	0.001
Mof_H 	H 	0.1668	0.723	0.0626	0.115
Mof_H 	H 	0.1746	0.7538	0.9941	0.013
Mof_H 	H 	0.3747	0.9355	0.0542	0.012
Mof_H 	H 	0.3574	0.9092	0.1241	0.091
Mof_H 	H 	0.3571	0.4685	0.2042	0.102
Mof_H 	H 	0.454	0.3736	0.2026	-0.011
Mof_C 	C 	0.5082	0.218	0.48875	0.113
Mof_C 	C 	0.4746	0.2874	0.4719	-0.081
Mof_C 	C 	0.4295	0.3229	0.5001	-0.075
Mof_C 	C 	0.4341	0.2757	0.5355	0.111
Mof_C 	C 	0.3884	0.288	0.5704	-0.11
Mof_C 	C 	0.3943	0.2407	0.60408	0.111
Mof_C 	C 	0.3446	0.2498	0.6386	-0.08
Mof_C 	C 	0.3741	0.2013	0.6672	-0.081
Mof_C 	C 	0.4422	0.1622	0.65148	0.109
Mof_C 	C 	0.4973	0.1181	0.67567	-0.104
Mof_C 	C 	0.5681	0.0867	0.66037	0.118
Mof_C 	C 	0.6307	0.0495	0.6851	-0.076
Mof_C 	C 	0.6797	0.0169	0.6572	-0.067
Mof_C 	C 	0.6438	0.0318	0.6134	0.101
Mof_C 	C 	0.665	0.995	0.573	-0.092
Mof_C 	C 	0.6314	0.0152	0.53138	0.103
Mof_C 	C 	0.6503	0.9787	0.4887	-0.057
Mof_C 	C 	0.6204	0.025	0.4587	-0.064
Mof_C 	C 	0.5807	0.0907	0.48299	0.117
Mof_C 	C 	0.5513	0.1597	0.46617	-0.11
Mof_C 	C 	0.3289	0.3525	0.5718	0.141
Mof_C 	C 	0.2441	0.3309	0.5512	-0.201
Mof_C 	C 	0.1859	0.3845	0.55753	0.117
Mof_C 	C 	0.2121	0.4661	0.58534	-0.217
Mof_C 	C 	0.2984	0.4896	0.6044	0.121
Mof_C 	C 	0.3566	0.4344	0.5975	-0.198
Mof_C 	C 	0.1486	0.5242	0.59281	0.435
Mof_C 	C 	0.4792	0.1006	0.71853	0.132
Mof_C 	C 	0.5324	0.135	0.7602	-0.184
Mof_C 	C 	0.5155	0.1153	0.7997	0.104
Mof_C 	C 	0.4442	0.059	0.79732	-0.189
Mof_C 	C 	0.3866	0.0282	0.7571	0.111
Mof_C 	C 	0.4046	0.048	0.7177	-0.176
Mof_C 	C 	0.4284	0.0284	0.83846	0.413
Mof_C 	C 	0.7267	0.9323	0.5743	0.107
Mof_C 	C 	0.7102	0.8608	0.5906	-0.138
Mof_C 	C 	0.7658	0.802	0.5935	0.042
Mof_C 	C 	0.8425	0.8147	0.5777	-0.103
Mof_C 	C 	0.8603	0.8879	0.5621	0.045
Mof_C 	C 	0.8021	0.9459	0.5609	-0.141
Mof_C 	C 	0.902	0.7492	0.581	0.303
Mof_C 	C 	0.5713	0.1723	0.42277	0.145
Mof_C 	C 	0.636	0.2366	0.4231	-0.192
Mof_C 	C 	0.6587	0.2487	0.3828	0.142
Mof_C 	C 	0.6176	0.1954	0.34306	-0.239
Mof_C 	C 	0.5498	0.134	0.34227	0.139
Mof_C 	C 	0.528	0.1224	0.3814	-0.205
Mof_C 	C 	0.6455	0.2047	0.3009	0.517
Mof_C 	C 	0.8988	0.116	0.71198	0.105
Mof_C 	C 	0.9352	0.0964	0.6723	-0.075
Mof_C 	C 	0.9016	0.1424	0.64363	-0.077
Mof_C 	C 	0.845	0.1928	0.66486	0.109
Mof_C 	C 	0.7957	0.2467	0.64442	-0.102
Mof_C 	C 	0.7341	0.2885	0.66229	0.118
Mof_C 	C 	0.6818	0.3414	0.6405	-0.074
Mof_C 	C 	0.6338	0.3754	0.6688	-0.064
Mof_C 	C 	0.6577	0.3437	0.7103	0.105
Mof_C 	C 	0.9596	0.9378	0.7238	-0.174
Mof_C 	C 	0.0172	0.8782	0.7234	0.106
Mof_C 	C 	0.8116	0.2604	0.5998	0.133
Mof_C 	C 	0.7679	0.2085	0.5612	-0.182
Mof_C 	C 	0.7854	0.2136	0.5203	0.091
Mof_C 	C 	0.8491	0.2753	0.5164	-0.155
Mof_C 	C 	0.8933	0.3303	0.5556	0.087
Mof_C 	C 	0.8761	0.3213	0.5973	-0.166
Mof_C 	C 	0.8678	0.2798	0.4705	0.396
Mof_C 	C 	0.4852	0.4124	0.7228	-0.192
Mof_C 	C 	0.428	0.4696	0.7222	0.122
Mof_C 	C 	0.782	0.4918	0.01125	0.113
Mof_C 	C 	0.7126	0.5254	0.0281	-0.08
Mof_C 	C 	0.6771	0.5705	0.9999	-0.076
Mof_C 	C 	0.7243	0.5659	0.9645	0.111
Mof_C 	C 	0.712	0.6116	0.9296	-0.11
Mof_C 	C 	0.7593	0.6057	0.89592	0.111
Mof_C 	C 	0.7502	0.6554	0.8614	-0.08
Mof_C 	C 	0.7987	0.6259	0.8328	-0.081
Mof_C 	C 	0.8378	0.5578	0.84852	0.109
Mof_C 	C 	0.8819	0.5027	0.82433	-0.103
Mof_C 	C 	0.9133	0.4319	0.83963	0.118
Mof_C 	C 	0.9505	0.3693	0.8149	-0.076
Mof_C 	C 	0.9831	0.3203	0.8428	-0.067
Mof_C 	C 	0.9682	0.3562	0.8866	0.102
Mof_C 	C 	0.005	0.335	0.927	-0.093
Mof_C 	C 	0.9848	0.3686	0.96862	0.104
Mof_C 	C 	0.0213	0.3497	0.0113	-0.057
Mof_C 	C 	0.975	0.3796	0.0413	-0.064
Mof_C 	C 	0.9093	0.4193	0.01701	0.116
Mof_C 	C 	0.8403	0.4487	0.03383	-0.11
Mof_C 	C 	0.6475	0.6711	0.9282	0.141
Mof_C 	C 	0.6691	0.7559	0.9488	-0.201
Mof_C 	C 	0.6155	0.8141	0.94247	0.117
Mof_C 	C 	0.5339	0.7879	0.91466	-0.217
Mof_C 	C 	0.5104	0.7016	0.8956	0.121
Mof_C 	C 	0.5656	0.6434	0.9025	-0.198
Mof_C 	C 	0.4758	0.8514	0.90719	0.435
Mof_C 	C 	0.8994	0.5208	0.78147	0.131
Mof_C 	C 	0.865	0.4676	0.7398	-0.183
Mof_C 	C 	0.8847	0.4845	0.7003	0.104
Mof_C 	C 	0.941	0.5558	0.70268	-0.188
Mof_C 	C 	0.9718	0.6134	0.7429	0.11
Mof_C 	C 	0.952	0.5954	0.7823	-0.175
Mof_C 	C 	0.9716	0.5716	0.66154	0.413
Mof_C 	C 	0.0677	0.2733	0.9257	0.107
Mof_C 	C 	0.1392	0.2898	0.9094	-0.138
Mof_C 	C 	0.198	0.2342	0.9065	0.042
Mof_C 	C 	0.1853	0.1575	0.9223	-0.103
Mof_C 	C 	0.1121	0.1397	0.9379	0.046
Mof_C 	C 	0.0541	0.1979	0.9391	-0.141
Mof_C 	C 	0.2508	0.098	0.919	0.303
Mof_C 	C 	0.8277	0.4287	0.07723	0.145
Mof_C 	C 	0.7634	0.364	0.0769	-0.192
Mof_C 	C 	0.7513	0.3413	0.1172	0.142
Mof_C 	C 	0.8046	0.3824	0.15694	-0.239
Mof_C 	C 	0.866	0.4502	0.15773	0.139
Mof_C 	C 	0.8776	0.472	0.1186	-0.205
Mof_C 	C 	0.7953	0.3545	0.1991	0.517
Mof_C 	C 	0.884	0.1012	0.78802	0.105
Mof_C 	C 	0.9036	0.0648	0.8277	-0.075
Mof_C 	C 	0.8576	0.0984	0.85637	-0.077
Mof_C 	C 	0.8072	0.155	0.83514	0.109
Mof_C 	C 	0.7533	0.2043	0.85558	-0.102
Mof_C 	C 	0.7115	0.2659	0.83771	0.118
Mof_C 	C 	0.6586	0.3182	0.8595	-0.074
Mof_C 	C 	0.6246	0.3662	0.8312	-0.064
Mof_C 	C 	0.6563	0.3423	0.7897	0.105
Mof_C 	C 	0.0622	0.0404	0.7762	-0.173
Mof_C 	C 	0.1218	0.9828	0.7766	0.105
Mof_C 	C 	0.7396	0.1884	0.9002	0.134
Mof_C 	C 	0.7915	0.2321	0.9388	-0.183
Mof_C 	C 	0.7864	0.2146	0.9797	0.093
Mof_C 	C 	0.7247	0.1509	0.9836	-0.155
Mof_C 	C 	0.6697	0.1067	0.9444	0.088
Mof_C 	C 	0.6787	0.1239	0.9027	-0.166
Mof_C 	C 	0.7202	0.1322	0.0295	0.395
Mof_C 	C 	0.5876	0.5148	0.7772	-0.192
Mof_C 	C 	0.5304	0.572	0.7778	0.122
Mof_C 	C 	0.4918	0.782	0.51125	0.113
Mof_C 	C 	0.5254	0.7126	0.5281	-0.081
Mof_C 	C 	0.5705	0.6771	0.4999	-0.075
Mof_C 	C 	0.5659	0.7243	0.4645	0.111
Mof_C 	C 	0.6116	0.712	0.4296	-0.11
Mof_C 	C 	0.6057	0.7593	0.39592	0.111
Mof_C 	C 	0.6554	0.7502	0.3614	-0.08
Mof_C 	C 	0.6259	0.7987	0.3328	-0.081
Mof_C 	C 	0.5578	0.8378	0.34852	0.109
Mof_C 	C 	0.5027	0.8819	0.32433	-0.104
Mof_C 	C 	0.4319	0.9133	0.33963	0.118
Mof_C 	C 	0.3693	0.9505	0.3149	-0.076
Mof_C 	C 	0.3203	0.9831	0.3428	-0.067
Mof_C 	C 	0.3562	0.9682	0.3866	0.101
Mof_C 	C 	0.335	0.005	0.427	-0.092
Mof_C 	C 	0.3686	0.9848	0.46862	0.103
Mof_C 	C 	0.3497	0.0213	0.5113	-0.057
Mof_C 	C 	0.3796	0.975	0.5413	-0.064
Mof_C 	C 	0.4193	0.9093	0.51701	0.117
Mof_C 	C 	0.4487	0.8403	0.53383	-0.11
Mof_C 	C 	0.6711	0.6475	0.4282	0.141
Mof_C 	C 	0.7559	0.6691	0.4488	-0.201
Mof_C 	C 	0.8141	0.6155	0.44247	0.117
Mof_C 	C 	0.7879	0.5339	0.41466	-0.217
Mof_C 	C 	0.7016	0.5104	0.3956	0.121
Mof_C 	C 	0.6434	0.5656	0.4025	-0.198
Mof_C 	C 	0.8514	0.4758	0.40719	0.435
Mof_C 	C 	0.5208	0.8994	0.28147	0.132
Mof_C 	C 	0.4676	0.865	0.2398	-0.184
Mof_C 	C 	0.4845	0.8847	0.2003	0.104
Mof_C 	C 	0.5558	0.941	0.20268	-0.189
Mof_C 	C 	0.6134	0.9718	0.2429	0.111
Mof_C 	C 	0.5954	0.952	0.2823	-0.176
Mof_C 	C 	0.5716	0.9716	0.16154	0.413
Mof_C 	C 	0.2733	0.0677	0.4257	0.107
Mof_C 	C 	0.2898	0.1392	0.4094	-0.138
Mof_C 	C 	0.2342	0.198	0.4065	0.042
Mof_C 	C 	0.1575	0.1853	0.4223	-0.103
Mof_C 	C 	0.1397	0.1121	0.4379	0.045
Mof_C 	C 	0.1979	0.0541	0.4391	-0.141
Mof_C 	C 	0.098	0.2508	0.419	0.303
Mof_C 	C 	0.4287	0.8277	0.57723	0.145
Mof_C 	C 	0.364	0.7634	0.5769	-0.192
Mof_C 	C 	0.3413	0.7513	0.6172	0.142
Mof_C 	C 	0.3824	0.8046	0.65694	-0.239
Mof_C 	C 	0.4502	0.866	0.65773	0.139
Mof_C 	C 	0.472	0.8776	0.6186	-0.205
Mof_C 	C 	0.3545	0.7953	0.6991	0.517
Mof_C 	C 	0.1012	0.884	0.28802	0.105
Mof_C 	C 	0.0648	0.9036	0.3277	-0.075
Mof_C 	C 	0.0984	0.8576	0.35637	-0.077
Mof_C 	C 	0.155	0.8072	0.33514	0.109
Mof_C 	C 	0.2043	0.7533	0.35558	-0.102
Mof_C 	C 	0.2659	0.7115	0.33771	0.118
Mof_C 	C 	0.3182	0.6586	0.3595	-0.074
Mof_C 	C 	0.3662	0.6246	0.3312	-0.064
Mof_C 	C 	0.3423	0.6563	0.2897	0.105
Mof_C 	C 	0.0404	0.0622	0.2762	-0.174
Mof_C 	C 	0.9828	0.1218	0.2766	0.106
Mof_C 	C 	0.1884	0.7396	0.4002	0.133
Mof_C 	C 	0.2321	0.7915	0.4388	-0.182
Mof_C 	C 	0.2146	0.7864	0.4797	0.091
Mof_C 	C 	0.1509	0.7247	0.4836	-0.155
Mof_C 	C 	0.1067	0.6697	0.4444	0.087
Mof_C 	C 	0.1239	0.6787	0.4027	-0.166
Mof_C 	C 	0.1322	0.7202	0.5295	0.396
Mof_C 	C 	0.5148	0.5876	0.2772	-0.192
Mof_C 	C 	0.572	0.5304	0.2778	0.122
Mof_C 	C 	0.218	0.5082	0.98875	0.113
Mof_C 	C 	0.2874	0.4746	0.9719	-0.08
Mof_C 	C 	0.3229	0.4295	0.0001	-0.076
Mof_C 	C 	0.2757	0.4341	0.0355	0.111
Mof_C 	C 	0.288	0.3884	0.0704	-0.11
Mof_C 	C 	0.2407	0.3943	0.10408	0.111
Mof_C 	C 	0.2498	0.3446	0.1386	-0.08
Mof_C 	C 	0.2013	0.3741	0.1672	-0.081
Mof_C 	C 	0.1622	0.4422	0.15148	0.109
Mof_C 	C 	0.1181	0.4973	0.17567	-0.103
Mof_C 	C 	0.0867	0.5681	0.16037	0.118
Mof_C 	C 	0.0495	0.6307	0.1851	-0.076
Mof_C 	C 	0.0169	0.6797	0.1572	-0.067
Mof_C 	C 	0.0318	0.6438	0.1134	0.102
Mof_C 	C 	0.995	0.665	0.073	-0.093
Mof_C 	C 	0.0152	0.6314	0.03138	0.104
Mof_C 	C 	0.9787	0.6503	0.9887	-0.057
Mof_C 	C 	0.025	0.6204	0.9587	-0.064
Mof_C 	C 	0.0907	0.5807	0.98299	0.116
Mof_C 	C 	0.1597	0.5513	0.96617	-0.11
Mof_C 	C 	0.3525	0.3289	0.0718	0.141
Mof_C 	C 	0.3309	0.2441	0.0512	-0.201
Mof_C 	C 	0.3845	0.1859	0.05753	0.117
Mof_C 	C 	0.4661	0.2121	0.08534	-0.217
Mof_C 	C 	0.4896	0.2984	0.1044	0.121
Mof_C 	C 	0.4344	0.3566	0.0975	-0.198
Mof_C 	C 	0.5242	0.1486	0.09281	0.435
Mof_C 	C 	0.1006	0.4792	0.21853	0.131
Mof_C 	C 	0.135	0.5324	0.2602	-0.183
Mof_C 	C 	0.1153	0.5155	0.2997	0.104
Mof_C 	C 	0.059	0.4442	0.29732	-0.188
Mof_C 	C 	0.0282	0.3866	0.2571	0.11
Mof_C 	C 	0.048	0.4046	0.2177	-0.175
Mof_C 	C 	0.0284	0.4284	0.33846	0.413
Mof_C 	C 	0.9323	0.7267	0.0743	0.107
Mof_C 	C 	0.8608	0.7102	0.0906	-0.138
Mof_C 	C 	0.802	0.7658	0.0935	0.042
Mof_C 	C 	0.8147	0.8425	0.0777	-0.103
Mof_C 	C 	0.8879	0.8603	0.0621	0.046
Mof_C 	C 	0.9459	0.8021	0.0609	-0.141
Mof_C 	C 	0.7492	0.902	0.081	0.303
Mof_C 	C 	0.1723	0.5713	0.92277	0.145
Mof_C 	C 	0.2366	0.636	0.9231	-0.192
Mof_C 	C 	0.2487	0.6587	0.8828	0.142
Mof_C 	C 	0.1954	0.6176	0.84306	-0.239
Mof_C 	C 	0.134	0.5498	0.84227	0.139
Mof_C 	C 	0.1224	0.528	0.8814	-0.205
Mof_C 	C 	0.2047	0.6455	0.8009	0.517
Mof_C 	C 	0.116	0.8988	0.21198	0.105
Mof_C 	C 	0.0964	0.9352	0.1723	-0.075
Mof_C 	C 	0.1424	0.9016	0.14363	-0.077
Mof_C 	C 	0.1928	0.845	0.16486	0.109
Mof_C 	C 	0.2467	0.7957	0.14442	-0.102
Mof_C 	C 	0.2885	0.7341	0.16229	0.118
Mof_C 	C 	0.3414	0.6818	0.1405	-0.074
Mof_C 	C 	0.3754	0.6338	0.1688	-0.064
Mof_C 	C 	0.3437	0.6577	0.2103	0.105
Mof_C 	C 	0.9378	0.9596	0.2238	-0.173
Mof_C 	C 	0.8782	0.0172	0.2234	0.105
Mof_C 	C 	0.2604	0.8116	0.0998	0.134
Mof_C 	C 	0.2085	0.7679	0.0612	-0.183
Mof_C 	C 	0.2136	0.7854	0.0203	0.093
Mof_C 	C 	0.2753	0.8491	0.0164	-0.155
Mof_C 	C 	0.3303	0.8933	0.0556	0.088
Mof_C 	C 	0.3213	0.8761	0.0973	-0.166
Mof_C 	C 	0.2798	0.8678	0.9705	0.395
Mof_C 	C 	0.4124	0.4852	0.2228	-0.192
Mof_C 	C 	0.4696	0.428	0.2222	0.122
Mof_C 	C 	0.9186	0.0814	0.75	-0.103
Mof_C 	C 	0.6288	0.3712	0.75	-0.105
Mof_C 	C 	0.9815	0.0185	0.75	0.124
Mof_C 	C 	0.0998	0.9002	0.75	-0.225
Mof_C 	C 	0.1607	0.8393	0.75	0.524
Mof_C 	C 	0.5674	0.4326	0.75	0.137
Mof_C 	C 	0.4491	0.5509	0.75	-0.215
Mof_C 	C 	0.3859	0.6141	0.75	0.508
Mof_C 	C 	0.0814	0.9186	0.25	-0.103
Mof_C 	C 	0.3712	0.6288	0.25	-0.105
Mof_C 	C 	0.0185	0.9815	0.25	0.124
Mof_C 	C 	0.9002	0.0998	0.25	-0.225
Mof_C 	C 	0.8393	0.1607	0.25	0.524
Mof_C 	C 	0.4326	0.5674	0.25	0.137
Mof_C 	C 	0.5509	0.4491	0.25	-0.215
Mof_C 	C 	0.6141	0.3859	0.25	0.508
Mof_N 	N 	0.48456	0.21404	0.52885	-0.087
Mof_N 	N 	0.4519	0.1867	0.61208	-0.085
Mof_N 	N 	0.5794	0.08	0.61717	-0.086
Mof_N 	N 	0.58377	0.08083	0.52658	-0.083
Mof_N 	N 	0.84388	0.17492	0.70667	-0.085
Mof_N 	N 	0.71791	0.28949	0.70455	-0.088
Mof_N 	N 	0.78596	0.51544	0.97115	-0.086
Mof_N 	N 	0.8133	0.5481	0.88792	-0.085
Mof_N 	N 	0.92	0.4206	0.88283	-0.086
Mof_N 	N 	0.91917	0.41623	0.97342	-0.083
Mof_N 	N 	0.82508	0.15612	0.79333	-0.085
Mof_N 	N 	0.71051	0.28209	0.79545	-0.088
Mof_N 	N 	0.51544	0.78596	0.47115	-0.087
Mof_N 	N 	0.5481	0.8133	0.38792	-0.085
Mof_N 	N 	0.4206	0.92	0.38283	-0.086
Mof_N 	N 	0.41623	0.91917	0.47342	-0.083
Mof_N 	N 	0.15612	0.82508	0.29333	-0.085
Mof_N 	N 	0.28209	0.71051	0.29545	-0.088
Mof_N 	N 	0.21404	0.48456	0.02885	-0.086
Mof_N 	N 	0.1867	0.4519	0.11208	-0.085
Mof_N 	N 	0.08	0.5794	0.11717	-0.086
Mof_N 	N 	0.08083	0.58377	0.02658	-0.083
Mof_N 	N 	0.17492	0.84388	0.20667	-0.085
Mof_N 	N 	0.28949	0.71791	0.20455	-0.088
Mof_Cl	Cl	0.52538	0.1409	0.57151	-0.252
Mof_Cl	Cl	0.8591	0.47462	0.92849	-0.252
Mof_Cl	Cl	0.47462	0.8591	0.42849	-0.252
Mof_Cl	Cl	0.1409	0.52538	0.07151	-0.252
Mof_Cl	Cl	0.77507	0.22493	0.75	-0.258
Mof_Cl	Cl	0.22493	0.77507	0.25	-0.258
Mof_O 	O 	0.07461	0.50419	0.57233	-0.496
Mof_O 	O 	0.17418	0.59636	0.62117	-0.604
Mof_O 	O 	0.46542	0.06966	0.87711	-0.428
Mof_O 	O 	0.37635	0.96093	0.83376	-0.65
Mof_O 	O 	0.90298	0.70522	0.6099	-0.43
Mof_O 	O 	0.9518	0.7422	0.5533	-0.41
Mof_O 	O 	0.70932	0.25968	0.30291	-0.61
Mof_O 	O 	0.60499	0.15861	0.26379	-0.551
Mof_O 	O 	0.13704	0.76528	0.72612	-0.55
Mof_O 	O 	0.8397	0.2165	0.4395	-0.312
Mof_O 	O 	0.91123	0.34677	0.46722	-0.485
Mof_O 	O 	0.31204	0.58962	0.72546	-0.549
Mof_O 	O 	0.49581	0.92539	0.92767	-0.496
Mof_O 	O 	0.40364	0.82582	0.87883	-0.604
Mof_O 	O 	0.93034	0.53458	0.62289	-0.428
Mof_O 	O 	0.03907	0.62365	0.66624	-0.65
Mof_O 	O 	0.29478	0.09702	0.8901	-0.43
Mof_O 	O 	0.2578	0.0482	0.9467	-0.409
Mof_O 	O 	0.74032	0.29068	0.19709	-0.61
Mof_O 	O 	0.84139	0.39501	0.23621	-0.551
Mof_O 	O 	0.23472	0.86296	0.77388	-0.55
Mof_O 	O 	0.7835	0.1603	0.0605	-0.312
Mof_O 	O 	0.65323	0.08877	0.03278	-0.485
Mof_O 	O 	0.41038	0.68796	0.77454	-0.549
Mof_O 	O 	0.92539	0.49581	0.42767	-0.496
Mof_O 	O 	0.82582	0.40364	0.37883	-0.604
Mof_O 	O 	0.53458	0.93034	0.12289	-0.428
Mof_O 	O 	0.62365	0.03907	0.16624	-0.65
Mof_O 	O 	0.09702	0.29478	0.3901	-0.43
Mof_O 	O 	0.0482	0.2578	0.4467	-0.41
Mof_O 	O 	0.29068	0.74032	0.69709	-0.61
Mof_O 	O 	0.39501	0.84139	0.73621	-0.551
Mof_O 	O 	0.86296	0.23472	0.27388	-0.55
Mof_O 	O 	0.1603	0.7835	0.5605	-0.312
Mof_O 	O 	0.08877	0.65323	0.53278	-0.485
Mof_O 	O 	0.68796	0.41038	0.27454	-0.549
Mof_O 	O 	0.50419	0.07461	0.07233	-0.496
Mof_O 	O 	0.59636	0.17418	0.12117	-0.604
Mof_O 	O 	0.06966	0.46542	0.37711	-0.428
Mof_O 	O 	0.96093	0.37635	0.33376	-0.649
Mof_O 	O 	0.70522	0.90298	0.1099	-0.43
Mof_O 	O 	0.7422	0.9518	0.0533	-0.409
Mof_O 	O 	0.25968	0.70932	0.80291	-0.61
Mof_O 	O 	0.15861	0.60499	0.76379	-0.551
Mof_O 	O 	0.76528	0.13704	0.22612	-0.55
Mof_O 	O 	0.2165	0.8397	0.9395	-0.312
Mof_O 	O 	0.34677	0.91123	0.96722	-0.485
Mof_O 	O 	0.58962	0.31204	0.22546	-0.549
_end
