data_functionalizedCrystal
_audit_creation_method	'EQeq! by Chris Wilmer'
_symmetry_space_group_name_H-M	'P1'
_symmetry_Int_Tables_number	1
_symmetry_cell_setting	triclinic
loop_
_symmetry_equiv_pos_as_xyz
  x,y,z
_cell_length_a	17.2999
_cell_length_b	18.0396
_cell_length_c	24.677
_cell_angle_alpha	90
_cell_angle_beta	90
_cell_angle_gamma	90
loop_
_atom_site_label
_atom_site_type_symbol
_atom_site_fract_x
_atom_site_fract_y
_atom_site_fract_z
_atom_site_charge
Mof_V 	V 	0.83683	0.30552	0.90768	1.701
Mof_V 	V 	0.9042	0.30175	0.02313	1.661
Mof_V 	V 	0.68179	0.38637	0.88494	1.723
Mof_V 	V 	0.68206	0.2167	0.88556	1.722
Mof_V 	V 	0.33683	0.19448	0.59232	1.698
Mof_V 	V 	0.4042	0.19825	0.47687	1.702
Mof_V 	V 	0.18179	0.11363	0.61506	1.721
Mof_V 	V 	0.18206	0.2833	0.61444	1.72
Mof_V 	V 	0.66317	0.30552	0.09232	1.696
Mof_V 	V 	0.5958	0.30175	0.97687	1.746
Mof_V 	V 	0.81821	0.38637	0.11506	1.721
Mof_V 	V 	0.81794	0.2167	0.11444	1.719
Mof_V 	V 	0.16317	0.19448	0.40768	1.698
Mof_V 	V 	0.0958	0.19825	0.52313	1.702
Mof_V 	V 	0.31821	0.11363	0.38494	1.721
Mof_V 	V 	0.31794	0.2833	0.38556	1.72
Mof_V 	V 	0.16317	0.69448	0.09232	1.696
Mof_V 	V 	0.0958	0.69825	0.97687	1.745
Mof_V 	V 	0.31821	0.61363	0.11506	1.72
Mof_V 	V 	0.31794	0.7833	0.11444	1.719
Mof_V 	V 	0.66317	0.80552	0.40768	1.698
Mof_V 	V 	0.5958	0.80175	0.52313	1.702
Mof_V 	V 	0.81821	0.88637	0.38494	1.721
Mof_V 	V 	0.81794	0.7167	0.38556	1.72
Mof_V 	V 	0.33683	0.69448	0.90768	1.7
Mof_V 	V 	0.4042	0.69825	0.02313	1.66
Mof_V 	V 	0.18179	0.61363	0.88494	1.722
Mof_V 	V 	0.18206	0.7833	0.88556	1.721
Mof_V 	V 	0.83683	0.80552	0.59232	1.698
Mof_V 	V 	0.9042	0.80175	0.47687	1.702
Mof_V 	V 	0.68179	0.88637	0.61506	1.721
Mof_V 	V 	0.68206	0.7167	0.61444	1.72
Mof_V 	V 	0.75	0.39299	-0	1.756
Mof_V 	V 	0.75	0.21193	-0	1.76
Mof_V 	V 	0.25	0.10701	0.5	1.81
Mof_V 	V 	0.25	0.28807	0.5	1.813
Mof_V 	V 	0.25	0.60701	-0	1.756
Mof_V 	V 	0.25	0.78807	-0	1.76
Mof_V 	V 	0.75	0.89299	0.5	1.81
Mof_V 	V 	0.75	0.71193	0.5	1.813
Mof_Zn	Zn	0.69861	0.34922	0.66729	1.116
Mof_Zn	Zn	0.85081	0.15052	0.83225	1.14
Mof_Zn	Zn	0.90436	0.07078	0.70371	1.081
Mof_Zn	Zn	0.19861	0.15078	0.83271	1.123
Mof_Zn	Zn	0.35081	0.34948	0.66775	1.137
Mof_Zn	Zn	0.40436	0.42922	0.79629	1.084
Mof_Zn	Zn	0.80139	0.34922	0.33271	1.116
Mof_Zn	Zn	0.64919	0.15052	0.16775	1.134
Mof_Zn	Zn	0.59564	0.07078	0.29629	1.08
Mof_Zn	Zn	0.30139	0.15078	0.16729	1.11
Mof_Zn	Zn	0.14919	0.34948	0.33225	1.136
Mof_Zn	Zn	0.09564	0.42922	0.20371	1.076
Mof_Zn	Zn	0.30139	0.65078	0.33271	1.116
Mof_Zn	Zn	0.14919	0.84948	0.16775	1.134
Mof_Zn	Zn	0.09564	0.92922	0.29629	1.08
Mof_Zn	Zn	0.80139	0.84922	0.16729	1.11
Mof_Zn	Zn	0.64919	0.65052	0.33225	1.136
Mof_Zn	Zn	0.59564	0.57078	0.20371	1.076
Mof_Zn	Zn	0.19861	0.65078	0.66729	1.116
Mof_Zn	Zn	0.35081	0.84948	0.83225	1.14
Mof_Zn	Zn	0.40436	0.92922	0.70371	1.081
Mof_Zn	Zn	0.69861	0.84922	0.83271	1.123
Mof_Zn	Zn	0.85081	0.65052	0.66775	1.137
Mof_Zn	Zn	0.90436	0.57078	0.79629	1.084
Mof_H 	H 	0.7475	0.0089	0.8718	-0.096
Mof_H 	H 	0.7475	0.2825	0.776	-0.068
Mof_H 	H 	0.7999	0.918	0.7329	-0.086
Mof_H 	H 	0.0905	0.0954	0.7327	-0.123
Mof_H 	H 	0.8002	0.2003	0.6339	-0.119
Mof_H 	H 	0.0284	0.1898	0.8688	-0.131
Mof_H 	H 	0.2475	0.4911	0.6282	-0.11
Mof_H 	H 	0.2475	0.2175	0.724	-0.068
Mof_H 	H 	0.2999	0.582	0.7671	-0.084
Mof_H 	H 	0.5905	0.4046	0.7673	-0.121
Mof_H 	H 	0.3002	0.2997	0.8661	-0.102
Mof_H 	H 	0.5284	0.3102	0.6312	-0.146
Mof_H 	H 	0.7525	0.0089	0.1282	-0.124
Mof_H 	H 	0.7525	0.2825	0.224	-0.069
Mof_H 	H 	0.7001	0.918	0.2671	-0.087
Mof_H 	H 	0.4095	0.0954	0.2673	-0.124
Mof_H 	H 	0.6998	0.2003	0.3661	-0.119
Mof_H 	H 	0.4716	0.1898	0.1312	-0.161
Mof_H 	H 	0.2525	0.4911	0.3718	-0.11
Mof_H 	H 	0.2525	0.2175	0.276	-0.069
Mof_H 	H 	0.2001	0.582	0.2329	-0.088
Mof_H 	H 	0.9095	0.4046	0.2327	-0.126
Mof_H 	H 	0.1998	0.2997	0.1339	-0.136
Mof_H 	H 	0.9716	0.3102	0.3688	-0.146
Mof_H 	H 	0.2525	0.9911	0.1282	-0.124
Mof_H 	H 	0.2525	0.7175	0.224	-0.069
Mof_H 	H 	0.2001	0.082	0.2671	-0.087
Mof_H 	H 	0.9095	0.9046	0.2673	-0.124
Mof_H 	H 	0.1998	0.7997	0.3661	-0.12
Mof_H 	H 	0.9716	0.8102	0.1312	-0.161
Mof_H 	H 	0.7525	0.5089	0.3718	-0.11
Mof_H 	H 	0.7525	0.7825	0.276	-0.069
Mof_H 	H 	0.7001	0.418	0.2329	-0.088
Mof_H 	H 	0.4095	0.5954	0.2327	-0.126
Mof_H 	H 	0.6998	0.7003	0.1339	-0.136
Mof_H 	H 	0.4716	0.6898	0.3688	-0.146
Mof_H 	H 	0.2475	0.9911	0.8718	-0.096
Mof_H 	H 	0.2475	0.7175	0.776	-0.069
Mof_H 	H 	0.2999	0.082	0.7329	-0.086
Mof_H 	H 	0.5905	0.9046	0.7327	-0.123
Mof_H 	H 	0.3002	0.7997	0.6339	-0.12
Mof_H 	H 	0.5284	0.8102	0.8688	-0.131
Mof_H 	H 	0.7475	0.5089	0.6282	-0.11
Mof_H 	H 	0.7475	0.7825	0.724	-0.068
Mof_H 	H 	0.7999	0.418	0.7671	-0.084
Mof_H 	H 	0.0905	0.5954	0.7673	-0.121
Mof_H 	H 	0.8002	0.7003	0.8661	-0.102
Mof_H 	H 	0.0284	0.6898	0.6312	-0.146
Mof_C 	C 	0.7689	0.0005	0.83686	0.052
Mof_C 	C 	0.7687	0.2519	0.74834	0.046
Mof_C 	C 	0.7973	0.9517	0.76239	0.055
Mof_C 	C 	0.0601	0.1153	0.76129	0.07
Mof_C 	C 	0.7971	0.2077	0.672	0.055
Mof_C 	C 	0.0269	0.1661	0.83445	0.055
Mof_C 	C 	0.2689	0.4995	0.66314	0.049
Mof_C 	C 	0.2687	0.2481	0.75166	0.047
Mof_C 	C 	0.2973	0.5483	0.73761	0.054
Mof_C 	C 	0.5601	0.3847	0.73871	0.071
Mof_C 	C 	0.2971	0.2923	0.828	0.058
Mof_C 	C 	0.5269	0.3339	0.66555	0.054
Mof_C 	C 	0.7311	0.0005	0.16314	0.045
Mof_C 	C 	0.7313	0.2519	0.25166	0.045
Mof_C 	C 	0.7027	0.9517	0.23761	0.051
Mof_C 	C 	0.4399	0.1153	0.23871	0.067
Mof_C 	C 	0.7029	0.2077	0.328	0.055
Mof_C 	C 	0.4731	0.1661	0.16555	0.05
Mof_C 	C 	0.2311	0.4995	0.33686	0.048
Mof_C 	C 	0.2313	0.2481	0.24834	0.044
Mof_C 	C 	0.2027	0.5483	0.26239	0.051
Mof_C 	C 	0.9399	0.3847	0.26129	0.07
Mof_C 	C 	0.2029	0.2923	0.172	0.052
Mof_C 	C 	0.9731	0.3339	0.33445	0.054
Mof_C 	C 	0.2311	0.9995	0.16314	0.045
Mof_C 	C 	0.2313	0.7481	0.25166	0.045
Mof_C 	C 	0.2027	0.0483	0.23761	0.051
Mof_C 	C 	0.9399	0.8847	0.23871	0.069
Mof_C 	C 	0.2029	0.7923	0.328	0.055
Mof_C 	C 	0.9731	0.8339	0.16555	0.051
Mof_C 	C 	0.7311	0.5005	0.33686	0.048
Mof_C 	C 	0.7313	0.7519	0.24834	0.044
Mof_C 	C 	0.7027	0.4517	0.26239	0.051
Mof_C 	C 	0.4399	0.6153	0.26129	0.069
Mof_C 	C 	0.7029	0.7077	0.172	0.052
Mof_C 	C 	0.4731	0.6661	0.33445	0.053
Mof_C 	C 	0.2689	0.9995	0.83686	0.051
Mof_C 	C 	0.2687	0.7481	0.74834	0.046
Mof_C 	C 	0.2973	0.0483	0.76239	0.055
Mof_C 	C 	0.5601	0.8847	0.76129	0.072
Mof_C 	C 	0.2971	0.7923	0.672	0.055
Mof_C 	C 	0.5269	0.8339	0.83445	0.057
Mof_C 	C 	0.7689	0.5005	0.66314	0.05
Mof_C 	C 	0.7687	0.7519	0.75166	0.047
Mof_C 	C 	0.7973	0.4517	0.73761	0.054
Mof_C 	C 	0.0601	0.6153	0.73871	0.068
Mof_C 	C 	0.7971	0.7077	0.828	0.058
Mof_C 	C 	0.0269	0.6661	0.66555	0.051
Mof_N 	N 	0.7562	0.26265	0.69551	-0.337
Mof_N 	N 	0.7557	0.939	0.80772	-0.329
Mof_N 	N 	0.814	0.04732	0.81238	-0.293
Mof_N 	N 	0.96291	0.149	0.80904	-0.298
Mof_N 	N 	0.8335	0.0152	0.76336	-0.285
Mof_N 	N 	0.83225	0.16556	0.70797	-0.288
Mof_N 	N 	0.8131	0.1948	0.75791	-0.271
Mof_N 	N 	0.98415	0.11584	0.76137	-0.29
Mof_N 	N 	0.0901	0.1465	0.80653	-0.337
Mof_N 	N 	0.2562	0.23735	0.80449	-0.332
Mof_N 	N 	0.2557	0.561	0.69228	-0.334
Mof_N 	N 	0.314	0.45268	0.68762	-0.297
Mof_N 	N 	0.46291	0.351	0.69096	-0.302
Mof_N 	N 	0.3335	0.4848	0.73664	-0.284
Mof_N 	N 	0.33225	0.33444	0.79203	-0.284
Mof_N 	N 	0.3131	0.3052	0.74209	-0.271
Mof_N 	N 	0.48415	0.38416	0.73863	-0.29
Mof_N 	N 	0.5901	0.3535	0.69347	-0.341
Mof_N 	N 	0.7438	0.26265	0.30449	-0.337
Mof_N 	N 	0.7443	0.939	0.19228	-0.338
Mof_N 	N 	0.686	0.04732	0.18762	-0.301
Mof_N 	N 	0.53709	0.149	0.19096	-0.306
Mof_N 	N 	0.6665	0.0152	0.23664	-0.287
Mof_N 	N 	0.66775	0.16556	0.29203	-0.288
Mof_N 	N 	0.6869	0.1948	0.24209	-0.272
Mof_N 	N 	0.51585	0.11584	0.23863	-0.293
Mof_N 	N 	0.4099	0.1465	0.19347	-0.346
Mof_N 	N 	0.2438	0.23735	0.19551	-0.342
Mof_N 	N 	0.2443	0.561	0.30772	-0.334
Mof_N 	N 	0.186	0.45268	0.31238	-0.297
Mof_N 	N 	0.03709	0.351	0.30904	-0.303
Mof_N 	N 	0.1665	0.4848	0.26336	-0.288
Mof_N 	N 	0.16775	0.33444	0.20797	-0.292
Mof_N 	N 	0.1869	0.3052	0.25791	-0.272
Mof_N 	N 	0.01585	0.38416	0.26137	-0.294
Mof_N 	N 	0.9099	0.3535	0.30653	-0.342
Mof_N 	N 	0.2438	0.73735	0.30449	-0.338
Mof_N 	N 	0.2443	0.061	0.19228	-0.338
Mof_N 	N 	0.186	0.95268	0.18762	-0.301
Mof_N 	N 	0.03709	0.851	0.19096	-0.307
Mof_N 	N 	0.1665	0.9848	0.23664	-0.288
Mof_N 	N 	0.16775	0.83444	0.29203	-0.288
Mof_N 	N 	0.1869	0.8052	0.24209	-0.272
Mof_N 	N 	0.01585	0.88416	0.23863	-0.293
Mof_N 	N 	0.9099	0.8535	0.19347	-0.346
Mof_N 	N 	0.7438	0.76265	0.19551	-0.342
Mof_N 	N 	0.7443	0.439	0.30772	-0.334
Mof_N 	N 	0.686	0.54732	0.31238	-0.297
Mof_N 	N 	0.53709	0.649	0.30904	-0.303
Mof_N 	N 	0.6665	0.5152	0.26336	-0.288
Mof_N 	N 	0.66775	0.66556	0.20797	-0.292
Mof_N 	N 	0.6869	0.6948	0.25791	-0.272
Mof_N 	N 	0.51585	0.61584	0.26137	-0.293
Mof_N 	N 	0.4099	0.6465	0.30653	-0.342
Mof_N 	N 	0.2562	0.73735	0.69551	-0.337
Mof_N 	N 	0.2557	0.061	0.80772	-0.329
Mof_N 	N 	0.314	0.95268	0.81238	-0.293
Mof_N 	N 	0.46291	0.851	0.80904	-0.299
Mof_N 	N 	0.3335	0.9848	0.76336	-0.285
Mof_N 	N 	0.33225	0.83444	0.70797	-0.288
Mof_N 	N 	0.3131	0.8052	0.75791	-0.271
Mof_N 	N 	0.48415	0.88416	0.76137	-0.29
Mof_N 	N 	0.5901	0.8535	0.80653	-0.337
Mof_N 	N 	0.7562	0.76265	0.80449	-0.332
Mof_N 	N 	0.7557	0.439	0.69228	-0.334
Mof_N 	N 	0.814	0.54732	0.68762	-0.297
Mof_N 	N 	0.96291	0.649	0.69096	-0.301
Mof_N 	N 	0.8335	0.5152	0.73664	-0.284
Mof_N 	N 	0.83225	0.66556	0.79203	-0.284
Mof_N 	N 	0.8131	0.6948	0.74209	-0.271
Mof_N 	N 	0.98415	0.61584	0.73863	-0.289
Mof_N 	N 	0.0901	0.6465	0.69347	-0.341
Mof_O 	O 	0.72052	0.15513	0.94961	-0.732
Mof_O 	O 	0.85117	0.2342	0.9712	-0.858
Mof_O 	O 	0.72034	0.44884	0.94913	-0.732
Mof_O 	O 	0.66126	0.30154	0.8476	-0.841
Mof_O 	O 	0.85165	0.37103	0.97124	-0.866
Mof_O 	O 	0.90779	0.37597	0.07348	-0.892
Mof_O 	O 	0.72131	0.30227	0.94957	-1.005
Mof_O 	O 	0.90751	0.22719	0.0732	-0.877
Mof_O 	O 	0.78983	0.37736	0.86994	-0.842
Mof_O 	O 	0.79061	0.22664	0.8714	-0.978
Mof_O 	O 	0.22052	0.34487	0.55039	-0.794
Mof_O 	O 	0.35117	0.2658	0.5288	-0.937
Mof_O 	O 	0.22034	0.05116	0.55087	-0.796
Mof_O 	O 	0.16126	0.19846	0.6524	-0.841
Mof_O 	O 	0.35165	0.12897	0.52876	-0.945
Mof_O 	O 	0.40779	0.12403	0.42652	-0.863
Mof_O 	O 	0.22131	0.19773	0.55043	-1.057
Mof_O 	O 	0.40751	0.27281	0.4268	-0.848
Mof_O 	O 	0.28983	0.12264	0.63006	-0.847
Mof_O 	O 	0.29061	0.27336	0.6286	-0.981
Mof_O 	O 	0.77948	0.15513	0.05039	-0.834
Mof_O 	O 	0.64883	0.2342	0.0288	-0.998
Mof_O 	O 	0.77966	0.44884	0.05087	-0.836
Mof_O 	O 	0.83874	0.30154	0.1524	-0.843
Mof_O 	O 	0.64835	0.37103	0.02876	-1.007
Mof_O 	O 	0.59221	0.37597	0.92652	-0.831
Mof_O 	O 	0.77869	0.30227	0.05043	-1.084
Mof_O 	O 	0.59249	0.22719	0.9268	-0.816
Mof_O 	O 	0.71017	0.37736	0.13006	-0.851
Mof_O 	O 	0.70939	0.22664	0.1286	-0.984
Mof_O 	O 	0.27948	0.34487	0.44961	-0.795
Mof_O 	O 	0.14883	0.2658	0.4712	-0.937
Mof_O 	O 	0.27966	0.05116	0.44913	-0.796
Mof_O 	O 	0.33874	0.19846	0.3476	-0.842
Mof_O 	O 	0.14835	0.12897	0.47124	-0.945
Mof_O 	O 	0.09221	0.12403	0.57348	-0.863
Mof_O 	O 	0.27869	0.19773	0.44957	-1.057
Mof_O 	O 	0.09249	0.27281	0.5732	-0.847
Mof_O 	O 	0.21017	0.12264	0.36994	-0.848
Mof_O 	O 	0.20939	0.27336	0.3714	-0.981
Mof_O 	O 	0.27948	0.84487	0.05039	-0.833
Mof_O 	O 	0.14883	0.7658	0.0288	-0.997
Mof_O 	O 	0.27966	0.55116	0.05087	-0.836
Mof_O 	O 	0.33874	0.69846	0.1524	-0.843
Mof_O 	O 	0.14835	0.62897	0.02876	-1.006
Mof_O 	O 	0.09221	0.62403	0.92652	-0.832
Mof_O 	O 	0.27869	0.69773	0.05043	-1.084
Mof_O 	O 	0.09249	0.77281	0.9268	-0.817
Mof_O 	O 	0.21017	0.62264	0.13006	-0.851
Mof_O 	O 	0.20939	0.77336	0.1286	-0.984
Mof_O 	O 	0.77948	0.65513	0.44961	-0.794
Mof_O 	O 	0.64883	0.7342	0.4712	-0.937
Mof_O 	O 	0.77966	0.94884	0.44913	-0.796
Mof_O 	O 	0.83874	0.80154	0.3476	-0.842
Mof_O 	O 	0.64835	0.87103	0.47124	-0.945
Mof_O 	O 	0.59221	0.87597	0.57348	-0.863
Mof_O 	O 	0.77869	0.80227	0.44957	-1.057
Mof_O 	O 	0.59249	0.72719	0.5732	-0.847
Mof_O 	O 	0.71017	0.87736	0.36994	-0.848
Mof_O 	O 	0.70939	0.72664	0.3714	-0.981
Mof_O 	O 	0.22052	0.84487	0.94961	-0.733
Mof_O 	O 	0.35117	0.7658	0.9712	-0.858
Mof_O 	O 	0.22034	0.55116	0.94913	-0.733
Mof_O 	O 	0.16126	0.69846	0.8476	-0.841
Mof_O 	O 	0.35165	0.62897	0.97124	-0.866
Mof_O 	O 	0.40779	0.62403	0.07348	-0.893
Mof_O 	O 	0.22131	0.69773	0.94957	-1.006
Mof_O 	O 	0.40751	0.77281	0.0732	-0.878
Mof_O 	O 	0.28983	0.62264	0.86994	-0.842
Mof_O 	O 	0.29061	0.77336	0.8714	-0.978
Mof_O 	O 	0.72052	0.65513	0.55039	-0.794
Mof_O 	O 	0.85117	0.7342	0.5288	-0.937
Mof_O 	O 	0.72034	0.94884	0.55087	-0.796
Mof_O 	O 	0.66126	0.80154	0.6524	-0.841
Mof_O 	O 	0.85165	0.87103	0.52876	-0.945
Mof_O 	O 	0.90779	0.87597	0.42652	-0.862
Mof_O 	O 	0.72131	0.80227	0.55043	-1.057
Mof_O 	O 	0.90751	0.72719	0.4268	-0.847
Mof_O 	O 	0.78983	0.87736	0.63006	-0.847
Mof_O 	O 	0.79061	0.72664	0.6286	-0.981
_end
