# CIF file generated by openbabel 3.1.0, see https://openbabel.org
data_I
_chemical_name_common 'image0'
_cell_length_a 9.5286
_cell_length_b 10.1451
_cell_length_c 12.5796
_cell_angle_alpha 86.429
_cell_angle_beta 69.606
_cell_angle_gamma 62.338
_space_group_name_H-M_alt 'P 1'
_space_group_name_Hall 'P 1'
loop_
    _symmetry_equiv_pos_as_xyz
    x,y,z
loop_
    _atom_site_label
    _atom_site_type_symbol
    _atom_site_fract_x
    _atom_site_fract_y
    _atom_site_fract_z
    _atom_site_occupancy
    Ga1      Ga       0.86659    0.91790    0.16374    1.000
    Ga2      Ga       0.89701    0.85395    0.66321    1.000
    Mn1      Mn       0.74674    0.76426    0.43414    1.000
    P1       P        0.99558    0.84261    0.88724    1.000
    P2       P        0.88839    0.96537    0.41554    1.000
    P3       P        0.48560    0.01369    0.31756    1.000
    O1       O        0.88360    0.92250    0.00700    1.000
    O2       O        0.12500    0.89720    0.82610    1.000
    O3       O        0.88160    0.85580    0.82240    1.000
    O4       O        0.11140    0.66930    0.88890    1.000
    O5       O        0.04450    0.98470    0.35930    1.000
    O6       O        0.90610    0.85150    0.50240    1.000
    O7       O        0.84360    0.90470    0.32950    1.000
    O8       O        0.73490    0.12230    0.47580    1.000
    O9       O        0.62360    0.01360    0.20800    1.000
    O10      O        0.34410    0.02020    0.27970    1.000
    O11      O        0.42340    0.15040    0.39940    1.000
    O12      O        0.54570    0.86860    0.37310    1.000
    O13      O        0.85280    0.67330    0.67530    1.000
    O14      O        0.14010    0.68490    0.61160    1.000
    O15      O        0.11680    0.78630    0.12620    1.000
    O16      O        0.87350    0.71440    0.16320    1.000
    O17      O        0.28980    0.43820    0.55760    1.000
    O18      O        0.99380    0.42440    0.62850    1.000
    O19      O        0.06230    0.47170    0.11020    1.000
    O20      O        0.31020    0.54640    0.09950    1.000
    C1       C        0.02140    0.60450    0.13020    1.000
    C2       C        0.16390    0.64640    0.11590    1.000
    C3       C        0.98550    0.54900    0.63650    1.000
    C4       C        0.15370    0.55640    0.59690    1.000
    H1       H        0.63940    0.11880    0.51730    1.000
    H2       H        0.08470    0.60260    0.88910    1.000
    Ga3      Ga       0.13341    0.08210    0.83626    1.000
    Ga4      Ga       0.10299    0.14605    0.33679    1.000
    Mn2      Mn       0.25326    0.23574    0.56586    1.000
    P4       P        0.00442    0.15739    0.11276    1.000
    P5       P        0.11161    0.03463    0.58446    1.000
    P6       P        0.51440    0.98631    0.68244    1.000
    O21      O        0.11640    0.07750    0.99300    1.000
    O22      O        0.87500    0.10280    0.17390    1.000
    O23      O        0.11840    0.14420    0.17760    1.000
    O24      O        0.88860    0.33070    0.11110    1.000
    O25      O        0.95550    0.01530    0.64070    1.000
    O26      O        0.09390    0.14850    0.49760    1.000
    O27      O        0.15640    0.09530    0.67050    1.000
    O28      O        0.26510    0.87770    0.52420    1.000
    O29      O        0.37640    0.98640    0.79200    1.000
    O30      O        0.65590    0.97980    0.72030    1.000
    O31      O        0.57660    0.84960    0.60060    1.000
    O32      O        0.45430    0.13140    0.62690    1.000
    O33      O        0.14720    0.32670    0.32470    1.000
    O34      O        0.85990    0.31510    0.38840    1.000
    O35      O        0.88320    0.21370    0.87380    1.000
    O36      O        0.12650    0.28560    0.83680    1.000
    O37      O        0.71020    0.56180    0.44240    1.000
    O38      O        0.00620    0.57560    0.37150    1.000
    O39      O        0.93770    0.52830    0.88980    1.000
    O40      O        0.68980    0.45360    0.90050    1.000
    C5       C        0.97860    0.39550    0.86980    1.000
    C6       C        0.83610    0.35360    0.88410    1.000
    C7       C        0.01450    0.45100    0.36350    1.000
    C8       C        0.84630    0.44360    0.40310    1.000
    H3       H        0.36060    0.88120    0.48270    1.000
    H4       H        0.91530    0.39740    0.11090    1.000
