# CIF file generated by openbabel 3.1.0, see https://openbabel.org
data_I
_chemical_name_common 'image0'
_cell_length_a 18.99
_cell_length_b 18.99
_cell_length_c 19.973
_cell_angle_alpha 90
_cell_angle_beta 90
_cell_angle_gamma 90
_space_group_name_H-M_alt 'P 1'
_space_group_name_Hall 'P 1'
loop_
    _symmetry_equiv_pos_as_xyz
    x,y,z
loop_
    _atom_site_label
    _atom_site_type_symbol
    _atom_site_fract_x
    _atom_site_fract_y
    _atom_site_fract_z
    _atom_site_occupancy
    N1       N        0.36270    0.95820    0.44047    1.000
    N2       N        0.42540    0.99260    0.42942    1.000
    C1       C        0.41740    0.02570    0.37190    1.000
    H1       H        0.45210    0.05490    0.35180    1.000
    C2       C        0.35020    0.01210    0.34440    1.000
    C3       C        0.31780    0.96940    0.38970    1.000
    H2       H        0.27150    0.95090    0.38610    1.000
    C4       C        0.32340    0.03720    0.27950    1.000
    C5       C        0.27170    0.00110    0.24570    1.000
    H3       H        0.25410    0.95830    0.26360    1.000
    C6       C        0.24490    0.02650    0.18550    1.000
    H4       H        0.20790    0.00190    0.16360    1.000
    C7       C        0.27190    0.08730    0.15760    1.000
    C8       C        0.32450    0.12200    0.19090    1.000
    H5       H        0.34360    0.16370    0.17190    1.000
    C9       C        0.35060    0.09810    0.25120    1.000
    H6       H        0.38700    0.12330    0.27330    1.000
    C10      C        0.24170    0.11640    0.09390    1.000
    O1       O        0.18760    0.08650    0.07032    1.000
    O2       O        0.27135    0.17040    0.07030    1.000
    C11      C        0.05120    0.00560    0.05930    1.000
    H7       H        0.97080    0.10860    0.95990    1.000
    H8       H        0.04520    0.03590    0.09920    1.000
    H9       H        0.09810    0.98300    0.06230    1.000
    N3       N        0.63730    0.04180    0.44047    1.000
    N4       N        0.57460    0.00740    0.42942    1.000
    C12      C        0.58260    0.97430    0.37190    1.000
    H10      H        0.54790    0.94510    0.35180    1.000
    C13      C        0.64980    0.98790    0.34440    1.000
    C14      C        0.68220    0.03060    0.38970    1.000
    H11      H        0.72850    0.04910    0.38610    1.000
    C15      C        0.67660    0.96280    0.27950    1.000
    C16      C        0.72830    0.99890    0.24570    1.000
    H12      H        0.74590    0.04170    0.26360    1.000
    C17      C        0.75510    0.97350    0.18550    1.000
    H13      H        0.79210    0.99810    0.16360    1.000
    C18      C        0.72810    0.91270    0.15760    1.000
    C19      C        0.67550    0.87800    0.19090    1.000
    H14      H        0.65640    0.83630    0.17190    1.000
    C20      C        0.64940    0.90190    0.25120    1.000
    H15      H        0.61300    0.87670    0.27330    1.000
    C21      C        0.75830    0.88360    0.09390    1.000
    O3       O        0.81240    0.91350    0.07032    1.000
    O4       O        0.72865    0.82960    0.07030    1.000
    C22      C        0.94880    0.99440    0.05930    1.000
    H16      H        0.02920    0.89140    0.95990    1.000
    H17      H        0.95480    0.96410    0.09920    1.000
    H18      H        0.90190    0.01700    0.06230    1.000
    N5       N        0.95820    0.36270    0.55953    1.000
    N6       N        0.99260    0.42540    0.57058    1.000
    C23      C        0.02570    0.41740    0.62810    1.000
    H19      H        0.05490    0.45210    0.64820    1.000
    C24      C        0.01210    0.35020    0.65560    1.000
    C25      C        0.96940    0.31780    0.61030    1.000
    H20      H        0.95090    0.27150    0.61390    1.000
    C26      C        0.03720    0.32340    0.72050    1.000
    C27      C        0.00110    0.27170    0.75430    1.000
    H21      H        0.95830    0.25410    0.73640    1.000
    C28      C        0.02650    0.24490    0.81450    1.000
    H22      H        0.00190    0.20790    0.83640    1.000
    C29      C        0.08730    0.27190    0.84240    1.000
    C30      C        0.12200    0.32450    0.80910    1.000
    H23      H        0.16370    0.34360    0.82810    1.000
    C31      C        0.09810    0.35060    0.74880    1.000
    H24      H        0.12330    0.38700    0.72670    1.000
    C32      C        0.11640    0.24170    0.90610    1.000
    O5       O        0.08650    0.18760    0.92968    1.000
    O6       O        0.17040    0.27135    0.92970    1.000
    C33      C        0.00560    0.05120    0.94070    1.000
    H25      H        0.10860    0.97080    0.04010    1.000
    H26      H        0.03590    0.04520    0.90080    1.000
    H27      H        0.98300    0.09810    0.93770    1.000
    N7       N        0.04180    0.63730    0.55953    1.000
    N8       N        0.00740    0.57460    0.57058    1.000
    C34      C        0.97430    0.58260    0.62810    1.000
    H28      H        0.94510    0.54790    0.64820    1.000
    C35      C        0.98790    0.64980    0.65560    1.000
    C36      C        0.03060    0.68220    0.61030    1.000
    H29      H        0.04910    0.72850    0.61390    1.000
    C37      C        0.96280    0.67660    0.72050    1.000
    C38      C        0.99890    0.72830    0.75430    1.000
    H30      H        0.04170    0.74590    0.73640    1.000
    C39      C        0.97350    0.75510    0.81450    1.000
    H31      H        0.99810    0.79210    0.83640    1.000
    C40      C        0.91270    0.72810    0.84240    1.000
    C41      C        0.87800    0.67550    0.80910    1.000
    H32      H        0.83630    0.65640    0.82810    1.000
    C42      C        0.90190    0.64940    0.74880    1.000
    H33      H        0.87670    0.61300    0.72670    1.000
    C43      C        0.88360    0.75830    0.90610    1.000
    O7       O        0.91350    0.81240    0.92968    1.000
    O8       O        0.82960    0.72865    0.92970    1.000
    C44      C        0.99440    0.94880    0.94070    1.000
    H34      H        0.89140    0.02920    0.04010    1.000
    H35      H        0.96410    0.95480    0.90080    1.000
    H36      H        0.01700    0.90190    0.93770    1.000
    N9       N        0.63730    0.04180    0.55953    1.000
    N10      N        0.57460    0.00740    0.57058    1.000
    C45      C        0.58260    0.97430    0.62810    1.000
    H37      H        0.54790    0.94510    0.64820    1.000
    C46      C        0.64980    0.98790    0.65560    1.000
    C47      C        0.68220    0.03060    0.61030    1.000
    H38      H        0.72850    0.04910    0.61390    1.000
    C48      C        0.67660    0.96280    0.72050    1.000
    C49      C        0.72830    0.99890    0.75430    1.000
    H39      H        0.74590    0.04170    0.73640    1.000
    C50      C        0.75510    0.97350    0.81450    1.000
    H40      H        0.79210    0.99810    0.83640    1.000
    C51      C        0.72810    0.91270    0.84240    1.000
    C52      C        0.67550    0.87800    0.80910    1.000
    H41      H        0.65640    0.83630    0.82810    1.000
    C53      C        0.64940    0.90190    0.74880    1.000
    H42      H        0.61300    0.87670    0.72670    1.000
    C54      C        0.75830    0.88360    0.90610    1.000
    O9       O        0.81240    0.91350    0.92968    1.000
    O10      O        0.72865    0.82960    0.92970    1.000
    C55      C        0.94880    0.99440    0.94070    1.000
    H43      H        0.02920    0.89140    0.04010    1.000
    H44      H        0.95480    0.96410    0.90080    1.000
    H45      H        0.90190    0.01700    0.93770    1.000
    N11      N        0.36270    0.95820    0.55953    1.000
    N12      N        0.42540    0.99260    0.57058    1.000
    C56      C        0.41740    0.02570    0.62810    1.000
    H46      H        0.45210    0.05490    0.64820    1.000
    C57      C        0.35020    0.01210    0.65560    1.000
    C58      C        0.31780    0.96940    0.61030    1.000
    H47      H        0.27150    0.95090    0.61390    1.000
    C59      C        0.32340    0.03720    0.72050    1.000
    C60      C        0.27170    0.00110    0.75430    1.000
    H48      H        0.25410    0.95830    0.73640    1.000
    C61      C        0.24490    0.02650    0.81450    1.000
    H49      H        0.20790    0.00190    0.83640    1.000
    C62      C        0.27190    0.08730    0.84240    1.000
    C63      C        0.32450    0.12200    0.80910    1.000
    H50      H        0.34360    0.16370    0.82810    1.000
    C64      C        0.35060    0.09810    0.74880    1.000
    H51      H        0.38700    0.12330    0.72670    1.000
    C65      C        0.24170    0.11640    0.90610    1.000
    O11      O        0.18760    0.08650    0.92968    1.000
    O12      O        0.27135    0.17040    0.92970    1.000
    C66      C        0.05120    0.00560    0.94070    1.000
    H52      H        0.97080    0.10860    0.04010    1.000
    H53      H        0.04520    0.03590    0.90080    1.000
    H54      H        0.09810    0.98300    0.93770    1.000
    N13      N        0.04180    0.63730    0.44047    1.000
    N14      N        0.00740    0.57460    0.42942    1.000
    C67      C        0.97430    0.58260    0.37190    1.000
    H55      H        0.94510    0.54790    0.35180    1.000
    C68      C        0.98790    0.64980    0.34440    1.000
    C69      C        0.03060    0.68220    0.38970    1.000
    H56      H        0.04910    0.72850    0.38610    1.000
    C70      C        0.96280    0.67660    0.27950    1.000
    C71      C        0.99890    0.72830    0.24570    1.000
    H57      H        0.04170    0.74590    0.26360    1.000
    C72      C        0.97350    0.75510    0.18550    1.000
    H58      H        0.99810    0.79210    0.16360    1.000
    C73      C        0.91270    0.72810    0.15760    1.000
    C74      C        0.87800    0.67550    0.19090    1.000
    H59      H        0.83630    0.65640    0.17190    1.000
    C75      C        0.90190    0.64940    0.25120    1.000
    H60      H        0.87670    0.61300    0.27330    1.000
    C76      C        0.88360    0.75830    0.09390    1.000
    O13      O        0.91350    0.81240    0.07032    1.000
    O14      O        0.82960    0.72865    0.07030    1.000
    C77      C        0.99440    0.94880    0.05930    1.000
    H61      H        0.89140    0.02920    0.95990    1.000
    H62      H        0.96410    0.95480    0.09920    1.000
    H63      H        0.01700    0.90190    0.06230    1.000
    N15      N        0.95820    0.36270    0.44047    1.000
    N16      N        0.99260    0.42540    0.42942    1.000
    C78      C        0.02570    0.41740    0.37190    1.000
    H64      H        0.05490    0.45210    0.35180    1.000
    C79      C        0.01210    0.35020    0.34440    1.000
    C80      C        0.96940    0.31780    0.38970    1.000
    H65      H        0.95090    0.27150    0.38610    1.000
    C81      C        0.03720    0.32340    0.27950    1.000
    C82      C        0.00110    0.27170    0.24570    1.000
    H66      H        0.95830    0.25410    0.26360    1.000
    C83      C        0.02650    0.24490    0.18550    1.000
    H67      H        0.00190    0.20790    0.16360    1.000
    C84      C        0.08730    0.27190    0.15760    1.000
    C85      C        0.12200    0.32450    0.19090    1.000
    H68      H        0.16370    0.34360    0.17190    1.000
    C86      C        0.09810    0.35060    0.25120    1.000
    H69      H        0.12330    0.38700    0.27330    1.000
    C87      C        0.11640    0.24170    0.09390    1.000
    O15      O        0.08650    0.18760    0.07032    1.000
    O16      O        0.17040    0.27135    0.07030    1.000
    C88      C        0.00560    0.05120    0.05930    1.000
    H70      H        0.10860    0.97080    0.95990    1.000
    H71      H        0.03590    0.04520    0.09920    1.000
    H72      H        0.98300    0.09810    0.06230    1.000
    Cu1      Cu       0.12883    0.12883    0.00000    1.000
    Cu2      Cu       0.22742    0.22742    0.00000    1.000
    N17      N        0.04840    0.04840    0.00000    1.000
    Cu3      Cu       0.87117    0.87117    0.00000    1.000
    Cu4      Cu       0.77258    0.77258    0.00000    1.000
    N18      N        0.95160    0.95160    0.00000    1.000
    C89      C        0.35500    0.91490    0.50000    1.000
    H73      H        0.30800    0.89230    0.50000    1.000
    H74      H        0.39110    0.87740    0.50000    1.000
    C90      C        0.64500    0.08510    0.50000    1.000
    H75      H        0.69200    0.10770    0.50000    1.000
    H76      H        0.60890    0.12260    0.50000    1.000
    C91      C        0.91490    0.35500    0.50000    1.000
    H77      H        0.89230    0.30800    0.50000    1.000
    H78      H        0.87740    0.39110    0.50000    1.000
    C92      C        0.08510    0.64500    0.50000    1.000
    H79      H        0.10770    0.69200    0.50000    1.000
    H80      H        0.12260    0.60890    0.50000    1.000
    Cu5      Cu       0.50000    0.00000    0.50000    1.000
    Cu6      Cu       0.00000    0.50000    0.50000    1.000
    C93      C        0.97670    0.07850    0.00000    1.000
    C94      C        0.02330    0.92150    0.00000    1.000
    C95      C        0.07850    0.97670    0.00000    1.000
    C96      C        0.92150    0.02330    0.00000    1.000
    N19      N        0.54180    0.86270    0.94047    1.000
    N20      N        0.50740    0.92540    0.92942    1.000
    C97      C        0.47430    0.91740    0.87190    1.000
    H81      H        0.44510    0.95210    0.85180    1.000
    C98      C        0.48790    0.85020    0.84440    1.000
    C99      C        0.53060    0.81780    0.88970    1.000
    H82      H        0.54910    0.77150    0.88610    1.000
    C100     C        0.46280    0.82340    0.77950    1.000
    C101     C        0.49890    0.77170    0.74570    1.000
    H83      H        0.54170    0.75410    0.76360    1.000
    C102     C        0.47350    0.74490    0.68550    1.000
    H84      H        0.49810    0.70790    0.66360    1.000
    C103     C        0.41270    0.77190    0.65760    1.000
    C104     C        0.37800    0.82450    0.69090    1.000
    H85      H        0.33630    0.84360    0.67190    1.000
    C105     C        0.40190    0.85060    0.75120    1.000
    H86      H        0.37670    0.88700    0.77330    1.000
    C106     C        0.38360    0.74170    0.59390    1.000
    O17      O        0.41350    0.68760    0.57032    1.000
    O18      O        0.32960    0.77135    0.57030    1.000
    C107     C        0.49440    0.55120    0.55930    1.000
    H87      H        0.39140    0.47080    0.45990    1.000
    H88      H        0.46410    0.54520    0.59920    1.000
    H89      H        0.51700    0.59810    0.56230    1.000
    N21      N        0.45820    0.13730    0.94047    1.000
    N22      N        0.49260    0.07460    0.92942    1.000
    C108     C        0.52570    0.08260    0.87190    1.000
    H90      H        0.55490    0.04790    0.85180    1.000
    C109     C        0.51210    0.14980    0.84440    1.000
    C110     C        0.46940    0.18220    0.88970    1.000
    H91      H        0.45090    0.22850    0.88610    1.000
    C111     C        0.53720    0.17660    0.77950    1.000
    C112     C        0.50110    0.22830    0.74570    1.000
    H92      H        0.45830    0.24590    0.76360    1.000
    C113     C        0.52650    0.25510    0.68550    1.000
    H93      H        0.50190    0.29210    0.66360    1.000
    C114     C        0.58730    0.22810    0.65760    1.000
    C115     C        0.62200    0.17550    0.69090    1.000
    H94      H        0.66370    0.15640    0.67190    1.000
    C116     C        0.59810    0.14940    0.75120    1.000
    H95      H        0.62330    0.11300    0.77330    1.000
    C117     C        0.61640    0.25830    0.59390    1.000
    O19      O        0.58650    0.31240    0.57032    1.000
    O20      O        0.67040    0.22865    0.57030    1.000
    C118     C        0.50560    0.44880    0.55930    1.000
    H96      H        0.60860    0.52920    0.45990    1.000
    H97      H        0.53590    0.45480    0.59920    1.000
    H98      H        0.48300    0.40190    0.56230    1.000
    N23      N        0.13730    0.45820    0.05953    1.000
    N24      N        0.07460    0.49260    0.07058    1.000
    C119     C        0.08260    0.52570    0.12810    1.000
    H99      H        0.04790    0.55490    0.14820    1.000
    C120     C        0.14980    0.51210    0.15560    1.000
    C121     C        0.18220    0.46940    0.11030    1.000
    H100     H        0.22850    0.45090    0.11390    1.000
    C122     C        0.17660    0.53720    0.22050    1.000
    C123     C        0.22830    0.50110    0.25430    1.000
    H101     H        0.24590    0.45830    0.23640    1.000
    C124     C        0.25510    0.52650    0.31450    1.000
    H102     H        0.29210    0.50190    0.33640    1.000
    C125     C        0.22810    0.58730    0.34240    1.000
    C126     C        0.17550    0.62200    0.30910    1.000
    H103     H        0.15640    0.66370    0.32810    1.000
    C127     C        0.14940    0.59810    0.24880    1.000
    H104     H        0.11300    0.62330    0.22670    1.000
    C128     C        0.25830    0.61640    0.40610    1.000
    O21      O        0.31240    0.58650    0.42968    1.000
    O22      O        0.22865    0.67040    0.42970    1.000
    C129     C        0.44880    0.50560    0.44070    1.000
    H105     H        0.52920    0.60860    0.54010    1.000
    H106     H        0.45480    0.53590    0.40080    1.000
    H107     H        0.40190    0.48300    0.43770    1.000
    N25      N        0.86270    0.54180    0.05953    1.000
    N26      N        0.92540    0.50740    0.07058    1.000
    C130     C        0.91740    0.47430    0.12810    1.000
    H108     H        0.95210    0.44510    0.14820    1.000
    C131     C        0.85020    0.48790    0.15560    1.000
    C132     C        0.81780    0.53060    0.11030    1.000
    H109     H        0.77150    0.54910    0.11390    1.000
    C133     C        0.82340    0.46280    0.22050    1.000
    C134     C        0.77170    0.49890    0.25430    1.000
    H110     H        0.75410    0.54170    0.23640    1.000
    C135     C        0.74490    0.47350    0.31450    1.000
    H111     H        0.70790    0.49810    0.33640    1.000
    C136     C        0.77190    0.41270    0.34240    1.000
    C137     C        0.82450    0.37800    0.30910    1.000
    H112     H        0.84360    0.33630    0.32810    1.000
    C138     C        0.85060    0.40190    0.24880    1.000
    H113     H        0.88700    0.37670    0.22670    1.000
    C139     C        0.74170    0.38360    0.40610    1.000
    O23      O        0.68760    0.41350    0.42968    1.000
    O24      O        0.77135    0.32960    0.42970    1.000
    C140     C        0.55120    0.49440    0.44070    1.000
    H114     H        0.47080    0.39140    0.54010    1.000
    H115     H        0.54520    0.46410    0.40080    1.000
    H116     H        0.59810    0.51700    0.43770    1.000
    N27      N        0.45820    0.13730    0.05953    1.000
    N28      N        0.49260    0.07460    0.07058    1.000
    C141     C        0.52570    0.08260    0.12810    1.000
    H117     H        0.55490    0.04790    0.14820    1.000
    C142     C        0.51210    0.14980    0.15560    1.000
    C143     C        0.46940    0.18220    0.11030    1.000
    H118     H        0.45090    0.22850    0.11390    1.000
    C144     C        0.53720    0.17660    0.22050    1.000
    C145     C        0.50110    0.22830    0.25430    1.000
    H119     H        0.45830    0.24590    0.23640    1.000
    C146     C        0.52650    0.25510    0.31450    1.000
    H120     H        0.50190    0.29210    0.33640    1.000
    C147     C        0.58730    0.22810    0.34240    1.000
    C148     C        0.62200    0.17550    0.30910    1.000
    H121     H        0.66370    0.15640    0.32810    1.000
    C149     C        0.59810    0.14940    0.24880    1.000
    H122     H        0.62330    0.11300    0.22670    1.000
    C150     C        0.61640    0.25830    0.40610    1.000
    O25      O        0.58650    0.31240    0.42968    1.000
    O26      O        0.67040    0.22865    0.42970    1.000
    C151     C        0.50560    0.44880    0.44070    1.000
    H123     H        0.60860    0.52920    0.54010    1.000
    H124     H        0.53590    0.45480    0.40080    1.000
    H125     H        0.48300    0.40190    0.43770    1.000
    N29      N        0.54180    0.86270    0.05953    1.000
    N30      N        0.50740    0.92540    0.07058    1.000
    C152     C        0.47430    0.91740    0.12810    1.000
    H126     H        0.44510    0.95210    0.14820    1.000
    C153     C        0.48790    0.85020    0.15560    1.000
    C154     C        0.53060    0.81780    0.11030    1.000
    H127     H        0.54910    0.77150    0.11390    1.000
    C155     C        0.46280    0.82340    0.22050    1.000
    C156     C        0.49890    0.77170    0.25430    1.000
    H128     H        0.54170    0.75410    0.23640    1.000
    C157     C        0.47350    0.74490    0.31450    1.000
    H129     H        0.49810    0.70790    0.33640    1.000
    C158     C        0.41270    0.77190    0.34240    1.000
    C159     C        0.37800    0.82450    0.30910    1.000
    H130     H        0.33630    0.84360    0.32810    1.000
    C160     C        0.40190    0.85060    0.24880    1.000
    H131     H        0.37670    0.88700    0.22670    1.000
    C161     C        0.38360    0.74170    0.40610    1.000
    O27      O        0.41350    0.68760    0.42968    1.000
    O28      O        0.32960    0.77135    0.42970    1.000
    C162     C        0.49440    0.55120    0.44070    1.000
    H132     H        0.39140    0.47080    0.54010    1.000
    H133     H        0.46410    0.54520    0.40080    1.000
    H134     H        0.51700    0.59810    0.43770    1.000
    N31      N        0.86270    0.54180    0.94047    1.000
    N32      N        0.92540    0.50740    0.92942    1.000
    C163     C        0.91740    0.47430    0.87190    1.000
    H135     H        0.95210    0.44510    0.85180    1.000
    C164     C        0.85020    0.48790    0.84440    1.000
    C165     C        0.81780    0.53060    0.88970    1.000
    H136     H        0.77150    0.54910    0.88610    1.000
    C166     C        0.82340    0.46280    0.77950    1.000
    C167     C        0.77170    0.49890    0.74570    1.000
    H137     H        0.75410    0.54170    0.76360    1.000
    C168     C        0.74490    0.47350    0.68550    1.000
    H138     H        0.70790    0.49810    0.66360    1.000
    C169     C        0.77190    0.41270    0.65760    1.000
    C170     C        0.82450    0.37800    0.69090    1.000
    H139     H        0.84360    0.33630    0.67190    1.000
    C171     C        0.85060    0.40190    0.75120    1.000
    H140     H        0.88700    0.37670    0.77330    1.000
    C172     C        0.74170    0.38360    0.59390    1.000
    O29      O        0.68760    0.41350    0.57032    1.000
    O30      O        0.77135    0.32960    0.57030    1.000
    C173     C        0.55120    0.49440    0.55930    1.000
    H141     H        0.47080    0.39140    0.45990    1.000
    H142     H        0.54520    0.46410    0.59920    1.000
    H143     H        0.59810    0.51700    0.56230    1.000
    N33      N        0.13730    0.45820    0.94047    1.000
    N34      N        0.07460    0.49260    0.92942    1.000
    C174     C        0.08260    0.52570    0.87190    1.000
    H144     H        0.04790    0.55490    0.85180    1.000
    C175     C        0.14980    0.51210    0.84440    1.000
    C176     C        0.18220    0.46940    0.88970    1.000
    H145     H        0.22850    0.45090    0.88610    1.000
    C177     C        0.17660    0.53720    0.77950    1.000
    C178     C        0.22830    0.50110    0.74570    1.000
    H146     H        0.24590    0.45830    0.76360    1.000
    C179     C        0.25510    0.52650    0.68550    1.000
    H147     H        0.29210    0.50190    0.66360    1.000
    C180     C        0.22810    0.58730    0.65760    1.000
    C181     C        0.17550    0.62200    0.69090    1.000
    H148     H        0.15640    0.66370    0.67190    1.000
    C182     C        0.14940    0.59810    0.75120    1.000
    H149     H        0.11300    0.62330    0.77330    1.000
    C183     C        0.25830    0.61640    0.59390    1.000
    O31      O        0.31240    0.58650    0.57032    1.000
    O32      O        0.22865    0.67040    0.57030    1.000
    C184     C        0.44880    0.50560    0.55930    1.000
    H150     H        0.52920    0.60860    0.45990    1.000
    H151     H        0.45480    0.53590    0.59920    1.000
    H152     H        0.40190    0.48300    0.56230    1.000
    Cu7      Cu       0.37117    0.62883    0.50000    1.000
    Cu8      Cu       0.27258    0.72742    0.50000    1.000
    N35      N        0.45160    0.54840    0.50000    1.000
    Cu9      Cu       0.62883    0.37117    0.50000    1.000
    Cu10     Cu       0.72742    0.27258    0.50000    1.000
    N36      N        0.54840    0.45160    0.50000    1.000
    C185     C        0.58510    0.85500    0.00000    1.000
    H153     H        0.60770    0.80800    0.00000    1.000
    H154     H        0.62260    0.89110    0.00000    1.000
    C186     C        0.41490    0.14500    0.00000    1.000
    H155     H        0.39230    0.19200    0.00000    1.000
    H156     H        0.37740    0.10890    0.00000    1.000
    C187     C        0.14500    0.41490    0.00000    1.000
    H157     H        0.19200    0.39230    0.00000    1.000
    H158     H        0.10890    0.37740    0.00000    1.000
    C188     C        0.85500    0.58510    0.00000    1.000
    H159     H        0.80800    0.60770    0.00000    1.000
    H160     H        0.89110    0.62260    0.00000    1.000
    Cu11     Cu       0.50000    0.00000    0.00000    1.000
    Cu12     Cu       0.00000    0.50000    0.00000    1.000
    C189     C        0.42150    0.47670    0.50000    1.000
    C190     C        0.57850    0.52330    0.50000    1.000
    C191     C        0.52330    0.57850    0.50000    1.000
    C192     C        0.47670    0.42150    0.50000    1.000
