data_functionalizedCrystal
_audit_creation_method	'EQeq! by Chris Wilmer'
_symmetry_space_group_name_H-M	'P1'
_symmetry_Int_Tables_number	1
_symmetry_cell_setting	triclinic
loop_
_symmetry_equiv_pos_as_xyz
  x,y,z
_cell_length_a	12.8061
_cell_length_b	20.7872
_cell_length_c	21.6247
_cell_angle_alpha	103.246
_cell_angle_beta	90
_cell_angle_gamma	90
loop_
_atom_site_label
_atom_site_type_symbol
_atom_site_fract_x
_atom_site_fract_y
_atom_site_fract_z
_atom_site_charge
Mof_Sc	Sc	0.78595	0.99924	0.24225	1.617
Mof_Sc	Sc	0.28595	0.50076	0.25775	1.623
Mof_Sc	Sc	0.21405	0.00076	0.75775	1.617
Mof_Sc	Sc	0.71405	0.49924	0.74225	1.623
Mof_H 	H 	0.8485	0.8153	0.304	0.06
Mof_H 	H 	0.7518	0.7279	0.3231	0.139
Mof_H 	H 	0.4894	0.8282	0.3018	0.132
Mof_H 	H 	0.5929	0.9149	0.2859	0.063
Mof_H 	H 	0.9688	0.0763	0.1839	0.031
Mof_H 	H 	0.0752	0.1615	0.1687	0.093
Mof_H 	H 	0.8172	0.2754	0.1739	0.11
Mof_H 	H 	0.7162	0.1875	0.1872	0.065
Mof_H 	H 	0.9963	0.9221	0.32	0.048
Mof_H 	H 	0.0276	0.9101	0.4223	0.126
Mof_H 	H 	0.9501	0.1003	0.4894	0.137
Mof_H 	H 	0.9203	0.1106	0.385	0.07
Mof_H 	H 	0.0194	0.4462	0.1814	0.077
Mof_H 	H 	0.91	0.3564	0.1771	0.104
Mof_H 	H 	0.1651	0.2395	0.1583	0.091
Mof_H 	H 	0.2679	0.3314	0.1608	0.06
Mof_H 	H 	0.562	0.552	0.309	0.049
Mof_H 	H 	0.6579	0.6418	0.2971	0.116
Mof_H 	H 	0.409	0.7591	0.3517	0.12
Mof_H 	H 	0.3131	0.6688	0.3606	0.063
Mof_H 	H 	0.4711	0.0167	0.1814	0.054
Mof_H 	H 	0.4004	0.0322	0.0879	0.106
Mof_H 	H 	0.6582	0.9562	0.9967	0.115
Mof_H 	H 	0.7279	0.9472	0.0917	0.039
Mof_H 	H 	0.3485	0.6847	0.196	0.061
Mof_H 	H 	0.2518	0.7721	0.1769	0.14
Mof_H 	H 	0.9894	0.6718	0.1982	0.131
Mof_H 	H 	0.0929	0.5851	0.2141	0.064
Mof_H 	H 	0.4688	0.4237	0.3161	0.033
Mof_H 	H 	0.5752	0.3385	0.3313	0.089
Mof_H 	H 	0.3172	0.2246	0.3261	0.107
Mof_H 	H 	0.2162	0.3125	0.3128	0.066
Mof_H 	H 	0.4963	0.5779	0.18	0.047
Mof_H 	H 	0.5276	0.5899	0.0777	0.128
Mof_H 	H 	0.4501	0.3997	0.0106	0.137
Mof_H 	H 	0.4203	0.3894	0.115	0.07
Mof_H 	H 	0.5194	0.0538	0.3186	0.076
Mof_H 	H 	0.41	0.1436	0.3229	0.108
Mof_H 	H 	0.6651	0.2605	0.3417	0.094
Mof_H 	H 	0.7679	0.1686	0.3392	0.058
Mof_H 	H 	0.062	0.948	0.191	0.049
Mof_H 	H 	0.1579	0.8582	0.2029	0.117
Mof_H 	H 	0.909	0.7409	0.1483	0.121
Mof_H 	H 	0.8131	0.8312	0.1394	0.062
Mof_H 	H 	0.9711	0.4833	0.3186	0.055
Mof_H 	H 	0.9004	0.4678	0.4121	0.106
Mof_H 	H 	0.1582	0.5438	0.5033	0.113
Mof_H 	H 	0.2279	0.5528	0.4083	0.04
Mof_H 	H 	0.1515	0.1847	0.696	0.061
Mof_H 	H 	0.2482	0.2721	0.6769	0.14
Mof_H 	H 	0.5106	0.1718	0.6982	0.132
Mof_H 	H 	0.4071	0.0851	0.7141	0.063
Mof_H 	H 	0.0312	0.9237	0.8161	0.031
Mof_H 	H 	0.9248	0.8385	0.8313	0.093
Mof_H 	H 	0.1828	0.7246	0.8261	0.11
Mof_H 	H 	0.2838	0.8125	0.8128	0.065
Mof_H 	H 	0.0037	0.0779	0.68	0.048
Mof_H 	H 	0.9724	0.0899	0.5777	0.126
Mof_H 	H 	0.0499	0.8997	0.5106	0.137
Mof_H 	H 	0.0797	0.8894	0.615	0.07
Mof_H 	H 	0.9806	0.5538	0.8186	0.077
Mof_H 	H 	0.09	0.6436	0.8229	0.104
Mof_H 	H 	0.8349	0.7605	0.8417	0.091
Mof_H 	H 	0.7321	0.6686	0.8392	0.06
Mof_H 	H 	0.438	0.448	0.691	0.049
Mof_H 	H 	0.3421	0.3582	0.7029	0.116
Mof_H 	H 	0.591	0.2409	0.6483	0.12
Mof_H 	H 	0.6869	0.3312	0.6394	0.063
Mof_H 	H 	0.5289	0.9833	0.8186	0.054
Mof_H 	H 	0.5996	0.9678	0.9121	0.106
Mof_H 	H 	0.3418	0.0438	0.0033	0.115
Mof_H 	H 	0.2721	0.0528	0.9083	0.039
Mof_H 	H 	0.6515	0.3153	0.804	0.061
Mof_H 	H 	0.7482	0.2279	0.8231	0.14
Mof_H 	H 	0.0106	0.3282	0.8018	0.131
Mof_H 	H 	0.9071	0.4149	0.7859	0.064
Mof_H 	H 	0.5312	0.5763	0.6839	0.033
Mof_H 	H 	0.4248	0.6615	0.6687	0.089
Mof_H 	H 	0.6828	0.7754	0.6739	0.107
Mof_H 	H 	0.7838	0.6875	0.6872	0.066
Mof_H 	H 	0.5037	0.4221	0.82	0.047
Mof_H 	H 	0.4724	0.4101	0.9223	0.128
Mof_H 	H 	0.5499	0.6003	0.9894	0.137
Mof_H 	H 	0.5797	0.6106	0.885	0.07
Mof_H 	H 	0.4806	0.9462	0.6814	0.076
Mof_H 	H 	0.59	0.8564	0.6771	0.108
Mof_H 	H 	0.3349	0.7395	0.6583	0.094
Mof_H 	H 	0.2321	0.8314	0.6608	0.058
Mof_H 	H 	0.938	0.052	0.809	0.049
Mof_H 	H 	0.8421	0.1418	0.7971	0.117
Mof_H 	H 	0.091	0.2591	0.8517	0.121
Mof_H 	H 	0.1869	0.1688	0.8606	0.062
Mof_H 	H 	0.0289	0.5167	0.6814	0.055
Mof_H 	H 	0.0996	0.5322	0.5879	0.106
Mof_H 	H 	0.8418	0.4562	0.4967	0.113
Mof_H 	H 	0.7721	0.4472	0.5917	0.04
Mof_C 	C 	0.7744	0.8175	0.3039	0.102
Mof_C 	C 	0.7172	0.7657	0.3154	-0.103
Mof_C 	C 	0.6095	0.7683	0.3158	0.086
Mof_C 	C 	0.5633	0.8249	0.3032	-0.083
Mof_C 	C 	0.6246	0.8759	0.2929	0.105
Mof_C 	C 	0.9389	0.1176	0.182	0.086
Mof_C 	C 	0.0019	0.1681	0.173	-0.11
Mof_C 	C 	0.9589	0.2292	0.1701	0.083
Mof_C 	C 	0.8498	0.2349	0.1758	-0.1
Mof_C 	C 	0.79	0.1833	0.1842	0.086
Mof_C 	C 	0.9863	0.9586	0.355	0.095
Mof_C 	C 	0.005	0.9516	0.4158	-0.086
Mof_C 	C 	0.9917	0.0031	0.4663	0.101
Mof_C 	C 	0.9596	0.0632	0.4548	-0.085
Mof_C 	C 	0.9414	0.0694	0.3929	0.099
Mof_C 	C 	0.0483	0.4033	0.1764	0.076
Mof_C 	C 	0.9835	0.3499	0.1743	-0.074
Mof_C 	C 	0.0238	0.2866	0.1682	0.054
Mof_C 	C 	0.133	0.2816	0.163	-0.083
Mof_C 	C 	0.1942	0.336	0.1647	0.072
Mof_C 	C 	0.5311	0.5947	0.3168	0.082
Mof_C 	C 	0.5873	0.6478	0.3108	-0.107
Mof_C 	C 	0.545	0.711	0.3239	0.083
Mof_C 	C 	0.4409	0.7167	0.3424	-0.108
Mof_C 	C 	0.3842	0.6638	0.3477	0.08
Mof_C 	C 	0.5106	0.005	0.1432	0.12
Mof_C 	C 	0.4683	0.0138	0.0875	-0.085
Mof_C 	C 	0.5224	0.9963	0.0307	0.11
Mof_C 	C 	0.6183	0.9704	0.0344	-0.086
Mof_C 	C 	0.6591	0.964	0.0907	0.117
Mof_C 	C 	0.2744	0.6825	0.1961	0.101
Mof_C 	C 	0.2172	0.7343	0.1846	-0.102
Mof_C 	C 	0.1095	0.7317	0.1842	0.084
Mof_C 	C 	0.0633	0.6751	0.1968	-0.081
Mof_C 	C 	0.1246	0.6241	0.2071	0.104
Mof_C 	C 	0.4389	0.3824	0.318	0.075
Mof_C 	C 	0.5019	0.3319	0.327	-0.094
Mof_C 	C 	0.4589	0.2708	0.3299	0.069
Mof_C 	C 	0.3498	0.2651	0.3242	-0.092
Mof_C 	C 	0.29	0.3167	0.3158	0.081
Mof_C 	C 	0.4863	0.5414	0.145	0.104
Mof_C 	C 	0.505	0.5484	0.0842	-0.093
Mof_C 	C 	0.4917	0.4969	0.0337	0.101
Mof_C 	C 	0.4596	0.4368	0.0452	-0.086
Mof_C 	C 	0.4414	0.4306	0.1071	0.099
Mof_C 	C 	0.5483	0.0967	0.3236	0.084
Mof_C 	C 	0.4835	0.1501	0.3257	-0.086
Mof_C 	C 	0.5238	0.2134	0.3318	0.067
Mof_C 	C 	0.633	0.2184	0.337	-0.091
Mof_C 	C 	0.6942	0.164	0.3353	0.077
Mof_C 	C 	0.0311	0.9053	0.1832	0.085
Mof_C 	C 	0.0873	0.8522	0.1892	-0.11
Mof_C 	C 	0.045	0.789	0.1761	0.086
Mof_C 	C 	0.9409	0.7833	0.1576	-0.112
Mof_C 	C 	0.8842	0.8362	0.1523	0.081
Mof_C 	C 	0.0106	0.495	0.3568	0.116
Mof_C 	C 	0.9683	0.4862	0.4125	-0.085
Mof_C 	C 	0.0224	0.5037	0.4693	0.11
Mof_C 	C 	0.1183	0.5296	0.4656	-0.082
Mof_C 	C 	0.1591	0.536	0.4093	0.116
Mof_C 	C 	0.2256	0.1825	0.6961	0.102
Mof_C 	C 	0.2828	0.2343	0.6846	-0.103
Mof_C 	C 	0.3905	0.2317	0.6842	0.086
Mof_C 	C 	0.4367	0.1751	0.6968	-0.083
Mof_C 	C 	0.3754	0.1241	0.7071	0.105
Mof_C 	C 	0.0611	0.8824	0.818	0.086
Mof_C 	C 	0.9981	0.8319	0.827	-0.11
Mof_C 	C 	0.0411	0.7708	0.8299	0.083
Mof_C 	C 	0.1502	0.7651	0.8242	-0.1
Mof_C 	C 	0.21	0.8167	0.8158	0.086
Mof_C 	C 	0.0137	0.0414	0.645	0.095
Mof_C 	C 	0.995	0.0484	0.5842	-0.086
Mof_C 	C 	0.0083	0.9969	0.5337	0.101
Mof_C 	C 	0.0404	0.9368	0.5452	-0.085
Mof_C 	C 	0.0586	0.9306	0.6071	0.099
Mof_C 	C 	0.9517	0.5967	0.8236	0.076
Mof_C 	C 	0.0165	0.6501	0.8257	-0.074
Mof_C 	C 	0.9762	0.7134	0.8318	0.054
Mof_C 	C 	0.867	0.7184	0.837	-0.083
Mof_C 	C 	0.8058	0.664	0.8353	0.072
Mof_C 	C 	0.4689	0.4053	0.6832	0.082
Mof_C 	C 	0.4127	0.3522	0.6892	-0.107
Mof_C 	C 	0.455	0.289	0.6761	0.083
Mof_C 	C 	0.5591	0.2833	0.6576	-0.108
Mof_C 	C 	0.6158	0.3362	0.6523	0.08
Mof_C 	C 	0.4894	0.995	0.8568	0.12
Mof_C 	C 	0.5317	0.9862	0.9125	-0.085
Mof_C 	C 	0.4776	0.0037	0.9693	0.11
Mof_C 	C 	0.3817	0.0296	0.9656	-0.086
Mof_C 	C 	0.3409	0.036	0.9093	0.117
Mof_C 	C 	0.7256	0.3175	0.8039	0.101
Mof_C 	C 	0.7828	0.2657	0.8154	-0.102
Mof_C 	C 	0.8905	0.2683	0.8158	0.084
Mof_C 	C 	0.9367	0.3249	0.8032	-0.081
Mof_C 	C 	0.8754	0.3759	0.7929	0.104
Mof_C 	C 	0.5611	0.6176	0.682	0.075
Mof_C 	C 	0.4981	0.6681	0.673	-0.094
Mof_C 	C 	0.5411	0.7292	0.6701	0.069
Mof_C 	C 	0.6502	0.7349	0.6758	-0.092
Mof_C 	C 	0.71	0.6833	0.6842	0.081
Mof_C 	C 	0.5137	0.4586	0.855	0.104
Mof_C 	C 	0.495	0.4516	0.9158	-0.093
Mof_C 	C 	0.5083	0.5031	0.9663	0.101
Mof_C 	C 	0.5404	0.5632	0.9548	-0.086
Mof_C 	C 	0.5586	0.5694	0.8929	0.099
Mof_C 	C 	0.4517	0.9033	0.6764	0.084
Mof_C 	C 	0.5165	0.8499	0.6743	-0.086
Mof_C 	C 	0.4762	0.7866	0.6682	0.067
Mof_C 	C 	0.367	0.7816	0.663	-0.091
Mof_C 	C 	0.3058	0.836	0.6647	0.077
Mof_C 	C 	0.9689	0.0947	0.8168	0.085
Mof_C 	C 	0.9127	0.1478	0.8108	-0.11
Mof_C 	C 	0.955	0.211	0.8239	0.086
Mof_C 	C 	0.0591	0.2167	0.8424	-0.112
Mof_C 	C 	0.1158	0.1638	0.8477	0.081
Mof_C 	C 	0.9894	0.505	0.6432	0.116
Mof_C 	C 	0.0317	0.5138	0.5875	-0.085
Mof_C 	C 	0.9776	0.4963	0.5307	0.11
Mof_C 	C 	0.8817	0.4704	0.5344	-0.082
Mof_C 	C 	0.8409	0.464	0.5907	0.116
Mof_N 	N 	0.728	0.8704	0.2926	-0.052
Mof_N 	N 	0.8364	0.1264	0.1882	-0.056
Mof_N 	N 	0.954	0.0166	0.3448	-0.058
Mof_N 	N 	0.1507	0.3949	0.1716	-0.059
Mof_N 	N 	0.4295	0.6035	0.3344	-0.066
Mof_N 	N 	0.6048	0.9807	0.1445	-0.054
Mof_N 	N 	0.228	0.6296	0.2074	-0.051
Mof_N 	N 	0.3364	0.3736	0.3118	-0.054
Mof_N 	N 	0.454	0.4834	0.1552	-0.061
Mof_N 	N 	0.6507	0.1051	0.3284	-0.062
Mof_N 	N 	0.9295	0.8965	0.1656	-0.068
Mof_N 	N 	0.1048	0.5193	0.3555	-0.052
Mof_N 	N 	0.272	0.1296	0.7074	-0.052
Mof_N 	N 	0.1636	0.8736	0.8118	-0.056
Mof_N 	N 	0.046	0.9834	0.6552	-0.058
Mof_N 	N 	0.8493	0.6051	0.8284	-0.059
Mof_N 	N 	0.5705	0.3965	0.6656	-0.066
Mof_N 	N 	0.3952	0.0193	0.8555	-0.054
Mof_N 	N 	0.772	0.3704	0.7926	-0.051
Mof_N 	N 	0.6636	0.6264	0.6882	-0.054
Mof_N 	N 	0.546	0.5166	0.8448	-0.061
Mof_N 	N 	0.3493	0.8949	0.6716	-0.062
Mof_N 	N 	0.0705	0.1035	0.8344	-0.068
Mof_N 	N 	0.8952	0.4807	0.6445	-0.052
Mof_O 	O 	0.7878	0.9181	0.2809	-0.325
Mof_O 	O 	0.7744	0.0782	0.1994	-0.32
Mof_O 	O 	0.9325	0.0218	0.2854	-0.302
Mof_O 	O 	0.2127	0.4487	0.1745	-0.293
Mof_O 	O 	0.3709	0.5501	0.3381	-0.307
Mof_O 	O 	0.6415	0.9727	0.1997	-0.294
Mof_O 	O 	0.2878	0.5819	0.2191	-0.325
Mof_O 	O 	0.2744	0.4218	0.3006	-0.322
Mof_O 	O 	0.4325	0.4782	0.2146	-0.305
Mof_O 	O 	0.7127	0.0513	0.3255	-0.291
Mof_O 	O 	0.8709	0.9499	0.1619	-0.307
Mof_O 	O 	0.1415	0.5273	0.3003	-0.294
Mof_O 	O 	0.2122	0.0819	0.7191	-0.325
Mof_O 	O 	0.2256	0.9218	0.8006	-0.32
Mof_O 	O 	0.0675	0.9782	0.7146	-0.302
Mof_O 	O 	0.7873	0.5513	0.8255	-0.293
Mof_O 	O 	0.6291	0.4499	0.6619	-0.307
Mof_O 	O 	0.3585	0.0273	0.8003	-0.294
Mof_O 	O 	0.7122	0.4181	0.7809	-0.325
Mof_O 	O 	0.7256	0.5782	0.6994	-0.322
Mof_O 	O 	0.5675	0.5218	0.7854	-0.305
Mof_O 	O 	0.2873	0.9487	0.6745	-0.291
Mof_O 	O 	0.1291	0.0501	0.8381	-0.307
Mof_O 	O 	0.8585	0.4727	0.6997	-0.294
Mof_C 	C 	0.5036	0.2188	0.0732	0.823
Mof_S 	S 	0.5049	0.24749	0.15812	0.321
Mof_O 	O 	0.6076	0.277	0.172	-0.162
Mof_O 	O 	0.4994	0.1904	0.1813	-0.181
Mof_O 	O 	0.4235	0.2954	0.171	-0.183
Mof_F 	F 	0.4138	0.1869	0.0562	-0.445
Mof_F 	F 	0.5111	0.2682	0.0452	-0.438
Mof_F 	F 	0.5756	0.1746	0.0521	-0.442
Mof_C 	C 	0.4955	0.7964	0.1173	0.802
Mof_S 	S 	0.5847	0.7336	0.13307	0.325
Mof_O 	O 	0.6733	0.7722	0.1614	-0.165
Mof_O 	O 	0.6035	0.6936	0.0705	-0.118
Mof_O 	O 	0.5262	0.7012	0.1743	-0.179
Mof_F 	F 	0.4663	0.8372	0.1711	-0.469
Mof_F 	F 	0.4086	0.7685	0.0884	-0.422
Mof_F 	F 	0.5383	0.8314	0.0804	-0.421
Mof_C 	C 	0.3275	0.9653	0.3774	0.716
Mof_S 	S 	0.3132	0.9489	0.29559	0.31
Mof_O 	O 	0.3083	0.8752	0.2822	-0.139
Mof_O 	O 	0.4035	0.9729	0.2754	-0.159
Mof_O 	O 	0.2135	0.9774	0.2844	-0.152
Mof_F 	F 	0.4151	0.9383	0.396	-0.421
Mof_F 	F 	0.3296	0.0348	0.4006	-0.399
Mof_F 	F 	0.248	0.9464	0.4092	-0.43
Mof_C 	C 	0.0036	0.2812	0.4268	0.823
Mof_S 	S 	0.0049	0.25251	0.34188	0.315
Mof_O 	O 	0.1076	0.223	0.328	-0.162
Mof_O 	O 	0.9994	0.3096	0.3187	-0.178
Mof_O 	O 	0.9235	0.2046	0.329	-0.18
Mof_F 	F 	0.9138	0.3131	0.4438	-0.444
Mof_F 	F 	0.0111	0.2318	0.4548	-0.439
Mof_F 	F 	0.0756	0.3254	0.4479	-0.443
Mof_C 	C 	0.9955	0.7036	0.3827	0.8
Mof_S 	S 	0.0847	0.7664	0.36693	0.326
Mof_O 	O 	0.1733	0.7278	0.3386	-0.165
Mof_O 	O 	0.1035	0.8064	0.4295	-0.118
Mof_O 	O 	0.0262	0.7988	0.3257	-0.178
Mof_F 	F 	0.9663	0.6628	0.3289	-0.469
Mof_F 	F 	0.9086	0.7315	0.4116	-0.422
Mof_F 	F 	0.0383	0.6686	0.4196	-0.419
Mof_C 	C 	0.8275	0.5347	0.1226	0.715
Mof_S 	S 	0.8132	0.5511	0.20441	0.31
Mof_O 	O 	0.8083	0.6248	0.2178	-0.139
Mof_O 	O 	0.9035	0.5271	0.2246	-0.159
Mof_O 	O 	0.7135	0.5226	0.2156	-0.152
Mof_F 	F 	0.9151	0.5617	0.104	-0.421
Mof_F 	F 	0.8296	0.4652	0.0994	-0.399
Mof_F 	F 	0.748	0.5536	0.0908	-0.43
Mof_C 	C 	0.4964	0.7812	0.9268	0.823
Mof_S 	S 	0.4951	0.75251	0.84188	0.321
Mof_O 	O 	0.3924	0.723	0.828	-0.162
Mof_O 	O 	0.5006	0.8096	0.8187	-0.181
Mof_O 	O 	0.5765	0.7046	0.829	-0.183
Mof_F 	F 	0.5862	0.8131	0.9438	-0.445
Mof_F 	F 	0.4889	0.7318	0.9548	-0.438
Mof_F 	F 	0.4244	0.8254	0.9479	-0.442
Mof_C 	C 	0.5045	0.2036	0.8827	0.802
Mof_S 	S 	0.4153	0.2664	0.86693	0.325
Mof_O 	O 	0.3267	0.2278	0.8386	-0.165
Mof_O 	O 	0.3965	0.3064	0.9295	-0.118
Mof_O 	O 	0.4738	0.2988	0.8257	-0.179
Mof_F 	F 	0.5337	0.1628	0.8289	-0.469
Mof_F 	F 	0.5914	0.2315	0.9116	-0.422
Mof_F 	F 	0.4617	0.1686	0.9196	-0.421
Mof_C 	C 	0.6725	0.0347	0.6226	0.716
Mof_S 	S 	0.6868	0.0511	0.70441	0.31
Mof_O 	O 	0.6917	0.1248	0.7178	-0.139
Mof_O 	O 	0.5965	0.0271	0.7246	-0.159
Mof_O 	O 	0.7865	0.0226	0.7156	-0.152
Mof_F 	F 	0.5849	0.0617	0.604	-0.421
Mof_F 	F 	0.6704	0.9652	0.5994	-0.399
Mof_F 	F 	0.752	0.0536	0.5908	-0.43
Mof_C 	C 	0.9964	0.7188	0.5732	0.823
Mof_S 	S 	0.9951	0.74749	0.65812	0.315
Mof_O 	O 	0.8924	0.777	0.672	-0.162
Mof_O 	O 	0.0006	0.6904	0.6813	-0.178
Mof_O 	O 	0.0765	0.7954	0.671	-0.18
Mof_F 	F 	0.0862	0.6869	0.5562	-0.444
Mof_F 	F 	0.9889	0.7682	0.5452	-0.439
Mof_F 	F 	0.9244	0.6746	0.5521	-0.443
Mof_C 	C 	0.0045	0.2964	0.6173	0.8
Mof_S 	S 	0.9153	0.2336	0.63307	0.326
Mof_O 	O 	0.8267	0.2722	0.6614	-0.165
Mof_O 	O 	0.8965	0.1936	0.5705	-0.118
Mof_O 	O 	0.9738	0.2012	0.6743	-0.178
Mof_F 	F 	0.0337	0.3372	0.6711	-0.469
Mof_F 	F 	0.0914	0.2685	0.5884	-0.422
Mof_F 	F 	0.9617	0.3314	0.5804	-0.419
Mof_C 	C 	0.1725	0.4653	0.8774	0.715
Mof_S 	S 	0.1868	0.4489	0.79559	0.31
Mof_O 	O 	0.1917	0.3752	0.7822	-0.139
Mof_O 	O 	0.0965	0.4729	0.7754	-0.159
Mof_O 	O 	0.2865	0.4774	0.7844	-0.152
Mof_F 	F 	0.0849	0.4383	0.896	-0.421
Mof_F 	F 	0.1704	0.5348	0.9006	-0.399
Mof_F 	F 	0.252	0.4464	0.9092	-0.43
_end
