data_functionalizedCrystal
_audit_creation_method	'EQeq! by Chris Wilmer'
_symmetry_space_group_name_H-M	'P1'
_symmetry_Int_Tables_number	1
_symmetry_cell_setting	triclinic
loop_
_symmetry_equiv_pos_as_xyz
  x,y,z
_cell_length_a	15.3944
_cell_length_b	15.3944
_cell_length_c	15.3944
_cell_angle_alpha	90
_cell_angle_beta	90
_cell_angle_gamma	90
loop_
_atom_site_label
_atom_site_type_symbol
_atom_site_fract_x
_atom_site_fract_y
_atom_site_fract_z
_atom_site_charge
Mof_C 	C 	0.34085	0.76983	0.76983	0.061
Mof_C 	C 	0.69611	0.69611	0.80661	-0.076
Mof_C 	C 	0.30389	0.80661	0.69611	-0.099
Mof_C 	C 	0.30389	0.69611	0.80661	-0.099
Mof_C 	C 	0.30389	0.19339	0.30389	-0.162
Mof_C 	C 	0.88314	0.34677	0.34677	0.392
Mof_C 	C 	0.30389	0.80661	0.30389	-0.123
Mof_C 	C 	0.76983	0.23017	0.34085	0.073
Mof_C 	C 	0.80661	0.69611	0.69611	-0.077
Mof_C 	C 	0.30389	0.19339	0.69611	-0.141
Mof_C 	C 	0.65915	0.23017	0.76983	0.064
Mof_C 	C 	0.34085	0.76983	0.23017	0.073
Mof_C 	C 	0.34677	0.65323	0.88314	0.388
Mof_C 	C 	0.19339	0.69611	0.30389	-0.141
Mof_C 	C 	0.34677	0.65323	0.11686	0.398
Mof_C 	C 	0.19339	0.30389	0.30389	-0.163
Mof_C 	C 	0.80661	0.69611	0.30389	-0.1
Mof_C 	C 	0.23017	0.76983	0.65915	0.064
Mof_C 	C 	0.30389	0.69611	0.19339	-0.141
Mof_C 	C 	0.23017	0.76983	0.34085	0.073
Mof_C 	C 	0.34677	0.34677	0.11686	0.4
Mof_C 	C 	0.76983	0.76983	0.65915	0.05
Mof_C 	C 	0.69611	0.69611	0.19339	-0.118
Mof_C 	C 	0.34085	0.23017	0.76983	0.073
Mof_C 	C 	0.19339	0.69611	0.69611	-0.118
Mof_C 	C 	0.76983	0.65915	0.76983	0.05
Mof_C 	C 	0.65323	0.11686	0.34677	0.398
Mof_C 	C 	0.88314	0.65323	0.65323	0.386
Mof_C 	C 	0.65323	0.34677	0.88314	0.388
Mof_C 	C 	0.23017	0.65915	0.23017	0.077
Mof_C 	C 	0.34677	0.34677	0.88314	0.391
Mof_C 	C 	0.69611	0.80661	0.30389	-0.1
Mof_C 	C 	0.23017	0.23017	0.65915	0.077
Mof_C 	C 	0.65323	0.65323	0.88314	0.386
Mof_C 	C 	0.11686	0.65323	0.65323	0.395
Mof_C 	C 	0.19339	0.30389	0.69611	-0.141
Mof_C 	C 	0.30389	0.30389	0.80661	-0.123
Mof_C 	C 	0.65323	0.65323	0.11686	0.395
Mof_C 	C 	0.34677	0.11686	0.65323	0.398
Mof_C 	C 	0.65915	0.23017	0.23017	0.077
Mof_C 	C 	0.69611	0.30389	0.80661	-0.1
Mof_C 	C 	0.65915	0.76983	0.76983	0.05
Mof_C 	C 	0.11686	0.34677	0.65323	0.398
Mof_C 	C 	0.65323	0.34677	0.11686	0.398
Mof_C 	C 	0.11686	0.65323	0.34677	0.398
Mof_C 	C 	0.11686	0.34677	0.34677	0.4
Mof_C 	C 	0.76983	0.34085	0.76983	0.06
Mof_C 	C 	0.65323	0.88314	0.65323	0.386
Mof_C 	C 	0.23017	0.34085	0.76983	0.073
Mof_C 	C 	0.69611	0.19339	0.69611	-0.118
Mof_C 	C 	0.69611	0.80661	0.69611	-0.077
Mof_C 	C 	0.23017	0.23017	0.34085	0.086
Mof_C 	C 	0.88314	0.34677	0.65323	0.388
Mof_C 	C 	0.65915	0.76983	0.23017	0.064
Mof_C 	C 	0.69611	0.30389	0.19339	-0.141
Mof_C 	C 	0.34677	0.88314	0.65323	0.388
Mof_C 	C 	0.76983	0.34085	0.23017	0.073
Mof_C 	C 	0.88314	0.65323	0.34677	0.388
Mof_C 	C 	0.76983	0.23017	0.65915	0.064
Mof_C 	C 	0.23017	0.65915	0.76983	0.064
Mof_C 	C 	0.34677	0.88314	0.34677	0.391
Mof_C 	C 	0.65323	0.11686	0.65323	0.395
Mof_C 	C 	0.30389	0.30389	0.19339	-0.163
Mof_C 	C 	0.34085	0.23017	0.23017	0.086
Mof_C 	C 	0.76983	0.76983	0.34085	0.06
Mof_C 	C 	0.80661	0.30389	0.30389	-0.123
Mof_C 	C 	0.65323	0.88314	0.34677	0.388
Mof_C 	C 	0.69611	0.19339	0.30389	-0.141
Mof_C 	C 	0.76983	0.65915	0.23017	0.064
Mof_C 	C 	0.23017	0.34085	0.23017	0.086
Mof_C 	C 	0.80661	0.30389	0.69611	-0.1
Mof_C 	C 	0.34677	0.11686	0.34677	0.4
Mof_Cl	Cl	0.5	0	0.5	-0.752
Mof_Cl	Cl	0.5	0.5	-0	-0.752
Mof_Cl	Cl	-1.58495e-33	0.5	0.5	-0.752
Mof_Cu	Cu	0.33514	0.5	-0	0.908
Mof_Cu	Cu	-1.58495e-33	0.33514	0.5	0.908
Mof_Cu	Cu	1.25657e-33	0.5	0.33514	0.908
Mof_Cu	Cu	0.5	0.66486	-0	0.912
Mof_Cu	Cu	0.5	0.33514	-0	0.908
Mof_Cu	Cu	2.49283e-33	0.5	0.66486	0.912
Mof_Cu	Cu	0.66486	0	0.5	0.912
Mof_Cu	Cu	0.66486	0.5	-0	0.912
Mof_Cu	Cu	0.5	0	0.66486	0.912
Mof_Cu	Cu	5.33435e-33	0.66486	0.5	0.912
Mof_Cu	Cu	0.5	0	0.33514	0.908
Mof_Cu	Cu	0.33514	0	0.5	0.908
Mof_H 	H 	0.3902	0.7945	0.7945	0.066
Mof_H 	H 	0.2055	0.6098	0.7945	0.05
Mof_H 	H 	0.7945	0.3902	0.7945	0.066
Mof_H 	H 	0.3902	0.2055	0.7945	0.043
Mof_H 	H 	0.6098	0.7945	0.7945	0.073
Mof_H 	H 	0.2055	0.3902	0.2055	0.019
Mof_H 	H 	0.2055	0.2055	0.6098	0.026
Mof_H 	H 	0.3902	0.7945	0.2055	0.043
Mof_H 	H 	0.2055	0.3902	0.7945	0.043
Mof_H 	H 	0.2055	0.6098	0.2055	0.026
Mof_H 	H 	0.7945	0.7945	0.6098	0.073
Mof_H 	H 	0.7945	0.2055	0.6098	0.05
Mof_H 	H 	0.2055	0.7945	0.3902	0.043
Mof_H 	H 	0.6098	0.2055	0.7945	0.05
Mof_H 	H 	0.3902	0.2055	0.2055	0.019
Mof_H 	H 	0.7945	0.7945	0.3902	0.066
Mof_H 	H 	0.7945	0.6098	0.7945	0.073
Mof_H 	H 	0.7945	0.2055	0.3902	0.043
Mof_H 	H 	0.2055	0.7945	0.6098	0.05
Mof_H 	H 	0.7945	0.6098	0.2055	0.05
Mof_H 	H 	0.7945	0.3902	0.2055	0.043
Mof_H 	H 	0.2055	0.2055	0.3902	0.019
Mof_H 	H 	0.6098	0.7945	0.2055	0.05
Mof_H 	H 	0.6098	0.2055	0.2055	0.026
Mof_O 	O 	0.5852	0.68796	0.9104	-0.319
Mof_O 	O 	0.9104	0.31204	0.5852	-0.333
Mof_O 	O 	0.9104	0.68796	0.4148	-0.324
Mof_O 	O 	0.68796	0.9104	0.5852	-0.319
Mof_O 	O 	0.0896	0.4148	0.31204	-0.429
Mof_O 	O 	0.31204	0.0896	0.5852	-0.425
Mof_O 	O 	0.68796	0.4148	0.0896	-0.415
Mof_O 	O 	0.0896	0.68796	0.4148	-0.415
Mof_O 	O 	0.4148	0.68796	0.9104	-0.324
Mof_O 	O 	0.31204	0.5852	0.9104	-0.333
Mof_O 	O 	0.0896	0.5852	0.31204	-0.425
Mof_O 	O 	0.5852	0.0896	0.31204	-0.425
Mof_O 	O 	0.4148	0.9104	0.31204	-0.338
Mof_O 	O 	0.4148	0.0896	0.31204	-0.429
Mof_O 	O 	0.31204	0.0896	0.4148	-0.429
Mof_O 	O 	0.5852	0.31204	0.9104	-0.333
Mof_O 	O 	0.5852	0.31204	0.0896	-0.425
Mof_O 	O 	0.31204	0.4148	0.9104	-0.338
Mof_O 	O 	0.5852	0.0896	0.68796	-0.411
Mof_O 	O 	0.68796	0.5852	0.9104	-0.319
Mof_O 	O 	0.4148	0.0896	0.68796	-0.415
Mof_O 	O 	0.0896	0.4148	0.68796	-0.415
Mof_O 	O 	0.0896	0.31204	0.5852	-0.425
Mof_O 	O 	0.68796	0.0896	0.5852	-0.411
Mof_O 	O 	0.5852	0.9104	0.68796	-0.319
Mof_O 	O 	0.9104	0.31204	0.4148	-0.338
Mof_O 	O 	0.4148	0.9104	0.68796	-0.324
Mof_O 	O 	0.9104	0.5852	0.31204	-0.333
Mof_O 	O 	0.0896	0.68796	0.5852	-0.411
Mof_O 	O 	0.68796	0.9104	0.4148	-0.324
Mof_O 	O 	0.4148	0.68796	0.0896	-0.415
Mof_O 	O 	0.68796	0.5852	0.0896	-0.411
Mof_O 	O 	0.9104	0.4148	0.31204	-0.338
Mof_O 	O 	0.5852	0.68796	0.0896	-0.411
Mof_O 	O 	0.31204	0.9104	0.4148	-0.338
Mof_O 	O 	0.5852	0.9104	0.31204	-0.333
Mof_O 	O 	0.31204	0.5852	0.0896	-0.425
Mof_O 	O 	0.4148	0.31204	0.0896	-0.429
Mof_O 	O 	0.31204	0.4148	0.0896	-0.429
Mof_O 	O 	0.9104	0.4148	0.68796	-0.324
Mof_O 	O 	0.9104	0.5852	0.68796	-0.319
Mof_O 	O 	0.0896	0.31204	0.4148	-0.429
Mof_O 	O 	0.68796	0.0896	0.4148	-0.415
Mof_O 	O 	0.9104	0.68796	0.5852	-0.319
Mof_O 	O 	0.0896	0.5852	0.68796	-0.411
Mof_O 	O 	0.4148	0.31204	0.9104	-0.338
Mof_O 	O 	0.68796	0.4148	0.9104	-0.324
Mof_O 	O 	0.31204	0.9104	0.5852	-0.333
_end
