data_functionalizedCrystal
_audit_creation_method	'EQeq! by Chris Wilmer'
_symmetry_space_group_name_H-M	'P1'
_symmetry_Int_Tables_number	1
_symmetry_cell_setting	triclinic
loop_
_symmetry_equiv_pos_as_xyz
  x,y,z
_cell_length_a	7.7476
_cell_length_b	18.393
_cell_length_c	18.753
_cell_angle_alpha	90
_cell_angle_beta	101.72
_cell_angle_gamma	90
loop_
_atom_site_label
_atom_site_type_symbol
_atom_site_fract_x
_atom_site_fract_y
_atom_site_fract_z
_atom_site_charge
Mof_Cd	Cd	0.45931	0.16342	0.10277	0.463
Mof_Cd	Cd	0.08366	0.46304	0.36255	0.471
Mof_O 	O 	0.0892	0.5104	0.2536	-0.258
Mof_O 	O 	0.0333	0.6086	0.3133	-0.239
Mof_O 	O 	0.9802	0.8471	0.1888	-0.247
Mof_O 	O 	0.9865	0.8556	0.0727	-0.241
Mof_O 	O 	0.4294	0.4154	0.704	-0.246
Mof_O 	O 	0.4364	0.2978	0.7209	-0.25
Mof_O 	O 	0.4442	0.2005	0.9733	-0.249
Mof_O 	O 	0.394	0.2783	0.0571	-0.256
Mof_O 	O 	0.5986	0.0617	0.0765	-0.273
Mof_O 	O 	0.8213	0.0206	0.03	-0.262
Mof_N 	N 	0.2275	0.5313	0.0023	-0.136
Mof_N 	N 	0.2653	0.5847	0.9034	-0.181
Mof_H 	H 	0.2907	0.5921	0.8614	0.147
Mof_N 	N 	0.2099	0.6356	0.9459	-0.076
Mof_C 	C 	0.0673	0.5785	0.2584	0.283
Mof_C 	C 	0.0841	0.624	0.1915	-0.03
Mof_C 	C 	0.0437	0.6971	0.1909	-0.022
Mof_H 	H 	0.0107	0.7179	0.2313	0.076
Mof_C 	C 	0.0517	0.7406	0.1301	-0.033
Mof_C 	C 	0.0993	0.7097	0.0694	-0.039
Mof_H 	H 	0.1054	0.7381	0.029	0.076
Mof_C 	C 	0.1384	0.6348	0.0699	0.006
Mof_C 	C 	0.1351	0.5927	0.1307	-0.041
Mof_H 	H 	0.1664	0.5439	0.1313	0.077
Mof_C 	C 	0.0053	0.8194	0.13	0.279
Mof_C 	C 	0.193	0.6023	0.0061	0.117
Mof_C 	C 	0.273	0.5234	0.9369	0.15
Mof_C 	C 	0.3205	0.4523	0.9131	-0.024
Mof_C 	C 	0.3372	0.3924	0.9596	-0.018
Mof_H 	H 	0.3148	0.3985	0.0061	0.07
Mof_C 	C 	0.3851	0.325	0.9396	-0.044
Mof_C 	C 	0.412	0.3165	0.8675	-0.009
Mof_H 	H 	0.4412	0.2708	0.8522	0.07
Mof_C 	C 	0.3967	0.3722	0.8209	-0.045
Mof_C 	C 	0.351	0.441	0.8422	-0.02
Mof_H 	H 	0.3405	0.4796	0.8096	0.062
Mof_C 	C 	0.4216	0.3615	0.7431	0.29
Mof_C 	C 	0.41	0.2629	0.9936	0.286
Mof_C 	C 	0.6983	0.0636	0.0308	0.36
Mof_H 	H 	0.6778	0.0996	0.9953	-0.049
Mof_Cd	Cd	0.54069	0.66342	0.39723	0.463
Mof_Cd	Cd	0.91634	0.96304	0.13745	0.471
Mof_O 	O 	0.9108	0.0104	0.2464	-0.257
Mof_O 	O 	0.9667	0.1086	0.1867	-0.237
Mof_O 	O 	0.0198	0.3471	0.3112	-0.246
Mof_O 	O 	0.0135	0.3556	0.4273	-0.241
Mof_O 	O 	0.5706	0.9154	0.796	-0.246
Mof_O 	O 	0.5636	0.7978	0.7791	-0.25
Mof_O 	O 	0.5558	0.7005	0.5267	-0.248
Mof_O 	O 	0.606	0.7783	0.4429	-0.256
Mof_O 	O 	0.4014	0.5617	0.4235	-0.273
Mof_O 	O 	0.1787	0.5206	0.47	-0.262
Mof_N 	N 	0.7725	0.0313	0.4977	-0.136
Mof_N 	N 	0.7347	0.0847	0.5966	-0.181
Mof_H 	H 	0.7093	0.0921	0.6386	0.146
Mof_N 	N 	0.7901	0.1356	0.5541	-0.076
Mof_C 	C 	0.9327	0.0785	0.2416	0.283
Mof_C 	C 	0.9159	0.124	0.3085	-0.03
Mof_C 	C 	0.9563	0.1971	0.3091	-0.021
Mof_H 	H 	0.9893	0.2179	0.2687	0.076
Mof_C 	C 	0.9483	0.2406	0.3699	-0.033
Mof_C 	C 	0.9007	0.2097	0.4306	-0.039
Mof_H 	H 	0.8946	0.2381	0.471	0.077
Mof_C 	C 	0.8616	0.1348	0.4301	0.006
Mof_C 	C 	0.8649	0.0927	0.3693	-0.041
Mof_H 	H 	0.8336	0.0439	0.3687	0.077
Mof_C 	C 	0.9947	0.3194	0.37	0.281
Mof_C 	C 	0.807	0.1023	0.4939	0.118
Mof_C 	C 	0.727	0.0234	0.5631	0.149
Mof_C 	C 	0.6795	0.9523	0.5869	-0.023
Mof_C 	C 	0.6628	0.8924	0.5404	-0.018
Mof_H 	H 	0.6852	0.8985	0.4939	0.07
Mof_C 	C 	0.6149	0.825	0.5604	-0.044
Mof_C 	C 	0.588	0.8165	0.6325	-0.009
Mof_H 	H 	0.5588	0.7708	0.6478	0.07
Mof_C 	C 	0.6033	0.8722	0.6791	-0.045
Mof_C 	C 	0.649	0.941	0.6578	-0.021
Mof_H 	H 	0.6595	0.9796	0.6904	0.062
Mof_C 	C 	0.5784	0.8615	0.7569	0.29
Mof_C 	C 	0.59	0.7629	0.5064	0.287
Mof_C 	C 	0.3017	0.5636	0.4692	0.356
Mof_H 	H 	0.3222	0.5996	0.5047	-0.047
Mof_Cd	Cd	0.54069	0.83658	0.89723	0.464
Mof_Cd	Cd	0.91634	0.53696	0.63745	0.472
Mof_O 	O 	0.9108	0.4896	0.7464	-0.257
Mof_O 	O 	0.9667	0.3914	0.6867	-0.238
Mof_O 	O 	0.0198	0.1529	0.8112	-0.246
Mof_O 	O 	0.0135	0.1444	0.9273	-0.24
Mof_O 	O 	0.5706	0.5846	0.296	-0.246
Mof_O 	O 	0.5636	0.7022	0.2791	-0.25
Mof_O 	O 	0.5558	0.7995	0.0267	-0.249
Mof_O 	O 	0.606	0.7217	0.9429	-0.256
Mof_O 	O 	0.4014	0.9383	0.9235	-0.273
Mof_O 	O 	0.1787	0.9794	0.97	-0.262
Mof_N 	N 	0.7725	0.4687	0.9977	-0.136
Mof_N 	N 	0.7347	0.4153	0.0966	-0.181
Mof_H 	H 	0.7093	0.4079	0.1386	0.147
Mof_N 	N 	0.7901	0.3644	0.0541	-0.076
Mof_C 	C 	0.9327	0.4215	0.7416	0.283
Mof_C 	C 	0.9159	0.376	0.8085	-0.03
Mof_C 	C 	0.9563	0.3029	0.8091	-0.022
Mof_H 	H 	0.9893	0.2821	0.7687	0.076
Mof_C 	C 	0.9483	0.2594	0.8699	-0.033
Mof_C 	C 	0.9007	0.2903	0.9306	-0.039
Mof_H 	H 	0.8946	0.2619	0.971	0.076
Mof_C 	C 	0.8616	0.3652	0.9301	0.006
Mof_C 	C 	0.8649	0.4073	0.8693	-0.041
Mof_H 	H 	0.8336	0.4561	0.8687	0.077
Mof_C 	C 	0.9947	0.1806	0.87	0.279
Mof_C 	C 	0.807	0.3977	0.9939	0.117
Mof_C 	C 	0.727	0.4766	0.0631	0.15
Mof_C 	C 	0.6795	0.5477	0.0869	-0.024
Mof_C 	C 	0.6628	0.6076	0.0404	-0.018
Mof_H 	H 	0.6852	0.6015	0.9939	0.07
Mof_C 	C 	0.6149	0.675	0.0604	-0.044
Mof_C 	C 	0.588	0.6835	0.1325	-0.009
Mof_H 	H 	0.5588	0.7292	0.1478	0.07
Mof_C 	C 	0.6033	0.6278	0.1791	-0.045
Mof_C 	C 	0.649	0.559	0.1578	-0.02
Mof_H 	H 	0.6595	0.5204	0.1904	0.062
Mof_C 	C 	0.5784	0.6385	0.2569	0.29
Mof_C 	C 	0.59	0.7371	0.0064	0.286
Mof_C 	C 	0.3017	0.9364	0.9692	0.36
Mof_H 	H 	0.3222	0.9004	0.0047	-0.049
Mof_Cd	Cd	0.45931	0.33658	0.60277	0.463
Mof_Cd	Cd	0.08366	0.03696	0.86255	0.471
Mof_O 	O 	0.0892	0.9896	0.7536	-0.257
Mof_O 	O 	0.0333	0.8914	0.8133	-0.237
Mof_O 	O 	0.9802	0.6529	0.6888	-0.246
Mof_O 	O 	0.9865	0.6444	0.5727	-0.241
Mof_O 	O 	0.4294	0.0846	0.204	-0.246
Mof_O 	O 	0.4364	0.2022	0.2209	-0.25
Mof_O 	O 	0.4442	0.2995	0.4733	-0.248
Mof_O 	O 	0.394	0.2217	0.5571	-0.256
Mof_O 	O 	0.5986	0.4383	0.5765	-0.273
Mof_O 	O 	0.8213	0.4794	0.53	-0.262
Mof_N 	N 	0.2275	0.9687	0.5023	-0.136
Mof_N 	N 	0.2653	0.9153	0.4034	-0.181
Mof_H 	H 	0.2907	0.9079	0.3614	0.146
Mof_N 	N 	0.2099	0.8644	0.4459	-0.076
Mof_C 	C 	0.0673	0.9215	0.7584	0.283
Mof_C 	C 	0.0841	0.876	0.6915	-0.03
Mof_C 	C 	0.0437	0.8029	0.6909	-0.021
Mof_H 	H 	0.0107	0.7821	0.7313	0.076
Mof_C 	C 	0.0517	0.7594	0.6301	-0.033
Mof_C 	C 	0.0993	0.7903	0.5694	-0.039
Mof_H 	H 	0.1054	0.7619	0.529	0.077
Mof_C 	C 	0.1384	0.8652	0.5699	0.006
Mof_C 	C 	0.1351	0.9073	0.6307	-0.041
Mof_H 	H 	0.1664	0.9561	0.6313	0.077
Mof_C 	C 	0.0053	0.6806	0.63	0.281
Mof_C 	C 	0.193	0.8977	0.5061	0.118
Mof_C 	C 	0.273	0.9766	0.4369	0.149
Mof_C 	C 	0.3205	0.0477	0.4131	-0.023
Mof_C 	C 	0.3372	0.1076	0.4596	-0.018
Mof_H 	H 	0.3148	0.1015	0.5061	0.07
Mof_C 	C 	0.3851	0.175	0.4396	-0.044
Mof_C 	C 	0.412	0.1835	0.3675	-0.009
Mof_H 	H 	0.4412	0.2292	0.3522	0.07
Mof_C 	C 	0.3967	0.1278	0.3209	-0.045
Mof_C 	C 	0.351	0.059	0.3422	-0.021
Mof_H 	H 	0.3405	0.0204	0.3096	0.062
Mof_C 	C 	0.4216	0.1385	0.2431	0.29
Mof_C 	C 	0.41	0.2371	0.4936	0.287
Mof_C 	C 	0.6983	0.4364	0.5308	0.356
Mof_H 	H 	0.6778	0.4004	0.4953	-0.047
_end
