data_functionalizedCrystal
_audit_creation_method	'EQeq! by Chris Wilmer'
_symmetry_space_group_name_H-M	'P1'
_symmetry_Int_Tables_number	1
_symmetry_cell_setting	triclinic
loop_
_symmetry_equiv_pos_as_xyz
  x,y,z
_cell_length_a	10.1459
_cell_length_b	10.1459
_cell_length_c	23.8634
_cell_angle_alpha	90
_cell_angle_beta	90
_cell_angle_gamma	90
loop_
_atom_site_label
_atom_site_type_symbol
_atom_site_fract_x
_atom_site_fract_y
_atom_site_fract_z
_atom_site_charge
Mof_Cd	Cd	0.5	0.5	0.5	0.502
Mof_Cd	Cd	0.5	0	0.25	0.325
Mof_Cd	Cd	6.61401e-33	0.5	0.75	0.325
Mof_Cd	Cd	-0	0	-0	0.443
Mof_H 	H 	0.6511	0.2041	0.964	0.087
Mof_H 	H 	0.344	0.5224	0.1725	0.07
Mof_H 	H 	0.3809	0.0479	0.5054	0.036
Mof_H 	H 	0.3093	0.5967	0.792	0.038
Mof_H 	H 	0.1907	0.0967	0.292	0.03
Mof_H 	H 	0.2369	0.6581	0.571	0.165
Mof_H 	H 	0.5224	0.656	0.8275	0.071
Mof_H 	H 	0.1511	0.2959	0.464	0.091
Mof_H 	H 	0.2258	0.224	0.6397	0.022
Mof_H 	H 	0.9776	0.156	0.3275	0.064
Mof_H 	H 	0.0224	0.844	0.3275	0.077
Mof_H 	H 	0.656	0.4776	0.1725	0.069
Mof_H 	H 	0.1581	0.7369	0.929	0.163
Mof_H 	H 	0.0967	0.8093	0.708	0.037
Mof_H 	H 	0.8093	0.9033	0.292	0.046
Mof_H 	H 	0.156	0.0224	0.6725	0.069
Mof_H 	H 	0.7742	0.776	0.6397	0.032
Mof_H 	H 	0.8489	0.7041	0.464	0.076
Mof_H 	H 	0.3419	0.2369	0.429	0.164
Mof_H 	H 	0.1191	0.5479	0.0054	0.022
Mof_H 	H 	0.5967	0.6907	0.208	0.04
Mof_H 	H 	0.224	0.7742	0.3603	0.027
Mof_H 	H 	0.1566	0.4824	0.6263	-0.008
Mof_H 	H 	0.2631	0.1581	0.071	0.158
Mof_H 	H 	0.3434	0.9824	0.1263	0.029
Mof_H 	H 	0.0479	0.6191	0.4946	0.035
Mof_H 	H 	0.9033	0.1907	0.708	0.039
Mof_H 	H 	0.2041	0.3489	0.036	0.078
Mof_H 	H 	0.0176	0.3434	0.8737	-0.035
Mof_H 	H 	0.776	0.2258	0.3603	0.028
Mof_H 	H 	0.3489	0.7959	0.964	0.088
Mof_H 	H 	0.4776	0.344	0.8275	0.072
Mof_H 	H 	0.7258	0.276	0.1397	0.029
Mof_H 	H 	0.6581	0.7631	0.429	0.167
Mof_H 	H 	0.9824	0.6566	0.8737	0.028
Mof_H 	H 	0.2959	0.8489	0.536	0.075
Mof_H 	H 	0.7959	0.6511	0.036	0.081
Mof_H 	H 	0.8434	0.5176	0.6263	0
Mof_H 	H 	0.9521	0.3809	0.4946	0.023
Mof_H 	H 	0.4824	0.8434	0.3737	-0.001
Mof_H 	H 	0.7369	0.8419	0.071	0.173
Mof_H 	H 	0.2742	0.724	0.1397	0.029
Mof_H 	H 	0.4521	0.1191	0.9946	0.027
Mof_H 	H 	0.7631	0.3419	0.571	0.166
Mof_H 	H 	0.724	0.7258	0.8603	0.03
Mof_H 	H 	0.5479	0.8809	0.9946	0.037
Mof_H 	H 	0.5176	0.1566	0.3737	-0.007
Mof_H 	H 	0.276	0.2742	0.8603	0.022
Mof_H 	H 	0.8809	0.4521	0.0054	0.032
Mof_H 	H 	0.6566	0.0176	0.1263	-0.036
Mof_H 	H 	0.6907	0.4033	0.792	0.038
Mof_H 	H 	0.4033	0.3093	0.208	0.037
Mof_H 	H 	0.844	0.9776	0.6725	0.072
Mof_H 	H 	0.8419	0.2631	0.929	0.171
Mof_H 	H 	0.7041	0.1511	0.536	0.092
Mof_H 	H 	0.6191	0.9521	0.5054	0.023
Mof_C 	C 	0.778	0.0853	0.60798	0.038
Mof_C 	C 	0.3144	0.1576	0.56974	-0.1
Mof_C 	C 	0.3424	0.1856	0.93026	-0.116
Mof_C 	C 	0.7848	0.8733	0.94916	0.325
Mof_C 	C 	0.2004	0.0275	0.6385	-0.145
Mof_C 	C 	0.8783	0.2494	0.68001	-0.013
Mof_C 	C 	0.0441	0.6656	0.461	0.004
Mof_C 	C 	0.9288	0.3455	0.86421	0.186
Mof_C 	C 	0.7996	0.9725	0.6385	-0.081
Mof_C 	C 	0.244	0.1482	0.6192	0.044
Mof_C 	C 	0.2859	0.6798	0.87009	0.053
Mof_C 	C 	0.9147	0.778	0.39202	0.073
Mof_C 	C 	0.8518	0.244	0.3808	0.035
Mof_C 	C 	0.2506	0.6217	0.81999	-0.012
Mof_C 	C 	0.7004	0.4725	0.1385	-0.106
Mof_C 	C 	0.2494	0.1217	0.31999	-0.018
Mof_C 	C 	0.8424	0.3144	0.43026	-0.112
Mof_C 	C 	0.1267	0.7848	0.05084	0.294
Mof_C 	C 	0.6798	0.7141	0.12991	0.056
Mof_C 	C 	0.3518	0.256	0.8808	0.049
Mof_C 	C 	0.3455	0.0712	0.13579	0.088
Mof_C 	C 	0.6656	0.9559	0.539	0.078
Mof_C 	C 	0.256	0.6482	0.1192	0.036
Mof_C 	C 	0.1656	0.5441	0.039	0.034
Mof_C 	C 	0.5712	0.8455	0.36421	0.143
Mof_C 	C 	0.0275	0.7996	0.3615	-0.141
Mof_C 	C 	0.4288	0.1545	0.36421	0.135
Mof_C 	C 	0.222	0.9147	0.60798	0.07
Mof_C 	C 	0.6217	0.7494	0.18001	-0.013
Mof_C 	C 	0.8144	0.3424	0.06974	-0.096
Mof_C 	C 	0.6482	0.744	0.8808	0.043
Mof_C 	C 	0.1545	0.5712	0.63579	0.136
Mof_C 	C 	0.576	0.2147	0.9421	-0.118
Mof_C 	C 	0.5275	0.7004	0.8615	-0.11
Mof_C 	C 	0.0853	0.222	0.39202	0.033
Mof_C 	C 	0.5441	0.8344	0.961	0.043
Mof_C 	C 	0.2152	0.1267	0.94916	0.332
Mof_C 	C 	0.424	0.7853	0.9421	-0.108
Mof_C 	C 	0.6545	0.9288	0.13579	0.188
Mof_C 	C 	0.3202	0.2859	0.12991	0.048
Mof_C 	C 	0.7147	0.076	0.5579	-0.142
Mof_C 	C 	0.7506	0.8783	0.31999	-0.008
Mof_C 	C 	0.4725	0.2996	0.8615	-0.119
Mof_C 	C 	0.1798	0.7859	0.62991	0.047
Mof_C 	C 	0.2848	0.6267	0.44916	0.31
Mof_C 	C 	0.8202	0.2141	0.62991	0.056
Mof_C 	C 	0.756	0.8518	0.6192	0.04
Mof_C 	C 	0.1482	0.756	0.3808	0.048
Mof_C 	C 	0.2147	0.424	0.0579	-0.112
Mof_C 	C 	0.6267	0.7152	0.55084	0.318
Mof_C 	C 	0.4147	0.722	0.89202	0.055
Mof_C 	C 	0.7494	0.3783	0.81999	-0.013
Mof_C 	C 	0.5853	0.278	0.89202	0.057
Mof_C 	C 	0.8344	0.4559	0.039	0.034
Mof_C 	C 	0.2853	0.924	0.5579	-0.079
Mof_C 	C 	0.2996	0.5275	0.1385	-0.111
Mof_C 	C 	0.7859	0.8202	0.37009	0.053
Mof_C 	C 	0.1217	0.7506	0.68001	-0.012
Mof_C 	C 	0.0712	0.6545	0.86421	0.096
Mof_C 	C 	0.4559	0.1656	0.961	0.047
Mof_C 	C 	0.2141	0.1798	0.37009	0.05
Mof_C 	C 	0.9559	0.3344	0.461	0.077
Mof_C 	C 	0.7152	0.3733	0.44916	0.316
Mof_C 	C 	0.278	0.4147	0.10798	0.05
Mof_C 	C 	0.924	0.7147	0.4421	-0.077
Mof_C 	C 	0.7141	0.3202	0.87009	0.05
Mof_C 	C 	0.1576	0.6856	0.43026	-0.098
Mof_C 	C 	0.6856	0.8424	0.56974	-0.111
Mof_C 	C 	0.9725	0.2004	0.3615	-0.081
Mof_C 	C 	0.3344	0.0441	0.539	0.001
Mof_C 	C 	0.6576	0.8144	0.93026	-0.102
Mof_C 	C 	0.722	0.5853	0.10798	0.05
Mof_C 	C 	0.3783	0.2506	0.18001	-0.014
Mof_C 	C 	0.744	0.3518	0.1192	0.036
Mof_C 	C 	0.076	0.2853	0.4421	-0.144
Mof_C 	C 	0.8455	0.4288	0.63579	0.142
Mof_C 	C 	0.7853	0.576	0.0579	-0.103
Mof_C 	C 	0.1856	0.6576	0.06974	-0.102
Mof_C 	C 	0.3733	0.2848	0.55084	0.309
Mof_C 	C 	0.8733	0.2152	0.05084	0.296
Mof_N 	N 	0.6063	0.8831	0.18263	-0.155
Mof_N 	N 	0.2995	0.168	0.10324	-0.211
Mof_N 	N 	0.1169	0.6063	0.81737	-0.148
Mof_N 	N 	0.8831	0.3937	0.81737	-0.156
Mof_N 	N 	0.1063	0.6169	0.68263	-0.156
Mof_N 	N 	0.3937	0.1169	0.18263	-0.148
Mof_N 	N 	0.7995	0.332	0.60324	-0.22
Mof_N 	N 	0.6169	0.8937	0.31737	-0.147
Mof_N 	N 	0.832	0.2995	0.89676	-0.229
Mof_N 	N 	0.8937	0.3831	0.68263	-0.147
Mof_N 	N 	0.3831	0.1063	0.31737	-0.156
Mof_N 	N 	0.7005	0.832	0.10324	-0.23
Mof_N 	N 	0.668	0.7995	0.39676	-0.22
Mof_N 	N 	0.168	0.7005	0.89676	-0.211
Mof_N 	N 	0.2005	0.668	0.60324	-0.22
Mof_N 	N 	0.332	0.2005	0.39676	-0.22
Mof_O 	O 	0.1038	0.8744	0.08512	-0.244
Mof_O 	O 	0.0992	0.7976	0.9998	-0.27
Mof_O 	O 	0.2024	0.0992	0.0002	-0.31
Mof_O 	O 	0.1256	0.1038	0.91488	-0.268
Mof_O 	O 	0.8744	0.8962	0.91488	-0.233
Mof_O 	O 	0.3744	0.6038	0.41488	-0.252
Mof_O 	O 	0.7976	0.9008	0.0002	-0.285
Mof_O 	O 	0.6038	0.6256	0.58512	-0.253
Mof_O 	O 	0.7024	0.4008	0.5002	-0.291
Mof_O 	O 	0.2976	0.5992	0.5002	-0.29
Mof_O 	O 	0.8962	0.1256	0.08512	-0.245
Mof_O 	O 	0.3962	0.3744	0.58512	-0.253
Mof_O 	O 	0.5992	0.7024	0.4998	-0.29
Mof_O 	O 	0.9008	0.2024	0.9998	-0.265
Mof_O 	O 	0.4008	0.2976	0.4998	-0.291
Mof_O 	O 	0.6256	0.3962	0.41488	-0.254
_end
