data_functionalizedCrystal
_audit_creation_method	'EQeq! by Chris Wilmer'
_symmetry_space_group_name_H-M	'P1'
_symmetry_Int_Tables_number	1
_symmetry_cell_setting	triclinic
loop_
_symmetry_equiv_pos_as_xyz
  x,y,z
_cell_length_a	7.9878
_cell_length_b	33.9352
_cell_length_c	39.1992
_cell_angle_alpha	90
_cell_angle_beta	90
_cell_angle_gamma	90
loop_
_atom_site_label
_atom_site_type_symbol
_atom_site_fract_x
_atom_site_fract_y
_atom_site_fract_z
_atom_site_charge
Mof_Cu	Cu	0.20497	0.40618	0.35066	0.885
Mof_C 	C 	0.7919	0.581	0.16421	0.351
Mof_C 	C 	0.6425	0.5188	0.1809	0.02
Mof_H 	H 	0.659	0.5088	0.1591	0.032
Mof_C 	C 	0.5584	0.4962	0.2053	-0.094
Mof_H 	H 	0.5183	0.4714	0.1996	0.057
Mof_C 	C 	0.5341	0.5109	0.23826	0.028
Mof_C 	C 	0.5975	0.5482	0.24656	-0.094
Mof_H 	H 	0.5844	0.558	0.2686	0.057
Mof_C 	C 	0.6802	0.5709	0.222	0.027
Mof_H 	H 	0.7205	0.5958	0.2276	0.032
Mof_C 	C 	0.7019	0.5563	0.1895	-0.112
Mof_C 	C 	0.3076	0.4279	0.28257	0.073
Mof_H 	H 	0.2666	0.403	0.2773	-0.009
Mof_C 	C 	0.3862	0.449	0.2574	-0.135
Mof_H 	H 	0.3995	0.4382	0.2357	0.071
Mof_C 	C 	0.4461	0.4868	0.26439	0.066
Mof_C 	C 	0.4196	0.5017	0.2975	-0.134
Mof_H 	H 	0.4544	0.5271	0.3031	0.072
Mof_C 	C 	0.3418	0.4785	0.3214	0.075
Mof_H 	H 	0.3263	0.4885	0.3432	-0.014
Mof_N 	N 	0.2869	0.44167	0.31451	-0.238
Mof_O 	O 	0.8281	0.61582	0.17318	-0.433
Mof_O 	O 	0.8304	0.56559	0.13569	-0.429
Mof_Cu	Cu	0.20497	0.90618	0.85066	0.886
Mof_C 	C 	0.7919	0.081	0.66421	0.352
Mof_C 	C 	0.6425	0.0188	0.6809	0.021
Mof_H 	H 	0.659	0.0088	0.6591	0.033
Mof_C 	C 	0.5584	0.9962	0.7053	-0.093
Mof_H 	H 	0.5183	0.9714	0.6996	0.058
Mof_C 	C 	0.5341	0.0109	0.73826	0.029
Mof_C 	C 	0.5975	0.0482	0.74656	-0.093
Mof_H 	H 	0.5844	0.058	0.7686	0.058
Mof_C 	C 	0.6802	0.0709	0.722	0.028
Mof_H 	H 	0.7205	0.0958	0.7276	0.033
Mof_C 	C 	0.7019	0.0563	0.6895	-0.111
Mof_C 	C 	0.3076	0.9279	0.78257	0.074
Mof_H 	H 	0.2666	0.903	0.7773	-0.008
Mof_C 	C 	0.3862	0.949	0.7574	-0.134
Mof_H 	H 	0.3995	0.9382	0.7357	0.072
Mof_C 	C 	0.4461	0.9868	0.76439	0.067
Mof_C 	C 	0.4196	0.0017	0.7975	-0.133
Mof_H 	H 	0.4544	0.0271	0.8031	0.072
Mof_C 	C 	0.3418	0.9785	0.8214	0.075
Mof_H 	H 	0.3263	0.9885	0.8432	-0.014
Mof_N 	N 	0.2869	0.94167	0.81451	-0.238
Mof_O 	O 	0.8281	0.11582	0.67318	-0.433
Mof_O 	O 	0.8304	0.06559	0.63569	-0.429
Mof_Cu	Cu	0.70497	0.40618	0.85066	0.886
Mof_C 	C 	0.2919	0.581	0.66421	0.351
Mof_C 	C 	0.1425	0.5188	0.6809	0.019
Mof_H 	H 	0.159	0.5088	0.6591	0.034
Mof_C 	C 	0.0584	0.4962	0.7053	-0.091
Mof_H 	H 	0.0183	0.4714	0.6996	0.056
Mof_C 	C 	0.0341	0.5109	0.73826	0.025
Mof_C 	C 	0.0975	0.5482	0.74656	-0.09
Mof_H 	H 	0.0844	0.558	0.7686	0.056
Mof_C 	C 	0.1802	0.5709	0.722	0.026
Mof_H 	H 	0.2205	0.5958	0.7276	0.034
Mof_C 	C 	0.2019	0.5563	0.6895	-0.109
Mof_C 	C 	0.8076	0.4279	0.78257	0.076
Mof_H 	H 	0.7666	0.403	0.7773	-0.008
Mof_C 	C 	0.8862	0.449	0.7574	-0.136
Mof_H 	H 	0.8995	0.4382	0.7357	0.074
Mof_C 	C 	0.9461	0.4868	0.76439	0.071
Mof_C 	C 	0.9196	0.5017	0.7975	-0.136
Mof_H 	H 	0.9544	0.5271	0.8031	0.074
Mof_C 	C 	0.8418	0.4785	0.8214	0.077
Mof_H 	H 	0.8263	0.4885	0.8432	-0.015
Mof_N 	N 	0.7869	0.44167	0.81451	-0.238
Mof_O 	O 	0.3281	0.61582	0.67318	-0.432
Mof_O 	O 	0.3304	0.56559	0.63569	-0.429
Mof_Cu	Cu	0.70497	0.90618	0.35066	0.886
Mof_C 	C 	0.2919	0.081	0.16421	0.351
Mof_C 	C 	0.1425	0.0188	0.1809	0.019
Mof_H 	H 	0.159	0.0088	0.1591	0.034
Mof_C 	C 	0.0584	0.9962	0.2053	-0.091
Mof_H 	H 	0.0183	0.9714	0.1996	0.056
Mof_C 	C 	0.0341	0.0109	0.23826	0.025
Mof_C 	C 	0.0975	0.0482	0.24656	-0.09
Mof_H 	H 	0.0844	0.058	0.2686	0.056
Mof_C 	C 	0.1802	0.0709	0.222	0.026
Mof_H 	H 	0.2205	0.0958	0.2276	0.034
Mof_C 	C 	0.2019	0.0563	0.1895	-0.109
Mof_C 	C 	0.8076	0.9279	0.28257	0.076
Mof_H 	H 	0.7666	0.903	0.2773	-0.008
Mof_C 	C 	0.8862	0.949	0.2574	-0.136
Mof_H 	H 	0.8995	0.9382	0.2357	0.074
Mof_C 	C 	0.9461	0.9868	0.26439	0.071
Mof_C 	C 	0.9196	0.0017	0.2975	-0.136
Mof_H 	H 	0.9544	0.0271	0.3031	0.074
Mof_C 	C 	0.8418	0.9785	0.3214	0.077
Mof_H 	H 	0.8263	0.9885	0.3432	-0.015
Mof_N 	N 	0.7869	0.94167	0.31451	-0.238
Mof_O 	O 	0.3281	0.11582	0.17318	-0.433
Mof_O 	O 	0.3304	0.06559	0.13569	-0.429
Mof_Cu	Cu	0.54503	0.34382	0.35066	0.886
Mof_C 	C 	0.9581	0.169	0.16421	0.353
Mof_C 	C 	0.1075	0.2312	0.1809	0.022
Mof_H 	H 	0.091	0.2412	0.1591	0.033
Mof_C 	C 	0.1916	0.2538	0.2053	-0.094
Mof_H 	H 	0.2317	0.2786	0.1996	0.058
Mof_C 	C 	0.2159	0.2391	0.23826	0.03
Mof_C 	C 	0.1525	0.2018	0.24656	-0.094
Mof_H 	H 	0.1656	0.192	0.2686	0.058
Mof_C 	C 	0.0698	0.1791	0.222	0.029
Mof_H 	H 	0.0295	0.1542	0.2276	0.032
Mof_C 	C 	0.0481	0.1937	0.1895	-0.112
Mof_C 	C 	0.4424	0.3221	0.28257	0.074
Mof_H 	H 	0.4834	0.347	0.2773	-0.008
Mof_C 	C 	0.3638	0.301	0.2574	-0.134
Mof_H 	H 	0.3505	0.3118	0.2357	0.072
Mof_C 	C 	0.3039	0.2632	0.26439	0.067
Mof_C 	C 	0.3304	0.2483	0.2975	-0.133
Mof_H 	H 	0.2956	0.2229	0.3031	0.072
Mof_C 	C 	0.4082	0.2715	0.3214	0.075
Mof_H 	H 	0.4237	0.2615	0.3432	-0.014
Mof_N 	N 	0.4631	0.30833	0.31451	-0.238
Mof_O 	O 	0.9219	0.13418	0.17318	-0.432
Mof_O 	O 	0.9196	0.18441	0.13569	-0.429
Mof_Cu	Cu	0.54503	0.84382	0.85066	0.886
Mof_C 	C 	0.9581	0.669	0.66421	0.353
Mof_C 	C 	0.1075	0.7312	0.6809	0.022
Mof_H 	H 	0.091	0.7412	0.6591	0.033
Mof_C 	C 	0.1916	0.7538	0.7053	-0.094
Mof_H 	H 	0.2317	0.7786	0.6996	0.058
Mof_C 	C 	0.2159	0.7391	0.73826	0.03
Mof_C 	C 	0.1525	0.7018	0.74656	-0.094
Mof_H 	H 	0.1656	0.692	0.7686	0.058
Mof_C 	C 	0.0698	0.6791	0.722	0.029
Mof_H 	H 	0.0295	0.6542	0.7276	0.032
Mof_C 	C 	0.0481	0.6937	0.6895	-0.112
Mof_C 	C 	0.4424	0.8221	0.78257	0.074
Mof_H 	H 	0.4834	0.847	0.7773	-0.008
Mof_C 	C 	0.3638	0.801	0.7574	-0.134
Mof_H 	H 	0.3505	0.8118	0.7357	0.072
Mof_C 	C 	0.3039	0.7632	0.76439	0.067
Mof_C 	C 	0.3304	0.7483	0.7975	-0.133
Mof_H 	H 	0.2956	0.7229	0.8031	0.072
Mof_C 	C 	0.4082	0.7715	0.8214	0.075
Mof_H 	H 	0.4237	0.7615	0.8432	-0.014
Mof_N 	N 	0.4631	0.80833	0.81451	-0.238
Mof_O 	O 	0.9219	0.63418	0.67318	-0.432
Mof_O 	O 	0.9196	0.68441	0.63569	-0.429
Mof_Cu	Cu	0.04503	0.34382	0.85066	0.885
Mof_C 	C 	0.4581	0.169	0.66421	0.352
Mof_C 	C 	0.6075	0.2312	0.6809	0.021
Mof_H 	H 	0.591	0.2412	0.6591	0.033
Mof_C 	C 	0.6916	0.2538	0.7053	-0.093
Mof_H 	H 	0.7317	0.2786	0.6996	0.058
Mof_C 	C 	0.7159	0.2391	0.73826	0.029
Mof_C 	C 	0.6525	0.2018	0.74656	-0.093
Mof_H 	H 	0.6656	0.192	0.7686	0.058
Mof_C 	C 	0.5698	0.1791	0.722	0.028
Mof_H 	H 	0.5295	0.1542	0.7276	0.033
Mof_C 	C 	0.5481	0.1937	0.6895	-0.11
Mof_C 	C 	0.9424	0.3221	0.78257	0.074
Mof_H 	H 	0.9834	0.347	0.7773	-0.007
Mof_C 	C 	0.8638	0.301	0.7574	-0.134
Mof_H 	H 	0.8505	0.3118	0.7357	0.072
Mof_C 	C 	0.8039	0.2632	0.76439	0.067
Mof_C 	C 	0.8304	0.2483	0.7975	-0.133
Mof_H 	H 	0.7956	0.2229	0.8031	0.072
Mof_C 	C 	0.9082	0.2715	0.8214	0.075
Mof_H 	H 	0.9237	0.2615	0.8432	-0.014
Mof_N 	N 	0.9631	0.30833	0.81451	-0.237
Mof_O 	O 	0.4219	0.13418	0.67318	-0.432
Mof_O 	O 	0.4196	0.18441	0.63569	-0.429
Mof_Cu	Cu	0.04503	0.84382	0.35066	0.885
Mof_C 	C 	0.4581	0.669	0.16421	0.352
Mof_C 	C 	0.6075	0.7312	0.1809	0.021
Mof_H 	H 	0.591	0.7412	0.1591	0.033
Mof_C 	C 	0.6916	0.7538	0.2053	-0.093
Mof_H 	H 	0.7317	0.7786	0.1996	0.058
Mof_C 	C 	0.7159	0.7391	0.23826	0.029
Mof_C 	C 	0.6525	0.7018	0.24656	-0.093
Mof_H 	H 	0.6656	0.692	0.2686	0.058
Mof_C 	C 	0.5698	0.6791	0.222	0.028
Mof_H 	H 	0.5295	0.6542	0.2276	0.033
Mof_C 	C 	0.5481	0.6937	0.1895	-0.11
Mof_C 	C 	0.9424	0.8221	0.28257	0.074
Mof_H 	H 	0.9834	0.847	0.2773	-0.007
Mof_C 	C 	0.8638	0.801	0.2574	-0.134
Mof_H 	H 	0.8505	0.8118	0.2357	0.072
Mof_C 	C 	0.8039	0.7632	0.26439	0.067
Mof_C 	C 	0.8304	0.7483	0.2975	-0.133
Mof_H 	H 	0.7956	0.7229	0.3031	0.072
Mof_C 	C 	0.9082	0.7715	0.3214	0.075
Mof_H 	H 	0.9237	0.7615	0.3432	-0.014
Mof_N 	N 	0.9631	0.80833	0.31451	-0.237
Mof_O 	O 	0.4219	0.63418	0.17318	-0.432
Mof_O 	O 	0.4196	0.68441	0.13569	-0.429
Mof_Cu	Cu	0.54503	0.40618	0.39934	0.886
Mof_C 	C 	0.9581	0.581	0.58579	0.353
Mof_C 	C 	0.1075	0.5188	0.5691	0.022
Mof_H 	H 	0.091	0.5088	0.5909	0.033
Mof_C 	C 	0.1916	0.4962	0.5447	-0.094
Mof_H 	H 	0.2317	0.4714	0.5504	0.058
Mof_C 	C 	0.2159	0.5109	0.51174	0.03
Mof_C 	C 	0.1525	0.5482	0.50344	-0.094
Mof_H 	H 	0.1656	0.558	0.4814	0.058
Mof_C 	C 	0.0698	0.5709	0.528	0.029
Mof_H 	H 	0.0295	0.5958	0.5224	0.032
Mof_C 	C 	0.0481	0.5563	0.5605	-0.112
Mof_C 	C 	0.4424	0.4279	0.46743	0.074
Mof_H 	H 	0.4834	0.403	0.4727	-0.008
Mof_C 	C 	0.3638	0.449	0.4926	-0.134
Mof_H 	H 	0.3505	0.4382	0.5143	0.072
Mof_C 	C 	0.3039	0.4868	0.48561	0.067
Mof_C 	C 	0.3304	0.5017	0.4525	-0.133
Mof_H 	H 	0.2956	0.5271	0.4469	0.072
Mof_C 	C 	0.4082	0.4785	0.4286	0.075
Mof_H 	H 	0.4237	0.4885	0.4068	-0.014
Mof_N 	N 	0.4631	0.44167	0.43549	-0.238
Mof_O 	O 	0.9219	0.61582	0.57682	-0.432
Mof_O 	O 	0.9196	0.56559	0.61431	-0.429
Mof_Cu	Cu	0.54503	0.90618	0.89934	0.886
Mof_C 	C 	0.9581	0.081	0.08579	0.353
Mof_C 	C 	0.1075	0.0188	0.0691	0.023
Mof_H 	H 	0.091	0.0088	0.0909	0.033
Mof_C 	C 	0.1916	0.9962	0.0447	-0.094
Mof_H 	H 	0.2317	0.9714	0.0504	0.058
Mof_C 	C 	0.2159	0.0109	0.01174	0.03
Mof_C 	C 	0.1525	0.0482	0.00344	-0.094
Mof_H 	H 	0.1656	0.058	0.9814	0.058
Mof_C 	C 	0.0698	0.0709	0.028	0.029
Mof_H 	H 	0.0295	0.0958	0.0224	0.032
Mof_C 	C 	0.0481	0.0563	0.0605	-0.112
Mof_C 	C 	0.4424	0.9279	0.96743	0.074
Mof_H 	H 	0.4834	0.903	0.9727	-0.008
Mof_C 	C 	0.3638	0.949	0.9926	-0.134
Mof_H 	H 	0.3505	0.9382	0.0143	0.072
Mof_C 	C 	0.3039	0.9868	0.98561	0.066
Mof_C 	C 	0.3304	0.0017	0.9525	-0.133
Mof_H 	H 	0.2956	0.0271	0.9469	0.072
Mof_C 	C 	0.4082	0.9785	0.9286	0.075
Mof_H 	H 	0.4237	0.9885	0.9068	-0.014
Mof_N 	N 	0.4631	0.94167	0.93549	-0.238
Mof_O 	O 	0.9219	0.11582	0.07682	-0.432
Mof_O 	O 	0.9196	0.06559	0.11431	-0.429
Mof_Cu	Cu	0.04503	0.40618	0.89934	0.885
Mof_C 	C 	0.4581	0.581	0.08579	0.352
Mof_C 	C 	0.6075	0.5188	0.0691	0.021
Mof_H 	H 	0.591	0.5088	0.0909	0.033
Mof_C 	C 	0.6916	0.4962	0.0447	-0.093
Mof_H 	H 	0.7317	0.4714	0.0504	0.058
Mof_C 	C 	0.7159	0.5109	0.01174	0.029
Mof_C 	C 	0.6525	0.5482	0.00344	-0.093
Mof_H 	H 	0.6656	0.558	0.9814	0.058
Mof_C 	C 	0.5698	0.5709	0.028	0.028
Mof_H 	H 	0.5295	0.5958	0.0224	0.033
Mof_C 	C 	0.5481	0.5563	0.0605	-0.11
Mof_C 	C 	0.9424	0.4279	0.96743	0.074
Mof_H 	H 	0.9834	0.403	0.9727	-0.007
Mof_C 	C 	0.8638	0.449	0.9926	-0.134
Mof_H 	H 	0.8505	0.4382	0.0143	0.072
Mof_C 	C 	0.8039	0.4868	0.98561	0.067
Mof_C 	C 	0.8304	0.5017	0.9525	-0.133
Mof_H 	H 	0.7956	0.5271	0.9469	0.072
Mof_C 	C 	0.9082	0.4785	0.9286	0.075
Mof_H 	H 	0.9237	0.4885	0.9068	-0.014
Mof_N 	N 	0.9631	0.44167	0.93549	-0.237
Mof_O 	O 	0.4219	0.61582	0.07682	-0.432
Mof_O 	O 	0.4196	0.56559	0.11431	-0.429
Mof_Cu	Cu	0.04503	0.90618	0.39934	0.885
Mof_C 	C 	0.4581	0.081	0.58579	0.352
Mof_C 	C 	0.6075	0.0188	0.5691	0.021
Mof_H 	H 	0.591	0.0088	0.5909	0.033
Mof_C 	C 	0.6916	0.9962	0.5447	-0.093
Mof_H 	H 	0.7317	0.9714	0.5504	0.058
Mof_C 	C 	0.7159	0.0109	0.51174	0.029
Mof_C 	C 	0.6525	0.0482	0.50344	-0.093
Mof_H 	H 	0.6656	0.058	0.4814	0.058
Mof_C 	C 	0.5698	0.0709	0.528	0.028
Mof_H 	H 	0.5295	0.0958	0.5224	0.033
Mof_C 	C 	0.5481	0.0563	0.5605	-0.11
Mof_C 	C 	0.9424	0.9279	0.46743	0.074
Mof_H 	H 	0.9834	0.903	0.4727	-0.007
Mof_C 	C 	0.8638	0.949	0.4926	-0.134
Mof_H 	H 	0.8505	0.9382	0.5143	0.072
Mof_C 	C 	0.8039	0.9868	0.48561	0.067
Mof_C 	C 	0.8304	0.0017	0.4525	-0.134
Mof_H 	H 	0.7956	0.0271	0.4469	0.073
Mof_C 	C 	0.9082	0.9785	0.4286	0.075
Mof_H 	H 	0.9237	0.9885	0.4068	-0.014
Mof_N 	N 	0.9631	0.94167	0.43549	-0.237
Mof_O 	O 	0.4219	0.11582	0.57682	-0.432
Mof_O 	O 	0.4196	0.06559	0.61431	-0.429
Mof_Cu	Cu	0.20497	0.34382	0.39934	0.886
Mof_C 	C 	0.7919	0.169	0.58579	0.352
Mof_C 	C 	0.6425	0.2312	0.5691	0.021
Mof_H 	H 	0.659	0.2412	0.5909	0.033
Mof_C 	C 	0.5584	0.2538	0.5447	-0.093
Mof_H 	H 	0.5183	0.2786	0.5504	0.058
Mof_C 	C 	0.5341	0.2391	0.51174	0.029
Mof_C 	C 	0.5975	0.2018	0.50344	-0.093
Mof_H 	H 	0.5844	0.192	0.4814	0.058
Mof_C 	C 	0.6802	0.1791	0.528	0.028
Mof_H 	H 	0.7205	0.1542	0.5224	0.033
Mof_C 	C 	0.7019	0.1937	0.5605	-0.111
Mof_C 	C 	0.3076	0.3221	0.46743	0.074
Mof_H 	H 	0.2666	0.347	0.4727	-0.008
Mof_C 	C 	0.3862	0.301	0.4926	-0.134
Mof_H 	H 	0.3995	0.3118	0.5143	0.072
Mof_C 	C 	0.4461	0.2632	0.48561	0.067
Mof_C 	C 	0.4196	0.2483	0.4525	-0.133
Mof_H 	H 	0.4544	0.2229	0.4469	0.072
Mof_C 	C 	0.3418	0.2715	0.4286	0.075
Mof_H 	H 	0.3263	0.2615	0.4068	-0.014
Mof_N 	N 	0.2869	0.30833	0.43549	-0.238
Mof_O 	O 	0.8281	0.13418	0.57682	-0.433
Mof_O 	O 	0.8304	0.18441	0.61431	-0.429
Mof_Cu	Cu	0.20497	0.84382	0.89934	0.886
Mof_C 	C 	0.7919	0.669	0.08579	0.352
Mof_C 	C 	0.6425	0.7312	0.0691	0.021
Mof_H 	H 	0.659	0.7412	0.0909	0.033
Mof_C 	C 	0.5584	0.7538	0.0447	-0.093
Mof_H 	H 	0.5183	0.7786	0.0504	0.058
Mof_C 	C 	0.5341	0.7391	0.01174	0.029
Mof_C 	C 	0.5975	0.7018	0.00344	-0.093
Mof_H 	H 	0.5844	0.692	0.9814	0.058
Mof_C 	C 	0.6802	0.6791	0.028	0.028
Mof_H 	H 	0.7205	0.6542	0.0224	0.033
Mof_C 	C 	0.7019	0.6937	0.0605	-0.111
Mof_C 	C 	0.3076	0.8221	0.96743	0.074
Mof_H 	H 	0.2666	0.847	0.9727	-0.008
Mof_C 	C 	0.3862	0.801	0.9926	-0.134
Mof_H 	H 	0.3995	0.8118	0.0143	0.072
Mof_C 	C 	0.4461	0.7632	0.98561	0.067
Mof_C 	C 	0.4196	0.7483	0.9525	-0.133
Mof_H 	H 	0.4544	0.7229	0.9469	0.072
Mof_C 	C 	0.3418	0.7715	0.9286	0.075
Mof_H 	H 	0.3263	0.7615	0.9068	-0.014
Mof_N 	N 	0.2869	0.80833	0.93549	-0.238
Mof_O 	O 	0.8281	0.63418	0.07682	-0.433
Mof_O 	O 	0.8304	0.68441	0.11431	-0.429
Mof_Cu	Cu	0.70497	0.34382	0.89934	0.886
Mof_C 	C 	0.2919	0.169	0.08579	0.351
Mof_C 	C 	0.1425	0.2312	0.0691	0.019
Mof_H 	H 	0.159	0.2412	0.0909	0.034
Mof_C 	C 	0.0584	0.2538	0.0447	-0.091
Mof_H 	H 	0.0183	0.2786	0.0504	0.056
Mof_C 	C 	0.0341	0.2391	0.01174	0.025
Mof_C 	C 	0.0975	0.2018	0.00344	-0.09
Mof_H 	H 	0.0844	0.192	0.9814	0.056
Mof_C 	C 	0.1802	0.1791	0.028	0.026
Mof_H 	H 	0.2205	0.1542	0.0224	0.034
Mof_C 	C 	0.2019	0.1937	0.0605	-0.109
Mof_C 	C 	0.8076	0.3221	0.96743	0.076
Mof_H 	H 	0.7666	0.347	0.9727	-0.008
Mof_C 	C 	0.8862	0.301	0.9926	-0.136
Mof_H 	H 	0.8995	0.3118	0.0143	0.074
Mof_C 	C 	0.9461	0.2632	0.98561	0.071
Mof_C 	C 	0.9196	0.2483	0.9525	-0.136
Mof_H 	H 	0.9544	0.2229	0.9469	0.074
Mof_C 	C 	0.8418	0.2715	0.9286	0.077
Mof_H 	H 	0.8263	0.2615	0.9068	-0.015
Mof_N 	N 	0.7869	0.30833	0.93549	-0.238
Mof_O 	O 	0.3281	0.13418	0.07682	-0.432
Mof_O 	O 	0.3304	0.18441	0.11431	-0.429
Mof_Cu	Cu	0.70497	0.84382	0.39934	0.886
Mof_C 	C 	0.2919	0.669	0.58579	0.351
Mof_C 	C 	0.1425	0.7312	0.5691	0.019
Mof_H 	H 	0.159	0.7412	0.5909	0.034
Mof_C 	C 	0.0584	0.7538	0.5447	-0.091
Mof_H 	H 	0.0183	0.7786	0.5504	0.056
Mof_C 	C 	0.0341	0.7391	0.51174	0.025
Mof_C 	C 	0.0975	0.7018	0.50344	-0.09
Mof_H 	H 	0.0844	0.692	0.4814	0.056
Mof_C 	C 	0.1802	0.6791	0.528	0.026
Mof_H 	H 	0.2205	0.6542	0.5224	0.034
Mof_C 	C 	0.2019	0.6937	0.5605	-0.109
Mof_C 	C 	0.8076	0.8221	0.46743	0.076
Mof_H 	H 	0.7666	0.847	0.4727	-0.008
Mof_C 	C 	0.8862	0.801	0.4926	-0.136
Mof_H 	H 	0.8995	0.8118	0.5143	0.074
Mof_C 	C 	0.9461	0.7632	0.48561	0.071
Mof_C 	C 	0.9196	0.7483	0.4525	-0.136
Mof_H 	H 	0.9544	0.7229	0.4469	0.074
Mof_C 	C 	0.8418	0.7715	0.4286	0.077
Mof_H 	H 	0.8263	0.7615	0.4068	-0.015
Mof_N 	N 	0.7869	0.80833	0.43549	-0.238
Mof_O 	O 	0.3281	0.63418	0.57682	-0.432
Mof_O 	O 	0.3304	0.68441	0.61431	-0.429
Mof_Cu	Cu	0.79503	0.59382	0.64934	0.886
Mof_C 	C 	0.2081	0.419	0.83579	0.352
Mof_C 	C 	0.3575	0.4812	0.8191	0.021
Mof_H 	H 	0.341	0.4912	0.8409	0.033
Mof_C 	C 	0.4416	0.5038	0.7947	-0.093
Mof_H 	H 	0.4817	0.5286	0.8004	0.058
Mof_C 	C 	0.4659	0.4891	0.76174	0.029
Mof_C 	C 	0.4025	0.4518	0.75344	-0.093
Mof_H 	H 	0.4156	0.442	0.7314	0.058
Mof_C 	C 	0.3198	0.4291	0.778	0.028
Mof_H 	H 	0.2795	0.4042	0.7724	0.033
Mof_C 	C 	0.2981	0.4437	0.8105	-0.111
Mof_C 	C 	0.6924	0.5721	0.71743	0.074
Mof_H 	H 	0.7334	0.597	0.7227	-0.008
Mof_C 	C 	0.6138	0.551	0.7426	-0.134
Mof_H 	H 	0.6005	0.5618	0.7643	0.072
Mof_C 	C 	0.5539	0.5132	0.73561	0.067
Mof_C 	C 	0.5804	0.4983	0.7025	-0.133
Mof_H 	H 	0.5456	0.4729	0.6969	0.072
Mof_C 	C 	0.6582	0.5215	0.6786	0.075
Mof_H 	H 	0.6737	0.5115	0.6568	-0.014
Mof_N 	N 	0.7131	0.55833	0.68549	-0.238
Mof_O 	O 	0.1719	0.38418	0.82682	-0.433
Mof_O 	O 	0.1696	0.43441	0.86431	-0.429
Mof_Cu	Cu	0.79503	0.09382	0.14934	0.886
Mof_C 	C 	0.2081	0.919	0.33579	0.352
Mof_C 	C 	0.3575	0.9812	0.3191	0.021
Mof_H 	H 	0.341	0.9912	0.3409	0.033
Mof_C 	C 	0.4416	0.0038	0.2947	-0.093
Mof_H 	H 	0.4817	0.0286	0.3004	0.058
Mof_C 	C 	0.4659	0.9891	0.26174	0.029
Mof_C 	C 	0.4025	0.9518	0.25344	-0.093
Mof_H 	H 	0.4156	0.942	0.2314	0.058
Mof_C 	C 	0.3198	0.9291	0.278	0.028
Mof_H 	H 	0.2795	0.9042	0.2724	0.033
Mof_C 	C 	0.2981	0.9437	0.3105	-0.111
Mof_C 	C 	0.6924	0.0721	0.21743	0.074
Mof_H 	H 	0.7334	0.097	0.2227	-0.008
Mof_C 	C 	0.6138	0.051	0.2426	-0.134
Mof_H 	H 	0.6005	0.0618	0.2643	0.072
Mof_C 	C 	0.5539	0.0132	0.23561	0.067
Mof_C 	C 	0.5804	0.9983	0.2025	-0.133
Mof_H 	H 	0.5456	0.9729	0.1969	0.072
Mof_C 	C 	0.6582	0.0215	0.1786	0.075
Mof_H 	H 	0.6737	0.0115	0.1568	-0.014
Mof_N 	N 	0.7131	0.05833	0.18549	-0.238
Mof_O 	O 	0.1719	0.88418	0.32682	-0.433
Mof_O 	O 	0.1696	0.93441	0.36431	-0.429
Mof_Cu	Cu	0.29503	0.59382	0.14934	0.886
Mof_C 	C 	0.7081	0.419	0.33579	0.351
Mof_C 	C 	0.8575	0.4812	0.3191	0.019
Mof_H 	H 	0.841	0.4912	0.3409	0.034
Mof_C 	C 	0.9416	0.5038	0.2947	-0.091
Mof_H 	H 	0.9817	0.5286	0.3004	0.056
Mof_C 	C 	0.9659	0.4891	0.26174	0.025
Mof_C 	C 	0.9025	0.4518	0.25344	-0.09
Mof_H 	H 	0.9156	0.442	0.2314	0.056
Mof_C 	C 	0.8198	0.4291	0.278	0.026
Mof_H 	H 	0.7795	0.4042	0.2724	0.034
Mof_C 	C 	0.7981	0.4437	0.3105	-0.109
Mof_C 	C 	0.1924	0.5721	0.21743	0.076
Mof_H 	H 	0.2334	0.597	0.2227	-0.008
Mof_C 	C 	0.1138	0.551	0.2426	-0.136
Mof_H 	H 	0.1005	0.5618	0.2643	0.074
Mof_C 	C 	0.0539	0.5132	0.23561	0.071
Mof_C 	C 	0.0804	0.4983	0.2025	-0.136
Mof_H 	H 	0.0456	0.4729	0.1969	0.074
Mof_C 	C 	0.1582	0.5215	0.1786	0.077
Mof_H 	H 	0.1737	0.5115	0.1568	-0.015
Mof_N 	N 	0.2131	0.55833	0.18549	-0.238
Mof_O 	O 	0.6719	0.38418	0.32682	-0.432
Mof_O 	O 	0.6696	0.43441	0.36431	-0.429
Mof_Cu	Cu	0.29503	0.09382	0.64934	0.886
Mof_C 	C 	0.7081	0.919	0.83579	0.351
Mof_C 	C 	0.8575	0.9812	0.8191	0.019
Mof_H 	H 	0.841	0.9912	0.8409	0.034
Mof_C 	C 	0.9416	0.0038	0.7947	-0.091
Mof_H 	H 	0.9817	0.0286	0.8004	0.056
Mof_C 	C 	0.9659	0.9891	0.76174	0.025
Mof_C 	C 	0.9025	0.9518	0.75344	-0.09
Mof_H 	H 	0.9156	0.942	0.7314	0.056
Mof_C 	C 	0.8198	0.9291	0.778	0.026
Mof_H 	H 	0.7795	0.9042	0.7724	0.034
Mof_C 	C 	0.7981	0.9437	0.8105	-0.109
Mof_C 	C 	0.1924	0.0721	0.71743	0.076
Mof_H 	H 	0.2334	0.097	0.7227	-0.008
Mof_C 	C 	0.1138	0.051	0.7426	-0.136
Mof_H 	H 	0.1005	0.0618	0.7643	0.074
Mof_C 	C 	0.0539	0.0132	0.73561	0.071
Mof_C 	C 	0.0804	0.9983	0.7025	-0.136
Mof_H 	H 	0.0456	0.9729	0.6969	0.074
Mof_C 	C 	0.1582	0.0215	0.6786	0.077
Mof_H 	H 	0.1737	0.0115	0.6568	-0.015
Mof_N 	N 	0.2131	0.05833	0.68549	-0.238
Mof_O 	O 	0.6719	0.88418	0.82682	-0.433
Mof_O 	O 	0.6696	0.93441	0.86431	-0.429
Mof_Cu	Cu	0.45497	0.65618	0.64934	0.886
Mof_C 	C 	0.0419	0.831	0.83579	0.353
Mof_C 	C 	0.8925	0.7688	0.8191	0.022
Mof_H 	H 	0.909	0.7588	0.8409	0.033
Mof_C 	C 	0.8084	0.7462	0.7947	-0.094
Mof_H 	H 	0.7683	0.7214	0.8004	0.058
Mof_C 	C 	0.7841	0.7609	0.76174	0.03
Mof_C 	C 	0.8475	0.7982	0.75344	-0.094
Mof_H 	H 	0.8344	0.808	0.7314	0.058
Mof_C 	C 	0.9302	0.8209	0.778	0.029
Mof_H 	H 	0.9705	0.8458	0.7724	0.032
Mof_C 	C 	0.9519	0.8063	0.8105	-0.112
Mof_C 	C 	0.5576	0.6779	0.71743	0.074
Mof_H 	H 	0.5166	0.653	0.7227	-0.008
Mof_C 	C 	0.6362	0.699	0.7426	-0.134
Mof_H 	H 	0.6495	0.6882	0.7643	0.072
Mof_C 	C 	0.6961	0.7368	0.73561	0.067
Mof_C 	C 	0.6696	0.7517	0.7025	-0.133
Mof_H 	H 	0.7044	0.7771	0.6969	0.072
Mof_C 	C 	0.5918	0.7285	0.6786	0.075
Mof_H 	H 	0.5763	0.7385	0.6568	-0.014
Mof_N 	N 	0.5369	0.69167	0.68549	-0.238
Mof_O 	O 	0.0781	0.86582	0.82682	-0.432
Mof_O 	O 	0.0804	0.81559	0.86431	-0.429
Mof_Cu	Cu	0.45497	0.15618	0.14934	0.886
Mof_C 	C 	0.0419	0.331	0.33579	0.353
Mof_C 	C 	0.8925	0.2688	0.3191	0.022
Mof_H 	H 	0.909	0.2588	0.3409	0.033
Mof_C 	C 	0.8084	0.2462	0.2947	-0.094
Mof_H 	H 	0.7683	0.2214	0.3004	0.058
Mof_C 	C 	0.7841	0.2609	0.26174	0.03
Mof_C 	C 	0.8475	0.2982	0.25344	-0.094
Mof_H 	H 	0.8344	0.308	0.2314	0.058
Mof_C 	C 	0.9302	0.3209	0.278	0.029
Mof_H 	H 	0.9705	0.3458	0.2724	0.032
Mof_C 	C 	0.9519	0.3063	0.3105	-0.112
Mof_C 	C 	0.5576	0.1779	0.21743	0.074
Mof_H 	H 	0.5166	0.153	0.2227	-0.008
Mof_C 	C 	0.6362	0.199	0.2426	-0.134
Mof_H 	H 	0.6495	0.1882	0.2643	0.072
Mof_C 	C 	0.6961	0.2368	0.23561	0.067
Mof_C 	C 	0.6696	0.2517	0.2025	-0.133
Mof_H 	H 	0.7044	0.2771	0.1969	0.072
Mof_C 	C 	0.5918	0.2285	0.1786	0.075
Mof_H 	H 	0.5763	0.2385	0.1568	-0.014
Mof_N 	N 	0.5369	0.19167	0.18549	-0.238
Mof_O 	O 	0.0781	0.36582	0.32682	-0.432
Mof_O 	O 	0.0804	0.31559	0.36431	-0.429
Mof_Cu	Cu	0.95497	0.65618	0.14934	0.885
Mof_C 	C 	0.5419	0.831	0.33579	0.352
Mof_C 	C 	0.3925	0.7688	0.3191	0.021
Mof_H 	H 	0.409	0.7588	0.3409	0.033
Mof_C 	C 	0.3084	0.7462	0.2947	-0.093
Mof_H 	H 	0.2683	0.7214	0.3004	0.058
Mof_C 	C 	0.2841	0.7609	0.26174	0.029
Mof_C 	C 	0.3475	0.7982	0.25344	-0.093
Mof_H 	H 	0.3344	0.808	0.2314	0.058
Mof_C 	C 	0.4302	0.8209	0.278	0.028
Mof_H 	H 	0.4705	0.8458	0.2724	0.033
Mof_C 	C 	0.4519	0.8063	0.3105	-0.11
Mof_C 	C 	0.0576	0.6779	0.21743	0.074
Mof_H 	H 	0.0166	0.653	0.2227	-0.007
Mof_C 	C 	0.1362	0.699	0.2426	-0.134
Mof_H 	H 	0.1495	0.6882	0.2643	0.072
Mof_C 	C 	0.1961	0.7368	0.23561	0.067
Mof_C 	C 	0.1696	0.7517	0.2025	-0.133
Mof_H 	H 	0.2044	0.7771	0.1969	0.072
Mof_C 	C 	0.0918	0.7285	0.1786	0.075
Mof_H 	H 	0.0763	0.7385	0.1568	-0.014
Mof_N 	N 	0.0369	0.69167	0.18549	-0.237
Mof_O 	O 	0.5781	0.86582	0.32682	-0.432
Mof_O 	O 	0.5804	0.81559	0.36431	-0.429
Mof_Cu	Cu	0.95497	0.15618	0.64934	0.885
Mof_C 	C 	0.5419	0.331	0.83579	0.352
Mof_C 	C 	0.3925	0.2688	0.8191	0.021
Mof_H 	H 	0.409	0.2588	0.8409	0.033
Mof_C 	C 	0.3084	0.2462	0.7947	-0.093
Mof_H 	H 	0.2683	0.2214	0.8004	0.058
Mof_C 	C 	0.2841	0.2609	0.76174	0.029
Mof_C 	C 	0.3475	0.2982	0.75344	-0.093
Mof_H 	H 	0.3344	0.308	0.7314	0.058
Mof_C 	C 	0.4302	0.3209	0.778	0.028
Mof_H 	H 	0.4705	0.3458	0.7724	0.033
Mof_C 	C 	0.4519	0.3063	0.8105	-0.11
Mof_C 	C 	0.0576	0.1779	0.71743	0.074
Mof_H 	H 	0.0166	0.153	0.7227	-0.007
Mof_C 	C 	0.1362	0.199	0.7426	-0.134
Mof_H 	H 	0.1495	0.1882	0.7643	0.072
Mof_C 	C 	0.1961	0.2368	0.73561	0.067
Mof_C 	C 	0.1696	0.2517	0.7025	-0.133
Mof_H 	H 	0.2044	0.2771	0.6969	0.072
Mof_C 	C 	0.0918	0.2285	0.6786	0.075
Mof_H 	H 	0.0763	0.2385	0.6568	-0.014
Mof_N 	N 	0.0369	0.19167	0.68549	-0.237
Mof_O 	O 	0.5781	0.36582	0.82682	-0.432
Mof_O 	O 	0.5804	0.31559	0.86431	-0.429
Mof_Cu	Cu	0.45497	0.59382	0.60066	0.886
Mof_C 	C 	0.0419	0.419	0.41421	0.353
Mof_C 	C 	0.8925	0.4812	0.4309	0.022
Mof_H 	H 	0.909	0.4912	0.4091	0.033
Mof_C 	C 	0.8084	0.5038	0.4553	-0.094
Mof_H 	H 	0.7683	0.5286	0.4496	0.058
Mof_C 	C 	0.7841	0.4891	0.48826	0.03
Mof_C 	C 	0.8475	0.4518	0.49656	-0.094
Mof_H 	H 	0.8344	0.442	0.5186	0.058
Mof_C 	C 	0.9302	0.4291	0.472	0.029
Mof_H 	H 	0.9705	0.4042	0.4776	0.032
Mof_C 	C 	0.9519	0.4437	0.4395	-0.112
Mof_C 	C 	0.5576	0.5721	0.53257	0.074
Mof_H 	H 	0.5166	0.597	0.5273	-0.008
Mof_C 	C 	0.6362	0.551	0.5074	-0.134
Mof_H 	H 	0.6495	0.5618	0.4857	0.072
Mof_C 	C 	0.6961	0.5132	0.51439	0.067
Mof_C 	C 	0.6696	0.4983	0.5475	-0.133
Mof_H 	H 	0.7044	0.4729	0.5531	0.072
Mof_C 	C 	0.5918	0.5215	0.5714	0.075
Mof_H 	H 	0.5763	0.5115	0.5932	-0.014
Mof_N 	N 	0.5369	0.55833	0.56451	-0.238
Mof_O 	O 	0.0781	0.38418	0.42318	-0.432
Mof_O 	O 	0.0804	0.43441	0.38569	-0.429
Mof_Cu	Cu	0.45497	0.09382	0.10066	0.886
Mof_C 	C 	0.0419	0.919	0.91421	0.353
Mof_C 	C 	0.8925	0.9812	0.9309	0.023
Mof_H 	H 	0.909	0.9912	0.9091	0.033
Mof_C 	C 	0.8084	0.0038	0.9553	-0.094
Mof_H 	H 	0.7683	0.0286	0.9496	0.058
Mof_C 	C 	0.7841	0.9891	0.98826	0.03
Mof_C 	C 	0.8475	0.9518	0.99656	-0.094
Mof_H 	H 	0.8344	0.942	0.0186	0.058
Mof_C 	C 	0.9302	0.9291	0.972	0.029
Mof_H 	H 	0.9705	0.9042	0.9776	0.032
Mof_C 	C 	0.9519	0.9437	0.9395	-0.112
Mof_C 	C 	0.5576	0.0721	0.03257	0.074
Mof_H 	H 	0.5166	0.097	0.0273	-0.008
Mof_C 	C 	0.6362	0.051	0.0074	-0.134
Mof_H 	H 	0.6495	0.0618	0.9857	0.072
Mof_C 	C 	0.6961	0.0132	0.01439	0.066
Mof_C 	C 	0.6696	0.9983	0.0475	-0.133
Mof_H 	H 	0.7044	0.9729	0.0531	0.072
Mof_C 	C 	0.5918	0.0215	0.0714	0.075
Mof_H 	H 	0.5763	0.0115	0.0932	-0.014
Mof_N 	N 	0.5369	0.05833	0.06451	-0.238
Mof_O 	O 	0.0781	0.88418	0.92318	-0.432
Mof_O 	O 	0.0804	0.93441	0.88569	-0.429
Mof_Cu	Cu	0.95497	0.59382	0.10066	0.885
Mof_C 	C 	0.5419	0.419	0.91421	0.352
Mof_C 	C 	0.3925	0.4812	0.9309	0.021
Mof_H 	H 	0.409	0.4912	0.9091	0.033
Mof_C 	C 	0.3084	0.5038	0.9553	-0.093
Mof_H 	H 	0.2683	0.5286	0.9496	0.058
Mof_C 	C 	0.2841	0.4891	0.98826	0.029
Mof_C 	C 	0.3475	0.4518	0.99656	-0.093
Mof_H 	H 	0.3344	0.442	0.0186	0.058
Mof_C 	C 	0.4302	0.4291	0.972	0.028
Mof_H 	H 	0.4705	0.4042	0.9776	0.033
Mof_C 	C 	0.4519	0.4437	0.9395	-0.11
Mof_C 	C 	0.0576	0.5721	0.03257	0.074
Mof_H 	H 	0.0166	0.597	0.0273	-0.007
Mof_C 	C 	0.1362	0.551	0.0074	-0.134
Mof_H 	H 	0.1495	0.5618	0.9857	0.072
Mof_C 	C 	0.1961	0.5132	0.01439	0.067
Mof_C 	C 	0.1696	0.4983	0.0475	-0.133
Mof_H 	H 	0.2044	0.4729	0.0531	0.072
Mof_C 	C 	0.0918	0.5215	0.0714	0.075
Mof_H 	H 	0.0763	0.5115	0.0932	-0.014
Mof_N 	N 	0.0369	0.55833	0.06451	-0.237
Mof_O 	O 	0.5781	0.38418	0.92318	-0.432
Mof_O 	O 	0.5804	0.43441	0.88569	-0.429
Mof_Cu	Cu	0.95497	0.09382	0.60066	0.885
Mof_C 	C 	0.5419	0.919	0.41421	0.352
Mof_C 	C 	0.3925	0.9812	0.4309	0.021
Mof_H 	H 	0.409	0.9912	0.4091	0.033
Mof_C 	C 	0.3084	0.0038	0.4553	-0.093
Mof_H 	H 	0.2683	0.0286	0.4496	0.058
Mof_C 	C 	0.2841	0.9891	0.48826	0.029
Mof_C 	C 	0.3475	0.9518	0.49656	-0.093
Mof_H 	H 	0.3344	0.942	0.5186	0.058
Mof_C 	C 	0.4302	0.9291	0.472	0.028
Mof_H 	H 	0.4705	0.9042	0.4776	0.033
Mof_C 	C 	0.4519	0.9437	0.4395	-0.11
Mof_C 	C 	0.0576	0.0721	0.53257	0.074
Mof_H 	H 	0.0166	0.097	0.5273	-0.007
Mof_C 	C 	0.1362	0.051	0.5074	-0.134
Mof_H 	H 	0.1495	0.0618	0.4857	0.072
Mof_C 	C 	0.1961	0.0132	0.51439	0.067
Mof_C 	C 	0.1696	0.9983	0.5475	-0.134
Mof_H 	H 	0.2044	0.9729	0.5531	0.073
Mof_C 	C 	0.0918	0.0215	0.5714	0.075
Mof_H 	H 	0.0763	0.0115	0.5932	-0.014
Mof_N 	N 	0.0369	0.05833	0.56451	-0.237
Mof_O 	O 	0.5781	0.88418	0.42318	-0.432
Mof_O 	O 	0.5804	0.93441	0.38569	-0.429
Mof_Cu	Cu	0.79503	0.65618	0.60066	0.886
Mof_C 	C 	0.2081	0.831	0.41421	0.352
Mof_C 	C 	0.3575	0.7688	0.4309	0.021
Mof_H 	H 	0.341	0.7588	0.4091	0.033
Mof_C 	C 	0.4416	0.7462	0.4553	-0.093
Mof_H 	H 	0.4817	0.7214	0.4496	0.058
Mof_C 	C 	0.4659	0.7609	0.48826	0.029
Mof_C 	C 	0.4025	0.7982	0.49656	-0.093
Mof_H 	H 	0.4156	0.808	0.5186	0.058
Mof_C 	C 	0.3198	0.8209	0.472	0.028
Mof_H 	H 	0.2795	0.8458	0.4776	0.033
Mof_C 	C 	0.2981	0.8063	0.4395	-0.111
Mof_C 	C 	0.6924	0.6779	0.53257	0.074
Mof_H 	H 	0.7334	0.653	0.5273	-0.008
Mof_C 	C 	0.6138	0.699	0.5074	-0.134
Mof_H 	H 	0.6005	0.6882	0.4857	0.072
Mof_C 	C 	0.5539	0.7368	0.51439	0.067
Mof_C 	C 	0.5804	0.7517	0.5475	-0.133
Mof_H 	H 	0.5456	0.7771	0.5531	0.072
Mof_C 	C 	0.6582	0.7285	0.5714	0.075
Mof_H 	H 	0.6737	0.7385	0.5932	-0.014
Mof_N 	N 	0.7131	0.69167	0.56451	-0.238
Mof_O 	O 	0.1719	0.86582	0.42318	-0.433
Mof_O 	O 	0.1696	0.81559	0.38569	-0.429
Mof_Cu	Cu	0.79503	0.15618	0.10066	0.886
Mof_C 	C 	0.2081	0.331	0.91421	0.352
Mof_C 	C 	0.3575	0.2688	0.9309	0.021
Mof_H 	H 	0.341	0.2588	0.9091	0.033
Mof_C 	C 	0.4416	0.2462	0.9553	-0.093
Mof_H 	H 	0.4817	0.2214	0.9496	0.058
Mof_C 	C 	0.4659	0.2609	0.98826	0.029
Mof_C 	C 	0.4025	0.2982	0.99656	-0.093
Mof_H 	H 	0.4156	0.308	0.0186	0.058
Mof_C 	C 	0.3198	0.3209	0.972	0.028
Mof_H 	H 	0.2795	0.3458	0.9776	0.033
Mof_C 	C 	0.2981	0.3063	0.9395	-0.111
Mof_C 	C 	0.6924	0.1779	0.03257	0.074
Mof_H 	H 	0.7334	0.153	0.0273	-0.008
Mof_C 	C 	0.6138	0.199	0.0074	-0.134
Mof_H 	H 	0.6005	0.1882	0.9857	0.072
Mof_C 	C 	0.5539	0.2368	0.01439	0.067
Mof_C 	C 	0.5804	0.2517	0.0475	-0.133
Mof_H 	H 	0.5456	0.2771	0.0531	0.072
Mof_C 	C 	0.6582	0.2285	0.0714	0.075
Mof_H 	H 	0.6737	0.2385	0.0932	-0.014
Mof_N 	N 	0.7131	0.19167	0.06451	-0.238
Mof_O 	O 	0.1719	0.36582	0.92318	-0.433
Mof_O 	O 	0.1696	0.31559	0.88569	-0.429
Mof_Cu	Cu	0.29503	0.65618	0.10066	0.886
Mof_C 	C 	0.7081	0.831	0.91421	0.351
Mof_C 	C 	0.8575	0.7688	0.9309	0.019
Mof_H 	H 	0.841	0.7588	0.9091	0.034
Mof_C 	C 	0.9416	0.7462	0.9553	-0.091
Mof_H 	H 	0.9817	0.7214	0.9496	0.056
Mof_C 	C 	0.9659	0.7609	0.98826	0.025
Mof_C 	C 	0.9025	0.7982	0.99656	-0.09
Mof_H 	H 	0.9156	0.808	0.0186	0.056
Mof_C 	C 	0.8198	0.8209	0.972	0.026
Mof_H 	H 	0.7795	0.8458	0.9776	0.034
Mof_C 	C 	0.7981	0.8063	0.9395	-0.109
Mof_C 	C 	0.1924	0.6779	0.03257	0.076
Mof_H 	H 	0.2334	0.653	0.0273	-0.008
Mof_C 	C 	0.1138	0.699	0.0074	-0.136
Mof_H 	H 	0.1005	0.6882	0.9857	0.074
Mof_C 	C 	0.0539	0.7368	0.01439	0.071
Mof_C 	C 	0.0804	0.7517	0.0475	-0.136
Mof_H 	H 	0.0456	0.7771	0.0531	0.074
Mof_C 	C 	0.1582	0.7285	0.0714	0.077
Mof_H 	H 	0.1737	0.7385	0.0932	-0.015
Mof_N 	N 	0.2131	0.69167	0.06451	-0.238
Mof_O 	O 	0.6719	0.86582	0.92318	-0.432
Mof_O 	O 	0.6696	0.81559	0.88569	-0.429
Mof_Cu	Cu	0.29503	0.15618	0.60066	0.886
Mof_C 	C 	0.7081	0.331	0.41421	0.351
Mof_C 	C 	0.8575	0.2688	0.4309	0.019
Mof_H 	H 	0.841	0.2588	0.4091	0.034
Mof_C 	C 	0.9416	0.2462	0.4553	-0.091
Mof_H 	H 	0.9817	0.2214	0.4496	0.056
Mof_C 	C 	0.9659	0.2609	0.48826	0.025
Mof_C 	C 	0.9025	0.2982	0.49656	-0.09
Mof_H 	H 	0.9156	0.308	0.5186	0.056
Mof_C 	C 	0.8198	0.3209	0.472	0.026
Mof_H 	H 	0.7795	0.3458	0.4776	0.034
Mof_C 	C 	0.7981	0.3063	0.4395	-0.109
Mof_C 	C 	0.1924	0.1779	0.53257	0.076
Mof_H 	H 	0.2334	0.153	0.5273	-0.008
Mof_C 	C 	0.1138	0.199	0.5074	-0.136
Mof_H 	H 	0.1005	0.1882	0.4857	0.074
Mof_C 	C 	0.0539	0.2368	0.51439	0.071
Mof_C 	C 	0.0804	0.2517	0.5475	-0.136
Mof_H 	H 	0.0456	0.2771	0.5531	0.074
Mof_C 	C 	0.1582	0.2285	0.5714	0.077
Mof_H 	H 	0.1737	0.2385	0.5932	-0.015
Mof_N 	N 	0.2131	0.19167	0.56451	-0.238
Mof_O 	O 	0.6719	0.36582	0.42318	-0.432
Mof_O 	O 	0.6696	0.31559	0.38569	-0.429
Mof_O 	O 	0.375	0.375	0.375	-0.693
Mof_O 	O 	0.375	0.875	0.875	-0.693
Mof_O 	O 	0.875	0.375	0.875	-0.692
Mof_O 	O 	0.875	0.875	0.375	-0.692
Mof_O 	O 	0.625	0.625	0.625	-0.693
Mof_O 	O 	0.625	0.125	0.125	-0.693
Mof_O 	O 	0.125	0.625	0.125	-0.692
Mof_O 	O 	0.125	0.125	0.625	-0.692
_end
