# CIF file generated by openbabel 3.1.0, see https://openbabel.org
data_I
_chemical_name_common 'image0'
_cell_length_a 18.378
_cell_length_b 11.4146
_cell_length_c 18.8736
_cell_angle_alpha 90
_cell_angle_beta 108.426
_cell_angle_gamma 90
_space_group_name_H-M_alt 'P 1'
_space_group_name_Hall 'P 1'
loop_
    _symmetry_equiv_pos_as_xyz
    x,y,z
loop_
    _atom_site_label
    _atom_site_type_symbol
    _atom_site_fract_x
    _atom_site_fract_y
    _atom_site_fract_z
    _atom_site_occupancy
    Dy1      Dy       0.00090    0.93449    0.39795    1.000
    O1       O        0.92330    0.10040    0.38820    1.000
    O2       O        0.90340    0.81140    0.41820    1.000
    O3       O        0.58730    0.47640    0.33580    1.000
    O4       O        0.92100    0.92850    0.51410    1.000
    O5       O        0.92450    0.17340    0.49810    1.000
    O6       O        0.58910    0.42880    0.22190    1.000
    N1       N        0.83300    0.20880    0.26130    1.000
    C1       C        0.89760    0.16710    0.42790    1.000
    C2       C        0.83060    0.24460    0.39020    1.000
    C3       C        0.80070    0.25560    0.31090    1.000
    C4       C        0.73250    0.31880    0.28090    1.000
    H1       H        0.71170    0.32730    0.22830    1.000
    C5       C        0.79340    0.30000    0.43440    1.000
    H2       H        0.81460    0.29530    0.48720    1.000
    C6       C        0.72670    0.36160    0.40340    1.000
    H3       H        0.70230    0.39900    0.43480    1.000
    C7       C        0.88430    0.84830    0.47300    1.000
    C8       C        0.81500    0.79540    0.48690    1.000
    C9       C        0.77560    0.70110    0.44340    1.000
    C10      C        0.79000    0.84120    0.54340    1.000
    H4       H        0.81830    0.90280    0.57360    1.000
    C11      C        0.61880    0.42910    0.29180    1.000
    C12      C        0.69480    0.36920    0.32610    1.000
    N2       N        0.79700    0.64770    0.38850    1.000
    Dy2      Dy       0.50090    0.43449    0.39795    1.000
    O7       O        0.42330    0.60040    0.38820    1.000
    O8       O        0.40340    0.31140    0.41820    1.000
    O9       O        0.08730    0.97640    0.33580    1.000
    O10      O        0.42100    0.42850    0.51410    1.000
    O11      O        0.42450    0.67340    0.49810    1.000
    O12      O        0.08910    0.92880    0.22190    1.000
    N3       N        0.33300    0.70880    0.26130    1.000
    C13      C        0.39760    0.66710    0.42790    1.000
    C14      C        0.33060    0.74460    0.39020    1.000
    C15      C        0.30070    0.75560    0.31090    1.000
    C16      C        0.23250    0.81880    0.28090    1.000
    H5       H        0.21170    0.82730    0.22830    1.000
    C17      C        0.29340    0.80000    0.43440    1.000
    H6       H        0.31460    0.79530    0.48720    1.000
    C18      C        0.22670    0.86160    0.40340    1.000
    H7       H        0.20230    0.89900    0.43480    1.000
    C19      C        0.38430    0.34830    0.47300    1.000
    C20      C        0.31500    0.29540    0.48690    1.000
    C21      C        0.27560    0.20110    0.44340    1.000
    C22      C        0.29000    0.34120    0.54340    1.000
    H8       H        0.31830    0.40280    0.57360    1.000
    C23      C        0.11880    0.92910    0.29180    1.000
    C24      C        0.19480    0.86920    0.32610    1.000
    N4       N        0.29700    0.14770    0.38850    1.000
    Dy3      Dy       0.99910    0.93449    0.10205    1.000
    O13      O        0.07670    0.10040    0.11180    1.000
    O14      O        0.09660    0.81140    0.08180    1.000
    O15      O        0.41270    0.47640    0.16420    1.000
    O16      O        0.07900    0.92850    0.98590    1.000
    O17      O        0.07550    0.17340    0.00190    1.000
    O18      O        0.41090    0.42880    0.27810    1.000
    N5       N        0.16700    0.20880    0.23870    1.000
    C25      C        0.10240    0.16710    0.07210    1.000
    C26      C        0.16940    0.24460    0.10980    1.000
    C27      C        0.19930    0.25560    0.18910    1.000
    C28      C        0.26750    0.31880    0.21910    1.000
    H9       H        0.28830    0.32730    0.27170    1.000
    C29      C        0.20660    0.30000    0.06560    1.000
    H10      H        0.18540    0.29530    0.01280    1.000
    C30      C        0.27330    0.36160    0.09660    1.000
    H11      H        0.29770    0.39900    0.06520    1.000
    C31      C        0.11570    0.84830    0.02700    1.000
    C32      C        0.18500    0.79540    0.01310    1.000
    C33      C        0.22440    0.70110    0.05660    1.000
    C34      C        0.21000    0.84120    0.95660    1.000
    H12      H        0.18170    0.90280    0.92640    1.000
    C35      C        0.38120    0.42910    0.20820    1.000
    C36      C        0.30520    0.36920    0.17390    1.000
    N6       N        0.20300    0.64770    0.11150    1.000
    Dy4      Dy       0.49910    0.43449    0.10205    1.000
    O19      O        0.57670    0.60040    0.11180    1.000
    O20      O        0.59660    0.31140    0.08180    1.000
    O21      O        0.91270    0.97640    0.16420    1.000
    O22      O        0.57900    0.42850    0.98590    1.000
    O23      O        0.57550    0.67340    0.00190    1.000
    O24      O        0.91090    0.92880    0.27810    1.000
    N7       N        0.66700    0.70880    0.23870    1.000
    C37      C        0.60240    0.66710    0.07210    1.000
    C38      C        0.66940    0.74460    0.10980    1.000
    C39      C        0.69930    0.75560    0.18910    1.000
    C40      C        0.76750    0.81880    0.21910    1.000
    H13      H        0.78830    0.82730    0.27170    1.000
    C41      C        0.70660    0.80000    0.06560    1.000
    H14      H        0.68540    0.79530    0.01280    1.000
    C42      C        0.77330    0.86160    0.09660    1.000
    H15      H        0.79770    0.89900    0.06520    1.000
    C43      C        0.61570    0.34830    0.02700    1.000
    C44      C        0.68500    0.29540    0.01310    1.000
    C45      C        0.72440    0.20110    0.05660    1.000
    C46      C        0.71000    0.34120    0.95660    1.000
    H16      H        0.68170    0.40280    0.92640    1.000
    C47      C        0.88120    0.92910    0.20820    1.000
    C48      C        0.80520    0.86920    0.17390    1.000
    N8       N        0.70300    0.14770    0.11150    1.000
    Dy5      Dy       0.99910    0.06551    0.60205    1.000
    O25      O        0.07670    0.89960    0.61180    1.000
    O26      O        0.09660    0.18860    0.58180    1.000
    O27      O        0.41270    0.52360    0.66420    1.000
    O28      O        0.07900    0.07150    0.48590    1.000
    O29      O        0.07550    0.82660    0.50190    1.000
    O30      O        0.41090    0.57120    0.77810    1.000
    N9       N        0.16700    0.79120    0.73870    1.000
    C49      C        0.10240    0.83290    0.57210    1.000
    C50      C        0.16940    0.75540    0.60980    1.000
    C51      C        0.19930    0.74440    0.68910    1.000
    C52      C        0.26750    0.68120    0.71910    1.000
    H17      H        0.28830    0.67270    0.77170    1.000
    C53      C        0.20660    0.70000    0.56560    1.000
    H18      H        0.18540    0.70470    0.51280    1.000
    C54      C        0.27330    0.63840    0.59660    1.000
    H19      H        0.29770    0.60100    0.56520    1.000
    C55      C        0.11570    0.15170    0.52700    1.000
    C56      C        0.18500    0.20460    0.51310    1.000
    C57      C        0.22440    0.29890    0.55660    1.000
    C58      C        0.21000    0.15880    0.45660    1.000
    H20      H        0.18170    0.09720    0.42640    1.000
    C59      C        0.38120    0.57090    0.70820    1.000
    C60      C        0.30520    0.63080    0.67390    1.000
    N10      N        0.20300    0.35230    0.61150    1.000
    Dy6      Dy       0.49910    0.56551    0.60205    1.000
    O31      O        0.57670    0.39960    0.61180    1.000
    O32      O        0.59660    0.68860    0.58180    1.000
    O33      O        0.91270    0.02360    0.66420    1.000
    O34      O        0.57900    0.57150    0.48590    1.000
    O35      O        0.57550    0.32660    0.50190    1.000
    O36      O        0.91090    0.07120    0.77810    1.000
    N11      N        0.66700    0.29120    0.73870    1.000
    C61      C        0.60240    0.33290    0.57210    1.000
    C62      C        0.66940    0.25540    0.60980    1.000
    C63      C        0.69930    0.24440    0.68910    1.000
    C64      C        0.76750    0.18120    0.71910    1.000
    H21      H        0.78830    0.17270    0.77170    1.000
    C65      C        0.70660    0.20000    0.56560    1.000
    H22      H        0.68540    0.20470    0.51280    1.000
    C66      C        0.77330    0.13840    0.59660    1.000
    H23      H        0.79770    0.10100    0.56520    1.000
    C67      C        0.61570    0.65170    0.52700    1.000
    C68      C        0.68500    0.70460    0.51310    1.000
    C69      C        0.72440    0.79890    0.55660    1.000
    C70      C        0.71000    0.65880    0.45660    1.000
    H24      H        0.68170    0.59720    0.42640    1.000
    C71      C        0.88120    0.07090    0.70820    1.000
    C72      C        0.80520    0.13080    0.67390    1.000
    N12      N        0.70300    0.85230    0.61150    1.000
    Dy7      Dy       0.00090    0.06551    0.89795    1.000
    O37      O        0.92330    0.89960    0.88820    1.000
    O38      O        0.90340    0.18860    0.91820    1.000
    O39      O        0.58730    0.52360    0.83580    1.000
    O40      O        0.92100    0.07150    0.01410    1.000
    O41      O        0.92450    0.82660    0.99810    1.000
    O42      O        0.58910    0.57120    0.72190    1.000
    N13      N        0.83300    0.79120    0.76130    1.000
    C73      C        0.89760    0.83290    0.92790    1.000
    C74      C        0.83060    0.75540    0.89020    1.000
    C75      C        0.80070    0.74440    0.81090    1.000
    C76      C        0.73250    0.68120    0.78090    1.000
    H25      H        0.71170    0.67270    0.72830    1.000
    C77      C        0.79340    0.70000    0.93440    1.000
    H26      H        0.81460    0.70470    0.98720    1.000
    C78      C        0.72670    0.63840    0.90340    1.000
    H27      H        0.70230    0.60100    0.93480    1.000
    C79      C        0.88430    0.15170    0.97300    1.000
    C80      C        0.81500    0.20460    0.98690    1.000
    C81      C        0.77560    0.29890    0.94340    1.000
    C82      C        0.79000    0.15880    0.04340    1.000
    H28      H        0.81830    0.09720    0.07360    1.000
    C83      C        0.61880    0.57090    0.79180    1.000
    C84      C        0.69480    0.63080    0.82610    1.000
    N14      N        0.79700    0.35230    0.88850    1.000
    Dy8      Dy       0.50090    0.56551    0.89795    1.000
    O43      O        0.42330    0.39960    0.88820    1.000
    O44      O        0.40340    0.68860    0.91820    1.000
    O45      O        0.08730    0.02360    0.83580    1.000
    O46      O        0.42100    0.57150    0.01410    1.000
    O47      O        0.42450    0.32660    0.99810    1.000
    O48      O        0.08910    0.07120    0.72190    1.000
    N15      N        0.33300    0.29120    0.76130    1.000
    C85      C        0.39760    0.33290    0.92790    1.000
    C86      C        0.33060    0.25540    0.89020    1.000
    C87      C        0.30070    0.24440    0.81090    1.000
    C88      C        0.23250    0.18120    0.78090    1.000
    H29      H        0.21170    0.17270    0.72830    1.000
    C89      C        0.29340    0.20000    0.93440    1.000
    H30      H        0.31460    0.20470    0.98720    1.000
    C90      C        0.22670    0.13840    0.90340    1.000
    H31      H        0.20230    0.10100    0.93480    1.000
    C91      C        0.38430    0.65170    0.97300    1.000
    C92      C        0.31500    0.70460    0.98690    1.000
    C93      C        0.27560    0.79890    0.94340    1.000
    C94      C        0.29000    0.65880    0.04340    1.000
    H32      H        0.31830    0.59720    0.07360    1.000
    C95      C        0.11880    0.07090    0.79180    1.000
    C96      C        0.19480    0.13080    0.82610    1.000
    N16      N        0.29700    0.85230    0.88850    1.000
