# CIF file generated by openbabel 3.1.0, see https://openbabel.org
data_I
_chemical_name_common 'image0'
_cell_length_a 10.255
_cell_length_b 10.255
_cell_length_c 14.494
_cell_angle_alpha 90
_cell_angle_beta 90
_cell_angle_gamma 90
_space_group_name_H-M_alt 'P 1'
_space_group_name_Hall 'P 1'
loop_
    _symmetry_equiv_pos_as_xyz
    x,y,z
loop_
    _atom_site_label
    _atom_site_type_symbol
    _atom_site_fract_x
    _atom_site_fract_y
    _atom_site_fract_z
    _atom_site_occupancy
    Ho1      Ho       0.85022    0.84983    0.70535    1.000
    O1       O        0.93390    0.66430    0.64080    1.000
    C1       C        0.90900    0.18310    0.74060    1.000
    C2       C        0.04470    0.39360    0.50400    1.000
    H1       H        0.07560    0.43870    0.45290    1.000
    C3       C        0.08440    0.18270    0.41990    1.000
    O2       O        0.09430    0.24120    0.34430    1.000
    C4       C        0.95820    0.39380    0.65830    1.000
    H2       H        0.93040    0.43930    0.71020    1.000
    C5       C        0.00200    0.46180    0.58140    1.000
    O3       O        0.07890    0.66290    0.52510    1.000
    C6       C        0.95580    0.25950    0.65830    1.000
    O4       O        0.10820    0.06520    0.42960    1.000
    C7       C        0.04120    0.26040    0.50320    1.000
    C8       C        0.00360    0.61050    0.58290    1.000
    C9       C        0.99780    0.19170    0.57970    1.000
    H3       H        0.99660    0.10100    0.57890    1.000
    O5       O        0.90530    0.23880    0.81620    1.000
    O6       O        0.87980    0.06790    0.72970    1.000
    Ho2      Ho       0.14978    0.15017    0.20535    1.000
    O7       O        0.06610    0.33570    0.14080    1.000
    C10      C        0.09100    0.81690    0.24060    1.000
    C11      C        0.95530    0.60640    0.00400    1.000
    H4       H        0.92440    0.56130    0.95290    1.000
    C12      C        0.91560    0.81730    0.91990    1.000
    O8       O        0.90570    0.75880    0.84430    1.000
    C13      C        0.04180    0.60620    0.15830    1.000
    H5       H        0.06960    0.56070    0.21020    1.000
    C14      C        0.99800    0.53820    0.08140    1.000
    O9       O        0.92110    0.33710    0.02510    1.000
    C15      C        0.04420    0.74050    0.15830    1.000
    O10      O        0.89180    0.93480    0.92960    1.000
    C16      C        0.95880    0.73960    0.00320    1.000
    C17      C        0.99640    0.38950    0.08290    1.000
    C18      C        0.00220    0.80830    0.07970    1.000
    H6       H        0.00340    0.89900    0.07890    1.000
    O11      O        0.09470    0.76120    0.31620    1.000
    O12      O        0.12020    0.93210    0.22970    1.000
    Ho3      Ho       0.15017    0.85022    0.45535    1.000
    O13      O        0.33570    0.93390    0.39080    1.000
    C19      C        0.81690    0.90900    0.49060    1.000
    C20      C        0.60640    0.04470    0.25400    1.000
    H7       H        0.56130    0.07560    0.20290    1.000
    C21      C        0.81730    0.08440    0.16990    1.000
    O14      O        0.75880    0.09430    0.09430    1.000
    C22      C        0.60620    0.95820    0.40830    1.000
    H8       H        0.56070    0.93040    0.46020    1.000
    C23      C        0.53820    0.00200    0.33140    1.000
    O15      O        0.33710    0.07890    0.27510    1.000
    C24      C        0.74050    0.95580    0.40830    1.000
    O16      O        0.93480    0.10820    0.17960    1.000
    C25      C        0.73960    0.04120    0.25320    1.000
    C26      C        0.38950    0.00360    0.33290    1.000
    C27      C        0.80830    0.99780    0.32970    1.000
    H9       H        0.89900    0.99660    0.32890    1.000
    O17      O        0.76120    0.90530    0.56620    1.000
    O18      O        0.93210    0.87980    0.47970    1.000
    Ho4      Ho       0.84983    0.14978    0.95535    1.000
    O19      O        0.66430    0.06610    0.89080    1.000
    C28      C        0.18310    0.09100    0.99060    1.000
    C29      C        0.39360    0.95530    0.75400    1.000
    H10      H        0.43870    0.92440    0.70290    1.000
    C30      C        0.18270    0.91560    0.66990    1.000
    O20      O        0.24120    0.90570    0.59430    1.000
    C31      C        0.39380    0.04180    0.90830    1.000
    H11      H        0.43930    0.06960    0.96020    1.000
    C32      C        0.46180    0.99800    0.83140    1.000
    O21      O        0.66290    0.92110    0.77510    1.000
    C33      C        0.25950    0.04420    0.90830    1.000
    O22      O        0.06520    0.89180    0.67960    1.000
    C34      C        0.26040    0.95880    0.75320    1.000
    C35      C        0.61050    0.99640    0.83290    1.000
    C36      C        0.19170    0.00220    0.82970    1.000
    H12      H        0.10100    0.00340    0.82890    1.000
    O23      O        0.23880    0.09470    0.06620    1.000
    O24      O        0.06790    0.12020    0.97970    1.000
