# CIF file generated by openbabel 3.1.0, see https://openbabel.org
data_I
_chemical_name_common 'image0'
_cell_length_a 18.7223
_cell_length_b 5.7758
_cell_length_c 20.8283
_cell_angle_alpha 90
_cell_angle_beta 91.165
_cell_angle_gamma 90
_space_group_name_H-M_alt 'P 1'
_space_group_name_Hall 'P 1'
loop_
    _symmetry_equiv_pos_as_xyz
    x,y,z
loop_
    _atom_site_label
    _atom_site_type_symbol
    _atom_site_fract_x
    _atom_site_fract_y
    _atom_site_fract_z
    _atom_site_occupancy
    O1       O        0.75810    0.95230    0.32130    1.000
    O2       O        0.64130    0.97800    0.33760    1.000
    O3       O        0.66870    0.51970    0.25890    1.000
    O4       O        0.65750    0.51170    0.15270    1.000
    N1       N        0.65660    0.28230    0.43400    1.000
    N2       N        0.55390    0.18960    0.15230    1.000
    C1       C        0.70350    0.02770    0.35010    1.000
    C2       C        0.72170    0.18970    0.40530    1.000
    H1       H        0.74990    0.10520    0.43850    1.000
    H2       H        0.75120    0.31930    0.38960    1.000
    C3       C        0.62460    0.46310    0.40750    1.000
    H3       H        0.64410    0.53160    0.37030    1.000
    C4       C        0.56280    0.55520    0.43330    1.000
    H4       H        0.54030    0.68640    0.41420    1.000
    C5       C        0.53450    0.45310    0.48710    1.000
    C6       C        0.56950    0.26300    0.51290    1.000
    H5       H        0.55060    0.18820    0.54940    1.000
    C7       C        0.62990    0.18380    0.48720    1.000
    H6       H        0.65410    0.05670    0.50670    1.000
    C8       C        0.64020    0.44780    0.20700    1.000
    C9       C        0.57990    0.27200    0.21610    1.000
    H7       H        0.59760    0.13990    0.24200    1.000
    H8       H        0.54020    0.34610    0.23930    1.000
    C10      C        0.50130    0.30200    0.12190    1.000
    H9       H        0.47980    0.43220    0.14150    1.000
    C11      C        0.47820    0.23100    0.06310    1.000
    H10      H        0.44030    0.31150    0.04170    1.000
    C12      C        0.51000    0.04150    0.03380    1.000
    C13      C        0.56570    0.93100    0.06690    1.000
    H11      H        0.59070    0.80690    0.04760    1.000
    C14      C        0.58410    0.00440    0.12800    1.000
    H12      H        0.61870    0.92090    0.15270    1.000
    O5       O        0.74190    0.95230    0.17870    1.000
    O6       O        0.85870    0.97800    0.16240    1.000
    O7       O        0.83130    0.51970    0.24110    1.000
    O8       O        0.84250    0.51170    0.34730    1.000
    N3       N        0.84340    0.28230    0.06600    1.000
    N4       N        0.94610    0.18960    0.34770    1.000
    C15      C        0.79650    0.02770    0.14990    1.000
    C16      C        0.77830    0.18970    0.09470    1.000
    H13      H        0.75010    0.10520    0.06150    1.000
    H14      H        0.74880    0.31930    0.11040    1.000
    C17      C        0.87540    0.46310    0.09250    1.000
    H15      H        0.85590    0.53160    0.12970    1.000
    C18      C        0.93720    0.55520    0.06670    1.000
    H16      H        0.95970    0.68640    0.08580    1.000
    C19      C        0.96550    0.45310    0.01290    1.000
    C20      C        0.93050    0.26300    0.98710    1.000
    H17      H        0.94940    0.18820    0.95060    1.000
    C21      C        0.87010    0.18380    0.01280    1.000
    H18      H        0.84590    0.05670    0.99330    1.000
    C22      C        0.85980    0.44780    0.29300    1.000
    C23      C        0.92010    0.27200    0.28390    1.000
    H19      H        0.90240    0.13990    0.25800    1.000
    H20      H        0.95980    0.34610    0.26070    1.000
    C24      C        0.99870    0.30200    0.37810    1.000
    H21      H        0.02020    0.43220    0.35850    1.000
    C25      C        0.02180    0.23100    0.43690    1.000
    H22      H        0.05970    0.31150    0.45830    1.000
    C26      C        0.99000    0.04150    0.46620    1.000
    C27      C        0.93430    0.93100    0.43310    1.000
    H23      H        0.90930    0.80690    0.45240    1.000
    C28      C        0.91590    0.00440    0.37200    1.000
    H24      H        0.88130    0.92090    0.34730    1.000
    O9       O        0.24190    0.04770    0.67870    1.000
    O10      O        0.35870    0.02200    0.66240    1.000
    O11      O        0.33130    0.48030    0.74110    1.000
    O12      O        0.34250    0.48830    0.84730    1.000
    N5       N        0.34340    0.71770    0.56600    1.000
    N6       N        0.44610    0.81040    0.84770    1.000
    C29      C        0.29650    0.97230    0.64990    1.000
    C30      C        0.27830    0.81030    0.59470    1.000
    H25      H        0.25010    0.89480    0.56150    1.000
    H26      H        0.24880    0.68070    0.61040    1.000
    C31      C        0.37540    0.53690    0.59250    1.000
    H27      H        0.35590    0.46840    0.62970    1.000
    C32      C        0.43720    0.44480    0.56670    1.000
    H28      H        0.45970    0.31360    0.58580    1.000
    C33      C        0.46550    0.54690    0.51290    1.000
    C34      C        0.43050    0.73700    0.48710    1.000
    H29      H        0.44940    0.81180    0.45060    1.000
    C35      C        0.37010    0.81620    0.51280    1.000
    H30      H        0.34590    0.94330    0.49330    1.000
    C36      C        0.35980    0.55220    0.79300    1.000
    C37      C        0.42010    0.72800    0.78390    1.000
    H31      H        0.40240    0.86010    0.75800    1.000
    H32      H        0.45980    0.65390    0.76070    1.000
    C38      C        0.49870    0.69800    0.87810    1.000
    H33      H        0.52020    0.56780    0.85850    1.000
    C39      C        0.52180    0.76900    0.93690    1.000
    H34      H        0.55970    0.68850    0.95830    1.000
    C40      C        0.49000    0.95850    0.96620    1.000
    C41      C        0.43430    0.06900    0.93310    1.000
    H35      H        0.40930    0.19310    0.95240    1.000
    C42      C        0.41590    0.99560    0.87200    1.000
    H36      H        0.38130    0.07910    0.84730    1.000
    O13      O        0.25810    0.04770    0.82130    1.000
    O14      O        0.14130    0.02200    0.83760    1.000
    O15      O        0.16870    0.48030    0.75890    1.000
    O16      O        0.15750    0.48830    0.65270    1.000
    N7       N        0.15660    0.71770    0.93400    1.000
    N8       N        0.05390    0.81040    0.65230    1.000
    C43      C        0.20350    0.97230    0.85010    1.000
    C44      C        0.22170    0.81030    0.90530    1.000
    H37      H        0.24990    0.89480    0.93850    1.000
    H38      H        0.25120    0.68070    0.88960    1.000
    C45      C        0.12460    0.53690    0.90750    1.000
    H39      H        0.14410    0.46840    0.87030    1.000
    C46      C        0.06280    0.44480    0.93330    1.000
    H40      H        0.04030    0.31360    0.91420    1.000
    C47      C        0.03450    0.54690    0.98710    1.000
    C48      C        0.06950    0.73700    0.01290    1.000
    H41      H        0.05060    0.81180    0.04940    1.000
    C49      C        0.12990    0.81620    0.98720    1.000
    H42      H        0.15410    0.94330    0.00670    1.000
    C50      C        0.14020    0.55220    0.70700    1.000
    C51      C        0.07990    0.72800    0.71610    1.000
    H43      H        0.09760    0.86010    0.74200    1.000
    H44      H        0.04020    0.65390    0.73930    1.000
    C52      C        0.00130    0.69800    0.62190    1.000
    H45      H        0.97980    0.56780    0.64150    1.000
    C53      C        0.97820    0.76900    0.56310    1.000
    H46      H        0.94030    0.68850    0.54170    1.000
    C54      C        0.01000    0.95850    0.53380    1.000
    C55      C        0.06570    0.06900    0.56690    1.000
    H47      H        0.09070    0.19310    0.54760    1.000
    C56      C        0.08410    0.99560    0.62800    1.000
    H48      H        0.11870    0.07910    0.65270    1.000
    Zn1      Zn       0.75000    0.73260    0.25000    1.000
    Zn2      Zn       0.25000    0.26740    0.75000    1.000
