# CIF file generated by openbabel 3.1.0, see https://openbabel.org
data_I
_chemical_name_common 'image0'
_cell_length_a 27.652
_cell_length_b 27.652
_cell_length_c 20.028
_cell_angle_alpha 90
_cell_angle_beta 90
_cell_angle_gamma 120
_space_group_name_H-M_alt 'P 1'
_space_group_name_Hall 'P 1'
loop_
    _symmetry_equiv_pos_as_xyz
    x,y,z
loop_
    _atom_site_label
    _atom_site_type_symbol
    _atom_site_fract_x
    _atom_site_fract_y
    _atom_site_fract_z
    _atom_site_occupancy
    O1       O        0.23460    0.95040    0.44670    1.000
    O2       O        0.41200    0.99870    0.61670    1.000
    O3       O        0.28780    0.94210    0.57770    1.000
    O4       O        0.34701    0.95045    0.45780    1.000
    O5       O        0.21750    0.98200    0.39010    1.000
    O6       O        0.64370    0.18860    0.40380    1.000
    O7       O        0.57350    0.21640    0.43200    1.000
    O8       O        0.55570    0.14800    0.35440    1.000
    O9       O        0.07160    0.83920    0.14110    1.000
    C1       C        0.17100    0.91360    0.28650    1.000
    H1       H        0.19760    0.94500    0.26390    1.000
    C2       C        0.50790    0.10360    0.50250    1.000
    H2       H        0.48640    0.11870    0.48790    1.000
    C3       C        0.42750    0.03470    0.57110    1.000
    C4       C        0.48700    0.06070    0.54910    1.000
    C5       C        0.17680    0.90920    0.35420    1.000
    C6       C        0.23820    0.94550    0.38040    1.000
    H3       H        0.27560    0.91090    0.56160    1.000
    O10      O        0.71730    0.68180    0.65710    1.000
    O11      O        0.90127    0.28373    0.78003    1.000
    O12      O        0.07867    0.33203    0.95003    1.000
    O13      O        0.95447    0.27543    0.91103    1.000
    O14      O        0.01368    0.28378    0.79113    1.000
    O15      O        0.88417    0.31533    0.72343    1.000
    O16      O        0.31037    0.52193    0.73713    1.000
    O17      O        0.24017    0.54973    0.76533    1.000
    O18      O        0.22237    0.48133    0.68773    1.000
    O19      O        0.73827    0.17253    0.47443    1.000
    C7       C        0.83767    0.24693    0.61983    1.000
    H4       H        0.86427    0.27833    0.59723    1.000
    C8       C        0.17457    0.43693    0.83583    1.000
    H5       H        0.15307    0.45203    0.82123    1.000
    C9       C        0.09417    0.36803    0.90443    1.000
    C10      C        0.15367    0.39403    0.88243    1.000
    C11      C        0.84347    0.24253    0.68753    1.000
    C12      C        0.90487    0.27883    0.71373    1.000
    H6       H        0.94227    0.24423    0.89493    1.000
    O20      O        0.38397    0.01513    0.99043    1.000
    O21      O        0.56793    0.61707    0.11337    1.000
    O22      O        0.74533    0.66537    0.28337    1.000
    O23      O        0.62113    0.60877    0.24437    1.000
    O24      O        0.68034    0.61712    0.12447    1.000
    O25      O        0.55083    0.64867    0.05677    1.000
    O26      O        0.97703    0.85527    0.07047    1.000
    O27      O        0.90683    0.88307    0.09867    1.000
    O28      O        0.88903    0.81467    0.02107    1.000
    O29      O        0.40493    0.50587    0.80777    1.000
    C13      C        0.50433    0.58027    0.95317    1.000
    H7       H        0.53093    0.61167    0.93057    1.000
    C14      C        0.84123    0.77027    0.16917    1.000
    H8       H        0.81973    0.78537    0.15457    1.000
    C15      C        0.76083    0.70137    0.23777    1.000
    C16      C        0.82033    0.72737    0.21577    1.000
    C17      C        0.51013    0.57587    0.02087    1.000
    C18      C        0.57153    0.61217    0.04707    1.000
    H9       H        0.60893    0.57757    0.22827    1.000
    O30      O        0.05063    0.34847    0.32377    1.000
    O31      O        0.04960    0.28420    0.44670    1.000
    O32      O        0.00130    0.41330    0.61670    1.000
    O33      O        0.05790    0.34570    0.57770    1.000
    O34      O        0.04955    0.39656    0.45780    1.000
    O35      O        0.01800    0.23550    0.39010    1.000
    O36      O        0.81140    0.45510    0.40380    1.000
    O37      O        0.78360    0.35710    0.43200    1.000
    O38      O        0.85200    0.40770    0.35440    1.000
    O39      O        0.16080    0.23240    0.14110    1.000
    C19      C        0.08640    0.25740    0.28650    1.000
    H10      H        0.05500    0.25260    0.26390    1.000
    C20      C        0.89640    0.40430    0.50250    1.000
    H11      H        0.88130    0.36770    0.48790    1.000
    C21      C        0.96530    0.39280    0.57110    1.000
    C22      C        0.93930    0.42630    0.54910    1.000
    C23      C        0.09080    0.26760    0.35420    1.000
    C24      C        0.05450    0.29270    0.38040    1.000
    H12      H        0.08910    0.36470    0.56160    1.000
    O40      O        0.31820    0.03550    0.65710    1.000
    O41      O        0.71627    0.61753    0.78003    1.000
    O42      O        0.66797    0.74663    0.95003    1.000
    O43      O        0.72457    0.67903    0.91103    1.000
    O44      O        0.71622    0.72989    0.79113    1.000
    O45      O        0.68467    0.56883    0.72343    1.000
    O46      O        0.47807    0.78843    0.73713    1.000
    O47      O        0.45027    0.69043    0.76533    1.000
    O48      O        0.51867    0.74103    0.68773    1.000
    O49      O        0.82747    0.56573    0.47443    1.000
    C25      C        0.75307    0.59073    0.61983    1.000
    H13      H        0.72167    0.58593    0.59723    1.000
    C26      C        0.56307    0.73763    0.83583    1.000
    H14      H        0.54797    0.70103    0.82123    1.000
    C27      C        0.63197    0.72613    0.90443    1.000
    C28      C        0.60597    0.75963    0.88243    1.000
    C29      C        0.75747    0.60093    0.68753    1.000
    C30      C        0.72117    0.62603    0.71373    1.000
    H15      H        0.75577    0.69803    0.89493    1.000
    O50      O        0.98487    0.36883    0.99043    1.000
    O51      O        0.38293    0.95087    0.11337    1.000
    O52      O        0.33463    0.07997    0.28337    1.000
    O53      O        0.39123    0.01237    0.24437    1.000
    O54      O        0.38288    0.06323    0.12447    1.000
    O55      O        0.35133    0.90217    0.05677    1.000
    O56      O        0.14473    0.12177    0.07047    1.000
    O57      O        0.11693    0.02377    0.09867    1.000
    O58      O        0.18533    0.07437    0.02107    1.000
    O59      O        0.49413    0.89907    0.80777    1.000
    C31      C        0.41973    0.92407    0.95317    1.000
    H16      H        0.38833    0.91927    0.93057    1.000
    C32      C        0.22973    0.07097    0.16917    1.000
    H17      H        0.21463    0.03437    0.15457    1.000
    C33      C        0.29863    0.05947    0.23777    1.000
    C34      C        0.27263    0.09297    0.21577    1.000
    C35      C        0.42413    0.93427    0.02087    1.000
    C36      C        0.38783    0.95937    0.04707    1.000
    H18      H        0.42243    0.03137    0.22827    1.000
    O60      O        0.65153    0.70217    0.32377    1.000
    O61      O        0.71580    0.76540    0.44670    1.000
    O62      O        0.58670    0.58800    0.61670    1.000
    O63      O        0.65430    0.71220    0.57770    1.000
    O64      O        0.60344    0.65299    0.45780    1.000
    O65      O        0.76450    0.78250    0.39010    1.000
    O66      O        0.54490    0.35630    0.40380    1.000
    O67      O        0.64290    0.42650    0.43200    1.000
    O68      O        0.59230    0.44430    0.35440    1.000
    O69      O        0.76760    0.92840    0.14110    1.000
    C37      C        0.74260    0.82900    0.28650    1.000
    H19      H        0.74740    0.80240    0.26390    1.000
    C38      C        0.59570    0.49210    0.50250    1.000
    H20      H        0.63230    0.51360    0.48790    1.000
    C39      C        0.60720    0.57250    0.57110    1.000
    C40      C        0.57370    0.51300    0.54910    1.000
    C41      C        0.73240    0.82320    0.35420    1.000
    C42      C        0.70730    0.76180    0.38040    1.000
    H21      H        0.63530    0.72440    0.56160    1.000
    O70      O        0.96450    0.28270    0.65710    1.000
    O71      O        0.38247    0.09873    0.78003    1.000
    O72      O        0.25337    0.92133    0.95003    1.000
    O73      O        0.32097    0.04553    0.91103    1.000
    O74      O        0.27011    0.98632    0.79113    1.000
    O75      O        0.43117    0.11583    0.72343    1.000
    O76      O        0.21157    0.68963    0.73713    1.000
    O77      O        0.30957    0.75983    0.76533    1.000
    O78      O        0.25897    0.77763    0.68773    1.000
    O79      O        0.43427    0.26173    0.47443    1.000
    C43      C        0.40927    0.16233    0.61983    1.000
    H22      H        0.41407    0.13573    0.59723    1.000
    C44      C        0.26237    0.82543    0.83583    1.000
    H23      H        0.29897    0.84693    0.82123    1.000
    C45      C        0.27387    0.90583    0.90443    1.000
    C46      C        0.24037    0.84633    0.88243    1.000
    C47      C        0.39907    0.15653    0.68753    1.000
    C48      C        0.37397    0.09513    0.71373    1.000
    H24      H        0.30197    0.05773    0.89493    1.000
    O80      O        0.63117    0.61603    0.99043    1.000
    O81      O        0.04913    0.43207    0.11337    1.000
    O82      O        0.92003    0.25467    0.28337    1.000
    O83      O        0.98763    0.37887    0.24437    1.000
    O84      O        0.93677    0.31966    0.12447    1.000
    O85      O        0.09783    0.44917    0.05677    1.000
    O86      O        0.87823    0.02297    0.07047    1.000
    O87      O        0.97623    0.09317    0.09867    1.000
    O88      O        0.92563    0.11097    0.02107    1.000
    O89      O        0.10093    0.59507    0.80777    1.000
    C49      C        0.07593    0.49567    0.95317    1.000
    H25      H        0.08073    0.46907    0.93057    1.000
    C50      C        0.92903    0.15877    0.16917    1.000
    H26      H        0.96563    0.18027    0.15457    1.000
    C51      C        0.94053    0.23917    0.23777    1.000
    C52      C        0.90703    0.17967    0.21577    1.000
    C53      C        0.06573    0.48987    0.02087    1.000
    C54      C        0.04063    0.42847    0.04707    1.000
    H27      H        0.96863    0.39107    0.22827    1.000
    O90      O        0.29783    0.94937    0.32377    1.000
    O91      O        0.95040    0.23460    0.55330    1.000
    O92      O        0.99870    0.41200    0.38330    1.000
    O93      O        0.94210    0.28780    0.42230    1.000
    O94      O        0.95045    0.34701    0.54220    1.000
    O95      O        0.98200    0.21750    0.60990    1.000
    O96      O        0.18860    0.64370    0.59620    1.000
    O97      O        0.21640    0.57350    0.56800    1.000
    O98      O        0.14800    0.55570    0.64560    1.000
    O99      O        0.83920    0.07160    0.85890    1.000
    C55      C        0.91360    0.17100    0.71350    1.000
    H28      H        0.94500    0.19760    0.73610    1.000
    C56      C        0.10360    0.50790    0.49750    1.000
    H29      H        0.11870    0.48640    0.51210    1.000
    C57      C        0.03470    0.42750    0.42890    1.000
    C58      C        0.06070    0.48700    0.45090    1.000
    C59      C        0.90920    0.17680    0.64580    1.000
    C60      C        0.94550    0.23820    0.61960    1.000
    H30      H        0.91090    0.27560    0.43840    1.000
    O100     O        0.68180    0.71730    0.34290    1.000
    O101     O        0.61707    0.56793    0.88663    1.000
    O102     O        0.66537    0.74533    0.71663    1.000
    O103     O        0.60877    0.62113    0.75563    1.000
    O104     O        0.61712    0.68034    0.87553    1.000
    O105     O        0.64867    0.55083    0.94323    1.000
    O106     O        0.85527    0.97703    0.92953    1.000
    O107     O        0.88307    0.90683    0.90133    1.000
    O108     O        0.81467    0.88903    0.97893    1.000
    O109     O        0.50587    0.40493    0.19223    1.000
    C61      C        0.58027    0.50433    0.04683    1.000
    H31      H        0.61167    0.53093    0.06943    1.000
    C62      C        0.77027    0.84123    0.83083    1.000
    H32      H        0.78537    0.81973    0.84543    1.000
    C63      C        0.70137    0.76083    0.76223    1.000
    C64      C        0.72737    0.82033    0.78423    1.000
    C65      C        0.57587    0.51013    0.97913    1.000
    C66      C        0.61217    0.57153    0.95293    1.000
    H33      H        0.57757    0.60893    0.77173    1.000
    O110     O        0.34847    0.05063    0.67623    1.000
    O111     O        0.28373    0.90127    0.21997    1.000
    O112     O        0.33203    0.07867    0.04997    1.000
    O113     O        0.27543    0.95447    0.08897    1.000
    O114     O        0.28378    0.01368    0.20887    1.000
    O115     O        0.31533    0.88417    0.27657    1.000
    O116     O        0.52193    0.31037    0.26287    1.000
    O117     O        0.54973    0.24017    0.23467    1.000
    O118     O        0.48133    0.22237    0.31227    1.000
    O119     O        0.17253    0.73827    0.52557    1.000
    C67      C        0.24693    0.83767    0.38017    1.000
    H34      H        0.27833    0.86427    0.40277    1.000
    C68      C        0.43693    0.17457    0.16417    1.000
    H35      H        0.45203    0.15307    0.17877    1.000
    C69      C        0.36803    0.09417    0.09557    1.000
    C70      C        0.39403    0.15367    0.11757    1.000
    C71      C        0.24253    0.84347    0.31247    1.000
    C72      C        0.27883    0.90487    0.28627    1.000
    H36      H        0.24423    0.94227    0.10507    1.000
    O120     O        0.01513    0.38397    0.00957    1.000
    O121     O        0.28420    0.04960    0.55330    1.000
    O122     O        0.41330    0.00130    0.38330    1.000
    O123     O        0.34570    0.05790    0.42230    1.000
    O124     O        0.39656    0.04955    0.54220    1.000
    O125     O        0.23550    0.01800    0.60990    1.000
    O126     O        0.45510    0.81140    0.59620    1.000
    O127     O        0.35710    0.78360    0.56800    1.000
    O128     O        0.40770    0.85200    0.64560    1.000
    O129     O        0.23240    0.16080    0.85890    1.000
    C73      C        0.25740    0.08640    0.71350    1.000
    H37      H        0.25260    0.05500    0.73610    1.000
    C74      C        0.40430    0.89640    0.49750    1.000
    H38      H        0.36770    0.88130    0.51210    1.000
    C75      C        0.39280    0.96530    0.42890    1.000
    C76      C        0.42630    0.93930    0.45090    1.000
    C77      C        0.26760    0.09080    0.64580    1.000
    C78      C        0.29270    0.05450    0.61960    1.000
    H39      H        0.36470    0.08910    0.43840    1.000
    O130     O        0.03550    0.31820    0.34290    1.000
    O131     O        0.95087    0.38293    0.88663    1.000
    O132     O        0.07997    0.33463    0.71663    1.000
    O133     O        0.01237    0.39123    0.75563    1.000
    O134     O        0.06323    0.38288    0.87553    1.000
    O135     O        0.90217    0.35133    0.94323    1.000
    O136     O        0.12177    0.14473    0.92953    1.000
    O137     O        0.02377    0.11693    0.90133    1.000
    O138     O        0.07437    0.18533    0.97893    1.000
    O139     O        0.89907    0.49413    0.19223    1.000
    C79      C        0.92407    0.41973    0.04683    1.000
    H40      H        0.91927    0.38833    0.06943    1.000
    C80      C        0.07097    0.22973    0.83083    1.000
    H41      H        0.03437    0.21463    0.84543    1.000
    C81      C        0.05947    0.29863    0.76223    1.000
    C82      C        0.09297    0.27263    0.78423    1.000
    C83      C        0.93427    0.42413    0.97913    1.000
    C84      C        0.95937    0.38783    0.95293    1.000
    H42      H        0.03137    0.42243    0.77173    1.000
    O140     O        0.70217    0.65153    0.67623    1.000
    O141     O        0.61753    0.71627    0.21997    1.000
    O142     O        0.74663    0.66797    0.04997    1.000
    O143     O        0.67903    0.72457    0.08897    1.000
    O144     O        0.72989    0.71622    0.20887    1.000
    O145     O        0.56883    0.68467    0.27657    1.000
    O146     O        0.78843    0.47807    0.26287    1.000
    O147     O        0.69043    0.45027    0.23467    1.000
    O148     O        0.74103    0.51867    0.31227    1.000
    O149     O        0.56573    0.82747    0.52557    1.000
    C85      C        0.59073    0.75307    0.38017    1.000
    H43      H        0.58593    0.72167    0.40277    1.000
    C86      C        0.73763    0.56307    0.16417    1.000
    H44      H        0.70103    0.54797    0.17877    1.000
    C87      C        0.72613    0.63197    0.09557    1.000
    C88      C        0.75963    0.60597    0.11757    1.000
    C89      C        0.60093    0.75747    0.31247    1.000
    C90      C        0.62603    0.72117    0.28627    1.000
    H45      H        0.69803    0.75577    0.10507    1.000
    O150     O        0.36883    0.98487    0.00957    1.000
    O151     O        0.76540    0.71580    0.55330    1.000
    O152     O        0.58800    0.58670    0.38330    1.000
    O153     O        0.71220    0.65430    0.42230    1.000
    O154     O        0.65299    0.60344    0.54220    1.000
    O155     O        0.78250    0.76450    0.60990    1.000
    O156     O        0.35630    0.54490    0.59620    1.000
    O157     O        0.42650    0.64290    0.56800    1.000
    O158     O        0.44430    0.59230    0.64560    1.000
    O159     O        0.92840    0.76760    0.85890    1.000
    C91      C        0.82900    0.74260    0.71350    1.000
    H46      H        0.80240    0.74740    0.73610    1.000
    C92      C        0.49210    0.59570    0.49750    1.000
    H47      H        0.51360    0.63230    0.51210    1.000
    C93      C        0.57250    0.60720    0.42890    1.000
    C94      C        0.51300    0.57370    0.45090    1.000
    C95      C        0.82320    0.73240    0.64580    1.000
    C96      C        0.76180    0.70730    0.61960    1.000
    H48      H        0.72440    0.63530    0.43840    1.000
    O160     O        0.28270    0.96450    0.34290    1.000
    O161     O        0.43207    0.04913    0.88663    1.000
    O162     O        0.25467    0.92003    0.71663    1.000
    O163     O        0.37887    0.98763    0.75563    1.000
    O164     O        0.31966    0.93677    0.87553    1.000
    O165     O        0.44917    0.09783    0.94323    1.000
    O166     O        0.02297    0.87823    0.92953    1.000
    O167     O        0.09317    0.97623    0.90133    1.000
    O168     O        0.11097    0.92563    0.97893    1.000
    O169     O        0.59507    0.10093    0.19223    1.000
    C97      C        0.49567    0.07593    0.04683    1.000
    H49      H        0.46907    0.08073    0.06943    1.000
    C98      C        0.15877    0.92903    0.83083    1.000
    H50      H        0.18027    0.96563    0.84543    1.000
    C99      C        0.23917    0.94053    0.76223    1.000
    C100     C        0.17967    0.90703    0.78423    1.000
    C101     C        0.48987    0.06573    0.97913    1.000
    C102     C        0.42847    0.04063    0.95293    1.000
    H51      H        0.39107    0.96863    0.77173    1.000
    O170     O        0.94937    0.29783    0.67623    1.000
    O171     O        0.09873    0.38247    0.21997    1.000
    O172     O        0.92133    0.25337    0.04997    1.000
    O173     O        0.04553    0.32097    0.08897    1.000
    O174     O        0.98632    0.27011    0.20887    1.000
    O175     O        0.11583    0.43117    0.27657    1.000
    O176     O        0.68963    0.21157    0.26287    1.000
    O177     O        0.75983    0.30957    0.23467    1.000
    O178     O        0.77763    0.25897    0.31227    1.000
    O179     O        0.26173    0.43427    0.52557    1.000
    C103     C        0.16233    0.40927    0.38017    1.000
    H52      H        0.13573    0.41407    0.40277    1.000
    C104     C        0.82543    0.26237    0.16417    1.000
    H53      H        0.84693    0.29897    0.17877    1.000
    C105     C        0.90583    0.27387    0.09557    1.000
    C106     C        0.84633    0.24037    0.11757    1.000
    C107     C        0.15653    0.39907    0.31247    1.000
    C108     C        0.09513    0.37397    0.28627    1.000
    H54      H        0.05773    0.30197    0.10507    1.000
    O180     O        0.61603    0.63117    0.00957    1.000
    O181     O        0.76540    0.04960    0.55330    1.000
    O182     O        0.58800    0.00130    0.38330    1.000
    O183     O        0.71220    0.05790    0.42230    1.000
    O184     O        0.65299    0.04955    0.54220    1.000
    O185     O        0.78250    0.01800    0.60990    1.000
    O186     O        0.35630    0.81140    0.59620    1.000
    O187     O        0.42650    0.78360    0.56800    1.000
    O188     O        0.44430    0.85200    0.64560    1.000
    O189     O        0.92840    0.16080    0.85890    1.000
    C109     C        0.82900    0.08640    0.71350    1.000
    H55      H        0.80240    0.05500    0.73610    1.000
    C110     C        0.49210    0.89640    0.49750    1.000
    H56      H        0.51360    0.88130    0.51210    1.000
    C111     C        0.57250    0.96530    0.42890    1.000
    C112     C        0.51300    0.93930    0.45090    1.000
    C113     C        0.82320    0.09080    0.64580    1.000
    C114     C        0.76180    0.05450    0.61960    1.000
    H57      H        0.72440    0.08910    0.43840    1.000
    O190     O        0.28270    0.31820    0.34290    1.000
    O191     O        0.43207    0.38293    0.88663    1.000
    O192     O        0.25467    0.33463    0.71663    1.000
    O193     O        0.37887    0.39123    0.75563    1.000
    O194     O        0.31966    0.38288    0.87553    1.000
    O195     O        0.44917    0.35133    0.94323    1.000
    O196     O        0.02297    0.14473    0.92953    1.000
    O197     O        0.09317    0.11693    0.90133    1.000
    O198     O        0.11097    0.18533    0.97893    1.000
    O199     O        0.59507    0.49413    0.19223    1.000
    C115     C        0.49567    0.41973    0.04683    1.000
    H58      H        0.46907    0.38833    0.06943    1.000
    C116     C        0.15877    0.22973    0.83083    1.000
    H59      H        0.18027    0.21463    0.84543    1.000
    C117     C        0.23917    0.29863    0.76223    1.000
    C118     C        0.17967    0.27263    0.78423    1.000
    C119     C        0.48987    0.42413    0.97913    1.000
    C120     C        0.42847    0.38783    0.95293    1.000
    H60      H        0.39107    0.42243    0.77173    1.000
    O200     O        0.94937    0.65153    0.67623    1.000
    O201     O        0.09873    0.71627    0.21997    1.000
    O202     O        0.92133    0.66797    0.04997    1.000
    O203     O        0.04553    0.72457    0.08897    1.000
    O204     O        0.98632    0.71622    0.20887    1.000
    O205     O        0.11583    0.68467    0.27657    1.000
    O206     O        0.68963    0.47807    0.26287    1.000
    O207     O        0.75983    0.45027    0.23467    1.000
    O208     O        0.77763    0.51867    0.31227    1.000
    O209     O        0.26173    0.82747    0.52557    1.000
    C121     C        0.16233    0.75307    0.38017    1.000
    H61      H        0.13573    0.72167    0.40277    1.000
    C122     C        0.82543    0.56307    0.16417    1.000
    H62      H        0.84693    0.54797    0.17877    1.000
    C123     C        0.90583    0.63197    0.09557    1.000
    C124     C        0.84633    0.60597    0.11757    1.000
    C125     C        0.15653    0.75747    0.31247    1.000
    C126     C        0.09513    0.72117    0.28627    1.000
    H63      H        0.05773    0.75577    0.10507    1.000
    O210     O        0.61603    0.98487    0.00957    1.000
    O211     O        0.95040    0.71580    0.55330    1.000
    O212     O        0.99870    0.58670    0.38330    1.000
    O213     O        0.94210    0.65430    0.42230    1.000
    O214     O        0.95045    0.60344    0.54220    1.000
    O215     O        0.98200    0.76450    0.60990    1.000
    O216     O        0.18860    0.54490    0.59620    1.000
    O217     O        0.21640    0.64290    0.56800    1.000
    O218     O        0.14800    0.59230    0.64560    1.000
    O219     O        0.83920    0.76760    0.85890    1.000
    C127     C        0.91360    0.74260    0.71350    1.000
    H64      H        0.94500    0.74740    0.73610    1.000
    C128     C        0.10360    0.59570    0.49750    1.000
    H65      H        0.11870    0.63230    0.51210    1.000
    C129     C        0.03470    0.60720    0.42890    1.000
    C130     C        0.06070    0.57370    0.45090    1.000
    C131     C        0.90920    0.73240    0.64580    1.000
    C132     C        0.94550    0.70730    0.61960    1.000
    H66      H        0.91090    0.63530    0.43840    1.000
    O220     O        0.68180    0.96450    0.34290    1.000
    O221     O        0.61707    0.04913    0.88663    1.000
    O222     O        0.66537    0.92003    0.71663    1.000
    O223     O        0.60877    0.98763    0.75563    1.000
    O224     O        0.61712    0.93677    0.87553    1.000
    O225     O        0.64867    0.09783    0.94323    1.000
    O226     O        0.85527    0.87823    0.92953    1.000
    O227     O        0.88307    0.97623    0.90133    1.000
    O228     O        0.81467    0.92563    0.97893    1.000
    O229     O        0.50587    0.10093    0.19223    1.000
    C133     C        0.58027    0.07593    0.04683    1.000
    H67      H        0.61167    0.08073    0.06943    1.000
    C134     C        0.77027    0.92903    0.83083    1.000
    H68      H        0.78537    0.96563    0.84543    1.000
    C135     C        0.70137    0.94053    0.76223    1.000
    C136     C        0.72737    0.90703    0.78423    1.000
    C137     C        0.57587    0.06573    0.97913    1.000
    C138     C        0.61217    0.04063    0.95293    1.000
    H69      H        0.57757    0.96863    0.77173    1.000
    O230     O        0.34847    0.29783    0.67623    1.000
    O231     O        0.28373    0.38247    0.21997    1.000
    O232     O        0.33203    0.25337    0.04997    1.000
    O233     O        0.27543    0.32097    0.08897    1.000
    O234     O        0.28378    0.27011    0.20887    1.000
    O235     O        0.31533    0.43117    0.27657    1.000
    O236     O        0.52193    0.21157    0.26287    1.000
    O237     O        0.54973    0.30957    0.23467    1.000
    O238     O        0.48133    0.25897    0.31227    1.000
    O239     O        0.17253    0.43427    0.52557    1.000
    C139     C        0.24693    0.40927    0.38017    1.000
    H70      H        0.27833    0.41407    0.40277    1.000
    C140     C        0.43693    0.26237    0.16417    1.000
    H71      H        0.45203    0.29897    0.17877    1.000
    C141     C        0.36803    0.27387    0.09557    1.000
    C142     C        0.39403    0.24037    0.11757    1.000
    C143     C        0.24253    0.39907    0.31247    1.000
    C144     C        0.27883    0.37397    0.28627    1.000
    H72      H        0.24423    0.30197    0.10507    1.000
    O240     O        0.01513    0.63117    0.00957    1.000
    O241     O        0.28420    0.23460    0.55330    1.000
    O242     O        0.41330    0.41200    0.38330    1.000
    O243     O        0.34570    0.28780    0.42230    1.000
    O244     O        0.39656    0.34701    0.54220    1.000
    O245     O        0.23550    0.21750    0.60990    1.000
    O246     O        0.45510    0.64370    0.59620    1.000
    O247     O        0.35710    0.57350    0.56800    1.000
    O248     O        0.40770    0.55570    0.64560    1.000
    O249     O        0.23240    0.07160    0.85890    1.000
    C145     C        0.25740    0.17100    0.71350    1.000
    H73      H        0.25260    0.19760    0.73610    1.000
    C146     C        0.40430    0.50790    0.49750    1.000
    H74      H        0.36770    0.48640    0.51210    1.000
    C147     C        0.39280    0.42750    0.42890    1.000
    C148     C        0.42630    0.48700    0.45090    1.000
    C149     C        0.26760    0.17680    0.64580    1.000
    C150     C        0.29270    0.23820    0.61960    1.000
    H75      H        0.36470    0.27560    0.43840    1.000
    O250     O        0.03550    0.71730    0.34290    1.000
    O251     O        0.95087    0.56793    0.88663    1.000
    O252     O        0.07997    0.74533    0.71663    1.000
    O253     O        0.01237    0.62113    0.75563    1.000
    O254     O        0.06323    0.68034    0.87553    1.000
    O255     O        0.90217    0.55083    0.94323    1.000
    O256     O        0.12177    0.97703    0.92953    1.000
    O257     O        0.02377    0.90683    0.90133    1.000
    O258     O        0.07437    0.88903    0.97893    1.000
    O259     O        0.89907    0.40493    0.19223    1.000
    C151     C        0.92407    0.50433    0.04683    1.000
    H76      H        0.91927    0.53093    0.06943    1.000
    C152     C        0.07097    0.84123    0.83083    1.000
    H77      H        0.03437    0.81973    0.84543    1.000
    C153     C        0.05947    0.76083    0.76223    1.000
    C154     C        0.09297    0.82033    0.78423    1.000
    C155     C        0.93427    0.51013    0.97913    1.000
    C156     C        0.95937    0.57153    0.95293    1.000
    H78      H        0.03137    0.60893    0.77173    1.000
    O260     O        0.70217    0.05063    0.67623    1.000
    O261     O        0.61753    0.90127    0.21997    1.000
    O262     O        0.74663    0.07867    0.04997    1.000
    O263     O        0.67903    0.95447    0.08897    1.000
    O264     O        0.72989    0.01368    0.20887    1.000
    O265     O        0.56883    0.88417    0.27657    1.000
    O266     O        0.78843    0.31037    0.26287    1.000
    O267     O        0.69043    0.24017    0.23467    1.000
    O268     O        0.74103    0.22237    0.31227    1.000
    O269     O        0.56573    0.73827    0.52557    1.000
    C157     C        0.59073    0.83767    0.38017    1.000
    H79      H        0.58593    0.86427    0.40277    1.000
    C158     C        0.73763    0.17457    0.16417    1.000
    H80      H        0.70103    0.15307    0.17877    1.000
    C159     C        0.72613    0.09417    0.09557    1.000
    C160     C        0.75963    0.15367    0.11757    1.000
    C161     C        0.60093    0.84347    0.31247    1.000
    C162     C        0.62603    0.90487    0.28627    1.000
    H81      H        0.69803    0.94227    0.10507    1.000
    O270     O        0.36883    0.38397    0.00957    1.000
    O271     O        0.04960    0.76540    0.44670    1.000
    O272     O        0.00130    0.58800    0.61670    1.000
    O273     O        0.05790    0.71220    0.57770    1.000
    O274     O        0.04955    0.65299    0.45780    1.000
    O275     O        0.01800    0.78250    0.39010    1.000
    O276     O        0.81140    0.35630    0.40380    1.000
    O277     O        0.78360    0.42650    0.43200    1.000
    O278     O        0.85200    0.44430    0.35440    1.000
    O279     O        0.16080    0.92840    0.14110    1.000
    C163     C        0.08640    0.82900    0.28650    1.000
    H82      H        0.05500    0.80240    0.26390    1.000
    C164     C        0.89640    0.49210    0.50250    1.000
    H83      H        0.88130    0.51360    0.48790    1.000
    C165     C        0.96530    0.57250    0.57110    1.000
    C166     C        0.93930    0.51300    0.54910    1.000
    C167     C        0.09080    0.82320    0.35420    1.000
    C168     C        0.05450    0.76180    0.38040    1.000
    H84      H        0.08910    0.72440    0.56160    1.000
    O280     O        0.31820    0.28270    0.65710    1.000
    O281     O        0.71627    0.09873    0.78003    1.000
    O282     O        0.66797    0.92133    0.95003    1.000
    O283     O        0.72457    0.04553    0.91103    1.000
    O284     O        0.71622    0.98632    0.79113    1.000
    O285     O        0.68467    0.11583    0.72343    1.000
    O286     O        0.47807    0.68963    0.73713    1.000
    O287     O        0.45027    0.75983    0.76533    1.000
    O288     O        0.51867    0.77763    0.68773    1.000
    O289     O        0.82747    0.26173    0.47443    1.000
    C169     C        0.75307    0.16233    0.61983    1.000
    H85      H        0.72167    0.13573    0.59723    1.000
    C170     C        0.56307    0.82543    0.83583    1.000
    H86      H        0.54797    0.84693    0.82123    1.000
    C171     C        0.63197    0.90583    0.90443    1.000
    C172     C        0.60597    0.84633    0.88243    1.000
    C173     C        0.75747    0.15653    0.68753    1.000
    C174     C        0.72117    0.09513    0.71373    1.000
    H87      H        0.75577    0.05773    0.89493    1.000
    O290     O        0.98487    0.61603    0.99043    1.000
    O291     O        0.38293    0.43207    0.11337    1.000
    O292     O        0.33463    0.25467    0.28337    1.000
    O293     O        0.39123    0.37887    0.24437    1.000
    O294     O        0.38288    0.31966    0.12447    1.000
    O295     O        0.35133    0.44917    0.05677    1.000
    O296     O        0.14473    0.02297    0.07047    1.000
    O297     O        0.11693    0.09317    0.09867    1.000
    O298     O        0.18533    0.11097    0.02107    1.000
    O299     O        0.49413    0.59507    0.80777    1.000
    C175     C        0.41973    0.49567    0.95317    1.000
    H88      H        0.38833    0.46907    0.93057    1.000
    C176     C        0.22973    0.15877    0.16917    1.000
    H89      H        0.21463    0.18027    0.15457    1.000
    C177     C        0.29863    0.23917    0.23777    1.000
    C178     C        0.27263    0.17967    0.21577    1.000
    C179     C        0.42413    0.48987    0.02087    1.000
    C180     C        0.38783    0.42847    0.04707    1.000
    H90      H        0.42243    0.39107    0.22827    1.000
    O300     O        0.65153    0.94937    0.32377    1.000
    O301     O        0.71580    0.95040    0.44670    1.000
    O302     O        0.58670    0.99870    0.61670    1.000
    O303     O        0.65430    0.94210    0.57770    1.000
    O304     O        0.60344    0.95045    0.45780    1.000
    O305     O        0.76450    0.98200    0.39010    1.000
    O306     O        0.54490    0.18860    0.40380    1.000
    O307     O        0.64290    0.21640    0.43200    1.000
    O308     O        0.59230    0.14800    0.35440    1.000
    O309     O        0.76760    0.83920    0.14110    1.000
    C181     C        0.74260    0.91360    0.28650    1.000
    H91      H        0.74740    0.94500    0.26390    1.000
    C182     C        0.59570    0.10360    0.50250    1.000
    H92      H        0.63230    0.11870    0.48790    1.000
    C183     C        0.60720    0.03470    0.57110    1.000
    C184     C        0.57370    0.06070    0.54910    1.000
    C185     C        0.73240    0.90920    0.35420    1.000
    C186     C        0.70730    0.94550    0.38040    1.000
    H93      H        0.63530    0.91090    0.56160    1.000
    O310     O        0.96450    0.68180    0.65710    1.000
    O311     O        0.38247    0.28373    0.78003    1.000
    O312     O        0.25337    0.33203    0.95003    1.000
    O313     O        0.32097    0.27543    0.91103    1.000
    O314     O        0.27011    0.28378    0.79113    1.000
    O315     O        0.43117    0.31533    0.72343    1.000
    O316     O        0.21157    0.52193    0.73713    1.000
    O317     O        0.30957    0.54973    0.76533    1.000
    O318     O        0.25897    0.48133    0.68773    1.000
    O319     O        0.43427    0.17253    0.47443    1.000
    C187     C        0.40927    0.24693    0.61983    1.000
    H94      H        0.41407    0.27833    0.59723    1.000
    C188     C        0.26237    0.43693    0.83583    1.000
    H95      H        0.29897    0.45203    0.82123    1.000
    C189     C        0.27387    0.36803    0.90443    1.000
    C190     C        0.24037    0.39403    0.88243    1.000
    C191     C        0.39907    0.24253    0.68753    1.000
    C192     C        0.37397    0.27883    0.71373    1.000
    H96      H        0.30197    0.24423    0.89493    1.000
    O320     O        0.63117    0.01513    0.99043    1.000
    O321     O        0.04913    0.61707    0.11337    1.000
    O322     O        0.92003    0.66537    0.28337    1.000
    O323     O        0.98763    0.60877    0.24437    1.000
    O324     O        0.93677    0.61712    0.12447    1.000
    O325     O        0.09783    0.64867    0.05677    1.000
    O326     O        0.87823    0.85527    0.07047    1.000
    O327     O        0.97623    0.88307    0.09867    1.000
    O328     O        0.92563    0.81467    0.02107    1.000
    O329     O        0.10093    0.50587    0.80777    1.000
    C193     C        0.07593    0.58027    0.95317    1.000
    H97      H        0.08073    0.61167    0.93057    1.000
    C194     C        0.92903    0.77027    0.16917    1.000
    H98      H        0.96563    0.78537    0.15457    1.000
    C195     C        0.94053    0.70137    0.23777    1.000
    C196     C        0.90703    0.72737    0.21577    1.000
    C197     C        0.06573    0.57587    0.02087    1.000
    C198     C        0.04063    0.61217    0.04707    1.000
    H99      H        0.96863    0.57757    0.22827    1.000
    O330     O        0.29783    0.34847    0.32377    1.000
    O331     O        0.23460    0.28420    0.44670    1.000
    O332     O        0.41200    0.41330    0.61670    1.000
    O333     O        0.28780    0.34570    0.57770    1.000
    O334     O        0.34701    0.39656    0.45780    1.000
    O335     O        0.21750    0.23550    0.39010    1.000
    O336     O        0.64370    0.45510    0.40380    1.000
    O337     O        0.57350    0.35710    0.43200    1.000
    O338     O        0.55570    0.40770    0.35440    1.000
    O339     O        0.07160    0.23240    0.14110    1.000
    C199     C        0.17100    0.25740    0.28650    1.000
    H100     H        0.19760    0.25260    0.26390    1.000
    C200     C        0.50790    0.40430    0.50250    1.000
    H101     H        0.48640    0.36770    0.48790    1.000
    C201     C        0.42750    0.39280    0.57110    1.000
    C202     C        0.48700    0.42630    0.54910    1.000
    C203     C        0.17680    0.26760    0.35420    1.000
    C204     C        0.23820    0.29270    0.38040    1.000
    H102     H        0.27560    0.36470    0.56160    1.000
    O340     O        0.71730    0.03550    0.65710    1.000
    O341     O        0.90127    0.61753    0.78003    1.000
    O342     O        0.07867    0.74663    0.95003    1.000
    O343     O        0.95447    0.67903    0.91103    1.000
    O344     O        0.01368    0.72989    0.79113    1.000
    O345     O        0.88417    0.56883    0.72343    1.000
    O346     O        0.31037    0.78843    0.73713    1.000
    O347     O        0.24017    0.69043    0.76533    1.000
    O348     O        0.22237    0.74103    0.68773    1.000
    O349     O        0.73827    0.56573    0.47443    1.000
    C205     C        0.83767    0.59073    0.61983    1.000
    H103     H        0.86427    0.58593    0.59723    1.000
    C206     C        0.17457    0.73763    0.83583    1.000
    H104     H        0.15307    0.70103    0.82123    1.000
    C207     C        0.09417    0.72613    0.90443    1.000
    C208     C        0.15367    0.75963    0.88243    1.000
    C209     C        0.84347    0.60093    0.68753    1.000
    C210     C        0.90487    0.62603    0.71373    1.000
    H105     H        0.94227    0.69803    0.89493    1.000
    O350     O        0.38397    0.36883    0.99043    1.000
    O351     O        0.56793    0.95087    0.11337    1.000
    O352     O        0.74533    0.07997    0.28337    1.000
    O353     O        0.62113    0.01237    0.24437    1.000
    O354     O        0.68034    0.06323    0.12447    1.000
    O355     O        0.55083    0.90217    0.05677    1.000
    O356     O        0.97703    0.12177    0.07047    1.000
    O357     O        0.90683    0.02377    0.09867    1.000
    O358     O        0.88903    0.07437    0.02107    1.000
    O359     O        0.40493    0.89907    0.80777    1.000
    C211     C        0.50433    0.92407    0.95317    1.000
    H106     H        0.53093    0.91927    0.93057    1.000
    C212     C        0.84123    0.07097    0.16917    1.000
    H107     H        0.81973    0.03437    0.15457    1.000
    C213     C        0.76083    0.05947    0.23777    1.000
    C214     C        0.82033    0.09297    0.21577    1.000
    C215     C        0.51013    0.93427    0.02087    1.000
    C216     C        0.57153    0.95937    0.04707    1.000
    H108     H        0.60893    0.03137    0.22827    1.000
    O360     O        0.05063    0.70217    0.32377    1.000
    In1      In       0.31108    0.00000    0.50000    1.000
    In2      In       0.97775    0.33333    0.83333    1.000
    In3      In       0.64441    0.66667    0.16667    1.000
    In4      In       0.00000    0.31108    0.50000    1.000
    In5      In       0.66667    0.64441    0.83333    1.000
    In6      In       0.33333    0.97775    0.16667    1.000
    In7      In       0.68892    0.68892    0.50000    1.000
    In8      In       0.35559    0.02225    0.83333    1.000
    In9      In       0.02225    0.35559    0.16667    1.000
    In10     In       0.68892    0.00000    0.50000    1.000
    In11     In       0.35559    0.33333    0.83333    1.000
    In12     In       0.02225    0.66667    0.16667    1.000
    In13     In       0.00000    0.68892    0.50000    1.000
    In14     In       0.66667    0.02225    0.83333    1.000
    In15     In       0.33333    0.35559    0.16667    1.000
    In16     In       0.31108    0.31108    0.50000    1.000
    In17     In       0.97775    0.64441    0.83333    1.000
    In18     In       0.64441    0.97775    0.16667    1.000
    In19     In       0.33333    0.96430    0.66667    1.000
    In20     In       0.00000    0.29763    0.00000    1.000
    In21     In       0.03570    0.36904    0.66667    1.000
    In22     In       0.70237    0.70237    0.00000    1.000
    In23     In       0.63096    0.66667    0.66667    1.000
    In24     In       0.29763    0.00000    0.00000    1.000
    In25     In       0.96430    0.33333    0.33333    1.000
    In26     In       0.36904    0.03570    0.33333    1.000
    In27     In       0.66667    0.63096    0.33333    1.000
    In28     In       0.66667    0.03570    0.33333    1.000
    In29     In       0.96430    0.63096    0.33333    1.000
    In30     In       0.36904    0.33333    0.33333    1.000
    In31     In       0.03570    0.66667    0.66667    1.000
    In32     In       0.70237    0.00000    0.00000    1.000
    In33     In       0.63096    0.96430    0.66667    1.000
    In34     In       0.29763    0.29763    0.00000    1.000
    In35     In       0.33333    0.36904    0.66667    1.000
    In36     In       0.00000    0.70237    0.00000    1.000
    S1       S        0.12528    0.87472    0.16224    1.000
    O361     O        0.15530    0.84470    0.13770    1.000
    C217     C        0.12715    0.87285    0.25200    1.000
    C218     C        0.13545    0.86455    0.38760    1.000
    H109     H        0.13775    0.86225    0.43370    1.000
    S2       S        0.60310    0.39690    0.45170    1.000
    S3       S        0.79195    0.20805    0.49557    1.000
    O362     O        0.82197    0.17803    0.47103    1.000
    C219     C        0.79382    0.20618    0.58533    1.000
    C220     C        0.80212    0.19788    0.72093    1.000
    H110     H        0.80442    0.19558    0.76703    1.000
    S4       S        0.26977    0.73023    0.78503    1.000
    S5       S        0.45861    0.54139    0.82891    1.000
    O363     O        0.48863    0.51137    0.80437    1.000
    C221     C        0.46048    0.53952    0.91867    1.000
    C222     C        0.46878    0.53122    0.05427    1.000
    H111     H        0.47108    0.52892    0.10037    1.000
    S6       S        0.93643    0.06357    0.11837    1.000
    S7       S        0.12528    0.25056    0.16224    1.000
    O364     O        0.15530    0.31060    0.13770    1.000
    C223     C        0.12715    0.25430    0.25200    1.000
    C224     C        0.13545    0.27090    0.38760    1.000
    H112     H        0.13775    0.27550    0.43370    1.000
    S8       S        0.60310    0.20620    0.45170    1.000
    S9       S        0.79195    0.58389    0.49557    1.000
    O365     O        0.82197    0.64393    0.47103    1.000
    C225     C        0.79382    0.58763    0.58533    1.000
    C226     C        0.80212    0.60423    0.72093    1.000
    H113     H        0.80442    0.60883    0.76703    1.000
    S10      S        0.26977    0.53953    0.78503    1.000
    S11      S        0.45861    0.91723    0.82891    1.000
    O366     O        0.48863    0.97727    0.80437    1.000
    C227     C        0.46048    0.92097    0.91867    1.000
    C228     C        0.46878    0.93757    0.05427    1.000
    H114     H        0.47108    0.94217    0.10037    1.000
    S12      S        0.93643    0.87287    0.11837    1.000
    S13      S        0.74944    0.87472    0.16224    1.000
    O367     O        0.68940    0.84470    0.13770    1.000
    C229     C        0.74570    0.87285    0.25200    1.000
    C230     C        0.72910    0.86455    0.38760    1.000
    H115     H        0.72450    0.86225    0.43370    1.000
    S14      S        0.79380    0.39690    0.45170    1.000
    S15      S        0.41611    0.20805    0.49557    1.000
    O368     O        0.35607    0.17803    0.47103    1.000
    C231     C        0.41237    0.20618    0.58533    1.000
    C232     C        0.39577    0.19788    0.72093    1.000
    H116     H        0.39117    0.19558    0.76703    1.000
    S16      S        0.46047    0.73023    0.78503    1.000
    S17      S        0.08277    0.54139    0.82891    1.000
    O369     O        0.02273    0.51137    0.80437    1.000
    C233     C        0.07903    0.53952    0.91867    1.000
    C234     C        0.06243    0.53122    0.05427    1.000
    H117     H        0.05783    0.52892    0.10037    1.000
    S18      S        0.12713    0.06357    0.11837    1.000
    S19      S        0.87472    0.12528    0.83776    1.000
    O370     O        0.84470    0.15530    0.86230    1.000
    C235     C        0.87285    0.12715    0.74800    1.000
    C236     C        0.86455    0.13545    0.61240    1.000
    H118     H        0.86225    0.13775    0.56630    1.000
    S20      S        0.39690    0.60310    0.54830    1.000
    S21      S        0.54139    0.45861    0.17109    1.000
    O371     O        0.51137    0.48863    0.19563    1.000
    C237     C        0.53952    0.46048    0.08133    1.000
    C238     C        0.53122    0.46878    0.94573    1.000
    H119     H        0.52892    0.47108    0.89963    1.000
    S22      S        0.06357    0.93643    0.88163    1.000
    S23      S        0.20805    0.79195    0.50443    1.000
    O372     O        0.17803    0.82197    0.52897    1.000
    C239     C        0.20618    0.79382    0.41467    1.000
    C240     C        0.19788    0.80212    0.27907    1.000
    H120     H        0.19558    0.80442    0.23297    1.000
    S24      S        0.73023    0.26977    0.21497    1.000
    S25      S        0.25056    0.12528    0.83776    1.000
    O373     O        0.31060    0.15530    0.86230    1.000
    C241     C        0.25430    0.12715    0.74800    1.000
    C242     C        0.27090    0.13545    0.61240    1.000
    H121     H        0.27550    0.13775    0.56630    1.000
    S26      S        0.20620    0.60310    0.54830    1.000
    S27      S        0.91723    0.45861    0.17109    1.000
    O374     O        0.97727    0.48863    0.19563    1.000
    C243     C        0.92097    0.46048    0.08133    1.000
    C244     C        0.93757    0.46878    0.94573    1.000
    H122     H        0.94217    0.47108    0.89963    1.000
    S28      S        0.87287    0.93643    0.88163    1.000
    S29      S        0.58389    0.79195    0.50443    1.000
    O375     O        0.64393    0.82197    0.52897    1.000
    C245     C        0.58763    0.79382    0.41467    1.000
    C246     C        0.60423    0.80212    0.27907    1.000
    H123     H        0.60883    0.80442    0.23297    1.000
    S30      S        0.53953    0.26977    0.21497    1.000
    S31      S        0.87472    0.74944    0.83776    1.000
    O376     O        0.84470    0.68940    0.86230    1.000
    C247     C        0.87285    0.74570    0.74800    1.000
    C248     C        0.86455    0.72910    0.61240    1.000
    H124     H        0.86225    0.72450    0.56630    1.000
    S32      S        0.39690    0.79380    0.54830    1.000
    S33      S        0.54139    0.08277    0.17109    1.000
    O377     O        0.51137    0.02273    0.19563    1.000
    C249     C        0.53952    0.07903    0.08133    1.000
    C250     C        0.53122    0.06243    0.94573    1.000
    H125     H        0.52892    0.05783    0.89963    1.000
    S34      S        0.06357    0.12713    0.88163    1.000
    S35      S        0.20805    0.41611    0.50443    1.000
    O378     O        0.17803    0.35607    0.52897    1.000
    C251     C        0.20618    0.41237    0.41467    1.000
    C252     C        0.19788    0.39577    0.27907    1.000
    H126     H        0.19558    0.39117    0.23297    1.000
    S36      S        0.73023    0.46047    0.21497    1.000
    S37      S        0.58633    0.17266    0.41313    1.000
    C253     C        0.51979    0.03958    0.57240    1.000
    H127     H        0.50550    0.01100    0.60380    1.000
    C254     C        0.56160    0.12320    0.47820    1.000
    S38      S        0.25300    0.50599    0.74646    1.000
    C255     C        0.18646    0.37291    0.90573    1.000
    H128     H        0.17217    0.34433    0.93713    1.000
    C256     C        0.22827    0.45653    0.81153    1.000
    S39      S        0.91966    0.83933    0.07980    1.000
    C257     C        0.85312    0.70625    0.23907    1.000
    H129     H        0.83883    0.67767    0.27047    1.000
    C258     C        0.89493    0.78987    0.14487    1.000
    S40      S        0.82734    0.41367    0.41313    1.000
    C259     C        0.96042    0.48021    0.57240    1.000
    H130     H        0.98900    0.49450    0.60380    1.000
    C260     C        0.87680    0.43840    0.47820    1.000
    S41      S        0.49401    0.74700    0.74646    1.000
    C261     C        0.62709    0.81354    0.90573    1.000
    H131     H        0.65567    0.82783    0.93713    1.000
    C262     C        0.54347    0.77173    0.81153    1.000
    S42      S        0.16067    0.08034    0.07980    1.000
    C263     C        0.29375    0.14688    0.23907    1.000
    H132     H        0.32233    0.16117    0.27047    1.000
    C264     C        0.21013    0.10507    0.14487    1.000
    S43      S        0.58633    0.41367    0.41313    1.000
    C265     C        0.51979    0.48021    0.57240    1.000
    H133     H        0.50550    0.49450    0.60380    1.000
    C266     C        0.56160    0.43840    0.47820    1.000
    S44      S        0.25300    0.74700    0.74646    1.000
    C267     C        0.18646    0.81354    0.90573    1.000
    H134     H        0.17217    0.82783    0.93713    1.000
    C268     C        0.22827    0.77173    0.81153    1.000
    S45      S        0.91966    0.08034    0.07980    1.000
    C269     C        0.85312    0.14688    0.23907    1.000
    H135     H        0.83883    0.16117    0.27047    1.000
    C270     C        0.89493    0.10507    0.14487    1.000
    S46      S        0.17266    0.58633    0.58687    1.000
    C271     C        0.03958    0.51979    0.42760    1.000
    H136     H        0.01100    0.50550    0.39620    1.000
    C272     C        0.12320    0.56160    0.52180    1.000
    S47      S        0.83933    0.91966    0.92020    1.000
    C273     C        0.70625    0.85312    0.76093    1.000
    H137     H        0.67767    0.83883    0.72953    1.000
    C274     C        0.78987    0.89493    0.85513    1.000
    S48      S        0.50599    0.25300    0.25354    1.000
    C275     C        0.37291    0.18646    0.09427    1.000
    H138     H        0.34433    0.17217    0.06287    1.000
    C276     C        0.45653    0.22827    0.18847    1.000
    S49      S        0.41367    0.82734    0.58687    1.000
    C277     C        0.48021    0.96042    0.42760    1.000
    H139     H        0.49450    0.98900    0.39620    1.000
    C278     C        0.43840    0.87680    0.52180    1.000
    S50      S        0.08034    0.16067    0.92020    1.000
    C279     C        0.14688    0.29375    0.76093    1.000
    H140     H        0.16117    0.32233    0.72953    1.000
    C280     C        0.10507    0.21013    0.85513    1.000
    S51      S        0.74700    0.49401    0.25354    1.000
    C281     C        0.81354    0.62709    0.09427    1.000
    H141     H        0.82783    0.65567    0.06287    1.000
    C282     C        0.77173    0.54347    0.18847    1.000
    S52      S        0.41367    0.58633    0.58687    1.000
    C283     C        0.48021    0.51979    0.42760    1.000
    H142     H        0.49450    0.50550    0.39620    1.000
    C284     C        0.43840    0.56160    0.52180    1.000
    S53      S        0.08034    0.91966    0.92020    1.000
    C285     C        0.14688    0.85312    0.76093    1.000
    H143     H        0.16117    0.83883    0.72953    1.000
    C286     C        0.10507    0.89493    0.85513    1.000
    S54      S        0.74700    0.25300    0.25354    1.000
    C287     C        0.81354    0.18646    0.09427    1.000
    H144     H        0.82783    0.17217    0.06287    1.000
    C288     C        0.77173    0.22827    0.18847    1.000
