data_functionalizedCrystal
_audit_creation_method	'EQeq! by Chris Wilmer'
_symmetry_space_group_name_H-M	'P1'
_symmetry_Int_Tables_number	1
_symmetry_cell_setting	triclinic
loop_
_symmetry_equiv_pos_as_xyz
  x,y,z
_cell_length_a	12.7745
_cell_length_b	14.18
_cell_length_c	14.5221
_cell_angle_alpha	70.86
_cell_angle_beta	88.158
_cell_angle_gamma	73.63
loop_
_atom_site_label
_atom_site_type_symbol
_atom_site_fract_x
_atom_site_fract_y
_atom_site_fract_z
_atom_site_charge
Mof_C 	C 	0.5467	0.1032	0.5376	-0.427
Mof_C 	C 	0.5696	0.0674	0.6256	0.071
Mof_C 	C 	0.5968	0.0296	0.7304	-0.057
Mof_C 	C 	0.5399	0.0838	0.7877	-0.013
Mof_H 	H 	0.4822	0.1435	0.7602	0.013
Mof_C 	C 	0.5688	0.0493	0.8869	-0.017
Mof_H 	H 	0.5317	0.088	0.9249	0.07
Mof_C 	C 	0.6491	0.9614	0.9296	-0.018
Mof_H 	H 	0.6636	0.9369	0.997	0.117
Mof_C 	C 	0.7111	0.9066	0.8713	-0.02
Mof_H 	H 	0.7692	0.8474	0.8995	0.133
Mof_C 	C 	0.6845	0.9418	0.7715	-0.019
Mof_H 	H 	0.7254	0.9067	0.7323	0.077
Mof_C 	C 	0.4141	0.4034	0.5494	-0.444
Mof_C 	C 	0.3207	0.4563	0.5223	0.063
Mof_C 	C 	0.2081	0.5187	0.4968	-0.07
Mof_C 	C 	0.1652	0.5625	0.4012	0.016
Mof_H 	H 	0.2091	0.5518	0.3511	0.073
Mof_C 	C 	0.0578	0.6221	0.3797	-0.079
Mof_H 	H 	0.0294	0.6514	0.3152	0.162
Mof_C 	C 	0.9926	0.6383	0.4531	0.036
Mof_H 	H 	0.9198	0.6777	0.4376	0.048
Mof_C 	C 	0.0322	0.5976	0.549	-0.083
Mof_H 	H 	0.9874	0.6107	0.5978	0.132
Mof_C 	C 	0.1412	0.5361	0.5723	0.016
Mof_H 	H 	0.1692	0.507	0.637	0.06
Mof_C 	C 	0.814	0.2164	0.5425	0.093
Mof_H 	H 	0.7987	0.2553	0.4766	0.035
Mof_C 	C 	0.7955	0.153	0.6956	0.05
Mof_H 	H 	0.7651	0.1401	0.7559	0.07
Mof_C 	C 	0.8991	0.1063	0.6789	0.002
Mof_H 	H 	0.9521	0.0555	0.7252	0.14
Mof_C 	C 	0.0089	0.1236	0.5269	-0.066
Mof_H 	H 	0.0691	0.1361	0.5554	0.09
Mof_H 	H 	0.9943	0.1705	0.4599	0.117
Mof_C 	C 	0.0428	0.0119	0.5269	-0.104
Mof_H 	H 	0.0547	0.9649	0.5939	0.141
Mof_H 	H 	0.1115	0.999	0.4962	0.093
Mof_C 	C 	0.5344	0.1774	0.1691	0.061
Mof_H 	H 	0.5769	0.1086	0.1838	0.075
Mof_C 	C 	0.4962	0.2451	0.0771	0.035
Mof_H 	H 	0.5091	0.2323	0.0183	0.074
Mof_C 	C 	0.4408	0.3217	0.185	0.139
Mof_H 	H 	0.4071	0.3724	0.2125	0.016
Mof_C 	C 	0.3845	0.4332	0.0124	-0.09
Mof_H 	H 	0.3304	0.4781	0.0396	0.17
Mof_H 	H 	0.347	0.4189	0.9637	0.118
Mof_C 	C 	0.466	0.4894	0.9635	-0.082
Mof_H 	H 	0.4272	0.5552	0.9152	0.123
Mof_H 	H 	0.515	0.448	0.9297	0.098
Mof_C 	C 	0.2355	0.2775	0.351	0.112
Mof_C 	C 	0.1616	0.3368	0.2572	0.824
Mof_C 	C 	0.263	0.102	0.6789	0.133
Mof_C 	C 	0.2025	0.0723	0.7743	0.823
Mof_C 	C 	0.3283	0.6178	0.7132	0.139
Mof_C 	C 	0.2418	0.7034	0.7388	0.815
Mof_C 	C 	0.644	0.3556	0.8125	0.091
Mof_C 	C 	0.7446	0.3028	0.8858	0.973
Mof_N 	N 	0.744	0.2211	0.6102	-0.184
Mof_N 	N 	0.911	0.1476	0.5815	-0.094
Mof_N 	N 	0.5006	0.2263	0.235	-0.186
Mof_N 	N 	0.4354	0.3352	0.09	-0.094
Mof_O 	O 	0.288	0.3264	0.3785	-0.273
Mof_O 	O 	0.2333	0.1852	0.3892	-0.244
Mof_O 	O 	0.2766	0.1915	0.6556	-0.25
Mof_O 	O 	0.2902	0.0354	0.6382	-0.241
Mof_O 	O 	0.3863	0.6482	0.6444	-0.314
Mof_O 	O 	0.3272	0.5282	0.759	-0.236
Mof_O 	O 	0.6401	0.4431	0.7563	-0.241
Mof_O 	O 	0.5807	0.3027	0.8188	-0.253
Mof_F 	F 	0.1397	0.439	0.2335	-0.436
Mof_F 	F 	0.0668	0.3152	0.2619	-0.417
Mof_F 	F 	0.2078	0.3136	0.182	-0.463
Mof_F 	F 	0.1621	0.9938	0.7822	-0.414
Mof_F 	F 	0.2716	0.0431	0.8516	-0.463
Mof_F 	F 	0.1185	0.1503	0.7788	-0.444
Mof_F 	F 	0.2554	0.699	0.829	-0.317
Mof_F 	F 	0.2466	0.8007	0.687	-0.473
Mof_F 	F 	0.1417	0.7071	0.7114	-0.417
Mof_F 	F 	0.8355	0.2937	0.8447	-0.46
Mof_F 	F 	0.7563	0.2038	0.9325	-0.421
Mof_F 	F 	0.7219	0.321	0.9637	-0.319
Mof_Ag	Ag	0.37743	0.05693	0.49154	0.435
Mof_Ag	Ag	0.53222	0.16917	0.3883	0.564
Mof_Ag	Ag	0.38929	0.24682	0.52866	0.48
Mof_Ag	Ag	0.57744	0.31207	0.58077	0.378
Mof_Ag	Ag	0.42368	0.38225	0.71643	0.565
Mof_Ag	Ag	0.53858	0.53124	0.61184	0.453
Mof_F 	F 	0.214	0.666	0.837	-0.141
Mof_F 	F 	0.7613	0.356	0.939	-0.232
Mof_C 	C 	0.4533	0.8968	0.4624	-0.426
Mof_C 	C 	0.4304	0.9326	0.3744	0.072
Mof_C 	C 	0.4032	0.9704	0.2696	-0.056
Mof_C 	C 	0.4601	0.9162	0.2123	-0.012
Mof_H 	H 	0.5178	0.8565	0.2398	0.014
Mof_C 	C 	0.4312	0.9507	0.1131	-0.016
Mof_H 	H 	0.4683	0.912	0.0751	0.071
Mof_C 	C 	0.3509	0.0386	0.0704	-0.017
Mof_H 	H 	0.3364	0.0631	0.003	0.117
Mof_C 	C 	0.2889	0.0934	0.1287	-0.02
Mof_H 	H 	0.2308	0.1526	0.1005	0.133
Mof_C 	C 	0.3155	0.0582	0.2285	-0.019
Mof_H 	H 	0.2746	0.0933	0.2677	0.077
Mof_C 	C 	0.5859	0.5966	0.4506	-0.444
Mof_C 	C 	0.6793	0.5437	0.4777	0.063
Mof_C 	C 	0.7919	0.4813	0.5032	-0.07
Mof_C 	C 	0.8348	0.4375	0.5988	0.016
Mof_H 	H 	0.7909	0.4482	0.6489	0.073
Mof_C 	C 	0.9422	0.3779	0.6203	-0.079
Mof_H 	H 	0.9706	0.3486	0.6848	0.162
Mof_C 	C 	0.0074	0.3617	0.5469	0.036
Mof_H 	H 	0.0802	0.3223	0.5624	0.048
Mof_C 	C 	0.9678	0.4024	0.451	-0.083
Mof_H 	H 	0.0126	0.3893	0.4022	0.132
Mof_C 	C 	0.8588	0.4639	0.4277	0.016
Mof_H 	H 	0.8308	0.493	0.363	0.06
Mof_C 	C 	0.186	0.7836	0.4575	0.093
Mof_H 	H 	0.2013	0.7447	0.5234	0.035
Mof_C 	C 	0.2045	0.847	0.3044	0.05
Mof_H 	H 	0.2349	0.8599	0.2441	0.07
Mof_C 	C 	0.1009	0.8937	0.3211	0.002
Mof_H 	H 	0.0479	0.9445	0.2748	0.14
Mof_C 	C 	0.9911	0.8764	0.4731	-0.066
Mof_H 	H 	0.9309	0.8639	0.4446	0.09
Mof_H 	H 	0.0057	0.8295	0.5401	0.117
Mof_C 	C 	0.9572	0.9881	0.4731	-0.104
Mof_H 	H 	0.9453	0.0351	0.4061	0.141
Mof_H 	H 	0.8885	0.001	0.5038	0.093
Mof_C 	C 	0.4656	0.8226	0.8309	0.061
Mof_H 	H 	0.4231	0.8914	0.8162	0.075
Mof_C 	C 	0.5038	0.7549	0.9229	0.035
Mof_H 	H 	0.4909	0.7677	0.9817	0.074
Mof_C 	C 	0.5592	0.6783	0.815	0.139
Mof_H 	H 	0.5929	0.6276	0.7875	0.016
Mof_C 	C 	0.6155	0.5668	0.9876	-0.09
Mof_H 	H 	0.6696	0.5219	0.9604	0.17
Mof_H 	H 	0.653	0.5811	0.0363	0.118
Mof_C 	C 	0.534	0.5106	0.0365	-0.082
Mof_H 	H 	0.5728	0.4448	0.0848	0.123
Mof_H 	H 	0.485	0.552	0.0703	0.098
Mof_C 	C 	0.7645	0.7225	0.649	0.112
Mof_C 	C 	0.8384	0.6632	0.7428	0.824
Mof_C 	C 	0.737	0.898	0.3211	0.133
Mof_C 	C 	0.7975	0.9277	0.2257	0.823
Mof_C 	C 	0.6717	0.3822	0.2868	0.139
Mof_C 	C 	0.7582	0.2966	0.2612	0.815
Mof_C 	C 	0.356	0.6444	0.1875	0.091
Mof_C 	C 	0.2554	0.6972	0.1142	0.973
Mof_N 	N 	0.256	0.7789	0.3898	-0.184
Mof_N 	N 	0.089	0.8524	0.4185	-0.094
Mof_N 	N 	0.4994	0.7737	0.765	-0.186
Mof_N 	N 	0.5646	0.6648	0.91	-0.094
Mof_O 	O 	0.712	0.6736	0.6215	-0.273
Mof_O 	O 	0.7667	0.8148	0.6108	-0.244
Mof_O 	O 	0.7234	0.8085	0.3444	-0.25
Mof_O 	O 	0.7098	0.9646	0.3618	-0.241
Mof_O 	O 	0.6137	0.3518	0.3556	-0.314
Mof_O 	O 	0.6728	0.4718	0.241	-0.236
Mof_O 	O 	0.3599	0.5569	0.2437	-0.241
Mof_O 	O 	0.4193	0.6973	0.1812	-0.253
Mof_F 	F 	0.8603	0.561	0.7665	-0.436
Mof_F 	F 	0.9332	0.6848	0.7381	-0.417
Mof_F 	F 	0.7922	0.6864	0.818	-0.463
Mof_F 	F 	0.8379	0.0062	0.2178	-0.414
Mof_F 	F 	0.7284	0.9569	0.1484	-0.463
Mof_F 	F 	0.8815	0.8497	0.2212	-0.444
Mof_F 	F 	0.7446	0.301	0.171	-0.317
Mof_F 	F 	0.7534	0.1993	0.313	-0.473
Mof_F 	F 	0.8583	0.2929	0.2886	-0.417
Mof_F 	F 	0.1645	0.7063	0.1553	-0.46
Mof_F 	F 	0.2437	0.7962	0.0675	-0.421
Mof_F 	F 	0.2781	0.679	0.0363	-0.319
Mof_Ag	Ag	0.62257	0.94307	0.50846	0.435
Mof_Ag	Ag	0.46778	0.83083	0.6117	0.564
Mof_Ag	Ag	0.61071	0.75318	0.47134	0.48
Mof_Ag	Ag	0.42256	0.68793	0.41923	0.378
Mof_Ag	Ag	0.57632	0.61775	0.28357	0.565
Mof_Ag	Ag	0.46142	0.46876	0.38816	0.453
Mof_F 	F 	0.786	0.334	0.163	-0.141
Mof_F 	F 	0.2387	0.644	0.061	-0.232
_end
