data_functionalizedCrystal
_audit_creation_method	'EQeq! by Chris Wilmer'
_symmetry_space_group_name_H-M	'P1'
_symmetry_Int_Tables_number	1
_symmetry_cell_setting	triclinic
loop_
_symmetry_equiv_pos_as_xyz
  x,y,z
_cell_length_a	17.3266
_cell_length_b	21.9786
_cell_length_c	23.2172
_cell_angle_alpha	99.59
_cell_angle_beta	108.832
_cell_angle_gamma	107.228
loop_
_atom_site_label
_atom_site_type_symbol
_atom_site_fract_x
_atom_site_fract_y
_atom_site_fract_z
_atom_site_charge
Mof_Ag	Ag	0.07168	0.87655	0.17179	0.609
Mof_N 	N 	0.1919	0.88446	0.26521	-0.186
Mof_N 	N 	0.01	0.76471	0.13771	-0.198
Mof_N 	N 	0.0309	0.96442	0.18317	-0.198
Mof_N 	N 	0.163	0.91056	0.11276	-0.184
Mof_C 	C 	0.2288	0.8389	0.2602	0.066
Mof_C 	C 	0.2236	0.9276	0.3218	0.076
Mof_C 	C 	0.9633	0.7289	0.1643	0.071
Mof_C 	C 	0.0286	0.7314	0.0934	0.064
Mof_C 	C 	0.2966	0.8366	0.3098	-0.114
Mof_H 	H 	0.2069	0.8066	0.2202	-0.003
Mof_H 	H 	0.199	0.9606	0.3262	0.003
Mof_C 	C 	0.2894	0.9287	0.3748	-0.122
Mof_C 	C 	0.9335	0.6603	0.1492	-0.113
Mof_H 	H 	0.9496	0.7519	0.1956	-0.011
Mof_H 	H 	0.0616	0.7561	0.0736	-0.006
Mof_C 	C 	0.0018	0.6627	0.0752	-0.116
Mof_C 	C 	0.3279	0.8818	0.36884	0.036
Mof_H 	H 	0.3216	0.8042	0.3036	0.083
Mof_H 	H 	0.3082	0.9605	0.4145	0.075
Mof_C 	C 	0.9542	0.626	0.1036	0.031
Mof_H 	H 	0.8998	0.6369	0.1693	0.076
Mof_H 	H 	0.0161	0.6411	0.0434	0.064
Mof_C 	C 	0.3982	0.8803	0.4236	0.126
Mof_C 	C 	0.9213	0.5536	0.082	0.126
Mof_O 	O 	0.43735	0.83684	0.40972	-0.221
Mof_C 	C 	0.4319	0.9122	0.4866	-0.15
Mof_O 	O 	0.8864	0.5209	0.11901	-0.23
Mof_C 	C 	0.9116	0.5088	0.0293	-0.15
Mof_C 	C 	0.499	0.8422	0.46726	0.088
Mof_C 	C 	0.4976	0.8873	0.5162	0.053
Mof_H 	H 	0.4154	0.9445	0.5069	0.085
Mof_C 	C 	0.8517	0.4546	0.0869	0.092
Mof_H 	H 	0.9323	0.519	0.9975	0.08
Mof_C 	C 	0.8651	0.4445	0.0305	0.051
Mof_C 	C 	0.555	0.8084	0.47616	-0.012
Mof_C 	C 	0.5554	0.8968	0.57786	-0.121
Mof_C 	C 	0.8046	0.40448	0.1038	-0.025
Mof_C 	C 	0.8283	0.3799	0.9907	-0.119
Mof_N 	N 	0.6106	0.81811	0.53513	-0.181
Mof_H 	H 	0.5542	0.7786	0.441	0.044
Mof_C 	C 	0.6093	0.86096	0.58561	0.055
Mof_H 	H 	0.5576	0.927	0.6133	0.071
Mof_N 	N 	0.7653	0.34154	0.0633	-0.183
Mof_H 	H 	0.7993	0.4133	0.1436	0.042
Mof_H 	H 	0.8377	0.3699	0.9526	0.067
Mof_C 	C 	0.7772	0.3301	0.0079	0.053
Mof_Fe	Fe	0.70133	0.77885	0.56034	0.768
Mof_C 	C 	0.67	0.86292	0.64719	0.065
Mof_Fe	Fe	0.67591	0.26649	0.07026	0.77
Mof_C 	C 	0.7258	0.2613	0.9672	0.071
Mof_N 	N 	0.7912	0.7489	0.61156	-0.184
Mof_N 	N 	0.7148	0.82288	0.64161	-0.213
Mof_N 	N 	0.608	0.69192	0.54245	-0.182
Mof_N 	N 	0.691	0.73797	0.47848	-0.214
Mof_N 	N 	0.7861	0.8546	0.55043	-0.184
Mof_C 	C 	0.6842	0.8999	0.70747	-0.114
Mof_N 	N 	0.761	0.23471	0.12385	-0.183
Mof_N 	N 	0.685	0.30996	0.1507	-0.214
Mof_N 	N 	0.5896	0.3089	0.04262	-0.182
Mof_N 	N 	0.6724	0.22641	0.99072	-0.215
Mof_N 	N 	0.5797	0.1809	0.0488	-0.184
Mof_C 	C 	0.727	0.232	0.9095	-0.12
Mof_C 	C 	0.82	0.70411	0.58862	-0.018
Mof_C 	C 	0.8157	0.7719	0.67598	0.056
Mof_C 	C 	0.7747	0.8181	0.6937	0.065
Mof_C 	C 	0.5677	0.6747	0.58107	-0.019
Mof_C 	C 	0.5807	0.6496	0.48297	0.054
Mof_C 	C 	0.6321	0.67619	0.44739	0.071
Mof_C 	C 	0.741	0.7732	0.4522	0.068
Mof_C 	C 	0.7934	0.84222	0.49241	0.051
Mof_C 	C 	0.8234	0.9167	0.58861	-0.018
Mof_C 	C 	0.7436	0.8939	0.7604	0.033
Mof_H 	H 	0.6534	0.9286	0.7119	0.064
Mof_C 	C 	0.7923	0.1906	0.1032	-0.02
Mof_C 	C 	0.7815	0.25718	0.18816	0.053
Mof_C 	C 	0.7411	0.30358	0.20319	0.066
Mof_C 	C 	0.6405	0.35	0.15469	0.068
Mof_C 	C 	0.5856	0.35048	0.09155	0.055
Mof_C 	C 	0.5403	0.3017	0.9823	-0.015
Mof_C 	C 	0.6152	0.1637	0.9583	0.072
Mof_C 	C 	0.5586	0.1369	0.9912	0.054
Mof_C 	C 	0.5313	0.164	0.08299	-0.018
Mof_H 	H 	0.7659	0.2563	0.8931	0.066
Mof_C 	C 	0.671	0.1674	0.8768	0.044
Mof_H 	H 	0.8051	0.6886	0.5443	0.041
Mof_C 	C 	0.8718	0.681	0.631	0.086
Mof_C 	C 	0.8687	0.7509	0.7196	-0.123
Mof_C 	C 	0.7904	0.8533	0.7542	-0.112
Mof_H 	H 	0.5871	0.703	0.6227	0.046
Mof_C 	C 	0.4976	0.6149	0.5589	0.097
Mof_C 	C 	0.5103	0.5896	0.459	-0.117
Mof_C 	C 	0.6223	0.6444	0.387	-0.115
Mof_C 	C 	0.7355	0.745	0.3924	-0.118
Mof_C 	C 	0.8394	0.891	0.4722	-0.121
Mof_C 	C 	0.8667	0.96687	0.5691	0.091
Mof_H 	H 	0.82	0.9262	0.629	0.041
Mof_H 	H 	0.7526	0.9178	0.8015	0.019
Mof_H 	H 	0.78	0.1755	0.0592	0.041
Mof_C 	C 	0.8429	0.1675	0.1466	0.091
Mof_C 	C 	0.8347	0.23721	0.23314	-0.119
Mof_C 	C 	0.7539	0.3384	0.2638	-0.113
Mof_C 	C 	0.6493	0.385	0.2132	-0.117
Mof_C 	C 	0.5345	0.3887	0.08175	-0.122
Mof_C 	C 	0.487	0.3376	0.97132	0.093
Mof_H 	H 	0.5421	0.2727	0.948	0.045
Mof_C 	C 	0.6139	0.1326	0.9011	-0.119
Mof_C 	C 	0.4896	0.0765	0.9654	-0.114
Mof_C 	C 	0.4632	0.1037	0.0591	0.092
Mof_H 	H 	0.5442	0.1933	0.1228	0.045
Mof_H 	H 	0.6711	0.1465	0.8376	0.015
Mof_O 	O 	0.9006	0.63146	0.61512	-0.231
Mof_C 	C 	0.8978	0.703	0.6963	0.055
Mof_H 	H 	0.885	0.7683	0.7639	0.074
Mof_H 	H 	0.8321	0.8498	0.7907	0.068
Mof_O 	O 	0.4484	0.59088	0.59061	-0.225
Mof_C 	C 	0.4658	0.5716	0.4982	0.053
Mof_H 	H 	0.4925	0.5615	0.4174	0.073
Mof_H 	H 	0.5808	0.6003	0.3647	0.069
Mof_C 	C 	0.6756	0.6796	0.3602	0.036
Mof_H 	H 	0.7711	0.7692	0.3738	0.066
Mof_H 	H 	0.8458	0.8804	0.433	0.071
Mof_C 	C 	0.8759	0.956	0.5112	0.05
Mof_O 	O 	0.8984	0.03244	0.59993	-0.231
Mof_O 	O 	0.8761	0.121	0.1327	-0.231
Mof_C 	C 	0.8654	0.1902	0.2119	0.051
Mof_H 	H 	0.8497	0.2551	0.2772	0.072
Mof_H 	H 	0.7935	0.3344	0.301	0.067
Mof_C 	C 	0.707	0.379	0.2679	0.033
Mof_H 	H 	0.6167	0.4125	0.2161	0.065
Mof_H 	H 	0.5339	0.4179	0.1166	0.071
Mof_C 	C 	0.4842	0.3832	0.01941	0.052
Mof_O 	O 	0.4328	0.33552	0.91292	-0.223
Mof_H 	H 	0.5746	0.088	0.8786	0.072
Mof_H 	H 	0.4768	0.0478	0.9253	0.073
Mof_C 	C 	0.4383	0.0589	0.0008	0.047
Mof_O 	O 	0.4082	0.07935	0.08826	-0.22
Mof_C 	C 	0.9457	0.6231	0.6725	0.127
Mof_C 	C 	0.9457	0.6642	0.7223	-0.152
Mof_C 	C 	0.3822	0.5324	0.5483	0.126
Mof_C 	C 	0.3905	0.5184	0.4924	-0.149
Mof_H 	H 	0.6712	0.6588	0.3193	0.016
Mof_C 	C 	0.9176	0.0205	0.5067	-0.15
Mof_C 	C 	0.9289	0.0642	0.5601	0.122
Mof_C 	C 	0.9198	0.1127	0.1911	0.125
Mof_C 	C 	0.9164	0.1531	0.2397	-0.149
Mof_H 	H 	0.7141	0.4031	0.3085	0.02
Mof_C 	C 	0.4248	0.4114	0.9872	-0.153
Mof_C 	C 	0.3961	0.3819	0.925	0.128
Mof_C 	C 	0.362	0.0043	0.9927	-0.137
Mof_C 	C 	0.3468	0.0186	0.0466	0.117
Mof_C 	C 	0.9782	0.569	0.6691	0.033
Mof_H 	H 	0.9721	0.6669	0.7659	0.084
Mof_C 	C 	0.3198	0.4962	0.5718	0.039
Mof_H 	H 	0.3536	0.4807	0.4565	0.087
Mof_H 	H 	0.9341	0.0307	0.4731	0.083
Mof_C 	C 	0.9647	0.1372	0.5835	0.038
Mof_C 	C 	0.961	0.0636	0.1884	0.032
Mof_H 	H 	0.9424	0.1567	0.2835	0.083
Mof_H 	H 	0.4087	0.4448	0.0063	0.086
Mof_C 	C 	0.3304	0.38536	0.86823	0.035
Mof_H 	H 	0.3287	0.9659	0.957	0.085
Mof_C 	C 	0.2833	0.9827	0.069	0.043
Mof_C 	C 	0.9756	0.5338	0.6139	-0.115
Mof_C 	C 	0.0137	0.5516	0.7237	-0.115
Mof_C 	C 	0.3397	0.504	0.6356	-0.117
Mof_C 	C 	0.2367	0.4521	0.529	-0.128
Mof_C 	C 	0.9619	0.1702	0.6372	-0.117
Mof_C 	C 	0.0026	0.1744	0.5494	-0.125
Mof_C 	C 	0.9746	0.0391	0.1352	-0.114
Mof_C 	C 	0.986	0.0388	0.2402	-0.118
Mof_C 	C 	0.2897	0.3335	0.8127	-0.113
Mof_C 	C 	0.3086	0.4415	0.8692	-0.119
Mof_C 	C 	0.3033	0.994	0.1336	-0.117
Mof_C 	C 	0.2015	0.9357	0.0267	-0.129
Mof_H 	H 	0.9521	0.5443	0.5755	0.077
Mof_C 	C 	0.0071	0.4832	0.6134	0.07
Mof_C 	C 	0.0425	0.4995	0.7195	0.069
Mof_H 	H 	0.0182	0.5754	0.7635	0.069
Mof_H 	H 	0.3954	0.5345	0.6664	0.078
Mof_C 	C 	0.2769	0.4664	0.6542	0.067
Mof_C 	C 	0.1781	0.4182	0.5512	0.079
Mof_H 	H 	0.2207	0.4456	0.4846	0.085
Mof_H 	H 	0.9362	0.1462	0.6611	0.074
Mof_C 	C 	0.9969	0.239	0.6568	0.069
Mof_C 	C 	0.0361	0.2427	0.5724	0.074
Mof_H 	H 	0.0051	0.153	0.5114	0.07
Mof_H 	H 	0.96	0.0556	0.0995	0.076
Mof_C 	C 	0.0097	0.9902	0.1346	0.067
Mof_C 	C 	0.0194	0.9896	0.2346	0.071
Mof_H 	H 	0.98	0.0554	0.2783	0.069
Mof_H 	H 	0.3041	0.2949	0.8102	0.08
Mof_C 	C 	0.2276	0.3388	0.7608	0.062
Mof_C 	C 	0.247	0.4424	0.8153	0.07
Mof_H 	H 	0.3359	0.4783	0.9065	0.074
Mof_H 	H 	0.3575	0.0267	0.1642	0.08
Mof_C 	C 	0.2404	0.9554	0.1517	0.069
Mof_C 	C 	0.1444	0.9011	0.0503	0.076
Mof_H 	H 	0.1853	0.9275	0.9822	0.085
Mof_N 	N 	0.0403	0.4655	0.6656	-0.2
Mof_H 	H 	0.005	0.4597	0.5743	-0.01
Mof_H 	H 	0.0649	0.4873	0.757	0.002
Mof_N 	N 	0.1975	0.42545	0.61309	-0.187
Mof_H 	H 	0.2917	0.4704	0.6981	-0.006
Mof_H 	H 	0.1214	0.3883	0.5215	-0.002
Mof_N 	N 	0.034	0.27512	0.62512	-0.199
Mof_H 	H 	0.9944	0.2616	0.6945	-0.01
Mof_H 	H 	0.0621	0.268	0.5494	-0.008
Mof_H 	H 	0.0192	0.9741	0.0979	-0.006
Mof_H 	H 	0.0354	0.9725	0.2698	-0
Mof_N 	N 	0.2055	0.39232	0.76048	-0.185
Mof_H 	H 	0.1988	0.3024	0.7231	-0.003
Mof_H 	H 	0.2324	0.4809	0.8164	0.004
Mof_H 	H 	0.2549	0.9621	0.196	-0.007
Mof_H 	H 	0.089	0.8689	0.0209	-0.003
Mof_Ag	Ag	0.09824	0.38745	0.66252	0.617
Mof_Ag	Ag	0.92832	0.12345	0.82821	0.609
Mof_N 	N 	0.8081	0.11554	0.73479	-0.186
Mof_N 	N 	0.99	0.23529	0.86229	-0.198
Mof_N 	N 	0.9691	0.03558	0.81683	-0.198
Mof_N 	N 	0.837	0.08944	0.88724	-0.184
Mof_C 	C 	0.7712	0.1611	0.7398	0.066
Mof_C 	C 	0.7764	0.0724	0.6782	0.076
Mof_C 	C 	0.0367	0.2711	0.8357	0.071
Mof_C 	C 	0.9714	0.2686	0.9066	0.064
Mof_C 	C 	0.7034	0.1634	0.6902	-0.114
Mof_H 	H 	0.7931	0.1934	0.7798	-0.003
Mof_H 	H 	0.801	0.0394	0.6738	0.003
Mof_C 	C 	0.7106	0.0713	0.6252	-0.122
Mof_C 	C 	0.0665	0.3397	0.8508	-0.113
Mof_H 	H 	0.0504	0.2481	0.8044	-0.011
Mof_H 	H 	0.9384	0.2439	0.9264	-0.006
Mof_C 	C 	0.9982	0.3373	0.9248	-0.116
Mof_C 	C 	0.6721	0.1182	0.63116	0.036
Mof_H 	H 	0.6784	0.1958	0.6964	0.083
Mof_H 	H 	0.6918	0.0395	0.5855	0.075
Mof_C 	C 	0.0458	0.374	0.8964	0.031
Mof_H 	H 	0.1002	0.3631	0.8307	0.076
Mof_H 	H 	0.9839	0.3589	0.9566	0.064
Mof_C 	C 	0.6018	0.1197	0.5764	0.126
Mof_C 	C 	0.0787	0.4464	0.918	0.126
Mof_O 	O 	0.56265	0.16316	0.59028	-0.221
Mof_C 	C 	0.5681	0.0878	0.5134	-0.15
Mof_O 	O 	0.1136	0.4791	0.88099	-0.23
Mof_C 	C 	0.0884	0.4912	0.9707	-0.15
Mof_C 	C 	0.501	0.1578	0.53274	0.088
Mof_C 	C 	0.5024	0.1127	0.4838	0.053
Mof_H 	H 	0.5846	0.0555	0.4931	0.085
Mof_C 	C 	0.1483	0.5454	0.9131	0.092
Mof_H 	H 	0.0677	0.481	0.0025	0.08
Mof_C 	C 	0.1349	0.5555	0.9695	0.051
Mof_C 	C 	0.445	0.1916	0.52384	-0.012
Mof_C 	C 	0.4446	0.1032	0.42214	-0.121
Mof_C 	C 	0.1954	0.59552	0.8962	-0.025
Mof_C 	C 	0.1717	0.6201	0.0093	-0.119
Mof_N 	N 	0.3894	0.18189	0.46487	-0.181
Mof_H 	H 	0.4458	0.2214	0.559	0.044
Mof_C 	C 	0.3907	0.13904	0.41439	0.055
Mof_H 	H 	0.4424	0.073	0.3867	0.071
Mof_N 	N 	0.2347	0.65846	0.9367	-0.183
Mof_H 	H 	0.2007	0.5867	0.8564	0.042
Mof_H 	H 	0.1623	0.6301	0.0474	0.067
Mof_C 	C 	0.2228	0.6699	0.9921	0.053
Mof_Fe	Fe	0.29867	0.22115	0.43966	0.768
Mof_C 	C 	0.33	0.13708	0.35281	0.065
Mof_Fe	Fe	0.32409	0.73351	0.92974	0.77
Mof_C 	C 	0.2742	0.7387	0.0328	0.071
Mof_N 	N 	0.2088	0.2511	0.38844	-0.184
Mof_N 	N 	0.2852	0.17712	0.35839	-0.213
Mof_N 	N 	0.392	0.30808	0.45755	-0.182
Mof_N 	N 	0.309	0.26203	0.52152	-0.214
Mof_N 	N 	0.2139	0.1454	0.44957	-0.184
Mof_C 	C 	0.3158	0.1001	0.29253	-0.114
Mof_N 	N 	0.239	0.76529	0.87615	-0.183
Mof_N 	N 	0.315	0.69004	0.8493	-0.214
Mof_N 	N 	0.4104	0.6911	0.95738	-0.182
Mof_N 	N 	0.3276	0.77359	0.00928	-0.215
Mof_N 	N 	0.4203	0.8191	0.9512	-0.184
Mof_C 	C 	0.273	0.768	0.0905	-0.12
Mof_C 	C 	0.18	0.29589	0.41138	-0.018
Mof_C 	C 	0.1843	0.2281	0.32402	0.056
Mof_C 	C 	0.2253	0.1819	0.3063	0.065
Mof_C 	C 	0.4323	0.3253	0.41893	-0.019
Mof_C 	C 	0.4193	0.3504	0.51703	0.054
Mof_C 	C 	0.3679	0.32381	0.55261	0.071
Mof_C 	C 	0.259	0.2268	0.5478	0.068
Mof_C 	C 	0.2066	0.15778	0.50759	0.051
Mof_C 	C 	0.1766	0.0833	0.41139	-0.018
Mof_C 	C 	0.2564	0.1061	0.2396	0.033
Mof_H 	H 	0.3466	0.0714	0.2881	0.064
Mof_C 	C 	0.2077	0.8094	0.8968	-0.02
Mof_C 	C 	0.2185	0.74282	0.81184	0.053
Mof_C 	C 	0.2589	0.69642	0.79681	0.066
Mof_C 	C 	0.3595	0.65	0.84531	0.068
Mof_C 	C 	0.4144	0.64952	0.90845	0.055
Mof_C 	C 	0.4597	0.6983	0.0177	-0.015
Mof_C 	C 	0.3848	0.8363	0.0417	0.072
Mof_C 	C 	0.4414	0.8631	0.0088	0.054
Mof_C 	C 	0.4687	0.836	0.91701	-0.018
Mof_H 	H 	0.2341	0.7437	0.1069	0.066
Mof_C 	C 	0.329	0.8326	0.1232	0.044
Mof_H 	H 	0.1949	0.3114	0.4557	0.041
Mof_C 	C 	0.1282	0.319	0.369	0.086
Mof_C 	C 	0.1313	0.2491	0.2804	-0.123
Mof_C 	C 	0.2096	0.1467	0.2458	-0.112
Mof_H 	H 	0.4129	0.297	0.3773	0.046
Mof_C 	C 	0.5024	0.3851	0.4411	0.097
Mof_C 	C 	0.4897	0.4104	0.541	-0.117
Mof_C 	C 	0.3777	0.3556	0.613	-0.115
Mof_C 	C 	0.2645	0.255	0.6076	-0.118
Mof_C 	C 	0.1606	0.109	0.5278	-0.121
Mof_C 	C 	0.1333	0.03313	0.4309	0.091
Mof_H 	H 	0.18	0.0738	0.371	0.041
Mof_H 	H 	0.2474	0.0822	0.1985	0.019
Mof_H 	H 	0.22	0.8245	0.9408	0.041
Mof_C 	C 	0.1571	0.8325	0.8534	0.091
Mof_C 	C 	0.1653	0.76279	0.76686	-0.119
Mof_C 	C 	0.2461	0.6616	0.7362	-0.113
Mof_C 	C 	0.3507	0.615	0.7868	-0.117
Mof_C 	C 	0.4655	0.6113	0.91825	-0.122
Mof_C 	C 	0.513	0.6624	0.02868	0.093
Mof_H 	H 	0.4579	0.7273	0.052	0.045
Mof_C 	C 	0.3861	0.8674	0.0989	-0.119
Mof_C 	C 	0.5104	0.9235	0.0346	-0.114
Mof_C 	C 	0.5368	0.8963	0.9409	0.092
Mof_H 	H 	0.4558	0.8067	0.8772	0.045
Mof_H 	H 	0.3289	0.8535	0.1624	0.015
Mof_O 	O 	0.0994	0.36854	0.38488	-0.231
Mof_C 	C 	0.1022	0.297	0.3037	0.055
Mof_H 	H 	0.115	0.2317	0.2361	0.074
Mof_H 	H 	0.1679	0.1502	0.2093	0.068
Mof_O 	O 	0.5516	0.40912	0.40939	-0.225
Mof_C 	C 	0.5342	0.4284	0.5018	0.053
Mof_H 	H 	0.5075	0.4385	0.5826	0.073
Mof_H 	H 	0.4192	0.3997	0.6353	0.069
Mof_C 	C 	0.3244	0.3204	0.6398	0.036
Mof_H 	H 	0.2289	0.2308	0.6262	0.066
Mof_H 	H 	0.1542	0.1196	0.567	0.071
Mof_C 	C 	0.1241	0.044	0.4888	0.05
Mof_O 	O 	0.1016	0.96756	0.40007	-0.231
Mof_O 	O 	0.1239	0.879	0.8673	-0.231
Mof_C 	C 	0.1346	0.8098	0.7881	0.051
Mof_H 	H 	0.1503	0.7449	0.7228	0.072
Mof_H 	H 	0.2065	0.6656	0.699	0.067
Mof_C 	C 	0.293	0.621	0.7321	0.033
Mof_H 	H 	0.3833	0.5875	0.7839	0.065
Mof_H 	H 	0.4661	0.5821	0.8834	0.071
Mof_C 	C 	0.5158	0.6168	0.98059	0.052
Mof_O 	O 	0.5672	0.66448	0.08708	-0.223
Mof_H 	H 	0.4254	0.912	0.1214	0.072
Mof_H 	H 	0.5232	0.9522	0.0747	0.073
Mof_C 	C 	0.5617	0.9411	0.9992	0.047
Mof_O 	O 	0.5918	0.92065	0.91174	-0.22
Mof_C 	C 	0.0543	0.3769	0.3275	0.127
Mof_C 	C 	0.0543	0.3358	0.2777	-0.152
Mof_C 	C 	0.6178	0.4676	0.4517	0.126
Mof_C 	C 	0.6095	0.4816	0.5076	-0.149
Mof_H 	H 	0.3288	0.3412	0.6807	0.016
Mof_C 	C 	0.0824	0.9795	0.4933	-0.15
Mof_C 	C 	0.0711	0.9358	0.4399	0.122
Mof_C 	C 	0.0802	0.8873	0.8089	0.125
Mof_C 	C 	0.0836	0.8469	0.7603	-0.149
Mof_H 	H 	0.2859	0.5969	0.6915	0.02
Mof_C 	C 	0.5752	0.5886	0.0128	-0.153
Mof_C 	C 	0.6039	0.6181	0.075	0.128
Mof_C 	C 	0.638	0.9957	0.0073	-0.137
Mof_C 	C 	0.6532	0.9814	0.9534	0.117
Mof_C 	C 	0.0218	0.431	0.3309	0.033
Mof_H 	H 	0.0279	0.3331	0.2341	0.084
Mof_C 	C 	0.6802	0.5038	0.4282	0.039
Mof_H 	H 	0.6464	0.5193	0.5435	0.087
Mof_H 	H 	0.0659	0.9693	0.5269	0.083
Mof_C 	C 	0.0353	0.8628	0.4165	0.038
Mof_C 	C 	0.039	0.9364	0.8116	0.032
Mof_H 	H 	0.0576	0.8433	0.7165	0.083
Mof_H 	H 	0.5913	0.5552	0.9937	0.086
Mof_C 	C 	0.6696	0.61464	0.13177	0.035
Mof_H 	H 	0.6713	0.0341	0.043	0.085
Mof_C 	C 	0.7167	0.0173	0.931	0.043
Mof_C 	C 	0.0244	0.4662	0.3861	-0.115
Mof_C 	C 	0.9863	0.4484	0.2763	-0.115
Mof_C 	C 	0.6603	0.496	0.3644	-0.117
Mof_C 	C 	0.7633	0.5479	0.471	-0.128
Mof_C 	C 	0.0381	0.8298	0.3628	-0.117
Mof_C 	C 	0.9974	0.8256	0.4506	-0.125
Mof_C 	C 	0.0254	0.9609	0.8648	-0.114
Mof_C 	C 	0.014	0.9612	0.7598	-0.118
Mof_C 	C 	0.7103	0.6665	0.1873	-0.113
Mof_C 	C 	0.6914	0.5585	0.1308	-0.119
Mof_C 	C 	0.6967	0.006	0.8664	-0.117
Mof_C 	C 	0.7985	0.0643	0.9733	-0.129
Mof_H 	H 	0.0479	0.4557	0.4245	0.077
Mof_C 	C 	0.9929	0.5168	0.3866	0.07
Mof_C 	C 	0.9575	0.5005	0.2805	0.069
Mof_H 	H 	0.9818	0.4246	0.2365	0.069
Mof_H 	H 	0.6046	0.4655	0.3336	0.078
Mof_C 	C 	0.7231	0.5336	0.3458	0.067
Mof_C 	C 	0.8219	0.5818	0.4488	0.079
Mof_H 	H 	0.7793	0.5544	0.5154	0.085
Mof_H 	H 	0.0638	0.8538	0.3389	0.074
Mof_C 	C 	0.0031	0.761	0.3432	0.069
Mof_C 	C 	0.9639	0.7573	0.4276	0.074
Mof_H 	H 	0.9949	0.847	0.4886	0.07
Mof_H 	H 	0.04	0.9444	0.9005	0.076
Mof_C 	C 	0.9903	0.0098	0.8654	0.067
Mof_C 	C 	0.9806	0.0104	0.7654	0.071
Mof_H 	H 	0.02	0.9446	0.7217	0.069
Mof_H 	H 	0.6959	0.7051	0.1898	0.08
Mof_C 	C 	0.7724	0.6612	0.2392	0.062
Mof_C 	C 	0.753	0.5576	0.1847	0.07
Mof_H 	H 	0.6641	0.5217	0.0935	0.074
Mof_H 	H 	0.6425	0.9733	0.8358	0.08
Mof_C 	C 	0.7596	0.0446	0.8483	0.069
Mof_C 	C 	0.8556	0.0989	0.9497	0.076
Mof_H 	H 	0.8147	0.0725	0.0178	0.085
Mof_N 	N 	0.9597	0.5345	0.3344	-0.2
Mof_H 	H 	0.995	0.5403	0.4257	-0.01
Mof_H 	H 	0.9351	0.5127	0.243	0.002
Mof_N 	N 	0.8025	0.57455	0.38691	-0.187
Mof_H 	H 	0.7083	0.5296	0.3019	-0.006
Mof_H 	H 	0.8786	0.6117	0.4785	-0.002
Mof_N 	N 	0.966	0.72488	0.37488	-0.199
Mof_H 	H 	0.0056	0.7384	0.3055	-0.01
Mof_H 	H 	0.9379	0.732	0.4506	-0.008
Mof_H 	H 	0.9808	0.0259	0.9021	-0.006
Mof_H 	H 	0.9646	0.0275	0.7302	-0
Mof_N 	N 	0.7945	0.60768	0.23952	-0.185
Mof_H 	H 	0.8012	0.6976	0.2769	-0.003
Mof_H 	H 	0.7676	0.5191	0.1836	0.004
Mof_H 	H 	0.7451	0.0379	0.804	-0.007
Mof_H 	H 	0.911	0.1311	0.9791	-0.003
Mof_Ag	Ag	0.90176	0.61255	0.33748	0.617
_end
