data_functionalizedCrystal
_audit_creation_method	'EQeq! by Chris Wilmer'
_symmetry_space_group_name_H-M	'P1'
_symmetry_Int_Tables_number	1
_symmetry_cell_setting	triclinic
loop_
_symmetry_equiv_pos_as_xyz
  x,y,z
_cell_length_a	16.4725
_cell_length_b	18.9713
_cell_length_c	19.232
_cell_angle_alpha	108.409
_cell_angle_beta	108.935
_cell_angle_gamma	106.424
loop_
_atom_site_label
_atom_site_type_symbol
_atom_site_fract_x
_atom_site_fract_y
_atom_site_fract_z
_atom_site_charge
Mof_Cd	Cd	0.91525	0.31524	0.66549	0.468
Mof_Cd	Cd	0.53216	0.29575	0.64122	0.362
Mof_Mo	Mo	0.82853	0.08975	0.5343	1.423
Mof_Mo	Mo	0.04351	0.08753	0.59139	1.476
Mof_Mo	Mo	0.88496	0.91422	0.56223	1.088
Mof_Mo	Mo	0.93028	0.12038	0.4212	0.977
Mof_Mo	Mo	0.78039	0.3569	0.79419	2.033
Mof_Mo	Mo	0.03932	0.5076	0.86553	1.525
Mof_Mo	Mo	0.0849	0.46479	0.03445	1.463
Mof_Mo	Mo	0.80099	0.34323	0.96011	1.048
Mof_C 	C 	0.6596	0.0259	0.9919	-0.004
Mof_C 	C 	0.7864	0.1538	0.1031	-0.004
Mof_C 	C 	0.6976	0.1121	0.0342	-0.003
Mof_C 	C 	0.8246	0.2469	0.1534	0.063
Mof_H 	H 	0.8908	0.2744	0.1666	-0.005
Mof_H 	H 	0.7884	0.2688	0.1228	-0.012
Mof_C 	C 	0.84	0.335	0.2815	0.325
Mof_C 	C 	0.855	0.4035	0.2683	-0.326
Mof_H 	H 	0.8517	0.4007	0.2182	0.115
Mof_C 	C 	0.8749	0.4765	0.3302	0.226
Mof_H 	H 	0.8835	0.5223	0.3203	-0.046
Mof_C 	C 	0.8828	0.485	0.4059	-0.304
Mof_H 	H 	0.8995	0.5358	0.4475	0.138
Mof_C 	C 	0.8649	0.4154	0.4177	0.262
Mof_C 	C 	0.847	0.3423	0.3584	-0.334
Mof_H 	H 	0.8395	0.2969	0.369	0.147
Mof_C 	C 	0.8518	0.4675	0.5497	0.114
Mof_H 	H 	0.8371	0.5103	0.5453	0.003
Mof_C 	C 	0.8873	0.3665	0.5246	0.128
Mof_H 	H 	0.902	0.3245	0.4999	-0.037
Mof_C 	C 	0.6423	0.1587	0.007	0.035
Mof_H 	H 	0.6852	0.2101	0.0136	-0.012
Mof_H 	H 	0.5959	0.1262	0.9495	0.036
Mof_C 	C 	0.602	0.2528	0.0967	0.233
Mof_C 	C 	0.6286	0.3171	0.0744	0.052
Mof_C 	C 	0.6189	0.3855	0.1112	0.075
Mof_C 	C 	0.6136	0.403	0.1825	-0.21
Mof_H 	H 	0.6125	0.4526	0.2099	0.113
Mof_C 	C 	0.6098	0.3475	0.2153	0.222
Mof_C 	C 	0.5991	0.2723	0.1703	-0.279
Mof_H 	H 	0.5896	0.2329	0.1894	0.155
Mof_N 	N 	0.8701	0.4181	0.4945	-0.186
Mof_N 	N 	0.8571	0.4481	0.6092	-0.106
Mof_N 	N 	0.8808	0.3823	0.5921	-0.134
Mof_N 	N 	0.6177	0.3688	0.2947	-0.156
Mof_C 	C 	0.614	0.4393	0.346	0.075
Mof_H 	H 	0.6082	0.4819	0.3338	0.01
Mof_N 	N 	0.6206	0.4333	0.4193	-0.086
Mof_N 	N 	0.6283	0.3592	0.4132	-0.081
Mof_C 	C 	0.6266	0.3193	0.3362	0.079
Mof_H 	H 	0.6305	0.2695	0.3165	0.017
Mof_O 	O 	0.8146	0.2586	0.2269	-0.276
Mof_O 	O 	0.5946	0.1747	0.0579	-0.225
Mof_O 	O 	0.824	0.1848	0.5556	-0.509
Mof_O 	O 	0.9804	0.149	0.5585	-0.6
Mof_O 	O 	0.8177	0.057	0.4292	-0.6
Mof_O 	O 	0.9196	0.8284	0.538	-0.615
Mof_O 	O 	0.0207	0.9735	0.5598	-0.67
Mof_O 	O 	0.144	0.1222	0.5771	-0.566
Mof_O 	O 	0.8959	0.0193	0.5616	-0.708
Mof_O 	O 	0.8032	0.3155	0.7126	-0.585
Mof_O 	O 	0.0302	0.4292	0.7823	-0.516
Mof_O 	O 	0.0474	0.5641	0.9878	-0.708
Mof_O 	O 	0.9111	0.4572	0.8545	-0.788
Mof_O 	O 	0.0667	0.4252	0.9321	-0.56
Mof_O 	O 	0.7969	0.4409	0.911	-0.672
Mof_O 	O 	0.8163	0.3063	0.8579	-0.684
Mof_O 	O 	0.1709	0.5696	0.9368	-0.613
Mof_O 	O 	0.6587	0.3113	0.7542	-0.618
Mof_C 	C 	0.8373	0.1119	0.13	-0.024
Mof_C 	C 	0.8033	0.0278	0.084	0.027
Mof_C 	C 	0.7105	0.9841	0.0156	-0.043
Mof_O 	O 	0.903	0.96	0.048	-0.085
Mof_C 	C 	0.8589	0.9815	0.1107	0.041
Mof_O 	O 	0.0014	0.1977	0.1914	-0.276
Mof_C 	C 	0.9292	0.1586	0.208	0.087
Mof_H 	H 	0.9235	0.1991	0.2496	0.003
Mof_H 	H 	0.9444	0.1211	0.2287	-0.024
Mof_C 	C 	0.9449	0.9136	0.0597	0.296
Mof_C 	C 	0.0836	0.2594	0.2585	0.298
Mof_C 	C 	0.9683	0.8856	0.9993	-0.31
Mof_H 	H 	0.952	0.8992	0.9558	0.161
Mof_C 	C 	0.0167	0.8366	0.0013	0.183
Mof_H 	H 	0.0314	0.8167	0.9585	-0.031
Mof_C 	C 	0.9706	0.8945	0.1258	-0.309
Mof_H 	H 	0.9542	0.9129	0.1678	0.113
Mof_C 	C 	0.2086	0.3922	0.3117	0.239
Mof_C 	C 	0.1266	0.3262	0.2462	-0.311
Mof_H 	H 	0.1009	0.3264	0.1955	0.122
Mof_C 	C 	0.0432	0.817	0.0659	-0.287
Mof_H 	H 	0.0752	0.7838	0.0672	0.096
Mof_C 	C 	0.2041	0.3247	0.3973	0.204
Mof_H 	H 	0.2308	0.3232	0.4471	-0.043
Mof_C 	C 	0.2483	0.3924	0.3879	-0.283
Mof_H 	H 	0.3033	0.437	0.4314	0.146
Mof_C 	C 	0.1212	0.2598	0.3338	-0.31
Mof_H 	H 	0.0905	0.2159	0.3418	0.108
Mof_N 	N 	0.247	0.4623	0.3013	-0.199
Mof_C 	C 	0.0213	0.8474	0.1268	0.23
Mof_N 	N 	0.0509	0.8322	0.1986	-0.2
Mof_C 	C 	0.042	0.761	0.201	0.122
Mof_H 	H 	0.0165	0.7107	0.1552	-0.005
Mof_C 	C 	0.0908	0.8875	0.2761	0.134
Mof_H 	H 	0.1053	0.9431	0.2934	-0.085
Mof_O 	O 	0.5542	0.9774	0.8481	-0.579
Mof_C 	C 	0.5536	0.9777	0.9225	0.118
Mof_N 	N 	0.1071	0.8535	0.3251	-0.219
Mof_N 	N 	0.0738	0.7721	0.276	-0.127
Mof_C 	C 	0.399	0.8637	0.6295	0.292
Mof_C 	C 	0.3893	0.9048	0.7777	-0.413
Mof_H 	H 	0.3855	0.9168	0.827	0.194
Mof_C 	C 	0.4742	0.926	0.7769	0.43
Mof_C 	C 	0.4823	0.9039	0.7035	-0.402
Mof_H 	H 	0.5414	0.9158	0.7041	0.18
Mof_N 	N 	0.4058	0.8438	0.5547	-0.194
Mof_C 	C 	0.3054	0.8635	0.7009	0.275
Mof_H 	H 	0.2462	0.8498	0.7001	-0.093
Mof_C 	C 	0.3115	0.8436	0.6278	-0.356
Mof_H 	H 	0.2567	0.8168	0.5779	0.148
Mof_C 	C 	0.4173	0.8896	0.5162	0.114
Mof_H 	H 	0.4198	0.9422	0.5345	-0.035
Mof_C 	C 	0.4063	0.7745	0.5071	0.109
Mof_H 	H 	0.3965	0.7282	0.5164	0.017
Mof_N 	N 	0.2541	0.5559	0.2573	-0.233
Mof_C 	C 	0.1977	0.487	0.2514	0.169
Mof_H 	H 	0.1326	0.4593	0.2173	-0.105
Mof_N 	N 	0.3444	0.5786	0.3164	-0.123
Mof_N 	N 	0.4225	0.7802	0.4452	-0.119
Mof_C 	C 	0.3376	0.5203	0.3387	0.113
Mof_H 	H 	0.3889	0.5185	0.3758	0.004
Mof_N 	N 	0.4248	0.8533	0.4493	-0.115
Mof_O 	O 	0.6203	0.8587	0.8763	-0.238
Mof_C 	C 	0.6746	0.8903	0.9646	0.209
Mof_N 	N 	0.6224	0.7616	0.617	-0.146
Mof_C 	C 	0.5728	0.678	0.5831	0.125
Mof_C 	C 	0.6736	0.8676	0.8339	0.133
Mof_C 	C 	0.765	0.9284	0.8672	-0.048
Mof_C 	C 	0.8099	0.933	0.8178	0.017
Mof_C 	C 	0.7635	0.8768	0.735	-0.079
Mof_C 	C 	0.6721	0.816	0.7017	0.081
Mof_C 	C 	0.6272	0.8114	0.7511	-0.06
Mof_N 	N 	0.5617	0.7055	0.479	-0.122
Mof_N 	N 	0.5332	0.6437	0.5054	-0.103
Mof_C 	C 	0.6118	0.7786	0.5516	0.047
Mof_O 	O 	0.569	0.952	0.848	0.29
Mof_C 	C 	0.588	0.296	0.05	-0.157
Mof_O 	O 	0.893	0.964	0.058	-0.141
Mof_O 	O 	0.9515	0.8383	0.5526	0.08
Mof_O 	O 	0.6659	0.8549	0.0166	-0.231
Mof_C 	C 	0.688	0.7848	0.0047	0.132
Mof_C 	C 	0.699	0.7434	0.9373	-0.037
Mof_C 	C 	0.727	0.6805	0.9343	-0.002
Mof_C 	C 	0.744	0.659	0.999	-0.065
Mof_C 	C 	0.733	0.7003	0.0659	0.08
Mof_C 	C 	0.704	0.7632	0.0689	-0.074
Mof_N 	N 	0.749	0.6832	0.1353	-0.15
Mof_N 	N 	0.74	0.6714	0.2455	-0.099
Mof_N 	N 	0.7927	0.631	0.2233	-0.093
Mof_C 	C 	0.7981	0.6383	0.1552	0.096
Mof_C 	C 	0.703	0.692	0.181	0.076
Mof_Cd	Cd	0.08475	0.68476	0.33451	0.467
Mof_Cd	Cd	0.46784	0.70425	0.35878	0.361
Mof_Mo	Mo	0.17147	0.91025	0.4657	1.422
Mof_Mo	Mo	0.95649	0.91247	0.40861	1.475
Mof_Mo	Mo	0.11504	0.08578	0.43777	1.087
Mof_Mo	Mo	0.06972	0.87962	0.5788	0.976
Mof_Mo	Mo	0.21961	0.6431	0.20581	2.032
Mof_Mo	Mo	0.96068	0.4924	0.13447	1.524
Mof_Mo	Mo	0.9151	0.53521	0.96555	1.463
Mof_Mo	Mo	0.19901	0.65677	0.03989	1.048
Mof_C 	C 	0.3404	0.9741	0.0081	-0.004
Mof_C 	C 	0.2136	0.8462	0.8969	-0.004
Mof_C 	C 	0.3024	0.8879	0.9658	-0.003
Mof_C 	C 	0.1754	0.7531	0.8466	0.063
Mof_H 	H 	0.1092	0.7256	0.8334	-0.005
Mof_H 	H 	0.2116	0.7312	0.8772	-0.012
Mof_C 	C 	0.16	0.665	0.7185	0.325
Mof_C 	C 	0.145	0.5965	0.7317	-0.326
Mof_H 	H 	0.1483	0.5993	0.7818	0.115
Mof_C 	C 	0.1251	0.5235	0.6698	0.226
Mof_H 	H 	0.1165	0.4777	0.6797	-0.046
Mof_C 	C 	0.1172	0.515	0.5941	-0.304
Mof_H 	H 	0.1005	0.4642	0.5525	0.138
Mof_C 	C 	0.1351	0.5846	0.5823	0.262
Mof_C 	C 	0.153	0.6577	0.6416	-0.334
Mof_H 	H 	0.1605	0.7031	0.631	0.147
Mof_C 	C 	0.1482	0.5325	0.4503	0.114
Mof_H 	H 	0.1629	0.4897	0.4547	0.003
Mof_C 	C 	0.1127	0.6335	0.4754	0.128
Mof_H 	H 	0.098	0.6755	0.5001	-0.037
Mof_C 	C 	0.3577	0.8413	0.993	0.035
Mof_H 	H 	0.3148	0.7899	0.9864	-0.012
Mof_H 	H 	0.4041	0.8738	0.0505	0.036
Mof_C 	C 	0.398	0.7472	0.9033	0.233
Mof_C 	C 	0.3714	0.6829	0.9256	0.052
Mof_C 	C 	0.3811	0.6145	0.8888	0.075
Mof_C 	C 	0.3864	0.597	0.8175	-0.21
Mof_H 	H 	0.3875	0.5474	0.7901	0.113
Mof_C 	C 	0.3902	0.6525	0.7847	0.222
Mof_C 	C 	0.4009	0.7277	0.8297	-0.279
Mof_H 	H 	0.4104	0.7671	0.8106	0.155
Mof_N 	N 	0.1299	0.5819	0.5055	-0.186
Mof_N 	N 	0.1429	0.5519	0.3908	-0.106
Mof_N 	N 	0.1192	0.6177	0.4079	-0.134
Mof_N 	N 	0.3823	0.6312	0.7053	-0.156
Mof_C 	C 	0.386	0.5607	0.654	0.075
Mof_H 	H 	0.3918	0.5181	0.6662	0.01
Mof_N 	N 	0.3794	0.5667	0.5807	-0.086
Mof_N 	N 	0.3717	0.6408	0.5868	-0.081
Mof_C 	C 	0.3734	0.6807	0.6638	0.079
Mof_H 	H 	0.3695	0.7305	0.6835	0.017
Mof_O 	O 	0.1854	0.7414	0.7731	-0.276
Mof_O 	O 	0.4054	0.8253	0.9421	-0.225
Mof_O 	O 	0.176	0.8152	0.4444	-0.509
Mof_O 	O 	0.0196	0.851	0.4415	-0.6
Mof_O 	O 	0.1823	0.943	0.5708	-0.6
Mof_O 	O 	0.0804	0.1716	0.462	-0.615
Mof_O 	O 	0.9793	0.0265	0.4402	-0.67
Mof_O 	O 	0.856	0.8778	0.4229	-0.566
Mof_O 	O 	0.1041	0.9807	0.4384	-0.708
Mof_O 	O 	0.1968	0.6845	0.2874	-0.585
Mof_O 	O 	0.9698	0.5708	0.2177	-0.516
Mof_O 	O 	0.9526	0.4359	0.0122	-0.708
Mof_O 	O 	0.0889	0.5428	0.1455	-0.788
Mof_O 	O 	0.9333	0.5748	0.0679	-0.56
Mof_O 	O 	0.2031	0.5591	0.089	-0.672
Mof_O 	O 	0.1837	0.6937	0.1421	-0.684
Mof_O 	O 	0.8291	0.4304	0.0632	-0.613
Mof_O 	O 	0.3413	0.6887	0.2458	-0.618
Mof_C 	C 	0.1627	0.8881	0.87	-0.024
Mof_C 	C 	0.1967	0.9722	0.916	0.027
Mof_C 	C 	0.2895	0.0159	0.9844	-0.043
Mof_O 	O 	0.097	0.04	0.952	-0.085
Mof_C 	C 	0.1411	0.0185	0.8893	0.041
Mof_O 	O 	0.9986	0.8023	0.8086	-0.276
Mof_C 	C 	0.0708	0.8414	0.792	0.087
Mof_H 	H 	0.0765	0.8009	0.7504	0.003
Mof_H 	H 	0.0556	0.8789	0.7713	-0.024
Mof_C 	C 	0.0551	0.0864	0.9403	0.296
Mof_C 	C 	0.9164	0.7406	0.7415	0.298
Mof_C 	C 	0.0317	0.1144	0.0007	-0.31
Mof_H 	H 	0.048	0.1008	0.0442	0.161
Mof_C 	C 	0.9833	0.1634	0.9987	0.183
Mof_H 	H 	0.9686	0.1833	0.0415	-0.031
Mof_C 	C 	0.0294	0.1055	0.8742	-0.309
Mof_H 	H 	0.0458	0.0871	0.8322	0.113
Mof_C 	C 	0.7914	0.6078	0.6883	0.239
Mof_C 	C 	0.8734	0.6738	0.7538	-0.311
Mof_H 	H 	0.8991	0.6736	0.8045	0.122
Mof_C 	C 	0.9568	0.183	0.9341	-0.287
Mof_H 	H 	0.9248	0.2162	0.9328	0.096
Mof_C 	C 	0.7959	0.6753	0.6027	0.204
Mof_H 	H 	0.7692	0.6768	0.5529	-0.043
Mof_C 	C 	0.7517	0.6076	0.6121	-0.283
Mof_H 	H 	0.6967	0.563	0.5686	0.146
Mof_C 	C 	0.8788	0.7402	0.6662	-0.31
Mof_H 	H 	0.9095	0.7841	0.6582	0.108
Mof_N 	N 	0.753	0.5377	0.6987	-0.199
Mof_C 	C 	0.9787	0.1526	0.8732	0.23
Mof_N 	N 	0.9491	0.1678	0.8014	-0.2
Mof_C 	C 	0.958	0.239	0.799	0.122
Mof_H 	H 	0.9835	0.2893	0.8448	-0.005
Mof_C 	C 	0.9092	0.1125	0.7239	0.134
Mof_H 	H 	0.8947	0.0569	0.7066	-0.085
Mof_O 	O 	0.4458	0.0226	0.1519	-0.579
Mof_C 	C 	0.4464	0.0223	0.0775	0.118
Mof_N 	N 	0.8929	0.1465	0.6749	-0.219
Mof_N 	N 	0.9262	0.2279	0.724	-0.127
Mof_C 	C 	0.601	0.1363	0.3705	0.292
Mof_C 	C 	0.6107	0.0952	0.2223	-0.413
Mof_H 	H 	0.6145	0.0832	0.173	0.194
Mof_C 	C 	0.5258	0.074	0.2231	0.43
Mof_C 	C 	0.5177	0.0961	0.2965	-0.402
Mof_H 	H 	0.4586	0.0842	0.2959	0.18
Mof_N 	N 	0.5942	0.1562	0.4453	-0.194
Mof_C 	C 	0.6946	0.1365	0.2991	0.275
Mof_H 	H 	0.7538	0.1502	0.2999	-0.093
Mof_C 	C 	0.6885	0.1564	0.3722	-0.356
Mof_H 	H 	0.7433	0.1832	0.4221	0.148
Mof_C 	C 	0.5827	0.1104	0.4838	0.114
Mof_H 	H 	0.5802	0.0578	0.4655	-0.035
Mof_C 	C 	0.5937	0.2255	0.4929	0.109
Mof_H 	H 	0.6035	0.2718	0.4836	0.017
Mof_N 	N 	0.7459	0.4441	0.7427	-0.233
Mof_C 	C 	0.8023	0.513	0.7486	0.169
Mof_H 	H 	0.8674	0.5407	0.7827	-0.105
Mof_N 	N 	0.6556	0.4214	0.6836	-0.123
Mof_N 	N 	0.5775	0.2198	0.5548	-0.119
Mof_C 	C 	0.6624	0.4797	0.6613	0.113
Mof_H 	H 	0.6111	0.4815	0.6242	0.004
Mof_N 	N 	0.5752	0.1467	0.5507	-0.115
Mof_O 	O 	0.3797	0.1413	0.1237	-0.238
Mof_C 	C 	0.3254	0.1097	0.0354	0.209
Mof_N 	N 	0.3776	0.2384	0.383	-0.146
Mof_C 	C 	0.4272	0.322	0.4169	0.125
Mof_C 	C 	0.3264	0.1324	0.1661	0.133
Mof_C 	C 	0.235	0.0716	0.1328	-0.048
Mof_C 	C 	0.1901	0.067	0.1822	0.017
Mof_C 	C 	0.2365	0.1232	0.265	-0.079
Mof_C 	C 	0.3279	0.184	0.2983	0.081
Mof_C 	C 	0.3728	0.1886	0.2489	-0.06
Mof_N 	N 	0.4383	0.2945	0.521	-0.122
Mof_N 	N 	0.4668	0.3563	0.4946	-0.103
Mof_C 	C 	0.3882	0.2214	0.4484	0.047
Mof_O 	O 	0.431	0.048	0.152	0.29
Mof_C 	C 	0.412	0.704	0.95	-0.157
Mof_O 	O 	0.107	0.036	0.942	-0.141
Mof_O 	O 	0.0485	0.1617	0.4474	0.08
Mof_O 	O 	0.3341	0.1451	0.9834	-0.231
Mof_C 	C 	0.312	0.2152	0.9953	0.132
Mof_C 	C 	0.301	0.2566	0.0627	-0.037
Mof_C 	C 	0.273	0.3195	0.0657	-0.002
Mof_C 	C 	0.256	0.341	0.001	-0.065
Mof_C 	C 	0.267	0.2997	0.9341	0.08
Mof_C 	C 	0.296	0.2368	0.9311	-0.074
Mof_N 	N 	0.251	0.3168	0.8647	-0.15
Mof_N 	N 	0.26	0.3286	0.7545	-0.099
Mof_N 	N 	0.2073	0.369	0.7767	-0.093
Mof_C 	C 	0.2019	0.3617	0.8448	0.096
Mof_C 	C 	0.297	0.308	0.819	0.076
_end
