# CIF file generated by openbabel 3.1.0, see https://openbabel.org
data_I
_chemical_name_common 'image0'
_cell_length_a 18.8984
_cell_length_b 17.7031
_cell_length_c 14.4754
_cell_angle_alpha 90
_cell_angle_beta 96.602
_cell_angle_gamma 90
_space_group_name_H-M_alt 'P 1'
_space_group_name_Hall 'P 1'
loop_
    _symmetry_equiv_pos_as_xyz
    x,y,z
loop_
    _atom_site_label
    _atom_site_type_symbol
    _atom_site_fract_x
    _atom_site_fract_y
    _atom_site_fract_z
    _atom_site_occupancy
    Zn1      Zn       0.29021    0.24716    0.07397    1.000
    Zn2      Zn       0.16559    0.31171    0.88314    1.000
    O1       O        0.90150    0.33440    0.22970    1.000
    O2       O        0.96530    0.32300    0.11570    1.000
    O3       O        0.25392    0.31140    0.81970    1.000
    O4       O        0.32350    0.30640    0.95560    1.000
    O5       O        0.62690    0.27700    0.84360    1.000
    O6       O        0.57060    0.19290    0.92080    1.000
    O7       O        0.18220    0.40240    0.96300    1.000
    O8       O        0.21228    0.32210    0.07870    1.000
    O9       O        0.24350    0.66620    0.00860    1.000
    O10      O        0.34120    0.70020    0.09730    1.000
    N1       N        0.41260    0.41740    0.45030    1.000
    N2       N        0.32250    0.36230    0.53260    1.000
    N3       N        0.29270    0.41280    0.37840    1.000
    N4       N        0.44140    0.37200    0.59600    1.000
    N5       N        0.38090    0.46970    0.30990    1.000
    N6       N        0.20840    0.35340    0.46350    1.000
    C1       C        0.14990    0.35250    0.39430    1.000
    C2       C        0.15410    0.35020    0.30060    1.000
    H1       H        0.19830    0.35060    0.27840    1.000
    C3       C        0.09330    0.34740    0.23930    1.000
    H2       H        0.09780    0.34900    0.17610    1.000
    C4       C        0.02760    0.34250    0.26530    1.000
    C5       C        0.02130    0.35550    0.36340    1.000
    H3       H        0.97730    0.36190    0.38520    1.000
    C6       C        0.08340    0.35770    0.42150    1.000
    H4       H        0.08010    0.36310    0.48480    1.000
    C7       C        0.96210    0.33360    0.20030    1.000
    C8       C        0.43780    0.33820    0.68340    1.000
    C9       C        0.37720    0.33690    0.72820    1.000
    H5       H        0.33480    0.35650    0.69880    1.000
    C10      C        0.37920    0.30590    0.81900    1.000
    C11      C        0.44120    0.27380    0.86040    1.000
    H6       H        0.44200    0.25030    0.91800    1.000
    C12      C        0.50170    0.27640    0.81680    1.000
    C13      C        0.50090    0.31020    0.72740    1.000
    H7       H        0.54250    0.31340    0.69900    1.000
    C14      C        0.31400    0.30630    0.86840    1.000
    C15      C        0.57100    0.24660    0.86370    1.000
    C16      C        0.33690    0.48790    0.22430    1.000
    C17      C        0.29510    0.43110    0.17880    1.000
    H8       H        0.29450    0.38270    0.20390    1.000
    C18      C        0.25430    0.44820    0.09540    1.000
    C19      C        0.25420    0.52020    0.05850    1.000
    H9       H        0.22600    0.53150    0.00330    1.000
    C20      C        0.29730    0.57620    0.10580    1.000
    C21      C        0.33840    0.55850    0.18880    1.000
    H10      H        0.36700    0.59530    0.22010    1.000
    C22      C        0.21300    0.38740    0.04410    1.000
    C23      C        0.29430    0.65380    0.06650    1.000
    C24      C        0.27800    0.37660    0.45510    1.000
    C25      C        0.38810    0.38570    0.52490    1.000
    C26      C        0.35970    0.43150    0.38070    1.000
    Zn3      Zn       0.79021    0.74716    0.07397    1.000
    Zn4      Zn       0.66559    0.81171    0.88314    1.000
    O11      O        0.40150    0.83440    0.22970    1.000
    O12      O        0.46530    0.82300    0.11570    1.000
    O13      O        0.75392    0.81140    0.81970    1.000
    O14      O        0.82350    0.80640    0.95560    1.000
    O15      O        0.12690    0.77700    0.84360    1.000
    O16      O        0.07060    0.69290    0.92080    1.000
    O17      O        0.68220    0.90240    0.96300    1.000
    O18      O        0.71228    0.82210    0.07870    1.000
    O19      O        0.74350    0.16620    0.00860    1.000
    O20      O        0.84120    0.20020    0.09730    1.000
    N7       N        0.91260    0.91740    0.45030    1.000
    N8       N        0.82250    0.86230    0.53260    1.000
    N9       N        0.79270    0.91280    0.37840    1.000
    N10      N        0.94140    0.87200    0.59600    1.000
    N11      N        0.88090    0.96970    0.30990    1.000
    N12      N        0.70840    0.85340    0.46350    1.000
    C27      C        0.64990    0.85250    0.39430    1.000
    C28      C        0.65410    0.85020    0.30060    1.000
    H11      H        0.69830    0.85060    0.27840    1.000
    C29      C        0.59330    0.84740    0.23930    1.000
    H12      H        0.59780    0.84900    0.17610    1.000
    C30      C        0.52760    0.84250    0.26530    1.000
    C31      C        0.52130    0.85550    0.36340    1.000
    H13      H        0.47730    0.86190    0.38520    1.000
    C32      C        0.58340    0.85770    0.42150    1.000
    H14      H        0.58010    0.86310    0.48480    1.000
    C33      C        0.46210    0.83360    0.20030    1.000
    C34      C        0.93780    0.83820    0.68340    1.000
    C35      C        0.87720    0.83690    0.72820    1.000
    H15      H        0.83480    0.85650    0.69880    1.000
    C36      C        0.87920    0.80590    0.81900    1.000
    C37      C        0.94120    0.77380    0.86040    1.000
    H16      H        0.94200    0.75030    0.91800    1.000
    C38      C        0.00170    0.77640    0.81680    1.000
    C39      C        0.00090    0.81020    0.72740    1.000
    H17      H        0.04250    0.81340    0.69900    1.000
    C40      C        0.81400    0.80630    0.86840    1.000
    C41      C        0.07100    0.74660    0.86370    1.000
    C42      C        0.83690    0.98790    0.22430    1.000
    C43      C        0.79510    0.93110    0.17880    1.000
    H18      H        0.79450    0.88270    0.20390    1.000
    C44      C        0.75430    0.94820    0.09540    1.000
    C45      C        0.75420    0.02020    0.05850    1.000
    H19      H        0.72600    0.03150    0.00330    1.000
    C46      C        0.79730    0.07620    0.10580    1.000
    C47      C        0.83840    0.05850    0.18880    1.000
    H20      H        0.86700    0.09530    0.22010    1.000
    C48      C        0.71300    0.88740    0.04410    1.000
    C49      C        0.79430    0.15380    0.06650    1.000
    C50      C        0.77800    0.87660    0.45510    1.000
    C51      C        0.88810    0.88570    0.52490    1.000
    C52      C        0.85970    0.93150    0.38070    1.000
    Zn5      Zn       0.70979    0.24716    0.92603    1.000
    Zn6      Zn       0.83441    0.31171    0.11686    1.000
    O21      O        0.09850    0.33440    0.77030    1.000
    O22      O        0.03470    0.32300    0.88430    1.000
    O23      O        0.74608    0.31140    0.18030    1.000
    O24      O        0.67650    0.30640    0.04440    1.000
    O25      O        0.37310    0.27700    0.15640    1.000
    O26      O        0.42940    0.19290    0.07920    1.000
    O27      O        0.81780    0.40240    0.03700    1.000
    O28      O        0.78772    0.32210    0.92130    1.000
    O29      O        0.75650    0.66620    0.99140    1.000
    O30      O        0.65880    0.70020    0.90270    1.000
    N13      N        0.58740    0.41740    0.54970    1.000
    N14      N        0.67750    0.36230    0.46740    1.000
    N15      N        0.70730    0.41280    0.62160    1.000
    N16      N        0.55860    0.37200    0.40400    1.000
    N17      N        0.61910    0.46970    0.69010    1.000
    N18      N        0.79160    0.35340    0.53650    1.000
    C53      C        0.85010    0.35250    0.60570    1.000
    C54      C        0.84590    0.35020    0.69940    1.000
    H21      H        0.80170    0.35060    0.72160    1.000
    C55      C        0.90670    0.34740    0.76070    1.000
    H22      H        0.90220    0.34900    0.82390    1.000
    C56      C        0.97240    0.34250    0.73470    1.000
    C57      C        0.97870    0.35550    0.63660    1.000
    H23      H        0.02270    0.36190    0.61480    1.000
    C58      C        0.91660    0.35770    0.57850    1.000
    H24      H        0.91990    0.36310    0.51520    1.000
    C59      C        0.03790    0.33360    0.79970    1.000
    C60      C        0.56220    0.33820    0.31660    1.000
    C61      C        0.62280    0.33690    0.27180    1.000
    H25      H        0.66520    0.35650    0.30120    1.000
    C62      C        0.62080    0.30590    0.18100    1.000
    C63      C        0.55880    0.27380    0.13960    1.000
    H26      H        0.55800    0.25030    0.08200    1.000
    C64      C        0.49830    0.27640    0.18320    1.000
    C65      C        0.49910    0.31020    0.27260    1.000
    H27      H        0.45750    0.31340    0.30100    1.000
    C66      C        0.68600    0.30630    0.13160    1.000
    C67      C        0.42900    0.24660    0.13630    1.000
    C68      C        0.66310    0.48790    0.77570    1.000
    C69      C        0.70490    0.43110    0.82120    1.000
    H28      H        0.70550    0.38270    0.79610    1.000
    C70      C        0.74570    0.44820    0.90460    1.000
    C71      C        0.74580    0.52020    0.94150    1.000
    H29      H        0.77400    0.53150    0.99670    1.000
    C72      C        0.70270    0.57620    0.89420    1.000
    C73      C        0.66160    0.55850    0.81120    1.000
    H30      H        0.63300    0.59530    0.77990    1.000
    C74      C        0.78700    0.38740    0.95590    1.000
    C75      C        0.70570    0.65380    0.93350    1.000
    C76      C        0.72200    0.37660    0.54490    1.000
    C77      C        0.61190    0.38570    0.47510    1.000
    C78      C        0.64030    0.43150    0.61930    1.000
    Zn7      Zn       0.20979    0.74716    0.92603    1.000
    Zn8      Zn       0.33441    0.81171    0.11686    1.000
    O31      O        0.59850    0.83440    0.77030    1.000
    O32      O        0.53470    0.82300    0.88430    1.000
    O33      O        0.24608    0.81140    0.18030    1.000
    O34      O        0.17650    0.80640    0.04440    1.000
    O35      O        0.87310    0.77700    0.15640    1.000
    O36      O        0.92940    0.69290    0.07920    1.000
    O37      O        0.31780    0.90240    0.03700    1.000
    O38      O        0.28772    0.82210    0.92130    1.000
    O39      O        0.25650    0.16620    0.99140    1.000
    O40      O        0.15880    0.20020    0.90270    1.000
    N19      N        0.08740    0.91740    0.54970    1.000
    N20      N        0.17750    0.86230    0.46740    1.000
    N21      N        0.20730    0.91280    0.62160    1.000
    N22      N        0.05860    0.87200    0.40400    1.000
    N23      N        0.11910    0.96970    0.69010    1.000
    N24      N        0.29160    0.85340    0.53650    1.000
    C79      C        0.35010    0.85250    0.60570    1.000
    C80      C        0.34590    0.85020    0.69940    1.000
    H31      H        0.30170    0.85060    0.72160    1.000
    C81      C        0.40670    0.84740    0.76070    1.000
    H32      H        0.40220    0.84900    0.82390    1.000
    C82      C        0.47240    0.84250    0.73470    1.000
    C83      C        0.47870    0.85550    0.63660    1.000
    H33      H        0.52270    0.86190    0.61480    1.000
    C84      C        0.41660    0.85770    0.57850    1.000
    H34      H        0.41990    0.86310    0.51520    1.000
    C85      C        0.53790    0.83360    0.79970    1.000
    C86      C        0.06220    0.83820    0.31660    1.000
    C87      C        0.12280    0.83690    0.27180    1.000
    H35      H        0.16520    0.85650    0.30120    1.000
    C88      C        0.12080    0.80590    0.18100    1.000
    C89      C        0.05880    0.77380    0.13960    1.000
    H36      H        0.05800    0.75030    0.08200    1.000
    C90      C        0.99830    0.77640    0.18320    1.000
    C91      C        0.99910    0.81020    0.27260    1.000
    H37      H        0.95750    0.81340    0.30100    1.000
    C92      C        0.18600    0.80630    0.13160    1.000
    C93      C        0.92900    0.74660    0.13630    1.000
    C94      C        0.16310    0.98790    0.77570    1.000
    C95      C        0.20490    0.93110    0.82120    1.000
    H38      H        0.20550    0.88270    0.79610    1.000
    C96      C        0.24570    0.94820    0.90460    1.000
    C97      C        0.24580    0.02020    0.94150    1.000
    H39      H        0.27400    0.03150    0.99670    1.000
    C98      C        0.20270    0.07620    0.89420    1.000
    C99      C        0.16160    0.05850    0.81120    1.000
    H40      H        0.13300    0.09530    0.77990    1.000
    C100     C        0.28700    0.88740    0.95590    1.000
    C101     C        0.20570    0.15380    0.93350    1.000
    C102     C        0.22200    0.87660    0.54490    1.000
    C103     C        0.11190    0.88570    0.47510    1.000
    C104     C        0.14030    0.93150    0.61930    1.000
