data_functionalizedCrystal
_audit_creation_method	'EQeq! by Chris Wilmer'
_symmetry_space_group_name_H-M	'P1'
_symmetry_Int_Tables_number	1
_symmetry_cell_setting	triclinic
loop_
_symmetry_equiv_pos_as_xyz
  x,y,z
_cell_length_a	29.106
_cell_length_b	29.106
_cell_length_c	23.417
_cell_angle_alpha	90
_cell_angle_beta	90
_cell_angle_gamma	120
loop_
_atom_site_label
_atom_site_type_symbol
_atom_site_fract_x
_atom_site_fract_y
_atom_site_fract_z
_atom_site_charge
Mof_O 	O 	0.43417	0.71387	0.983	-0.4
Mof_O 	O 	0.39681	0.62572	0.9731	-0.408
Mof_C 	C 	0.4336	0.6703	0.9883	0.366
Mof_C 	C 	0.4823	0.6726	0.0143	-0.105
Mof_C 	C 	0.5293	0.7193	0.021	0.03
Mof_H 	H 	0.531	0.7519	0.0122	0.033
Mof_C 	C 	0.5748	0.7194	0.0408	-0.09
Mof_H 	H 	0.607	0.7522	0.045	0.069
Mof_C 	C 	0.5737	0.6732	0.0542	0.034
Mof_C 	C 	0.5248	0.6264	0.0522	-0.091
Mof_H 	H 	0.5221	0.5942	0.065	0.06
Mof_C 	C 	0.48	0.626	0.0317	0.03
Mof_H 	H 	0.4474	0.5935	0.0296	0.036
Mof_C 	C 	0.6225	0.6717	0.0698	0.076
Mof_C 	C 	0.6219	0.6233	0.0687	-0.118
Mof_H 	H 	0.5905	0.5917	0.058	0.067
Mof_C 	C 	0.7134	0.5684	0.0867	-0.122
Mof_H 	H 	0.7465	0.6005	0.0891	0.069
Mof_C 	C 	0.7117	0.5201	0.0866	0.079
Mof_H 	H 	0.7442	0.5199	0.0891	0.011
Mof_O 	O 	0.10084	0.0472	0.31633	-0.399
Mof_O 	O 	0.06348	0.95905	0.30643	-0.402
Mof_C 	C 	0.10027	0.00363	0.32163	0.361
Mof_C 	C 	0.14897	0.00593	0.34763	-0.11
Mof_C 	C 	0.19597	0.05263	0.35433	0.031
Mof_H 	H 	0.19767	0.08523	0.34553	0.033
Mof_C 	C 	0.24147	0.05273	0.37413	-0.09
Mof_H 	H 	0.27367	0.08553	0.37833	0.069
Mof_C 	C 	0.24037	0.00653	0.38753	0.029
Mof_C 	C 	0.19147	0.95973	0.38553	-0.086
Mof_H 	H 	0.18877	0.92753	0.39833	0.059
Mof_C 	C 	0.14667	0.95933	0.36503	0.036
Mof_H 	H 	0.11407	0.92683	0.36293	0.034
Mof_C 	C 	0.28917	0.00503	0.40313	0.071
Mof_C 	C 	0.28857	0.95663	0.40203	-0.113
Mof_H 	H 	0.25717	0.92503	0.39133	0.066
Mof_C 	C 	0.38007	0.90173	0.42003	-0.121
Mof_H 	H 	0.41317	0.93383	0.42243	0.07
Mof_C 	C 	0.37837	0.85343	0.41993	0.079
Mof_H 	H 	0.41087	0.85323	0.42243	0.011
Mof_O 	O 	0.7675	0.38054	0.64967	-0.399
Mof_O 	O 	0.73014	0.29239	0.63977	-0.407
Mof_C 	C 	0.76693	0.33697	0.65497	0.367
Mof_C 	C 	0.81563	0.33927	0.68097	-0.104
Mof_C 	C 	0.86263	0.38597	0.68767	0.031
Mof_H 	H 	0.86433	0.41857	0.67887	0.034
Mof_C 	C 	0.90813	0.38607	0.70747	-0.09
Mof_H 	H 	0.94033	0.41887	0.71167	0.071
Mof_C 	C 	0.90703	0.33987	0.72087	0.034
Mof_C 	C 	0.85813	0.29307	0.71887	-0.091
Mof_H 	H 	0.85543	0.26087	0.73167	0.06
Mof_C 	C 	0.81333	0.29267	0.69837	0.03
Mof_H 	H 	0.78073	0.26017	0.69627	0.036
Mof_C 	C 	0.95583	0.33837	0.73647	0.079
Mof_C 	C 	0.95523	0.28997	0.73537	-0.11
Mof_H 	H 	0.92383	0.25837	0.72467	0.066
Mof_C 	C 	0.04673	0.23507	0.75337	-0.121
Mof_H 	H 	0.07983	0.26717	0.75577	0.069
Mof_C 	C 	0.04503	0.18677	0.75327	0.077
Mof_H 	H 	0.07753	0.18657	0.75577	0.011
Mof_O 	O 	0.28613	0.7203	0.983	-0.399
Mof_O 	O 	0.37428	0.77109	0.9731	-0.407
Mof_C 	C 	0.3297	0.7633	0.9883	0.367
Mof_C 	C 	0.3274	0.8097	0.0143	-0.105
Mof_C 	C 	0.2807	0.81	0.021	0.032
Mof_H 	H 	0.2481	0.7791	0.0122	0.033
Mof_C 	C 	0.2806	0.8554	0.0408	-0.091
Mof_H 	H 	0.2478	0.8548	0.045	0.07
Mof_C 	C 	0.3268	0.9005	0.0542	0.035
Mof_C 	C 	0.3736	0.8984	0.0522	-0.092
Mof_H 	H 	0.4058	0.9279	0.065	0.061
Mof_C 	C 	0.374	0.854	0.0317	0.031
Mof_H 	H 	0.4065	0.8539	0.0296	0.036
Mof_C 	C 	0.3283	0.9508	0.0698	0.074
Mof_C 	C 	0.3767	0.9986	0.0687	-0.109
Mof_H 	H 	0.4083	0.9988	0.058	0.066
Mof_C 	C 	0.4316	0.145	0.0867	-0.123
Mof_H 	H 	0.3995	0.146	0.0891	0.069
Mof_C 	C 	0.4799	0.1916	0.0866	0.079
Mof_H 	H 	0.4801	0.2243	0.0891	0.01
Mof_O 	O 	0.9528	0.05363	0.31633	-0.401
Mof_O 	O 	0.04095	0.10442	0.30643	-0.412
Mof_C 	C 	0.99637	0.09663	0.32163	0.373
Mof_C 	C 	0.99407	0.14303	0.34763	-0.1
Mof_C 	C 	0.94737	0.14333	0.35433	0.031
Mof_H 	H 	0.91477	0.11243	0.34553	0.033
Mof_C 	C 	0.94727	0.18873	0.37413	-0.091
Mof_H 	H 	0.91447	0.18813	0.37833	0.07
Mof_C 	C 	0.99347	0.23383	0.38753	0.039
Mof_C 	C 	0.04027	0.23173	0.38553	-0.097
Mof_H 	H 	0.07247	0.26123	0.39833	0.061
Mof_C 	C 	0.04067	0.18733	0.36503	0.025
Mof_H 	H 	0.07317	0.18723	0.36293	0.037
Mof_C 	C 	0.99497	0.28413	0.40313	0.081
Mof_C 	C 	0.04337	0.33193	0.40203	-0.122
Mof_H 	H 	0.07497	0.33213	0.39133	0.068
Mof_C 	C 	0.09827	0.47833	0.42003	-0.124
Mof_H 	H 	0.06617	0.47933	0.42243	0.068
Mof_C 	C 	0.14657	0.52493	0.41993	0.079
Mof_H 	H 	0.14677	0.55763	0.42243	0.01
Mof_O 	O 	0.61946	0.38697	0.64967	-0.399
Mof_O 	O 	0.70761	0.43776	0.63977	-0.406
Mof_C 	C 	0.66303	0.42997	0.65497	0.367
Mof_C 	C 	0.66073	0.47637	0.68097	-0.104
Mof_C 	C 	0.61403	0.47667	0.68767	0.031
Mof_H 	H 	0.58143	0.44577	0.67887	0.034
Mof_C 	C 	0.61393	0.52207	0.70747	-0.09
Mof_H 	H 	0.58113	0.52147	0.71167	0.069
Mof_C 	C 	0.66013	0.56717	0.72087	0.034
Mof_C 	C 	0.70693	0.56507	0.71887	-0.091
Mof_H 	H 	0.73913	0.59457	0.73167	0.06
Mof_C 	C 	0.70733	0.52067	0.69837	0.03
Mof_H 	H 	0.73983	0.52057	0.69627	0.036
Mof_C 	C 	0.66163	0.61747	0.73647	0.076
Mof_C 	C 	0.71003	0.66527	0.73537	-0.118
Mof_H 	H 	0.74163	0.66547	0.72467	0.067
Mof_C 	C 	0.76493	0.81167	0.75337	-0.122
Mof_H 	H 	0.73283	0.81267	0.75577	0.069
Mof_C 	C 	0.81323	0.85827	0.75327	0.079
Mof_H 	H 	0.81343	0.89097	0.75577	0.011
Mof_O 	O 	0.2797	0.56583	0.983	-0.399
Mof_O 	O 	0.22891	0.60319	0.9731	-0.407
Mof_C 	C 	0.2367	0.5664	0.9883	0.366
Mof_C 	C 	0.1903	0.5177	0.0143	-0.104
Mof_C 	C 	0.19	0.4707	0.021	0.03
Mof_H 	H 	0.2209	0.469	0.0122	0.034
Mof_C 	C 	0.1446	0.4252	0.0408	-0.089
Mof_H 	H 	0.1452	0.393	0.045	0.069
Mof_C 	C 	0.0995	0.4263	0.0542	0.032
Mof_C 	C 	0.1016	0.4752	0.0522	-0.091
Mof_H 	H 	0.0721	0.4779	0.065	0.059
Mof_C 	C 	0.146	0.52	0.0317	0.029
Mof_H 	H 	0.1461	0.5526	0.0296	0.036
Mof_C 	C 	0.0492	0.3775	0.0698	0.078
Mof_C 	C 	0.0014	0.3781	0.0687	-0.126
Mof_H 	H 	0.0012	0.4095	0.058	0.068
Mof_C 	C 	0.855	0.2866	0.0867	-0.121
Mof_H 	H 	0.854	0.2535	0.0891	0.069
Mof_C 	C 	0.8084	0.2883	0.0866	0.079
Mof_H 	H 	0.7757	0.2558	0.0891	0.011
Mof_O 	O 	0.94637	0.89916	0.31633	-0.395
Mof_O 	O 	0.89558	0.93652	0.30643	-0.403
Mof_C 	C 	0.90337	0.89973	0.32163	0.366
Mof_C 	C 	0.85697	0.85103	0.34763	-0.103
Mof_C 	C 	0.85667	0.80403	0.35433	0.03
Mof_H 	H 	0.88757	0.80233	0.34553	0.035
Mof_C 	C 	0.81127	0.75853	0.37413	-0.089
Mof_H 	H 	0.81187	0.72633	0.37833	0.069
Mof_C 	C 	0.76617	0.75963	0.38753	0.033
Mof_C 	C 	0.76827	0.80853	0.38553	-0.091
Mof_H 	H 	0.73877	0.81123	0.39833	0.06
Mof_C 	C 	0.81267	0.85333	0.36503	0.03
Mof_H 	H 	0.81277	0.88593	0.36293	0.037
Mof_C 	C 	0.71587	0.71083	0.40313	0.076
Mof_C 	C 	0.66807	0.71143	0.40203	-0.118
Mof_H 	H 	0.66787	0.74283	0.39133	0.067
Mof_C 	C 	0.52167	0.61993	0.42003	-0.122
Mof_H 	H 	0.52067	0.58683	0.42243	0.069
Mof_C 	C 	0.47507	0.62163	0.41993	0.079
Mof_H 	H 	0.44237	0.58913	0.42243	0.011
Mof_O 	O 	0.61303	0.2325	0.64967	-0.399
Mof_O 	O 	0.56224	0.26986	0.63977	-0.407
Mof_C 	C 	0.57003	0.23307	0.65497	0.367
Mof_C 	C 	0.52363	0.18437	0.68097	-0.104
Mof_C 	C 	0.52333	0.13737	0.68767	0.031
Mof_H 	H 	0.55423	0.13567	0.67887	0.034
Mof_C 	C 	0.47793	0.09187	0.70747	-0.09
Mof_H 	H 	0.47853	0.05967	0.71167	0.068
Mof_C 	C 	0.43283	0.09297	0.72087	0.034
Mof_C 	C 	0.43493	0.14187	0.71887	-0.092
Mof_H 	H 	0.40543	0.14457	0.73167	0.06
Mof_C 	C 	0.47933	0.18667	0.69837	0.03
Mof_H 	H 	0.47943	0.21927	0.69627	0.036
Mof_C 	C 	0.38253	0.04417	0.73647	0.074
Mof_C 	C 	0.33473	0.04477	0.73537	-0.116
Mof_H 	H 	0.33453	0.07617	0.72467	0.066
Mof_C 	C 	0.18833	0.95327	0.75337	-0.116
Mof_H 	H 	0.18733	0.92017	0.75577	0.068
Mof_C 	C 	0.14173	0.95497	0.75327	0.083
Mof_H 	H 	0.10903	0.92247	0.75577	0.01
Mof_O 	O 	0.71387	0.43417	0.517	-0.399
Mof_O 	O 	0.62572	0.39681	0.5269	-0.407
Mof_C 	C 	0.6703	0.4336	0.5117	0.367
Mof_C 	C 	0.6726	0.4823	0.4857	-0.104
Mof_C 	C 	0.7193	0.5293	0.479	0.031
Mof_H 	H 	0.7519	0.531	0.4878	0.034
Mof_C 	C 	0.7194	0.5748	0.4592	-0.09
Mof_H 	H 	0.7522	0.607	0.455	0.07
Mof_C 	C 	0.6732	0.5737	0.4458	0.034
Mof_C 	C 	0.6264	0.5248	0.4478	-0.091
Mof_H 	H 	0.5942	0.5221	0.435	0.06
Mof_C 	C 	0.626	0.48	0.4683	0.03
Mof_H 	H 	0.5935	0.4474	0.4704	0.036
Mof_C 	C 	0.6717	0.6225	0.4302	0.076
Mof_C 	C 	0.6233	0.6219	0.4313	-0.118
Mof_H 	H 	0.5917	0.5905	0.442	0.067
Mof_C 	C 	0.5684	0.7134	0.4133	-0.122
Mof_H 	H 	0.6005	0.7465	0.4109	0.069
Mof_C 	C 	0.5201	0.7117	0.4134	0.079
Mof_H 	H 	0.5199	0.7442	0.4109	0.011
Mof_O 	O 	0.38054	0.7675	0.85033	-0.399
Mof_O 	O 	0.29239	0.73014	0.86023	-0.407
Mof_C 	C 	0.33697	0.76693	0.84503	0.367
Mof_C 	C 	0.33927	0.81563	0.81903	-0.104
Mof_C 	C 	0.38597	0.86263	0.81233	0.031
Mof_H 	H 	0.41857	0.86433	0.82113	0.034
Mof_C 	C 	0.38607	0.90813	0.79253	-0.09
Mof_H 	H 	0.41887	0.94033	0.78833	0.071
Mof_C 	C 	0.33987	0.90703	0.77913	0.034
Mof_C 	C 	0.29307	0.85813	0.78113	-0.091
Mof_H 	H 	0.26087	0.85543	0.76833	0.06
Mof_C 	C 	0.29267	0.81333	0.80163	0.03
Mof_H 	H 	0.26017	0.78073	0.80373	0.036
Mof_C 	C 	0.33837	0.95583	0.76353	0.079
Mof_C 	C 	0.28997	0.95523	0.76463	-0.11
Mof_H 	H 	0.25837	0.92383	0.77533	0.066
Mof_C 	C 	0.23507	0.04673	0.74663	-0.121
Mof_H 	H 	0.26717	0.07983	0.74423	0.069
Mof_C 	C 	0.18677	0.04503	0.74673	0.077
Mof_H 	H 	0.18657	0.07753	0.74423	0.011
Mof_O 	O 	0.0472	0.10084	0.18367	-0.399
Mof_O 	O 	0.95905	0.06348	0.19357	-0.402
Mof_C 	C 	0.00363	0.10027	0.17837	0.361
Mof_C 	C 	0.00593	0.14897	0.15237	-0.11
Mof_C 	C 	0.05263	0.19597	0.14567	0.031
Mof_H 	H 	0.08523	0.19767	0.15447	0.033
Mof_C 	C 	0.05273	0.24147	0.12587	-0.09
Mof_H 	H 	0.08553	0.27367	0.12167	0.069
Mof_C 	C 	0.00653	0.24037	0.11247	0.029
Mof_C 	C 	0.95973	0.19147	0.11447	-0.086
Mof_H 	H 	0.92753	0.18877	0.10167	0.059
Mof_C 	C 	0.95933	0.14667	0.13497	0.036
Mof_H 	H 	0.92683	0.11407	0.13707	0.034
Mof_C 	C 	0.00503	0.28917	0.09687	0.071
Mof_C 	C 	0.95663	0.28857	0.09797	-0.113
Mof_H 	H 	0.92503	0.25717	0.10867	0.066
Mof_C 	C 	0.90173	0.38007	0.07997	-0.121
Mof_H 	H 	0.93383	0.41317	0.07757	0.07
Mof_C 	C 	0.85343	0.37837	0.08007	0.079
Mof_H 	H 	0.85323	0.41087	0.07757	0.011
Mof_O 	O 	0.7203	0.28613	0.517	-0.399
Mof_O 	O 	0.77109	0.37428	0.5269	-0.407
Mof_C 	C 	0.7633	0.3297	0.5117	0.367
Mof_C 	C 	0.8097	0.3274	0.4857	-0.105
Mof_C 	C 	0.81	0.2807	0.479	0.032
Mof_H 	H 	0.7791	0.2481	0.4878	0.033
Mof_C 	C 	0.8554	0.2806	0.4592	-0.091
Mof_H 	H 	0.8548	0.2478	0.455	0.07
Mof_C 	C 	0.9005	0.3268	0.4458	0.035
Mof_C 	C 	0.8984	0.3736	0.4478	-0.092
Mof_H 	H 	0.9279	0.4058	0.435	0.061
Mof_C 	C 	0.854	0.374	0.4683	0.031
Mof_H 	H 	0.8539	0.4065	0.4704	0.036
Mof_C 	C 	0.9508	0.3283	0.4302	0.074
Mof_C 	C 	0.9986	0.3767	0.4313	-0.109
Mof_H 	H 	0.9988	0.4083	0.442	0.066
Mof_C 	C 	0.145	0.4316	0.4133	-0.123
Mof_H 	H 	0.146	0.3995	0.4109	0.069
Mof_C 	C 	0.1916	0.4799	0.4134	0.079
Mof_H 	H 	0.2243	0.4801	0.4109	0.01
Mof_O 	O 	0.38697	0.61946	0.85033	-0.399
Mof_O 	O 	0.43776	0.70761	0.86023	-0.406
Mof_C 	C 	0.42997	0.66303	0.84503	0.367
Mof_C 	C 	0.47637	0.66073	0.81903	-0.104
Mof_C 	C 	0.47667	0.61403	0.81233	0.031
Mof_H 	H 	0.44577	0.58143	0.82113	0.034
Mof_C 	C 	0.52207	0.61393	0.79253	-0.09
Mof_H 	H 	0.52147	0.58113	0.78833	0.069
Mof_C 	C 	0.56717	0.66013	0.77913	0.034
Mof_C 	C 	0.56507	0.70693	0.78113	-0.091
Mof_H 	H 	0.59457	0.73913	0.76833	0.06
Mof_C 	C 	0.52067	0.70733	0.80163	0.03
Mof_H 	H 	0.52057	0.73983	0.80373	0.036
Mof_C 	C 	0.61747	0.66163	0.76353	0.076
Mof_C 	C 	0.66527	0.71003	0.76463	-0.118
Mof_H 	H 	0.66547	0.74163	0.77533	0.067
Mof_C 	C 	0.81167	0.76493	0.74663	-0.122
Mof_H 	H 	0.81267	0.73283	0.74423	0.069
Mof_C 	C 	0.85827	0.81323	0.74673	0.079
Mof_H 	H 	0.89097	0.81343	0.74423	0.011
Mof_O 	O 	0.05363	0.9528	0.18367	-0.401
Mof_O 	O 	0.10442	0.04095	0.19357	-0.412
Mof_C 	C 	0.09663	0.99637	0.17837	0.373
Mof_C 	C 	0.14303	0.99407	0.15237	-0.1
Mof_C 	C 	0.14333	0.94737	0.14567	0.031
Mof_H 	H 	0.11243	0.91477	0.15447	0.033
Mof_C 	C 	0.18873	0.94727	0.12587	-0.091
Mof_H 	H 	0.18813	0.91447	0.12167	0.07
Mof_C 	C 	0.23383	0.99347	0.11247	0.039
Mof_C 	C 	0.23173	0.04027	0.11447	-0.097
Mof_H 	H 	0.26123	0.07247	0.10167	0.061
Mof_C 	C 	0.18733	0.04067	0.13497	0.025
Mof_H 	H 	0.18723	0.07317	0.13707	0.037
Mof_C 	C 	0.28413	0.99497	0.09687	0.081
Mof_C 	C 	0.33193	0.04337	0.09797	-0.122
Mof_H 	H 	0.33213	0.07497	0.10867	0.068
Mof_C 	C 	0.47833	0.09827	0.07997	-0.124
Mof_H 	H 	0.47933	0.06617	0.07757	0.068
Mof_C 	C 	0.52493	0.14657	0.08007	0.079
Mof_H 	H 	0.55763	0.14677	0.07757	0.01
Mof_O 	O 	0.56583	0.2797	0.517	-0.399
Mof_O 	O 	0.60319	0.22891	0.5269	-0.407
Mof_C 	C 	0.5664	0.2367	0.5117	0.367
Mof_C 	C 	0.5177	0.1903	0.4857	-0.104
Mof_C 	C 	0.4707	0.19	0.479	0.03
Mof_H 	H 	0.469	0.2209	0.4878	0.034
Mof_C 	C 	0.4252	0.1446	0.4592	-0.089
Mof_H 	H 	0.393	0.1452	0.455	0.069
Mof_C 	C 	0.4263	0.0995	0.4458	0.032
Mof_C 	C 	0.4752	0.1016	0.4478	-0.091
Mof_H 	H 	0.4779	0.0721	0.435	0.059
Mof_C 	C 	0.52	0.146	0.4683	0.029
Mof_H 	H 	0.5526	0.1461	0.4704	0.036
Mof_C 	C 	0.3775	0.0492	0.4302	0.078
Mof_C 	C 	0.3781	0.0014	0.4313	-0.126
Mof_H 	H 	0.4095	0.0012	0.442	0.068
Mof_C 	C 	0.2866	0.855	0.4133	-0.121
Mof_H 	H 	0.2535	0.854	0.4109	0.069
Mof_C 	C 	0.2883	0.8084	0.4134	0.079
Mof_H 	H 	0.2558	0.7757	0.4109	0.011
Mof_O 	O 	0.2325	0.61303	0.85033	-0.399
Mof_O 	O 	0.26986	0.56224	0.86023	-0.407
Mof_C 	C 	0.23307	0.57003	0.84503	0.367
Mof_C 	C 	0.18437	0.52363	0.81903	-0.104
Mof_C 	C 	0.13737	0.52333	0.81233	0.031
Mof_H 	H 	0.13567	0.55423	0.82113	0.034
Mof_C 	C 	0.09187	0.47793	0.79253	-0.09
Mof_H 	H 	0.05967	0.47853	0.78833	0.068
Mof_C 	C 	0.09297	0.43283	0.77913	0.034
Mof_C 	C 	0.14187	0.43493	0.78113	-0.092
Mof_H 	H 	0.14457	0.40543	0.76833	0.06
Mof_C 	C 	0.18667	0.47933	0.80163	0.03
Mof_H 	H 	0.21927	0.47943	0.80373	0.036
Mof_C 	C 	0.04417	0.38253	0.76353	0.074
Mof_C 	C 	0.04477	0.33473	0.76463	-0.116
Mof_H 	H 	0.07617	0.33453	0.77533	0.066
Mof_C 	C 	0.95327	0.18833	0.74663	-0.116
Mof_H 	H 	0.92017	0.18733	0.74423	0.068
Mof_C 	C 	0.95497	0.14173	0.74673	0.083
Mof_H 	H 	0.92247	0.10903	0.74423	0.01
Mof_O 	O 	0.89916	0.94637	0.18367	-0.395
Mof_O 	O 	0.93652	0.89558	0.19357	-0.403
Mof_C 	C 	0.89973	0.90337	0.17837	0.366
Mof_C 	C 	0.85103	0.85697	0.15237	-0.103
Mof_C 	C 	0.80403	0.85667	0.14567	0.03
Mof_H 	H 	0.80233	0.88757	0.15447	0.035
Mof_C 	C 	0.75853	0.81127	0.12587	-0.089
Mof_H 	H 	0.72633	0.81187	0.12167	0.069
Mof_C 	C 	0.75963	0.76617	0.11247	0.033
Mof_C 	C 	0.80853	0.76827	0.11447	-0.091
Mof_H 	H 	0.81123	0.73877	0.10167	0.06
Mof_C 	C 	0.85333	0.81267	0.13497	0.03
Mof_H 	H 	0.88593	0.81277	0.13707	0.037
Mof_C 	C 	0.71083	0.71587	0.09687	0.076
Mof_C 	C 	0.71143	0.66807	0.09797	-0.118
Mof_H 	H 	0.74283	0.66787	0.10867	0.067
Mof_C 	C 	0.61993	0.52167	0.07997	-0.122
Mof_H 	H 	0.58683	0.52067	0.07757	0.069
Mof_C 	C 	0.62163	0.47507	0.08007	0.079
Mof_H 	H 	0.58913	0.44237	0.07757	0.011
Mof_O 	O 	0.56583	0.28613	0.017	-0.399
Mof_O 	O 	0.60319	0.37428	0.0269	-0.407
Mof_C 	C 	0.5664	0.3297	0.0117	0.367
Mof_C 	C 	0.5177	0.3274	0.9857	-0.105
Mof_C 	C 	0.4707	0.2807	0.979	0.031
Mof_H 	H 	0.469	0.2481	0.9878	0.034
Mof_C 	C 	0.4252	0.2806	0.9592	-0.09
Mof_H 	H 	0.393	0.2478	0.955	0.069
Mof_C 	C 	0.4263	0.3268	0.9458	0.034
Mof_C 	C 	0.4752	0.3736	0.9478	-0.091
Mof_H 	H 	0.4779	0.4058	0.935	0.06
Mof_C 	C 	0.52	0.374	0.9683	0.03
Mof_H 	H 	0.5526	0.4065	0.9704	0.036
Mof_C 	C 	0.3775	0.3283	0.9302	0.076
Mof_C 	C 	0.3781	0.3767	0.9313	-0.118
Mof_H 	H 	0.4095	0.4083	0.942	0.067
Mof_C 	C 	0.2866	0.4316	0.9133	-0.122
Mof_H 	H 	0.2535	0.3995	0.9109	0.069
Mof_C 	C 	0.2883	0.4799	0.9134	0.079
Mof_H 	H 	0.2558	0.4801	0.9109	0.01
Mof_O 	O 	0.2325	0.61946	0.35033	-0.399
Mof_O 	O 	0.26986	0.70761	0.36023	-0.407
Mof_C 	C 	0.23307	0.66303	0.34503	0.367
Mof_C 	C 	0.18437	0.66073	0.31903	-0.104
Mof_C 	C 	0.13737	0.61403	0.31233	0.031
Mof_H 	H 	0.13567	0.58143	0.32113	0.034
Mof_C 	C 	0.09187	0.61393	0.29253	-0.09
Mof_H 	H 	0.05967	0.58113	0.28833	0.068
Mof_C 	C 	0.09297	0.66013	0.27913	0.034
Mof_C 	C 	0.14187	0.70693	0.28113	-0.092
Mof_H 	H 	0.14457	0.73913	0.26833	0.06
Mof_C 	C 	0.18667	0.70733	0.30163	0.03
Mof_H 	H 	0.21927	0.73983	0.30373	0.036
Mof_C 	C 	0.04417	0.66163	0.26353	0.074
Mof_C 	C 	0.04477	0.71003	0.26463	-0.116
Mof_H 	H 	0.07617	0.74163	0.27533	0.066
Mof_C 	C 	0.95327	0.76493	0.24663	-0.116
Mof_H 	H 	0.92017	0.73283	0.24423	0.068
Mof_C 	C 	0.95497	0.81323	0.24673	0.083
Mof_H 	H 	0.92247	0.81343	0.24423	0.01
Mof_O 	O 	0.89916	0.9528	0.68367	-0.398
Mof_O 	O 	0.93652	0.04095	0.69357	-0.409
Mof_C 	C 	0.89973	0.99637	0.67837	0.373
Mof_C 	C 	0.85103	0.99407	0.65237	-0.098
Mof_C 	C 	0.80403	0.94737	0.64567	0.031
Mof_H 	H 	0.80233	0.91477	0.65447	0.034
Mof_C 	C 	0.75853	0.94727	0.62587	-0.09
Mof_H 	H 	0.72633	0.91447	0.62167	0.07
Mof_C 	C 	0.75963	0.99347	0.61247	0.039
Mof_C 	C 	0.80853	0.04027	0.61447	-0.097
Mof_H 	H 	0.81123	0.07247	0.60167	0.061
Mof_C 	C 	0.85333	0.04067	0.63497	0.024
Mof_H 	H 	0.88593	0.07317	0.63707	0.038
Mof_C 	C 	0.71083	0.99497	0.59687	0.081
Mof_C 	C 	0.71143	0.04337	0.59797	-0.123
Mof_H 	H 	0.74283	0.07497	0.60867	0.068
Mof_C 	C 	0.61993	0.09827	0.57997	-0.123
Mof_H 	H 	0.58683	0.06617	0.57757	0.068
Mof_C 	C 	0.62163	0.14657	0.58007	0.079
Mof_H 	H 	0.58913	0.14677	0.57757	0.01
Mof_O 	O 	0.71387	0.2797	0.017	-0.399
Mof_O 	O 	0.62572	0.22891	0.0269	-0.407
Mof_C 	C 	0.6703	0.2367	0.0117	0.367
Mof_C 	C 	0.6726	0.1903	0.9857	-0.104
Mof_C 	C 	0.7193	0.19	0.979	0.03
Mof_H 	H 	0.7519	0.2209	0.9878	0.034
Mof_C 	C 	0.7194	0.1446	0.9592	-0.09
Mof_H 	H 	0.7522	0.1452	0.955	0.069
Mof_C 	C 	0.6732	0.0995	0.9458	0.032
Mof_C 	C 	0.6264	0.1016	0.9478	-0.091
Mof_H 	H 	0.5942	0.0721	0.935	0.059
Mof_C 	C 	0.626	0.146	0.9683	0.029
Mof_H 	H 	0.5935	0.1461	0.9704	0.036
Mof_C 	C 	0.6717	0.0492	0.9302	0.078
Mof_C 	C 	0.6233	0.0014	0.9313	-0.127
Mof_H 	H 	0.5917	0.0012	0.942	0.068
Mof_C 	C 	0.5684	0.855	0.9133	-0.121
Mof_H 	H 	0.6005	0.854	0.9109	0.069
Mof_C 	C 	0.5201	0.8084	0.9134	0.079
Mof_H 	H 	0.5199	0.7757	0.9109	0.011
Mof_O 	O 	0.38054	0.61303	0.35033	-0.399
Mof_O 	O 	0.29239	0.56224	0.36023	-0.406
Mof_C 	C 	0.33697	0.57003	0.34503	0.367
Mof_C 	C 	0.33927	0.52363	0.31903	-0.104
Mof_C 	C 	0.38597	0.52333	0.31233	0.031
Mof_H 	H 	0.41857	0.55423	0.32113	0.034
Mof_C 	C 	0.38607	0.47793	0.29253	-0.09
Mof_H 	H 	0.41887	0.47853	0.28833	0.069
Mof_C 	C 	0.33987	0.43283	0.27913	0.034
Mof_C 	C 	0.29307	0.43493	0.28113	-0.091
Mof_H 	H 	0.26087	0.40543	0.26833	0.06
Mof_C 	C 	0.29267	0.47933	0.30163	0.03
Mof_H 	H 	0.26017	0.47943	0.30373	0.036
Mof_C 	C 	0.33837	0.38253	0.26353	0.076
Mof_C 	C 	0.28997	0.33473	0.26463	-0.118
Mof_H 	H 	0.25837	0.33453	0.27533	0.067
Mof_C 	C 	0.23507	0.18833	0.24663	-0.122
Mof_H 	H 	0.26717	0.18733	0.24423	0.069
Mof_C 	C 	0.18677	0.14173	0.24673	0.079
Mof_H 	H 	0.18657	0.10903	0.24423	0.01
Mof_O 	O 	0.0472	0.94637	0.68367	-0.395
Mof_O 	O 	0.95905	0.89558	0.69357	-0.4
Mof_C 	C 	0.00363	0.90337	0.67837	0.36
Mof_C 	C 	0.00593	0.85697	0.65237	-0.109
Mof_C 	C 	0.05263	0.85667	0.64567	0.031
Mof_H 	H 	0.08523	0.88757	0.65447	0.034
Mof_C 	C 	0.05273	0.81127	0.62587	-0.089
Mof_H 	H 	0.08553	0.81187	0.62167	0.069
Mof_C 	C 	0.00653	0.76617	0.61247	0.028
Mof_C 	C 	0.95973	0.76827	0.61447	-0.085
Mof_H 	H 	0.92753	0.73877	0.60167	0.059
Mof_C 	C 	0.95933	0.81267	0.63497	0.036
Mof_H 	H 	0.92683	0.81277	0.63707	0.035
Mof_C 	C 	0.00503	0.71587	0.59687	0.071
Mof_C 	C 	0.95663	0.66807	0.59797	-0.112
Mof_H 	H 	0.92503	0.66787	0.60867	0.066
Mof_C 	C 	0.90173	0.52167	0.57997	-0.121
Mof_H 	H 	0.93383	0.52067	0.57757	0.071
Mof_C 	C 	0.85343	0.47507	0.58007	0.079
Mof_H 	H 	0.85323	0.44237	0.57757	0.011
Mof_O 	O 	0.7203	0.43417	0.017	-0.399
Mof_O 	O 	0.77109	0.39681	0.0269	-0.407
Mof_C 	C 	0.7633	0.4336	0.0117	0.367
Mof_C 	C 	0.8097	0.4823	0.9857	-0.105
Mof_C 	C 	0.81	0.5293	0.979	0.032
Mof_H 	H 	0.7791	0.531	0.9878	0.034
Mof_C 	C 	0.8554	0.5748	0.9592	-0.091
Mof_H 	H 	0.8548	0.607	0.955	0.07
Mof_C 	C 	0.9005	0.5737	0.9458	0.036
Mof_C 	C 	0.8984	0.5248	0.9478	-0.092
Mof_H 	H 	0.9279	0.5221	0.935	0.061
Mof_C 	C 	0.854	0.48	0.9683	0.031
Mof_H 	H 	0.8539	0.4474	0.9704	0.036
Mof_C 	C 	0.9508	0.6225	0.9302	0.074
Mof_C 	C 	0.9986	0.6219	0.9313	-0.109
Mof_H 	H 	0.9988	0.5905	0.942	0.066
Mof_C 	C 	0.145	0.7134	0.9133	-0.123
Mof_H 	H 	0.146	0.7465	0.9109	0.07
Mof_C 	C 	0.1916	0.7117	0.9134	0.079
Mof_H 	H 	0.2243	0.7442	0.9109	0.01
Mof_O 	O 	0.38697	0.7675	0.35033	-0.399
Mof_O 	O 	0.43776	0.73014	0.36023	-0.407
Mof_C 	C 	0.42997	0.76693	0.34503	0.367
Mof_C 	C 	0.47637	0.81563	0.31903	-0.104
Mof_C 	C 	0.47667	0.86263	0.31233	0.031
Mof_H 	H 	0.44577	0.86433	0.32113	0.034
Mof_C 	C 	0.52207	0.90813	0.29253	-0.09
Mof_H 	H 	0.52147	0.94033	0.28833	0.071
Mof_C 	C 	0.56717	0.90703	0.27913	0.034
Mof_C 	C 	0.56507	0.85813	0.28113	-0.091
Mof_H 	H 	0.59457	0.85543	0.26833	0.06
Mof_C 	C 	0.52067	0.81333	0.30163	0.03
Mof_H 	H 	0.52057	0.78073	0.30373	0.036
Mof_C 	C 	0.61747	0.95583	0.26353	0.079
Mof_C 	C 	0.66527	0.95523	0.26463	-0.11
Mof_H 	H 	0.66547	0.92383	0.27533	0.066
Mof_C 	C 	0.81167	0.04673	0.24663	-0.121
Mof_H 	H 	0.81267	0.07983	0.24423	0.069
Mof_C 	C 	0.85827	0.04503	0.24673	0.077
Mof_H 	H 	0.89097	0.07753	0.24423	0.011
Mof_O 	O 	0.05363	0.10084	0.68367	-0.401
Mof_O 	O 	0.10442	0.06348	0.69357	-0.408
Mof_C 	C 	0.09663	0.10027	0.67837	0.367
Mof_C 	C 	0.14303	0.14897	0.65237	-0.105
Mof_C 	C 	0.14333	0.19597	0.64567	0.031
Mof_H 	H 	0.11243	0.19767	0.65447	0.033
Mof_C 	C 	0.18873	0.24147	0.62587	-0.091
Mof_H 	H 	0.18813	0.27367	0.62167	0.069
Mof_C 	C 	0.23383	0.24037	0.61247	0.034
Mof_C 	C 	0.23173	0.19147	0.61447	-0.092
Mof_H 	H 	0.26123	0.18877	0.60167	0.06
Mof_C 	C 	0.18733	0.14667	0.63497	0.03
Mof_H 	H 	0.18723	0.11407	0.63707	0.035
Mof_C 	C 	0.28413	0.28917	0.59687	0.076
Mof_C 	C 	0.33193	0.28857	0.59797	-0.118
Mof_H 	H 	0.33213	0.25717	0.60867	0.067
Mof_C 	C 	0.47833	0.38007	0.57997	-0.122
Mof_H 	H 	0.47933	0.41317	0.57757	0.069
Mof_C 	C 	0.52493	0.37837	0.58007	0.079
Mof_H 	H 	0.55763	0.41087	0.57757	0.011
Mof_O 	O 	0.28613	0.56583	0.483	-0.399
Mof_O 	O 	0.37428	0.60319	0.4731	-0.407
Mof_C 	C 	0.3297	0.5664	0.4883	0.367
Mof_C 	C 	0.3274	0.5177	0.5143	-0.104
Mof_C 	C 	0.2807	0.4707	0.521	0.031
Mof_H 	H 	0.2481	0.469	0.5122	0.034
Mof_C 	C 	0.2806	0.4252	0.5408	-0.09
Mof_H 	H 	0.2478	0.393	0.545	0.069
Mof_C 	C 	0.3268	0.4263	0.5542	0.034
Mof_C 	C 	0.3736	0.4752	0.5522	-0.091
Mof_H 	H 	0.4058	0.4779	0.565	0.06
Mof_C 	C 	0.374	0.52	0.5317	0.03
Mof_H 	H 	0.4065	0.5526	0.5296	0.036
Mof_C 	C 	0.3283	0.3775	0.5698	0.076
Mof_C 	C 	0.3767	0.3781	0.5687	-0.118
Mof_H 	H 	0.4083	0.4095	0.558	0.067
Mof_C 	C 	0.4316	0.2866	0.5867	-0.122
Mof_H 	H 	0.3995	0.2535	0.5891	0.069
Mof_C 	C 	0.4799	0.2883	0.5866	0.079
Mof_H 	H 	0.4801	0.2558	0.5891	0.01
Mof_O 	O 	0.9528	0.89916	0.81633	-0.398
Mof_O 	O 	0.04095	0.93652	0.80643	-0.409
Mof_C 	C 	0.99637	0.89973	0.82163	0.373
Mof_C 	C 	0.99407	0.85103	0.84763	-0.098
Mof_C 	C 	0.94737	0.80403	0.85433	0.031
Mof_H 	H 	0.91477	0.80233	0.84553	0.034
Mof_C 	C 	0.94727	0.75853	0.87413	-0.09
Mof_H 	H 	0.91447	0.72633	0.87833	0.07
Mof_C 	C 	0.99347	0.75963	0.88753	0.039
Mof_C 	C 	0.04027	0.80853	0.88553	-0.097
Mof_H 	H 	0.07247	0.81123	0.89833	0.061
Mof_C 	C 	0.04067	0.85333	0.86503	0.024
Mof_H 	H 	0.07317	0.88593	0.86293	0.038
Mof_C 	C 	0.99497	0.71083	0.90313	0.081
Mof_C 	C 	0.04337	0.71143	0.90203	-0.123
Mof_H 	H 	0.07497	0.74283	0.89133	0.068
Mof_C 	C 	0.09827	0.61993	0.92003	-0.123
Mof_H 	H 	0.06617	0.58683	0.92243	0.068
Mof_C 	C 	0.14657	0.62163	0.91993	0.079
Mof_H 	H 	0.14677	0.58913	0.92243	0.01
Mof_O 	O 	0.61946	0.2325	0.14967	-0.399
Mof_O 	O 	0.70761	0.26986	0.13977	-0.407
Mof_C 	C 	0.66303	0.23307	0.15497	0.367
Mof_C 	C 	0.66073	0.18437	0.18097	-0.104
Mof_C 	C 	0.61403	0.13737	0.18767	0.031
Mof_H 	H 	0.58143	0.13567	0.17887	0.034
Mof_C 	C 	0.61393	0.09187	0.20747	-0.09
Mof_H 	H 	0.58113	0.05967	0.21167	0.068
Mof_C 	C 	0.66013	0.09297	0.22087	0.034
Mof_C 	C 	0.70693	0.14187	0.21887	-0.092
Mof_H 	H 	0.73913	0.14457	0.23167	0.06
Mof_C 	C 	0.70733	0.18667	0.19837	0.03
Mof_H 	H 	0.73983	0.21927	0.19627	0.036
Mof_C 	C 	0.66163	0.04417	0.23647	0.074
Mof_C 	C 	0.71003	0.04477	0.23537	-0.116
Mof_H 	H 	0.74163	0.07617	0.22467	0.066
Mof_C 	C 	0.76493	0.95327	0.25337	-0.116
Mof_H 	H 	0.73283	0.92017	0.25577	0.068
Mof_C 	C 	0.81323	0.95497	0.25327	0.083
Mof_H 	H 	0.81343	0.92247	0.25577	0.01
Mof_O 	O 	0.2797	0.71387	0.483	-0.399
Mof_O 	O 	0.22891	0.62572	0.4731	-0.407
Mof_C 	C 	0.2367	0.6703	0.4883	0.367
Mof_C 	C 	0.1903	0.6726	0.5143	-0.104
Mof_C 	C 	0.19	0.7193	0.521	0.03
Mof_H 	H 	0.2209	0.7519	0.5122	0.034
Mof_C 	C 	0.1446	0.7194	0.5408	-0.089
Mof_H 	H 	0.1452	0.7522	0.545	0.069
Mof_C 	C 	0.0995	0.6732	0.5542	0.032
Mof_C 	C 	0.1016	0.6264	0.5522	-0.091
Mof_H 	H 	0.0721	0.5942	0.565	0.059
Mof_C 	C 	0.146	0.626	0.5317	0.029
Mof_H 	H 	0.1461	0.5935	0.5296	0.036
Mof_C 	C 	0.0492	0.6717	0.5698	0.078
Mof_C 	C 	0.0014	0.6233	0.5687	-0.127
Mof_H 	H 	0.0012	0.5917	0.558	0.068
Mof_C 	C 	0.855	0.5684	0.5867	-0.121
Mof_H 	H 	0.854	0.6005	0.5891	0.069
Mof_C 	C 	0.8084	0.5201	0.5866	0.079
Mof_H 	H 	0.7757	0.5199	0.5891	0.011
Mof_O 	O 	0.94637	0.0472	0.81633	-0.395
Mof_O 	O 	0.89558	0.95905	0.80643	-0.4
Mof_C 	C 	0.90337	0.00363	0.82163	0.36
Mof_C 	C 	0.85697	0.00593	0.84763	-0.109
Mof_C 	C 	0.85667	0.05263	0.85433	0.031
Mof_H 	H 	0.88757	0.08523	0.84553	0.034
Mof_C 	C 	0.81127	0.05273	0.87413	-0.089
Mof_H 	H 	0.81187	0.08553	0.87833	0.069
Mof_C 	C 	0.76617	0.00653	0.88753	0.028
Mof_C 	C 	0.76827	0.95973	0.88553	-0.085
Mof_H 	H 	0.73877	0.92753	0.89833	0.059
Mof_C 	C 	0.81267	0.95933	0.86503	0.035
Mof_H 	H 	0.81277	0.92683	0.86293	0.035
Mof_C 	C 	0.71587	0.00503	0.90313	0.071
Mof_C 	C 	0.66807	0.95663	0.90203	-0.112
Mof_H 	H 	0.66787	0.92503	0.89133	0.066
Mof_C 	C 	0.52167	0.90173	0.92003	-0.121
Mof_H 	H 	0.52067	0.93383	0.92243	0.071
Mof_C 	C 	0.47507	0.85343	0.91993	0.079
Mof_H 	H 	0.44237	0.85323	0.92243	0.011
Mof_O 	O 	0.61303	0.38054	0.14967	-0.399
Mof_O 	O 	0.56224	0.29239	0.13977	-0.406
Mof_C 	C 	0.57003	0.33697	0.15497	0.367
Mof_C 	C 	0.52363	0.33927	0.18097	-0.104
Mof_C 	C 	0.52333	0.38597	0.18767	0.031
Mof_H 	H 	0.55423	0.41857	0.17887	0.034
Mof_C 	C 	0.47793	0.38607	0.20747	-0.09
Mof_H 	H 	0.47853	0.41887	0.21167	0.069
Mof_C 	C 	0.43283	0.33987	0.22087	0.034
Mof_C 	C 	0.43493	0.29307	0.21887	-0.091
Mof_H 	H 	0.40543	0.26087	0.23167	0.06
Mof_C 	C 	0.47933	0.29267	0.19837	0.03
Mof_H 	H 	0.47943	0.26017	0.19627	0.036
Mof_C 	C 	0.38253	0.33837	0.23647	0.076
Mof_C 	C 	0.33473	0.28997	0.23537	-0.118
Mof_H 	H 	0.33453	0.25837	0.22467	0.067
Mof_C 	C 	0.18833	0.23507	0.25337	-0.122
Mof_H 	H 	0.18733	0.26717	0.25577	0.069
Mof_C 	C 	0.14173	0.18677	0.25327	0.079
Mof_H 	H 	0.10903	0.18657	0.25577	0.01
Mof_O 	O 	0.43417	0.7203	0.483	-0.399
Mof_O 	O 	0.39681	0.77109	0.4731	-0.407
Mof_C 	C 	0.4336	0.7633	0.4883	0.367
Mof_C 	C 	0.4823	0.8097	0.5143	-0.105
Mof_C 	C 	0.5293	0.81	0.521	0.032
Mof_H 	H 	0.531	0.7791	0.5122	0.034
Mof_C 	C 	0.5748	0.8554	0.5408	-0.091
Mof_H 	H 	0.607	0.8548	0.545	0.07
Mof_C 	C 	0.5737	0.9005	0.5542	0.036
Mof_C 	C 	0.5248	0.8984	0.5522	-0.092
Mof_H 	H 	0.5221	0.9279	0.565	0.061
Mof_C 	C 	0.48	0.854	0.5317	0.031
Mof_H 	H 	0.4474	0.8539	0.5296	0.036
Mof_C 	C 	0.6225	0.9508	0.5698	0.074
Mof_C 	C 	0.6219	0.9986	0.5687	-0.109
Mof_H 	H 	0.5905	0.9988	0.558	0.066
Mof_C 	C 	0.7134	0.145	0.5867	-0.123
Mof_H 	H 	0.7465	0.146	0.5891	0.07
Mof_C 	C 	0.7117	0.1916	0.5866	0.079
Mof_H 	H 	0.7442	0.2243	0.5891	0.01
Mof_O 	O 	0.10084	0.05363	0.81633	-0.401
Mof_O 	O 	0.06348	0.10442	0.80643	-0.408
Mof_C 	C 	0.10027	0.09663	0.82163	0.367
Mof_C 	C 	0.14897	0.14303	0.84763	-0.105
Mof_C 	C 	0.19597	0.14333	0.85433	0.031
Mof_H 	H 	0.19767	0.11243	0.84553	0.033
Mof_C 	C 	0.24147	0.18873	0.87413	-0.091
Mof_H 	H 	0.27367	0.18813	0.87833	0.069
Mof_C 	C 	0.24037	0.23383	0.88753	0.034
Mof_C 	C 	0.19147	0.23173	0.88553	-0.092
Mof_H 	H 	0.18877	0.26123	0.89833	0.06
Mof_C 	C 	0.14667	0.18733	0.86503	0.03
Mof_H 	H 	0.11407	0.18723	0.86293	0.035
Mof_C 	C 	0.28917	0.28413	0.90313	0.076
Mof_C 	C 	0.28857	0.33193	0.90203	-0.118
Mof_H 	H 	0.25717	0.33213	0.89133	0.067
Mof_C 	C 	0.38007	0.47833	0.92003	-0.122
Mof_H 	H 	0.41317	0.47933	0.92243	0.069
Mof_C 	C 	0.37837	0.52493	0.91993	0.079
Mof_H 	H 	0.41087	0.55763	0.92243	0.011
Mof_O 	O 	0.7675	0.38697	0.14967	-0.399
Mof_O 	O 	0.73014	0.43776	0.13977	-0.406
Mof_C 	C 	0.76693	0.42997	0.15497	0.367
Mof_C 	C 	0.81563	0.47637	0.18097	-0.104
Mof_C 	C 	0.86263	0.47667	0.18767	0.031
Mof_H 	H 	0.86433	0.44577	0.17887	0.034
Mof_C 	C 	0.90813	0.52207	0.20747	-0.09
Mof_H 	H 	0.94033	0.52147	0.21167	0.071
Mof_C 	C 	0.90703	0.56717	0.22087	0.034
Mof_C 	C 	0.85813	0.56507	0.21887	-0.091
Mof_H 	H 	0.85543	0.59457	0.23167	0.06
Mof_C 	C 	0.81333	0.52067	0.19837	0.03
Mof_H 	H 	0.78073	0.52057	0.19627	0.036
Mof_C 	C 	0.95583	0.61747	0.23647	0.079
Mof_C 	C 	0.95523	0.66527	0.23537	-0.11
Mof_H 	H 	0.92383	0.66547	0.22467	0.066
Mof_C 	C 	0.04673	0.81167	0.25337	-0.121
Mof_H 	H 	0.07983	0.81267	0.25577	0.069
Mof_C 	C 	0.04503	0.85827	0.25327	0.077
Mof_H 	H 	0.07753	0.89097	0.25577	0.011
Mof_Ni	Ni	0.66667	0.40218	0.08333	1.126
Mof_N 	N 	0.66667	0.47388	0.08333	-0.209
Mof_N 	N 	0.66667	0.71768	0.08333	-0.13
Mof_C 	C 	0.66667	0.62138	0.08333	0.051
Mof_C 	C 	0.66667	0.56978	0.08333	0.055
Mof_Ni	Ni	0.59782	0.26448	0.08333	1.126
Mof_N 	N 	0.52612	0.19278	0.08333	-0.209
Mof_N 	N 	0.28232	0.94898	0.08333	-0.13
Mof_C 	C 	0.37862	0.04528	0.08333	0.044
Mof_C 	C 	0.43022	0.09688	0.08333	0.056
Mof_Ni	Ni	0.73552	0.33333	0.08333	1.126
Mof_N 	N 	0.80722	0.33333	0.08333	-0.209
Mof_N 	N 	0.05102	0.33333	0.08333	-0.13
Mof_C 	C 	0.95472	0.33333	0.08333	0.057
Mof_C 	C 	0.90312	0.33333	0.08333	0.054
Mof_Ni	Ni	0.40218	0.66667	0.41667	1.126
Mof_N 	N 	0.47388	0.66667	0.41667	-0.209
Mof_N 	N 	0.71768	0.66667	0.41667	-0.13
Mof_C 	C 	0.62138	0.66667	0.41667	0.051
Mof_C 	C 	0.56978	0.66667	0.41667	0.055
Mof_Ni	Ni	0.06885	0	0.75	1.124
Mof_N 	N 	0.14055	0	0.75	-0.212
Mof_N 	N 	0.38435	0	0.75	-0.133
Mof_C 	C 	0.28805	0	0.75	0.045
Mof_C 	C 	0.23645	0	0.75	0.049
Mof_Ni	Ni	0.26448	0.59782	0.41667	1.126
Mof_N 	N 	0.19278	0.52612	0.41667	-0.209
Mof_N 	N 	0.94898	0.28232	0.41667	-0.13
Mof_C 	C 	0.04528	0.37862	0.41667	0.044
Mof_C 	C 	0.09688	0.43022	0.41667	0.056
Mof_Ni	Ni	0.93115	0.93115	0.75	1.128
Mof_N 	N 	0.85945	0.85945	0.75	-0.209
Mof_N 	N 	0.61565	0.61565	0.75	-0.13
Mof_C 	C 	0.71195	0.71195	0.75	0.051
Mof_C 	C 	0.76355	0.76355	0.75	0.055
Mof_Ni	Ni	0.33333	0.73552	0.41667	1.126
Mof_N 	N 	0.33333	0.80722	0.41667	-0.209
Mof_N 	N 	0.33333	0.05102	0.41667	-0.13
Mof_C 	C 	0.33333	0.95472	0.41667	0.057
Mof_C 	C 	0.33333	0.90312	0.41667	0.054
Mof_Ni	Ni	-1.10528e-18	0.06885	0.75	1.124
Mof_N 	N 	-7.72262e-18	0.14055	0.75	-0.212
Mof_N 	N 	5.51206e-18	0.38435	0.75	-0.133
Mof_C 	C 	-2.09573e-17	0.28805	0.75	0.045
Mof_C 	C 	-2.09573e-17	0.23645	0.75	0.049
Mof_Ni	Ni	0.33333	0.59782	0.91667	1.126
Mof_N 	N 	0.33333	0.52612	0.91667	-0.209
Mof_N 	N 	0.33333	0.28232	0.91667	-0.13
Mof_C 	C 	0.33333	0.37862	0.91667	0.051
Mof_C 	C 	0.33333	0.43022	0.91667	0.055
Mof_Ni	Ni	-2.4632e-17	0.93115	0.25	1.125
Mof_N 	N 	-2.4632e-17	0.85945	0.25	-0.212
Mof_N 	N 	-7.75707e-17	0.61565	0.25	-0.133
Mof_C 	C 	-7.75707e-17	0.71195	0.25	0.044
Mof_C 	C 	-7.75707e-17	0.76355	0.25	0.049
Mof_Ni	Ni	0.40218	0.73552	0.91667	1.126
Mof_N 	N 	0.47388	0.80722	0.91667	-0.209
Mof_N 	N 	0.71768	0.05102	0.91667	-0.13
Mof_C 	C 	0.62138	0.95472	0.91667	0.057
Mof_C 	C 	0.56978	0.90312	0.91667	0.054
Mof_Ni	Ni	0.06885	0.06885	0.25	1.125
Mof_N 	N 	0.14055	0.14055	0.25	-0.209
Mof_N 	N 	0.38435	0.38435	0.25	-0.13
Mof_C 	C 	0.28805	0.28805	0.25	0.051
Mof_C 	C 	0.23645	0.23645	0.25	0.055
Mof_Ni	Ni	0.26448	0.66667	0.91667	1.126
Mof_N 	N 	0.19278	0.66667	0.91667	-0.209
Mof_N 	N 	0.94898	0.66667	0.91667	-0.13
Mof_C 	C 	0.04528	0.66667	0.91667	0.045
Mof_C 	C 	0.09688	0.66667	0.91667	0.056
Mof_Ni	Ni	0.93115	2.93869e-33	0.25	1.125
Mof_N 	N 	0.85945	2.93869e-33	0.25	-0.212
Mof_N 	N 	0.61565	2.93869e-33	0.25	-0.133
Mof_C 	C 	0.71195	2.93869e-33	0.25	0.044
Mof_C 	C 	0.76355	2.93869e-33	0.25	0.049
Mof_Ni	Ni	0.59782	0.33333	0.58333	1.126
Mof_N 	N 	0.52612	0.33333	0.58333	-0.209
Mof_N 	N 	0.28232	0.33333	0.58333	-0.13
Mof_C 	C 	0.37862	0.33333	0.58333	0.051
Mof_C 	C 	0.43022	0.33333	0.58333	0.055
Mof_Ni	Ni	0.73552	0.40218	0.58333	1.126
Mof_N 	N 	0.80722	0.47388	0.58333	-0.209
Mof_N 	N 	0.05102	0.71768	0.58333	-0.13
Mof_C 	C 	0.95472	0.62138	0.58333	0.057
Mof_C 	C 	0.90312	0.56978	0.58333	0.054
Mof_Ni	Ni	0.66667	0.26448	0.58333	1.126
Mof_N 	N 	0.66667	0.19278	0.58333	-0.209
Mof_N 	N 	0.66667	0.94898	0.58333	-0.13
Mof_C 	C 	0.66667	0.04528	0.58333	0.044
Mof_C 	C 	0.66667	0.09688	0.58333	0.056
Mof_O 	O 	0.66667	0.33333	0.08333	-0.716
Mof_O 	O 	-0	0	0.75	-0.719
Mof_O 	O 	0.33333	0.66667	0.41667	-0.717
Mof_O 	O 	0.33333	0.66667	0.91667	-0.716
Mof_O 	O 	-0	2.93869e-33	0.25	-0.719
Mof_O 	O 	0.66667	0.33333	0.58333	-0.717
Mof_H 	H 	0.66667	0.33333	0.126	0.126
Mof_H 	H 	0.33333	0.66667	0.45933	0.126
Mof_H 	H 	5.87738e-33	1.17548e-32	0.79267	0.123
Mof_H 	H 	0.33333	0.66667	0.374	0.126
Mof_H 	H 	-1.17548e-32	0	0.70733	0.123
Mof_H 	H 	0.66667	0.33333	0.04067	0.126
Mof_H 	H 	0.33333	0.66667	0.874	0.126
Mof_H 	H 	1.46934e-33	2.93869e-33	0.20733	0.123
Mof_H 	H 	0.66667	0.33333	0.54067	0.126
Mof_H 	H 	0.66667	0.33333	0.626	0.126
Mof_H 	H 	0.33333	0.66667	0.95933	0.126
Mof_H 	H 	-0	0	0.29267	0.123
_end
