data_functionalizedCrystal
_audit_creation_method	'EQeq! by Chris Wilmer'
_symmetry_space_group_name_H-M	'P1'
_symmetry_Int_Tables_number	1
_symmetry_cell_setting	triclinic
loop_
_symmetry_equiv_pos_as_xyz
  x,y,z
_cell_length_a	27.568
_cell_length_b	13.7285
_cell_length_c	45.836
_cell_angle_alpha	90
_cell_angle_beta	90
_cell_angle_gamma	90
loop_
_atom_site_label
_atom_site_type_symbol
_atom_site_fract_x
_atom_site_fract_y
_atom_site_fract_z
_atom_site_charge
Mof_C 	C 	0.7225	0.5463	0.2592	0.059
Mof_H 	H 	0.6911	0.5511	0.2676	0.001
Mof_C 	C 	0.7264	0.5108	0.23122	-0.112
Mof_H 	H 	0.6984	0.4916	0.2206	0.079
Mof_C 	C 	0.7723	0.5039	0.21892	0.048
Mof_C 	C 	0.8127	0.527	0.2354	-0.113
Mof_H 	H 	0.8445	0.5194	0.2277	0.078
Mof_C 	C 	0.8053	0.5618	0.26364	0.059
Mof_H 	H 	0.8328	0.5773	0.2752	-0.009
Mof_C 	C 	0.7781	0.4763	0.18762	0.102
Mof_C 	C 	0.7426	0.4409	0.14457	0.103
Mof_C 	C 	0.8243	0.4434	0.14855	0.1
Mof_C 	C 	0.698	0.4267	0.12682	0.048
Mof_C 	C 	0.6524	0.4395	0.13995	-0.112
Mof_H 	H 	0.6498	0.4585	0.1598	0.078
Mof_C 	C 	0.6116	0.4236	0.1232	0.057
Mof_H 	H 	0.5807	0.4335	0.1319	-0.01
Mof_C 	C 	0.6577	0.3842	0.08267	0.064
Mof_H 	H 	0.6595	0.3652	0.0628	-0.014
Mof_C 	C 	0.7	0.3998	0.0978	-0.117
Mof_H 	H 	0.7304	0.3922	0.0884	0.077
Mof_C 	C 	0.8726	0.4321	0.13502	0.048
Mof_C 	C 	0.8775	0.4171	0.10531	-0.108
Mof_H 	H 	0.8498	0.4163	0.093	0.076
Mof_C 	C 	0.9236	0.4032	0.09385	0.058
Mof_H 	H 	0.9269	0.3953	0.0733	-0.005
Mof_C 	C 	0.9591	0.4163	0.13911	0.066
Mof_H 	H 	0.9873	0.4165	0.151	-0.005
Mof_C 	C 	0.9143	0.4327	0.15208	-0.112
Mof_H 	H 	0.9121	0.4442	0.1725	0.079
Mof_C 	C 	0.8102	0.6266	0.36603	0.063
Mof_H 	H 	0.8113	0.6958	0.3657	-0.006
Mof_C 	C 	0.8318	0.577	0.38889	-0.108
Mof_H 	H 	0.8476	0.6122	0.404	0.079
Mof_C 	C 	0.8305	0.4771	0.38972	0.056
Mof_C 	C 	0.8074	0.4282	0.3675	-0.114
Mof_H 	H 	0.8056	0.3591	0.3675	0.074
Mof_C 	C 	0.7866	0.4817	0.34494	0.065
Mof_H 	H 	0.7711	0.4479	0.3294	-0.013
Mof_C 	C 	0.8546	0.4235	0.4137	0.107
Mof_C 	C 	0.8898	0.4224	0.45789	0.1
Mof_C 	C 	0.8888	0.2853	0.43045	0.094
Mof_C 	C 	0.9497	0.4808	0.52937	0.068
Mof_H 	H 	0.9694	0.4491	0.5435	-0.006
Mof_C 	C 	0.9352	0.4296	0.5055	-0.123
Mof_H 	H 	0.9445	0.3634	0.5031	0.086
Mof_C 	C 	0.9068	0.4752	0.48457	0.05
Mof_C 	C 	0.8949	0.5727	0.48838	-0.114
Mof_H 	H 	0.876	0.6064	0.4743	0.079
Mof_C 	C 	0.9113	0.6193	0.51314	0.067
Mof_H 	H 	0.9037	0.6863	0.5157	-0.007
Mof_C 	C 	0.9328	0.0294	0.4431	0.074
Mof_H 	H 	0.9391	0.9877	0.4592	-0.008
Mof_C 	C 	0.916	0.1237	0.4483	-0.12
Mof_H 	H 	0.9119	0.1463	0.4677	0.083
Mof_C 	C 	0.9053	0.184	0.42506	0.054
Mof_C 	C 	0.9121	0.1486	0.3969	-0.127
Mof_H 	H 	0.9054	0.1881	0.3804	0.096
Mof_C 	C 	0.9288	0.0549	0.3937	0.075
Mof_H 	H 	0.9324	0.03	0.3745	-0.011
Mof_I 	I 	0.80479	0.8103	0.30392	-0.367
Mof_I 	I 	0.66305	0.67193	0.32371	-0.373
Mof_I 	I 	0.07666	0.28118	0.13319	-0.364
Mof_I 	I 	0.01521	0.27862	0.04296	-0.385
Mof_I 	I 	0.48303	0.45231	0.10041	-0.365
Mof_I 	I 	0.55086	0.17495	0.06648	-0.379
Mof_N 	N 	0.761	0.5744	0.27529	-0.271
Mof_N 	N 	0.7368	0.4638	0.17245	-0.14
Mof_N 	N 	0.7855	0.4301	0.13105	-0.139
Mof_N 	N 	0.8227	0.4665	0.17689	-0.14
Mof_N 	N 	0.6136	0.395	0.0953	-0.268
Mof_N 	N 	0.9641	0.4003	0.11056	-0.267
Mof_N 	N 	0.7876	0.5794	0.3443	-0.272
Mof_N 	N 	0.8659	0.473	0.43781	-0.137
Mof_N 	N 	0.9017	0.328	0.45566	-0.143
Mof_N 	N 	0.8649	0.3293	0.40881	-0.133
Mof_N 	N 	0.9373	0.5743	0.53376	-0.27
Mof_N 	N 	0.9401	0.9964	0.4162	-0.274
Mof_Zn	Zn	0.75324	0.65755	0.3122	1.164
Mof_Zn	Zn	0.0298	0.36176	0.09205	1.163
Mof_Zn	Zn	0.54954	0.35904	0.07372	1.162
Mof_C 	C 	0.7775	0.4537	0.7592	0.06
Mof_H 	H 	0.8089	0.4489	0.7676	0.002
Mof_C 	C 	0.7736	0.4892	0.73122	-0.111
Mof_H 	H 	0.8016	0.5084	0.7206	0.08
Mof_C 	C 	0.7277	0.4961	0.71892	0.049
Mof_C 	C 	0.6873	0.473	0.7354	-0.112
Mof_H 	H 	0.6555	0.4806	0.7277	0.079
Mof_C 	C 	0.6947	0.4382	0.76364	0.06
Mof_H 	H 	0.6672	0.4227	0.7752	-0.008
Mof_C 	C 	0.7219	0.5237	0.68762	0.103
Mof_C 	C 	0.7574	0.5591	0.64457	0.104
Mof_C 	C 	0.6757	0.5566	0.64855	0.101
Mof_C 	C 	0.802	0.5733	0.62682	0.049
Mof_C 	C 	0.8476	0.5605	0.63995	-0.111
Mof_H 	H 	0.8502	0.5415	0.6598	0.079
Mof_C 	C 	0.8884	0.5764	0.6232	0.058
Mof_H 	H 	0.9193	0.5665	0.6319	-0.009
Mof_C 	C 	0.8423	0.6158	0.58267	0.065
Mof_H 	H 	0.8405	0.6348	0.5628	-0.013
Mof_C 	C 	0.8	0.6002	0.5978	-0.116
Mof_H 	H 	0.7696	0.6078	0.5884	0.078
Mof_C 	C 	0.6274	0.5679	0.63502	0.049
Mof_C 	C 	0.6225	0.5829	0.60531	-0.107
Mof_H 	H 	0.6502	0.5837	0.593	0.077
Mof_C 	C 	0.5764	0.5968	0.59385	0.059
Mof_H 	H 	0.5731	0.6047	0.5733	-0.005
Mof_C 	C 	0.5409	0.5837	0.63911	0.066
Mof_H 	H 	0.5127	0.5835	0.651	-0.006
Mof_C 	C 	0.5857	0.5673	0.65208	-0.112
Mof_H 	H 	0.5879	0.5558	0.6725	0.079
Mof_C 	C 	0.6898	0.3734	0.86603	0.063
Mof_H 	H 	0.6887	0.3042	0.8657	-0.006
Mof_C 	C 	0.6682	0.423	0.88889	-0.108
Mof_H 	H 	0.6524	0.3878	0.904	0.079
Mof_C 	C 	0.6695	0.5229	0.88972	0.056
Mof_C 	C 	0.6926	0.5718	0.8675	-0.114
Mof_H 	H 	0.6944	0.6409	0.8675	0.073
Mof_C 	C 	0.7134	0.5183	0.84494	0.065
Mof_H 	H 	0.7289	0.5521	0.8294	-0.013
Mof_C 	C 	0.6454	0.5765	0.9137	0.107
Mof_C 	C 	0.6102	0.5776	0.95789	0.1
Mof_C 	C 	0.6112	0.7147	0.93045	0.094
Mof_C 	C 	0.5503	0.5192	0.02937	0.068
Mof_H 	H 	0.5306	0.5509	0.0435	-0.006
Mof_C 	C 	0.5648	0.5704	0.0055	-0.123
Mof_H 	H 	0.5555	0.6366	0.0031	0.086
Mof_C 	C 	0.5932	0.5248	0.98457	0.05
Mof_C 	C 	0.6051	0.4273	0.98838	-0.114
Mof_H 	H 	0.624	0.3936	0.9743	0.079
Mof_C 	C 	0.5887	0.3807	0.01314	0.067
Mof_H 	H 	0.5963	0.3137	0.0157	-0.007
Mof_C 	C 	0.5672	0.9706	0.9431	0.072
Mof_H 	H 	0.5609	0.0123	0.9592	-0.007
Mof_C 	C 	0.584	0.8763	0.9483	-0.119
Mof_H 	H 	0.5881	0.8537	0.9677	0.082
Mof_C 	C 	0.5947	0.816	0.92506	0.053
Mof_C 	C 	0.5879	0.8514	0.8969	-0.127
Mof_H 	H 	0.5946	0.8119	0.8804	0.096
Mof_C 	C 	0.5712	0.9451	0.8937	0.074
Mof_H 	H 	0.5676	0.97	0.8745	-0.01
Mof_I 	I 	0.69521	0.1897	0.80392	-0.367
Mof_I 	I 	0.83695	0.32807	0.82371	-0.373
Mof_I 	I 	0.42334	0.71882	0.63319	-0.364
Mof_I 	I 	0.48479	0.72138	0.54296	-0.385
Mof_I 	I 	0.01697	0.54769	0.60041	-0.365
Mof_I 	I 	0.94914	0.82505	0.56648	-0.38
Mof_N 	N 	0.739	0.4256	0.77529	-0.271
Mof_N 	N 	0.7632	0.5362	0.67245	-0.14
Mof_N 	N 	0.7145	0.5699	0.63105	-0.139
Mof_N 	N 	0.6773	0.5335	0.67689	-0.14
Mof_N 	N 	0.8864	0.605	0.5953	-0.268
Mof_N 	N 	0.5359	0.5997	0.61056	-0.267
Mof_N 	N 	0.7124	0.4206	0.8443	-0.272
Mof_N 	N 	0.6341	0.527	0.93781	-0.137
Mof_N 	N 	0.5983	0.672	0.95566	-0.143
Mof_N 	N 	0.6351	0.6707	0.90881	-0.133
Mof_N 	N 	0.5627	0.4257	0.03376	-0.27
Mof_N 	N 	0.5599	0.0036	0.9162	-0.273
Mof_Zn	Zn	0.74676	0.34245	0.8122	1.164
Mof_Zn	Zn	0.4702	0.63824	0.59205	1.164
Mof_Zn	Zn	0.95046	0.64096	0.57372	1.162
Mof_C 	C 	0.2775	0.0463	0.2408	0.06
Mof_H 	H 	0.3089	0.0511	0.2324	0.002
Mof_C 	C 	0.2736	0.0108	0.26878	-0.111
Mof_H 	H 	0.3016	0.9916	0.2794	0.08
Mof_C 	C 	0.2277	0.0039	0.28108	0.048
Mof_C 	C 	0.1873	0.027	0.2646	-0.112
Mof_H 	H 	0.1555	0.0194	0.2723	0.079
Mof_C 	C 	0.1947	0.0618	0.23636	0.06
Mof_H 	H 	0.1672	0.0773	0.2248	-0.008
Mof_C 	C 	0.2219	0.9763	0.31238	0.103
Mof_C 	C 	0.2574	0.9409	0.35543	0.104
Mof_C 	C 	0.1757	0.9434	0.35145	0.101
Mof_C 	C 	0.302	0.9267	0.37318	0.049
Mof_C 	C 	0.3476	0.9395	0.36005	-0.111
Mof_H 	H 	0.3502	0.9585	0.3402	0.079
Mof_C 	C 	0.3884	0.9236	0.3768	0.058
Mof_H 	H 	0.4193	0.9335	0.3681	-0.009
Mof_C 	C 	0.3423	0.8842	0.41733	0.065
Mof_H 	H 	0.3405	0.8652	0.4372	-0.013
Mof_C 	C 	0.3	0.8998	0.4022	-0.116
Mof_H 	H 	0.2696	0.8922	0.4116	0.078
Mof_C 	C 	0.1274	0.9321	0.36498	0.049
Mof_C 	C 	0.1225	0.9171	0.39469	-0.107
Mof_H 	H 	0.1502	0.9163	0.407	0.077
Mof_C 	C 	0.0764	0.9032	0.40615	0.059
Mof_H 	H 	0.0731	0.8953	0.4267	-0.004
Mof_C 	C 	0.0409	0.9163	0.36089	0.066
Mof_H 	H 	0.0127	0.9165	0.349	-0.005
Mof_C 	C 	0.0857	0.9327	0.34792	-0.112
Mof_H 	H 	0.0879	0.9442	0.3275	0.079
Mof_C 	C 	0.1898	0.1266	0.13397	0.064
Mof_H 	H 	0.1887	0.1958	0.1343	-0.006
Mof_C 	C 	0.1682	0.077	0.11111	-0.109
Mof_H 	H 	0.1524	0.1122	0.096	0.08
Mof_C 	C 	0.1695	0.9771	0.11028	0.057
Mof_C 	C 	0.1926	0.9282	0.1325	-0.114
Mof_H 	H 	0.1944	0.8591	0.1325	0.074
Mof_C 	C 	0.2134	0.9817	0.15506	0.066
Mof_H 	H 	0.2289	0.9479	0.1706	-0.013
Mof_C 	C 	0.1454	0.9235	0.0863	0.107
Mof_C 	C 	0.1102	0.9224	0.04211	0.1
Mof_C 	C 	0.1112	0.7853	0.06955	0.094
Mof_C 	C 	0.0503	0.9808	0.97063	0.069
Mof_H 	H 	0.0306	0.9491	0.9565	-0.006
Mof_C 	C 	0.0648	0.9296	0.9945	-0.123
Mof_H 	H 	0.0555	0.8634	0.9969	0.086
Mof_C 	C 	0.0932	0.9752	0.01543	0.051
Mof_C 	C 	0.1051	0.0727	0.01162	-0.115
Mof_H 	H 	0.124	0.1064	0.0257	0.079
Mof_C 	C 	0.0887	0.1193	0.98686	0.068
Mof_H 	H 	0.0963	0.1863	0.9843	-0.008
Mof_C 	C 	0.0672	0.5294	0.0569	0.072
Mof_H 	H 	0.0609	0.4877	0.0408	-0.007
Mof_C 	C 	0.084	0.6237	0.0517	-0.119
Mof_H 	H 	0.0881	0.6463	0.0323	0.082
Mof_C 	C 	0.0947	0.684	0.07494	0.053
Mof_C 	C 	0.0879	0.6486	0.1031	-0.127
Mof_H 	H 	0.0946	0.6881	0.1196	0.096
Mof_C 	C 	0.0712	0.5549	0.1063	0.074
Mof_H 	H 	0.0676	0.53	0.1255	-0.01
Mof_I 	I 	0.19521	0.3103	0.19608	-0.367
Mof_I 	I 	0.33695	0.17193	0.17628	-0.373
Mof_I 	I 	0.92334	0.78118	0.36681	-0.364
Mof_I 	I 	0.98479	0.77862	0.45704	-0.385
Mof_I 	I 	0.51697	0.95231	0.39959	-0.365
Mof_I 	I 	0.44914	0.67495	0.43352	-0.379
Mof_N 	N 	0.239	0.0744	0.22471	-0.271
Mof_N 	N 	0.2632	0.9638	0.32755	-0.14
Mof_N 	N 	0.2145	0.9301	0.36895	-0.139
Mof_N 	N 	0.1773	0.9665	0.32311	-0.14
Mof_N 	N 	0.3864	0.895	0.4047	-0.268
Mof_N 	N 	0.0359	0.9003	0.38944	-0.267
Mof_N 	N 	0.2124	0.0794	0.1557	-0.272
Mof_N 	N 	0.1341	0.973	0.06219	-0.137
Mof_N 	N 	0.0983	0.828	0.04434	-0.143
Mof_N 	N 	0.1351	0.8293	0.09119	-0.133
Mof_N 	N 	0.0627	0.0743	0.96624	-0.271
Mof_N 	N 	0.0599	0.4964	0.0838	-0.273
Mof_Zn	Zn	0.24676	0.15755	0.1878	1.164
Mof_Zn	Zn	0.9702	0.86176	0.40795	1.163
Mof_Zn	Zn	0.45046	0.85904	0.42628	1.162
Mof_C 	C 	0.2225	0.9537	0.7408	0.06
Mof_H 	H 	0.1911	0.9489	0.7324	0.002
Mof_C 	C 	0.2264	0.9892	0.76878	-0.11
Mof_H 	H 	0.1984	0.0084	0.7794	0.08
Mof_C 	C 	0.2723	0.9961	0.78108	0.049
Mof_C 	C 	0.3127	0.973	0.7646	-0.112
Mof_H 	H 	0.3445	0.9806	0.7723	0.079
Mof_C 	C 	0.3053	0.9382	0.73636	0.06
Mof_H 	H 	0.3328	0.9227	0.7248	-0.008
Mof_C 	C 	0.2781	0.0237	0.81238	0.103
Mof_C 	C 	0.2426	0.0591	0.85543	0.104
Mof_C 	C 	0.3243	0.0566	0.85145	0.101
Mof_C 	C 	0.198	0.0733	0.87318	0.049
Mof_C 	C 	0.1524	0.0605	0.86005	-0.111
Mof_H 	H 	0.1498	0.0415	0.8402	0.078
Mof_C 	C 	0.1116	0.0764	0.8768	0.058
Mof_H 	H 	0.0807	0.0665	0.8681	-0.009
Mof_C 	C 	0.1577	0.1158	0.91733	0.065
Mof_H 	H 	0.1595	0.1348	0.9372	-0.013
Mof_C 	C 	0.2	0.1002	0.9022	-0.116
Mof_H 	H 	0.2304	0.1078	0.9116	0.078
Mof_C 	C 	0.3726	0.0679	0.86498	0.049
Mof_C 	C 	0.3775	0.0829	0.89469	-0.107
Mof_H 	H 	0.3498	0.0837	0.907	0.077
Mof_C 	C 	0.4236	0.0968	0.90615	0.059
Mof_H 	H 	0.4269	0.1047	0.9267	-0.005
Mof_C 	C 	0.4591	0.0837	0.86089	0.066
Mof_H 	H 	0.4873	0.0835	0.849	-0.006
Mof_C 	C 	0.4143	0.0673	0.84792	-0.112
Mof_H 	H 	0.4121	0.0558	0.8275	0.079
Mof_C 	C 	0.3102	0.8734	0.63397	0.063
Mof_H 	H 	0.3113	0.8042	0.6343	-0.006
Mof_C 	C 	0.3318	0.923	0.61111	-0.107
Mof_H 	H 	0.3476	0.8878	0.596	0.079
Mof_C 	C 	0.3305	0.0229	0.61028	0.056
Mof_C 	C 	0.3074	0.0718	0.6325	-0.113
Mof_H 	H 	0.3056	0.1409	0.6325	0.073
Mof_C 	C 	0.2866	0.0183	0.65506	0.065
Mof_H 	H 	0.2711	0.0521	0.6706	-0.012
Mof_C 	C 	0.3546	0.0765	0.5863	0.107
Mof_C 	C 	0.3898	0.0776	0.54211	0.1
Mof_C 	C 	0.3888	0.2147	0.56955	0.094
Mof_C 	C 	0.4497	0.0192	0.47063	0.068
Mof_H 	H 	0.4694	0.0509	0.4565	-0.006
Mof_C 	C 	0.4352	0.0704	0.4945	-0.122
Mof_H 	H 	0.4445	0.1366	0.4969	0.086
Mof_C 	C 	0.4068	0.0248	0.51543	0.05
Mof_C 	C 	0.3949	0.9273	0.51162	-0.113
Mof_H 	H 	0.376	0.8936	0.5257	0.078
Mof_C 	C 	0.4113	0.8807	0.48686	0.067
Mof_H 	H 	0.4037	0.8137	0.4843	-0.007
Mof_C 	C 	0.4328	0.4706	0.5569	0.072
Mof_H 	H 	0.4391	0.5123	0.5408	-0.007
Mof_C 	C 	0.416	0.3763	0.5517	-0.119
Mof_H 	H 	0.4119	0.3537	0.5323	0.082
Mof_C 	C 	0.4053	0.316	0.57494	0.053
Mof_C 	C 	0.4121	0.3514	0.6031	-0.127
Mof_H 	H 	0.4054	0.3119	0.6196	0.096
Mof_C 	C 	0.4288	0.4451	0.6063	0.074
Mof_H 	H 	0.4324	0.47	0.6255	-0.01
Mof_I 	I 	0.30479	0.6897	0.69608	-0.367
Mof_I 	I 	0.16305	0.82807	0.67629	-0.373
Mof_I 	I 	0.57666	0.21882	0.86681	-0.364
Mof_I 	I 	0.51521	0.22138	0.95704	-0.385
Mof_I 	I 	0.98303	0.04769	0.89959	-0.365
Mof_I 	I 	0.05086	0.32505	0.93352	-0.38
Mof_N 	N 	0.261	0.9256	0.72471	-0.27
Mof_N 	N 	0.2368	0.0362	0.82755	-0.14
Mof_N 	N 	0.2855	0.0699	0.86895	-0.139
Mof_N 	N 	0.3227	0.0335	0.82311	-0.14
Mof_N 	N 	0.1136	0.105	0.9047	-0.268
Mof_N 	N 	0.4641	0.0997	0.88944	-0.267
Mof_N 	N 	0.2876	0.9206	0.6557	-0.272
Mof_N 	N 	0.3659	0.027	0.56219	-0.138
Mof_N 	N 	0.4017	0.172	0.54434	-0.143
Mof_N 	N 	0.3649	0.1707	0.59119	-0.133
Mof_N 	N 	0.4373	0.9257	0.46624	-0.27
Mof_N 	N 	0.4401	0.5036	0.5838	-0.273
Mof_Zn	Zn	0.25324	0.84245	0.6878	1.164
Mof_Zn	Zn	0.5298	0.13824	0.90795	1.164
Mof_Zn	Zn	0.04954	0.14096	0.92628	1.162
Mof_C 	C 	0.2775	0.4537	0.7408	0.06
Mof_H 	H 	0.3089	0.4489	0.7324	0.002
Mof_C 	C 	0.2736	0.4892	0.76878	-0.111
Mof_H 	H 	0.3016	0.5084	0.7794	0.08
Mof_C 	C 	0.2277	0.4961	0.78108	0.049
Mof_C 	C 	0.1873	0.473	0.7646	-0.112
Mof_H 	H 	0.1555	0.4806	0.7723	0.079
Mof_C 	C 	0.1947	0.4382	0.73636	0.06
Mof_H 	H 	0.1672	0.4227	0.7248	-0.008
Mof_C 	C 	0.2219	0.5237	0.81238	0.103
Mof_C 	C 	0.2574	0.5591	0.85543	0.104
Mof_C 	C 	0.1757	0.5566	0.85145	0.101
Mof_C 	C 	0.302	0.5733	0.87318	0.049
Mof_C 	C 	0.3476	0.5605	0.86005	-0.111
Mof_H 	H 	0.3502	0.5415	0.8402	0.079
Mof_C 	C 	0.3884	0.5764	0.8768	0.058
Mof_H 	H 	0.4193	0.5665	0.8681	-0.009
Mof_C 	C 	0.3423	0.6158	0.91733	0.065
Mof_H 	H 	0.3405	0.6348	0.9372	-0.013
Mof_C 	C 	0.3	0.6002	0.9022	-0.116
Mof_H 	H 	0.2696	0.6078	0.9116	0.078
Mof_C 	C 	0.1274	0.5679	0.86498	0.049
Mof_C 	C 	0.1225	0.5829	0.89469	-0.107
Mof_H 	H 	0.1502	0.5837	0.907	0.077
Mof_C 	C 	0.0764	0.5968	0.90615	0.059
Mof_H 	H 	0.0731	0.6047	0.9267	-0.005
Mof_C 	C 	0.0409	0.5837	0.86089	0.066
Mof_H 	H 	0.0127	0.5835	0.849	-0.005
Mof_C 	C 	0.0857	0.5673	0.84792	-0.112
Mof_H 	H 	0.0879	0.5558	0.8275	0.079
Mof_C 	C 	0.1898	0.3734	0.63397	0.063
Mof_H 	H 	0.1887	0.3042	0.6343	-0.006
Mof_C 	C 	0.1682	0.423	0.61111	-0.108
Mof_H 	H 	0.1524	0.3878	0.596	0.079
Mof_C 	C 	0.1695	0.5229	0.61028	0.056
Mof_C 	C 	0.1926	0.5718	0.6325	-0.114
Mof_H 	H 	0.1944	0.6409	0.6325	0.074
Mof_C 	C 	0.2134	0.5183	0.65506	0.065
Mof_H 	H 	0.2289	0.5521	0.6706	-0.013
Mof_C 	C 	0.1454	0.5765	0.5863	0.107
Mof_C 	C 	0.1102	0.5776	0.54211	0.1
Mof_C 	C 	0.1112	0.7147	0.56955	0.094
Mof_C 	C 	0.0503	0.5192	0.47063	0.068
Mof_H 	H 	0.0306	0.5509	0.4565	-0.006
Mof_C 	C 	0.0648	0.5704	0.4945	-0.123
Mof_H 	H 	0.0555	0.6366	0.4969	0.086
Mof_C 	C 	0.0932	0.5248	0.51543	0.05
Mof_C 	C 	0.1051	0.4273	0.51162	-0.114
Mof_H 	H 	0.124	0.3936	0.5257	0.079
Mof_C 	C 	0.0887	0.3807	0.48686	0.067
Mof_H 	H 	0.0963	0.3137	0.4843	-0.007
Mof_C 	C 	0.0672	0.9706	0.5569	0.074
Mof_H 	H 	0.0609	0.0123	0.5408	-0.008
Mof_C 	C 	0.084	0.8763	0.5517	-0.12
Mof_H 	H 	0.0881	0.8537	0.5323	0.083
Mof_C 	C 	0.0947	0.816	0.57494	0.054
Mof_C 	C 	0.0879	0.8514	0.6031	-0.127
Mof_H 	H 	0.0946	0.8119	0.6196	0.096
Mof_C 	C 	0.0712	0.9451	0.6063	0.075
Mof_H 	H 	0.0676	0.97	0.6255	-0.011
Mof_I 	I 	0.19521	0.1897	0.69608	-0.367
Mof_I 	I 	0.33695	0.32807	0.67629	-0.373
Mof_I 	I 	0.92334	0.71882	0.86681	-0.364
Mof_I 	I 	0.98479	0.72138	0.95704	-0.385
Mof_I 	I 	0.51697	0.54769	0.89959	-0.365
Mof_I 	I 	0.44914	0.82505	0.93352	-0.379
Mof_N 	N 	0.239	0.4256	0.72471	-0.271
Mof_N 	N 	0.2632	0.5362	0.82755	-0.14
Mof_N 	N 	0.2145	0.5699	0.86895	-0.139
Mof_N 	N 	0.1773	0.5335	0.82311	-0.14
Mof_N 	N 	0.3864	0.605	0.9047	-0.268
Mof_N 	N 	0.0359	0.5997	0.88944	-0.267
Mof_N 	N 	0.2124	0.4206	0.6557	-0.272
Mof_N 	N 	0.1341	0.527	0.56219	-0.137
Mof_N 	N 	0.0983	0.672	0.54434	-0.143
Mof_N 	N 	0.1351	0.6707	0.59119	-0.133
Mof_N 	N 	0.0627	0.4257	0.46624	-0.27
Mof_N 	N 	0.0599	0.0036	0.5838	-0.274
Mof_Zn	Zn	0.24676	0.34245	0.6878	1.164
Mof_Zn	Zn	0.9702	0.63824	0.90795	1.163
Mof_Zn	Zn	0.45046	0.64096	0.92628	1.162
Mof_C 	C 	0.2225	0.5463	0.2408	0.06
Mof_H 	H 	0.1911	0.5511	0.2324	0.002
Mof_C 	C 	0.2264	0.5108	0.26878	-0.111
Mof_H 	H 	0.1984	0.4916	0.2794	0.08
Mof_C 	C 	0.2723	0.5039	0.28108	0.049
Mof_C 	C 	0.3127	0.527	0.2646	-0.112
Mof_H 	H 	0.3445	0.5194	0.2723	0.079
Mof_C 	C 	0.3053	0.5618	0.23636	0.06
Mof_H 	H 	0.3328	0.5773	0.2248	-0.008
Mof_C 	C 	0.2781	0.4763	0.31238	0.103
Mof_C 	C 	0.2426	0.4409	0.35543	0.104
Mof_C 	C 	0.3243	0.4434	0.35145	0.101
Mof_C 	C 	0.198	0.4267	0.37318	0.049
Mof_C 	C 	0.1524	0.4395	0.36005	-0.111
Mof_H 	H 	0.1498	0.4585	0.3402	0.079
Mof_C 	C 	0.1116	0.4236	0.3768	0.058
Mof_H 	H 	0.0807	0.4335	0.3681	-0.009
Mof_C 	C 	0.1577	0.3842	0.41733	0.065
Mof_H 	H 	0.1595	0.3652	0.4372	-0.013
Mof_C 	C 	0.2	0.3998	0.4022	-0.116
Mof_H 	H 	0.2304	0.3922	0.4116	0.078
Mof_C 	C 	0.3726	0.4321	0.36498	0.049
Mof_C 	C 	0.3775	0.4171	0.39469	-0.107
Mof_H 	H 	0.3498	0.4163	0.407	0.077
Mof_C 	C 	0.4236	0.4032	0.40615	0.059
Mof_H 	H 	0.4269	0.3953	0.4267	-0.005
Mof_C 	C 	0.4591	0.4163	0.36089	0.066
Mof_H 	H 	0.4873	0.4165	0.349	-0.006
Mof_C 	C 	0.4143	0.4327	0.34792	-0.112
Mof_H 	H 	0.4121	0.4442	0.3275	0.079
Mof_C 	C 	0.3102	0.6266	0.13397	0.063
Mof_H 	H 	0.3113	0.6958	0.1343	-0.006
Mof_C 	C 	0.3318	0.577	0.11111	-0.108
Mof_H 	H 	0.3476	0.6122	0.096	0.079
Mof_C 	C 	0.3305	0.4771	0.11028	0.056
Mof_C 	C 	0.3074	0.4282	0.1325	-0.114
Mof_H 	H 	0.3056	0.3591	0.1325	0.074
Mof_C 	C 	0.2866	0.4817	0.15506	0.065
Mof_H 	H 	0.2711	0.4479	0.1706	-0.013
Mof_C 	C 	0.3546	0.4235	0.0863	0.107
Mof_C 	C 	0.3898	0.4224	0.04211	0.1
Mof_C 	C 	0.3888	0.2853	0.06955	0.094
Mof_C 	C 	0.4497	0.4808	0.97063	0.068
Mof_H 	H 	0.4694	0.4491	0.9565	-0.006
Mof_C 	C 	0.4352	0.4296	0.9945	-0.123
Mof_H 	H 	0.4445	0.3634	0.9969	0.086
Mof_C 	C 	0.4068	0.4752	0.01543	0.05
Mof_C 	C 	0.3949	0.5727	0.01162	-0.114
Mof_H 	H 	0.376	0.6064	0.0257	0.079
Mof_C 	C 	0.4113	0.6193	0.98686	0.067
Mof_H 	H 	0.4037	0.6863	0.9843	-0.007
Mof_C 	C 	0.4328	0.0294	0.0569	0.072
Mof_H 	H 	0.4391	0.9877	0.0408	-0.007
Mof_C 	C 	0.416	0.1237	0.0517	-0.119
Mof_H 	H 	0.4119	0.1463	0.0323	0.082
Mof_C 	C 	0.4053	0.184	0.07494	0.053
Mof_C 	C 	0.4121	0.1486	0.1031	-0.127
Mof_H 	H 	0.4054	0.1881	0.1196	0.096
Mof_C 	C 	0.4288	0.0549	0.1063	0.074
Mof_H 	H 	0.4324	0.03	0.1255	-0.01
Mof_I 	I 	0.30479	0.8103	0.19608	-0.367
Mof_I 	I 	0.16305	0.67193	0.17628	-0.373
Mof_I 	I 	0.57666	0.28118	0.36681	-0.364
Mof_I 	I 	0.51521	0.27862	0.45704	-0.385
Mof_I 	I 	0.98303	0.45231	0.39959	-0.365
Mof_I 	I 	0.05086	0.17495	0.43352	-0.38
Mof_N 	N 	0.261	0.5744	0.22471	-0.271
Mof_N 	N 	0.2368	0.4638	0.32755	-0.14
Mof_N 	N 	0.2855	0.4301	0.36895	-0.139
Mof_N 	N 	0.3227	0.4665	0.32311	-0.14
Mof_N 	N 	0.1136	0.395	0.4047	-0.268
Mof_N 	N 	0.4641	0.4003	0.38944	-0.267
Mof_N 	N 	0.2876	0.5794	0.1557	-0.272
Mof_N 	N 	0.3659	0.473	0.06219	-0.137
Mof_N 	N 	0.4017	0.328	0.04434	-0.143
Mof_N 	N 	0.3649	0.3293	0.09119	-0.133
Mof_N 	N 	0.4373	0.5743	0.96624	-0.27
Mof_N 	N 	0.4401	0.9964	0.0838	-0.273
Mof_Zn	Zn	0.25324	0.65755	0.1878	1.164
Mof_Zn	Zn	0.5298	0.36176	0.40795	1.164
Mof_Zn	Zn	0.04954	0.35904	0.42628	1.162
Mof_C 	C 	0.7225	0.9537	0.7592	0.06
Mof_H 	H 	0.6911	0.9489	0.7676	0.002
Mof_C 	C 	0.7264	0.9892	0.73122	-0.111
Mof_H 	H 	0.6984	0.0084	0.7206	0.08
Mof_C 	C 	0.7723	0.9961	0.71892	0.048
Mof_C 	C 	0.8127	0.973	0.7354	-0.112
Mof_H 	H 	0.8445	0.9806	0.7277	0.079
Mof_C 	C 	0.8053	0.9382	0.76364	0.06
Mof_H 	H 	0.8328	0.9227	0.7752	-0.008
Mof_C 	C 	0.7781	0.0237	0.68762	0.103
Mof_C 	C 	0.7426	0.0591	0.64457	0.104
Mof_C 	C 	0.8243	0.0566	0.64855	0.101
Mof_C 	C 	0.698	0.0733	0.62682	0.049
Mof_C 	C 	0.6524	0.0605	0.63995	-0.111
Mof_H 	H 	0.6498	0.0415	0.6598	0.079
Mof_C 	C 	0.6116	0.0764	0.6232	0.058
Mof_H 	H 	0.5807	0.0665	0.6319	-0.009
Mof_C 	C 	0.6577	0.1158	0.58267	0.065
Mof_H 	H 	0.6595	0.1348	0.5628	-0.013
Mof_C 	C 	0.7	0.1002	0.5978	-0.116
Mof_H 	H 	0.7304	0.1078	0.5884	0.078
Mof_C 	C 	0.8726	0.0679	0.63502	0.049
Mof_C 	C 	0.8775	0.0829	0.60531	-0.107
Mof_H 	H 	0.8498	0.0837	0.593	0.077
Mof_C 	C 	0.9236	0.0968	0.59385	0.059
Mof_H 	H 	0.9269	0.1047	0.5733	-0.004
Mof_C 	C 	0.9591	0.0837	0.63911	0.066
Mof_H 	H 	0.9873	0.0835	0.651	-0.005
Mof_C 	C 	0.9143	0.0673	0.65208	-0.112
Mof_H 	H 	0.9121	0.0558	0.6725	0.079
Mof_C 	C 	0.8102	0.8734	0.86603	0.064
Mof_H 	H 	0.8113	0.8042	0.8657	-0.006
Mof_C 	C 	0.8318	0.923	0.88889	-0.109
Mof_H 	H 	0.8476	0.8878	0.904	0.08
Mof_C 	C 	0.8305	0.0229	0.88972	0.057
Mof_C 	C 	0.8074	0.0718	0.8675	-0.114
Mof_H 	H 	0.8056	0.1409	0.8675	0.074
Mof_C 	C 	0.7866	0.0183	0.84494	0.066
Mof_H 	H 	0.7711	0.0521	0.8294	-0.013
Mof_C 	C 	0.8546	0.0765	0.9137	0.107
Mof_C 	C 	0.8898	0.0776	0.95789	0.1
Mof_C 	C 	0.8888	0.2147	0.93045	0.094
Mof_C 	C 	0.9497	0.0192	0.02937	0.069
Mof_H 	H 	0.9694	0.0509	0.0435	-0.006
Mof_C 	C 	0.9352	0.0704	0.0055	-0.123
Mof_H 	H 	0.9445	0.1366	0.0031	0.086
Mof_C 	C 	0.9068	0.0248	0.98457	0.051
Mof_C 	C 	0.8949	0.9273	0.98838	-0.115
Mof_H 	H 	0.876	0.8936	0.9743	0.079
Mof_C 	C 	0.9113	0.8807	0.01314	0.068
Mof_H 	H 	0.9037	0.8137	0.0157	-0.008
Mof_C 	C 	0.9328	0.4706	0.9431	0.072
Mof_H 	H 	0.9391	0.5123	0.9592	-0.007
Mof_C 	C 	0.916	0.3763	0.9483	-0.119
Mof_H 	H 	0.9119	0.3537	0.9677	0.082
Mof_C 	C 	0.9053	0.316	0.92506	0.053
Mof_C 	C 	0.9121	0.3514	0.8969	-0.127
Mof_H 	H 	0.9054	0.3119	0.8804	0.096
Mof_C 	C 	0.9288	0.4451	0.8937	0.074
Mof_H 	H 	0.9324	0.47	0.8745	-0.01
Mof_I 	I 	0.80479	0.6897	0.80392	-0.367
Mof_I 	I 	0.66305	0.82807	0.82371	-0.373
Mof_I 	I 	0.07666	0.21882	0.63319	-0.364
Mof_I 	I 	0.01521	0.22138	0.54296	-0.385
Mof_I 	I 	0.48303	0.04769	0.60041	-0.365
Mof_I 	I 	0.55086	0.32505	0.56648	-0.379
Mof_N 	N 	0.761	0.9256	0.77529	-0.271
Mof_N 	N 	0.7368	0.0362	0.67245	-0.14
Mof_N 	N 	0.7855	0.0699	0.63105	-0.139
Mof_N 	N 	0.8227	0.0335	0.67689	-0.14
Mof_N 	N 	0.6136	0.105	0.5953	-0.268
Mof_N 	N 	0.9641	0.0997	0.61056	-0.267
Mof_N 	N 	0.7876	0.9206	0.8443	-0.272
Mof_N 	N 	0.8659	0.027	0.93781	-0.137
Mof_N 	N 	0.9017	0.172	0.95566	-0.143
Mof_N 	N 	0.8649	0.1707	0.90881	-0.133
Mof_N 	N 	0.9373	0.9257	0.03376	-0.271
Mof_N 	N 	0.9401	0.5036	0.9162	-0.273
Mof_Zn	Zn	0.75324	0.84245	0.8122	1.164
Mof_Zn	Zn	0.0298	0.13824	0.59205	1.163
Mof_Zn	Zn	0.54954	0.14096	0.57372	1.162
Mof_C 	C 	0.7775	0.0463	0.2592	0.06
Mof_H 	H 	0.8089	0.0511	0.2676	0.002
Mof_C 	C 	0.7736	0.0108	0.23122	-0.11
Mof_H 	H 	0.8016	0.9916	0.2206	0.08
Mof_C 	C 	0.7277	0.0039	0.21892	0.049
Mof_C 	C 	0.6873	0.027	0.2354	-0.112
Mof_H 	H 	0.6555	0.0194	0.2277	0.079
Mof_C 	C 	0.6947	0.0618	0.26364	0.06
Mof_H 	H 	0.6672	0.0773	0.2752	-0.008
Mof_C 	C 	0.7219	0.9763	0.18762	0.103
Mof_C 	C 	0.7574	0.9409	0.14457	0.104
Mof_C 	C 	0.6757	0.9434	0.14855	0.101
Mof_C 	C 	0.802	0.9267	0.12682	0.049
Mof_C 	C 	0.8476	0.9395	0.13995	-0.111
Mof_H 	H 	0.8502	0.9585	0.1598	0.078
Mof_C 	C 	0.8884	0.9236	0.1232	0.058
Mof_H 	H 	0.9193	0.9335	0.1319	-0.009
Mof_C 	C 	0.8423	0.8842	0.08267	0.065
Mof_H 	H 	0.8405	0.8652	0.0628	-0.013
Mof_C 	C 	0.8	0.8998	0.0978	-0.116
Mof_H 	H 	0.7696	0.8922	0.0884	0.078
Mof_C 	C 	0.6274	0.9321	0.13502	0.049
Mof_C 	C 	0.6225	0.9171	0.10531	-0.107
Mof_H 	H 	0.6502	0.9163	0.093	0.077
Mof_C 	C 	0.5764	0.9032	0.09385	0.059
Mof_H 	H 	0.5731	0.8953	0.0733	-0.005
Mof_C 	C 	0.5409	0.9163	0.13911	0.066
Mof_H 	H 	0.5127	0.9165	0.151	-0.006
Mof_C 	C 	0.5857	0.9327	0.15208	-0.112
Mof_H 	H 	0.5879	0.9442	0.1725	0.079
Mof_C 	C 	0.6898	0.1266	0.36603	0.063
Mof_H 	H 	0.6887	0.1958	0.3657	-0.006
Mof_C 	C 	0.6682	0.077	0.38889	-0.107
Mof_H 	H 	0.6524	0.1122	0.404	0.079
Mof_C 	C 	0.6695	0.9771	0.38972	0.056
Mof_C 	C 	0.6926	0.9282	0.3675	-0.113
Mof_H 	H 	0.6944	0.8591	0.3675	0.073
Mof_C 	C 	0.7134	0.9817	0.34494	0.065
Mof_H 	H 	0.7289	0.9479	0.3294	-0.012
Mof_C 	C 	0.6454	0.9235	0.4137	0.107
Mof_C 	C 	0.6102	0.9224	0.45789	0.1
Mof_C 	C 	0.6112	0.7853	0.43045	0.094
Mof_C 	C 	0.5503	0.9808	0.52937	0.068
Mof_H 	H 	0.5306	0.9491	0.5435	-0.006
Mof_C 	C 	0.5648	0.9296	0.5055	-0.122
Mof_H 	H 	0.5555	0.8634	0.5031	0.086
Mof_C 	C 	0.5932	0.9752	0.48457	0.05
Mof_C 	C 	0.6051	0.0727	0.48838	-0.113
Mof_H 	H 	0.624	0.1064	0.4743	0.078
Mof_C 	C 	0.5887	0.1193	0.51314	0.067
Mof_H 	H 	0.5963	0.1863	0.5157	-0.007
Mof_C 	C 	0.5672	0.5294	0.4431	0.072
Mof_H 	H 	0.5609	0.4877	0.4592	-0.007
Mof_C 	C 	0.584	0.6237	0.4483	-0.119
Mof_H 	H 	0.5881	0.6463	0.4677	0.082
Mof_C 	C 	0.5947	0.684	0.42506	0.053
Mof_C 	C 	0.5879	0.6486	0.3969	-0.127
Mof_H 	H 	0.5946	0.6881	0.3804	0.096
Mof_C 	C 	0.5712	0.5549	0.3937	0.074
Mof_H 	H 	0.5676	0.53	0.3745	-0.01
Mof_I 	I 	0.69521	0.3103	0.30392	-0.367
Mof_I 	I 	0.83695	0.17193	0.32371	-0.373
Mof_I 	I 	0.42334	0.78118	0.13319	-0.364
Mof_I 	I 	0.48479	0.77862	0.04296	-0.385
Mof_I 	I 	0.01697	0.95231	0.10041	-0.365
Mof_I 	I 	0.94914	0.67495	0.06648	-0.38
Mof_N 	N 	0.739	0.0744	0.27529	-0.27
Mof_N 	N 	0.7632	0.9638	0.17245	-0.14
Mof_N 	N 	0.7145	0.9301	0.13105	-0.139
Mof_N 	N 	0.6773	0.9665	0.17689	-0.14
Mof_N 	N 	0.8864	0.895	0.0953	-0.268
Mof_N 	N 	0.5359	0.9003	0.11056	-0.267
Mof_N 	N 	0.7124	0.0794	0.3443	-0.272
Mof_N 	N 	0.6341	0.973	0.43781	-0.138
Mof_N 	N 	0.5983	0.828	0.45566	-0.143
Mof_N 	N 	0.6351	0.8293	0.40881	-0.133
Mof_N 	N 	0.5627	0.0743	0.53376	-0.27
Mof_N 	N 	0.5599	0.4964	0.4162	-0.273
Mof_Zn	Zn	0.74676	0.15755	0.3122	1.164
Mof_Zn	Zn	0.4702	0.86176	0.09205	1.164
Mof_Zn	Zn	0.95046	0.85904	0.07372	1.162
_end
