# CIF file generated by openbabel 3.1.0, see https://openbabel.org
data_I
_chemical_name_common 'image0'
_cell_length_a 18.7073
_cell_length_b 18.7073
_cell_length_c 7.9797
_cell_angle_alpha 90
_cell_angle_beta 90
_cell_angle_gamma 120
_space_group_name_H-M_alt 'P 1'
_space_group_name_Hall 'P 1'
loop_
    _symmetry_equiv_pos_as_xyz
    x,y,z
loop_
    _atom_site_label
    _atom_site_type_symbol
    _atom_site_fract_x
    _atom_site_fract_y
    _atom_site_fract_z
    _atom_site_occupancy
    N1       N        0.02868    0.10428    0.15310    1.000
    N2       N        0.08566    0.23160    0.24910    1.000
    C1       C        0.98743    0.10551    0.29460    1.000
    C2       C        0.02279    0.18338    0.35620    1.000
    C3       C        0.08768    0.18139    0.13000    1.000
    C4       C        0.13860    0.32151    0.25790    1.000
    H1       H        0.94000    0.05900    0.34100    1.000
    H2       H        0.01100    0.20100    0.45800    1.000
    H3       H        0.13000    0.20400    0.04200    1.000
    H4       H        0.11000    0.35200    0.26300    1.000
    H5       H        0.17400    0.33700    0.15500    1.000
    N3       N        0.69535    0.43761    0.48643    1.000
    N4       N        0.75233    0.56493    0.58243    1.000
    C5       C        0.65410    0.43884    0.62793    1.000
    C6       C        0.68946    0.51671    0.68953    1.000
    C7       C        0.75435    0.51472    0.46333    1.000
    C8       C        0.80527    0.65484    0.59123    1.000
    H6       H        0.60667    0.39233    0.67433    1.000
    H7       H        0.67767    0.53433    0.79133    1.000
    H8       H        0.79667    0.53733    0.37533    1.000
    H9       H        0.77667    0.68533    0.59633    1.000
    H10      H        0.84067    0.67033    0.48833    1.000
    N5       N        0.36201    0.77095    0.81977    1.000
    N6       N        0.41899    0.89827    0.91577    1.000
    C9       C        0.32076    0.77218    0.96127    1.000
    C10      C        0.35612    0.85005    0.02287    1.000
    C11      C        0.42101    0.84806    0.79667    1.000
    C12      C        0.47193    0.98818    0.92457    1.000
    H11      H        0.27333    0.72567    0.00767    1.000
    H12      H        0.34433    0.86767    0.12467    1.000
    H13      H        0.46333    0.87067    0.70867    1.000
    H14      H        0.44333    0.01867    0.92967    1.000
    H15      H        0.50733    0.00367    0.82167    1.000
    N7       N        0.89572    0.92440    0.15310    1.000
    N8       N        0.76840    0.85406    0.24910    1.000
    C13      C        0.89449    0.88192    0.29460    1.000
    C14      C        0.81662    0.83941    0.35620    1.000
    C15      C        0.81861    0.90629    0.13000    1.000
    C16      C        0.67849    0.81709    0.25790    1.000
    H16      H        0.94100    0.88100    0.34100    1.000
    H17      H        0.79900    0.81000    0.45800    1.000
    H18      H        0.79600    0.92600    0.04200    1.000
    H19      H        0.64800    0.75800    0.26300    1.000
    H20      H        0.66300    0.83700    0.15500    1.000
    N9       N        0.56239    0.25773    0.48643    1.000
    N10      N        0.43507    0.18739    0.58243    1.000
    C17      C        0.56116    0.21525    0.62793    1.000
    C18      C        0.48329    0.17274    0.68953    1.000
    C19      C        0.48528    0.23962    0.46333    1.000
    C20      C        0.34516    0.15042    0.59123    1.000
    H21      H        0.60767    0.21433    0.67433    1.000
    H22      H        0.46567    0.14333    0.79133    1.000
    H23      H        0.46267    0.25933    0.37533    1.000
    H24      H        0.31467    0.09133    0.59633    1.000
    H25      H        0.32967    0.17033    0.48833    1.000
    N11      N        0.22905    0.59107    0.81977    1.000
    N12      N        0.10173    0.52073    0.91577    1.000
    C21      C        0.22782    0.54859    0.96127    1.000
    C22      C        0.14995    0.50608    0.02287    1.000
    C23      C        0.15194    0.57296    0.79667    1.000
    C24      C        0.01182    0.48376    0.92457    1.000
    H26      H        0.27433    0.54767    0.00767    1.000
    H27      H        0.13233    0.47667    0.12467    1.000
    H28      H        0.12933    0.59267    0.70867    1.000
    H29      H        0.98133    0.42467    0.92967    1.000
    H30      H        0.99633    0.50367    0.82167    1.000
    N13      N        0.07560    0.97132    0.15310    1.000
    N14      N        0.14594    0.91434    0.24910    1.000
    C25      C        0.11808    0.01257    0.29460    1.000
    C26      C        0.16059    0.97721    0.35620    1.000
    C27      C        0.09371    0.91232    0.13000    1.000
    C28      C        0.18291    0.86140    0.25790    1.000
    H31      H        0.11900    0.06000    0.34100    1.000
    H32      H        0.19000    0.98900    0.45800    1.000
    H33      H        0.07400    0.87000    0.04200    1.000
    H34      H        0.24200    0.89000    0.26300    1.000
    H35      H        0.16300    0.82600    0.15500    1.000
    N15      N        0.74227    0.30465    0.48643    1.000
    N16      N        0.81261    0.24767    0.58243    1.000
    C29      C        0.78475    0.34590    0.62793    1.000
    C30      C        0.82726    0.31054    0.68953    1.000
    C31      C        0.76038    0.24565    0.46333    1.000
    C32      C        0.84958    0.19473    0.59123    1.000
    H36      H        0.78567    0.39333    0.67433    1.000
    H37      H        0.85667    0.32233    0.79133    1.000
    H38      H        0.74067    0.20333    0.37533    1.000
    H39      H        0.90867    0.22333    0.59633    1.000
    H40      H        0.82967    0.15933    0.48833    1.000
    N17      N        0.40893    0.63799    0.81977    1.000
    N18      N        0.47927    0.58101    0.91577    1.000
    C33      C        0.45141    0.67924    0.96127    1.000
    C34      C        0.49392    0.64388    0.02287    1.000
    C35      C        0.42704    0.57899    0.79667    1.000
    C36      C        0.51624    0.52807    0.92457    1.000
    H41      H        0.45233    0.72667    0.00767    1.000
    H42      H        0.52333    0.65567    0.12467    1.000
    H43      H        0.40733    0.53667    0.70867    1.000
    H44      H        0.57533    0.55667    0.92967    1.000
    H45      H        0.49633    0.49267    0.82167    1.000
    N19      N        0.97132    0.89572    0.84690    1.000
    N20      N        0.91434    0.76840    0.75090    1.000
    C37      C        0.01257    0.89449    0.70540    1.000
    C38      C        0.97721    0.81662    0.64380    1.000
    C39      C        0.91232    0.81861    0.87000    1.000
    C40      C        0.86140    0.67849    0.74210    1.000
    H46      H        0.06000    0.94100    0.65900    1.000
    H47      H        0.98900    0.79900    0.54200    1.000
    H48      H        0.87000    0.79600    0.95800    1.000
    H49      H        0.89000    0.64800    0.73700    1.000
    H50      H        0.82600    0.66300    0.84500    1.000
    N21      N        0.63799    0.22905    0.18023    1.000
    N22      N        0.58101    0.10173    0.08423    1.000
    C41      C        0.67924    0.22782    0.03873    1.000
    C42      C        0.64388    0.14995    0.97713    1.000
    C43      C        0.57899    0.15194    0.20333    1.000
    C44      C        0.52807    0.01182    0.07543    1.000
    H51      H        0.72667    0.27433    0.99233    1.000
    H52      H        0.65567    0.13233    0.87533    1.000
    H53      H        0.53667    0.12933    0.29133    1.000
    H54      H        0.55667    0.98133    0.07033    1.000
    H55      H        0.49267    0.99633    0.17833    1.000
    N23      N        0.30465    0.56239    0.51357    1.000
    N24      N        0.24767    0.43507    0.41757    1.000
    C45      C        0.34590    0.56116    0.37207    1.000
    C46      C        0.31054    0.48329    0.31047    1.000
    C47      C        0.24565    0.48528    0.53667    1.000
    C48      C        0.19473    0.34516    0.40877    1.000
    H56      H        0.39333    0.60767    0.32567    1.000
    H57      H        0.32233    0.46567    0.20867    1.000
    H58      H        0.20333    0.46267    0.62467    1.000
    H59      H        0.22333    0.31467    0.40367    1.000
    H60      H        0.15933    0.32967    0.51167    1.000
    N25      N        0.10428    0.07560    0.84690    1.000
    N26      N        0.23160    0.14594    0.75090    1.000
    C49      C        0.10551    0.11808    0.70540    1.000
    C50      C        0.18338    0.16059    0.64380    1.000
    C51      C        0.18139    0.09371    0.87000    1.000
    C52      C        0.32151    0.18291    0.74210    1.000
    H61      H        0.05900    0.11900    0.65900    1.000
    H62      H        0.20100    0.19000    0.54200    1.000
    H63      H        0.20400    0.07400    0.95800    1.000
    H64      H        0.35200    0.24200    0.73700    1.000
    H65      H        0.33700    0.16300    0.84500    1.000
    N27      N        0.77095    0.40893    0.18023    1.000
    N28      N        0.89827    0.47927    0.08423    1.000
    C53      C        0.77218    0.45141    0.03873    1.000
    C54      C        0.85005    0.49392    0.97713    1.000
    C55      C        0.84806    0.42704    0.20333    1.000
    C56      C        0.98818    0.51624    0.07543    1.000
    H66      H        0.72567    0.45233    0.99233    1.000
    H67      H        0.86767    0.52333    0.87533    1.000
    H68      H        0.87067    0.40733    0.29133    1.000
    H69      H        0.01867    0.57533    0.07033    1.000
    H70      H        0.00367    0.49633    0.17833    1.000
    N29      N        0.43761    0.74227    0.51357    1.000
    N30      N        0.56493    0.81261    0.41757    1.000
    C57      C        0.43884    0.78475    0.37207    1.000
    C58      C        0.51671    0.82726    0.31047    1.000
    C59      C        0.51472    0.76038    0.53667    1.000
    C60      C        0.65484    0.84958    0.40877    1.000
    H71      H        0.39233    0.78567    0.32567    1.000
    H72      H        0.53433    0.85667    0.20867    1.000
    H73      H        0.53733    0.74067    0.62467    1.000
    H74      H        0.68533    0.90867    0.40367    1.000
    H75      H        0.67033    0.82967    0.51167    1.000
    N31      N        0.92440    0.02868    0.84690    1.000
    N32      N        0.85406    0.08566    0.75090    1.000
    C61      C        0.88192    0.98743    0.70540    1.000
    C62      C        0.83941    0.02279    0.64380    1.000
    C63      C        0.90629    0.08768    0.87000    1.000
    C64      C        0.81709    0.13860    0.74210    1.000
    H76      H        0.88100    0.94000    0.65900    1.000
    H77      H        0.81000    0.01100    0.54200    1.000
    H78      H        0.92600    0.13000    0.95800    1.000
    H79      H        0.75800    0.11000    0.73700    1.000
    H80      H        0.83700    0.17400    0.84500    1.000
    N33      N        0.59107    0.36201    0.18023    1.000
    N34      N        0.52073    0.41899    0.08423    1.000
    C65      C        0.54859    0.32076    0.03873    1.000
    C66      C        0.50608    0.35612    0.97713    1.000
    C67      C        0.57296    0.42101    0.20333    1.000
    C68      C        0.48376    0.47193    0.07543    1.000
    H81      H        0.54767    0.27333    0.99233    1.000
    H82      H        0.47667    0.34433    0.87533    1.000
    H83      H        0.59267    0.46333    0.29133    1.000
    H84      H        0.42467    0.44333    0.07033    1.000
    H85      H        0.50367    0.50733    0.17833    1.000
    N35      N        0.25773    0.69535    0.51357    1.000
    N36      N        0.18739    0.75233    0.41757    1.000
    C69      C        0.21525    0.65410    0.37207    1.000
    C70      C        0.17274    0.68946    0.31047    1.000
    C71      C        0.23962    0.75435    0.53667    1.000
    C72      C        0.15042    0.80527    0.40877    1.000
    H86      H        0.21433    0.60667    0.32567    1.000
    H87      H        0.14333    0.67767    0.20867    1.000
    H88      H        0.25933    0.79667    0.62467    1.000
    H89      H        0.09133    0.77667    0.40367    1.000
    H90      H        0.17033    0.84067    0.51167    1.000
    Ni1      Ni       0.00000    0.00000    0.00000    1.000
    Ni2      Ni       0.66667    0.33333    0.33333    1.000
    Ni3      Ni       0.33333    0.66667    0.66667    1.000
