data_functionalizedCrystal
_audit_creation_method	'EQeq! by Chris Wilmer'
_symmetry_space_group_name_H-M	'P1'
_symmetry_Int_Tables_number	1
_symmetry_cell_setting	triclinic
loop_
_symmetry_equiv_pos_as_xyz
  x,y,z
_cell_length_a	37.322
_cell_length_b	72.64
_cell_length_c	7.074
_cell_angle_alpha	90
_cell_angle_beta	90
_cell_angle_gamma	90
loop_
_atom_site_label
_atom_site_type_symbol
_atom_site_fract_x
_atom_site_fract_y
_atom_site_fract_z
_atom_site_charge
Mof_Cd	Cd	0.38144	0.06951	0.49306	0.491
Mof_C 	C 	0.1546	0.06193	0.375	0.001
Mof_C 	C 	0.1781	0.06366	0.1976	0.026
Mof_H 	H 	0.1752	0.053	0.1162	0.034
Mof_H 	H 	0.172	0.0747	0.1268	0.041
Mof_C 	C 	0.2403	0.06633	0.1375	0.293
Mof_C 	C 	0.2352	0.069	0.945	-0.27
Mof_H 	H 	0.2121	0.0698	0.8967	0.126
Mof_C 	C 	0.2644	0.0705	0.826	0.149
Mof_H 	H 	0.2609	0.0723	0.697	-0
Mof_C 	C 	0.2987	0.06943	0.8968	-0.172
Mof_C 	C 	0.3039	0.06668	0.0897	0.143
Mof_H 	H 	0.327	0.0659	0.1383	0.012
Mof_C 	C 	0.2745	0.0651	0.2097	-0.262
Mof_H 	H 	0.278	0.0632	0.3385	0.157
Mof_C 	C 	0.3311	0.06798	0.7638	0.352
Mof_C 	C 	0.1625	0.041	0.439	0.038
Mof_H 	H 	0.1537	0.0324	0.3454	0.025
Mof_H 	H 	0.188	0.0391	0.4567	0.039
Mof_C 	C 	0.1404	0.0206	0.654	0.257
Mof_C 	C 	0.1458	0.0056	0.535	-0.254
Mof_H 	H 	0.1528	0.0075	0.4101	0.126
Mof_C 	C 	0.1407	0.9878	0.602	0.151
Mof_H 	H 	0.1443	0.9778	0.5225	-0.005
Mof_C 	C 	0.1302	0.98504	0.787	-0.196
Mof_C 	C 	0.1248	0.0001	0.907	0.129
Mof_H 	H 	0.1178	0.9982	0.0315	0.009
Mof_C 	C 	0.1299	0.0178	0.84	-0.247
Mof_H 	H 	0.1263	0.0278	0.9195	0.13
Mof_C 	C 	0.1253	0.96701	0.869	0.378
Mof_C 	C 	0.163	0.07352	0.555	0.003
Mof_H 	H 	0.1453	0.0715	0.6538	0.045
Mof_H 	H 	0.1867	0.0709	0.6041	0.05
Mof_C 	C 	0.1552	0.1043	0.644	0.219
Mof_C 	C 	0.1613	0.1016	0.834	-0.218
Mof_H 	H 	0.1703	0.0903	0.8756	0.108
Mof_C 	C 	0.1543	0.1153	0.963	0.118
Mof_H 	H 	0.1586	0.1133	0.0906	0.011
Mof_C 	C 	0.1409	0.1321	0.902	-0.154
Mof_C 	C 	0.135	0.1348	0.711	0.12
Mof_H 	H 	0.1263	0.146	0.6687	0.012
Mof_C 	C 	0.1417	0.121	0.583	-0.221
Mof_H 	H 	0.1373	0.123	0.4555	0.143
Mof_C 	C 	0.1348	0.14856	0.026	0.327
Mof_C 	C 	0.114	0.0648	0.322	0.076
Mof_H 	H 	0.0995	0.0572	0.4044	0.024
Mof_H 	H 	0.1076	0.0775	0.3455	0.028
Mof_C 	C 	0.0707	0.0616	0.081	0.3
Mof_C 	C 	0.0439	0.0693	0.188	-0.289
Mof_H 	H 	0.0492	0.074	0.3071	0.141
Mof_C 	C 	0.0093	0.0699	0.122	0.177
Mof_H 	H 	0.9914	0.0751	0.196	-0.009
Mof_C 	C 	0.001	0.0628	0.946	-0.192
Mof_C 	C 	0.028	0.0551	0.838	0.171
Mof_H 	H 	0.0227	0.0503	0.7193	-0.013
Mof_C 	C 	0.0624	0.0545	0.904	-0.294
Mof_H 	H 	0.0804	0.0494	0.8295	0.148
Mof_C 	C 	0.9632	0.0631	0.886	0.307
Mof_O 	O 	0.21417	0.06472	0.2672	-0.248
Mof_O 	O 	0.3616	0.06743	0.8126	-0.325
Mof_O 	O 	0.3228	0.06945	0.5833	-0.274
Mof_O 	O 	0.1445	0.03929	0.605	-0.25
Mof_O 	O 	0.1173	0.96529	0.0329	-0.282
Mof_O 	O 	0.1261	0.95312	0.7645	-0.319
Mof_O 	O 	0.1606	0.09172	0.4778	-0.205
Mof_O 	O 	0.1334	0.1466	0.206	-0.265
Mof_O 	O 	0.1337	0.16441	0.9562	-0.305
Mof_O 	O 	0.1062	0.06083	0.1474	-0.268
Mof_O 	O 	0.9403	0.06752	0.0211	-0.264
Mof_O 	O 	0.9554	0.06137	0.7045	-0.279
Mof_Cd	Cd	0.40744	0.06273	0.03402	0.449
Mof_Cd	Cd	0.38144	0.56951	0.99306	0.484
Mof_C 	C 	0.1546	0.56193	0.875	-0.001
Mof_C 	C 	0.1781	0.56366	0.6976	0.028
Mof_H 	H 	0.1752	0.553	0.6162	0.034
Mof_H 	H 	0.172	0.5747	0.6268	0.04
Mof_C 	C 	0.2403	0.56633	0.6375	0.288
Mof_C 	C 	0.2352	0.569	0.445	-0.265
Mof_H 	H 	0.2121	0.5698	0.3967	0.125
Mof_C 	C 	0.2644	0.5705	0.326	0.146
Mof_H 	H 	0.2609	0.5723	0.197	0.002
Mof_C 	C 	0.2987	0.56943	0.3968	-0.168
Mof_C 	C 	0.3039	0.56668	0.5897	0.139
Mof_H 	H 	0.327	0.5659	0.6383	0.013
Mof_C 	C 	0.2745	0.5651	0.7097	-0.259
Mof_H 	H 	0.278	0.5632	0.8385	0.154
Mof_C 	C 	0.3311	0.56798	0.2638	0.35
Mof_C 	C 	0.1625	0.541	0.939	0.036
Mof_H 	H 	0.1537	0.5324	0.8454	0.024
Mof_H 	H 	0.188	0.5391	0.9567	0.038
Mof_C 	C 	0.1404	0.5206	0.154	0.264
Mof_C 	C 	0.1458	0.5056	0.035	-0.257
Mof_H 	H 	0.1528	0.5075	0.9101	0.125
Mof_C 	C 	0.1407	0.4878	0.102	0.16
Mof_H 	H 	0.1443	0.4778	0.0225	-0.008
Mof_C 	C 	0.1302	0.48504	0.287	-0.212
Mof_C 	C 	0.1248	0.5001	0.407	0.158
Mof_H 	H 	0.1178	0.4982	0.5315	-0.007
Mof_C 	C 	0.1299	0.5178	0.34	-0.263
Mof_H 	H 	0.1263	0.5278	0.4195	0.138
Mof_C 	C 	0.1253	0.46701	0.369	0.396
Mof_C 	C 	0.163	0.57352	0.055	0.008
Mof_H 	H 	0.1453	0.5715	0.1538	0.044
Mof_H 	H 	0.1867	0.5709	0.1041	0.049
Mof_C 	C 	0.1552	0.6043	0.144	0.223
Mof_C 	C 	0.1613	0.6016	0.334	-0.222
Mof_H 	H 	0.1703	0.5903	0.3756	0.11
Mof_C 	C 	0.1543	0.6153	0.463	0.123
Mof_H 	H 	0.1586	0.6133	0.5906	0.009
Mof_C 	C 	0.1409	0.6321	0.402	-0.159
Mof_C 	C 	0.135	0.6348	0.211	0.124
Mof_H 	H 	0.1263	0.646	0.1687	0.01
Mof_C 	C 	0.1417	0.621	0.083	-0.225
Mof_H 	H 	0.1373	0.623	0.9555	0.145
Mof_C 	C 	0.1348	0.64856	0.526	0.332
Mof_C 	C 	0.114	0.5648	0.822	0.074
Mof_H 	H 	0.0995	0.5572	0.9044	0.024
Mof_H 	H 	0.1076	0.5775	0.8455	0.028
Mof_C 	C 	0.0707	0.5616	0.581	0.281
Mof_C 	C 	0.0439	0.5693	0.688	-0.27
Mof_H 	H 	0.0492	0.574	0.8071	0.134
Mof_C 	C 	0.0093	0.5699	0.622	0.152
Mof_H 	H 	0.9914	0.5751	0.696	-0.001
Mof_C 	C 	0.001	0.5628	0.446	-0.173
Mof_C 	C 	0.028	0.5551	0.338	0.154
Mof_H 	H 	0.0227	0.5503	0.2193	-0.007
Mof_C 	C 	0.0624	0.5545	0.404	-0.27
Mof_H 	H 	0.0804	0.5494	0.3295	0.141
Mof_C 	C 	0.9632	0.5631	0.386	0.309
Mof_O 	O 	0.21417	0.56472	0.7672	-0.248
Mof_O 	O 	0.3616	0.56743	0.3126	-0.324
Mof_O 	O 	0.3228	0.56945	0.0833	-0.27
Mof_O 	O 	0.1445	0.53929	0.105	-0.249
Mof_O 	O 	0.1173	0.46529	0.5329	-0.294
Mof_O 	O 	0.1261	0.45312	0.2645	-0.322
Mof_O 	O 	0.1606	0.59172	0.9778	-0.207
Mof_O 	O 	0.1334	0.6466	0.706	-0.265
Mof_O 	O 	0.1337	0.66441	0.4562	-0.308
Mof_O 	O 	0.1062	0.56083	0.6474	-0.265
Mof_O 	O 	0.9403	0.56752	0.5211	-0.271
Mof_O 	O 	0.9554	0.56137	0.2045	-0.28
Mof_Cd	Cd	0.40744	0.56273	0.53402	0.448
Mof_Cd	Cd	0.88144	0.06951	0.99306	0.484
Mof_C 	C 	0.6546	0.06193	0.875	-0.001
Mof_C 	C 	0.6781	0.06366	0.6976	0.028
Mof_H 	H 	0.6752	0.053	0.6162	0.034
Mof_H 	H 	0.672	0.0747	0.6268	0.04
Mof_C 	C 	0.7403	0.06633	0.6375	0.288
Mof_C 	C 	0.7352	0.069	0.445	-0.265
Mof_H 	H 	0.7121	0.0698	0.3967	0.125
Mof_C 	C 	0.7644	0.0705	0.326	0.146
Mof_H 	H 	0.7609	0.0723	0.197	0.002
Mof_C 	C 	0.7987	0.06943	0.3968	-0.168
Mof_C 	C 	0.8039	0.06668	0.5897	0.139
Mof_H 	H 	0.827	0.0659	0.6383	0.013
Mof_C 	C 	0.7745	0.0651	0.7097	-0.259
Mof_H 	H 	0.778	0.0632	0.8385	0.154
Mof_C 	C 	0.8311	0.06798	0.2638	0.35
Mof_C 	C 	0.6625	0.041	0.939	0.036
Mof_H 	H 	0.6537	0.0324	0.8454	0.024
Mof_H 	H 	0.688	0.0391	0.9567	0.038
Mof_C 	C 	0.6404	0.0206	0.154	0.264
Mof_C 	C 	0.6458	0.0056	0.035	-0.257
Mof_H 	H 	0.6528	0.0075	0.9101	0.125
Mof_C 	C 	0.6407	0.9878	0.102	0.16
Mof_H 	H 	0.6443	0.9778	0.0225	-0.008
Mof_C 	C 	0.6302	0.98504	0.287	-0.212
Mof_C 	C 	0.6248	0.0001	0.407	0.158
Mof_H 	H 	0.6178	0.9982	0.5315	-0.007
Mof_C 	C 	0.6299	0.0178	0.34	-0.263
Mof_H 	H 	0.6263	0.0278	0.4195	0.138
Mof_C 	C 	0.6253	0.96701	0.369	0.396
Mof_C 	C 	0.663	0.07352	0.055	0.008
Mof_H 	H 	0.6453	0.0715	0.1538	0.044
Mof_H 	H 	0.6867	0.0709	0.1041	0.049
Mof_C 	C 	0.6552	0.1043	0.144	0.223
Mof_C 	C 	0.6613	0.1016	0.334	-0.222
Mof_H 	H 	0.6703	0.0903	0.3756	0.11
Mof_C 	C 	0.6543	0.1153	0.463	0.123
Mof_H 	H 	0.6586	0.1133	0.5906	0.009
Mof_C 	C 	0.6409	0.1321	0.402	-0.159
Mof_C 	C 	0.635	0.1348	0.211	0.124
Mof_H 	H 	0.6263	0.146	0.1687	0.01
Mof_C 	C 	0.6417	0.121	0.083	-0.225
Mof_H 	H 	0.6373	0.123	0.9555	0.145
Mof_C 	C 	0.6348	0.14856	0.526	0.332
Mof_C 	C 	0.614	0.0648	0.822	0.074
Mof_H 	H 	0.5995	0.0572	0.9044	0.024
Mof_H 	H 	0.6076	0.0775	0.8455	0.028
Mof_C 	C 	0.5707	0.0616	0.581	0.281
Mof_C 	C 	0.5439	0.0693	0.688	-0.27
Mof_H 	H 	0.5492	0.074	0.8071	0.134
Mof_C 	C 	0.5093	0.0699	0.622	0.152
Mof_H 	H 	0.4914	0.0751	0.696	-0.001
Mof_C 	C 	0.501	0.0628	0.446	-0.173
Mof_C 	C 	0.528	0.0551	0.338	0.154
Mof_H 	H 	0.5227	0.0503	0.2193	-0.007
Mof_C 	C 	0.5624	0.0545	0.404	-0.27
Mof_H 	H 	0.5804	0.0494	0.3295	0.141
Mof_C 	C 	0.4632	0.0631	0.386	0.309
Mof_O 	O 	0.71417	0.06472	0.7672	-0.248
Mof_O 	O 	0.8616	0.06743	0.3126	-0.324
Mof_O 	O 	0.8228	0.06945	0.0833	-0.27
Mof_O 	O 	0.6445	0.03929	0.105	-0.249
Mof_O 	O 	0.6173	0.96529	0.5329	-0.294
Mof_O 	O 	0.6261	0.95312	0.2645	-0.322
Mof_O 	O 	0.6606	0.09172	0.9778	-0.207
Mof_O 	O 	0.6334	0.1466	0.706	-0.265
Mof_O 	O 	0.6337	0.16441	0.4562	-0.308
Mof_O 	O 	0.6062	0.06083	0.6474	-0.265
Mof_O 	O 	0.4403	0.06752	0.5211	-0.271
Mof_O 	O 	0.4554	0.06137	0.2045	-0.28
Mof_Cd	Cd	0.90744	0.06273	0.53402	0.448
Mof_Cd	Cd	0.88144	0.56951	0.49306	0.492
Mof_C 	C 	0.6546	0.56193	0.375	0.002
Mof_C 	C 	0.6781	0.56366	0.1976	0.027
Mof_H 	H 	0.6752	0.553	0.1162	0.035
Mof_H 	H 	0.672	0.5747	0.1268	0.041
Mof_C 	C 	0.7403	0.56633	0.1375	0.293
Mof_C 	C 	0.7352	0.569	0.945	-0.27
Mof_H 	H 	0.7121	0.5698	0.8967	0.126
Mof_C 	C 	0.7644	0.5705	0.826	0.149
Mof_H 	H 	0.7609	0.5723	0.697	-0
Mof_C 	C 	0.7987	0.56943	0.8968	-0.172
Mof_C 	C 	0.8039	0.56668	0.0897	0.143
Mof_H 	H 	0.827	0.5659	0.1383	0.012
Mof_C 	C 	0.7745	0.5651	0.2097	-0.262
Mof_H 	H 	0.778	0.5632	0.3385	0.157
Mof_C 	C 	0.8311	0.56798	0.7638	0.352
Mof_C 	C 	0.6625	0.541	0.439	0.038
Mof_H 	H 	0.6537	0.5324	0.3454	0.025
Mof_H 	H 	0.688	0.5391	0.4567	0.039
Mof_C 	C 	0.6404	0.5206	0.654	0.257
Mof_C 	C 	0.6458	0.5056	0.535	-0.254
Mof_H 	H 	0.6528	0.5075	0.4101	0.126
Mof_C 	C 	0.6407	0.4878	0.602	0.151
Mof_H 	H 	0.6443	0.4778	0.5225	-0.005
Mof_C 	C 	0.6302	0.48504	0.787	-0.196
Mof_C 	C 	0.6248	0.5001	0.907	0.129
Mof_H 	H 	0.6178	0.4982	0.0315	0.009
Mof_C 	C 	0.6299	0.5178	0.84	-0.247
Mof_H 	H 	0.6263	0.5278	0.9195	0.13
Mof_C 	C 	0.6253	0.46701	0.869	0.378
Mof_C 	C 	0.663	0.57352	0.555	0.003
Mof_H 	H 	0.6453	0.5715	0.6538	0.045
Mof_H 	H 	0.6867	0.5709	0.6041	0.05
Mof_C 	C 	0.6552	0.6043	0.644	0.219
Mof_C 	C 	0.6613	0.6016	0.834	-0.218
Mof_H 	H 	0.6703	0.5903	0.8756	0.108
Mof_C 	C 	0.6543	0.6153	0.963	0.118
Mof_H 	H 	0.6586	0.6133	0.0906	0.011
Mof_C 	C 	0.6409	0.6321	0.902	-0.154
Mof_C 	C 	0.635	0.6348	0.711	0.12
Mof_H 	H 	0.6263	0.646	0.6687	0.012
Mof_C 	C 	0.6417	0.621	0.583	-0.221
Mof_H 	H 	0.6373	0.623	0.4555	0.143
Mof_C 	C 	0.6348	0.64856	0.026	0.327
Mof_C 	C 	0.614	0.5648	0.322	0.076
Mof_H 	H 	0.5995	0.5572	0.4044	0.024
Mof_H 	H 	0.6076	0.5775	0.3455	0.028
Mof_C 	C 	0.5707	0.5616	0.081	0.3
Mof_C 	C 	0.5439	0.5693	0.188	-0.289
Mof_H 	H 	0.5492	0.574	0.3071	0.141
Mof_C 	C 	0.5093	0.5699	0.122	0.177
Mof_H 	H 	0.4914	0.5751	0.196	-0.009
Mof_C 	C 	0.501	0.5628	0.946	-0.192
Mof_C 	C 	0.528	0.5551	0.838	0.171
Mof_H 	H 	0.5227	0.5503	0.7193	-0.013
Mof_C 	C 	0.5624	0.5545	0.904	-0.294
Mof_H 	H 	0.5804	0.5494	0.8295	0.148
Mof_C 	C 	0.4632	0.5631	0.886	0.307
Mof_O 	O 	0.71417	0.56472	0.2672	-0.248
Mof_O 	O 	0.8616	0.56743	0.8126	-0.325
Mof_O 	O 	0.8228	0.56945	0.5833	-0.274
Mof_O 	O 	0.6445	0.53929	0.605	-0.25
Mof_O 	O 	0.6173	0.46529	0.0329	-0.282
Mof_O 	O 	0.6261	0.45312	0.7645	-0.319
Mof_O 	O 	0.6606	0.59172	0.4778	-0.205
Mof_O 	O 	0.6334	0.6466	0.206	-0.265
Mof_O 	O 	0.6337	0.66441	0.9562	-0.305
Mof_O 	O 	0.6062	0.56083	0.1474	-0.268
Mof_O 	O 	0.4403	0.56752	0.0211	-0.264
Mof_O 	O 	0.4554	0.56137	0.7045	-0.279
Mof_Cd	Cd	0.90744	0.56273	0.03402	0.449
Mof_Cd	Cd	0.61856	0.93049	0.49306	0.492
Mof_C 	C 	0.8454	0.93807	0.375	0.002
Mof_C 	C 	0.8219	0.93634	0.1976	0.027
Mof_H 	H 	0.8248	0.947	0.1162	0.035
Mof_H 	H 	0.828	0.9253	0.1268	0.041
Mof_C 	C 	0.7597	0.93367	0.1375	0.293
Mof_C 	C 	0.7648	0.931	0.945	-0.27
Mof_H 	H 	0.7879	0.9302	0.8967	0.126
Mof_C 	C 	0.7356	0.9295	0.826	0.149
Mof_H 	H 	0.7391	0.9277	0.697	-0
Mof_C 	C 	0.7013	0.93057	0.8968	-0.172
Mof_C 	C 	0.6961	0.93332	0.0897	0.143
Mof_H 	H 	0.673	0.9341	0.1383	0.012
Mof_C 	C 	0.7255	0.9349	0.2097	-0.262
Mof_H 	H 	0.722	0.9368	0.3385	0.157
Mof_C 	C 	0.6689	0.93202	0.7638	0.352
Mof_C 	C 	0.8375	0.959	0.439	0.038
Mof_H 	H 	0.8463	0.9676	0.3454	0.025
Mof_H 	H 	0.812	0.9609	0.4567	0.039
Mof_C 	C 	0.8596	0.9794	0.654	0.257
Mof_C 	C 	0.8542	0.9944	0.535	-0.254
Mof_H 	H 	0.8472	0.9925	0.4101	0.126
Mof_C 	C 	0.8593	0.0122	0.602	0.151
Mof_H 	H 	0.8557	0.0222	0.5225	-0.005
Mof_C 	C 	0.8698	0.01496	0.787	-0.196
Mof_C 	C 	0.8752	0.9999	0.907	0.129
Mof_H 	H 	0.8822	0.0018	0.0315	0.009
Mof_C 	C 	0.8701	0.9822	0.84	-0.247
Mof_H 	H 	0.8737	0.9722	0.9195	0.13
Mof_C 	C 	0.8747	0.03299	0.869	0.378
Mof_C 	C 	0.837	0.92648	0.555	0.003
Mof_H 	H 	0.8547	0.9285	0.6538	0.045
Mof_H 	H 	0.8133	0.9291	0.6041	0.05
Mof_C 	C 	0.8448	0.8957	0.644	0.219
Mof_C 	C 	0.8387	0.8984	0.834	-0.218
Mof_H 	H 	0.8297	0.9097	0.8756	0.108
Mof_C 	C 	0.8457	0.8847	0.963	0.118
Mof_H 	H 	0.8414	0.8867	0.0906	0.011
Mof_C 	C 	0.8591	0.8679	0.902	-0.154
Mof_C 	C 	0.865	0.8652	0.711	0.12
Mof_H 	H 	0.8737	0.854	0.6687	0.012
Mof_C 	C 	0.8583	0.879	0.583	-0.221
Mof_H 	H 	0.8627	0.877	0.4555	0.143
Mof_C 	C 	0.8652	0.85144	0.026	0.327
Mof_C 	C 	0.886	0.9352	0.322	0.076
Mof_H 	H 	0.9005	0.9428	0.4044	0.024
Mof_H 	H 	0.8924	0.9225	0.3455	0.028
Mof_C 	C 	0.9293	0.9384	0.081	0.3
Mof_C 	C 	0.9561	0.9307	0.188	-0.289
Mof_H 	H 	0.9508	0.926	0.3071	0.141
Mof_C 	C 	0.9907	0.9301	0.122	0.177
Mof_H 	H 	0.0086	0.9249	0.196	-0.009
Mof_C 	C 	0.999	0.9372	0.946	-0.192
Mof_C 	C 	0.972	0.9449	0.838	0.171
Mof_H 	H 	0.9773	0.9497	0.7193	-0.013
Mof_C 	C 	0.9376	0.9455	0.904	-0.294
Mof_H 	H 	0.9196	0.9506	0.8295	0.148
Mof_C 	C 	0.0368	0.9369	0.886	0.307
Mof_O 	O 	0.78583	0.93528	0.2672	-0.248
Mof_O 	O 	0.6384	0.93257	0.8126	-0.325
Mof_O 	O 	0.6772	0.93055	0.5833	-0.274
Mof_O 	O 	0.8555	0.96071	0.605	-0.25
Mof_O 	O 	0.8827	0.03471	0.0329	-0.282
Mof_O 	O 	0.8739	0.04688	0.7645	-0.319
Mof_O 	O 	0.8394	0.90828	0.4778	-0.205
Mof_O 	O 	0.8666	0.8534	0.206	-0.265
Mof_O 	O 	0.8663	0.83559	0.9562	-0.305
Mof_O 	O 	0.8938	0.93917	0.1474	-0.268
Mof_O 	O 	0.0597	0.93248	0.0211	-0.264
Mof_O 	O 	0.0446	0.93863	0.7045	-0.279
Mof_Cd	Cd	0.59256	0.93727	0.03402	0.449
Mof_Cd	Cd	0.61856	0.43049	0.99306	0.484
Mof_C 	C 	0.8454	0.43807	0.875	-0.001
Mof_C 	C 	0.8219	0.43634	0.6976	0.028
Mof_H 	H 	0.8248	0.447	0.6162	0.034
Mof_H 	H 	0.828	0.4253	0.6268	0.04
Mof_C 	C 	0.7597	0.43367	0.6375	0.288
Mof_C 	C 	0.7648	0.431	0.445	-0.265
Mof_H 	H 	0.7879	0.4302	0.3967	0.125
Mof_C 	C 	0.7356	0.4295	0.326	0.146
Mof_H 	H 	0.7391	0.4277	0.197	0.002
Mof_C 	C 	0.7013	0.43057	0.3968	-0.168
Mof_C 	C 	0.6961	0.43332	0.5897	0.139
Mof_H 	H 	0.673	0.4341	0.6383	0.013
Mof_C 	C 	0.7255	0.4349	0.7097	-0.259
Mof_H 	H 	0.722	0.4368	0.8385	0.154
Mof_C 	C 	0.6689	0.43202	0.2638	0.35
Mof_C 	C 	0.8375	0.459	0.939	0.036
Mof_H 	H 	0.8463	0.4676	0.8454	0.024
Mof_H 	H 	0.812	0.4609	0.9567	0.038
Mof_C 	C 	0.8596	0.4794	0.154	0.264
Mof_C 	C 	0.8542	0.4944	0.035	-0.257
Mof_H 	H 	0.8472	0.4925	0.9101	0.125
Mof_C 	C 	0.8593	0.5122	0.102	0.16
Mof_H 	H 	0.8557	0.5222	0.0225	-0.008
Mof_C 	C 	0.8698	0.51496	0.287	-0.212
Mof_C 	C 	0.8752	0.4999	0.407	0.158
Mof_H 	H 	0.8822	0.5018	0.5315	-0.007
Mof_C 	C 	0.8701	0.4822	0.34	-0.263
Mof_H 	H 	0.8737	0.4722	0.4195	0.138
Mof_C 	C 	0.8747	0.53299	0.369	0.396
Mof_C 	C 	0.837	0.42648	0.055	0.008
Mof_H 	H 	0.8547	0.4285	0.1538	0.044
Mof_H 	H 	0.8133	0.4291	0.1041	0.049
Mof_C 	C 	0.8448	0.3957	0.144	0.223
Mof_C 	C 	0.8387	0.3984	0.334	-0.222
Mof_H 	H 	0.8297	0.4097	0.3756	0.11
Mof_C 	C 	0.8457	0.3847	0.463	0.123
Mof_H 	H 	0.8414	0.3867	0.5906	0.009
Mof_C 	C 	0.8591	0.3679	0.402	-0.159
Mof_C 	C 	0.865	0.3652	0.211	0.124
Mof_H 	H 	0.8737	0.354	0.1687	0.01
Mof_C 	C 	0.8583	0.379	0.083	-0.225
Mof_H 	H 	0.8627	0.377	0.9555	0.145
Mof_C 	C 	0.8652	0.35144	0.526	0.332
Mof_C 	C 	0.886	0.4352	0.822	0.074
Mof_H 	H 	0.9005	0.4428	0.9044	0.024
Mof_H 	H 	0.8924	0.4225	0.8455	0.028
Mof_C 	C 	0.9293	0.4384	0.581	0.281
Mof_C 	C 	0.9561	0.4307	0.688	-0.27
Mof_H 	H 	0.9508	0.426	0.8071	0.134
Mof_C 	C 	0.9907	0.4301	0.622	0.152
Mof_H 	H 	0.0086	0.4249	0.696	-0.001
Mof_C 	C 	0.999	0.4372	0.446	-0.173
Mof_C 	C 	0.972	0.4449	0.338	0.154
Mof_H 	H 	0.9773	0.4497	0.2193	-0.007
Mof_C 	C 	0.9376	0.4455	0.404	-0.27
Mof_H 	H 	0.9196	0.4506	0.3295	0.141
Mof_C 	C 	0.0368	0.4369	0.386	0.309
Mof_O 	O 	0.78583	0.43528	0.7672	-0.248
Mof_O 	O 	0.6384	0.43257	0.3126	-0.324
Mof_O 	O 	0.6772	0.43055	0.0833	-0.27
Mof_O 	O 	0.8555	0.46071	0.105	-0.249
Mof_O 	O 	0.8827	0.53471	0.5329	-0.294
Mof_O 	O 	0.8739	0.54688	0.2645	-0.322
Mof_O 	O 	0.8394	0.40828	0.9778	-0.207
Mof_O 	O 	0.8666	0.3534	0.706	-0.265
Mof_O 	O 	0.8663	0.33559	0.4562	-0.308
Mof_O 	O 	0.8938	0.43917	0.6474	-0.265
Mof_O 	O 	0.0597	0.43248	0.5211	-0.271
Mof_O 	O 	0.0446	0.43863	0.2045	-0.28
Mof_Cd	Cd	0.59256	0.43727	0.53402	0.448
Mof_Cd	Cd	0.11856	0.93049	0.99306	0.484
Mof_C 	C 	0.3454	0.93807	0.875	-0.001
Mof_C 	C 	0.3219	0.93634	0.6976	0.028
Mof_H 	H 	0.3248	0.947	0.6162	0.034
Mof_H 	H 	0.328	0.9253	0.6268	0.04
Mof_C 	C 	0.2597	0.93367	0.6375	0.288
Mof_C 	C 	0.2648	0.931	0.445	-0.265
Mof_H 	H 	0.2879	0.9302	0.3967	0.125
Mof_C 	C 	0.2356	0.9295	0.326	0.146
Mof_H 	H 	0.2391	0.9277	0.197	0.002
Mof_C 	C 	0.2013	0.93057	0.3968	-0.168
Mof_C 	C 	0.1961	0.93332	0.5897	0.139
Mof_H 	H 	0.173	0.9341	0.6383	0.013
Mof_C 	C 	0.2255	0.9349	0.7097	-0.259
Mof_H 	H 	0.222	0.9368	0.8385	0.154
Mof_C 	C 	0.1689	0.93202	0.2638	0.35
Mof_C 	C 	0.3375	0.959	0.939	0.036
Mof_H 	H 	0.3463	0.9676	0.8454	0.024
Mof_H 	H 	0.312	0.9609	0.9567	0.038
Mof_C 	C 	0.3596	0.9794	0.154	0.264
Mof_C 	C 	0.3542	0.9944	0.035	-0.257
Mof_H 	H 	0.3472	0.9925	0.9101	0.125
Mof_C 	C 	0.3593	0.0122	0.102	0.16
Mof_H 	H 	0.3557	0.0222	0.0225	-0.008
Mof_C 	C 	0.3698	0.01496	0.287	-0.212
Mof_C 	C 	0.3752	0.9999	0.407	0.158
Mof_H 	H 	0.3822	0.0018	0.5315	-0.007
Mof_C 	C 	0.3701	0.9822	0.34	-0.263
Mof_H 	H 	0.3737	0.9722	0.4195	0.138
Mof_C 	C 	0.3747	0.03299	0.369	0.396
Mof_C 	C 	0.337	0.92648	0.055	0.008
Mof_H 	H 	0.3547	0.9285	0.1538	0.044
Mof_H 	H 	0.3133	0.9291	0.1041	0.049
Mof_C 	C 	0.3448	0.8957	0.144	0.223
Mof_C 	C 	0.3387	0.8984	0.334	-0.222
Mof_H 	H 	0.3297	0.9097	0.3756	0.11
Mof_C 	C 	0.3457	0.8847	0.463	0.123
Mof_H 	H 	0.3414	0.8867	0.5906	0.009
Mof_C 	C 	0.3591	0.8679	0.402	-0.159
Mof_C 	C 	0.365	0.8652	0.211	0.124
Mof_H 	H 	0.3737	0.854	0.1687	0.01
Mof_C 	C 	0.3583	0.879	0.083	-0.225
Mof_H 	H 	0.3627	0.877	0.9555	0.145
Mof_C 	C 	0.3652	0.85144	0.526	0.332
Mof_C 	C 	0.386	0.9352	0.822	0.074
Mof_H 	H 	0.4005	0.9428	0.9044	0.024
Mof_H 	H 	0.3924	0.9225	0.8455	0.028
Mof_C 	C 	0.4293	0.9384	0.581	0.281
Mof_C 	C 	0.4561	0.9307	0.688	-0.27
Mof_H 	H 	0.4508	0.926	0.8071	0.134
Mof_C 	C 	0.4907	0.9301	0.622	0.152
Mof_H 	H 	0.5086	0.9249	0.696	-0.001
Mof_C 	C 	0.499	0.9372	0.446	-0.173
Mof_C 	C 	0.472	0.9449	0.338	0.154
Mof_H 	H 	0.4773	0.9497	0.2193	-0.007
Mof_C 	C 	0.4376	0.9455	0.404	-0.27
Mof_H 	H 	0.4196	0.9506	0.3295	0.141
Mof_C 	C 	0.5368	0.9369	0.386	0.309
Mof_O 	O 	0.28583	0.93528	0.7672	-0.248
Mof_O 	O 	0.1384	0.93257	0.3126	-0.324
Mof_O 	O 	0.1772	0.93055	0.0833	-0.27
Mof_O 	O 	0.3555	0.96071	0.105	-0.249
Mof_O 	O 	0.3827	0.03471	0.5329	-0.294
Mof_O 	O 	0.3739	0.04688	0.2645	-0.322
Mof_O 	O 	0.3394	0.90828	0.9778	-0.207
Mof_O 	O 	0.3666	0.8534	0.706	-0.265
Mof_O 	O 	0.3663	0.83559	0.4562	-0.308
Mof_O 	O 	0.3938	0.93917	0.6474	-0.265
Mof_O 	O 	0.5597	0.93248	0.5211	-0.271
Mof_O 	O 	0.5446	0.93863	0.2045	-0.28
Mof_Cd	Cd	0.09256	0.93727	0.53402	0.448
Mof_Cd	Cd	0.11856	0.43049	0.49306	0.492
Mof_C 	C 	0.3454	0.43807	0.375	0.002
Mof_C 	C 	0.3219	0.43634	0.1976	0.027
Mof_H 	H 	0.3248	0.447	0.1162	0.035
Mof_H 	H 	0.328	0.4253	0.1268	0.041
Mof_C 	C 	0.2597	0.43367	0.1375	0.293
Mof_C 	C 	0.2648	0.431	0.945	-0.27
Mof_H 	H 	0.2879	0.4302	0.8967	0.126
Mof_C 	C 	0.2356	0.4295	0.826	0.149
Mof_H 	H 	0.2391	0.4277	0.697	-0
Mof_C 	C 	0.2013	0.43057	0.8968	-0.172
Mof_C 	C 	0.1961	0.43332	0.0897	0.143
Mof_H 	H 	0.173	0.4341	0.1383	0.012
Mof_C 	C 	0.2255	0.4349	0.2097	-0.262
Mof_H 	H 	0.222	0.4368	0.3385	0.157
Mof_C 	C 	0.1689	0.43202	0.7638	0.352
Mof_C 	C 	0.3375	0.459	0.439	0.038
Mof_H 	H 	0.3463	0.4676	0.3454	0.025
Mof_H 	H 	0.312	0.4609	0.4567	0.039
Mof_C 	C 	0.3596	0.4794	0.654	0.257
Mof_C 	C 	0.3542	0.4944	0.535	-0.254
Mof_H 	H 	0.3472	0.4925	0.4101	0.126
Mof_C 	C 	0.3593	0.5122	0.602	0.151
Mof_H 	H 	0.3557	0.5222	0.5225	-0.005
Mof_C 	C 	0.3698	0.51496	0.787	-0.196
Mof_C 	C 	0.3752	0.4999	0.907	0.129
Mof_H 	H 	0.3822	0.5018	0.0315	0.009
Mof_C 	C 	0.3701	0.4822	0.84	-0.247
Mof_H 	H 	0.3737	0.4722	0.9195	0.13
Mof_C 	C 	0.3747	0.53299	0.869	0.378
Mof_C 	C 	0.337	0.42648	0.555	0.003
Mof_H 	H 	0.3547	0.4285	0.6538	0.045
Mof_H 	H 	0.3133	0.4291	0.6041	0.05
Mof_C 	C 	0.3448	0.3957	0.644	0.219
Mof_C 	C 	0.3387	0.3984	0.834	-0.218
Mof_H 	H 	0.3297	0.4097	0.8756	0.108
Mof_C 	C 	0.3457	0.3847	0.963	0.118
Mof_H 	H 	0.3414	0.3867	0.0906	0.011
Mof_C 	C 	0.3591	0.3679	0.902	-0.154
Mof_C 	C 	0.365	0.3652	0.711	0.12
Mof_H 	H 	0.3737	0.354	0.6687	0.012
Mof_C 	C 	0.3583	0.379	0.583	-0.221
Mof_H 	H 	0.3627	0.377	0.4555	0.143
Mof_C 	C 	0.3652	0.35144	0.026	0.327
Mof_C 	C 	0.386	0.4352	0.322	0.076
Mof_H 	H 	0.4005	0.4428	0.4044	0.024
Mof_H 	H 	0.3924	0.4225	0.3455	0.028
Mof_C 	C 	0.4293	0.4384	0.081	0.3
Mof_C 	C 	0.4561	0.4307	0.188	-0.289
Mof_H 	H 	0.4508	0.426	0.3071	0.141
Mof_C 	C 	0.4907	0.4301	0.122	0.177
Mof_H 	H 	0.5086	0.4249	0.196	-0.009
Mof_C 	C 	0.499	0.4372	0.946	-0.192
Mof_C 	C 	0.472	0.4449	0.838	0.171
Mof_H 	H 	0.4773	0.4497	0.7193	-0.013
Mof_C 	C 	0.4376	0.4455	0.904	-0.294
Mof_H 	H 	0.4196	0.4506	0.8295	0.148
Mof_C 	C 	0.5368	0.4369	0.886	0.307
Mof_O 	O 	0.28583	0.43528	0.2672	-0.248
Mof_O 	O 	0.1384	0.43257	0.8126	-0.325
Mof_O 	O 	0.1772	0.43055	0.5833	-0.274
Mof_O 	O 	0.3555	0.46071	0.605	-0.25
Mof_O 	O 	0.3827	0.53471	0.0329	-0.282
Mof_O 	O 	0.3739	0.54688	0.7645	-0.319
Mof_O 	O 	0.3394	0.40828	0.4778	-0.205
Mof_O 	O 	0.3666	0.3534	0.206	-0.265
Mof_O 	O 	0.3663	0.33559	0.9562	-0.305
Mof_O 	O 	0.3938	0.43917	0.1474	-0.268
Mof_O 	O 	0.5597	0.43248	0.0211	-0.264
Mof_O 	O 	0.5446	0.43863	0.7045	-0.279
Mof_Cd	Cd	0.09256	0.43727	0.03402	0.449
Mof_Cd	Cd	0.63144	0.18049	0.74306	0.493
Mof_C 	C 	0.4046	0.18807	0.625	0.002
Mof_C 	C 	0.4281	0.18634	0.4476	0.027
Mof_H 	H 	0.4252	0.197	0.3662	0.034
Mof_H 	H 	0.422	0.1753	0.3768	0.04
Mof_C 	C 	0.4903	0.18367	0.3875	0.285
Mof_C 	C 	0.4852	0.181	0.195	-0.258
Mof_H 	H 	0.4621	0.1802	0.1467	0.122
Mof_C 	C 	0.5144	0.1795	0.076	0.134
Mof_H 	H 	0.5109	0.1777	0.947	0.007
Mof_C 	C 	0.5487	0.18057	0.1468	-0.163
Mof_C 	C 	0.5539	0.18332	0.3397	0.136
Mof_H 	H 	0.577	0.1841	0.3883	0.015
Mof_C 	C 	0.5245	0.1849	0.4597	-0.255
Mof_H 	H 	0.528	0.1868	0.5885	0.155
Mof_C 	C 	0.5811	0.18202	0.0138	0.345
Mof_C 	C 	0.4125	0.209	0.689	0.04
Mof_H 	H 	0.4037	0.2176	0.5954	0.023
Mof_H 	H 	0.438	0.2109	0.7067	0.039
Mof_C 	C 	0.3904	0.2294	0.904	0.279
Mof_C 	C 	0.3958	0.2444	0.785	-0.276
Mof_H 	H 	0.4028	0.2425	0.6601	0.134
Mof_C 	C 	0.3907	0.2622	0.852	0.18
Mof_H 	H 	0.3943	0.2722	0.7725	-0.015
Mof_C 	C 	0.3802	0.26496	0.037	-0.228
Mof_C 	C 	0.3748	0.2499	0.157	0.172
Mof_H 	H 	0.3678	0.2518	0.2815	-0.011
Mof_C 	C 	0.3799	0.2322	0.09	-0.281
Mof_H 	H 	0.3763	0.2222	0.1695	0.144
Mof_C 	C 	0.3753	0.28299	0.119	0.402
Mof_C 	C 	0.413	0.17648	0.805	0.002
Mof_H 	H 	0.3953	0.1785	0.9038	0.046
Mof_H 	H 	0.4367	0.1791	0.8541	0.051
Mof_C 	C 	0.4052	0.1457	0.894	0.228
Mof_C 	C 	0.4113	0.1484	0.084	-0.23
Mof_H 	H 	0.4203	0.1597	0.1256	0.112
Mof_C 	C 	0.4043	0.1347	0.213	0.129
Mof_H 	H 	0.4086	0.1367	0.3406	0.007
Mof_C 	C 	0.3909	0.1179	0.152	-0.165
Mof_C 	C 	0.385	0.1152	0.961	0.132
Mof_H 	H 	0.3763	0.104	0.9187	0.008
Mof_C 	C 	0.3917	0.129	0.833	-0.23
Mof_H 	H 	0.3873	0.127	0.7055	0.147
Mof_C 	C 	0.3848	0.10144	0.276	0.334
Mof_C 	C 	0.364	0.1852	0.572	0.071
Mof_H 	H 	0.3495	0.1928	0.6544	0.026
Mof_H 	H 	0.3576	0.1725	0.5955	0.03
Mof_C 	C 	0.3207	0.1884	0.331	0.274
Mof_C 	C 	0.2939	0.1807	0.438	-0.264
Mof_H 	H 	0.2992	0.176	0.5571	0.132
Mof_C 	C 	0.2593	0.1801	0.372	0.145
Mof_H 	H 	0.2414	0.1749	0.446	0.001
Mof_C 	C 	0.251	0.1872	0.196	-0.165
Mof_C 	C 	0.278	0.1949	0.088	0.138
Mof_H 	H 	0.2727	0.1997	0.9693	0.001
Mof_C 	C 	0.3124	0.1955	0.154	-0.26
Mof_H 	H 	0.3304	0.2006	0.0795	0.136
Mof_C 	C 	0.2132	0.1869	0.136	0.302
Mof_O 	O 	0.46417	0.18528	0.5172	-0.246
Mof_O 	O 	0.6116	0.18257	0.0626	-0.325
Mof_O 	O 	0.5728	0.18055	0.8333	-0.271
Mof_O 	O 	0.3945	0.21071	0.855	-0.254
Mof_O 	O 	0.3673	0.28471	0.2829	-0.295
Mof_O 	O 	0.3761	0.29688	0.0145	-0.326
Mof_O 	O 	0.4106	0.15828	0.7278	-0.206
Mof_O 	O 	0.3834	0.1034	0.456	-0.266
Mof_O 	O 	0.3837	0.08559	0.2062	-0.309
Mof_O 	O 	0.3562	0.18917	0.3974	-0.264
Mof_O 	O 	0.1903	0.18248	0.2711	-0.27
Mof_O 	O 	0.2054	0.18863	0.9545	-0.276
Mof_Cd	Cd	0.65744	0.18727	0.28402	0.447
Mof_Cd	Cd	0.63144	0.68049	0.24306	0.491
Mof_C 	C 	0.4046	0.68807	0.125	0.001
Mof_C 	C 	0.4281	0.68634	0.9476	0.03
Mof_H 	H 	0.4252	0.697	0.8662	0.034
Mof_H 	H 	0.422	0.6753	0.8768	0.039
Mof_C 	C 	0.4903	0.68367	0.8875	0.289
Mof_C 	C 	0.4852	0.681	0.695	-0.265
Mof_H 	H 	0.4621	0.6802	0.6467	0.125
Mof_C 	C 	0.5144	0.6795	0.576	0.146
Mof_H 	H 	0.5109	0.6777	0.447	0.001
Mof_C 	C 	0.5487	0.68057	0.6468	-0.168
Mof_C 	C 	0.5539	0.68332	0.8397	0.139
Mof_H 	H 	0.577	0.6841	0.8883	0.015
Mof_C 	C 	0.5245	0.6849	0.9597	-0.256
Mof_H 	H 	0.528	0.6868	0.0885	0.154
Mof_C 	C 	0.5811	0.68202	0.5138	0.351
Mof_C 	C 	0.4125	0.709	0.189	0.04
Mof_H 	H 	0.4037	0.7176	0.0954	0.022
Mof_H 	H 	0.438	0.7109	0.2067	0.038
Mof_C 	C 	0.3904	0.7294	0.404	0.267
Mof_C 	C 	0.3958	0.7444	0.285	-0.265
Mof_H 	H 	0.4028	0.7425	0.1601	0.129
Mof_C 	C 	0.3907	0.7622	0.352	0.165
Mof_H 	H 	0.3943	0.7722	0.2725	-0.011
Mof_C 	C 	0.3802	0.76496	0.537	-0.214
Mof_C 	C 	0.3748	0.7499	0.657	0.161
Mof_H 	H 	0.3678	0.7518	0.7815	-0.007
Mof_C 	C 	0.3799	0.7322	0.59	-0.266
Mof_H 	H 	0.3763	0.7222	0.6695	0.14
Mof_C 	C 	0.3753	0.78299	0.619	0.396
Mof_C 	C 	0.413	0.67648	0.305	0.003
Mof_H 	H 	0.3953	0.6785	0.4038	0.045
Mof_H 	H 	0.4367	0.6791	0.3541	0.05
Mof_C 	C 	0.4052	0.6457	0.394	0.221
Mof_C 	C 	0.4113	0.6484	0.584	-0.221
Mof_H 	H 	0.4203	0.6597	0.6256	0.109
Mof_C 	C 	0.4043	0.6347	0.713	0.122
Mof_H 	H 	0.4086	0.6367	0.8406	0.009
Mof_C 	C 	0.3909	0.6179	0.652	-0.158
Mof_C 	C 	0.385	0.6152	0.461	0.123
Mof_H 	H 	0.3763	0.604	0.4187	0.011
Mof_C 	C 	0.3917	0.629	0.333	-0.223
Mof_H 	H 	0.3873	0.627	0.2055	0.145
Mof_C 	C 	0.3848	0.60144	0.776	0.332
Mof_C 	C 	0.364	0.6852	0.072	0.07
Mof_H 	H 	0.3495	0.6928	0.1544	0.025
Mof_H 	H 	0.3576	0.6725	0.0955	0.03
Mof_C 	C 	0.3207	0.6884	0.831	0.278
Mof_C 	C 	0.2939	0.6807	0.938	-0.265
Mof_H 	H 	0.2992	0.676	0.0571	0.131
Mof_C 	C 	0.2593	0.6801	0.872	0.149
Mof_H 	H 	0.2414	0.6749	0.946	0
Mof_C 	C 	0.251	0.6872	0.696	-0.171
Mof_C 	C 	0.278	0.6949	0.588	0.152
Mof_H 	H 	0.2727	0.6997	0.4693	-0.007
Mof_C 	C 	0.3124	0.6955	0.654	-0.268
Mof_H 	H 	0.3304	0.7006	0.5795	0.14
Mof_C 	C 	0.2132	0.6869	0.636	0.308
Mof_O 	O 	0.46417	0.68528	0.0172	-0.249
Mof_O 	O 	0.6116	0.68257	0.5626	-0.325
Mof_O 	O 	0.5728	0.68055	0.3333	-0.274
Mof_O 	O 	0.3945	0.71071	0.355	-0.252
Mof_O 	O 	0.3673	0.78471	0.7829	-0.293
Mof_O 	O 	0.3761	0.79688	0.5145	-0.323
Mof_O 	O 	0.4106	0.65828	0.2278	-0.205
Mof_O 	O 	0.3834	0.6034	0.956	-0.268
Mof_O 	O 	0.3837	0.58559	0.7062	-0.308
Mof_O 	O 	0.3562	0.68917	0.8974	-0.263
Mof_O 	O 	0.1903	0.68248	0.7711	-0.27
Mof_O 	O 	0.2054	0.68863	0.4545	-0.28
Mof_Cd	Cd	0.65744	0.68727	0.78402	0.45
Mof_Cd	Cd	0.13144	0.18049	0.24306	0.491
Mof_C 	C 	0.9046	0.18807	0.125	0.001
Mof_C 	C 	0.9281	0.18634	0.9476	0.03
Mof_H 	H 	0.9252	0.197	0.8662	0.034
Mof_H 	H 	0.922	0.1753	0.8768	0.039
Mof_C 	C 	0.9903	0.18367	0.8875	0.289
Mof_C 	C 	0.9852	0.181	0.695	-0.265
Mof_H 	H 	0.9621	0.1802	0.6467	0.125
Mof_C 	C 	0.0144	0.1795	0.576	0.146
Mof_H 	H 	0.0109	0.1777	0.447	0.001
Mof_C 	C 	0.0487	0.18057	0.6468	-0.168
Mof_C 	C 	0.0539	0.18332	0.8397	0.139
Mof_H 	H 	0.077	0.1841	0.8883	0.015
Mof_C 	C 	0.0245	0.1849	0.9597	-0.256
Mof_H 	H 	0.028	0.1868	0.0885	0.154
Mof_C 	C 	0.0811	0.18202	0.5138	0.351
Mof_C 	C 	0.9125	0.209	0.189	0.04
Mof_H 	H 	0.9037	0.2176	0.0954	0.022
Mof_H 	H 	0.938	0.2109	0.2067	0.038
Mof_C 	C 	0.8904	0.2294	0.404	0.267
Mof_C 	C 	0.8958	0.2444	0.285	-0.265
Mof_H 	H 	0.9028	0.2425	0.1601	0.129
Mof_C 	C 	0.8907	0.2622	0.352	0.165
Mof_H 	H 	0.8943	0.2722	0.2725	-0.011
Mof_C 	C 	0.8802	0.26496	0.537	-0.214
Mof_C 	C 	0.8748	0.2499	0.657	0.161
Mof_H 	H 	0.8678	0.2518	0.7815	-0.007
Mof_C 	C 	0.8799	0.2322	0.59	-0.266
Mof_H 	H 	0.8763	0.2222	0.6695	0.14
Mof_C 	C 	0.8753	0.28299	0.619	0.396
Mof_C 	C 	0.913	0.17648	0.305	0.003
Mof_H 	H 	0.8953	0.1785	0.4038	0.045
Mof_H 	H 	0.9367	0.1791	0.3541	0.05
Mof_C 	C 	0.9052	0.1457	0.394	0.221
Mof_C 	C 	0.9113	0.1484	0.584	-0.221
Mof_H 	H 	0.9203	0.1597	0.6256	0.109
Mof_C 	C 	0.9043	0.1347	0.713	0.122
Mof_H 	H 	0.9086	0.1367	0.8406	0.009
Mof_C 	C 	0.8909	0.1179	0.652	-0.158
Mof_C 	C 	0.885	0.1152	0.461	0.123
Mof_H 	H 	0.8763	0.104	0.4187	0.011
Mof_C 	C 	0.8917	0.129	0.333	-0.223
Mof_H 	H 	0.8873	0.127	0.2055	0.145
Mof_C 	C 	0.8848	0.10144	0.776	0.332
Mof_C 	C 	0.864	0.1852	0.072	0.07
Mof_H 	H 	0.8495	0.1928	0.1544	0.025
Mof_H 	H 	0.8576	0.1725	0.0955	0.03
Mof_C 	C 	0.8207	0.1884	0.831	0.278
Mof_C 	C 	0.7939	0.1807	0.938	-0.265
Mof_H 	H 	0.7992	0.176	0.0571	0.131
Mof_C 	C 	0.7593	0.1801	0.872	0.149
Mof_H 	H 	0.7414	0.1749	0.946	0
Mof_C 	C 	0.751	0.1872	0.696	-0.171
Mof_C 	C 	0.778	0.1949	0.588	0.152
Mof_H 	H 	0.7727	0.1997	0.4693	-0.007
Mof_C 	C 	0.8124	0.1955	0.654	-0.268
Mof_H 	H 	0.8304	0.2006	0.5795	0.14
Mof_C 	C 	0.7132	0.1869	0.636	0.308
Mof_O 	O 	0.96417	0.18528	0.0172	-0.249
Mof_O 	O 	0.1116	0.18257	0.5626	-0.325
Mof_O 	O 	0.0728	0.18055	0.3333	-0.274
Mof_O 	O 	0.8945	0.21071	0.355	-0.252
Mof_O 	O 	0.8673	0.28471	0.7829	-0.293
Mof_O 	O 	0.8761	0.29688	0.5145	-0.323
Mof_O 	O 	0.9106	0.15828	0.2278	-0.205
Mof_O 	O 	0.8834	0.1034	0.956	-0.268
Mof_O 	O 	0.8837	0.08559	0.7062	-0.308
Mof_O 	O 	0.8562	0.18917	0.8974	-0.263
Mof_O 	O 	0.6903	0.18248	0.7711	-0.27
Mof_O 	O 	0.7054	0.18863	0.4545	-0.28
Mof_Cd	Cd	0.15744	0.18727	0.78402	0.45
Mof_Cd	Cd	0.13144	0.68049	0.74306	0.493
Mof_C 	C 	0.9046	0.68807	0.625	0.002
Mof_C 	C 	0.9281	0.68634	0.4476	0.027
Mof_H 	H 	0.9252	0.697	0.3662	0.034
Mof_H 	H 	0.922	0.6753	0.3768	0.04
Mof_C 	C 	0.9903	0.68367	0.3875	0.285
Mof_C 	C 	0.9852	0.681	0.195	-0.258
Mof_H 	H 	0.9621	0.6802	0.1467	0.122
Mof_C 	C 	0.0144	0.6795	0.076	0.134
Mof_H 	H 	0.0109	0.6777	0.947	0.007
Mof_C 	C 	0.0487	0.68057	0.1468	-0.163
Mof_C 	C 	0.0539	0.68332	0.3397	0.136
Mof_H 	H 	0.077	0.6841	0.3883	0.015
Mof_C 	C 	0.0245	0.6849	0.4597	-0.255
Mof_H 	H 	0.028	0.6868	0.5885	0.155
Mof_C 	C 	0.0811	0.68202	0.0138	0.345
Mof_C 	C 	0.9125	0.709	0.689	0.04
Mof_H 	H 	0.9037	0.7176	0.5954	0.023
Mof_H 	H 	0.938	0.7109	0.7067	0.039
Mof_C 	C 	0.8904	0.7294	0.904	0.279
Mof_C 	C 	0.8958	0.7444	0.785	-0.276
Mof_H 	H 	0.9028	0.7425	0.6601	0.134
Mof_C 	C 	0.8907	0.7622	0.852	0.18
Mof_H 	H 	0.8943	0.7722	0.7725	-0.015
Mof_C 	C 	0.8802	0.76496	0.037	-0.228
Mof_C 	C 	0.8748	0.7499	0.157	0.172
Mof_H 	H 	0.8678	0.7518	0.2815	-0.011
Mof_C 	C 	0.8799	0.7322	0.09	-0.281
Mof_H 	H 	0.8763	0.7222	0.1695	0.144
Mof_C 	C 	0.8753	0.78299	0.119	0.402
Mof_C 	C 	0.913	0.67648	0.805	0.002
Mof_H 	H 	0.8953	0.6785	0.9038	0.046
Mof_H 	H 	0.9367	0.6791	0.8541	0.051
Mof_C 	C 	0.9052	0.6457	0.894	0.228
Mof_C 	C 	0.9113	0.6484	0.084	-0.23
Mof_H 	H 	0.9203	0.6597	0.1256	0.112
Mof_C 	C 	0.9043	0.6347	0.213	0.129
Mof_H 	H 	0.9086	0.6367	0.3406	0.007
Mof_C 	C 	0.8909	0.6179	0.152	-0.165
Mof_C 	C 	0.885	0.6152	0.961	0.132
Mof_H 	H 	0.8763	0.604	0.9187	0.008
Mof_C 	C 	0.8917	0.629	0.833	-0.23
Mof_H 	H 	0.8873	0.627	0.7055	0.147
Mof_C 	C 	0.8848	0.60144	0.276	0.334
Mof_C 	C 	0.864	0.6852	0.572	0.071
Mof_H 	H 	0.8495	0.6928	0.6544	0.026
Mof_H 	H 	0.8576	0.6725	0.5955	0.03
Mof_C 	C 	0.8207	0.6884	0.331	0.274
Mof_C 	C 	0.7939	0.6807	0.438	-0.264
Mof_H 	H 	0.7992	0.676	0.5571	0.132
Mof_C 	C 	0.7593	0.6801	0.372	0.145
Mof_H 	H 	0.7414	0.6749	0.446	0.001
Mof_C 	C 	0.751	0.6872	0.196	-0.165
Mof_C 	C 	0.778	0.6949	0.088	0.138
Mof_H 	H 	0.7727	0.6997	0.9693	0.001
Mof_C 	C 	0.8124	0.6955	0.154	-0.26
Mof_H 	H 	0.8304	0.7006	0.0795	0.136
Mof_C 	C 	0.7132	0.6869	0.136	0.302
Mof_O 	O 	0.96417	0.68528	0.5172	-0.246
Mof_O 	O 	0.1116	0.68257	0.0626	-0.325
Mof_O 	O 	0.0728	0.68055	0.8333	-0.271
Mof_O 	O 	0.8945	0.71071	0.855	-0.254
Mof_O 	O 	0.8673	0.78471	0.2829	-0.295
Mof_O 	O 	0.8761	0.79688	0.0145	-0.326
Mof_O 	O 	0.9106	0.65828	0.7278	-0.206
Mof_O 	O 	0.8834	0.6034	0.456	-0.266
Mof_O 	O 	0.8837	0.58559	0.2062	-0.309
Mof_O 	O 	0.8562	0.68917	0.3974	-0.264
Mof_O 	O 	0.6903	0.68248	0.2711	-0.27
Mof_O 	O 	0.7054	0.68863	0.9545	-0.276
Mof_Cd	Cd	0.15744	0.68727	0.28402	0.447
Mof_Cd	Cd	0.86856	0.31951	0.74306	0.493
Mof_C 	C 	0.0954	0.31193	0.625	0.002
Mof_C 	C 	0.0719	0.31366	0.4476	0.027
Mof_H 	H 	0.0748	0.303	0.3662	0.034
Mof_H 	H 	0.078	0.3247	0.3768	0.04
Mof_C 	C 	0.0097	0.31633	0.3875	0.285
Mof_C 	C 	0.0148	0.319	0.195	-0.258
Mof_H 	H 	0.0379	0.3198	0.1467	0.122
Mof_C 	C 	0.9856	0.3205	0.076	0.134
Mof_H 	H 	0.9891	0.3223	0.947	0.007
Mof_C 	C 	0.9513	0.31943	0.1468	-0.163
Mof_C 	C 	0.9461	0.31668	0.3397	0.136
Mof_H 	H 	0.923	0.3159	0.3883	0.015
Mof_C 	C 	0.9755	0.3151	0.4597	-0.255
Mof_H 	H 	0.972	0.3132	0.5885	0.155
Mof_C 	C 	0.9189	0.31798	0.0138	0.345
Mof_C 	C 	0.0875	0.291	0.689	0.04
Mof_H 	H 	0.0963	0.2824	0.5954	0.023
Mof_H 	H 	0.062	0.2891	0.7067	0.039
Mof_C 	C 	0.1096	0.2706	0.904	0.279
Mof_C 	C 	0.1042	0.2556	0.785	-0.276
Mof_H 	H 	0.0972	0.2575	0.6601	0.134
Mof_C 	C 	0.1093	0.2378	0.852	0.18
Mof_H 	H 	0.1057	0.2278	0.7725	-0.015
Mof_C 	C 	0.1198	0.23504	0.037	-0.228
Mof_C 	C 	0.1252	0.2501	0.157	0.172
Mof_H 	H 	0.1322	0.2482	0.2815	-0.011
Mof_C 	C 	0.1201	0.2678	0.09	-0.281
Mof_H 	H 	0.1237	0.2778	0.1695	0.144
Mof_C 	C 	0.1247	0.21701	0.119	0.402
Mof_C 	C 	0.087	0.32352	0.805	0.002
Mof_H 	H 	0.1047	0.3215	0.9038	0.046
Mof_H 	H 	0.0633	0.3209	0.8541	0.051
Mof_C 	C 	0.0948	0.3543	0.894	0.228
Mof_C 	C 	0.0887	0.3516	0.084	-0.23
Mof_H 	H 	0.0797	0.3403	0.1256	0.112
Mof_C 	C 	0.0957	0.3653	0.213	0.129
Mof_H 	H 	0.0914	0.3633	0.3406	0.007
Mof_C 	C 	0.1091	0.3821	0.152	-0.165
Mof_C 	C 	0.115	0.3848	0.961	0.132
Mof_H 	H 	0.1237	0.396	0.9187	0.008
Mof_C 	C 	0.1083	0.371	0.833	-0.23
Mof_H 	H 	0.1127	0.373	0.7055	0.147
Mof_C 	C 	0.1152	0.39856	0.276	0.334
Mof_C 	C 	0.136	0.3148	0.572	0.071
Mof_H 	H 	0.1505	0.3072	0.6544	0.026
Mof_H 	H 	0.1424	0.3275	0.5955	0.03
Mof_C 	C 	0.1793	0.3116	0.331	0.274
Mof_C 	C 	0.2061	0.3193	0.438	-0.264
Mof_H 	H 	0.2008	0.324	0.5571	0.132
Mof_C 	C 	0.2407	0.3199	0.372	0.145
Mof_H 	H 	0.2586	0.3251	0.446	0.001
Mof_C 	C 	0.249	0.3128	0.196	-0.165
Mof_C 	C 	0.222	0.3051	0.088	0.138
Mof_H 	H 	0.2273	0.3003	0.9693	0.001
Mof_C 	C 	0.1876	0.3045	0.154	-0.26
Mof_H 	H 	0.1696	0.2994	0.0795	0.136
Mof_C 	C 	0.2868	0.3131	0.136	0.302
Mof_O 	O 	0.03583	0.31472	0.5172	-0.246
Mof_O 	O 	0.8884	0.31743	0.0626	-0.325
Mof_O 	O 	0.9272	0.31945	0.8333	-0.271
Mof_O 	O 	0.1055	0.28929	0.855	-0.254
Mof_O 	O 	0.1327	0.21529	0.2829	-0.295
Mof_O 	O 	0.1239	0.20312	0.0145	-0.326
Mof_O 	O 	0.0894	0.34172	0.7278	-0.206
Mof_O 	O 	0.1166	0.3966	0.456	-0.266
Mof_O 	O 	0.1163	0.41441	0.2062	-0.309
Mof_O 	O 	0.1438	0.31083	0.3974	-0.264
Mof_O 	O 	0.3097	0.31752	0.2711	-0.27
Mof_O 	O 	0.2946	0.31137	0.9545	-0.276
Mof_Cd	Cd	0.84256	0.31273	0.28402	0.447
Mof_Cd	Cd	0.86856	0.81951	0.24306	0.491
Mof_C 	C 	0.0954	0.81193	0.125	0.001
Mof_C 	C 	0.0719	0.81366	0.9476	0.03
Mof_H 	H 	0.0748	0.803	0.8662	0.034
Mof_H 	H 	0.078	0.8247	0.8768	0.039
Mof_C 	C 	0.0097	0.81633	0.8875	0.289
Mof_C 	C 	0.0148	0.819	0.695	-0.265
Mof_H 	H 	0.0379	0.8198	0.6467	0.125
Mof_C 	C 	0.9856	0.8205	0.576	0.146
Mof_H 	H 	0.9891	0.8223	0.447	0.001
Mof_C 	C 	0.9513	0.81943	0.6468	-0.168
Mof_C 	C 	0.9461	0.81668	0.8397	0.139
Mof_H 	H 	0.923	0.8159	0.8883	0.015
Mof_C 	C 	0.9755	0.8151	0.9597	-0.256
Mof_H 	H 	0.972	0.8132	0.0885	0.154
Mof_C 	C 	0.9189	0.81798	0.5138	0.351
Mof_C 	C 	0.0875	0.791	0.189	0.04
Mof_H 	H 	0.0963	0.7824	0.0954	0.022
Mof_H 	H 	0.062	0.7891	0.2067	0.038
Mof_C 	C 	0.1096	0.7706	0.404	0.267
Mof_C 	C 	0.1042	0.7556	0.285	-0.265
Mof_H 	H 	0.0972	0.7575	0.1601	0.129
Mof_C 	C 	0.1093	0.7378	0.352	0.165
Mof_H 	H 	0.1057	0.7278	0.2725	-0.011
Mof_C 	C 	0.1198	0.73504	0.537	-0.214
Mof_C 	C 	0.1252	0.7501	0.657	0.161
Mof_H 	H 	0.1322	0.7482	0.7815	-0.007
Mof_C 	C 	0.1201	0.7678	0.59	-0.266
Mof_H 	H 	0.1237	0.7778	0.6695	0.14
Mof_C 	C 	0.1247	0.71701	0.619	0.396
Mof_C 	C 	0.087	0.82352	0.305	0.003
Mof_H 	H 	0.1047	0.8215	0.4038	0.045
Mof_H 	H 	0.0633	0.8209	0.3541	0.05
Mof_C 	C 	0.0948	0.8543	0.394	0.221
Mof_C 	C 	0.0887	0.8516	0.584	-0.221
Mof_H 	H 	0.0797	0.8403	0.6256	0.109
Mof_C 	C 	0.0957	0.8653	0.713	0.122
Mof_H 	H 	0.0914	0.8633	0.8406	0.009
Mof_C 	C 	0.1091	0.8821	0.652	-0.158
Mof_C 	C 	0.115	0.8848	0.461	0.123
Mof_H 	H 	0.1237	0.896	0.4187	0.011
Mof_C 	C 	0.1083	0.871	0.333	-0.223
Mof_H 	H 	0.1127	0.873	0.2055	0.145
Mof_C 	C 	0.1152	0.89856	0.776	0.332
Mof_C 	C 	0.136	0.8148	0.072	0.07
Mof_H 	H 	0.1505	0.8072	0.1544	0.025
Mof_H 	H 	0.1424	0.8275	0.0955	0.03
Mof_C 	C 	0.1793	0.8116	0.831	0.278
Mof_C 	C 	0.2061	0.8193	0.938	-0.265
Mof_H 	H 	0.2008	0.824	0.0571	0.131
Mof_C 	C 	0.2407	0.8199	0.872	0.149
Mof_H 	H 	0.2586	0.8251	0.946	0
Mof_C 	C 	0.249	0.8128	0.696	-0.171
Mof_C 	C 	0.222	0.8051	0.588	0.152
Mof_H 	H 	0.2273	0.8003	0.4693	-0.007
Mof_C 	C 	0.1876	0.8045	0.654	-0.268
Mof_H 	H 	0.1696	0.7994	0.5795	0.14
Mof_C 	C 	0.2868	0.8131	0.636	0.308
Mof_O 	O 	0.03583	0.81472	0.0172	-0.249
Mof_O 	O 	0.8884	0.81743	0.5626	-0.325
Mof_O 	O 	0.9272	0.81945	0.3333	-0.274
Mof_O 	O 	0.1055	0.78929	0.355	-0.252
Mof_O 	O 	0.1327	0.71529	0.7829	-0.293
Mof_O 	O 	0.1239	0.70312	0.5145	-0.323
Mof_O 	O 	0.0894	0.84172	0.2278	-0.205
Mof_O 	O 	0.1166	0.8966	0.956	-0.268
Mof_O 	O 	0.1163	0.91441	0.7062	-0.308
Mof_O 	O 	0.1438	0.81083	0.8974	-0.263
Mof_O 	O 	0.3097	0.81752	0.7711	-0.27
Mof_O 	O 	0.2946	0.81137	0.4545	-0.28
Mof_Cd	Cd	0.84256	0.81273	0.78402	0.45
Mof_Cd	Cd	0.36856	0.31951	0.24306	0.491
Mof_C 	C 	0.5954	0.31193	0.125	0.001
Mof_C 	C 	0.5719	0.31366	0.9476	0.03
Mof_H 	H 	0.5748	0.303	0.8662	0.034
Mof_H 	H 	0.578	0.3247	0.8768	0.039
Mof_C 	C 	0.5097	0.31633	0.8875	0.289
Mof_C 	C 	0.5148	0.319	0.695	-0.265
Mof_H 	H 	0.5379	0.3198	0.6467	0.125
Mof_C 	C 	0.4856	0.3205	0.576	0.146
Mof_H 	H 	0.4891	0.3223	0.447	0.001
Mof_C 	C 	0.4513	0.31943	0.6468	-0.168
Mof_C 	C 	0.4461	0.31668	0.8397	0.139
Mof_H 	H 	0.423	0.3159	0.8883	0.015
Mof_C 	C 	0.4755	0.3151	0.9597	-0.256
Mof_H 	H 	0.472	0.3132	0.0885	0.154
Mof_C 	C 	0.4189	0.31798	0.5138	0.351
Mof_C 	C 	0.5875	0.291	0.189	0.04
Mof_H 	H 	0.5963	0.2824	0.0954	0.022
Mof_H 	H 	0.562	0.2891	0.2067	0.038
Mof_C 	C 	0.6096	0.2706	0.404	0.267
Mof_C 	C 	0.6042	0.2556	0.285	-0.265
Mof_H 	H 	0.5972	0.2575	0.1601	0.129
Mof_C 	C 	0.6093	0.2378	0.352	0.165
Mof_H 	H 	0.6057	0.2278	0.2725	-0.011
Mof_C 	C 	0.6198	0.23504	0.537	-0.214
Mof_C 	C 	0.6252	0.2501	0.657	0.161
Mof_H 	H 	0.6322	0.2482	0.7815	-0.007
Mof_C 	C 	0.6201	0.2678	0.59	-0.266
Mof_H 	H 	0.6237	0.2778	0.6695	0.14
Mof_C 	C 	0.6247	0.21701	0.619	0.396
Mof_C 	C 	0.587	0.32352	0.305	0.003
Mof_H 	H 	0.6047	0.3215	0.4038	0.045
Mof_H 	H 	0.5633	0.3209	0.3541	0.05
Mof_C 	C 	0.5948	0.3543	0.394	0.221
Mof_C 	C 	0.5887	0.3516	0.584	-0.221
Mof_H 	H 	0.5797	0.3403	0.6256	0.109
Mof_C 	C 	0.5957	0.3653	0.713	0.122
Mof_H 	H 	0.5914	0.3633	0.8406	0.009
Mof_C 	C 	0.6091	0.3821	0.652	-0.158
Mof_C 	C 	0.615	0.3848	0.461	0.123
Mof_H 	H 	0.6237	0.396	0.4187	0.011
Mof_C 	C 	0.6083	0.371	0.333	-0.223
Mof_H 	H 	0.6127	0.373	0.2055	0.145
Mof_C 	C 	0.6152	0.39856	0.776	0.332
Mof_C 	C 	0.636	0.3148	0.072	0.07
Mof_H 	H 	0.6505	0.3072	0.1544	0.025
Mof_H 	H 	0.6424	0.3275	0.0955	0.03
Mof_C 	C 	0.6793	0.3116	0.831	0.278
Mof_C 	C 	0.7061	0.3193	0.938	-0.265
Mof_H 	H 	0.7008	0.324	0.0571	0.131
Mof_C 	C 	0.7407	0.3199	0.872	0.149
Mof_H 	H 	0.7586	0.3251	0.946	0
Mof_C 	C 	0.749	0.3128	0.696	-0.171
Mof_C 	C 	0.722	0.3051	0.588	0.152
Mof_H 	H 	0.7273	0.3003	0.4693	-0.007
Mof_C 	C 	0.6876	0.3045	0.654	-0.268
Mof_H 	H 	0.6696	0.2994	0.5795	0.14
Mof_C 	C 	0.7868	0.3131	0.636	0.308
Mof_O 	O 	0.53583	0.31472	0.0172	-0.249
Mof_O 	O 	0.3884	0.31743	0.5626	-0.325
Mof_O 	O 	0.4272	0.31945	0.3333	-0.274
Mof_O 	O 	0.6055	0.28929	0.355	-0.252
Mof_O 	O 	0.6327	0.21529	0.7829	-0.293
Mof_O 	O 	0.6239	0.20312	0.5145	-0.323
Mof_O 	O 	0.5894	0.34172	0.2278	-0.205
Mof_O 	O 	0.6166	0.3966	0.956	-0.268
Mof_O 	O 	0.6163	0.41441	0.7062	-0.308
Mof_O 	O 	0.6438	0.31083	0.8974	-0.263
Mof_O 	O 	0.8097	0.31752	0.7711	-0.27
Mof_O 	O 	0.7946	0.31137	0.4545	-0.28
Mof_Cd	Cd	0.34256	0.31273	0.78402	0.45
Mof_Cd	Cd	0.36856	0.81951	0.74306	0.493
Mof_C 	C 	0.5954	0.81193	0.625	0.002
Mof_C 	C 	0.5719	0.81366	0.4476	0.027
Mof_H 	H 	0.5748	0.803	0.3662	0.034
Mof_H 	H 	0.578	0.8247	0.3768	0.04
Mof_C 	C 	0.5097	0.81633	0.3875	0.285
Mof_C 	C 	0.5148	0.819	0.195	-0.258
Mof_H 	H 	0.5379	0.8198	0.1467	0.122
Mof_C 	C 	0.4856	0.8205	0.076	0.134
Mof_H 	H 	0.4891	0.8223	0.947	0.007
Mof_C 	C 	0.4513	0.81943	0.1468	-0.163
Mof_C 	C 	0.4461	0.81668	0.3397	0.136
Mof_H 	H 	0.423	0.8159	0.3883	0.015
Mof_C 	C 	0.4755	0.8151	0.4597	-0.255
Mof_H 	H 	0.472	0.8132	0.5885	0.155
Mof_C 	C 	0.4189	0.81798	0.0138	0.345
Mof_C 	C 	0.5875	0.791	0.689	0.04
Mof_H 	H 	0.5963	0.7824	0.5954	0.023
Mof_H 	H 	0.562	0.7891	0.7067	0.039
Mof_C 	C 	0.6096	0.7706	0.904	0.279
Mof_C 	C 	0.6042	0.7556	0.785	-0.276
Mof_H 	H 	0.5972	0.7575	0.6601	0.134
Mof_C 	C 	0.6093	0.7378	0.852	0.18
Mof_H 	H 	0.6057	0.7278	0.7725	-0.015
Mof_C 	C 	0.6198	0.73504	0.037	-0.228
Mof_C 	C 	0.6252	0.7501	0.157	0.172
Mof_H 	H 	0.6322	0.7482	0.2815	-0.011
Mof_C 	C 	0.6201	0.7678	0.09	-0.281
Mof_H 	H 	0.6237	0.7778	0.1695	0.144
Mof_C 	C 	0.6247	0.71701	0.119	0.402
Mof_C 	C 	0.587	0.82352	0.805	0.002
Mof_H 	H 	0.6047	0.8215	0.9038	0.046
Mof_H 	H 	0.5633	0.8209	0.8541	0.051
Mof_C 	C 	0.5948	0.8543	0.894	0.228
Mof_C 	C 	0.5887	0.8516	0.084	-0.23
Mof_H 	H 	0.5797	0.8403	0.1256	0.112
Mof_C 	C 	0.5957	0.8653	0.213	0.129
Mof_H 	H 	0.5914	0.8633	0.3406	0.007
Mof_C 	C 	0.6091	0.8821	0.152	-0.165
Mof_C 	C 	0.615	0.8848	0.961	0.132
Mof_H 	H 	0.6237	0.896	0.9187	0.008
Mof_C 	C 	0.6083	0.871	0.833	-0.23
Mof_H 	H 	0.6127	0.873	0.7055	0.147
Mof_C 	C 	0.6152	0.89856	0.276	0.334
Mof_C 	C 	0.636	0.8148	0.572	0.071
Mof_H 	H 	0.6505	0.8072	0.6544	0.026
Mof_H 	H 	0.6424	0.8275	0.5955	0.03
Mof_C 	C 	0.6793	0.8116	0.331	0.274
Mof_C 	C 	0.7061	0.8193	0.438	-0.264
Mof_H 	H 	0.7008	0.824	0.5571	0.132
Mof_C 	C 	0.7407	0.8199	0.372	0.145
Mof_H 	H 	0.7586	0.8251	0.446	0.001
Mof_C 	C 	0.749	0.8128	0.196	-0.165
Mof_C 	C 	0.722	0.8051	0.088	0.138
Mof_H 	H 	0.7273	0.8003	0.9693	0.001
Mof_C 	C 	0.6876	0.8045	0.154	-0.26
Mof_H 	H 	0.6696	0.7994	0.0795	0.136
Mof_C 	C 	0.7868	0.8131	0.136	0.302
Mof_O 	O 	0.53583	0.81472	0.5172	-0.246
Mof_O 	O 	0.3884	0.81743	0.0626	-0.325
Mof_O 	O 	0.4272	0.81945	0.8333	-0.271
Mof_O 	O 	0.6055	0.78929	0.855	-0.254
Mof_O 	O 	0.6327	0.71529	0.2829	-0.295
Mof_O 	O 	0.6239	0.70312	0.0145	-0.326
Mof_O 	O 	0.5894	0.84172	0.7278	-0.206
Mof_O 	O 	0.6166	0.8966	0.456	-0.266
Mof_O 	O 	0.6163	0.91441	0.2062	-0.309
Mof_O 	O 	0.6438	0.81083	0.3974	-0.264
Mof_O 	O 	0.8097	0.81752	0.2711	-0.27
Mof_O 	O 	0.7946	0.81137	0.9545	-0.276
Mof_Cd	Cd	0.34256	0.81273	0.28402	0.447
_end
