data_functionalizedCrystal
_audit_creation_method	'EQeq! by Chris Wilmer'
_symmetry_space_group_name_H-M	'P1'
_symmetry_Int_Tables_number	1
_symmetry_cell_setting	triclinic
loop_
_symmetry_equiv_pos_as_xyz
  x,y,z
_cell_length_a	12.2618
_cell_length_b	25.7328
_cell_length_c	25.7328
_cell_angle_alpha	62.4736
_cell_angle_beta	80.8607
_cell_angle_gamma	99.1393
loop_
_atom_site_label
_atom_site_type_symbol
_atom_site_fract_x
_atom_site_fract_y
_atom_site_fract_z
_atom_site_charge
Mof_Cu	Cu	0.59513	0.54069	0.45931	0.906
Mof_Cu	Cu	0.05444	0.45931	-0	0.886
Mof_Cu	Cu	0.05444	0	0.54069	0.887
Mof_Cu	Cu	0.94556	0	0.45931	0.886
Mof_Cu	Cu	0.94556	0.54069	-0	0.887
Mof_Cu	Cu	0.40487	0.45931	0.54069	0.907
Mof_H 	H 	0.4838	0.43085	0.7049	0.046
Mof_H 	H 	0.79192	0.55983	0.57239	0.041
Mof_H 	H 	0.18869	0.7049	0.86426	0.052
Mof_H 	H 	0.36564	0.57263	0.86731	0.046
Mof_H 	H 	0.05295	0.86425	0.43085	0.049
Mof_H 	H 	0.23295	0.86731	0.56007	0.046
Mof_H 	H 	0.81131	0.86426	0.7049	0.052
Mof_H 	H 	0.63569	0.86778	0.57239	0.046
Mof_H 	H 	0.94705	0.43085	0.86425	0.049
Mof_H 	H 	0.76705	0.56007	0.86731	0.046
Mof_H 	H 	0.5162	0.7049	0.43085	0.046
Mof_H 	H 	0.20699	0.57263	0.56007	0.041
Mof_H 	H 	0.5162	0.56915	0.2951	0.044
Mof_H 	H 	0.20699	0.43993	0.42737	0.041
Mof_H 	H 	0.81131	0.2951	0.13574	0.038
Mof_H 	H 	0.63569	0.42761	0.13222	0.037
Mof_H 	H 	0.94705	0.13575	0.56915	0.041
Mof_H 	H 	0.76705	0.13269	0.43993	0.036
Mof_H 	H 	0.18869	0.13574	0.2951	0.038
Mof_H 	H 	0.36564	0.13269	0.42737	0.036
Mof_H 	H 	0.05295	0.56915	0.13575	0.041
Mof_H 	H 	0.23295	0.43993	0.13269	0.036
Mof_H 	H 	0.4838	0.2951	0.56915	0.044
Mof_H 	H 	0.79301	0.42737	0.43993	0.041
Mof_C 	C 	0.63286	0.49707	0.63394	-0.105
Mof_C 	C 	0.57286	0.46143	0.69265	0.034
Mof_C 	C 	0.61569	0.46027	0.74	-0.05
Mof_C 	C 	0.72349	0.49457	0.72795	0.026
Mof_C 	C 	0.78464	0.52979	0.66867	-0.06
Mof_C 	C 	0.73874	0.5305	0.62168	0.034
Mof_C 	C 	0.58328	0.49731	0.58369	0.374
Mof_C 	C 	0.5601	0.4139	0.8016	0.094
Mof_C 	C 	0.2668	0.63394	0.86899	-0.099
Mof_C 	C 	0.26551	0.69265	0.84592	0.034
Mof_C 	C 	0.35569	0.74	0.79973	-0.047
Mof_C 	C 	0.45144	0.72795	0.77748	0.026
Mof_C 	C 	0.45331	0.66867	0.80154	-0.058
Mof_C 	C 	0.36042	0.62168	0.84782	0.034
Mof_C 	C 	0.16697	0.58369	0.919	0.371
Mof_C 	C 	0.3617	0.8016	0.7845	0.1
Mof_C 	C 	0.13579	0.86899	0.49707	-0.099
Mof_C 	C 	0.11143	0.84592	0.46143	0.033
Mof_C 	C 	0.15542	0.79973	0.46027	-0.048
Mof_C 	C 	0.22892	0.77748	0.49457	0.026
Mof_C 	C 	0.25485	0.80154	0.52979	-0.057
Mof_C 	C 	0.20824	0.84782	0.5305	0.034
Mof_C 	C 	0.08597	0.919	0.49731	0.37
Mof_C 	C 	0.1462	0.7845	0.4139	0.094
Mof_C 	C 	0.7332	0.86899	0.63394	-0.099
Mof_C 	C 	0.73449	0.84592	0.69265	0.034
Mof_C 	C 	0.64431	0.79973	0.74	-0.047
Mof_C 	C 	0.54856	0.77748	0.72795	0.026
Mof_C 	C 	0.54669	0.80154	0.66867	-0.057
Mof_C 	C 	0.63958	0.84782	0.62168	0.034
Mof_C 	C 	0.83303	0.919	0.58369	0.371
Mof_C 	C 	0.6383	0.7845	0.8016	0.1
Mof_C 	C 	0.86421	0.49707	0.86899	-0.099
Mof_C 	C 	0.88857	0.46143	0.84592	0.033
Mof_C 	C 	0.84458	0.46027	0.79973	-0.048
Mof_C 	C 	0.77108	0.49457	0.77748	0.026
Mof_C 	C 	0.74515	0.52979	0.80154	-0.057
Mof_C 	C 	0.79176	0.5305	0.84782	0.034
Mof_C 	C 	0.91403	0.49731	0.919	0.37
Mof_C 	C 	0.8538	0.4139	0.7845	0.094
Mof_C 	C 	0.36714	0.63394	0.49707	-0.106
Mof_C 	C 	0.42714	0.69265	0.46143	0.034
Mof_C 	C 	0.38431	0.74	0.46027	-0.05
Mof_C 	C 	0.27651	0.72795	0.49457	0.026
Mof_C 	C 	0.21536	0.66867	0.52979	-0.06
Mof_C 	C 	0.26126	0.62168	0.5305	0.034
Mof_C 	C 	0.41672	0.58369	0.49731	0.374
Mof_C 	C 	0.4399	0.8016	0.4139	0.094
Mof_C 	C 	0.36714	0.50293	0.36606	-0.106
Mof_C 	C 	0.42714	0.53857	0.30735	0.033
Mof_C 	C 	0.38431	0.53973	0.26	-0.051
Mof_C 	C 	0.27651	0.50543	0.27205	0.025
Mof_C 	C 	0.21536	0.47021	0.33133	-0.06
Mof_C 	C 	0.26126	0.4695	0.37832	0.034
Mof_C 	C 	0.41672	0.50269	0.41631	0.374
Mof_C 	C 	0.4399	0.5861	0.1984	0.09
Mof_C 	C 	0.7332	0.36606	0.13101	-0.111
Mof_C 	C 	0.73449	0.30735	0.15408	0.032
Mof_C 	C 	0.64431	0.26	0.20027	-0.052
Mof_C 	C 	0.54856	0.27205	0.22252	0.025
Mof_C 	C 	0.54669	0.33133	0.19846	-0.062
Mof_C 	C 	0.63958	0.37832	0.15218	0.032
Mof_C 	C 	0.83303	0.41631	0.081	0.374
Mof_C 	C 	0.6383	0.1984	0.2155	0.085
Mof_C 	C 	0.86421	0.13101	0.50293	-0.11
Mof_C 	C 	0.88857	0.15408	0.53857	0.033
Mof_C 	C 	0.84458	0.20027	0.53973	-0.051
Mof_C 	C 	0.77108	0.22252	0.50543	0.026
Mof_C 	C 	0.74515	0.19846	0.47021	-0.062
Mof_C 	C 	0.79176	0.15218	0.4695	0.033
Mof_C 	C 	0.91403	0.081	0.50269	0.374
Mof_C 	C 	0.8538	0.2155	0.5861	0.09
Mof_C 	C 	0.2668	0.13101	0.36606	-0.111
Mof_C 	C 	0.26551	0.15408	0.30735	0.032
Mof_C 	C 	0.35569	0.20027	0.26	-0.053
Mof_C 	C 	0.45144	0.22252	0.27205	0.025
Mof_C 	C 	0.45331	0.19846	0.33133	-0.062
Mof_C 	C 	0.36042	0.15218	0.37832	0.033
Mof_C 	C 	0.16697	0.081	0.41631	0.374
Mof_C 	C 	0.3617	0.2155	0.1984	0.085
Mof_C 	C 	0.13579	0.50293	0.13101	-0.11
Mof_C 	C 	0.11143	0.53857	0.15408	0.033
Mof_C 	C 	0.15542	0.53973	0.20027	-0.051
Mof_C 	C 	0.22892	0.50543	0.22252	0.026
Mof_C 	C 	0.25485	0.47021	0.19846	-0.062
Mof_C 	C 	0.20824	0.4695	0.15218	0.033
Mof_C 	C 	0.08597	0.50269	0.081	0.374
Mof_C 	C 	0.1462	0.5861	0.2155	0.09
Mof_C 	C 	0.63286	0.36606	0.50293	-0.106
Mof_C 	C 	0.57286	0.30735	0.53857	0.033
Mof_C 	C 	0.61569	0.26	0.53973	-0.051
Mof_C 	C 	0.72349	0.27205	0.50543	0.025
Mof_C 	C 	0.78464	0.33133	0.47021	-0.06
Mof_C 	C 	0.73874	0.37832	0.4695	0.034
Mof_C 	C 	0.58328	0.41631	0.50269	0.374
Mof_C 	C 	0.5601	0.1984	0.5861	0.09
Mof_N 	N 	0.5112	0.3786	0.853	-0.104
Mof_N 	N 	0.3642	0.853	0.7684	-0.098
Mof_N 	N 	0.1326	0.7684	0.3786	-0.108
Mof_N 	N 	0.6358	0.7684	0.853	-0.098
Mof_N 	N 	0.8674	0.3786	0.7684	-0.108
Mof_N 	N 	0.4888	0.853	0.3786	-0.104
Mof_N 	N 	0.4888	0.6214	0.147	-0.115
Mof_N 	N 	0.6358	0.147	0.2316	-0.12
Mof_N 	N 	0.8674	0.2316	0.6214	-0.11
Mof_N 	N 	0.3642	0.2316	0.147	-0.12
Mof_N 	N 	0.1326	0.6214	0.2316	-0.11
Mof_N 	N 	0.5112	0.147	0.6214	-0.115
Mof_O 	O 	0.64543	0.53164	0.53093	-0.411
Mof_O 	O 	0.48517	0.46333	0.59954	-0.409
Mof_O 	O 	0.17636	0.53093	0.93743	-0.39
Mof_O 	O 	0.08471	0.59954	0.93713	-0.388
Mof_O 	O 	0.11379	0.93743	0.53164	-0.389
Mof_O 	O 	0.02184	0.93713	0.46333	-0.389
Mof_O 	O 	0.82364	0.93743	0.53093	-0.39
Mof_O 	O 	0.91529	0.93713	0.59954	-0.388
Mof_O 	O 	0.88621	0.53164	0.93743	-0.389
Mof_O 	O 	0.97816	0.46333	0.93713	-0.389
Mof_O 	O 	0.35457	0.53093	0.53164	-0.411
Mof_O 	O 	0.51483	0.59954	0.46333	-0.409
Mof_O 	O 	0.35457	0.46836	0.46907	-0.411
Mof_O 	O 	0.51483	0.53667	0.40046	-0.41
Mof_O 	O 	0.82364	0.46907	0.06257	-0.422
Mof_O 	O 	0.91529	0.40046	0.06287	-0.421
Mof_O 	O 	0.88621	0.06257	0.46836	-0.422
Mof_O 	O 	0.97816	0.06287	0.53667	-0.42
Mof_O 	O 	0.17636	0.06257	0.46907	-0.422
Mof_O 	O 	0.08471	0.06287	0.40046	-0.421
Mof_O 	O 	0.11379	0.46836	0.06257	-0.422
Mof_O 	O 	0.02184	0.53667	0.06287	-0.42
Mof_O 	O 	0.64543	0.46907	0.46836	-0.411
Mof_O 	O 	0.48517	0.40046	0.53667	-0.41
Mof_H 	H 	0.87471	0.5594	0.6564	0.048
Mof_H 	H 	0.53111	0.6564	0.7842	0.049
Mof_H 	H 	0.31531	0.7842	0.5594	0.049
Mof_H 	H 	0.46889	0.7842	0.6564	0.049
Mof_H 	H 	0.68469	0.5594	0.7842	0.049
Mof_H 	H 	0.12529	0.6564	0.5594	0.048
Mof_H 	H 	0.12529	0.4406	0.3436	0.047
Mof_H 	H 	0.46889	0.3436	0.2158	0.046
Mof_H 	H 	0.68469	0.2158	0.4406	0.046
Mof_H 	H 	0.53111	0.2158	0.3436	0.046
Mof_H 	H 	0.31531	0.4406	0.2158	0.046
Mof_H 	H 	0.87471	0.3436	0.4406	0.047
_end
