# CIF file generated by openbabel 3.1.0, see https://openbabel.org
data_I
_chemical_name_common 'image0'
_cell_length_a 13.1676
_cell_length_b 13.1676
_cell_length_c 13.1676
_cell_angle_alpha 90
_cell_angle_beta 90
_cell_angle_gamma 90
_space_group_name_H-M_alt 'P 1'
_space_group_name_Hall 'P 1'
loop_
    _symmetry_equiv_pos_as_xyz
    x,y,z
loop_
    _atom_site_label
    _atom_site_type_symbol
    _atom_site_fract_x
    _atom_site_fract_y
    _atom_site_fract_z
    _atom_site_occupancy
    N1       N        0.63696    0.93517    0.95472    1.000
    N2       N        0.71536    0.97992    0.96006    1.000
    N3       N        0.79265    0.02143    0.96375    1.000
    N4       N        0.86304    0.06483    0.45472    1.000
    N5       N        0.78464    0.02008    0.46006    1.000
    N6       N        0.70735    0.97857    0.46375    1.000
    N7       N        0.36304    0.43517    0.54528    1.000
    N8       N        0.28464    0.47992    0.53994    1.000
    N9       N        0.20735    0.52143    0.53625    1.000
    N10      N        0.13696    0.56483    0.04528    1.000
    N11      N        0.21536    0.52008    0.03994    1.000
    N12      N        0.29265    0.47857    0.03625    1.000
    N13      N        0.95472    0.63696    0.93517    1.000
    N14      N        0.96006    0.71536    0.97992    1.000
    N15      N        0.96375    0.79265    0.02143    1.000
    N16      N        0.45472    0.86304    0.06483    1.000
    N17      N        0.46006    0.78464    0.02008    1.000
    N18      N        0.46375    0.70735    0.97857    1.000
    N19      N        0.54528    0.36304    0.43517    1.000
    N20      N        0.53994    0.28464    0.47992    1.000
    N21      N        0.53625    0.20735    0.52143    1.000
    N22      N        0.04528    0.13696    0.56483    1.000
    N23      N        0.03994    0.21536    0.52008    1.000
    N24      N        0.03625    0.29265    0.47857    1.000
    N25      N        0.93517    0.95472    0.63696    1.000
    N26      N        0.97992    0.96006    0.71536    1.000
    N27      N        0.02143    0.96375    0.79265    1.000
    N28      N        0.06483    0.45472    0.86304    1.000
    N29      N        0.02008    0.46006    0.78464    1.000
    N30      N        0.97857    0.46375    0.70735    1.000
    N31      N        0.43517    0.54528    0.36304    1.000
    N32      N        0.47992    0.53994    0.28464    1.000
    N33      N        0.52143    0.53625    0.20735    1.000
    N34      N        0.56483    0.04528    0.13696    1.000
    N35      N        0.52008    0.03994    0.21536    1.000
    N36      N        0.47857    0.03625    0.29265    1.000
    N37      N        0.36304    0.06483    0.04528    1.000
    N38      N        0.28464    0.02008    0.03994    1.000
    N39      N        0.20735    0.97857    0.03625    1.000
    N40      N        0.13696    0.93517    0.54528    1.000
    N41      N        0.21536    0.97992    0.53994    1.000
    N42      N        0.29265    0.02143    0.53625    1.000
    N43      N        0.63696    0.56483    0.45472    1.000
    N44      N        0.71536    0.52008    0.46006    1.000
    N45      N        0.79265    0.47857    0.46375    1.000
    N46      N        0.86304    0.43517    0.95472    1.000
    N47      N        0.78464    0.47992    0.96006    1.000
    N48      N        0.70735    0.52143    0.96375    1.000
    N49      N        0.04528    0.36304    0.06483    1.000
    N50      N        0.03994    0.28464    0.02008    1.000
    N51      N        0.03625    0.20735    0.97857    1.000
    N52      N        0.54528    0.13696    0.93517    1.000
    N53      N        0.53994    0.21536    0.97992    1.000
    N54      N        0.53625    0.29265    0.02143    1.000
    N55      N        0.45472    0.63696    0.56483    1.000
    N56      N        0.46006    0.71536    0.52008    1.000
    N57      N        0.46375    0.79265    0.47857    1.000
    N58      N        0.95472    0.86304    0.43517    1.000
    N59      N        0.96006    0.78464    0.47992    1.000
    N60      N        0.96375    0.70735    0.52143    1.000
    N61      N        0.06483    0.04528    0.36304    1.000
    N62      N        0.02008    0.03994    0.28464    1.000
    N63      N        0.97857    0.03625    0.20735    1.000
    N64      N        0.93517    0.54528    0.13696    1.000
    N65      N        0.97992    0.53994    0.21536    1.000
    N66      N        0.02143    0.53625    0.29265    1.000
    N67      N        0.56483    0.45472    0.63696    1.000
    N68      N        0.52008    0.46006    0.71536    1.000
    N69      N        0.47857    0.46375    0.79265    1.000
    N70      N        0.43517    0.95472    0.86304    1.000
    N71      N        0.47992    0.96006    0.78464    1.000
    N72      N        0.52143    0.96375    0.70735    1.000
    Fe1      Fe       0.50000    0.00000    0.00000    1.000
    Fe2      Fe       0.00000    0.00000    0.50000    1.000
    Fe3      Fe       0.50000    0.50000    0.50000    1.000
    Fe4      Fe       0.00000    0.50000    0.00000    1.000
    K1       K        0.00000    0.00000    0.00000    1.000
    K2       K        0.50000    0.00000    0.50000    1.000
    K3       K        0.00000    0.50000    0.50000    1.000
    K4       K        0.50000    0.50000    0.00000    1.000
