# CIF file generated by openbabel 3.1.0, see https://openbabel.org
data_I
_chemical_name_common 'image0'
_cell_length_a 10.3039
_cell_length_b 24.9425
_cell_length_c 11.574
_cell_angle_alpha 90
_cell_angle_beta 93.197
_cell_angle_gamma 90
_space_group_name_H-M_alt 'P 1'
_space_group_name_Hall 'P 1'
loop_
    _symmetry_equiv_pos_as_xyz
    x,y,z
loop_
    _atom_site_label
    _atom_site_type_symbol
    _atom_site_fract_x
    _atom_site_fract_y
    _atom_site_fract_z
    _atom_site_occupancy
    Zn1      Zn       0.56823    0.22009    0.41441    1.000
    Zn2      Zn       0.06993    0.14678    0.43502    1.000
    O1       O        0.76200    0.19164    0.41990    1.000
    O2       O        0.88390    0.11711    0.42720    1.000
    O3       O        0.26280    0.17874    0.44510    1.000
    O4       O        0.37960    0.25003    0.40050    1.000
    N1       N        0.63470    0.30147    0.43890    1.000
    N2       N        0.84850    0.56755    0.55480    1.000
    N3       N        0.06460    0.13940    0.23940    1.000
    N4       N        0.06630    0.14466    0.62570    1.000
    N5       N        0.53540    0.13638    0.40230    1.000
    H1       H        0.47460    0.12660    0.45370    1.000
    H2       H        0.50240    0.12810    0.32900    1.000
    N6       N        0.72760    0.90999    0.16810    1.000
    H3       H        0.65450    0.89250    0.14110    1.000
    H4       H        0.79320    0.88590    0.18090    1.000
    H5       H        0.75090    0.93450    0.11480    1.000
    N7       N        0.03750    0.23065    0.42420    1.000
    H6       H        0.96360    0.23730    0.37810    1.000
    H7       H        0.02500    0.24410    0.49680    1.000
    N8       N        0.18940    0.44545    0.22570    1.000
    H8       H        0.19850    0.41230    0.19420    1.000
    H9       H        0.26360    0.46460    0.21810    1.000
    H10      H        0.12140    0.46270    0.18840    1.000
    C1       C        0.57210    0.34315    0.39010    1.000
    H11      H        0.50060    0.33660    0.33650    1.000
    C2       C        0.60790    0.39617    0.41480    1.000
    H12      H        0.56050    0.42490    0.37900    1.000
    C3       C        0.71220    0.40660    0.49130    1.000
    C4       C        0.77850    0.36297    0.54170    1.000
    H13      H        0.85150    0.36840    0.59420    1.000
    C5       C        0.73600    0.31163    0.51390    1.000
    H14      H        0.78070    0.28210    0.54960    1.000
    C6       C        0.75580    0.55603    0.47300    1.000
    H15      H        0.71950    0.58470    0.42800    1.000
    C7       C        0.71060    0.50566    0.45030    1.000
    H16      H        0.64700    0.49980    0.38900    1.000
    C8       C        0.75750    0.46277    0.51680    1.000
    C9       C        0.84950    0.47439    0.60510    1.000
    H17      H        0.88230    0.44670    0.65490    1.000
    C10      C        0.89350    0.52661    0.62050    1.000
    H18      H        0.95830    0.53370    0.68010    1.000
    C11      C        0.17050    0.15080    0.18260    1.000
    H19      H        0.24860    0.15860    0.22690    1.000
    C12      C        0.17350    0.15210    0.06370    1.000
    H20      H        0.25120    0.16190    0.02860    1.000
    C13      C        0.06290    0.13896    0.99540    1.000
    C14      C        0.95550    0.12388    0.05400    1.000
    H21      H        0.87890    0.11210    0.01200    1.000
    C15      C        0.95890    0.12576    0.17230    1.000
    H22      H        0.88190    0.11690    0.20940    1.000
    C16      C        0.14140    0.17658    0.69340    1.000
    H23      H        0.19680    0.20110    0.65720    1.000
    C17      C        0.14370    0.17624    0.81180    1.000
    H24      H        0.19900    0.20010    0.85550    1.000
    C18      C        0.06320    0.14021    0.86790    1.000
    C19      C        0.98530    0.10713    0.79730    1.000
    H25      H        0.93000    0.08170    0.83060    1.000
    C20      C        0.98810    0.11110    0.68000    1.000
    H26      H        0.93130    0.08880    0.63390    1.000
    C21      C        0.77620    0.14177    0.42430    1.000
    C22      C        0.65700    0.10546    0.42780    1.000
    H27      H        0.65400    0.09220    0.50910    1.000
    C23      C        0.67040    0.05621    0.35120    1.000
    H28      H        0.66450    0.06800    0.26940    1.000
    H29      H        0.75830    0.04090    0.36700    1.000
    C24      C        0.57250    0.01250    0.36520    1.000
    H30      H        0.48400    0.02810    0.36160    1.000
    H31      H        0.58810    0.99540    0.44190    1.000
    C25      C        0.58180    0.96970    0.26920    1.000
    H32      H        0.50650    0.94520    0.27190    1.000
    H33      H        0.57650    0.98780    0.19290    1.000
    C26      C        0.70150    0.93830    0.28010    1.000
    H34      H        0.69450    0.91140    0.34230    1.000
    H35      H        0.77540    0.96220    0.30210    1.000
    C27      C        0.27380    0.22627    0.41160    1.000
    C28      C        0.15000    0.25806    0.37510    1.000
    H36      H        0.13780    0.25420    0.28920    1.000
    C29      C        0.16060    0.31792    0.39920    1.000
    H37      H        0.16130    0.32390    0.48380    1.000
    H38      H        0.24410    0.33120    0.37210    1.000
    C30      C        0.05070    0.34975    0.34100    1.000
    H39      H        0.96710    0.33320    0.35990    1.000
    H40      H        0.05720    0.34750    0.25610    1.000
    C31      C        0.04970    0.40914    0.37680    1.000
    H41      H        0.97260    0.42650    0.33800    1.000
    H42      H        0.03940    0.41100    0.46130    1.000
    C32      C        0.16450    0.44000    0.35040    1.000
    H43      H        0.24140    0.42300    0.39020    1.000
    H44      H        0.15610    0.47640    0.38340    1.000
    Zn3      Zn       0.43177    0.72009    0.58559    1.000
    Zn4      Zn       0.93007    0.64678    0.56498    1.000
    O5       O        0.23800    0.69164    0.58010    1.000
    O6       O        0.11610    0.61711    0.57280    1.000
    O7       O        0.73720    0.67874    0.55490    1.000
    O8       O        0.62040    0.75003    0.59950    1.000
    N9       N        0.36530    0.80147    0.56110    1.000
    N10      N        0.15150    0.06755    0.44520    1.000
    N11      N        0.93540    0.63940    0.76060    1.000
    N12      N        0.93370    0.64466    0.37430    1.000
    N13      N        0.46460    0.63638    0.59770    1.000
    H45      H        0.52540    0.62660    0.54630    1.000
    H46      H        0.49760    0.62810    0.67100    1.000
    N14      N        0.27240    0.40999    0.83190    1.000
    H47      H        0.34550    0.39250    0.85890    1.000
    H48      H        0.20680    0.38590    0.81910    1.000
    H49      H        0.24910    0.43450    0.88520    1.000
    N15      N        0.96250    0.73065    0.57580    1.000
    H50      H        0.03640    0.73730    0.62190    1.000
    H51      H        0.97500    0.74410    0.50320    1.000
    N16      N        0.81060    0.94545    0.77430    1.000
    H52      H        0.80150    0.91230    0.80580    1.000
    H53      H        0.73640    0.96460    0.78190    1.000
    H54      H        0.87860    0.96270    0.81160    1.000
    C33      C        0.42790    0.84315    0.60990    1.000
    H55      H        0.49940    0.83660    0.66350    1.000
    C34      C        0.39210    0.89617    0.58520    1.000
    H56      H        0.43950    0.92490    0.62100    1.000
    C35      C        0.28780    0.90660    0.50870    1.000
    C36      C        0.22150    0.86297    0.45830    1.000
    H57      H        0.14850    0.86840    0.40580    1.000
    C37      C        0.26400    0.81163    0.48610    1.000
    H58      H        0.21930    0.78210    0.45040    1.000
    C38      C        0.24420    0.05603    0.52700    1.000
    H59      H        0.28050    0.08470    0.57200    1.000
    C39      C        0.28940    0.00566    0.54970    1.000
    H60      H        0.35300    0.99980    0.61100    1.000
    C40      C        0.24250    0.96277    0.48320    1.000
    C41      C        0.15050    0.97439    0.39490    1.000
    H61      H        0.11770    0.94670    0.34510    1.000
    C42      C        0.10650    0.02661    0.37950    1.000
    H62      H        0.04170    0.03370    0.31990    1.000
    C43      C        0.82950    0.65080    0.81740    1.000
    H63      H        0.75140    0.65860    0.77310    1.000
    C44      C        0.82650    0.65210    0.93630    1.000
    H64      H        0.74880    0.66190    0.97140    1.000
    C45      C        0.93710    0.63896    0.00460    1.000
    C46      C        0.04450    0.62388    0.94600    1.000
    H65      H        0.12110    0.61210    0.98800    1.000
    C47      C        0.04110    0.62576    0.82770    1.000
    H66      H        0.11810    0.61690    0.79060    1.000
    C48      C        0.85860    0.67658    0.30660    1.000
    H67      H        0.80320    0.70110    0.34280    1.000
    C49      C        0.85630    0.67624    0.18820    1.000
    H68      H        0.80100    0.70010    0.14450    1.000
    C50      C        0.93680    0.64021    0.13210    1.000
    C51      C        0.01470    0.60713    0.20270    1.000
    H69      H        0.07000    0.58170    0.16940    1.000
    C52      C        0.01190    0.61110    0.32000    1.000
    H70      H        0.06870    0.58880    0.36610    1.000
    C53      C        0.22380    0.64177    0.57570    1.000
    C54      C        0.34300    0.60546    0.57220    1.000
    H71      H        0.34600    0.59220    0.49090    1.000
    C55      C        0.32960    0.55621    0.64880    1.000
    H72      H        0.33550    0.56800    0.73060    1.000
    H73      H        0.24170    0.54090    0.63300    1.000
    C56      C        0.42750    0.51250    0.63480    1.000
    H74      H        0.51600    0.52810    0.63840    1.000
    H75      H        0.41190    0.49540    0.55810    1.000
    C57      C        0.41820    0.46970    0.73080    1.000
    H76      H        0.49350    0.44520    0.72810    1.000
    H77      H        0.42350    0.48780    0.80710    1.000
    C58      C        0.29850    0.43830    0.71990    1.000
    H78      H        0.30550    0.41140    0.65770    1.000
    H79      H        0.22460    0.46220    0.69790    1.000
    C59      C        0.72620    0.72627    0.58840    1.000
    C60      C        0.85000    0.75806    0.62490    1.000
    H80      H        0.86220    0.75420    0.71080    1.000
    C61      C        0.83940    0.81792    0.60080    1.000
    H81      H        0.83870    0.82390    0.51620    1.000
    H82      H        0.75590    0.83120    0.62790    1.000
    C62      C        0.94930    0.84975    0.65900    1.000
    H83      H        0.03290    0.83320    0.64010    1.000
    H84      H        0.94280    0.84750    0.74390    1.000
    C63      C        0.95030    0.90914    0.62320    1.000
    H85      H        0.02740    0.92650    0.66200    1.000
    H86      H        0.96060    0.91100    0.53870    1.000
    C64      C        0.83550    0.94000    0.64960    1.000
    H87      H        0.75860    0.92300    0.60980    1.000
    H88      H        0.84390    0.97640    0.61660    1.000
