data_functionalizedCrystal
_audit_creation_method	'EQeq! by Chris Wilmer'
_symmetry_space_group_name_H-M	'P1'
_symmetry_Int_Tables_number	1
_symmetry_cell_setting	triclinic
loop_
_symmetry_equiv_pos_as_xyz
  x,y,z
_cell_length_a	46.64
_cell_length_b	12.447
_cell_length_c	31.37
_cell_angle_alpha	90
_cell_angle_beta	131.263
_cell_angle_gamma	90
loop_
_atom_site_label
_atom_site_type_symbol
_atom_site_fract_x
_atom_site_fract_y
_atom_site_fract_z
_atom_site_charge
Mof_Cd	Cd	0.37754	0.62607	0.39546	0.424
Mof_Cd	Cd	0.08689	0.46801	0.07084	0.426
Mof_Cd	Cd	0.13959	0.80489	0.1208	0.45
Mof_C 	C 	0.058	0.4467	0.945	0.068
Mof_H 	H 	0.0349	0.4591	0.9361	0.013
Mof_C 	C 	0.1253	0.429	0.2033	0.078
Mof_H 	H 	0.1468	0.4158	0.2078	0.021
Mof_C 	C 	0.3461	0.6515	0.2699	0.079
Mof_H 	H 	0.329	0.6964	0.2672	-0.001
Mof_C 	C 	0.1615	0.5495	0.1432	0.418
Mof_C 	C 	0.4382	0.4024	0.4715	0.387
Mof_C 	C 	0.0581	0.43	0.9002	-0.14
Mof_H 	H 	0.0354	0.4347	0.8627	0.075
Mof_C 	C 	0.128	0.4126	0.2513	-0.149
Mof_H 	H 	0.1509	0.3934	0.2866	0.093
Mof_C 	C 	0.3404	0.632	0.2214	-0.155
Mof_H 	H 	0.3205	0.666	0.1877	0.083
Mof_C 	C 	0.2034	0.5794	0.1868	-0.499
Mof_H 	H 	0.2061	0.6373	0.2099	0.188
Mof_H 	H 	0.2111	0.6074	0.1668	0.184
Mof_C 	C 	0.474	0.4138	0.5326	-0.434
Mof_H 	H 	0.4669	0.4178	0.5556	0.162
Mof_H 	H 	0.4863	0.481	0.5372	0.157
Mof_C 	C 	0.0928	0.4072	0.9127	0.089
Mof_C 	C 	0.0954	0.4262	0.243	0.116
Mof_C 	C 	0.3644	0.5612	0.2225	0.104
Mof_C 	C 	0.2315	0.4896	0.2268	0.279
Mof_H 	H 	0.2232	0.4574	0.2452	-0.041
Mof_H 	H 	0.231	0.4343	0.2046	-0.04
Mof_C 	C 	0.5041	0.3179	0.5561	0.201
Mof_H 	H 	0.5255	0.3286	0.5962	-0.028
Mof_H 	H 	0.4921	0.2501	0.5516	-0.013
Mof_C 	C 	0.1269	0.4015	0.9705	-0.132
Mof_H 	H 	0.1504	0.3869	0.9811	0.088
Mof_C 	C 	0.0627	0.4607	0.1914	-0.164
Mof_H 	H 	0.0406	0.4712	0.1856	0.085
Mof_C 	C 	0.3956	0.5179	0.2749	-0.152
Mof_H 	H 	0.4133	0.4748	0.2782	0.093
Mof_C 	C 	0.2721	0.53	0.2718	-0.497
Mof_H 	H 	0.2806	0.5594	0.2531	0.178
Mof_H 	H 	0.2721	0.5881	0.2924	0.178
Mof_C 	C 	0.5187	0.3137	0.5235	-0.464
Mof_H 	H 	0.4969	0.3108	0.4831	0.179
Mof_H 	H 	0.5326	0.3793	0.531	0.178
Mof_C 	C 	0.123	0.4195	0.0115	0.071
Mof_H 	H 	0.1449	0.4131	0.0495	0.021
Mof_C 	C 	0.0628	0.4802	0.1471	0.088
Mof_H 	H 	0.0407	0.5065	0.1128	0.012
Mof_C 	C 	0.3994	0.5403	0.3207	0.084
Mof_H 	H 	0.4196	0.5079	0.3548	0.01
Mof_C 	C 	0.3003	0.4465	0.3137	0.389
Mof_C 	C 	0.5437	0.2205	0.5393	0.395
Mof_C 	C 	0.092	0.385	0.8665	-0.031
Mof_H 	H 	0.0693	0.3928	0.8292	0.051
Mof_C 	C 	0.0937	0.4058	0.2881	-0.04
Mof_H 	H 	0.0736	0.4306	0.2849	0.058
Mof_C 	C 	0.3579	0.5381	0.1705	-0.035
Mof_H 	H 	0.3371	0.5691	0.1364	0.055
Mof_C 	C 	0.1462	0.3017	0.8351	-0.043
Mof_H 	H 	0.1695	0.296	0.872	0.06
Mof_C 	C 	0.144	0.283	0.4163	-0.038
Mof_H 	H 	0.1646	0.2601	0.4201	0.056
Mof_C 	C 	0.3946	0.4176	0.1211	-0.043
Mof_H 	H 	0.4165	0.3923	0.156	0.062
Mof_C 	C 	0.1735	0.2188	0.7508	0.078
Mof_H 	H 	0.1959	0.2002	0.7588	0.01
Mof_C 	C 	0.1139	0.7285	0.0029	0.087
Mof_H 	H 	0.0941	0.7021	-0	0.018
Mof_C 	C 	0.4168	0.6397	0.5272	0.099
Mof_H 	H 	0.4382	0.6556	0.5317	-0.001
Mof_C 	C 	0.1755	0.2445	0.7975	-0.158
Mof_H 	H 	0.1985	0.2408	0.8347	0.085
Mof_C 	C 	0.1138	0.7072	0.9587	-0.156
Mof_H 	H 	0.0937	0.6692	0.9269	0.097
Mof_C 	C 	0.421	0.6291	0.5746	-0.172
Mof_H 	H 	0.4448	0.6406	0.6103	0.089
Mof_C 	C 	0.143	0.2743	0.786	0.112
Mof_C 	C 	0.1432	0.7419	0.9619	0.111
Mof_C 	C 	0.3898	0.601	0.5696	0.123
Mof_C 	C 	0.1091	0.2789	0.7287	-0.152
Mof_H 	H 	0.0866	0.3013	0.7196	0.092
Mof_C 	C 	0.1727	0.801	0.0093	-0.163
Mof_H 	H 	0.193	0.827	0.0131	0.086
Mof_C 	C 	0.3554	0.5871	0.5147	-0.185
Mof_H 	H 	0.3338	0.5692	0.5091	0.103
Mof_C 	C 	0.1087	0.2504	0.6854	0.084
Mof_H 	H 	0.0858	0.252	0.648	0.011
Mof_C 	C 	0.1705	0.8188	0.0502	0.082
Mof_H 	H 	0.1904	0.8574	0.082	0.009
Mof_C 	C 	0.3527	0.5986	0.4709	0.112
Mof_H 	H 	0.3291	0.5862	0.4352	-0.006
Mof_N 	N 	0.0906	0.4446	0.0004	-0.146
Mof_N 	N 	0.0929	0.4628	0.1519	-0.147
Mof_N 	N 	0.3757	0.6078	0.3217	-0.149
Mof_N 	N 	0.1218	0.3553	0.8759	-0.073
Mof_N 	N 	0.122	0.3512	0.3324	-0.073
Mof_N 	N 	0.3799	0.4768	0.1714	-0.073
Mof_N 	N 	0.1151	0.3349	0.8255	-0.073
Mof_N 	N 	0.1171	0.3353	0.3723	-0.073
Mof_N 	N 	0.3695	0.4673	0.1185	-0.072
Mof_N 	N 	0.1411	0.2203	0.6966	-0.149
Mof_N 	N 	0.1414	0.7849	0.0486	-0.148
Mof_N 	N 	0.3825	0.6278	0.4738	-0.157
Mof_O 	O 	0.1364	0.6215	0.1159	-0.334
Mof_O 	O 	0.4219	0.4886	0.4434	-0.318
Mof_O 	O 	0.1536	0.4498	0.1361	-0.306
Mof_O 	O 	0.4249	0.3089	0.4496	-0.299
Mof_O 	O 	0.3357	0.4803	0.3566	-0.321
Mof_O 	O 	0.5798	0.2319	0.5675	-0.319
Mof_O 	O 	0.2072	0.8475	0.1919	-0.311
Mof_O 	O 	0.5296	0.1251	0.5259	-0.293
Mof_Cd	Cd	0.87754	0.12607	0.39546	0.423
Mof_Cd	Cd	0.58689	0.96801	0.07084	0.425
Mof_Cd	Cd	0.63959	0.30489	0.1208	0.449
Mof_C 	C 	0.558	0.9467	0.945	0.067
Mof_H 	H 	0.5349	0.9591	0.9361	0.012
Mof_C 	C 	0.6253	0.929	0.2033	0.077
Mof_H 	H 	0.6468	0.9158	0.2078	0.02
Mof_C 	C 	0.8461	0.1515	0.2699	0.078
Mof_H 	H 	0.829	0.1964	0.2672	-0.001
Mof_C 	C 	0.6615	0.0495	0.1432	0.418
Mof_C 	C 	0.9382	0.9024	0.4715	0.387
Mof_C 	C 	0.5581	0.93	0.9002	-0.14
Mof_H 	H 	0.5354	0.9347	0.8627	0.075
Mof_C 	C 	0.628	0.9126	0.2513	-0.149
Mof_H 	H 	0.6509	0.8934	0.2866	0.093
Mof_C 	C 	0.8404	0.132	0.2214	-0.155
Mof_H 	H 	0.8205	0.166	0.1877	0.083
Mof_C 	C 	0.7034	0.0794	0.1868	-0.499
Mof_H 	H 	0.7061	0.1373	0.2099	0.188
Mof_H 	H 	0.7111	0.1074	0.1668	0.184
Mof_C 	C 	0.974	0.9138	0.5326	-0.434
Mof_H 	H 	0.9669	0.9178	0.5556	0.162
Mof_H 	H 	0.9863	0.981	0.5372	0.157
Mof_C 	C 	0.5928	0.9072	0.9127	0.089
Mof_C 	C 	0.5954	0.9262	0.243	0.116
Mof_C 	C 	0.8644	0.0612	0.2225	0.104
Mof_C 	C 	0.7315	0.9896	0.2268	0.279
Mof_H 	H 	0.7232	0.9574	0.2452	-0.041
Mof_H 	H 	0.731	0.9343	0.2046	-0.04
Mof_C 	C 	0.0041	0.8179	0.5561	0.202
Mof_H 	H 	0.0255	0.8286	0.5962	-0.028
Mof_H 	H 	0.9921	0.7501	0.5516	-0.013
Mof_C 	C 	0.6269	0.9015	0.9705	-0.132
Mof_H 	H 	0.6504	0.8869	0.9811	0.088
Mof_C 	C 	0.5627	0.9607	0.1914	-0.164
Mof_H 	H 	0.5406	0.9712	0.1856	0.085
Mof_C 	C 	0.8956	0.0179	0.2749	-0.152
Mof_H 	H 	0.9133	0.9748	0.2782	0.093
Mof_C 	C 	0.7721	0.03	0.2718	-0.497
Mof_H 	H 	0.7806	0.0594	0.2531	0.178
Mof_H 	H 	0.7721	0.0881	0.2924	0.177
Mof_C 	C 	0.0187	0.8137	0.5235	-0.464
Mof_H 	H 	0.9969	0.8108	0.4831	0.179
Mof_H 	H 	0.0326	0.8793	0.531	0.178
Mof_C 	C 	0.623	0.9195	0.0115	0.071
Mof_H 	H 	0.6449	0.9131	0.0495	0.021
Mof_C 	C 	0.5628	0.9802	0.1471	0.088
Mof_H 	H 	0.5407	0.0065	0.1128	0.012
Mof_C 	C 	0.8994	0.0403	0.3207	0.084
Mof_H 	H 	0.9196	0.0079	0.3548	0.01
Mof_C 	C 	0.8003	0.9465	0.3137	0.389
Mof_C 	C 	0.0437	0.7205	0.5393	0.395
Mof_C 	C 	0.592	0.885	0.8665	-0.031
Mof_H 	H 	0.5693	0.8928	0.8292	0.051
Mof_C 	C 	0.5937	0.9058	0.2881	-0.04
Mof_H 	H 	0.5736	0.9306	0.2849	0.058
Mof_C 	C 	0.8579	0.0381	0.1705	-0.035
Mof_H 	H 	0.8371	0.0691	0.1364	0.055
Mof_C 	C 	0.6462	0.8017	0.8351	-0.043
Mof_H 	H 	0.6695	0.796	0.872	0.06
Mof_C 	C 	0.644	0.783	0.4163	-0.038
Mof_H 	H 	0.6646	0.7601	0.4201	0.056
Mof_C 	C 	0.8946	0.9176	0.1211	-0.043
Mof_H 	H 	0.9165	0.8923	0.156	0.062
Mof_C 	C 	0.6735	0.7188	0.7508	0.078
Mof_H 	H 	0.6959	0.7002	0.7588	0.01
Mof_C 	C 	0.6139	0.2285	0.0029	0.087
Mof_H 	H 	0.5941	0.2021	-0	0.018
Mof_C 	C 	0.9168	0.1397	0.5272	0.099
Mof_H 	H 	0.9382	0.1556	0.5317	-0.001
Mof_C 	C 	0.6755	0.7445	0.7975	-0.158
Mof_H 	H 	0.6985	0.7408	0.8347	0.085
Mof_C 	C 	0.6138	0.2072	0.9587	-0.156
Mof_H 	H 	0.5937	0.1692	0.9269	0.097
Mof_C 	C 	0.921	0.1291	0.5746	-0.172
Mof_H 	H 	0.9448	0.1406	0.6103	0.089
Mof_C 	C 	0.643	0.7743	0.786	0.112
Mof_C 	C 	0.6432	0.2419	0.9619	0.111
Mof_C 	C 	0.8898	0.101	0.5696	0.123
Mof_C 	C 	0.6091	0.7789	0.7287	-0.152
Mof_H 	H 	0.5866	0.8013	0.7196	0.092
Mof_C 	C 	0.6727	0.301	0.0093	-0.163
Mof_H 	H 	0.693	0.327	0.0131	0.086
Mof_C 	C 	0.8554	0.0871	0.5147	-0.185
Mof_H 	H 	0.8338	0.0692	0.5091	0.103
Mof_C 	C 	0.6087	0.7504	0.6854	0.084
Mof_H 	H 	0.5858	0.752	0.648	0.011
Mof_C 	C 	0.6705	0.3188	0.0502	0.082
Mof_H 	H 	0.6904	0.3574	0.082	0.009
Mof_C 	C 	0.8527	0.0986	0.4709	0.112
Mof_H 	H 	0.8291	0.0862	0.4352	-0.006
Mof_N 	N 	0.5906	0.9446	0.0004	-0.145
Mof_N 	N 	0.5929	0.9628	0.1519	-0.147
Mof_N 	N 	0.8757	0.1078	0.3217	-0.149
Mof_N 	N 	0.6218	0.8553	0.8759	-0.073
Mof_N 	N 	0.622	0.8512	0.3324	-0.073
Mof_N 	N 	0.8799	0.9768	0.1714	-0.073
Mof_N 	N 	0.6151	0.8349	0.8255	-0.073
Mof_N 	N 	0.6171	0.8353	0.3723	-0.073
Mof_N 	N 	0.8695	0.9673	0.1185	-0.072
Mof_N 	N 	0.6411	0.7203	0.6966	-0.149
Mof_N 	N 	0.6414	0.2849	0.0486	-0.148
Mof_N 	N 	0.8825	0.1278	0.4738	-0.157
Mof_O 	O 	0.6364	0.1215	0.1159	-0.334
Mof_O 	O 	0.9219	0.9886	0.4434	-0.318
Mof_O 	O 	0.6536	0.9498	0.1361	-0.306
Mof_O 	O 	0.9249	0.8089	0.4496	-0.299
Mof_O 	O 	0.8357	0.9803	0.3566	-0.321
Mof_O 	O 	0.0798	0.7319	0.5675	-0.319
Mof_O 	O 	0.7072	0.3475	0.1919	-0.311
Mof_O 	O 	0.0296	0.6251	0.5259	-0.293
Mof_Cd	Cd	0.62246	0.62607	0.10454	0.423
Mof_Cd	Cd	0.91311	0.46801	0.42916	0.425
Mof_Cd	Cd	0.86041	0.80489	0.3792	0.449
Mof_C 	C 	0.942	0.4467	0.555	0.066
Mof_H 	H 	0.9651	0.4591	0.5639	0.012
Mof_C 	C 	0.8747	0.429	0.2967	0.077
Mof_H 	H 	0.8532	0.4158	0.2922	0.02
Mof_C 	C 	0.6539	0.6515	0.2301	0.078
Mof_H 	H 	0.671	0.6964	0.2328	-0.001
Mof_C 	C 	0.8385	0.5495	0.3568	0.418
Mof_C 	C 	0.5618	0.4024	0.0285	0.387
Mof_C 	C 	0.9419	0.43	0.5998	-0.14
Mof_H 	H 	0.9646	0.4347	0.6373	0.075
Mof_C 	C 	0.872	0.4126	0.2487	-0.149
Mof_H 	H 	0.8491	0.3934	0.2134	0.092
Mof_C 	C 	0.6596	0.632	0.2786	-0.155
Mof_H 	H 	0.6795	0.666	0.3123	0.083
Mof_C 	C 	0.7966	0.5794	0.3132	-0.499
Mof_H 	H 	0.7939	0.6373	0.2901	0.188
Mof_H 	H 	0.7889	0.6074	0.3332	0.184
Mof_C 	C 	0.526	0.4138	0.9674	-0.433
Mof_H 	H 	0.5331	0.4178	0.9444	0.162
Mof_H 	H 	0.5137	0.481	0.9628	0.156
Mof_C 	C 	0.9072	0.4072	0.5873	0.089
Mof_C 	C 	0.9046	0.4262	0.257	0.116
Mof_C 	C 	0.6356	0.5612	0.2775	0.104
Mof_C 	C 	0.7685	0.4896	0.2732	0.279
Mof_H 	H 	0.7768	0.4574	0.2548	-0.041
Mof_H 	H 	0.769	0.4343	0.2954	-0.04
Mof_C 	C 	0.4959	0.3179	0.9439	0.2
Mof_H 	H 	0.4745	0.3286	0.9038	-0.028
Mof_H 	H 	0.5079	0.2501	0.9484	-0.012
Mof_C 	C 	0.8731	0.4015	0.5295	-0.133
Mof_H 	H 	0.8496	0.3869	0.5189	0.088
Mof_C 	C 	0.9373	0.4607	0.3086	-0.164
Mof_H 	H 	0.9594	0.4712	0.3144	0.085
Mof_C 	C 	0.6044	0.5179	0.2251	-0.152
Mof_H 	H 	0.5867	0.4748	0.2218	0.093
Mof_C 	C 	0.7279	0.53	0.2282	-0.497
Mof_H 	H 	0.7194	0.5594	0.2469	0.178
Mof_H 	H 	0.7279	0.5881	0.2076	0.177
Mof_C 	C 	0.4813	0.3137	0.9765	-0.462
Mof_H 	H 	0.5031	0.3108	0.0169	0.178
Mof_H 	H 	0.4674	0.3793	0.969	0.177
Mof_C 	C 	0.877	0.4195	0.4885	0.072
Mof_H 	H 	0.8551	0.4131	0.4505	0.021
Mof_C 	C 	0.9372	0.4802	0.3529	0.088
Mof_H 	H 	0.9593	0.5065	0.3872	0.012
Mof_C 	C 	0.6006	0.5403	0.1793	0.084
Mof_H 	H 	0.5804	0.5079	0.1452	0.01
Mof_C 	C 	0.6997	0.4465	0.1863	0.389
Mof_C 	C 	0.4563	0.2205	0.9607	0.395
Mof_C 	C 	0.908	0.385	0.6335	-0.031
Mof_H 	H 	0.9307	0.3928	0.6708	0.051
Mof_C 	C 	0.9063	0.4058	0.2119	-0.04
Mof_H 	H 	0.9264	0.4306	0.2151	0.058
Mof_C 	C 	0.6421	0.5381	0.3295	-0.035
Mof_H 	H 	0.6629	0.5691	0.3636	0.055
Mof_C 	C 	0.8538	0.3017	0.6649	-0.043
Mof_H 	H 	0.8305	0.296	0.628	0.06
Mof_C 	C 	0.856	0.283	0.0837	-0.038
Mof_H 	H 	0.8354	0.2601	0.0799	0.056
Mof_C 	C 	0.6054	0.4176	0.3789	-0.043
Mof_H 	H 	0.5835	0.3923	0.344	0.062
Mof_C 	C 	0.8265	0.2188	0.7492	0.078
Mof_H 	H 	0.8041	0.2002	0.7412	0.01
Mof_C 	C 	0.8861	0.7285	0.4971	0.087
Mof_H 	H 	0.9059	0.7021	0.5	0.018
Mof_C 	C 	0.5832	0.6397	0.9728	0.099
Mof_H 	H 	0.5618	0.6556	0.9683	-0.001
Mof_C 	C 	0.8245	0.2445	0.7025	-0.158
Mof_H 	H 	0.8015	0.2408	0.6653	0.085
Mof_C 	C 	0.8862	0.7072	0.5413	-0.157
Mof_H 	H 	0.9063	0.6692	0.5731	0.098
Mof_C 	C 	0.579	0.6291	0.9254	-0.172
Mof_H 	H 	0.5552	0.6406	0.8897	0.089
Mof_C 	C 	0.857	0.2743	0.714	0.112
Mof_C 	C 	0.8568	0.7419	0.5381	0.11
Mof_C 	C 	0.6102	0.601	0.9304	0.123
Mof_C 	C 	0.8909	0.2789	0.7713	-0.152
Mof_H 	H 	0.9134	0.3013	0.7804	0.092
Mof_C 	C 	0.8273	0.801	0.4907	-0.162
Mof_H 	H 	0.807	0.827	0.4869	0.086
Mof_C 	C 	0.6446	0.5871	0.9853	-0.184
Mof_H 	H 	0.6662	0.5692	0.9909	0.102
Mof_C 	C 	0.8913	0.2504	0.8146	0.084
Mof_H 	H 	0.9142	0.252	0.852	0.011
Mof_C 	C 	0.8295	0.8188	0.4498	0.082
Mof_H 	H 	0.8096	0.8574	0.418	0.009
Mof_C 	C 	0.6473	0.5986	0.0291	0.111
Mof_H 	H 	0.6709	0.5862	0.0648	-0.006
Mof_N 	N 	0.9094	0.4446	0.4996	-0.145
Mof_N 	N 	0.9071	0.4628	0.3481	-0.147
Mof_N 	N 	0.6243	0.6078	0.1783	-0.149
Mof_N 	N 	0.8782	0.3553	0.6241	-0.073
Mof_N 	N 	0.878	0.3512	0.1676	-0.073
Mof_N 	N 	0.6201	0.4768	0.3286	-0.073
Mof_N 	N 	0.8849	0.3349	0.6745	-0.073
Mof_N 	N 	0.8829	0.3353	0.1277	-0.073
Mof_N 	N 	0.6305	0.4673	0.3815	-0.072
Mof_N 	N 	0.8589	0.2203	0.8034	-0.149
Mof_N 	N 	0.8586	0.7849	0.4514	-0.148
Mof_N 	N 	0.6175	0.6278	0.0262	-0.157
Mof_O 	O 	0.8636	0.6215	0.3841	-0.334
Mof_O 	O 	0.5781	0.4886	0.0566	-0.318
Mof_O 	O 	0.8464	0.4498	0.3639	-0.306
Mof_O 	O 	0.5751	0.3089	0.0504	-0.299
Mof_O 	O 	0.6643	0.4803	0.1434	-0.321
Mof_O 	O 	0.4202	0.2319	0.9325	-0.319
Mof_O 	O 	0.7928	0.8475	0.3081	-0.311
Mof_O 	O 	0.4704	0.1251	0.9741	-0.293
Mof_Cd	Cd	0.12246	0.12607	0.10454	0.423
Mof_Cd	Cd	0.41311	0.96801	0.42916	0.425
Mof_Cd	Cd	0.36041	0.30489	0.3792	0.449
Mof_C 	C 	0.442	0.9467	0.555	0.066
Mof_H 	H 	0.4651	0.9591	0.5639	0.012
Mof_C 	C 	0.3747	0.929	0.2967	0.077
Mof_H 	H 	0.3532	0.9158	0.2922	0.02
Mof_C 	C 	0.1539	0.1515	0.2301	0.078
Mof_H 	H 	0.171	0.1964	0.2328	-0.001
Mof_C 	C 	0.3385	0.0495	0.3568	0.418
Mof_C 	C 	0.0618	0.9024	0.0285	0.386
Mof_C 	C 	0.4419	0.93	0.5998	-0.14
Mof_H 	H 	0.4646	0.9347	0.6373	0.075
Mof_C 	C 	0.372	0.9126	0.2487	-0.149
Mof_H 	H 	0.3491	0.8934	0.2134	0.092
Mof_C 	C 	0.1596	0.132	0.2786	-0.155
Mof_H 	H 	0.1795	0.166	0.3123	0.083
Mof_C 	C 	0.2966	0.0794	0.3132	-0.499
Mof_H 	H 	0.2939	0.1373	0.2901	0.188
Mof_H 	H 	0.2889	0.1074	0.3332	0.184
Mof_C 	C 	0.026	0.9138	0.9674	-0.432
Mof_H 	H 	0.0331	0.9178	0.9444	0.161
Mof_H 	H 	0.0137	0.981	0.9628	0.156
Mof_C 	C 	0.4072	0.9072	0.5873	0.089
Mof_C 	C 	0.4046	0.9262	0.257	0.116
Mof_C 	C 	0.1356	0.0612	0.2775	0.104
Mof_C 	C 	0.2685	0.9896	0.2732	0.279
Mof_H 	H 	0.2768	0.9574	0.2548	-0.041
Mof_H 	H 	0.269	0.9343	0.2954	-0.04
Mof_C 	C 	0.9959	0.8179	0.9439	0.2
Mof_H 	H 	0.9745	0.8286	0.9038	-0.028
Mof_H 	H 	0.0079	0.7501	0.9484	-0.012
Mof_C 	C 	0.3731	0.9015	0.5295	-0.133
Mof_H 	H 	0.3496	0.8869	0.5189	0.088
Mof_C 	C 	0.4373	0.9607	0.3086	-0.164
Mof_H 	H 	0.4594	0.9712	0.3144	0.085
Mof_C 	C 	0.1044	0.0179	0.2251	-0.152
Mof_H 	H 	0.0867	0.9748	0.2218	0.093
Mof_C 	C 	0.2279	0.03	0.2282	-0.497
Mof_H 	H 	0.2194	0.0594	0.2469	0.178
Mof_H 	H 	0.2279	0.0881	0.2076	0.177
Mof_C 	C 	0.9813	0.8137	0.9765	-0.462
Mof_H 	H 	0.0031	0.8108	0.0169	0.178
Mof_H 	H 	0.9674	0.8793	0.969	0.177
Mof_C 	C 	0.377	0.9195	0.4885	0.072
Mof_H 	H 	0.3551	0.9131	0.4505	0.021
Mof_C 	C 	0.4372	0.9802	0.3529	0.088
Mof_H 	H 	0.4593	0.0065	0.3872	0.012
Mof_C 	C 	0.1006	0.0403	0.1793	0.084
Mof_H 	H 	0.0804	0.0079	0.1452	0.01
Mof_C 	C 	0.1997	0.9465	0.1863	0.389
Mof_C 	C 	0.9563	0.7205	0.9607	0.395
Mof_C 	C 	0.408	0.885	0.6335	-0.031
Mof_H 	H 	0.4307	0.8928	0.6708	0.051
Mof_C 	C 	0.4063	0.9058	0.2119	-0.04
Mof_H 	H 	0.4264	0.9306	0.2151	0.058
Mof_C 	C 	0.1421	0.0381	0.3295	-0.035
Mof_H 	H 	0.1629	0.0691	0.3636	0.055
Mof_C 	C 	0.3538	0.8017	0.6649	-0.043
Mof_H 	H 	0.3305	0.796	0.628	0.06
Mof_C 	C 	0.356	0.783	0.0837	-0.038
Mof_H 	H 	0.3354	0.7601	0.0799	0.056
Mof_C 	C 	0.1054	0.9176	0.3789	-0.043
Mof_H 	H 	0.0835	0.8923	0.344	0.062
Mof_C 	C 	0.3265	0.7188	0.7492	0.078
Mof_H 	H 	0.3041	0.7002	0.7412	0.01
Mof_C 	C 	0.3861	0.2285	0.4971	0.087
Mof_H 	H 	0.4059	0.2021	0.5	0.018
Mof_C 	C 	0.0832	0.1397	0.9728	0.099
Mof_H 	H 	0.0618	0.1556	0.9683	-0.001
Mof_C 	C 	0.3245	0.7445	0.7025	-0.158
Mof_H 	H 	0.3015	0.7408	0.6653	0.085
Mof_C 	C 	0.3862	0.2072	0.5413	-0.157
Mof_H 	H 	0.4063	0.1692	0.5731	0.098
Mof_C 	C 	0.079	0.1291	0.9254	-0.172
Mof_H 	H 	0.0552	0.1406	0.8897	0.089
Mof_C 	C 	0.357	0.7743	0.714	0.112
Mof_C 	C 	0.3568	0.2419	0.5381	0.11
Mof_C 	C 	0.1102	0.101	0.9304	0.123
Mof_C 	C 	0.3909	0.7789	0.7713	-0.152
Mof_H 	H 	0.4134	0.8013	0.7804	0.092
Mof_C 	C 	0.3273	0.301	0.4907	-0.162
Mof_H 	H 	0.307	0.327	0.4869	0.086
Mof_C 	C 	0.1446	0.0871	0.9853	-0.184
Mof_H 	H 	0.1662	0.0692	0.9909	0.102
Mof_C 	C 	0.3913	0.7504	0.8146	0.084
Mof_H 	H 	0.4142	0.752	0.852	0.011
Mof_C 	C 	0.3295	0.3188	0.4498	0.082
Mof_H 	H 	0.3096	0.3574	0.418	0.009
Mof_C 	C 	0.1473	0.0986	0.0291	0.111
Mof_H 	H 	0.1709	0.0862	0.0648	-0.006
Mof_N 	N 	0.4094	0.9446	0.4996	-0.145
Mof_N 	N 	0.4071	0.9628	0.3481	-0.147
Mof_N 	N 	0.1243	0.1078	0.1783	-0.149
Mof_N 	N 	0.3782	0.8553	0.6241	-0.073
Mof_N 	N 	0.378	0.8512	0.1676	-0.073
Mof_N 	N 	0.1201	0.9768	0.3286	-0.073
Mof_N 	N 	0.3849	0.8349	0.6745	-0.073
Mof_N 	N 	0.3829	0.8353	0.1277	-0.073
Mof_N 	N 	0.1305	0.9673	0.3815	-0.072
Mof_N 	N 	0.3589	0.7203	0.8034	-0.149
Mof_N 	N 	0.3586	0.2849	0.4514	-0.148
Mof_N 	N 	0.1175	0.1278	0.0262	-0.157
Mof_O 	O 	0.3636	0.1215	0.3841	-0.334
Mof_O 	O 	0.0781	0.9886	0.0566	-0.318
Mof_O 	O 	0.3464	0.9498	0.3639	-0.306
Mof_O 	O 	0.0751	0.8089	0.0504	-0.299
Mof_O 	O 	0.1643	0.9803	0.1434	-0.321
Mof_O 	O 	0.9202	0.7319	0.9325	-0.319
Mof_O 	O 	0.2928	0.3475	0.3081	-0.311
Mof_O 	O 	0.9704	0.6251	0.9741	-0.293
Mof_Cd	Cd	0.62246	0.37393	0.60454	0.423
Mof_Cd	Cd	0.91311	0.53199	0.92916	0.425
Mof_Cd	Cd	0.86041	0.19511	0.8792	0.449
Mof_C 	C 	0.942	0.5533	0.055	0.066
Mof_H 	H 	0.9651	0.5409	0.0639	0.012
Mof_C 	C 	0.8747	0.571	0.7967	0.077
Mof_H 	H 	0.8532	0.5842	0.7922	0.02
Mof_C 	C 	0.6539	0.3485	0.7301	0.078
Mof_H 	H 	0.671	0.3036	0.7328	-0.001
Mof_C 	C 	0.8385	0.4505	0.8568	0.418
Mof_C 	C 	0.5618	0.5976	0.5285	0.387
Mof_C 	C 	0.9419	0.57	0.0998	-0.14
Mof_H 	H 	0.9646	0.5653	0.1373	0.075
Mof_C 	C 	0.872	0.5874	0.7487	-0.149
Mof_H 	H 	0.8491	0.6066	0.7134	0.093
Mof_C 	C 	0.6596	0.368	0.7786	-0.155
Mof_H 	H 	0.6795	0.334	0.8123	0.083
Mof_C 	C 	0.7966	0.4206	0.8132	-0.499
Mof_H 	H 	0.7939	0.3627	0.7901	0.188
Mof_H 	H 	0.7889	0.3926	0.8332	0.184
Mof_C 	C 	0.526	0.5862	0.4674	-0.434
Mof_H 	H 	0.5331	0.5822	0.4444	0.162
Mof_H 	H 	0.5137	0.519	0.4628	0.157
Mof_C 	C 	0.9072	0.5928	0.0873	0.089
Mof_C 	C 	0.9046	0.5738	0.757	0.116
Mof_C 	C 	0.6356	0.4388	0.7775	0.104
Mof_C 	C 	0.7685	0.5104	0.7732	0.279
Mof_H 	H 	0.7768	0.5426	0.7548	-0.041
Mof_H 	H 	0.769	0.5657	0.7954	-0.04
Mof_C 	C 	0.4959	0.6821	0.4439	0.201
Mof_H 	H 	0.4745	0.6714	0.4038	-0.028
Mof_H 	H 	0.5079	0.7499	0.4484	-0.013
Mof_C 	C 	0.8731	0.5985	0.0295	-0.134
Mof_H 	H 	0.8496	0.6131	0.0189	0.088
Mof_C 	C 	0.9373	0.5393	0.8086	-0.164
Mof_H 	H 	0.9594	0.5288	0.8144	0.085
Mof_C 	C 	0.6044	0.4821	0.7251	-0.153
Mof_H 	H 	0.5867	0.5252	0.7218	0.093
Mof_C 	C 	0.7279	0.47	0.7282	-0.497
Mof_H 	H 	0.7194	0.4406	0.7469	0.178
Mof_H 	H 	0.7279	0.4119	0.7076	0.178
Mof_C 	C 	0.4813	0.6863	0.4765	-0.464
Mof_H 	H 	0.5031	0.6892	0.5169	0.179
Mof_H 	H 	0.4674	0.6207	0.469	0.178
Mof_C 	C 	0.877	0.5805	0.9885	0.073
Mof_H 	H 	0.8551	0.5869	0.9505	0.021
Mof_C 	C 	0.9372	0.5198	0.8529	0.088
Mof_H 	H 	0.9593	0.4935	0.8872	0.012
Mof_C 	C 	0.6006	0.4597	0.6793	0.084
Mof_H 	H 	0.5804	0.4921	0.6452	0.01
Mof_C 	C 	0.6997	0.5535	0.6863	0.389
Mof_C 	C 	0.4563	0.7795	0.4607	0.395
Mof_C 	C 	0.908	0.615	0.1335	-0.031
Mof_H 	H 	0.9307	0.6072	0.1708	0.051
Mof_C 	C 	0.9063	0.5942	0.7119	-0.04
Mof_H 	H 	0.9264	0.5694	0.7151	0.058
Mof_C 	C 	0.6421	0.4619	0.8295	-0.035
Mof_H 	H 	0.6629	0.4309	0.8636	0.055
Mof_C 	C 	0.8538	0.6983	0.1649	-0.043
Mof_H 	H 	0.8305	0.704	0.128	0.06
Mof_C 	C 	0.856	0.717	0.5837	-0.038
Mof_H 	H 	0.8354	0.7399	0.5799	0.056
Mof_C 	C 	0.6054	0.5824	0.8789	-0.043
Mof_H 	H 	0.5835	0.6077	0.844	0.062
Mof_C 	C 	0.8265	0.7812	0.2492	0.078
Mof_H 	H 	0.8041	0.7998	0.2412	0.01
Mof_C 	C 	0.8861	0.2715	0.9971	0.089
Mof_H 	H 	0.9059	0.2979	-0	0.017
Mof_C 	C 	0.5832	0.3603	0.4728	0.099
Mof_H 	H 	0.5618	0.3444	0.4683	-0.001
Mof_C 	C 	0.8245	0.7555	0.2025	-0.158
Mof_H 	H 	0.8015	0.7592	0.1653	0.085
Mof_C 	C 	0.8862	0.2928	0.0413	-0.158
Mof_H 	H 	0.9063	0.3308	0.0731	0.098
Mof_C 	C 	0.579	0.3709	0.4254	-0.172
Mof_H 	H 	0.5552	0.3594	0.3897	0.089
Mof_C 	C 	0.857	0.7257	0.214	0.112
Mof_C 	C 	0.8568	0.2581	0.0381	0.11
Mof_C 	C 	0.6102	0.399	0.4304	0.123
Mof_C 	C 	0.8909	0.7211	0.2713	-0.152
Mof_H 	H 	0.9134	0.6987	0.2804	0.092
Mof_C 	C 	0.8273	0.199	0.9907	-0.162
Mof_H 	H 	0.807	0.173	0.9869	0.086
Mof_C 	C 	0.6446	0.4129	0.4853	-0.185
Mof_H 	H 	0.6662	0.4308	0.4909	0.103
Mof_C 	C 	0.8913	0.7496	0.3146	0.084
Mof_H 	H 	0.9142	0.748	0.352	0.011
Mof_C 	C 	0.8295	0.1812	0.9498	0.082
Mof_H 	H 	0.8096	0.1426	0.918	0.009
Mof_C 	C 	0.6473	0.4014	0.5291	0.112
Mof_H 	H 	0.6709	0.4138	0.5648	-0.006
Mof_N 	N 	0.9094	0.5554	0.9996	-0.145
Mof_N 	N 	0.9071	0.5372	0.8481	-0.147
Mof_N 	N 	0.6243	0.3922	0.6783	-0.149
Mof_N 	N 	0.8782	0.6447	0.1241	-0.073
Mof_N 	N 	0.878	0.6488	0.6676	-0.073
Mof_N 	N 	0.6201	0.5232	0.8286	-0.073
Mof_N 	N 	0.8849	0.6651	0.1745	-0.073
Mof_N 	N 	0.8829	0.6647	0.6277	-0.073
Mof_N 	N 	0.6305	0.5327	0.8815	-0.072
Mof_N 	N 	0.8589	0.7797	0.3034	-0.149
Mof_N 	N 	0.8586	0.2151	0.9514	-0.148
Mof_N 	N 	0.6175	0.3722	0.5262	-0.157
Mof_O 	O 	0.8636	0.3785	0.8841	-0.334
Mof_O 	O 	0.5781	0.5114	0.5566	-0.318
Mof_O 	O 	0.8464	0.5502	0.8639	-0.306
Mof_O 	O 	0.5751	0.6911	0.5504	-0.299
Mof_O 	O 	0.6643	0.5197	0.6434	-0.321
Mof_O 	O 	0.4202	0.7681	0.4325	-0.319
Mof_O 	O 	0.7928	0.1525	0.8081	-0.311
Mof_O 	O 	0.4704	0.8749	0.4741	-0.293
Mof_Cd	Cd	0.12246	0.87393	0.60454	0.423
Mof_Cd	Cd	0.41311	0.03199	0.92916	0.425
Mof_Cd	Cd	0.36041	0.69511	0.8792	0.449
Mof_C 	C 	0.442	0.0533	0.055	0.066
Mof_H 	H 	0.4651	0.0409	0.0639	0.012
Mof_C 	C 	0.3747	0.071	0.7967	0.077
Mof_H 	H 	0.3532	0.0842	0.7922	0.02
Mof_C 	C 	0.1539	0.8485	0.7301	0.078
Mof_H 	H 	0.171	0.8036	0.7328	-0.001
Mof_C 	C 	0.3385	0.9505	0.8568	0.418
Mof_C 	C 	0.0618	0.0976	0.5285	0.387
Mof_C 	C 	0.4419	0.07	0.0998	-0.14
Mof_H 	H 	0.4646	0.0653	0.1373	0.075
Mof_C 	C 	0.372	0.0874	0.7487	-0.149
Mof_H 	H 	0.3491	0.1066	0.7134	0.093
Mof_C 	C 	0.1596	0.868	0.7786	-0.155
Mof_H 	H 	0.1795	0.834	0.8123	0.083
Mof_C 	C 	0.2966	0.9206	0.8132	-0.499
Mof_H 	H 	0.2939	0.8627	0.7901	0.188
Mof_H 	H 	0.2889	0.8926	0.8332	0.184
Mof_C 	C 	0.026	0.0862	0.4674	-0.434
Mof_H 	H 	0.0331	0.0822	0.4444	0.162
Mof_H 	H 	0.0137	0.019	0.4628	0.157
Mof_C 	C 	0.4072	0.0928	0.0873	0.089
Mof_C 	C 	0.4046	0.0738	0.757	0.116
Mof_C 	C 	0.1356	0.9388	0.7775	0.104
Mof_C 	C 	0.2685	0.0104	0.7732	0.279
Mof_H 	H 	0.2768	0.0426	0.7548	-0.041
Mof_H 	H 	0.269	0.0657	0.7954	-0.04
Mof_C 	C 	0.9959	0.1821	0.4439	0.201
Mof_H 	H 	0.9745	0.1714	0.4038	-0.028
Mof_H 	H 	0.0079	0.2499	0.4484	-0.013
Mof_C 	C 	0.3731	0.0985	0.0295	-0.134
Mof_H 	H 	0.3496	0.1131	0.0189	0.088
Mof_C 	C 	0.4373	0.0393	0.8086	-0.163
Mof_H 	H 	0.4594	0.0288	0.8144	0.085
Mof_C 	C 	0.1044	0.9821	0.7251	-0.152
Mof_H 	H 	0.0867	0.0252	0.7218	0.093
Mof_C 	C 	0.2279	0.97	0.7282	-0.497
Mof_H 	H 	0.2194	0.9406	0.7469	0.178
Mof_H 	H 	0.2279	0.9119	0.7076	0.177
Mof_C 	C 	0.9813	0.1863	0.4765	-0.464
Mof_H 	H 	0.0031	0.1892	0.5169	0.179
Mof_H 	H 	0.9674	0.1207	0.469	0.178
Mof_C 	C 	0.377	0.0805	0.9885	0.073
Mof_H 	H 	0.3551	0.0869	0.9505	0.021
Mof_C 	C 	0.4372	0.0198	0.8529	0.088
Mof_H 	H 	0.4593	0.9935	0.8872	0.012
Mof_C 	C 	0.1006	0.9597	0.6793	0.084
Mof_H 	H 	0.0804	0.9921	0.6452	0.01
Mof_C 	C 	0.1997	0.0535	0.6863	0.389
Mof_C 	C 	0.9563	0.2795	0.4607	0.395
Mof_C 	C 	0.408	0.115	0.1335	-0.031
Mof_H 	H 	0.4307	0.1072	0.1708	0.051
Mof_C 	C 	0.4063	0.0942	0.7119	-0.04
Mof_H 	H 	0.4264	0.0694	0.7151	0.058
Mof_C 	C 	0.1421	0.9619	0.8295	-0.035
Mof_H 	H 	0.1629	0.9309	0.8636	0.055
Mof_C 	C 	0.3538	0.1983	0.1649	-0.043
Mof_H 	H 	0.3305	0.204	0.128	0.06
Mof_C 	C 	0.356	0.217	0.5837	-0.038
Mof_H 	H 	0.3354	0.2399	0.5799	0.056
Mof_C 	C 	0.1054	0.0824	0.8789	-0.043
Mof_H 	H 	0.0835	0.1077	0.844	0.062
Mof_C 	C 	0.3265	0.2812	0.2492	0.078
Mof_H 	H 	0.3041	0.2998	0.2412	0.01
Mof_C 	C 	0.3861	0.7715	0.9971	0.089
Mof_H 	H 	0.4059	0.7979	-0	0.017
Mof_C 	C 	0.0832	0.8603	0.4728	0.099
Mof_H 	H 	0.0618	0.8444	0.4683	-0.001
Mof_C 	C 	0.3245	0.2555	0.2025	-0.158
Mof_H 	H 	0.3015	0.2592	0.1653	0.085
Mof_C 	C 	0.3862	0.7928	0.0413	-0.158
Mof_H 	H 	0.4063	0.8308	0.0731	0.098
Mof_C 	C 	0.079	0.8709	0.4254	-0.172
Mof_H 	H 	0.0552	0.8594	0.3897	0.089
Mof_C 	C 	0.357	0.2257	0.214	0.112
Mof_C 	C 	0.3568	0.7581	0.0381	0.11
Mof_C 	C 	0.1102	0.899	0.4304	0.123
Mof_C 	C 	0.3909	0.2211	0.2713	-0.152
Mof_H 	H 	0.4134	0.1987	0.2804	0.092
Mof_C 	C 	0.3273	0.699	0.9907	-0.161
Mof_H 	H 	0.307	0.673	0.9869	0.086
Mof_C 	C 	0.1446	0.9129	0.4853	-0.185
Mof_H 	H 	0.1662	0.9308	0.4909	0.103
Mof_C 	C 	0.3913	0.2496	0.3146	0.084
Mof_H 	H 	0.4142	0.248	0.352	0.011
Mof_C 	C 	0.3295	0.6812	0.9498	0.082
Mof_H 	H 	0.3096	0.6426	0.918	0.009
Mof_C 	C 	0.1473	0.9014	0.5291	0.112
Mof_H 	H 	0.1709	0.9138	0.5648	-0.006
Mof_N 	N 	0.4094	0.0554	0.9996	-0.145
Mof_N 	N 	0.4071	0.0372	0.8481	-0.147
Mof_N 	N 	0.1243	0.8922	0.6783	-0.149
Mof_N 	N 	0.3782	0.1447	0.1241	-0.073
Mof_N 	N 	0.378	0.1488	0.6676	-0.073
Mof_N 	N 	0.1201	0.0232	0.8286	-0.073
Mof_N 	N 	0.3849	0.1651	0.1745	-0.073
Mof_N 	N 	0.3829	0.1647	0.6277	-0.073
Mof_N 	N 	0.1305	0.0327	0.8815	-0.072
Mof_N 	N 	0.3589	0.2797	0.3034	-0.149
Mof_N 	N 	0.3586	0.7151	0.9514	-0.148
Mof_N 	N 	0.1175	0.8722	0.5262	-0.157
Mof_O 	O 	0.3636	0.8785	0.8841	-0.334
Mof_O 	O 	0.0781	0.0114	0.5566	-0.318
Mof_O 	O 	0.3464	0.0502	0.8639	-0.306
Mof_O 	O 	0.0751	0.1911	0.5504	-0.299
Mof_O 	O 	0.1643	0.0197	0.6434	-0.321
Mof_O 	O 	0.9202	0.2681	0.4325	-0.319
Mof_O 	O 	0.2928	0.6525	0.8081	-0.311
Mof_O 	O 	0.9704	0.3749	0.4741	-0.293
Mof_Cd	Cd	0.37754	0.37393	0.89546	0.423
Mof_Cd	Cd	0.08689	0.53199	0.57084	0.425
Mof_Cd	Cd	0.13959	0.19511	0.6208	0.449
Mof_C 	C 	0.058	0.5533	0.445	0.066
Mof_H 	H 	0.0349	0.5409	0.4361	0.012
Mof_C 	C 	0.1253	0.571	0.7033	0.077
Mof_H 	H 	0.1468	0.5842	0.7078	0.02
Mof_C 	C 	0.3461	0.3485	0.7699	0.078
Mof_H 	H 	0.329	0.3036	0.7672	-0.001
Mof_C 	C 	0.1615	0.4505	0.6432	0.418
Mof_C 	C 	0.4382	0.5976	0.9715	0.388
Mof_C 	C 	0.0581	0.57	0.4002	-0.14
Mof_H 	H 	0.0354	0.5653	0.3627	0.075
Mof_C 	C 	0.128	0.5874	0.7513	-0.149
Mof_H 	H 	0.1509	0.6066	0.7866	0.093
Mof_C 	C 	0.3404	0.368	0.7214	-0.155
Mof_H 	H 	0.3205	0.334	0.6877	0.083
Mof_C 	C 	0.2034	0.4206	0.6868	-0.499
Mof_H 	H 	0.2061	0.3627	0.7099	0.188
Mof_H 	H 	0.2111	0.3926	0.6668	0.184
Mof_C 	C 	0.474	0.5862	0.0326	-0.435
Mof_H 	H 	0.4669	0.5822	0.0556	0.162
Mof_H 	H 	0.4863	0.519	0.0372	0.157
Mof_C 	C 	0.0928	0.5928	0.4127	0.089
Mof_C 	C 	0.0954	0.5738	0.743	0.116
Mof_C 	C 	0.3644	0.4388	0.7225	0.104
Mof_C 	C 	0.2315	0.5104	0.7268	0.279
Mof_H 	H 	0.2232	0.5426	0.7452	-0.041
Mof_H 	H 	0.231	0.5657	0.7046	-0.04
Mof_C 	C 	0.5041	0.6821	0.0561	0.202
Mof_H 	H 	0.5255	0.6714	0.0962	-0.029
Mof_H 	H 	0.4921	0.7499	0.0516	-0.013
Mof_C 	C 	0.1269	0.5985	0.4705	-0.133
Mof_H 	H 	0.1504	0.6131	0.4811	0.088
Mof_C 	C 	0.0627	0.5393	0.6914	-0.164
Mof_H 	H 	0.0406	0.5288	0.6856	0.085
Mof_C 	C 	0.3956	0.4821	0.7749	-0.152
Mof_H 	H 	0.4133	0.5252	0.7782	0.093
Mof_C 	C 	0.2721	0.47	0.7718	-0.497
Mof_H 	H 	0.2806	0.4406	0.7531	0.178
Mof_H 	H 	0.2721	0.4119	0.7924	0.178
Mof_C 	C 	0.5187	0.6863	0.0235	-0.465
Mof_H 	H 	0.4969	0.6892	0.9831	0.18
Mof_H 	H 	0.5326	0.6207	0.031	0.178
Mof_C 	C 	0.123	0.5805	0.5115	0.072
Mof_H 	H 	0.1449	0.5869	0.5495	0.021
Mof_C 	C 	0.0628	0.5198	0.6471	0.088
Mof_H 	H 	0.0407	0.4935	0.6128	0.012
Mof_C 	C 	0.3994	0.4597	0.8207	0.084
Mof_H 	H 	0.4196	0.4921	0.8548	0.01
Mof_C 	C 	0.3003	0.5535	0.8137	0.389
Mof_C 	C 	0.5437	0.7795	0.0393	0.396
Mof_C 	C 	0.092	0.615	0.3665	-0.031
Mof_H 	H 	0.0693	0.6072	0.3292	0.051
Mof_C 	C 	0.0937	0.5942	0.7881	-0.04
Mof_H 	H 	0.0736	0.5694	0.7849	0.058
Mof_C 	C 	0.3579	0.4619	0.6705	-0.035
Mof_H 	H 	0.3371	0.4309	0.6364	0.055
Mof_C 	C 	0.1462	0.6983	0.3351	-0.043
Mof_H 	H 	0.1695	0.704	0.372	0.06
Mof_C 	C 	0.144	0.717	0.9163	-0.038
Mof_H 	H 	0.1646	0.7399	0.9201	0.056
Mof_C 	C 	0.3946	0.5824	0.6211	-0.043
Mof_H 	H 	0.4165	0.6077	0.656	0.062
Mof_C 	C 	0.1735	0.7812	0.2508	0.078
Mof_H 	H 	0.1959	0.7998	0.2588	0.01
Mof_C 	C 	0.1139	0.2715	0.5029	0.087
Mof_H 	H 	0.0941	0.2979	0.5	0.018
Mof_C 	C 	0.4168	0.3603	0.0272	0.098
Mof_H 	H 	0.4382	0.3444	0.0317	-0.001
Mof_C 	C 	0.1755	0.7555	0.2975	-0.158
Mof_H 	H 	0.1985	0.7592	0.3347	0.085
Mof_C 	C 	0.1138	0.2928	0.4587	-0.157
Mof_H 	H 	0.0937	0.3308	0.4269	0.098
Mof_C 	C 	0.421	0.3709	0.0746	-0.172
Mof_H 	H 	0.4448	0.3594	0.1103	0.089
Mof_C 	C 	0.143	0.7257	0.286	0.112
Mof_C 	C 	0.1432	0.2581	0.4619	0.11
Mof_C 	C 	0.3898	0.399	0.0696	0.124
Mof_C 	C 	0.1091	0.7211	0.2287	-0.152
Mof_H 	H 	0.0866	0.6987	0.2196	0.092
Mof_C 	C 	0.1727	0.199	0.5093	-0.162
Mof_H 	H 	0.193	0.173	0.5131	0.086
Mof_C 	C 	0.3554	0.4129	0.0147	-0.187
Mof_H 	H 	0.3338	0.4308	0.0091	0.103
Mof_C 	C 	0.1087	0.7496	0.1854	0.084
Mof_H 	H 	0.0858	0.748	0.148	0.011
Mof_C 	C 	0.1705	0.1812	0.5502	0.082
Mof_H 	H 	0.1904	0.1426	0.582	0.009
Mof_C 	C 	0.3527	0.4014	0.9709	0.114
Mof_H 	H 	0.3291	0.4138	0.9352	-0.007
Mof_N 	N 	0.0906	0.5554	0.5004	-0.145
Mof_N 	N 	0.0929	0.5372	0.6519	-0.147
Mof_N 	N 	0.3757	0.3922	0.8217	-0.149
Mof_N 	N 	0.1218	0.6447	0.3759	-0.073
Mof_N 	N 	0.122	0.6488	0.8324	-0.073
Mof_N 	N 	0.3799	0.5232	0.6714	-0.073
Mof_N 	N 	0.1151	0.6651	0.3255	-0.073
Mof_N 	N 	0.1171	0.6647	0.8723	-0.073
Mof_N 	N 	0.3695	0.5327	0.6185	-0.072
Mof_N 	N 	0.1411	0.7797	0.1966	-0.149
Mof_N 	N 	0.1414	0.2151	0.5486	-0.148
Mof_N 	N 	0.3825	0.3722	0.9738	-0.157
Mof_O 	O 	0.1364	0.3785	0.6159	-0.334
Mof_O 	O 	0.4219	0.5114	0.9434	-0.318
Mof_O 	O 	0.1536	0.5502	0.6361	-0.306
Mof_O 	O 	0.4249	0.6911	0.9496	-0.299
Mof_O 	O 	0.3357	0.5197	0.8566	-0.321
Mof_O 	O 	0.5798	0.7681	0.0675	-0.319
Mof_O 	O 	0.2072	0.1525	0.6919	-0.311
Mof_O 	O 	0.5296	0.8749	0.0259	-0.293
Mof_Cd	Cd	0.87754	0.87393	0.89546	0.423
Mof_Cd	Cd	0.58689	0.03199	0.57084	0.425
Mof_Cd	Cd	0.63959	0.69511	0.6208	0.449
Mof_C 	C 	0.558	0.0533	0.445	0.066
Mof_H 	H 	0.5349	0.0409	0.4361	0.012
Mof_C 	C 	0.6253	0.071	0.7033	0.077
Mof_H 	H 	0.6468	0.0842	0.7078	0.02
Mof_C 	C 	0.8461	0.8485	0.7699	0.078
Mof_H 	H 	0.829	0.8036	0.7672	-0.001
Mof_C 	C 	0.6615	0.9505	0.6432	0.418
Mof_C 	C 	0.9382	0.0976	0.9715	0.388
Mof_C 	C 	0.5581	0.07	0.4002	-0.14
Mof_H 	H 	0.5354	0.0653	0.3627	0.075
Mof_C 	C 	0.628	0.0874	0.7513	-0.149
Mof_H 	H 	0.6509	0.1066	0.7866	0.093
Mof_C 	C 	0.8404	0.868	0.7214	-0.155
Mof_H 	H 	0.8205	0.834	0.6877	0.083
Mof_C 	C 	0.7034	0.9206	0.6868	-0.499
Mof_H 	H 	0.7061	0.8627	0.7099	0.188
Mof_H 	H 	0.7111	0.8926	0.6668	0.184
Mof_C 	C 	0.974	0.0862	0.0326	-0.435
Mof_H 	H 	0.9669	0.0822	0.0556	0.162
Mof_H 	H 	0.9863	0.019	0.0372	0.157
Mof_C 	C 	0.5928	0.0928	0.4127	0.089
Mof_C 	C 	0.5954	0.0738	0.743	0.116
Mof_C 	C 	0.8644	0.9388	0.7225	0.104
Mof_C 	C 	0.7315	0.0104	0.7268	0.279
Mof_H 	H 	0.7232	0.0426	0.7452	-0.041
Mof_H 	H 	0.731	0.0657	0.7046	-0.04
Mof_C 	C 	0.0041	0.1821	0.0561	0.202
Mof_H 	H 	0.0255	0.1714	0.0962	-0.028
Mof_H 	H 	0.9921	0.2499	0.0516	-0.013
Mof_C 	C 	0.6269	0.0985	0.4705	-0.133
Mof_H 	H 	0.6504	0.1131	0.4811	0.088
Mof_C 	C 	0.5627	0.0393	0.6914	-0.164
Mof_H 	H 	0.5406	0.0288	0.6856	0.085
Mof_C 	C 	0.8956	0.9821	0.7749	-0.152
Mof_H 	H 	0.9133	0.0252	0.7782	0.093
Mof_C 	C 	0.7721	0.97	0.7718	-0.497
Mof_H 	H 	0.7806	0.9406	0.7531	0.178
Mof_H 	H 	0.7721	0.9119	0.7924	0.177
Mof_C 	C 	0.0187	0.1863	0.0235	-0.465
Mof_H 	H 	0.9969	0.1892	0.9831	0.18
Mof_H 	H 	0.0326	0.1207	0.031	0.178
Mof_C 	C 	0.623	0.0805	0.5115	0.072
Mof_H 	H 	0.6449	0.0869	0.5495	0.021
Mof_C 	C 	0.5628	0.0198	0.6471	0.088
Mof_H 	H 	0.5407	0.9935	0.6128	0.012
Mof_C 	C 	0.8994	0.9597	0.8207	0.083
Mof_H 	H 	0.9196	0.9921	0.8548	0.01
Mof_C 	C 	0.8003	0.0535	0.8137	0.389
Mof_C 	C 	0.0437	0.2795	0.0393	0.396
Mof_C 	C 	0.592	0.115	0.3665	-0.031
Mof_H 	H 	0.5693	0.1072	0.3292	0.051
Mof_C 	C 	0.5937	0.0942	0.7881	-0.04
Mof_H 	H 	0.5736	0.0694	0.7849	0.058
Mof_C 	C 	0.8579	0.9619	0.6705	-0.035
Mof_H 	H 	0.8371	0.9309	0.6364	0.055
Mof_C 	C 	0.6462	0.1983	0.3351	-0.043
Mof_H 	H 	0.6695	0.204	0.372	0.06
Mof_C 	C 	0.644	0.217	0.9163	-0.038
Mof_H 	H 	0.6646	0.2399	0.9201	0.056
Mof_C 	C 	0.8946	0.0824	0.6211	-0.043
Mof_H 	H 	0.9165	0.1077	0.656	0.062
Mof_C 	C 	0.6735	0.2812	0.2508	0.078
Mof_H 	H 	0.6959	0.2998	0.2588	0.01
Mof_C 	C 	0.6139	0.7715	0.5029	0.087
Mof_H 	H 	0.5941	0.7979	0.5	0.018
Mof_C 	C 	0.9168	0.8603	0.0272	0.098
Mof_H 	H 	0.9382	0.8444	0.0317	-0.001
Mof_C 	C 	0.6755	0.2555	0.2975	-0.158
Mof_H 	H 	0.6985	0.2592	0.3347	0.085
Mof_C 	C 	0.6138	0.7928	0.4587	-0.157
Mof_H 	H 	0.5937	0.8308	0.4269	0.098
Mof_C 	C 	0.921	0.8709	0.0746	-0.172
Mof_H 	H 	0.9448	0.8594	0.1103	0.089
Mof_C 	C 	0.643	0.2257	0.286	0.112
Mof_C 	C 	0.6432	0.7581	0.4619	0.11
Mof_C 	C 	0.8898	0.899	0.0696	0.123
Mof_C 	C 	0.6091	0.2211	0.2287	-0.152
Mof_H 	H 	0.5866	0.1987	0.2196	0.092
Mof_C 	C 	0.6727	0.699	0.5093	-0.162
Mof_H 	H 	0.693	0.673	0.5131	0.086
Mof_C 	C 	0.8554	0.9129	0.0147	-0.186
Mof_H 	H 	0.8338	0.9308	0.0091	0.103
Mof_C 	C 	0.6087	0.2496	0.1854	0.084
Mof_H 	H 	0.5858	0.248	0.148	0.011
Mof_C 	C 	0.6705	0.6812	0.5502	0.082
Mof_H 	H 	0.6904	0.6426	0.582	0.009
Mof_C 	C 	0.8527	0.9014	0.9709	0.113
Mof_H 	H 	0.8291	0.9138	0.9352	-0.007
Mof_N 	N 	0.5906	0.0554	0.5004	-0.145
Mof_N 	N 	0.5929	0.0372	0.6519	-0.147
Mof_N 	N 	0.8757	0.8922	0.8217	-0.149
Mof_N 	N 	0.6218	0.1447	0.3759	-0.073
Mof_N 	N 	0.622	0.1488	0.8324	-0.073
Mof_N 	N 	0.8799	0.0232	0.6714	-0.073
Mof_N 	N 	0.6151	0.1651	0.3255	-0.073
Mof_N 	N 	0.6171	0.1647	0.8723	-0.073
Mof_N 	N 	0.8695	0.0327	0.6185	-0.072
Mof_N 	N 	0.6411	0.2797	0.1966	-0.149
Mof_N 	N 	0.6414	0.7151	0.5486	-0.148
Mof_N 	N 	0.8825	0.8722	0.9738	-0.157
Mof_O 	O 	0.6364	0.8785	0.6159	-0.334
Mof_O 	O 	0.9219	0.0114	0.9434	-0.318
Mof_O 	O 	0.6536	0.0502	0.6361	-0.306
Mof_O 	O 	0.9249	0.1911	0.9496	-0.299
Mof_O 	O 	0.8357	0.0197	0.8566	-0.321
Mof_O 	O 	0.0798	0.2681	0.0675	-0.319
Mof_O 	O 	0.7072	0.6525	0.6919	-0.311
Mof_O 	O 	0.0296	0.3749	0.0259	-0.293
_end
