data_functionalizedCrystal
_audit_creation_method	'EQeq! by Chris Wilmer'
_symmetry_space_group_name_H-M	'P1'
_symmetry_Int_Tables_number	1
_symmetry_cell_setting	triclinic
loop_
_symmetry_equiv_pos_as_xyz
  x,y,z
_cell_length_a	9.1304
_cell_length_b	9.1304
_cell_length_c	14.7099
_cell_angle_alpha	100.169
_cell_angle_beta	100.169
_cell_angle_gamma	115.539
loop_
_atom_site_label
_atom_site_type_symbol
_atom_site_fract_x
_atom_site_fract_y
_atom_site_fract_z
_atom_site_charge
Mof_Nd	Nd	0.7406	0.9906	0.9812	2.295
Mof_Nd	Nd	0.5094	0.7594	0.5188	2.318
Mof_Nd	Nd	0.2594	0.0094	0.0188	2.294
Mof_Nd	Nd	0.4906	0.2406	0.4812	2.317
Mof_H 	H 	0.302	0.364	0.926	0.049
Mof_H 	H 	0.124	0.562	0.926	0.048
Mof_H 	H 	0.136	0.198	0.574	0.049
Mof_H 	H 	0.938	0.376	0.574	0.047
Mof_H 	H 	0.698	0.636	0.074	0.049
Mof_H 	H 	0.876	0.438	0.074	0.048
Mof_H 	H 	0.864	0.802	0.426	0.049
Mof_H 	H 	0.062	0.624	0.426	0.047
Mof_C 	C 	0.06092	0.24792	0.94164	0.43
Mof_C 	C 	0.21371	0.39411	0.93502	-0.143
Mof_C 	C 	0.38072	0.69372	0.94164	0.432
Mof_C 	C 	0.22131	0.54091	0.93502	-0.145
Mof_C 	C 	0.25208	0.43908	0.55836	0.434
Mof_C 	C 	0.10589	0.28629	0.56498	-0.148
Mof_C 	C 	0.80628	0.11928	0.55836	0.438
Mof_C 	C 	0.95909	0.27869	0.56498	-0.143
Mof_C 	C 	0.93908	0.75208	0.05836	0.43
Mof_C 	C 	0.78629	0.60589	0.06498	-0.143
Mof_C 	C 	0.61928	0.30628	0.05836	0.432
Mof_C 	C 	0.77869	0.45909	0.06498	-0.145
Mof_C 	C 	0.74792	0.56092	0.44164	0.434
Mof_C 	C 	0.89411	0.71371	0.43502	-0.148
Mof_C 	C 	0.19372	0.88072	0.44164	0.438
Mof_C 	C 	0.04091	0.72131	0.43502	-0.143
Mof_C 	C 	0.6753	0.8247	0.75	0.283
Mof_C 	C 	0.5747	0.9253	0.75	0.282
Mof_C 	C 	0.3247	0.1753	0.25	0.283
Mof_C 	C 	0.4253	0.0747	0.25	0.282
Mof_O 	O 	0.76229	0.83907	0.82996	-0.475
Mof_O 	O 	0.91736	0.23942	0.92398	-0.495
Mof_O 	O 	0.08431	0.13427	0.96738	-0.651
Mof_O 	O 	0.56767	0.99089	0.82996	-0.472
Mof_O 	O 	0.50662	0.68456	0.92398	-0.5
Mof_O 	O 	0.38307	0.83311	0.96738	-0.657
Mof_O 	O 	0.66093	0.73771	0.67004	-0.475
Mof_O 	O 	0.26058	0.58264	0.57602	-0.502
Mof_O 	O 	0.36573	0.41569	0.53262	-0.661
Mof_O 	O 	0.50911	0.93233	0.67004	-0.473
Mof_O 	O 	0.81544	0.99338	0.57602	-0.504
Mof_O 	O 	0.66689	0.11693	0.53262	-0.66
Mof_O 	O 	0.23771	0.16093	0.17004	-0.475
Mof_O 	O 	0.08264	0.76058	0.07602	-0.495
Mof_O 	O 	0.91569	0.86573	0.03262	-0.651
Mof_O 	O 	0.43233	0.00911	0.17004	-0.472
Mof_O 	O 	0.49338	0.31544	0.07602	-0.5
Mof_O 	O 	0.61693	0.16689	0.03262	-0.657
Mof_O 	O 	0.33907	0.26229	0.32996	-0.475
Mof_O 	O 	0.73942	0.41736	0.42398	-0.502
Mof_O 	O 	0.63427	0.58431	0.46738	-0.661
Mof_O 	O 	0.49089	0.06767	0.32996	-0.473
Mof_O 	O 	0.18456	0.00662	0.42398	-0.504
Mof_O 	O 	0.33311	0.88307	0.46738	-0.66
_end
