# CIF file generated by openbabel 3.1.0, see https://openbabel.org
data_I
_chemical_name_common 'image0'
_cell_length_a 10.464
_cell_length_b 10.607
_cell_length_c 11.353
_cell_angle_alpha 83.08
_cell_angle_beta 74.54
_cell_angle_gamma 69.67
_space_group_name_H-M_alt 'P 1'
_space_group_name_Hall 'P 1'
loop_
    _symmetry_equiv_pos_as_xyz
    x,y,z
loop_
    _atom_site_label
    _atom_site_type_symbol
    _atom_site_fract_x
    _atom_site_fract_y
    _atom_site_fract_z
    _atom_site_occupancy
    Gd1      Gd       0.58787    0.59859    0.62986    1.000
    O1       O        0.39670    0.61890    0.40440    1.000
    O2       O        0.47250    0.74500    0.49230    1.000
    O3       O        0.27690    0.25060    0.44540    1.000
    O4       O        0.04660    0.31960    0.45420    1.000
    O5       O        0.87900    0.06010    0.25760    1.000
    O6       O        0.95190    0.84860    0.27360    1.000
    O7       O        0.00460    0.44010    0.66900    1.000
    O8       O        0.77410    0.49450    0.71940    1.000
    O9       O        0.53200    0.47570    0.16380    1.000
    O10      O        0.65950    0.38830    0.29710    1.000
    O11      O        0.17500    0.25110    0.15630    1.000
    O12      O        0.27070    0.23230    0.96520    1.000
    N1       N        0.96180    0.95620    0.28310    1.000
    N2       N        0.16810    0.26240    0.05040    1.000
    C1       C        0.28200    0.85350    0.40410    1.000
    C2       C        0.28010    0.98000    0.43110    1.000
    H1       H        0.35090    0.98610    0.46280    1.000
    C3       C        0.17400    0.09540    0.41070    1.000
    C4       C        0.06710    0.08720    0.36340    1.000
    H2       H        0.99320    0.16370    0.35220    1.000
    C5       C        0.07420    0.96220    0.33380    1.000
    C6       C        0.17830    0.84530    0.35310    1.000
    H3       H        0.17930    0.76270    0.33250    1.000
    C7       C        0.39240    0.72950    0.43490    1.000
    C8       C        0.16850    0.23190    0.43890    1.000
    C9       C        0.89620    0.41590    0.87560    1.000
    C10      C        0.77340    0.44160    0.96820    1.000
    H4       H        0.68670    0.48180    0.94930    1.000
    C11      C        0.78030    0.40710    0.08880    1.000
    C12      C        0.91000    0.34850    0.11670    1.000
    H5       H        0.91580    0.32610    0.19730    1.000
    C13      C        0.03080    0.32370    0.02270    1.000
    C14      C        0.02490    0.35640    0.90230    1.000
    H6       H        0.10680    0.33840    0.84020    1.000
    C15      C        0.88930    0.45380    0.74550    1.000
    C16      C        0.64710    0.42730    0.18870    1.000
    Gd2      Gd       0.41213    0.40141    0.37014    1.000
    O13      O        0.60330    0.38110    0.59560    1.000
    O14      O        0.52750    0.25500    0.50770    1.000
    O15      O        0.72310    0.74940    0.55460    1.000
    O16      O        0.95340    0.68040    0.54580    1.000
    O17      O        0.12100    0.93990    0.74240    1.000
    O18      O        0.04810    0.15140    0.72640    1.000
    O19      O        0.99540    0.55990    0.33100    1.000
    O20      O        0.22590    0.50550    0.28060    1.000
    O21      O        0.46800    0.52430    0.83620    1.000
    O22      O        0.34050    0.61170    0.70290    1.000
    O23      O        0.82500    0.74890    0.84370    1.000
    O24      O        0.72930    0.76770    0.03480    1.000
    N3       N        0.03820    0.04380    0.71690    1.000
    N4       N        0.83190    0.73760    0.94960    1.000
    C17      C        0.71800    0.14650    0.59590    1.000
    C18      C        0.71990    0.02000    0.56890    1.000
    H7       H        0.64910    0.01390    0.53720    1.000
    C19      C        0.82600    0.90460    0.58930    1.000
    C20      C        0.93290    0.91280    0.63660    1.000
    H8       H        0.00680    0.83630    0.64780    1.000
    C21      C        0.92580    0.03780    0.66620    1.000
    C22      C        0.82170    0.15470    0.64690    1.000
    H9       H        0.82070    0.23730    0.66750    1.000
    C23      C        0.60760    0.27050    0.56510    1.000
    C24      C        0.83150    0.76810    0.56110    1.000
    C25      C        0.10380    0.58410    0.12440    1.000
    C26      C        0.22660    0.55840    0.03180    1.000
    H10      H        0.31330    0.51820    0.05070    1.000
    C27      C        0.21970    0.59290    0.91120    1.000
    C28      C        0.09000    0.65150    0.88330    1.000
    H11      H        0.08420    0.67390    0.80270    1.000
    C29      C        0.96920    0.67630    0.97730    1.000
    C30      C        0.97510    0.64360    0.09770    1.000
    H12      H        0.89320    0.66160    0.15980    1.000
    C31      C        0.11070    0.54620    0.25450    1.000
    C32      C        0.35290    0.57270    0.81130    1.000
    Cu1      Cu       0.00000    0.50000    0.50000    1.000
