# CIF file generated by openbabel 3.1.0, see https://openbabel.org
data_I
_chemical_name_common 'image0'
_cell_length_a 15.571
_cell_length_b 23.296
_cell_length_c 32.328
_cell_angle_alpha 90
_cell_angle_beta 90
_cell_angle_gamma 90
_space_group_name_H-M_alt 'P 1'
_space_group_name_Hall 'P 1'
loop_
    _symmetry_equiv_pos_as_xyz
    x,y,z
loop_
    _atom_site_label
    _atom_site_type_symbol
    _atom_site_fract_x
    _atom_site_fract_y
    _atom_site_fract_z
    _atom_site_occupancy
    Ni1      Ni       0.13802    0.76046    0.91389    1.000
    N1       N        0.10710    0.83610    0.88268    1.000
    N2       N        0.27200    0.98600    0.69652    1.000
    O1       O        0.19280    0.80504    0.96158    1.000
    O2       O        0.32950    0.81665    0.94229    1.000
    O3       O        0.07850    0.93140    0.07709    1.000
    O4       O        0.17770    0.96482    0.11977    1.000
    H1       H        0.27000    0.77600    0.86520    1.000
    C1       C        0.02940    0.84370    0.86580    1.000
    H2       H        0.98810    0.81460    0.86940    1.000
    C2       C        0.00680    0.89120    0.84360    1.000
    H3       H        0.95110    0.89420    0.83260    1.000
    C3       C        0.06530    0.93470    0.83726    1.000
    C4       C        0.14610    0.92820    0.85450    1.000
    H4       H        0.18810    0.95680    0.85120    1.000
    C5       C        0.16440    0.87820    0.87680    1.000
    H5       H        0.21950    0.87400    0.88830    1.000
    C6       C        0.04550    0.98690    0.81090    1.000
    H6       H        0.08880    0.01720    0.81580    1.000
    C7       C        0.03480    0.97640    0.76322    1.000
    H7       H        0.00740    0.93860    0.75860    1.000
    C8       C        0.11440    0.98040    0.73790    1.000
    C9       C        0.14020    0.02900    0.71690    1.000
    H8       H        0.10460    0.06160    0.71650    1.000
    C10      C        0.21810    0.03000    0.69670    1.000
    H9       H        0.23370    0.06340    0.68230    1.000
    C11      C        0.24750    0.93890    0.71620    1.000
    H10      H        0.28480    0.90720    0.71610    1.000
    C12      C        0.17080    0.93370    0.73650    1.000
    H11      H        0.15610    0.89900    0.74950    1.000
    C13      C        0.28050    0.86740    0.00090    1.000
    C14      C        0.36260    0.88670    0.01060    1.000
    H12      H        0.40950    0.87350    0.99490    1.000
    C15      C        0.37680    0.92440    0.04200    1.000
    H13      H        0.43200    0.93970    0.04630    1.000
    C16      C        0.30910    0.94000    0.06770    1.000
    H14      H        0.31950    0.96340    0.09080    1.000
    C17      C        0.22640    0.92120    0.05950    1.000
    C18      C        0.21210    0.88560    0.02560    1.000
    H15      H        0.15600    0.87370    0.01930    1.000
    C19      C        0.26690    0.82600    0.96610    1.000
    C20      C        0.15520    0.94010    0.08750    1.000
    Ni2      Ni       0.13802    0.26046    0.41389    1.000
    N3       N        0.10710    0.33610    0.38268    1.000
    N4       N        0.27200    0.48600    0.19652    1.000
    O5       O        0.19280    0.30504    0.46158    1.000
    O6       O        0.32950    0.31665    0.44229    1.000
    O7       O        0.07850    0.43140    0.57709    1.000
    O8       O        0.17770    0.46482    0.61977    1.000
    H16      H        0.27000    0.27600    0.36520    1.000
    C21      C        0.02940    0.34370    0.36580    1.000
    H17      H        0.98810    0.31460    0.36940    1.000
    C22      C        0.00680    0.39120    0.34360    1.000
    H18      H        0.95110    0.39420    0.33260    1.000
    C23      C        0.06530    0.43470    0.33726    1.000
    C24      C        0.14610    0.42820    0.35450    1.000
    H19      H        0.18810    0.45680    0.35120    1.000
    C25      C        0.16440    0.37820    0.37680    1.000
    H20      H        0.21950    0.37400    0.38830    1.000
    C26      C        0.04550    0.48690    0.31090    1.000
    H21      H        0.08880    0.51720    0.31580    1.000
    C27      C        0.03480    0.47640    0.26322    1.000
    H22      H        0.00740    0.43860    0.25860    1.000
    C28      C        0.11440    0.48040    0.23790    1.000
    C29      C        0.14020    0.52900    0.21690    1.000
    H23      H        0.10460    0.56160    0.21650    1.000
    C30      C        0.21810    0.53000    0.19670    1.000
    H24      H        0.23370    0.56340    0.18230    1.000
    C31      C        0.24750    0.43890    0.21620    1.000
    H25      H        0.28480    0.40720    0.21610    1.000
    C32      C        0.17080    0.43370    0.23650    1.000
    H26      H        0.15610    0.39900    0.24950    1.000
    C33      C        0.28050    0.36740    0.50090    1.000
    C34      C        0.36260    0.38670    0.51060    1.000
    H27      H        0.40950    0.37350    0.49490    1.000
    C35      C        0.37680    0.42440    0.54200    1.000
    H28      H        0.43200    0.43970    0.54630    1.000
    C36      C        0.30910    0.44000    0.56770    1.000
    H29      H        0.31950    0.46340    0.59080    1.000
    C37      C        0.22640    0.42120    0.55950    1.000
    C38      C        0.21210    0.38560    0.52560    1.000
    H30      H        0.15600    0.37370    0.51930    1.000
    C39      C        0.26690    0.32600    0.46610    1.000
    C40      C        0.15520    0.44010    0.58750    1.000
    Ni3      Ni       0.63802    0.76046    0.41389    1.000
    N5       N        0.60710    0.83610    0.38268    1.000
    N6       N        0.77200    0.98600    0.19652    1.000
    O9       O        0.69280    0.80504    0.46158    1.000
    O10      O        0.82950    0.81665    0.44229    1.000
    O11      O        0.57850    0.93140    0.57709    1.000
    O12      O        0.67770    0.96482    0.61977    1.000
    H31      H        0.77000    0.77600    0.36520    1.000
    C41      C        0.52940    0.84370    0.36580    1.000
    H32      H        0.48810    0.81460    0.36940    1.000
    C42      C        0.50680    0.89120    0.34360    1.000
    H33      H        0.45110    0.89420    0.33260    1.000
    C43      C        0.56530    0.93470    0.33726    1.000
    C44      C        0.64610    0.92820    0.35450    1.000
    H34      H        0.68810    0.95680    0.35120    1.000
    C45      C        0.66440    0.87820    0.37680    1.000
    H35      H        0.71950    0.87400    0.38830    1.000
    C46      C        0.54550    0.98690    0.31090    1.000
    H36      H        0.58880    0.01720    0.31580    1.000
    C47      C        0.53480    0.97640    0.26322    1.000
    H37      H        0.50740    0.93860    0.25860    1.000
    C48      C        0.61440    0.98040    0.23790    1.000
    C49      C        0.64020    0.02900    0.21690    1.000
    H38      H        0.60460    0.06160    0.21650    1.000
    C50      C        0.71810    0.03000    0.19670    1.000
    H39      H        0.73370    0.06340    0.18230    1.000
    C51      C        0.74750    0.93890    0.21620    1.000
    H40      H        0.78480    0.90720    0.21610    1.000
    C52      C        0.67080    0.93370    0.23650    1.000
    H41      H        0.65610    0.89900    0.24950    1.000
    C53      C        0.78050    0.86740    0.50090    1.000
    C54      C        0.86260    0.88670    0.51060    1.000
    H42      H        0.90950    0.87350    0.49490    1.000
    C55      C        0.87680    0.92440    0.54200    1.000
    H43      H        0.93200    0.93970    0.54630    1.000
    C56      C        0.80910    0.94000    0.56770    1.000
    H44      H        0.81950    0.96340    0.59080    1.000
    C57      C        0.72640    0.92120    0.55950    1.000
    C58      C        0.71210    0.88560    0.52560    1.000
    H45      H        0.65600    0.87370    0.51930    1.000
    C59      C        0.76690    0.82600    0.46610    1.000
    C60      C        0.65520    0.94010    0.58750    1.000
    Ni4      Ni       0.63802    0.26046    0.91389    1.000
    N7       N        0.60710    0.33610    0.88268    1.000
    N8       N        0.77200    0.48600    0.69652    1.000
    O13      O        0.69280    0.30504    0.96158    1.000
    O14      O        0.82950    0.31665    0.94229    1.000
    O15      O        0.57850    0.43140    0.07709    1.000
    O16      O        0.67770    0.46482    0.11977    1.000
    H46      H        0.77000    0.27600    0.86520    1.000
    C61      C        0.52940    0.34370    0.86580    1.000
    H47      H        0.48810    0.31460    0.86940    1.000
    C62      C        0.50680    0.39120    0.84360    1.000
    H48      H        0.45110    0.39420    0.83260    1.000
    C63      C        0.56530    0.43470    0.83726    1.000
    C64      C        0.64610    0.42820    0.85450    1.000
    H49      H        0.68810    0.45680    0.85120    1.000
    C65      C        0.66440    0.37820    0.87680    1.000
    H50      H        0.71950    0.37400    0.88830    1.000
    C66      C        0.54550    0.48690    0.81090    1.000
    H51      H        0.58880    0.51720    0.81580    1.000
    C67      C        0.53480    0.47640    0.76322    1.000
    H52      H        0.50740    0.43860    0.75860    1.000
    C68      C        0.61440    0.48040    0.73790    1.000
    C69      C        0.64020    0.52900    0.71690    1.000
    H53      H        0.60460    0.56160    0.71650    1.000
    C70      C        0.71810    0.53000    0.69670    1.000
    H54      H        0.73370    0.56340    0.68230    1.000
    C71      C        0.74750    0.43890    0.71620    1.000
    H55      H        0.78480    0.40720    0.71610    1.000
    C72      C        0.67080    0.43370    0.73650    1.000
    H56      H        0.65610    0.39900    0.74950    1.000
    C73      C        0.78050    0.36740    0.00090    1.000
    C74      C        0.86260    0.38670    0.01060    1.000
    H57      H        0.90950    0.37350    0.99490    1.000
    C75      C        0.87680    0.42440    0.04200    1.000
    H58      H        0.93200    0.43970    0.04630    1.000
    C76      C        0.80910    0.44000    0.06770    1.000
    H59      H        0.81950    0.46340    0.09080    1.000
    C77      C        0.72640    0.42120    0.05950    1.000
    C78      C        0.71210    0.38560    0.02560    1.000
    H60      H        0.65600    0.37370    0.01930    1.000
    C79      C        0.76690    0.32600    0.96610    1.000
    C80      C        0.65520    0.44010    0.08750    1.000
    Ni5      Ni       0.86198    0.23954    0.91389    1.000
    N9       N        0.89290    0.16390    0.88268    1.000
    N10      N        0.72800    0.01400    0.69652    1.000
    O17      O        0.80720    0.19496    0.96158    1.000
    O18      O        0.67050    0.18335    0.94229    1.000
    O19      O        0.92150    0.06860    0.07709    1.000
    O20      O        0.82230    0.03518    0.11977    1.000
    H61      H        0.73000    0.22400    0.86520    1.000
    C81      C        0.97060    0.15630    0.86580    1.000
    H62      H        0.01190    0.18540    0.86940    1.000
    C82      C        0.99320    0.10880    0.84360    1.000
    H63      H        0.04890    0.10580    0.83260    1.000
    C83      C        0.93470    0.06530    0.83726    1.000
    C84      C        0.85390    0.07180    0.85450    1.000
    H64      H        0.81190    0.04320    0.85120    1.000
    C85      C        0.83560    0.12180    0.87680    1.000
    H65      H        0.78050    0.12600    0.88830    1.000
    C86      C        0.95450    0.01310    0.81090    1.000
    H66      H        0.91120    0.98280    0.81580    1.000
    C87      C        0.96520    0.02360    0.76322    1.000
    H67      H        0.99260    0.06140    0.75860    1.000
    C88      C        0.88560    0.01960    0.73790    1.000
    C89      C        0.85980    0.97100    0.71690    1.000
    H68      H        0.89540    0.93840    0.71650    1.000
    C90      C        0.78190    0.97000    0.69670    1.000
    H69      H        0.76630    0.93660    0.68230    1.000
    C91      C        0.75250    0.06110    0.71620    1.000
    H70      H        0.71520    0.09280    0.71610    1.000
    C92      C        0.82920    0.06630    0.73650    1.000
    H71      H        0.84390    0.10100    0.74950    1.000
    C93      C        0.71950    0.13260    0.00090    1.000
    C94      C        0.63740    0.11330    0.01060    1.000
    H72      H        0.59050    0.12650    0.99490    1.000
    C95      C        0.62320    0.07560    0.04200    1.000
    H73      H        0.56800    0.06030    0.04630    1.000
    C96      C        0.69090    0.06000    0.06770    1.000
    H74      H        0.68050    0.03660    0.09080    1.000
    C97      C        0.77360    0.07880    0.05950    1.000
    C98      C        0.78790    0.11440    0.02560    1.000
    H75      H        0.84400    0.12630    0.01930    1.000
    C99      C        0.73310    0.17400    0.96610    1.000
    C100     C        0.84480    0.05990    0.08750    1.000
    Ni6      Ni       0.86198    0.73954    0.41389    1.000
    N11      N        0.89290    0.66390    0.38268    1.000
    N12      N        0.72800    0.51400    0.19652    1.000
    O21      O        0.80720    0.69496    0.46158    1.000
    O22      O        0.67050    0.68335    0.44229    1.000
    O23      O        0.92150    0.56860    0.57709    1.000
    O24      O        0.82230    0.53518    0.61977    1.000
    H76      H        0.73000    0.72400    0.36520    1.000
    C101     C        0.97060    0.65630    0.36580    1.000
    H77      H        0.01190    0.68540    0.36940    1.000
    C102     C        0.99320    0.60880    0.34360    1.000
    H78      H        0.04890    0.60580    0.33260    1.000
    C103     C        0.93470    0.56530    0.33726    1.000
    C104     C        0.85390    0.57180    0.35450    1.000
    H79      H        0.81190    0.54320    0.35120    1.000
    C105     C        0.83560    0.62180    0.37680    1.000
    H80      H        0.78050    0.62600    0.38830    1.000
    C106     C        0.95450    0.51310    0.31090    1.000
    H81      H        0.91120    0.48280    0.31580    1.000
    C107     C        0.96520    0.52360    0.26322    1.000
    H82      H        0.99260    0.56140    0.25860    1.000
    C108     C        0.88560    0.51960    0.23790    1.000
    C109     C        0.85980    0.47100    0.21690    1.000
    H83      H        0.89540    0.43840    0.21650    1.000
    C110     C        0.78190    0.47000    0.19670    1.000
    H84      H        0.76630    0.43660    0.18230    1.000
    C111     C        0.75250    0.56110    0.21620    1.000
    H85      H        0.71520    0.59280    0.21610    1.000
    C112     C        0.82920    0.56630    0.23650    1.000
    H86      H        0.84390    0.60100    0.24950    1.000
    C113     C        0.71950    0.63260    0.50090    1.000
    C114     C        0.63740    0.61330    0.51060    1.000
    H87      H        0.59050    0.62650    0.49490    1.000
    C115     C        0.62320    0.57560    0.54200    1.000
    H88      H        0.56800    0.56030    0.54630    1.000
    C116     C        0.69090    0.56000    0.56770    1.000
    H89      H        0.68050    0.53660    0.59080    1.000
    C117     C        0.77360    0.57880    0.55950    1.000
    C118     C        0.78790    0.61440    0.52560    1.000
    H90      H        0.84400    0.62630    0.51930    1.000
    C119     C        0.73310    0.67400    0.46610    1.000
    C120     C        0.84480    0.55990    0.58750    1.000
    Ni7      Ni       0.36198    0.23954    0.41389    1.000
    N13      N        0.39290    0.16390    0.38268    1.000
    N14      N        0.22800    0.01400    0.19652    1.000
    O25      O        0.30720    0.19496    0.46158    1.000
    O26      O        0.17050    0.18335    0.44229    1.000
    O27      O        0.42150    0.06860    0.57709    1.000
    O28      O        0.32230    0.03518    0.61977    1.000
    H91      H        0.23000    0.22400    0.36520    1.000
    C121     C        0.47060    0.15630    0.36580    1.000
    H92      H        0.51190    0.18540    0.36940    1.000
    C122     C        0.49320    0.10880    0.34360    1.000
    H93      H        0.54890    0.10580    0.33260    1.000
    C123     C        0.43470    0.06530    0.33726    1.000
    C124     C        0.35390    0.07180    0.35450    1.000
    H94      H        0.31190    0.04320    0.35120    1.000
    C125     C        0.33560    0.12180    0.37680    1.000
    H95      H        0.28050    0.12600    0.38830    1.000
    C126     C        0.45450    0.01310    0.31090    1.000
    H96      H        0.41120    0.98280    0.31580    1.000
    C127     C        0.46520    0.02360    0.26322    1.000
    H97      H        0.49260    0.06140    0.25860    1.000
    C128     C        0.38560    0.01960    0.23790    1.000
    C129     C        0.35980    0.97100    0.21690    1.000
    H98      H        0.39540    0.93840    0.21650    1.000
    C130     C        0.28190    0.97000    0.19670    1.000
    H99      H        0.26630    0.93660    0.18230    1.000
    C131     C        0.25250    0.06110    0.21620    1.000
    H100     H        0.21520    0.09280    0.21610    1.000
    C132     C        0.32920    0.06630    0.23650    1.000
    H101     H        0.34390    0.10100    0.24950    1.000
    C133     C        0.21950    0.13260    0.50090    1.000
    C134     C        0.13740    0.11330    0.51060    1.000
    H102     H        0.09050    0.12650    0.49490    1.000
    C135     C        0.12320    0.07560    0.54200    1.000
    H103     H        0.06800    0.06030    0.54630    1.000
    C136     C        0.19090    0.06000    0.56770    1.000
    H104     H        0.18050    0.03660    0.59080    1.000
    C137     C        0.27360    0.07880    0.55950    1.000
    C138     C        0.28790    0.11440    0.52560    1.000
    H105     H        0.34400    0.12630    0.51930    1.000
    C139     C        0.23310    0.17400    0.46610    1.000
    C140     C        0.34480    0.05990    0.58750    1.000
    Ni8      Ni       0.36198    0.73954    0.91389    1.000
    N15      N        0.39290    0.66390    0.88268    1.000
    N16      N        0.22800    0.51400    0.69652    1.000
    O29      O        0.30720    0.69496    0.96158    1.000
    O30      O        0.17050    0.68335    0.94229    1.000
    O31      O        0.42150    0.56860    0.07709    1.000
    O32      O        0.32230    0.53518    0.11977    1.000
    H106     H        0.23000    0.72400    0.86520    1.000
    C141     C        0.47060    0.65630    0.86580    1.000
    H107     H        0.51190    0.68540    0.86940    1.000
    C142     C        0.49320    0.60880    0.84360    1.000
    H108     H        0.54890    0.60580    0.83260    1.000
    C143     C        0.43470    0.56530    0.83726    1.000
    C144     C        0.35390    0.57180    0.85450    1.000
    H109     H        0.31190    0.54320    0.85120    1.000
    C145     C        0.33560    0.62180    0.87680    1.000
    H110     H        0.28050    0.62600    0.88830    1.000
    C146     C        0.45450    0.51310    0.81090    1.000
    H111     H        0.41120    0.48280    0.81580    1.000
    C147     C        0.46520    0.52360    0.76322    1.000
    H112     H        0.49260    0.56140    0.75860    1.000
    C148     C        0.38560    0.51960    0.73790    1.000
    C149     C        0.35980    0.47100    0.71690    1.000
    H113     H        0.39540    0.43840    0.71650    1.000
    C150     C        0.28190    0.47000    0.69670    1.000
    H114     H        0.26630    0.43660    0.68230    1.000
    C151     C        0.25250    0.56110    0.71620    1.000
    H115     H        0.21520    0.59280    0.71610    1.000
    C152     C        0.32920    0.56630    0.73650    1.000
    H116     H        0.34390    0.60100    0.74950    1.000
    C153     C        0.21950    0.63260    0.00090    1.000
    C154     C        0.13740    0.61330    0.01060    1.000
    H117     H        0.09050    0.62650    0.99490    1.000
    C155     C        0.12320    0.57560    0.04200    1.000
    H118     H        0.06800    0.56030    0.04630    1.000
    C156     C        0.19090    0.56000    0.06770    1.000
    H119     H        0.18050    0.53660    0.09080    1.000
    C157     C        0.27360    0.57880    0.05950    1.000
    C158     C        0.28790    0.61440    0.02560    1.000
    H120     H        0.34400    0.62630    0.01930    1.000
    C159     C        0.23310    0.67400    0.96610    1.000
    C160     C        0.34480    0.55990    0.08750    1.000
    Ni9      Ni       0.38802    0.48954    0.16389    1.000
    N17      N        0.35710    0.41390    0.13268    1.000
    N18      N        0.52200    0.26400    0.94652    1.000
    O33      O        0.44280    0.44496    0.21158    1.000
    O34      O        0.57950    0.43335    0.19229    1.000
    O35      O        0.32850    0.31860    0.32709    1.000
    O36      O        0.42770    0.28518    0.36977    1.000
    H121     H        0.52000    0.47400    0.11520    1.000
    C161     C        0.27940    0.40630    0.11580    1.000
    H122     H        0.23810    0.43540    0.11940    1.000
    C162     C        0.25680    0.35880    0.09360    1.000
    H123     H        0.20110    0.35580    0.08260    1.000
    C163     C        0.31530    0.31530    0.08726    1.000
    C164     C        0.39610    0.32180    0.10450    1.000
    H124     H        0.43810    0.29320    0.10120    1.000
    C165     C        0.41440    0.37180    0.12680    1.000
    H125     H        0.46950    0.37600    0.13830    1.000
    C166     C        0.29550    0.26310    0.06090    1.000
    H126     H        0.33880    0.23280    0.06580    1.000
    C167     C        0.28480    0.27360    0.01322    1.000
    H127     H        0.25740    0.31140    0.00860    1.000
    C168     C        0.36440    0.26960    0.98790    1.000
    C169     C        0.39020    0.22100    0.96690    1.000
    H128     H        0.35460    0.18840    0.96650    1.000
    C170     C        0.46810    0.22000    0.94670    1.000
    H129     H        0.48370    0.18660    0.93230    1.000
    C171     C        0.49750    0.31110    0.96620    1.000
    H130     H        0.53480    0.34280    0.96610    1.000
    C172     C        0.42080    0.31630    0.98650    1.000
    H131     H        0.40610    0.35100    0.99950    1.000
    C173     C        0.53050    0.38260    0.25090    1.000
    C174     C        0.61260    0.36330    0.26060    1.000
    H132     H        0.65950    0.37650    0.24490    1.000
    C175     C        0.62680    0.32560    0.29200    1.000
    H133     H        0.68200    0.31030    0.29630    1.000
    C176     C        0.55910    0.31000    0.31770    1.000
    H134     H        0.56950    0.28660    0.34080    1.000
    C177     C        0.47640    0.32880    0.30950    1.000
    C178     C        0.46210    0.36440    0.27560    1.000
    H135     H        0.40600    0.37630    0.26930    1.000
    C179     C        0.51690    0.42400    0.21610    1.000
    C180     C        0.40520    0.30990    0.33750    1.000
    Ni10     Ni       0.38802    0.98954    0.66389    1.000
    N19      N        0.35710    0.91390    0.63268    1.000
    N20      N        0.52200    0.76400    0.44652    1.000
    O37      O        0.44280    0.94496    0.71158    1.000
    O38      O        0.57950    0.93335    0.69229    1.000
    O39      O        0.32850    0.81860    0.82709    1.000
    O40      O        0.42770    0.78518    0.86977    1.000
    H136     H        0.52000    0.97400    0.61520    1.000
    C181     C        0.27940    0.90630    0.61580    1.000
    H137     H        0.23810    0.93540    0.61940    1.000
    C182     C        0.25680    0.85880    0.59360    1.000
    H138     H        0.20110    0.85580    0.58260    1.000
    C183     C        0.31530    0.81530    0.58726    1.000
    C184     C        0.39610    0.82180    0.60450    1.000
    H139     H        0.43810    0.79320    0.60120    1.000
    C185     C        0.41440    0.87180    0.62680    1.000
    H140     H        0.46950    0.87600    0.63830    1.000
    C186     C        0.29550    0.76310    0.56090    1.000
    H141     H        0.33880    0.73280    0.56580    1.000
    C187     C        0.28480    0.77360    0.51322    1.000
    H142     H        0.25740    0.81140    0.50860    1.000
    C188     C        0.36440    0.76960    0.48790    1.000
    C189     C        0.39020    0.72100    0.46690    1.000
    H143     H        0.35460    0.68840    0.46650    1.000
    C190     C        0.46810    0.72000    0.44670    1.000
    H144     H        0.48370    0.68660    0.43230    1.000
    C191     C        0.49750    0.81110    0.46620    1.000
    H145     H        0.53480    0.84280    0.46610    1.000
    C192     C        0.42080    0.81630    0.48650    1.000
    H146     H        0.40610    0.85100    0.49950    1.000
    C193     C        0.53050    0.88260    0.75090    1.000
    C194     C        0.61260    0.86330    0.76060    1.000
    H147     H        0.65950    0.87650    0.74490    1.000
    C195     C        0.62680    0.82560    0.79200    1.000
    H148     H        0.68200    0.81030    0.79630    1.000
    C196     C        0.55910    0.81000    0.81770    1.000
    H149     H        0.56950    0.78660    0.84080    1.000
    C197     C        0.47640    0.82880    0.80950    1.000
    C198     C        0.46210    0.86440    0.77560    1.000
    H150     H        0.40600    0.87630    0.76930    1.000
    C199     C        0.51690    0.92400    0.71610    1.000
    C200     C        0.40520    0.80990    0.83750    1.000
    Ni11     Ni       0.88802    0.48954    0.66389    1.000
    N21      N        0.85710    0.41390    0.63268    1.000
    N22      N        0.02200    0.26400    0.44652    1.000
    O41      O        0.94280    0.44496    0.71158    1.000
    O42      O        0.07950    0.43335    0.69229    1.000
    O43      O        0.82850    0.31860    0.82709    1.000
    O44      O        0.92770    0.28518    0.86977    1.000
    H151     H        0.02000    0.47400    0.61520    1.000
    C201     C        0.77940    0.40630    0.61580    1.000
    H152     H        0.73810    0.43540    0.61940    1.000
    C202     C        0.75680    0.35880    0.59360    1.000
    H153     H        0.70110    0.35580    0.58260    1.000
    C203     C        0.81530    0.31530    0.58726    1.000
    C204     C        0.89610    0.32180    0.60450    1.000
    H154     H        0.93810    0.29320    0.60120    1.000
    C205     C        0.91440    0.37180    0.62680    1.000
    H155     H        0.96950    0.37600    0.63830    1.000
    C206     C        0.79550    0.26310    0.56090    1.000
    H156     H        0.83880    0.23280    0.56580    1.000
    C207     C        0.78480    0.27360    0.51322    1.000
    H157     H        0.75740    0.31140    0.50860    1.000
    C208     C        0.86440    0.26960    0.48790    1.000
    C209     C        0.89020    0.22100    0.46690    1.000
    H158     H        0.85460    0.18840    0.46650    1.000
    C210     C        0.96810    0.22000    0.44670    1.000
    H159     H        0.98370    0.18660    0.43230    1.000
    C211     C        0.99750    0.31110    0.46620    1.000
    H160     H        0.03480    0.34280    0.46610    1.000
    C212     C        0.92080    0.31630    0.48650    1.000
    H161     H        0.90610    0.35100    0.49950    1.000
    C213     C        0.03050    0.38260    0.75090    1.000
    C214     C        0.11260    0.36330    0.76060    1.000
    H162     H        0.15950    0.37650    0.74490    1.000
    C215     C        0.12680    0.32560    0.79200    1.000
    H163     H        0.18200    0.31030    0.79630    1.000
    C216     C        0.05910    0.31000    0.81770    1.000
    H164     H        0.06950    0.28660    0.84080    1.000
    C217     C        0.97640    0.32880    0.80950    1.000
    C218     C        0.96210    0.36440    0.77560    1.000
    H165     H        0.90600    0.37630    0.76930    1.000
    C219     C        0.01690    0.42400    0.71610    1.000
    C220     C        0.90520    0.30990    0.83750    1.000
    Ni12     Ni       0.88802    0.98954    0.16389    1.000
    N23      N        0.85710    0.91390    0.13268    1.000
    N24      N        0.02200    0.76400    0.94652    1.000
    O45      O        0.94280    0.94496    0.21158    1.000
    O46      O        0.07950    0.93335    0.19229    1.000
    O47      O        0.82850    0.81860    0.32709    1.000
    O48      O        0.92770    0.78518    0.36977    1.000
    H166     H        0.02000    0.97400    0.11520    1.000
    C221     C        0.77940    0.90630    0.11580    1.000
    H167     H        0.73810    0.93540    0.11940    1.000
    C222     C        0.75680    0.85880    0.09360    1.000
    H168     H        0.70110    0.85580    0.08260    1.000
    C223     C        0.81530    0.81530    0.08726    1.000
    C224     C        0.89610    0.82180    0.10450    1.000
    H169     H        0.93810    0.79320    0.10120    1.000
    C225     C        0.91440    0.87180    0.12680    1.000
    H170     H        0.96950    0.87600    0.13830    1.000
    C226     C        0.79550    0.76310    0.06090    1.000
    H171     H        0.83880    0.73280    0.06580    1.000
    C227     C        0.78480    0.77360    0.01322    1.000
    H172     H        0.75740    0.81140    0.00860    1.000
    C228     C        0.86440    0.76960    0.98790    1.000
    C229     C        0.89020    0.72100    0.96690    1.000
    H173     H        0.85460    0.68840    0.96650    1.000
    C230     C        0.96810    0.72000    0.94670    1.000
    H174     H        0.98370    0.68660    0.93230    1.000
    C231     C        0.99750    0.81110    0.96620    1.000
    H175     H        0.03480    0.84280    0.96610    1.000
    C232     C        0.92080    0.81630    0.98650    1.000
    H176     H        0.90610    0.85100    0.99950    1.000
    C233     C        0.03050    0.88260    0.25090    1.000
    C234     C        0.11260    0.86330    0.26060    1.000
    H177     H        0.15950    0.87650    0.24490    1.000
    C235     C        0.12680    0.82560    0.29200    1.000
    H178     H        0.18200    0.81030    0.29630    1.000
    C236     C        0.05910    0.81000    0.31770    1.000
    H179     H        0.06950    0.78660    0.34080    1.000
    C237     C        0.97640    0.82880    0.30950    1.000
    C238     C        0.96210    0.86440    0.27560    1.000
    H180     H        0.90600    0.87630    0.26930    1.000
    C239     C        0.01690    0.92400    0.21610    1.000
    C240     C        0.90520    0.80990    0.33750    1.000
    Ni13     Ni       0.11198    0.01046    0.16389    1.000
    N25      N        0.14290    0.08610    0.13268    1.000
    N26      N        0.97800    0.23600    0.94652    1.000
    O49      O        0.05720    0.05504    0.21158    1.000
    O50      O        0.92050    0.06665    0.19229    1.000
    O51      O        0.17150    0.18140    0.32709    1.000
    O52      O        0.07230    0.21482    0.36977    1.000
    H181     H        0.98000    0.02600    0.11520    1.000
    C241     C        0.22060    0.09370    0.11580    1.000
    H182     H        0.26190    0.06460    0.11940    1.000
    C242     C        0.24320    0.14120    0.09360    1.000
    H183     H        0.29890    0.14420    0.08260    1.000
    C243     C        0.18470    0.18470    0.08726    1.000
    C244     C        0.10390    0.17820    0.10450    1.000
    H184     H        0.06190    0.20680    0.10120    1.000
    C245     C        0.08560    0.12820    0.12680    1.000
    H185     H        0.03050    0.12400    0.13830    1.000
    C246     C        0.20450    0.23690    0.06090    1.000
    H186     H        0.16120    0.26720    0.06580    1.000
    C247     C        0.21520    0.22640    0.01322    1.000
    H187     H        0.24260    0.18860    0.00860    1.000
    C248     C        0.13560    0.23040    0.98790    1.000
    C249     C        0.10980    0.27900    0.96690    1.000
    H188     H        0.14540    0.31160    0.96650    1.000
    C250     C        0.03190    0.28000    0.94670    1.000
    H189     H        0.01630    0.31340    0.93230    1.000
    C251     C        0.00250    0.18890    0.96620    1.000
    H190     H        0.96520    0.15720    0.96610    1.000
    C252     C        0.07920    0.18370    0.98650    1.000
    H191     H        0.09390    0.14900    0.99950    1.000
    C253     C        0.96950    0.11740    0.25090    1.000
    C254     C        0.88740    0.13670    0.26060    1.000
    H192     H        0.84050    0.12350    0.24490    1.000
    C255     C        0.87320    0.17440    0.29200    1.000
    H193     H        0.81800    0.18970    0.29630    1.000
    C256     C        0.94090    0.19000    0.31770    1.000
    H194     H        0.93050    0.21340    0.34080    1.000
    C257     C        0.02360    0.17120    0.30950    1.000
    C258     C        0.03790    0.13560    0.27560    1.000
    H195     H        0.09400    0.12370    0.26930    1.000
    C259     C        0.98310    0.07600    0.21610    1.000
    C260     C        0.09480    0.19010    0.33750    1.000
    Ni14     Ni       0.11198    0.51046    0.66389    1.000
    N27      N        0.14290    0.58610    0.63268    1.000
    N28      N        0.97800    0.73600    0.44652    1.000
    O53      O        0.05720    0.55504    0.71158    1.000
    O54      O        0.92050    0.56665    0.69229    1.000
    O55      O        0.17150    0.68140    0.82709    1.000
    O56      O        0.07230    0.71482    0.86977    1.000
    H196     H        0.98000    0.52600    0.61520    1.000
    C261     C        0.22060    0.59370    0.61580    1.000
    H197     H        0.26190    0.56460    0.61940    1.000
    C262     C        0.24320    0.64120    0.59360    1.000
    H198     H        0.29890    0.64420    0.58260    1.000
    C263     C        0.18470    0.68470    0.58726    1.000
    C264     C        0.10390    0.67820    0.60450    1.000
    H199     H        0.06190    0.70680    0.60120    1.000
    C265     C        0.08560    0.62820    0.62680    1.000
    H200     H        0.03050    0.62400    0.63830    1.000
    C266     C        0.20450    0.73690    0.56090    1.000
    H201     H        0.16120    0.76720    0.56580    1.000
    C267     C        0.21520    0.72640    0.51322    1.000
    H202     H        0.24260    0.68860    0.50860    1.000
    C268     C        0.13560    0.73040    0.48790    1.000
    C269     C        0.10980    0.77900    0.46690    1.000
    H203     H        0.14540    0.81160    0.46650    1.000
    C270     C        0.03190    0.78000    0.44670    1.000
    H204     H        0.01630    0.81340    0.43230    1.000
    C271     C        0.00250    0.68890    0.46620    1.000
    H205     H        0.96520    0.65720    0.46610    1.000
    C272     C        0.07920    0.68370    0.48650    1.000
    H206     H        0.09390    0.64900    0.49950    1.000
    C273     C        0.96950    0.61740    0.75090    1.000
    C274     C        0.88740    0.63670    0.76060    1.000
    H207     H        0.84050    0.62350    0.74490    1.000
    C275     C        0.87320    0.67440    0.79200    1.000
    H208     H        0.81800    0.68970    0.79630    1.000
    C276     C        0.94090    0.69000    0.81770    1.000
    H209     H        0.93050    0.71340    0.84080    1.000
    C277     C        0.02360    0.67120    0.80950    1.000
    C278     C        0.03790    0.63560    0.77560    1.000
    H210     H        0.09400    0.62370    0.76930    1.000
    C279     C        0.98310    0.57600    0.71610    1.000
    C280     C        0.09480    0.69010    0.83750    1.000
    Ni15     Ni       0.61198    0.01046    0.66389    1.000
    N29      N        0.64290    0.08610    0.63268    1.000
    N30      N        0.47800    0.23600    0.44652    1.000
    O57      O        0.55720    0.05504    0.71158    1.000
    O58      O        0.42050    0.06665    0.69229    1.000
    O59      O        0.67150    0.18140    0.82709    1.000
    O60      O        0.57230    0.21482    0.86977    1.000
    H211     H        0.48000    0.02600    0.61520    1.000
    C281     C        0.72060    0.09370    0.61580    1.000
    H212     H        0.76190    0.06460    0.61940    1.000
    C282     C        0.74320    0.14120    0.59360    1.000
    H213     H        0.79890    0.14420    0.58260    1.000
    C283     C        0.68470    0.18470    0.58726    1.000
    C284     C        0.60390    0.17820    0.60450    1.000
    H214     H        0.56190    0.20680    0.60120    1.000
    C285     C        0.58560    0.12820    0.62680    1.000
    H215     H        0.53050    0.12400    0.63830    1.000
    C286     C        0.70450    0.23690    0.56090    1.000
    H216     H        0.66120    0.26720    0.56580    1.000
    C287     C        0.71520    0.22640    0.51322    1.000
    H217     H        0.74260    0.18860    0.50860    1.000
    C288     C        0.63560    0.23040    0.48790    1.000
    C289     C        0.60980    0.27900    0.46690    1.000
    H218     H        0.64540    0.31160    0.46650    1.000
    C290     C        0.53190    0.28000    0.44670    1.000
    H219     H        0.51630    0.31340    0.43230    1.000
    C291     C        0.50250    0.18890    0.46620    1.000
    H220     H        0.46520    0.15720    0.46610    1.000
    C292     C        0.57920    0.18370    0.48650    1.000
    H221     H        0.59390    0.14900    0.49950    1.000
    C293     C        0.46950    0.11740    0.75090    1.000
    C294     C        0.38740    0.13670    0.76060    1.000
    H222     H        0.34050    0.12350    0.74490    1.000
    C295     C        0.37320    0.17440    0.79200    1.000
    H223     H        0.31800    0.18970    0.79630    1.000
    C296     C        0.44090    0.19000    0.81770    1.000
    H224     H        0.43050    0.21340    0.84080    1.000
    C297     C        0.52360    0.17120    0.80950    1.000
    C298     C        0.53790    0.13560    0.77560    1.000
    H225     H        0.59400    0.12370    0.76930    1.000
    C299     C        0.48310    0.07600    0.71610    1.000
    C300     C        0.59480    0.19010    0.83750    1.000
    Ni16     Ni       0.61198    0.51046    0.16389    1.000
    N31      N        0.64290    0.58610    0.13268    1.000
    N32      N        0.47800    0.73600    0.94652    1.000
    O61      O        0.55720    0.55504    0.21158    1.000
    O62      O        0.42050    0.56665    0.19229    1.000
    O63      O        0.67150    0.68140    0.32709    1.000
    O64      O        0.57230    0.71482    0.36977    1.000
    H226     H        0.48000    0.52600    0.11520    1.000
    C301     C        0.72060    0.59370    0.11580    1.000
    H227     H        0.76190    0.56460    0.11940    1.000
    C302     C        0.74320    0.64120    0.09360    1.000
    H228     H        0.79890    0.64420    0.08260    1.000
    C303     C        0.68470    0.68470    0.08726    1.000
    C304     C        0.60390    0.67820    0.10450    1.000
    H229     H        0.56190    0.70680    0.10120    1.000
    C305     C        0.58560    0.62820    0.12680    1.000
    H230     H        0.53050    0.62400    0.13830    1.000
    C306     C        0.70450    0.73690    0.06090    1.000
    H231     H        0.66120    0.76720    0.06580    1.000
    C307     C        0.71520    0.72640    0.01322    1.000
    H232     H        0.74260    0.68860    0.00860    1.000
    C308     C        0.63560    0.73040    0.98790    1.000
    C309     C        0.60980    0.77900    0.96690    1.000
    H233     H        0.64540    0.81160    0.96650    1.000
    C310     C        0.53190    0.78000    0.94670    1.000
    H234     H        0.51630    0.81340    0.93230    1.000
    C311     C        0.50250    0.68890    0.96620    1.000
    H235     H        0.46520    0.65720    0.96610    1.000
    C312     C        0.57920    0.68370    0.98650    1.000
    H236     H        0.59390    0.64900    0.99950    1.000
    C313     C        0.46950    0.61740    0.25090    1.000
    C314     C        0.38740    0.63670    0.26060    1.000
    H237     H        0.34050    0.62350    0.24490    1.000
    C315     C        0.37320    0.67440    0.29200    1.000
    H238     H        0.31800    0.68970    0.29630    1.000
    C316     C        0.44090    0.69000    0.31770    1.000
    H239     H        0.43050    0.71340    0.34080    1.000
    C317     C        0.52360    0.67120    0.30950    1.000
    C318     C        0.53790    0.63560    0.27560    1.000
    H240     H        0.59400    0.62370    0.26930    1.000
    C319     C        0.48310    0.57600    0.21610    1.000
    C320     C        0.59480    0.69010    0.33750    1.000
    O65      O        0.25000    0.75000    0.87800    1.000
    O66      O        0.25000    0.25000    0.37800    1.000
    O67      O        0.75000    0.25000    0.87800    1.000
    O68      O        0.75000    0.75000    0.37800    1.000
    O69      O        0.50000    0.50000    0.12800    1.000
    O70      O        0.50000    0.00000    0.62800    1.000
    O71      O        0.00000    0.00000    0.12800    1.000
    O72      O        0.00000    0.50000    0.62800    1.000
