data_functionalizedCrystal
_audit_creation_method	'EQeq! by Chris Wilmer'
_symmetry_space_group_name_H-M	'P1'
_symmetry_Int_Tables_number	1
_symmetry_cell_setting	triclinic
loop_
_symmetry_equiv_pos_as_xyz
  x,y,z
_cell_length_a	11.441
_cell_length_b	11.441
_cell_length_c	46.83
_cell_angle_alpha	90
_cell_angle_beta	90
_cell_angle_gamma	120
loop_
_atom_site_label
_atom_site_type_symbol
_atom_site_fract_x
_atom_site_fract_y
_atom_site_fract_z
_atom_site_charge
Mof_Zn	Zn	0.9814	0.9956	-0	1.212
Mof_Zn	Zn	0.3232	0.6747	0.9129	1.215
Mof_P 	P 	0.9794	0.9944	0.0519	-0.054
Mof_P 	P 	0.3192	0.6615	0.9642	-0.046
Mof_C 	C 	0.1495	0.0809	0.0683	0.034
Mof_C 	C 	0.2459	0.0409	0.0544	-0.048
Mof_C 	C 	0.3795	0.1098	0.0703	0.317
Mof_O 	O 	0.4695	0.2282	0.0618	-0.407
Mof_O 	O 	0.4012	0.0504	0.0906	-0.25
Mof_C 	C 	0.8992	0.8259	0.0693	0.015
Mof_C 	C 	0.7684	0.7221	0.0531	-0.061
Mof_C 	C 	0.7045	0.5883	0.0679	0.335
Mof_O 	O 	0.7281	0.4972	0.059	-0.411
Mof_O 	O 	0.632	0.5708	0.0892	-0.272
Mof_C 	C 	0.8906	0.0754	0.0682	0.029
Mof_C 	C 	0.9404	0.2165	0.0548	-0.059
Mof_C 	C 	0.8613	0.28	0.0683	0.322
Mof_O 	O 	0.7344	0.2258	0.0642	-0.413
Mof_O 	O 	0.9255	0.3849	0.0829	-0.273
Mof_C 	C 	0.2756	0.498	0.98	0.027
Mof_C 	C 	0.1328	0.3878	0.9749	-0.055
Mof_C 	C 	0.1001	0.2556	0.9881	0.346
Mof_O 	O 	0.9887	0.1513	0.9802	-0.415
Mof_O 	O 	0.1737	0.248	0.0056	-0.305
Mof_C 	C 	0.2016	0.6985	0.983	0.03
Mof_C 	C 	0.2311	0.8451	0.9775	-0.057
Mof_C 	C 	0.1295	0.8732	0.9912	0.321
Mof_O 	O 	0.1309	0.979	0.9824	-0.396
Mof_O 	O 	0.0415	0.7913	0.0079	-0.27
Mof_C 	C 	0.4754	0.7765	0.9815	0.021
Mof_C 	C 	0.5863	0.7458	0.9741	-0.053
Mof_C 	C 	0.7213	0.8465	0.9884	0.326
Mof_O 	O 	0.8264	0.8471	0.9798	-0.406
Mof_O 	O 	0.7251	0.9227	0.0076	-0.3
Mof_Zn	Zn	0.0044	0.9858	0.33333	1.212
Mof_Zn	Zn	0.3253	0.6485	0.24623	1.214
Mof_P 	P 	0.0056	0.985	0.38523	-0.052
Mof_P 	P 	0.3385	0.6577	0.29753	-0.047
Mof_C 	C 	0.9191	0.0686	0.40163	0.028
Mof_C 	C 	0.9591	0.205	0.38773	-0.046
Mof_C 	C 	0.8902	0.2697	0.40363	0.316
Mof_O 	O 	0.7718	0.2413	0.39513	-0.405
Mof_O 	O 	0.9496	0.3508	0.42393	-0.251
Mof_C 	C 	0.1741	0.0733	0.40263	0.02
Mof_C 	C 	0.2779	0.0463	0.38643	-0.056
Mof_C 	C 	0.4117	0.1162	0.40123	0.335
Mof_O 	O 	0.5028	0.2309	0.39233	-0.408
Mof_O 	O 	0.4292	0.0612	0.42253	-0.272
Mof_C 	C 	0.9246	0.8152	0.40153	0.03
Mof_C 	C 	0.7835	0.7239	0.38813	-0.052
Mof_C 	C 	0.72	0.5813	0.40163	0.321
Mof_O 	O 	0.7742	0.5086	0.39753	-0.411
Mof_O 	O 	0.6151	0.5406	0.41623	-0.269
Mof_C 	C 	0.502	0.7776	0.31333	0.024
Mof_C 	C 	0.6122	0.745	0.30823	-0.056
Mof_C 	C 	0.7444	0.8445	0.32143	0.326
Mof_O 	O 	0.8487	0.8374	0.31353	-0.397
Mof_O 	O 	0.752	0.9257	0.33893	-0.305
Mof_C 	C 	0.3015	0.5031	0.31633	0.027
Mof_C 	C 	0.1549	0.386	0.31083	-0.057
Mof_C 	C 	0.1268	0.2563	0.32453	0.32
Mof_O 	O 	0.021	0.1519	0.31573	-0.397
Mof_O 	O 	0.2087	0.2502	0.34123	-0.276
Mof_C 	C 	0.2235	0.6989	0.31483	0.02
Mof_C 	C 	0.2542	0.8405	0.30743	-0.054
Mof_C 	C 	0.1535	0.8748	0.32173	0.325
Mof_O 	O 	0.1529	0.9793	0.31313	-0.406
Mof_O 	O 	0.0773	0.8024	0.34093	-0.3
Mof_Zn	Zn	0.0142	0.0186	0.66667	1.211
Mof_Zn	Zn	0.3515	0.6768	0.57957	1.214
Mof_P 	P 	0.015	0.0206	0.71857	-0.042
Mof_P 	P 	0.3423	0.6808	0.63087	-0.047
Mof_C 	C 	0.9314	0.8505	0.73497	0.028
Mof_C 	C 	0.795	0.7541	0.72107	-0.051
Mof_C 	C 	0.7303	0.6205	0.73697	0.317
Mof_O 	O 	0.7587	0.5305	0.72847	-0.407
Mof_O 	O 	0.6492	0.5988	0.75727	-0.254
Mof_C 	C 	0.9267	0.1008	0.73597	0.017
Mof_C 	C 	0.9537	0.2316	0.71977	-0.057
Mof_C 	C 	0.8838	0.2955	0.73457	0.335
Mof_O 	O 	0.7691	0.2719	0.72567	-0.41
Mof_O 	O 	0.9388	0.368	0.75587	-0.272
Mof_C 	C 	0.1848	0.1094	0.73487	0.018
Mof_C 	C 	0.2761	0.0596	0.72147	-0.058
Mof_C 	C 	0.4187	0.1387	0.73497	0.321
Mof_O 	O 	0.4914	0.2656	0.73087	-0.414
Mof_O 	O 	0.4594	0.0745	0.74957	-0.272
Mof_C 	C 	0.2224	0.7244	0.64667	0.026
Mof_C 	C 	0.255	0.8672	0.64157	-0.055
Mof_C 	C 	0.1555	0.8999	0.65477	0.346
Mof_O 	O 	0.1626	0.0113	0.64687	-0.418
Mof_O 	O 	0.0743	0.8263	0.67227	-0.307
Mof_C 	C 	0.4969	0.7984	0.64967	0.031
Mof_C 	C 	0.614	0.7689	0.64417	-0.054
Mof_C 	C 	0.7437	0.8705	0.65787	0.32
Mof_O 	O 	0.8481	0.8691	0.64907	-0.39
Mof_O 	O 	0.7498	0.9585	0.67457	-0.266
Mof_C 	C 	0.3011	0.5246	0.64817	0.023
Mof_C 	C 	0.1595	0.4137	0.64077	-0.054
Mof_C 	C 	0.1252	0.2787	0.65507	0.326
Mof_O 	O 	0.0207	0.1736	0.64647	-0.408
Mof_O 	O 	0.1976	0.2749	0.67427	-0.296
Mof_Zn	Zn	0.0186	0.0044	0.5	1.211
Mof_Zn	Zn	0.6768	0.3253	0.4129	1.214
Mof_P 	P 	0.0206	0.0056	0.5519	-0.054
Mof_P 	P 	0.6808	0.3385	0.4642	-0.047
Mof_C 	C 	0.8505	0.9191	0.5683	0.033
Mof_C 	C 	0.7541	0.9591	0.5544	-0.048
Mof_C 	C 	0.6205	0.8902	0.5703	0.317
Mof_O 	O 	0.5305	0.7718	0.5618	-0.407
Mof_O 	O 	0.5988	0.9496	0.5906	-0.25
Mof_C 	C 	0.1008	0.1741	0.5693	0.015
Mof_C 	C 	0.2316	0.2779	0.5531	-0.061
Mof_C 	C 	0.2955	0.4117	0.5679	0.335
Mof_O 	O 	0.2719	0.5028	0.559	-0.411
Mof_O 	O 	0.368	0.4292	0.5892	-0.272
Mof_C 	C 	0.1094	0.9246	0.5682	0.029
Mof_C 	C 	0.0596	0.7835	0.5548	-0.059
Mof_C 	C 	0.1387	0.72	0.5683	0.322
Mof_O 	O 	0.2656	0.7742	0.5642	-0.413
Mof_O 	O 	0.0745	0.6151	0.5829	-0.273
Mof_C 	C 	0.7244	0.502	0.48	0.027
Mof_C 	C 	0.8672	0.6122	0.4749	-0.055
Mof_C 	C 	0.8999	0.7444	0.4881	0.345
Mof_O 	O 	0.0113	0.8487	0.4802	-0.415
Mof_O 	O 	0.8263	0.752	0.5056	-0.304
Mof_C 	C 	0.7984	0.3015	0.483	0.03
Mof_C 	C 	0.7689	0.1549	0.4775	-0.057
Mof_C 	C 	0.8705	0.1268	0.4912	0.32
Mof_O 	O 	0.8691	0.021	0.4824	-0.396
Mof_O 	O 	0.9585	0.2087	0.5079	-0.269
Mof_C 	C 	0.5246	0.2235	0.4815	0.021
Mof_C 	C 	0.4137	0.2542	0.4741	-0.053
Mof_C 	C 	0.2787	0.1535	0.4884	0.326
Mof_O 	O 	0.1736	0.1529	0.4798	-0.406
Mof_O 	O 	0.2749	0.0773	0.5076	-0.299
Mof_Zn	Zn	0.9956	0.0142	0.83333	1.212
Mof_Zn	Zn	0.6747	0.3515	0.74623	1.214
Mof_P 	P 	0.9944	0.015	0.88523	-0.052
Mof_P 	P 	0.6615	0.3423	0.79753	-0.047
Mof_C 	C 	0.0809	0.9314	0.90163	0.028
Mof_C 	C 	0.0409	0.795	0.88773	-0.046
Mof_C 	C 	0.1098	0.7303	0.90363	0.316
Mof_O 	O 	0.2282	0.7587	0.89513	-0.405
Mof_O 	O 	0.0504	0.6492	0.92393	-0.251
Mof_C 	C 	0.8259	0.9267	0.90263	0.02
Mof_C 	C 	0.7221	0.9537	0.88643	-0.056
Mof_C 	C 	0.5883	0.8838	0.90123	0.335
Mof_O 	O 	0.4972	0.7691	0.89233	-0.408
Mof_O 	O 	0.5708	0.9388	0.92253	-0.272
Mof_C 	C 	0.0754	0.1848	0.90153	0.03
Mof_C 	C 	0.2165	0.2761	0.88813	-0.052
Mof_C 	C 	0.28	0.4187	0.90163	0.321
Mof_O 	O 	0.2258	0.4914	0.89753	-0.411
Mof_O 	O 	0.3849	0.4594	0.91623	-0.269
Mof_C 	C 	0.498	0.2224	0.81333	0.024
Mof_C 	C 	0.3878	0.255	0.80823	-0.056
Mof_C 	C 	0.2556	0.1555	0.82143	0.326
Mof_O 	O 	0.1513	0.1626	0.81353	-0.397
Mof_O 	O 	0.248	0.0743	0.83893	-0.305
Mof_C 	C 	0.6985	0.4969	0.81633	0.027
Mof_C 	C 	0.8451	0.614	0.81083	-0.057
Mof_C 	C 	0.8732	0.7437	0.82453	0.32
Mof_O 	O 	0.979	0.8481	0.81573	-0.397
Mof_O 	O 	0.7913	0.7498	0.84123	-0.276
Mof_C 	C 	0.7765	0.3011	0.81483	0.02
Mof_C 	C 	0.7458	0.1595	0.80743	-0.054
Mof_C 	C 	0.8465	0.1252	0.82173	0.325
Mof_O 	O 	0.8471	0.0207	0.81313	-0.406
Mof_O 	O 	0.9227	0.1976	0.84093	-0.3
Mof_Zn	Zn	0.9858	0.9814	0.16667	1.211
Mof_Zn	Zn	0.6485	0.3232	0.07957	1.214
Mof_P 	P 	0.985	0.9794	0.21857	-0.042
Mof_P 	P 	0.6577	0.3192	0.13087	-0.047
Mof_C 	C 	0.0686	0.1495	0.23497	0.028
Mof_C 	C 	0.205	0.2459	0.22107	-0.051
Mof_C 	C 	0.2697	0.3795	0.23697	0.317
Mof_O 	O 	0.2413	0.4695	0.22847	-0.407
Mof_O 	O 	0.3508	0.4012	0.25727	-0.254
Mof_C 	C 	0.0733	0.8992	0.23597	0.017
Mof_C 	C 	0.0463	0.7684	0.21977	-0.057
Mof_C 	C 	0.1162	0.7045	0.23457	0.335
Mof_O 	O 	0.2309	0.7281	0.22567	-0.41
Mof_O 	O 	0.0612	0.632	0.25587	-0.272
Mof_C 	C 	0.8152	0.8906	0.23487	0.019
Mof_C 	C 	0.7239	0.9404	0.22147	-0.058
Mof_C 	C 	0.5813	0.8613	0.23497	0.321
Mof_O 	O 	0.5086	0.7344	0.23087	-0.414
Mof_O 	O 	0.5406	0.9255	0.24957	-0.272
Mof_C 	C 	0.7776	0.2756	0.14667	0.026
Mof_C 	C 	0.745	0.1328	0.14157	-0.055
Mof_C 	C 	0.8445	0.1001	0.15477	0.346
Mof_O 	O 	0.8374	0.9887	0.14687	-0.418
Mof_O 	O 	0.9257	0.1737	0.17227	-0.307
Mof_C 	C 	0.5031	0.2016	0.14967	0.031
Mof_C 	C 	0.386	0.2311	0.14417	-0.054
Mof_C 	C 	0.2563	0.1295	0.15787	0.32
Mof_O 	O 	0.1519	0.1309	0.14907	-0.39
Mof_O 	O 	0.2502	0.0415	0.17457	-0.266
Mof_C 	C 	0.6989	0.4754	0.14817	0.023
Mof_C 	C 	0.8405	0.5863	0.14077	-0.054
Mof_C 	C 	0.8748	0.7213	0.15507	0.326
Mof_O 	O 	0.9793	0.8264	0.14647	-0.408
Mof_O 	O 	0.8024	0.7251	0.17427	-0.296
_end
