# CIF file generated by openbabel 3.1.0, see https://openbabel.org
data_I
_chemical_name_common 'image0'
_cell_length_a 17.16
_cell_length_b 17.16
_cell_length_c 17.16
_cell_angle_alpha 90
_cell_angle_beta 90
_cell_angle_gamma 90
_space_group_name_H-M_alt 'P 1'
_space_group_name_Hall 'P 1'
loop_
    _symmetry_equiv_pos_as_xyz
    x,y,z
loop_
    _atom_site_label
    _atom_site_type_symbol
    _atom_site_fract_x
    _atom_site_fract_y
    _atom_site_fract_z
    _atom_site_occupancy
    N1       N        0.67850    0.21690    0.01820    1.000
    C1       C        0.80210    0.35500    0.94310    1.000
    C2       C        0.69900    0.32600    0.93810    1.000
    C3       C        0.63300    0.27660    0.90400    1.000
    H1       H        0.76370    0.30070    0.04520    1.000
    H2       H        0.68780    0.38840    0.93200    1.000
    H3       H        0.75350    0.31240    0.90750    1.000
    H4       H        0.63510    0.27300    0.84050    1.000
    H5       H        0.57670    0.30130    0.92100    1.000
    H6       H        0.83470    0.40920    0.95000    1.000
    H7       H        0.83790    0.31290    0.91110    1.000
    H8       H        0.65970    0.19350    0.07120    1.000
    N2       N        0.32150    0.78310    0.01820    1.000
    C4       C        0.19790    0.64500    0.94310    1.000
    C5       C        0.30100    0.67400    0.93810    1.000
    C6       C        0.36700    0.72340    0.90400    1.000
    H9       H        0.23630    0.69930    0.04520    1.000
    H10      H        0.31220    0.61160    0.93200    1.000
    H11      H        0.24650    0.68760    0.90750    1.000
    H12      H        0.36490    0.72700    0.84050    1.000
    H13      H        0.42330    0.69870    0.92100    1.000
    H14      H        0.16530    0.59080    0.95000    1.000
    H15      H        0.16210    0.68710    0.91110    1.000
    H16      H        0.34030    0.80650    0.07120    1.000
    N3       N        0.32150    0.21690    0.98180    1.000
    C7       C        0.19790    0.35500    0.05690    1.000
    C8       C        0.30100    0.32600    0.06190    1.000
    C9       C        0.36700    0.27660    0.09600    1.000
    H17      H        0.23630    0.30070    0.95480    1.000
    H18      H        0.31220    0.38840    0.06800    1.000
    H19      H        0.24650    0.31240    0.09250    1.000
    H20      H        0.36490    0.27300    0.15950    1.000
    H21      H        0.42330    0.30130    0.07900    1.000
    H22      H        0.16530    0.40920    0.05000    1.000
    H23      H        0.16210    0.31290    0.08890    1.000
    H24      H        0.34030    0.19350    0.92880    1.000
    N4       N        0.67850    0.78310    0.98180    1.000
    C10      C        0.80210    0.64500    0.05690    1.000
    C11      C        0.69900    0.67400    0.06190    1.000
    C12      C        0.63300    0.72340    0.09600    1.000
    H25      H        0.76370    0.69930    0.95480    1.000
    H26      H        0.68780    0.61160    0.06800    1.000
    H27      H        0.75350    0.68760    0.09250    1.000
    H28      H        0.63510    0.72700    0.15950    1.000
    H29      H        0.57670    0.69870    0.07900    1.000
    H30      H        0.83470    0.59080    0.05000    1.000
    H31      H        0.83790    0.68710    0.08890    1.000
    H32      H        0.65970    0.80650    0.92880    1.000
    N5       N        0.01820    0.67850    0.21690    1.000
    C13      C        0.94310    0.80210    0.35500    1.000
    C14      C        0.93810    0.69900    0.32600    1.000
    C15      C        0.90400    0.63300    0.27660    1.000
    H33      H        0.04520    0.76370    0.30070    1.000
    H34      H        0.93200    0.68780    0.38840    1.000
    H35      H        0.90750    0.75350    0.31240    1.000
    H36      H        0.84050    0.63510    0.27300    1.000
    H37      H        0.92100    0.57670    0.30130    1.000
    H38      H        0.95000    0.83470    0.40920    1.000
    H39      H        0.91110    0.83790    0.31290    1.000
    H40      H        0.07120    0.65970    0.19350    1.000
    N6       N        0.01820    0.32150    0.78310    1.000
    C16      C        0.94310    0.19790    0.64500    1.000
    C17      C        0.93810    0.30100    0.67400    1.000
    C18      C        0.90400    0.36700    0.72340    1.000
    H41      H        0.04520    0.23630    0.69930    1.000
    H42      H        0.93200    0.31220    0.61160    1.000
    H43      H        0.90750    0.24650    0.68760    1.000
    H44      H        0.84050    0.36490    0.72700    1.000
    H45      H        0.92100    0.42330    0.69870    1.000
    H46      H        0.95000    0.16530    0.59080    1.000
    H47      H        0.91110    0.16210    0.68710    1.000
    H48      H        0.07120    0.34030    0.80650    1.000
    N7       N        0.98180    0.32150    0.21690    1.000
    C19      C        0.05690    0.19790    0.35500    1.000
    C20      C        0.06190    0.30100    0.32600    1.000
    C21      C        0.09600    0.36700    0.27660    1.000
    H49      H        0.95480    0.23630    0.30070    1.000
    H50      H        0.06800    0.31220    0.38840    1.000
    H51      H        0.09250    0.24650    0.31240    1.000
    H52      H        0.15950    0.36490    0.27300    1.000
    H53      H        0.07900    0.42330    0.30130    1.000
    H54      H        0.05000    0.16530    0.40920    1.000
    H55      H        0.08890    0.16210    0.31290    1.000
    H56      H        0.92880    0.34030    0.19350    1.000
    N8       N        0.98180    0.67850    0.78310    1.000
    C22      C        0.05690    0.80210    0.64500    1.000
    C23      C        0.06190    0.69900    0.67400    1.000
    C24      C        0.09600    0.63300    0.72340    1.000
    H57      H        0.95480    0.76370    0.69930    1.000
    H58      H        0.06800    0.68780    0.61160    1.000
    H59      H        0.09250    0.75350    0.68760    1.000
    H60      H        0.15950    0.63510    0.72700    1.000
    H61      H        0.07900    0.57670    0.69870    1.000
    H62      H        0.05000    0.83470    0.59080    1.000
    H63      H        0.08890    0.83790    0.68710    1.000
    H64      H        0.92880    0.65970    0.80650    1.000
    N9       N        0.21690    0.01820    0.67850    1.000
    C25      C        0.35500    0.94310    0.80210    1.000
    C26      C        0.32600    0.93810    0.69900    1.000
    C27      C        0.27660    0.90400    0.63300    1.000
    H65      H        0.30070    0.04520    0.76370    1.000
    H66      H        0.38840    0.93200    0.68780    1.000
    H67      H        0.31240    0.90750    0.75350    1.000
    H68      H        0.27300    0.84050    0.63510    1.000
    H69      H        0.30130    0.92100    0.57670    1.000
    H70      H        0.40920    0.95000    0.83470    1.000
    H71      H        0.31290    0.91110    0.83790    1.000
    H72      H        0.19350    0.07120    0.65970    1.000
    N10      N        0.78310    0.01820    0.32150    1.000
    C28      C        0.64500    0.94310    0.19790    1.000
    C29      C        0.67400    0.93810    0.30100    1.000
    C30      C        0.72340    0.90400    0.36700    1.000
    H73      H        0.69930    0.04520    0.23630    1.000
    H74      H        0.61160    0.93200    0.31220    1.000
    H75      H        0.68760    0.90750    0.24650    1.000
    H76      H        0.72700    0.84050    0.36490    1.000
    H77      H        0.69870    0.92100    0.42330    1.000
    H78      H        0.59080    0.95000    0.16530    1.000
    H79      H        0.68710    0.91110    0.16210    1.000
    H80      H        0.80650    0.07120    0.34030    1.000
    N11      N        0.21690    0.98180    0.32150    1.000
    C31      C        0.35500    0.05690    0.19790    1.000
    C32      C        0.32600    0.06190    0.30100    1.000
    C33      C        0.27660    0.09600    0.36700    1.000
    H81      H        0.30070    0.95480    0.23630    1.000
    H82      H        0.38840    0.06800    0.31220    1.000
    H83      H        0.31240    0.09250    0.24650    1.000
    H84      H        0.27300    0.15950    0.36490    1.000
    H85      H        0.30130    0.07900    0.42330    1.000
    H86      H        0.40920    0.05000    0.16530    1.000
    H87      H        0.31290    0.08890    0.16210    1.000
    H88      H        0.19350    0.92880    0.34030    1.000
    N12      N        0.78310    0.98180    0.67850    1.000
    C34      C        0.64500    0.05690    0.80210    1.000
    C35      C        0.67400    0.06190    0.69900    1.000
    C36      C        0.72340    0.09600    0.63300    1.000
    H89      H        0.69930    0.95480    0.76370    1.000
    H90      H        0.61160    0.06800    0.68780    1.000
    H91      H        0.68760    0.09250    0.75350    1.000
    H92      H        0.72700    0.15950    0.63510    1.000
    H93      H        0.69870    0.07900    0.57670    1.000
    H94      H        0.59080    0.05000    0.83470    1.000
    H95      H        0.68710    0.08890    0.83790    1.000
    H96      H        0.80650    0.92880    0.65970    1.000
    N13      N        0.21690    0.67850    0.01820    1.000
    C37      C        0.35500    0.80210    0.94310    1.000
    C38      C        0.32600    0.69900    0.93810    1.000
    C39      C        0.27660    0.63300    0.90400    1.000
    H97      H        0.30070    0.76370    0.04520    1.000
    H98      H        0.38840    0.68780    0.93200    1.000
    H99      H        0.31240    0.75350    0.90750    1.000
    H100     H        0.27300    0.63510    0.84050    1.000
    H101     H        0.30130    0.57670    0.92100    1.000
    H102     H        0.40920    0.83470    0.95000    1.000
    H103     H        0.31290    0.83790    0.91110    1.000
    H104     H        0.19350    0.65970    0.07120    1.000
    N14      N        0.78310    0.32150    0.01820    1.000
    C40      C        0.64500    0.19790    0.94310    1.000
    C41      C        0.67400    0.30100    0.93810    1.000
    C42      C        0.72340    0.36700    0.90400    1.000
    H105     H        0.69930    0.23630    0.04520    1.000
    H106     H        0.61160    0.31220    0.93200    1.000
    H107     H        0.68760    0.24650    0.90750    1.000
    H108     H        0.72700    0.36490    0.84050    1.000
    H109     H        0.69870    0.42330    0.92100    1.000
    H110     H        0.59080    0.16530    0.95000    1.000
    H111     H        0.68710    0.16210    0.91110    1.000
    H112     H        0.80650    0.34030    0.07120    1.000
    N15      N        0.21690    0.32150    0.98180    1.000
    C43      C        0.35500    0.19790    0.05690    1.000
    C44      C        0.32600    0.30100    0.06190    1.000
    C45      C        0.27660    0.36700    0.09600    1.000
    H113     H        0.30070    0.23630    0.95480    1.000
    H114     H        0.38840    0.31220    0.06800    1.000
    H115     H        0.31240    0.24650    0.09250    1.000
    H116     H        0.27300    0.36490    0.15950    1.000
    H117     H        0.30130    0.42330    0.07900    1.000
    H118     H        0.40920    0.16530    0.05000    1.000
    H119     H        0.31290    0.16210    0.08890    1.000
    H120     H        0.19350    0.34030    0.92880    1.000
    N16      N        0.78310    0.67850    0.98180    1.000
    C46      C        0.64500    0.80210    0.05690    1.000
    C47      C        0.67400    0.69900    0.06190    1.000
    C48      C        0.72340    0.63300    0.09600    1.000
    H121     H        0.69930    0.76370    0.95480    1.000
    H122     H        0.61160    0.68780    0.06800    1.000
    H123     H        0.68760    0.75350    0.09250    1.000
    H124     H        0.72700    0.63510    0.15950    1.000
    H125     H        0.69870    0.57670    0.07900    1.000
    H126     H        0.59080    0.83470    0.05000    1.000
    H127     H        0.68710    0.83790    0.08890    1.000
    H128     H        0.80650    0.65970    0.92880    1.000
    N17      N        0.67850    0.01820    0.21690    1.000
    C49      C        0.80210    0.94310    0.35500    1.000
    C50      C        0.69900    0.93810    0.32600    1.000
    C51      C        0.63300    0.90400    0.27660    1.000
    H129     H        0.76370    0.04520    0.30070    1.000
    H130     H        0.68780    0.93200    0.38840    1.000
    H131     H        0.75350    0.90750    0.31240    1.000
    H132     H        0.63510    0.84050    0.27300    1.000
    H133     H        0.57670    0.92100    0.30130    1.000
    H134     H        0.83470    0.95000    0.40920    1.000
    H135     H        0.83790    0.91110    0.31290    1.000
    H136     H        0.65970    0.07120    0.19350    1.000
    N18      N        0.32150    0.01820    0.78310    1.000
    C52      C        0.19790    0.94310    0.64500    1.000
    C53      C        0.30100    0.93810    0.67400    1.000
    C54      C        0.36700    0.90400    0.72340    1.000
    H137     H        0.23630    0.04520    0.69930    1.000
    H138     H        0.31220    0.93200    0.61160    1.000
    H139     H        0.24650    0.90750    0.68760    1.000
    H140     H        0.36490    0.84050    0.72700    1.000
    H141     H        0.42330    0.92100    0.69870    1.000
    H142     H        0.16530    0.95000    0.59080    1.000
    H143     H        0.16210    0.91110    0.68710    1.000
    H144     H        0.34030    0.07120    0.80650    1.000
    N19      N        0.32150    0.98180    0.21690    1.000
    C55      C        0.19790    0.05690    0.35500    1.000
    C56      C        0.30100    0.06190    0.32600    1.000
    C57      C        0.36700    0.09600    0.27660    1.000
    H145     H        0.23630    0.95480    0.30070    1.000
    H146     H        0.31220    0.06800    0.38840    1.000
    H147     H        0.24650    0.09250    0.31240    1.000
    H148     H        0.36490    0.15950    0.27300    1.000
    H149     H        0.42330    0.07900    0.30130    1.000
    H150     H        0.16530    0.05000    0.40920    1.000
    H151     H        0.16210    0.08890    0.31290    1.000
    H152     H        0.34030    0.92880    0.19350    1.000
    N20      N        0.67850    0.98180    0.78310    1.000
    C58      C        0.80210    0.05690    0.64500    1.000
    C59      C        0.69900    0.06190    0.67400    1.000
    C60      C        0.63300    0.09600    0.72340    1.000
    H153     H        0.76370    0.95480    0.69930    1.000
    H154     H        0.68780    0.06800    0.61160    1.000
    H155     H        0.75350    0.09250    0.68760    1.000
    H156     H        0.63510    0.15950    0.72700    1.000
    H157     H        0.57670    0.07900    0.69870    1.000
    H158     H        0.83470    0.05000    0.59080    1.000
    H159     H        0.83790    0.08890    0.68710    1.000
    H160     H        0.65970    0.92880    0.80650    1.000
    N21      N        0.01820    0.21690    0.67850    1.000
    C61      C        0.94310    0.35500    0.80210    1.000
    C62      C        0.93810    0.32600    0.69900    1.000
    C63      C        0.90400    0.27660    0.63300    1.000
    H161     H        0.04520    0.30070    0.76370    1.000
    H162     H        0.93200    0.38840    0.68780    1.000
    H163     H        0.90750    0.31240    0.75350    1.000
    H164     H        0.84050    0.27300    0.63510    1.000
    H165     H        0.92100    0.30130    0.57670    1.000
    H166     H        0.95000    0.40920    0.83470    1.000
    H167     H        0.91110    0.31290    0.83790    1.000
    H168     H        0.07120    0.19350    0.65970    1.000
    N22      N        0.01820    0.78310    0.32150    1.000
    C64      C        0.94310    0.64500    0.19790    1.000
    C65      C        0.93810    0.67400    0.30100    1.000
    C66      C        0.90400    0.72340    0.36700    1.000
    H169     H        0.04520    0.69930    0.23630    1.000
    H170     H        0.93200    0.61160    0.31220    1.000
    H171     H        0.90750    0.68760    0.24650    1.000
    H172     H        0.84050    0.72700    0.36490    1.000
    H173     H        0.92100    0.69870    0.42330    1.000
    H174     H        0.95000    0.59080    0.16530    1.000
    H175     H        0.91110    0.68710    0.16210    1.000
    H176     H        0.07120    0.80650    0.34030    1.000
    N23      N        0.98180    0.21690    0.32150    1.000
    C67      C        0.05690    0.35500    0.19790    1.000
    C68      C        0.06190    0.32600    0.30100    1.000
    C69      C        0.09600    0.27660    0.36700    1.000
    H177     H        0.95480    0.30070    0.23630    1.000
    H178     H        0.06800    0.38840    0.31220    1.000
    H179     H        0.09250    0.31240    0.24650    1.000
    H180     H        0.15950    0.27300    0.36490    1.000
    H181     H        0.07900    0.30130    0.42330    1.000
    H182     H        0.05000    0.40920    0.16530    1.000
    H183     H        0.08890    0.31290    0.16210    1.000
    H184     H        0.92880    0.19350    0.34030    1.000
    N24      N        0.98180    0.78310    0.67850    1.000
    C70      C        0.05690    0.64500    0.80210    1.000
    C71      C        0.06190    0.67400    0.69900    1.000
    C72      C        0.09600    0.72340    0.63300    1.000
    H185     H        0.95480    0.69930    0.76370    1.000
    H186     H        0.06800    0.61160    0.68780    1.000
    H187     H        0.09250    0.68760    0.75350    1.000
    H188     H        0.15950    0.72700    0.63510    1.000
    H189     H        0.07900    0.69870    0.57670    1.000
    H190     H        0.05000    0.59080    0.83470    1.000
    H191     H        0.08890    0.68710    0.83790    1.000
    H192     H        0.92880    0.80650    0.65970    1.000
    Zn1      Zn       0.56460    0.43540    0.43540    1.000
    Zn2      Zn       0.43540    0.56460    0.43540    1.000
    Zn3      Zn       0.43540    0.43540    0.56460    1.000
    Zn4      Zn       0.56460    0.56460    0.56460    1.000
    O1       O        0.50000    0.50000    0.50000    1.000
    O2       O        0.54830    0.45170    0.33250    1.000
    C73      C        0.54960    0.45040    0.16540    1.000
    C74      C        0.54940    0.45060    0.08400    1.000
    N25      N        0.60000    0.40000    0.04610    1.000
    C75      C        0.70400    0.29600    0.02270    1.000
    C76      C        0.65000    0.35000    0.07510    1.000
    O3       O        0.65000    0.35000    0.14620    1.000
    H193     H        0.57305    0.42695    0.19400    1.000
    H194     H        0.58270    0.41730    0.05820    1.000
    H195     H        0.59500    0.40500    0.99780    1.000
    O4       O        0.45170    0.54830    0.33250    1.000
    C77      C        0.45040    0.54960    0.16540    1.000
    C78      C        0.45060    0.54940    0.08400    1.000
    N26      N        0.40000    0.60000    0.04610    1.000
    C79      C        0.29600    0.70400    0.02270    1.000
    C80      C        0.35000    0.65000    0.07510    1.000
    O5       O        0.35000    0.65000    0.14620    1.000
    H196     H        0.42695    0.57305    0.19400    1.000
    H197     H        0.41730    0.58270    0.05820    1.000
    H198     H        0.40500    0.59500    0.99780    1.000
    O6       O        0.45170    0.45170    0.66750    1.000
    C81      C        0.45040    0.45040    0.83460    1.000
    C82      C        0.45060    0.45060    0.91600    1.000
    N27      N        0.40000    0.40000    0.95390    1.000
    C83      C        0.29600    0.29600    0.97730    1.000
    C84      C        0.35000    0.35000    0.92490    1.000
    O7       O        0.35000    0.35000    0.85380    1.000
    H199     H        0.42695    0.42695    0.80600    1.000
    H200     H        0.41730    0.41730    0.94180    1.000
    H201     H        0.40500    0.40500    0.00220    1.000
    O8       O        0.54830    0.54830    0.66750    1.000
    C85      C        0.54960    0.54960    0.83460    1.000
    C86      C        0.54940    0.54940    0.91600    1.000
    N28      N        0.60000    0.60000    0.95390    1.000
    C87      C        0.70400    0.70400    0.97730    1.000
    C88      C        0.65000    0.65000    0.92490    1.000
    O9       O        0.65000    0.65000    0.85380    1.000
    H202     H        0.57305    0.57305    0.80600    1.000
    H203     H        0.58270    0.58270    0.94180    1.000
    H204     H        0.59500    0.59500    0.00220    1.000
    O10      O        0.33250    0.54830    0.45170    1.000
    C89      C        0.16540    0.54960    0.45040    1.000
    C90      C        0.08400    0.54940    0.45060    1.000
    N29      N        0.04610    0.60000    0.40000    1.000
    C91      C        0.02270    0.70400    0.29600    1.000
    C92      C        0.07510    0.65000    0.35000    1.000
    O11      O        0.14620    0.65000    0.35000    1.000
    H205     H        0.19400    0.57305    0.42695    1.000
    H206     H        0.05820    0.58270    0.41730    1.000
    H207     H        0.99780    0.59500    0.40500    1.000
    O12      O        0.33250    0.45170    0.54830    1.000
    C93      C        0.16540    0.45040    0.54960    1.000
    C94      C        0.08400    0.45060    0.54940    1.000
    N30      N        0.04610    0.40000    0.60000    1.000
    C95      C        0.02270    0.29600    0.70400    1.000
    C96      C        0.07510    0.35000    0.65000    1.000
    O13      O        0.14620    0.35000    0.65000    1.000
    H208     H        0.19400    0.42695    0.57305    1.000
    H209     H        0.05820    0.41730    0.58270    1.000
    H210     H        0.99780    0.40500    0.59500    1.000
    O14      O        0.66750    0.45170    0.45170    1.000
    C97      C        0.83460    0.45040    0.45040    1.000
    C98      C        0.91600    0.45060    0.45060    1.000
    N31      N        0.95390    0.40000    0.40000    1.000
    C99      C        0.97730    0.29600    0.29600    1.000
    C100     C        0.92490    0.35000    0.35000    1.000
    O15      O        0.85380    0.35000    0.35000    1.000
    H211     H        0.80600    0.42695    0.42695    1.000
    H212     H        0.94180    0.41730    0.41730    1.000
    H213     H        0.00220    0.40500    0.40500    1.000
    O16      O        0.66750    0.54830    0.54830    1.000
    C101     C        0.83460    0.54960    0.54960    1.000
    C102     C        0.91600    0.54940    0.54940    1.000
    N32      N        0.95390    0.60000    0.60000    1.000
    C103     C        0.97730    0.70400    0.70400    1.000
    C104     C        0.92490    0.65000    0.65000    1.000
    O17      O        0.85380    0.65000    0.65000    1.000
    H214     H        0.80600    0.57305    0.57305    1.000
    H215     H        0.94180    0.58270    0.58270    1.000
    H216     H        0.00220    0.59500    0.59500    1.000
    O18      O        0.45170    0.33250    0.54830    1.000
    C105     C        0.45040    0.16540    0.54960    1.000
    C106     C        0.45060    0.08400    0.54940    1.000
    N33      N        0.40000    0.04610    0.60000    1.000
    C107     C        0.29600    0.02270    0.70400    1.000
    C108     C        0.35000    0.07510    0.65000    1.000
    O19      O        0.35000    0.14620    0.65000    1.000
    H217     H        0.42695    0.19400    0.57305    1.000
    H218     H        0.41730    0.05820    0.58270    1.000
    H219     H        0.40500    0.99780    0.59500    1.000
    O20      O        0.54830    0.33250    0.45170    1.000
    C109     C        0.54960    0.16540    0.45040    1.000
    C110     C        0.54940    0.08400    0.45060    1.000
    N34      N        0.60000    0.04610    0.40000    1.000
    C111     C        0.70400    0.02270    0.29600    1.000
    C112     C        0.65000    0.07510    0.35000    1.000
    O21      O        0.65000    0.14620    0.35000    1.000
    H220     H        0.57305    0.19400    0.42695    1.000
    H221     H        0.58270    0.05820    0.41730    1.000
    H222     H        0.59500    0.99780    0.40500    1.000
    O22      O        0.45170    0.66750    0.45170    1.000
    C113     C        0.45040    0.83460    0.45040    1.000
    C114     C        0.45060    0.91600    0.45060    1.000
    N35      N        0.40000    0.95390    0.40000    1.000
    C115     C        0.29600    0.97730    0.29600    1.000
    C116     C        0.35000    0.92490    0.35000    1.000
    O23      O        0.35000    0.85380    0.35000    1.000
    H223     H        0.42695    0.80600    0.42695    1.000
    H224     H        0.41730    0.94180    0.41730    1.000
    H225     H        0.40500    0.00220    0.40500    1.000
    O24      O        0.54830    0.66750    0.54830    1.000
    C117     C        0.54960    0.83460    0.54960    1.000
    C118     C        0.54940    0.91600    0.54940    1.000
    N36      N        0.60000    0.95390    0.60000    1.000
    C119     C        0.70400    0.97730    0.70400    1.000
    C120     C        0.65000    0.92490    0.65000    1.000
    O25      O        0.65000    0.85380    0.65000    1.000
    H226     H        0.57305    0.80600    0.57305    1.000
    H227     H        0.58270    0.94180    0.58270    1.000
    H228     H        0.59500    0.00220    0.59500    1.000
    C121     C        0.50000    0.50000    0.29800    1.000
    C122     C        0.50000    0.50000    0.20570    1.000
    C123     C        0.50000    0.50000    0.04310    1.000
    C124     C        0.50000    0.50000    0.70200    1.000
    C125     C        0.50000    0.50000    0.79430    1.000
    C126     C        0.50000    0.50000    0.95690    1.000
    C127     C        0.29800    0.50000    0.50000    1.000
    C128     C        0.20570    0.50000    0.50000    1.000
    C129     C        0.04310    0.50000    0.50000    1.000
    C130     C        0.70200    0.50000    0.50000    1.000
    C131     C        0.79430    0.50000    0.50000    1.000
    C132     C        0.95690    0.50000    0.50000    1.000
    C133     C        0.50000    0.29800    0.50000    1.000
    C134     C        0.50000    0.20570    0.50000    1.000
    C135     C        0.50000    0.04310    0.50000    1.000
    C136     C        0.50000    0.70200    0.50000    1.000
    C137     C        0.50000    0.79430    0.50000    1.000
    C138     C        0.50000    0.95690    0.50000    1.000
