data_functionalizedCrystal
_audit_creation_method	'EQeq! by Chris Wilmer'
_symmetry_space_group_name_H-M	'P1'
_symmetry_Int_Tables_number	1
_symmetry_cell_setting	triclinic
loop_
_symmetry_equiv_pos_as_xyz
  x,y,z
_cell_length_a	35.61
_cell_length_b	17.813
_cell_length_c	32.235
_cell_angle_alpha	90
_cell_angle_beta	112.749
_cell_angle_gamma	90
loop_
_atom_site_label
_atom_site_type_symbol
_atom_site_fract_x
_atom_site_fract_y
_atom_site_fract_z
_atom_site_charge
Mof_C 	C 	0.1616	0.3775	0.3223	0.1
Mof_C 	C 	0.1505	0.3088	0.3347	0.04
Mof_C 	C 	0.1197	0.3058	0.3493	-0.036
Mof_H 	H 	0.1124	0.259	0.3581	0.092
Mof_C 	C 	0.0987	0.3699	0.3516	-0.058
Mof_C 	C 	0.1094	0.4362	0.3379	-0.022
Mof_H 	H 	0.0947	0.4804	0.3386	0.064
Mof_C 	C 	0.1401	0.441	0.3236	0.026
Mof_C 	C 	0.1536	0.516	0.3125	-0.146
Mof_H 	H 	0.147	0.5549	0.3306	0.106
Mof_H 	H 	0.1836	0.5149	0.3222	0.106
Mof_C 	C 	0.1355	0.54	0.2639	-0.051
Mof_C 	C 	0.107	0.5956	0.2509	0.045
Mof_H 	H 	0.0976	0.6168	0.2722	0.043
Mof_C 	C 	0.0921	0.6205	0.2089	-0.145
Mof_C 	C 	0.1051	0.5896	0.1773	0.048
Mof_H 	H 	0.0949	0.6086	0.1475	-0.013
Mof_C 	C 	0.1323	0.5323	0.1888	-0.062
Mof_C 	C 	0.1483	0.5084	0.2328	0.209
Mof_C 	C 	0.146	0.4979	0.155	-0.078
Mof_H 	H 	0.1509	0.4437	0.1618	0.066
Mof_H 	H 	0.1237	0.5023	0.1249	0.054
Mof_C 	C 	0.1832	0.5312	0.1528	-0.043
Mof_C 	C 	0.1795	0.5932	0.126	0.005
Mof_H 	H 	0.1535	0.6154	0.1106	0.045
Mof_C 	C 	0.2127	0.6227	0.1215	-0.07
Mof_C 	C 	0.2499	0.5891	0.1421	-0.018
Mof_H 	H 	0.273	0.608	0.1377	0.056
Mof_C 	C 	0.2535	0.5285	0.169	0.003
Mof_C 	C 	0.2205	0.5014	0.1743	0.175
Mof_C 	C 	0.2951	0.4934	0.1925	-0.133
Mof_H 	H 	0.313	0.5296	0.2146	0.088
Mof_H 	H 	0.2924	0.4485	0.2093	0.126
Mof_C 	C 	0.3146	0.4708	0.1605	-0.014
Mof_C 	C 	0.3459	0.5093	0.1594	0.01
Mof_H 	H 	0.355	0.5523	0.178	0.042
Mof_C 	C 	0.3658	0.4884	0.1318	-0.111
Mof_C 	C 	0.3516	0.4302	0.1047	0.028
Mof_H 	H 	0.3644	0.4169	0.0847	0.04
Mof_C 	C 	0.319	0.3882	0.1041	-0.053
Mof_C 	C 	0.3014	0.4067	0.1333	0.197
Mof_C 	C 	0.306	0.3228	0.0736	-0.108
Mof_H 	H 	0.3111	0.2767	0.0921	0.099
Mof_H 	H 	0.3231	0.3203	0.0558	0.065
Mof_C 	C 	0.2621	0.3231	0.0418	-0.043
Mof_C 	C 	0.2503	0.3633	0.003	0.014
Mof_H 	H 	0.2694	0.3926	0.9963	0.051
Mof_C 	C 	0.2106	0.3608	0.9741	-0.102
Mof_C 	C 	0.1839	0.3136	0.9823	0.03
Mof_H 	H 	0.1564	0.3109	0.9615	0.016
Mof_C 	C 	0.1966	0.2702	0.0204	-0.086
Mof_C 	C 	0.2355	0.279	0.051	0.192
Mof_C 	C 	0.1673	0.2172	0.0259	-0.043
Mof_H 	H 	0.1811	0.1686	0.0367	0.04
Mof_H 	H 	0.1451	0.2084	0.9963	0.037
Mof_C 	C 	0.1494	0.244	0.0581	-0.13
Mof_C 	C 	0.1157	0.2851	0.044	0.128
Mof_H 	H 	0.1016	0.2939	0.0127	-0.053
Mof_C 	C 	0.1013	0.3145	0.0735	-0.207
Mof_C 	C 	0.1223	0.3028	0.1179	0.071
Mof_H 	H 	0.1127	0.325	0.1388	0.033
Mof_C 	C 	0.1564	0.2606	0.1335	-0.066
Mof_C 	C 	0.1694	0.2286	0.1032	0.228
Mof_C 	C 	0.1822	0.2557	0.1833	-0.115
Mof_H 	H 	0.2076	0.2286	0.1872	0.115
Mof_H 	H 	0.1899	0.3073	0.1949	0.101
Mof_C 	C 	0.1633	0.2184	0.2109	-0.012
Mof_C 	C 	0.1306	0.17	0.1945	0.011
Mof_H 	H 	0.1201	0.1555	0.1638	0.06
Mof_C 	C 	0.1138	0.144	0.2218	-0.111
Mof_C 	C 	0.1268	0.1674	0.2659	0.008
Mof_H 	H 	0.1128	0.1514	0.284	0.043
Mof_C 	C 	0.1592	0.2127	0.2832	-0.029
Mof_C 	C 	0.179	0.2373	0.2561	0.176
Mof_C 	C 	0.1729	0.239	0.331	-0.154
Mof_H 	H 	0.1682	0.1988	0.3496	0.097
Mof_H 	H 	0.2025	0.2495	0.3429	0.098
Mof_O 	O 	0.1931	0.383	0.3109	-0.202
Mof_O 	O 	0.1764	0.4555	0.2434	-0.42
Mof_H 	H 	0.184	0.4452	0.2709	0.287
Mof_O 	O 	0.2261	0.4431	0.2028	-0.365
Mof_H 	H 	0.2036	0.4306	0.2036	0.261
Mof_O 	O 	0.2717	0.369	0.138	-0.391
Mof_H 	H 	0.2653	0.3326	0.1201	0.281
Mof_O 	O 	0.2491	0.2463	0.091	-0.408
Mof_H 	H 	0.2305	0.22	0.0935	0.247
Mof_O 	O 	0.2017	0.1861	0.1172	-0.39
Mof_H 	H 	0.2061	0.1701	0.0949	0.205
Mof_O 	O 	0.2124	0.2775	0.2715	-0.375
Mof_H 	H 	0.219	0.2857	0.2991	0.262
Mof_S 	S 	0.06147	0.3647	0.37288	0.567
Mof_S 	S 	0.05663	0.693	0.19103	0.616
Mof_S 	S 	0.20852	0.70502	0.08971	0.51
Mof_S 	S 	0.4083	0.5379	0.1333	0.599
Mof_S 	S 	0.19109	0.4131	0.9247	0.54
Mof_S 	S 	0.05658	0.3649	0.0535	0.697
Mof_S 	S 	0.07324	0.0828	0.20141	0.603
Mof_O 	O 	0.0344	0.3093	0.3493	-0.231
Mof_O 	O 	0.0415	0.4347	0.3643	-0.289
Mof_O 	O 	0.081	0.3481	0.4187	-0.249
Mof_O 	O 	0.0773	0.7553	0.1805	-0.279
Mof_O 	O 	0.0465	0.7137	0.2274	-0.262
Mof_O 	O 	0.0228	0.6633	0.1559	-0.456
Mof_O 	O 	0.2379	0.6988	0.0698	-0.226
Mof_O 	O 	0.2171	0.7659	0.1201	-0.237
Mof_O 	O 	0.1679	0.7051	0.0571	-0.229
Mof_O 	O 	0.4134	0.5179	0.0932	-0.261
Mof_O 	O 	0.3987	0.6145	0.1354	-0.272
Mof_O 	O 	0.4424	0.5111	0.1719	-0.403
Mof_O 	O 	0.1587	0.4575	0.9279	-0.261
Mof_O 	O 	0.223	0.4564	0.9241	-0.255
Mof_O 	O 	0.1749	0.3609	0.8885	-0.266
Mof_O 	O 	0.0481	0.385	0.0887	-0.348
Mof_O 	O 	0.0607	0.4201	0.0249	-0.451
Mof_O 	O 	0.0267	0.3146	0.0228	-0.41
Mof_O 	O 	0.0376	0.124	0.1839	-0.333
Mof_O 	O 	0.0809	0.0361	0.1708	-0.267
Mof_O 	O 	0.0737	0.0392	0.2382	-0.396
Mof_Ba	Ba	0.9869	0.63393	0.06691	1.475
Mof_O 	O 	0.5347	0.6758	0.3	-0.215
Mof_Ba	Ba	0.50311	0.55257	0.24032	0.929
Mof_C 	C 	0.6616	0.8775	0.3223	0.099
Mof_C 	C 	0.6505	0.8088	0.3347	0.039
Mof_C 	C 	0.6197	0.8058	0.3493	-0.037
Mof_H 	H 	0.6124	0.759	0.3581	0.091
Mof_C 	C 	0.5987	0.8699	0.3516	-0.06
Mof_C 	C 	0.6094	0.9362	0.3379	-0.023
Mof_H 	H 	0.5947	0.9804	0.3386	0.063
Mof_C 	C 	0.6401	0.941	0.3236	0.025
Mof_C 	C 	0.6536	0.016	0.3125	-0.147
Mof_H 	H 	0.647	0.0549	0.3306	0.105
Mof_H 	H 	0.6836	0.0149	0.3222	0.105
Mof_C 	C 	0.6355	0.04	0.2639	-0.053
Mof_C 	C 	0.607	0.0956	0.2509	0.045
Mof_H 	H 	0.5976	0.1168	0.2722	0.043
Mof_C 	C 	0.5921	0.1205	0.2089	-0.147
Mof_C 	C 	0.6051	0.0896	0.1773	0.05
Mof_H 	H 	0.5949	0.1086	0.1475	-0.014
Mof_C 	C 	0.6323	0.0323	0.1888	-0.065
Mof_C 	C 	0.6483	0.0084	0.2328	0.209
Mof_C 	C 	0.646	0.9979	0.155	-0.073
Mof_H 	H 	0.6509	0.9437	0.1618	0.064
Mof_H 	H 	0.6237	0.0023	0.1249	0.052
Mof_C 	C 	0.6832	0.0312	0.1528	-0.046
Mof_C 	C 	0.6795	0.0932	0.126	0.007
Mof_H 	H 	0.6535	0.1154	0.1106	0.044
Mof_C 	C 	0.7127	0.1227	0.1215	-0.071
Mof_C 	C 	0.7499	0.0891	0.1421	-0.017
Mof_H 	H 	0.773	0.108	0.1377	0.055
Mof_C 	C 	0.7535	0.0285	0.169	0.001
Mof_C 	C 	0.7205	0.0014	0.1743	0.176
Mof_C 	C 	0.7951	0.9934	0.1925	-0.132
Mof_H 	H 	0.813	0.0296	0.2146	0.087
Mof_H 	H 	0.7924	0.9485	0.2093	0.126
Mof_C 	C 	0.8146	0.9708	0.1605	-0.012
Mof_C 	C 	0.8459	0.0093	0.1594	0.006
Mof_H 	H 	0.855	0.0523	0.178	0.043
Mof_C 	C 	0.8658	0.9884	0.1318	-0.108
Mof_C 	C 	0.8516	0.9302	0.1047	0.026
Mof_H 	H 	0.8644	0.9169	0.0847	0.041
Mof_C 	C 	0.819	0.8882	0.1041	-0.052
Mof_C 	C 	0.8014	0.9067	0.1333	0.196
Mof_C 	C 	0.806	0.8228	0.0736	-0.109
Mof_H 	H 	0.8111	0.7767	0.0921	0.099
Mof_H 	H 	0.8231	0.8203	0.0558	0.065
Mof_C 	C 	0.7621	0.8231	0.0418	-0.044
Mof_C 	C 	0.7503	0.8633	0.003	0.016
Mof_H 	H 	0.7694	0.8926	0.9963	0.05
Mof_C 	C 	0.7106	0.8608	0.9741	-0.103
Mof_C 	C 	0.6839	0.8136	0.9823	0.03
Mof_H 	H 	0.6564	0.8109	0.9615	0.016
Mof_C 	C 	0.6966	0.7702	0.0204	-0.086
Mof_C 	C 	0.7355	0.779	0.051	0.193
Mof_C 	C 	0.6673	0.7172	0.0259	-0.042
Mof_H 	H 	0.6811	0.6686	0.0367	0.04
Mof_H 	H 	0.6451	0.7084	0.9963	0.036
Mof_C 	C 	0.6494	0.744	0.0581	-0.13
Mof_C 	C 	0.6157	0.7851	0.044	0.128
Mof_H 	H 	0.6016	0.7939	0.0127	-0.053
Mof_C 	C 	0.6013	0.8145	0.0735	-0.207
Mof_C 	C 	0.6223	0.8028	0.1179	0.071
Mof_H 	H 	0.6127	0.825	0.1388	0.033
Mof_C 	C 	0.6564	0.7606	0.1335	-0.066
Mof_C 	C 	0.6694	0.7286	0.1032	0.228
Mof_C 	C 	0.6822	0.7557	0.1833	-0.115
Mof_H 	H 	0.7076	0.7286	0.1872	0.115
Mof_H 	H 	0.6899	0.8073	0.1949	0.101
Mof_C 	C 	0.6633	0.7184	0.2109	-0.013
Mof_C 	C 	0.6306	0.67	0.1945	0.011
Mof_H 	H 	0.6201	0.6555	0.1638	0.06
Mof_C 	C 	0.6138	0.644	0.2218	-0.111
Mof_C 	C 	0.6268	0.6674	0.2659	0.008
Mof_H 	H 	0.6128	0.6514	0.284	0.043
Mof_C 	C 	0.6592	0.7127	0.2832	-0.029
Mof_C 	C 	0.679	0.7373	0.2561	0.176
Mof_C 	C 	0.6729	0.739	0.331	-0.154
Mof_H 	H 	0.6682	0.6988	0.3496	0.097
Mof_H 	H 	0.7025	0.7495	0.3429	0.098
Mof_O 	O 	0.6931	0.883	0.3109	-0.202
Mof_O 	O 	0.6764	0.9555	0.2434	-0.42
Mof_H 	H 	0.684	0.9452	0.2709	0.288
Mof_O 	O 	0.7261	0.9431	0.2028	-0.365
Mof_H 	H 	0.7036	0.9306	0.2036	0.262
Mof_O 	O 	0.7717	0.869	0.138	-0.391
Mof_H 	H 	0.7653	0.8326	0.1201	0.281
Mof_O 	O 	0.7491	0.7463	0.091	-0.408
Mof_H 	H 	0.7305	0.72	0.0935	0.247
Mof_O 	O 	0.7017	0.6861	0.1172	-0.39
Mof_H 	H 	0.7061	0.6701	0.0949	0.205
Mof_O 	O 	0.7124	0.7775	0.2715	-0.375
Mof_H 	H 	0.719	0.7857	0.2991	0.262
Mof_S 	S 	0.56147	0.8647	0.37288	0.568
Mof_S 	S 	0.55663	0.193	0.19103	0.617
Mof_S 	S 	0.70852	0.20502	0.08971	0.511
Mof_S 	S 	0.9083	0.0379	0.1333	0.597
Mof_S 	S 	0.69109	0.9131	0.9247	0.541
Mof_S 	S 	0.55658	0.8649	0.0535	0.698
Mof_S 	S 	0.57324	0.5828	0.20141	0.603
Mof_O 	O 	0.5344	0.8093	0.3493	-0.232
Mof_O 	O 	0.5415	0.9347	0.3643	-0.29
Mof_O 	O 	0.581	0.8481	0.4187	-0.25
Mof_O 	O 	0.5773	0.2553	0.1805	-0.28
Mof_O 	O 	0.5465	0.2137	0.2274	-0.263
Mof_O 	O 	0.5228	0.1633	0.1559	-0.458
Mof_O 	O 	0.7379	0.1988	0.0698	-0.226
Mof_O 	O 	0.7171	0.2659	0.1201	-0.238
Mof_O 	O 	0.6679	0.2051	0.0571	-0.23
Mof_O 	O 	0.9134	0.0179	0.0932	-0.262
Mof_O 	O 	0.8987	0.1145	0.1354	-0.272
Mof_O 	O 	0.9424	0.0111	0.1719	-0.403
Mof_O 	O 	0.6587	0.9575	0.9279	-0.262
Mof_O 	O 	0.723	0.9564	0.9241	-0.255
Mof_O 	O 	0.6749	0.8609	0.8885	-0.266
Mof_O 	O 	0.5481	0.885	0.0887	-0.349
Mof_O 	O 	0.5607	0.9201	0.0249	-0.451
Mof_O 	O 	0.5267	0.8146	0.0228	-0.411
Mof_O 	O 	0.5376	0.624	0.1839	-0.335
Mof_O 	O 	0.5809	0.5361	0.1708	-0.267
Mof_O 	O 	0.5737	0.5392	0.2382	-0.398
Mof_Ba	Ba	0.4869	0.13393	0.06691	1.478
Mof_O 	O 	0.0347	0.1758	0.3	-0.214
Mof_Ba	Ba	0.00311	0.05257	0.24032	0.905
Mof_C 	C 	0.8384	0.3775	0.1777	0.1
Mof_C 	C 	0.8495	0.3088	0.1653	0.038
Mof_C 	C 	0.8803	0.3058	0.1507	-0.037
Mof_H 	H 	0.8876	0.259	0.1419	0.091
Mof_C 	C 	0.9013	0.3699	0.1484	-0.06
Mof_C 	C 	0.8906	0.4362	0.1621	-0.022
Mof_H 	H 	0.9053	0.4804	0.1614	0.063
Mof_C 	C 	0.8599	0.441	0.1764	0.024
Mof_C 	C 	0.8464	0.516	0.1875	-0.146
Mof_H 	H 	0.853	0.5549	0.1694	0.105
Mof_H 	H 	0.8164	0.5149	0.1778	0.104
Mof_C 	C 	0.8645	0.54	0.2361	-0.053
Mof_C 	C 	0.893	0.5956	0.2491	0.046
Mof_H 	H 	0.9024	0.6168	0.2278	0.043
Mof_C 	C 	0.9079	0.6205	0.2911	-0.147
Mof_C 	C 	0.8949	0.5896	0.3227	0.05
Mof_H 	H 	0.9051	0.6086	0.3525	-0.014
Mof_C 	C 	0.8677	0.5323	0.3112	-0.063
Mof_C 	C 	0.8517	0.5084	0.2672	0.209
Mof_C 	C 	0.854	0.4979	0.345	-0.077
Mof_H 	H 	0.8491	0.4437	0.3382	0.065
Mof_H 	H 	0.8763	0.5023	0.3751	0.053
Mof_C 	C 	0.8168	0.5312	0.3472	-0.044
Mof_C 	C 	0.8205	0.5932	0.374	0.005
Mof_H 	H 	0.8465	0.6154	0.3894	0.044
Mof_C 	C 	0.7873	0.6227	0.3785	-0.07
Mof_C 	C 	0.7501	0.5891	0.3579	-0.018
Mof_H 	H 	0.727	0.608	0.3623	0.056
Mof_C 	C 	0.7465	0.5285	0.331	0.003
Mof_C 	C 	0.7795	0.5014	0.3257	0.176
Mof_C 	C 	0.7049	0.4934	0.3075	-0.133
Mof_H 	H 	0.687	0.5296	0.2854	0.088
Mof_H 	H 	0.7076	0.4485	0.2907	0.126
Mof_C 	C 	0.6854	0.4708	0.3395	-0.014
Mof_C 	C 	0.6541	0.5093	0.3406	0.01
Mof_H 	H 	0.645	0.5523	0.322	0.042
Mof_C 	C 	0.6342	0.4884	0.3682	-0.111
Mof_C 	C 	0.6484	0.4302	0.3953	0.028
Mof_H 	H 	0.6356	0.4169	0.4153	0.04
Mof_C 	C 	0.681	0.3882	0.3959	-0.053
Mof_C 	C 	0.6986	0.4067	0.3667	0.197
Mof_C 	C 	0.694	0.3228	0.4264	-0.108
Mof_H 	H 	0.6889	0.2767	0.4079	0.099
Mof_H 	H 	0.6769	0.3203	0.4442	0.065
Mof_C 	C 	0.7379	0.3231	0.4582	-0.043
Mof_C 	C 	0.7497	0.3633	0.497	0.014
Mof_H 	H 	0.7306	0.3926	0.5037	0.05
Mof_C 	C 	0.7894	0.3608	0.5259	-0.102
Mof_C 	C 	0.8161	0.3136	0.5177	0.03
Mof_H 	H 	0.8436	0.3109	0.5385	0.016
Mof_C 	C 	0.8034	0.2702	0.4796	-0.086
Mof_C 	C 	0.7645	0.279	0.449	0.192
Mof_C 	C 	0.8327	0.2172	0.4741	-0.042
Mof_H 	H 	0.8189	0.1686	0.4633	0.04
Mof_H 	H 	0.8549	0.2084	0.5037	0.036
Mof_C 	C 	0.8506	0.244	0.4419	-0.13
Mof_C 	C 	0.8843	0.2851	0.456	0.128
Mof_H 	H 	0.8984	0.2939	0.4873	-0.053
Mof_C 	C 	0.8987	0.3145	0.4265	-0.208
Mof_C 	C 	0.8777	0.3028	0.3821	0.071
Mof_H 	H 	0.8873	0.325	0.3612	0.033
Mof_C 	C 	0.8436	0.2606	0.3665	-0.066
Mof_C 	C 	0.8306	0.2286	0.3968	0.228
Mof_C 	C 	0.8178	0.2557	0.3167	-0.115
Mof_H 	H 	0.7924	0.2286	0.3128	0.114
Mof_H 	H 	0.8101	0.3073	0.3051	0.101
Mof_C 	C 	0.8367	0.2184	0.2891	-0.013
Mof_C 	C 	0.8694	0.17	0.3055	0.011
Mof_H 	H 	0.8799	0.1555	0.3362	0.059
Mof_C 	C 	0.8862	0.144	0.2782	-0.112
Mof_C 	C 	0.8732	0.1674	0.2341	0.008
Mof_H 	H 	0.8872	0.1514	0.216	0.043
Mof_C 	C 	0.8408	0.2127	0.2168	-0.03
Mof_C 	C 	0.821	0.2373	0.2439	0.176
Mof_C 	C 	0.8271	0.239	0.169	-0.154
Mof_H 	H 	0.8318	0.1988	0.1504	0.097
Mof_H 	H 	0.7975	0.2495	0.1571	0.098
Mof_O 	O 	0.8069	0.383	0.1891	-0.202
Mof_O 	O 	0.8236	0.4555	0.2566	-0.42
Mof_H 	H 	0.816	0.4452	0.2291	0.288
Mof_O 	O 	0.7739	0.4431	0.2972	-0.365
Mof_H 	H 	0.7964	0.4306	0.2964	0.262
Mof_O 	O 	0.7283	0.369	0.362	-0.391
Mof_H 	H 	0.7347	0.3326	0.3799	0.281
Mof_O 	O 	0.7509	0.2463	0.409	-0.408
Mof_H 	H 	0.7695	0.22	0.4065	0.247
Mof_O 	O 	0.7983	0.1861	0.3828	-0.39
Mof_H 	H 	0.7939	0.1701	0.4051	0.205
Mof_O 	O 	0.7876	0.2775	0.2285	-0.375
Mof_H 	H 	0.781	0.2857	0.2009	0.262
Mof_S 	S 	0.93853	0.3647	0.12712	0.568
Mof_S 	S 	0.94337	0.693	0.30897	0.618
Mof_S 	S 	0.79148	0.70502	0.41029	0.511
Mof_S 	S 	0.5917	0.5379	0.3667	0.599
Mof_S 	S 	0.80891	0.4131	0.5753	0.541
Mof_S 	S 	0.94342	0.3649	0.4465	0.698
Mof_S 	S 	0.92676	0.0828	0.29859	0.604
Mof_O 	O 	0.9656	0.3093	0.1507	-0.233
Mof_O 	O 	0.9585	0.4347	0.1357	-0.291
Mof_O 	O 	0.919	0.3481	0.0813	-0.25
Mof_O 	O 	0.9227	0.7553	0.3195	-0.28
Mof_O 	O 	0.9535	0.7137	0.2726	-0.264
Mof_O 	O 	0.9772	0.6633	0.3441	-0.46
Mof_O 	O 	0.7621	0.6988	0.4302	-0.226
Mof_O 	O 	0.7829	0.7659	0.3799	-0.238
Mof_O 	O 	0.8321	0.7051	0.4429	-0.23
Mof_O 	O 	0.5866	0.5179	0.4068	-0.261
Mof_O 	O 	0.6013	0.6145	0.3646	-0.272
Mof_O 	O 	0.5576	0.5111	0.3281	-0.403
Mof_O 	O 	0.8413	0.4575	0.5721	-0.262
Mof_O 	O 	0.777	0.4564	0.5759	-0.255
Mof_O 	O 	0.8251	0.3609	0.6115	-0.266
Mof_O 	O 	0.9519	0.385	0.4113	-0.35
Mof_O 	O 	0.9393	0.4201	0.4751	-0.452
Mof_O 	O 	0.9733	0.3146	0.4772	-0.411
Mof_O 	O 	0.9624	0.124	0.3161	-0.337
Mof_O 	O 	0.9191	0.0361	0.3292	-0.268
Mof_O 	O 	0.9263	0.0392	0.2618	-0.4
Mof_Ba	Ba	0.0131	0.63393	0.43309	1.486
Mof_O 	O 	0.4653	0.6758	0.2	-0.215
Mof_Ba	Ba	0.49689	0.55257	0.25968	0.929
Mof_C 	C 	0.3384	0.8775	0.1777	0.099
Mof_C 	C 	0.3495	0.8088	0.1653	0.039
Mof_C 	C 	0.3803	0.8058	0.1507	-0.037
Mof_H 	H 	0.3876	0.759	0.1419	0.091
Mof_C 	C 	0.4013	0.8699	0.1484	-0.059
Mof_C 	C 	0.3906	0.9362	0.1621	-0.023
Mof_H 	H 	0.4053	0.9804	0.1614	0.063
Mof_C 	C 	0.3599	0.941	0.1764	0.026
Mof_C 	C 	0.3464	0.016	0.1875	-0.148
Mof_H 	H 	0.353	0.0549	0.1694	0.105
Mof_H 	H 	0.3164	0.0149	0.1778	0.105
Mof_C 	C 	0.3645	0.04	0.2361	-0.052
Mof_C 	C 	0.393	0.0956	0.2491	0.045
Mof_H 	H 	0.4024	0.1168	0.2278	0.043
Mof_C 	C 	0.4079	0.1205	0.2911	-0.146
Mof_C 	C 	0.3949	0.0896	0.3227	0.049
Mof_H 	H 	0.4051	0.1086	0.3525	-0.014
Mof_C 	C 	0.3677	0.0323	0.3112	-0.064
Mof_C 	C 	0.3517	0.0084	0.2672	0.209
Mof_C 	C 	0.354	0.9979	0.345	-0.076
Mof_H 	H 	0.3491	0.9437	0.3382	0.065
Mof_H 	H 	0.3763	0.0023	0.3751	0.053
Mof_C 	C 	0.3168	0.0312	0.3472	-0.044
Mof_C 	C 	0.3205	0.0932	0.374	0.006
Mof_H 	H 	0.3465	0.1154	0.3894	0.044
Mof_C 	C 	0.2873	0.1227	0.3785	-0.071
Mof_C 	C 	0.2501	0.0891	0.3579	-0.017
Mof_H 	H 	0.227	0.108	0.3623	0.056
Mof_C 	C 	0.2465	0.0285	0.331	0.002
Mof_C 	C 	0.2795	0.0014	0.3257	0.176
Mof_C 	C 	0.2049	0.9934	0.3075	-0.132
Mof_H 	H 	0.187	0.0296	0.2854	0.087
Mof_H 	H 	0.2076	0.9485	0.2907	0.126
Mof_C 	C 	0.1854	0.9708	0.3395	-0.013
Mof_C 	C 	0.1541	0.0093	0.3406	0.008
Mof_H 	H 	0.145	0.0523	0.322	0.043
Mof_C 	C 	0.1342	0.9884	0.3682	-0.11
Mof_C 	C 	0.1484	0.9302	0.3953	0.027
Mof_H 	H 	0.1356	0.9169	0.4153	0.04
Mof_C 	C 	0.181	0.8882	0.3959	-0.052
Mof_C 	C 	0.1986	0.9067	0.3667	0.197
Mof_C 	C 	0.194	0.8228	0.4264	-0.109
Mof_H 	H 	0.1889	0.7767	0.4079	0.099
Mof_H 	H 	0.1769	0.8203	0.4442	0.065
Mof_C 	C 	0.2379	0.8231	0.4582	-0.043
Mof_C 	C 	0.2497	0.8633	0.497	0.014
Mof_H 	H 	0.2306	0.8926	0.5037	0.05
Mof_C 	C 	0.2894	0.8608	0.5259	-0.102
Mof_C 	C 	0.3161	0.8136	0.5177	0.029
Mof_H 	H 	0.3436	0.8109	0.5385	0.016
Mof_C 	C 	0.3034	0.7702	0.4796	-0.086
Mof_C 	C 	0.2645	0.779	0.449	0.192
Mof_C 	C 	0.3327	0.7172	0.4741	-0.042
Mof_H 	H 	0.3189	0.6686	0.4633	0.04
Mof_H 	H 	0.3549	0.7084	0.5037	0.036
Mof_C 	C 	0.3506	0.744	0.4419	-0.13
Mof_C 	C 	0.3843	0.7851	0.456	0.128
Mof_H 	H 	0.3984	0.7939	0.4873	-0.053
Mof_C 	C 	0.3987	0.8145	0.4265	-0.207
Mof_C 	C 	0.3777	0.8028	0.3821	0.071
Mof_H 	H 	0.3873	0.825	0.3612	0.033
Mof_C 	C 	0.3436	0.7606	0.3665	-0.066
Mof_C 	C 	0.3306	0.7286	0.3968	0.228
Mof_C 	C 	0.3178	0.7557	0.3167	-0.115
Mof_H 	H 	0.2924	0.7286	0.3128	0.115
Mof_H 	H 	0.3101	0.8073	0.3051	0.101
Mof_C 	C 	0.3367	0.7184	0.2891	-0.013
Mof_C 	C 	0.3694	0.67	0.3055	0.011
Mof_H 	H 	0.3799	0.6555	0.3362	0.06
Mof_C 	C 	0.3862	0.644	0.2782	-0.111
Mof_C 	C 	0.3732	0.6674	0.2341	0.008
Mof_H 	H 	0.3872	0.6514	0.216	0.043
Mof_C 	C 	0.3408	0.7127	0.2168	-0.029
Mof_C 	C 	0.321	0.7373	0.2439	0.176
Mof_C 	C 	0.3271	0.739	0.169	-0.154
Mof_H 	H 	0.3318	0.6988	0.1504	0.097
Mof_H 	H 	0.2975	0.7495	0.1571	0.098
Mof_O 	O 	0.3069	0.883	0.1891	-0.201
Mof_O 	O 	0.3236	0.9555	0.2566	-0.419
Mof_H 	H 	0.316	0.9452	0.2291	0.287
Mof_O 	O 	0.2739	0.9431	0.2972	-0.365
Mof_H 	H 	0.2964	0.9306	0.2964	0.261
Mof_O 	O 	0.2283	0.869	0.362	-0.391
Mof_H 	H 	0.2347	0.8326	0.3799	0.281
Mof_O 	O 	0.2509	0.7463	0.409	-0.408
Mof_H 	H 	0.2695	0.72	0.4065	0.247
Mof_O 	O 	0.2983	0.6861	0.3828	-0.39
Mof_H 	H 	0.2939	0.6701	0.4051	0.205
Mof_O 	O 	0.2876	0.7775	0.2285	-0.375
Mof_H 	H 	0.281	0.7857	0.2009	0.262
Mof_S 	S 	0.43853	0.8647	0.12712	0.568
Mof_S 	S 	0.44337	0.193	0.30897	0.617
Mof_S 	S 	0.29148	0.20502	0.41029	0.511
Mof_S 	S 	0.0917	0.0379	0.3667	0.598
Mof_S 	S 	0.30891	0.9131	0.5753	0.541
Mof_S 	S 	0.44342	0.8649	0.4465	0.698
Mof_S 	S 	0.42676	0.5828	0.29859	0.603
Mof_O 	O 	0.4656	0.8093	0.1507	-0.232
Mof_O 	O 	0.4585	0.9347	0.1357	-0.29
Mof_O 	O 	0.419	0.8481	0.0813	-0.249
Mof_O 	O 	0.4227	0.2553	0.3195	-0.28
Mof_O 	O 	0.4535	0.2137	0.2726	-0.263
Mof_O 	O 	0.4772	0.1633	0.3441	-0.458
Mof_O 	O 	0.2621	0.1988	0.4302	-0.226
Mof_O 	O 	0.2829	0.2659	0.3799	-0.238
Mof_O 	O 	0.3321	0.2051	0.4429	-0.23
Mof_O 	O 	0.0866	0.0179	0.4068	-0.261
Mof_O 	O 	0.1013	0.1145	0.3646	-0.272
Mof_O 	O 	0.0576	0.0111	0.3281	-0.403
Mof_O 	O 	0.3413	0.9575	0.5721	-0.262
Mof_O 	O 	0.277	0.9564	0.5759	-0.255
Mof_O 	O 	0.3251	0.8609	0.6115	-0.266
Mof_O 	O 	0.4519	0.885	0.4113	-0.349
Mof_O 	O 	0.4393	0.9201	0.4751	-0.452
Mof_O 	O 	0.4733	0.8146	0.4772	-0.411
Mof_O 	O 	0.4624	0.624	0.3161	-0.335
Mof_O 	O 	0.4191	0.5361	0.3292	-0.267
Mof_O 	O 	0.4263	0.5392	0.2618	-0.398
Mof_Ba	Ba	0.5131	0.13393	0.43309	1.479
Mof_O 	O 	0.9653	0.1758	0.2	-0.216
Mof_Ba	Ba	0.99689	0.05257	0.25968	0.952
Mof_C 	C 	0.8384	0.6225	0.6777	0.1
Mof_C 	C 	0.8495	0.6912	0.6653	0.038
Mof_C 	C 	0.8803	0.6942	0.6507	-0.037
Mof_H 	H 	0.8876	0.741	0.6419	0.091
Mof_C 	C 	0.9013	0.6301	0.6484	-0.06
Mof_C 	C 	0.8906	0.5638	0.6621	-0.023
Mof_H 	H 	0.9053	0.5196	0.6614	0.063
Mof_C 	C 	0.8599	0.559	0.6764	0.024
Mof_C 	C 	0.8464	0.484	0.6875	-0.147
Mof_H 	H 	0.853	0.4451	0.6694	0.105
Mof_H 	H 	0.8164	0.4851	0.6778	0.104
Mof_C 	C 	0.8645	0.46	0.7361	-0.053
Mof_C 	C 	0.893	0.4044	0.7491	0.045
Mof_H 	H 	0.9024	0.3832	0.7278	0.043
Mof_C 	C 	0.9079	0.3795	0.7911	-0.146
Mof_C 	C 	0.8949	0.4104	0.8227	0.049
Mof_H 	H 	0.9051	0.3914	0.8525	-0.014
Mof_C 	C 	0.8677	0.4677	0.8112	-0.063
Mof_C 	C 	0.8517	0.4916	0.7672	0.209
Mof_C 	C 	0.854	0.5021	0.845	-0.077
Mof_H 	H 	0.8491	0.5563	0.8382	0.065
Mof_H 	H 	0.8763	0.4977	0.8751	0.053
Mof_C 	C 	0.8168	0.4688	0.8472	-0.043
Mof_C 	C 	0.8205	0.4068	0.874	0.005
Mof_H 	H 	0.8465	0.3846	0.8894	0.044
Mof_C 	C 	0.7873	0.3773	0.8785	-0.07
Mof_C 	C 	0.7501	0.4109	0.8579	-0.018
Mof_H 	H 	0.727	0.392	0.8623	0.056
Mof_C 	C 	0.7465	0.4715	0.831	0.003
Mof_C 	C 	0.7795	0.4986	0.8257	0.176
Mof_C 	C 	0.7049	0.5066	0.8075	-0.133
Mof_H 	H 	0.687	0.4704	0.7854	0.088
Mof_H 	H 	0.7076	0.5515	0.7907	0.126
Mof_C 	C 	0.6854	0.5292	0.8395	-0.014
Mof_C 	C 	0.6541	0.4907	0.8406	0.01
Mof_H 	H 	0.645	0.4477	0.822	0.042
Mof_C 	C 	0.6342	0.5116	0.8682	-0.111
Mof_C 	C 	0.6484	0.5698	0.8953	0.028
Mof_H 	H 	0.6356	0.5831	0.9153	0.04
Mof_C 	C 	0.681	0.6118	0.8959	-0.053
Mof_C 	C 	0.6986	0.5933	0.8667	0.197
Mof_C 	C 	0.694	0.6772	0.9264	-0.108
Mof_H 	H 	0.6889	0.7233	0.9079	0.099
Mof_H 	H 	0.6769	0.6797	0.9442	0.065
Mof_C 	C 	0.7379	0.6769	0.9582	-0.043
Mof_C 	C 	0.7497	0.6367	0.997	0.015
Mof_H 	H 	0.7306	0.6074	0.0037	0.05
Mof_C 	C 	0.7894	0.6392	0.0259	-0.102
Mof_C 	C 	0.8161	0.6864	0.0177	0.03
Mof_H 	H 	0.8436	0.6891	0.0385	0.016
Mof_C 	C 	0.8034	0.7298	0.9796	-0.086
Mof_C 	C 	0.7645	0.721	0.949	0.192
Mof_C 	C 	0.8327	0.7828	0.9741	-0.042
Mof_H 	H 	0.8189	0.8314	0.9633	0.04
Mof_H 	H 	0.8549	0.7916	0.0037	0.036
Mof_C 	C 	0.8506	0.756	0.9419	-0.13
Mof_C 	C 	0.8843	0.7149	0.956	0.128
Mof_H 	H 	0.8984	0.7061	0.9873	-0.053
Mof_C 	C 	0.8987	0.6855	0.9265	-0.207
Mof_C 	C 	0.8777	0.6972	0.8821	0.071
Mof_H 	H 	0.8873	0.675	0.8612	0.033
Mof_C 	C 	0.8436	0.7394	0.8665	-0.066
Mof_C 	C 	0.8306	0.7714	0.8968	0.228
Mof_C 	C 	0.8178	0.7443	0.8167	-0.115
Mof_H 	H 	0.7924	0.7714	0.8128	0.114
Mof_H 	H 	0.8101	0.6927	0.8051	0.101
Mof_C 	C 	0.8367	0.7816	0.7891	-0.013
Mof_C 	C 	0.8694	0.83	0.8055	0.011
Mof_H 	H 	0.8799	0.8445	0.8362	0.059
Mof_C 	C 	0.8862	0.856	0.7782	-0.112
Mof_C 	C 	0.8732	0.8326	0.7341	0.008
Mof_H 	H 	0.8872	0.8486	0.716	0.043
Mof_C 	C 	0.8408	0.7873	0.7168	-0.03
Mof_C 	C 	0.821	0.7627	0.7439	0.176
Mof_C 	C 	0.8271	0.761	0.669	-0.154
Mof_H 	H 	0.8318	0.8012	0.6504	0.097
Mof_H 	H 	0.7975	0.7505	0.6571	0.098
Mof_O 	O 	0.8069	0.617	0.6891	-0.202
Mof_O 	O 	0.8236	0.5445	0.7566	-0.42
Mof_H 	H 	0.816	0.5548	0.7291	0.288
Mof_O 	O 	0.7739	0.5569	0.7972	-0.365
Mof_H 	H 	0.7964	0.5694	0.7964	0.261
Mof_O 	O 	0.7283	0.631	0.862	-0.391
Mof_H 	H 	0.7347	0.6674	0.8799	0.281
Mof_O 	O 	0.7509	0.7537	0.909	-0.408
Mof_H 	H 	0.7695	0.78	0.9065	0.247
Mof_O 	O 	0.7983	0.8139	0.8828	-0.39
Mof_H 	H 	0.7939	0.8299	0.9051	0.205
Mof_O 	O 	0.7876	0.7225	0.7285	-0.375
Mof_H 	H 	0.781	0.7143	0.7009	0.262
Mof_S 	S 	0.93853	0.6353	0.62712	0.568
Mof_S 	S 	0.94337	0.307	0.80897	0.618
Mof_S 	S 	0.79148	0.29498	0.91029	0.511
Mof_S 	S 	0.5917	0.4621	0.8667	0.599
Mof_S 	S 	0.80891	0.5869	0.0753	0.541
Mof_S 	S 	0.94342	0.6351	0.9465	0.698
Mof_S 	S 	0.92676	0.9172	0.79859	0.604
Mof_O 	O 	0.9656	0.6907	0.6507	-0.233
Mof_O 	O 	0.9585	0.5653	0.6357	-0.29
Mof_O 	O 	0.919	0.6519	0.5813	-0.25
Mof_O 	O 	0.9227	0.2447	0.8195	-0.28
Mof_O 	O 	0.9535	0.2863	0.7726	-0.264
Mof_O 	O 	0.9772	0.3367	0.8441	-0.459
Mof_O 	O 	0.7621	0.3012	0.9302	-0.226
Mof_O 	O 	0.7829	0.2341	0.8799	-0.237
Mof_O 	O 	0.8321	0.2949	0.9429	-0.23
Mof_O 	O 	0.5866	0.4821	0.9068	-0.261
Mof_O 	O 	0.6013	0.3855	0.8646	-0.272
Mof_O 	O 	0.5576	0.4889	0.8281	-0.403
Mof_O 	O 	0.8413	0.5425	0.0721	-0.262
Mof_O 	O 	0.777	0.5436	0.0759	-0.255
Mof_O 	O 	0.8251	0.6391	0.1115	-0.266
Mof_O 	O 	0.9519	0.615	0.9113	-0.35
Mof_O 	O 	0.9393	0.5799	0.9751	-0.452
Mof_O 	O 	0.9733	0.6854	0.9772	-0.411
Mof_O 	O 	0.9624	0.876	0.8161	-0.337
Mof_O 	O 	0.9191	0.9639	0.8292	-0.268
Mof_O 	O 	0.9263	0.9608	0.7618	-0.399
Mof_Ba	Ba	0.0131	0.36607	0.93309	1.485
Mof_O 	O 	0.4653	0.3242	0.7	-0.215
Mof_Ba	Ba	0.49689	0.44743	0.75968	0.929
Mof_C 	C 	0.3384	0.1225	0.6777	0.099
Mof_C 	C 	0.3495	0.1912	0.6653	0.039
Mof_C 	C 	0.3803	0.1942	0.6507	-0.037
Mof_H 	H 	0.3876	0.241	0.6419	0.091
Mof_C 	C 	0.4013	0.1301	0.6484	-0.06
Mof_C 	C 	0.3906	0.0638	0.6621	-0.023
Mof_H 	H 	0.4053	0.0196	0.6614	0.063
Mof_C 	C 	0.3599	0.059	0.6764	0.025
Mof_C 	C 	0.3464	0.984	0.6875	-0.147
Mof_H 	H 	0.353	0.9451	0.6694	0.105
Mof_H 	H 	0.3164	0.9851	0.6778	0.105
Mof_C 	C 	0.3645	0.96	0.7361	-0.053
Mof_C 	C 	0.393	0.9044	0.7491	0.045
Mof_H 	H 	0.4024	0.8832	0.7278	0.043
Mof_C 	C 	0.4079	0.8795	0.7911	-0.147
Mof_C 	C 	0.3949	0.9104	0.8227	0.05
Mof_H 	H 	0.4051	0.8914	0.8525	-0.014
Mof_C 	C 	0.3677	0.9677	0.8112	-0.065
Mof_C 	C 	0.3517	0.9916	0.7672	0.209
Mof_C 	C 	0.354	0.0021	0.845	-0.073
Mof_H 	H 	0.3491	0.0563	0.8382	0.064
Mof_H 	H 	0.3763	0.9977	0.8751	0.052
Mof_C 	C 	0.3168	0.9688	0.8472	-0.046
Mof_C 	C 	0.3205	0.9068	0.874	0.007
Mof_H 	H 	0.3465	0.8846	0.8894	0.044
Mof_C 	C 	0.2873	0.8773	0.8785	-0.071
Mof_C 	C 	0.2501	0.9109	0.8579	-0.017
Mof_H 	H 	0.227	0.892	0.8623	0.055
Mof_C 	C 	0.2465	0.9715	0.831	0.001
Mof_C 	C 	0.2795	0.9986	0.8257	0.176
Mof_C 	C 	0.2049	0.0066	0.8075	-0.132
Mof_H 	H 	0.187	0.9704	0.7854	0.087
Mof_H 	H 	0.2076	0.0515	0.7907	0.126
Mof_C 	C 	0.1854	0.0292	0.8395	-0.012
Mof_C 	C 	0.1541	0.9907	0.8406	0.006
Mof_H 	H 	0.145	0.9477	0.822	0.043
Mof_C 	C 	0.1342	0.0116	0.8682	-0.108
Mof_C 	C 	0.1484	0.0698	0.8953	0.026
Mof_H 	H 	0.1356	0.0831	0.9153	0.041
Mof_C 	C 	0.181	0.1118	0.8959	-0.052
Mof_C 	C 	0.1986	0.0933	0.8667	0.196
Mof_C 	C 	0.194	0.1772	0.9264	-0.109
Mof_H 	H 	0.1889	0.2233	0.9079	0.099
Mof_H 	H 	0.1769	0.1797	0.9442	0.065
Mof_C 	C 	0.2379	0.1769	0.9582	-0.044
Mof_C 	C 	0.2497	0.1367	0.997	0.017
Mof_H 	H 	0.2306	0.1074	0.0037	0.049
Mof_C 	C 	0.2894	0.1392	0.0259	-0.103
Mof_C 	C 	0.3161	0.1864	0.0177	0.03
Mof_H 	H 	0.3436	0.1891	0.0385	0.016
Mof_C 	C 	0.3034	0.2298	0.9796	-0.086
Mof_C 	C 	0.2645	0.221	0.949	0.193
Mof_C 	C 	0.3327	0.2828	0.9741	-0.041
Mof_H 	H 	0.3189	0.3314	0.9633	0.04
Mof_H 	H 	0.3549	0.2916	0.0037	0.036
Mof_C 	C 	0.3506	0.256	0.9419	-0.13
Mof_C 	C 	0.3843	0.2149	0.956	0.128
Mof_H 	H 	0.3984	0.2061	0.9873	-0.053
Mof_C 	C 	0.3987	0.1855	0.9265	-0.207
Mof_C 	C 	0.3777	0.1972	0.8821	0.071
Mof_H 	H 	0.3873	0.175	0.8612	0.033
Mof_C 	C 	0.3436	0.2394	0.8665	-0.066
Mof_C 	C 	0.3306	0.2714	0.8968	0.228
Mof_C 	C 	0.3178	0.2443	0.8167	-0.115
Mof_H 	H 	0.2924	0.2714	0.8128	0.115
Mof_H 	H 	0.3101	0.1927	0.8051	0.101
Mof_C 	C 	0.3367	0.2816	0.7891	-0.013
Mof_C 	C 	0.3694	0.33	0.8055	0.011
Mof_H 	H 	0.3799	0.3445	0.8362	0.06
Mof_C 	C 	0.3862	0.356	0.7782	-0.111
Mof_C 	C 	0.3732	0.3326	0.7341	0.008
Mof_H 	H 	0.3872	0.3486	0.716	0.043
Mof_C 	C 	0.3408	0.2873	0.7168	-0.029
Mof_C 	C 	0.321	0.2627	0.7439	0.176
Mof_C 	C 	0.3271	0.261	0.669	-0.154
Mof_H 	H 	0.3318	0.3012	0.6504	0.097
Mof_H 	H 	0.2975	0.2505	0.6571	0.098
Mof_O 	O 	0.3069	0.117	0.6891	-0.201
Mof_O 	O 	0.3236	0.0445	0.7566	-0.42
Mof_H 	H 	0.316	0.0548	0.7291	0.288
Mof_O 	O 	0.2739	0.0569	0.7972	-0.365
Mof_H 	H 	0.2964	0.0694	0.7964	0.262
Mof_O 	O 	0.2283	0.131	0.862	-0.391
Mof_H 	H 	0.2347	0.1674	0.8799	0.281
Mof_O 	O 	0.2509	0.2537	0.909	-0.408
Mof_H 	H 	0.2695	0.28	0.9065	0.247
Mof_O 	O 	0.2983	0.3139	0.8828	-0.39
Mof_H 	H 	0.2939	0.3299	0.9051	0.205
Mof_O 	O 	0.2876	0.2225	0.7285	-0.375
Mof_H 	H 	0.281	0.2143	0.7009	0.262
Mof_S 	S 	0.43853	0.1353	0.62712	0.568
Mof_S 	S 	0.44337	0.807	0.80897	0.617
Mof_S 	S 	0.29148	0.79498	0.91029	0.511
Mof_S 	S 	0.0917	0.9621	0.8667	0.597
Mof_S 	S 	0.30891	0.0869	0.0753	0.541
Mof_S 	S 	0.44342	0.1351	0.9465	0.698
Mof_S 	S 	0.42676	0.4172	0.79859	0.603
Mof_O 	O 	0.4656	0.1907	0.6507	-0.232
Mof_O 	O 	0.4585	0.0653	0.6357	-0.29
Mof_O 	O 	0.419	0.1519	0.5813	-0.25
Mof_O 	O 	0.4227	0.7447	0.8195	-0.28
Mof_O 	O 	0.4535	0.7863	0.7726	-0.263
Mof_O 	O 	0.4772	0.8367	0.8441	-0.458
Mof_O 	O 	0.2621	0.8012	0.9302	-0.226
Mof_O 	O 	0.2829	0.7341	0.8799	-0.238
Mof_O 	O 	0.3321	0.7949	0.9429	-0.23
Mof_O 	O 	0.0866	0.9821	0.9068	-0.261
Mof_O 	O 	0.1013	0.8855	0.8646	-0.272
Mof_O 	O 	0.0576	0.9889	0.8281	-0.403
Mof_O 	O 	0.3413	0.0425	0.0721	-0.262
Mof_O 	O 	0.277	0.0436	0.0759	-0.255
Mof_O 	O 	0.3251	0.1391	0.1115	-0.266
Mof_O 	O 	0.4519	0.115	0.9113	-0.349
Mof_O 	O 	0.4393	0.0799	0.9751	-0.451
Mof_O 	O 	0.4733	0.1854	0.9772	-0.411
Mof_O 	O 	0.4624	0.376	0.8161	-0.335
Mof_O 	O 	0.4191	0.4639	0.8292	-0.267
Mof_O 	O 	0.4263	0.4608	0.7618	-0.398
Mof_Ba	Ba	0.5131	0.86607	0.93309	1.478
Mof_O 	O 	0.9653	0.8242	0.7	-0.216
Mof_Ba	Ba	0.99689	0.94743	0.75968	0.947
Mof_C 	C 	0.1616	0.6225	0.8223	0.099
Mof_C 	C 	0.1505	0.6912	0.8347	0.039
Mof_C 	C 	0.1197	0.6942	0.8493	-0.037
Mof_H 	H 	0.1124	0.741	0.8581	0.091
Mof_C 	C 	0.0987	0.6301	0.8516	-0.059
Mof_C 	C 	0.1094	0.5638	0.8379	-0.023
Mof_H 	H 	0.0947	0.5196	0.8386	0.063
Mof_C 	C 	0.1401	0.559	0.8236	0.025
Mof_C 	C 	0.1536	0.484	0.8125	-0.147
Mof_H 	H 	0.147	0.4451	0.8306	0.105
Mof_H 	H 	0.1836	0.4851	0.8222	0.105
Mof_C 	C 	0.1355	0.46	0.7639	-0.052
Mof_C 	C 	0.107	0.4044	0.7509	0.045
Mof_H 	H 	0.0976	0.3832	0.7722	0.043
Mof_C 	C 	0.0921	0.3795	0.7089	-0.145
Mof_C 	C 	0.1051	0.4104	0.6773	0.049
Mof_H 	H 	0.0949	0.3914	0.6475	-0.013
Mof_C 	C 	0.1323	0.4677	0.6888	-0.062
Mof_C 	C 	0.1483	0.4916	0.7328	0.209
Mof_C 	C 	0.146	0.5021	0.655	-0.078
Mof_H 	H 	0.1509	0.5563	0.6618	0.066
Mof_H 	H 	0.1237	0.4977	0.6249	0.054
Mof_C 	C 	0.1832	0.4688	0.6528	-0.043
Mof_C 	C 	0.1795	0.4068	0.626	0.005
Mof_H 	H 	0.1535	0.3846	0.6106	0.044
Mof_C 	C 	0.2127	0.3773	0.6215	-0.07
Mof_C 	C 	0.2499	0.4109	0.6421	-0.018
Mof_H 	H 	0.273	0.392	0.6377	0.056
Mof_C 	C 	0.2535	0.4715	0.669	0.003
Mof_C 	C 	0.2205	0.4986	0.6743	0.175
Mof_C 	C 	0.2951	0.5066	0.6925	-0.133
Mof_H 	H 	0.313	0.4704	0.7146	0.088
Mof_H 	H 	0.2924	0.5515	0.7093	0.126
Mof_C 	C 	0.3146	0.5292	0.6605	-0.014
Mof_C 	C 	0.3459	0.4907	0.6594	0.01
Mof_H 	H 	0.355	0.4477	0.678	0.042
Mof_C 	C 	0.3658	0.5116	0.6318	-0.111
Mof_C 	C 	0.3516	0.5698	0.6047	0.028
Mof_H 	H 	0.3644	0.5831	0.5847	0.04
Mof_C 	C 	0.319	0.6118	0.6041	-0.053
Mof_C 	C 	0.3014	0.5933	0.6333	0.197
Mof_C 	C 	0.306	0.6772	0.5736	-0.108
Mof_H 	H 	0.3111	0.7233	0.5921	0.099
Mof_H 	H 	0.3231	0.6797	0.5558	0.065
Mof_C 	C 	0.2621	0.6769	0.5418	-0.043
Mof_C 	C 	0.2503	0.6367	0.503	0.014
Mof_H 	H 	0.2694	0.6074	0.4963	0.05
Mof_C 	C 	0.2106	0.6392	0.4741	-0.102
Mof_C 	C 	0.1839	0.6864	0.4823	0.029
Mof_H 	H 	0.1564	0.6891	0.4615	0.016
Mof_C 	C 	0.1966	0.7298	0.5204	-0.086
Mof_C 	C 	0.2355	0.721	0.551	0.192
Mof_C 	C 	0.1673	0.7828	0.5259	-0.042
Mof_H 	H 	0.1811	0.8314	0.5367	0.04
Mof_H 	H 	0.1451	0.7916	0.4963	0.036
Mof_C 	C 	0.1494	0.756	0.5581	-0.13
Mof_C 	C 	0.1157	0.7149	0.544	0.128
Mof_H 	H 	0.1016	0.7061	0.5127	-0.053
Mof_C 	C 	0.1013	0.6855	0.5735	-0.207
Mof_C 	C 	0.1223	0.6972	0.6179	0.071
Mof_H 	H 	0.1127	0.675	0.6388	0.033
Mof_C 	C 	0.1564	0.7394	0.6335	-0.066
Mof_C 	C 	0.1694	0.7714	0.6032	0.228
Mof_C 	C 	0.1822	0.7443	0.6833	-0.115
Mof_H 	H 	0.2076	0.7714	0.6872	0.115
Mof_H 	H 	0.1899	0.6927	0.6949	0.101
Mof_C 	C 	0.1633	0.7816	0.7109	-0.012
Mof_C 	C 	0.1306	0.83	0.6945	0.011
Mof_H 	H 	0.1201	0.8445	0.6638	0.06
Mof_C 	C 	0.1138	0.856	0.7218	-0.111
Mof_C 	C 	0.1268	0.8326	0.7659	0.008
Mof_H 	H 	0.1128	0.8486	0.784	0.043
Mof_C 	C 	0.1592	0.7873	0.7832	-0.029
Mof_C 	C 	0.179	0.7627	0.7561	0.176
Mof_C 	C 	0.1729	0.761	0.831	-0.154
Mof_H 	H 	0.1682	0.8012	0.8496	0.097
Mof_H 	H 	0.2025	0.7505	0.8429	0.098
Mof_O 	O 	0.1931	0.617	0.8109	-0.202
Mof_O 	O 	0.1764	0.5445	0.7434	-0.42
Mof_H 	H 	0.184	0.5548	0.7709	0.287
Mof_O 	O 	0.2261	0.5569	0.7028	-0.365
Mof_H 	H 	0.2036	0.5694	0.7036	0.261
Mof_O 	O 	0.2717	0.631	0.638	-0.391
Mof_H 	H 	0.2653	0.6674	0.6201	0.281
Mof_O 	O 	0.2491	0.7537	0.591	-0.408
Mof_H 	H 	0.2305	0.78	0.5935	0.247
Mof_O 	O 	0.2017	0.8139	0.6172	-0.39
Mof_H 	H 	0.2061	0.8299	0.5949	0.205
Mof_O 	O 	0.2124	0.7225	0.7715	-0.375
Mof_H 	H 	0.219	0.7143	0.7991	0.262
Mof_S 	S 	0.06147	0.6353	0.87288	0.568
Mof_S 	S 	0.05663	0.307	0.69103	0.616
Mof_S 	S 	0.20852	0.29498	0.58971	0.511
Mof_S 	S 	0.4083	0.4621	0.6333	0.599
Mof_S 	S 	0.19109	0.5869	0.4247	0.541
Mof_S 	S 	0.05658	0.6351	0.5535	0.698
Mof_S 	S 	0.07324	0.9172	0.70141	0.603
Mof_O 	O 	0.0344	0.6907	0.8493	-0.231
Mof_O 	O 	0.0415	0.5653	0.8643	-0.289
Mof_O 	O 	0.081	0.6519	0.9187	-0.249
Mof_O 	O 	0.0773	0.2447	0.6805	-0.279
Mof_O 	O 	0.0465	0.2863	0.7274	-0.262
Mof_O 	O 	0.0228	0.3367	0.6559	-0.456
Mof_O 	O 	0.2379	0.3012	0.5698	-0.226
Mof_O 	O 	0.2171	0.2341	0.6201	-0.237
Mof_O 	O 	0.1679	0.2949	0.5571	-0.229
Mof_O 	O 	0.4134	0.4821	0.5932	-0.262
Mof_O 	O 	0.3987	0.3855	0.6354	-0.272
Mof_O 	O 	0.4424	0.4889	0.6719	-0.403
Mof_O 	O 	0.1587	0.5425	0.4279	-0.261
Mof_O 	O 	0.223	0.5436	0.4241	-0.255
Mof_O 	O 	0.1749	0.6391	0.3885	-0.266
Mof_O 	O 	0.0481	0.615	0.5887	-0.348
Mof_O 	O 	0.0607	0.5799	0.5249	-0.452
Mof_O 	O 	0.0267	0.6854	0.5228	-0.41
Mof_O 	O 	0.0376	0.876	0.6839	-0.333
Mof_O 	O 	0.0809	0.9639	0.6708	-0.267
Mof_O 	O 	0.0737	0.9608	0.7382	-0.397
Mof_Ba	Ba	0.9869	0.36607	0.56691	1.476
Mof_O 	O 	0.5347	0.3242	0.8	-0.215
Mof_Ba	Ba	0.50311	0.44743	0.74032	0.929
Mof_C 	C 	0.6616	0.1225	0.8223	0.099
Mof_C 	C 	0.6505	0.1912	0.8347	0.039
Mof_C 	C 	0.6197	0.1942	0.8493	-0.037
Mof_H 	H 	0.6124	0.241	0.8581	0.091
Mof_C 	C 	0.5987	0.1301	0.8516	-0.059
Mof_C 	C 	0.6094	0.0638	0.8379	-0.023
Mof_H 	H 	0.5947	0.0196	0.8386	0.063
Mof_C 	C 	0.6401	0.059	0.8236	0.026
Mof_C 	C 	0.6536	0.984	0.8125	-0.148
Mof_H 	H 	0.647	0.9451	0.8306	0.105
Mof_H 	H 	0.6836	0.9851	0.8222	0.105
Mof_C 	C 	0.6355	0.96	0.7639	-0.052
Mof_C 	C 	0.607	0.9044	0.7509	0.045
Mof_H 	H 	0.5976	0.8832	0.7722	0.043
Mof_C 	C 	0.5921	0.8795	0.7089	-0.146
Mof_C 	C 	0.6051	0.9104	0.6773	0.049
Mof_H 	H 	0.5949	0.8914	0.6475	-0.014
Mof_C 	C 	0.6323	0.9677	0.6888	-0.064
Mof_C 	C 	0.6483	0.9916	0.7328	0.209
Mof_C 	C 	0.646	0.0021	0.655	-0.076
Mof_H 	H 	0.6509	0.0563	0.6618	0.065
Mof_H 	H 	0.6237	0.9977	0.6249	0.053
Mof_C 	C 	0.6832	0.9688	0.6528	-0.044
Mof_C 	C 	0.6795	0.9068	0.626	0.006
Mof_H 	H 	0.6535	0.8846	0.6106	0.044
Mof_C 	C 	0.7127	0.8773	0.6215	-0.071
Mof_C 	C 	0.7499	0.9109	0.6421	-0.017
Mof_H 	H 	0.773	0.892	0.6377	0.056
Mof_C 	C 	0.7535	0.9715	0.669	0.002
Mof_C 	C 	0.7205	0.9986	0.6743	0.176
Mof_C 	C 	0.7951	0.0066	0.6925	-0.132
Mof_H 	H 	0.813	0.9704	0.7146	0.087
Mof_H 	H 	0.7924	0.0515	0.7093	0.126
Mof_C 	C 	0.8146	0.0292	0.6605	-0.013
Mof_C 	C 	0.8459	0.9907	0.6594	0.008
Mof_H 	H 	0.855	0.9477	0.678	0.043
Mof_C 	C 	0.8658	0.0116	0.6318	-0.11
Mof_C 	C 	0.8516	0.0698	0.6047	0.027
Mof_H 	H 	0.8644	0.0831	0.5847	0.04
Mof_C 	C 	0.819	0.1118	0.6041	-0.052
Mof_C 	C 	0.8014	0.0933	0.6333	0.197
Mof_C 	C 	0.806	0.1772	0.5736	-0.109
Mof_H 	H 	0.8111	0.2233	0.5921	0.099
Mof_H 	H 	0.8231	0.1797	0.5558	0.065
Mof_C 	C 	0.7621	0.1769	0.5418	-0.043
Mof_C 	C 	0.7503	0.1367	0.503	0.014
Mof_H 	H 	0.7694	0.1074	0.4963	0.05
Mof_C 	C 	0.7106	0.1392	0.4741	-0.102
Mof_C 	C 	0.6839	0.1864	0.4823	0.03
Mof_H 	H 	0.6564	0.1891	0.4615	0.016
Mof_C 	C 	0.6966	0.2298	0.5204	-0.086
Mof_C 	C 	0.7355	0.221	0.551	0.192
Mof_C 	C 	0.6673	0.2828	0.5259	-0.042
Mof_H 	H 	0.6811	0.3314	0.5367	0.04
Mof_H 	H 	0.6451	0.2916	0.4963	0.036
Mof_C 	C 	0.6494	0.256	0.5581	-0.13
Mof_C 	C 	0.6157	0.2149	0.544	0.128
Mof_H 	H 	0.6016	0.2061	0.5127	-0.053
Mof_C 	C 	0.6013	0.1855	0.5735	-0.207
Mof_C 	C 	0.6223	0.1972	0.6179	0.071
Mof_H 	H 	0.6127	0.175	0.6388	0.033
Mof_C 	C 	0.6564	0.2394	0.6335	-0.066
Mof_C 	C 	0.6694	0.2714	0.6032	0.228
Mof_C 	C 	0.6822	0.2443	0.6833	-0.115
Mof_H 	H 	0.7076	0.2714	0.6872	0.115
Mof_H 	H 	0.6899	0.1927	0.6949	0.101
Mof_C 	C 	0.6633	0.2816	0.7109	-0.013
Mof_C 	C 	0.6306	0.33	0.6945	0.011
Mof_H 	H 	0.6201	0.3445	0.6638	0.06
Mof_C 	C 	0.6138	0.356	0.7218	-0.111
Mof_C 	C 	0.6268	0.3326	0.7659	0.008
Mof_H 	H 	0.6128	0.3486	0.784	0.043
Mof_C 	C 	0.6592	0.2873	0.7832	-0.029
Mof_C 	C 	0.679	0.2627	0.7561	0.176
Mof_C 	C 	0.6729	0.261	0.831	-0.154
Mof_H 	H 	0.6682	0.3012	0.8496	0.097
Mof_H 	H 	0.7025	0.2505	0.8429	0.098
Mof_O 	O 	0.6931	0.117	0.8109	-0.201
Mof_O 	O 	0.6764	0.0445	0.7434	-0.419
Mof_H 	H 	0.684	0.0548	0.7709	0.287
Mof_O 	O 	0.7261	0.0569	0.7028	-0.365
Mof_H 	H 	0.7036	0.0694	0.7036	0.261
Mof_O 	O 	0.7717	0.131	0.638	-0.391
Mof_H 	H 	0.7653	0.1674	0.6201	0.281
Mof_O 	O 	0.7491	0.2537	0.591	-0.408
Mof_H 	H 	0.7305	0.28	0.5935	0.247
Mof_O 	O 	0.7017	0.3139	0.6172	-0.39
Mof_H 	H 	0.7061	0.3299	0.5949	0.205
Mof_O 	O 	0.7124	0.2225	0.7715	-0.375
Mof_H 	H 	0.719	0.2143	0.7991	0.262
Mof_S 	S 	0.56147	0.1353	0.87288	0.568
Mof_S 	S 	0.55663	0.807	0.69103	0.617
Mof_S 	S 	0.70852	0.79498	0.58971	0.511
Mof_S 	S 	0.9083	0.9621	0.6333	0.598
Mof_S 	S 	0.69109	0.0869	0.4247	0.541
Mof_S 	S 	0.55658	0.1351	0.5535	0.698
Mof_S 	S 	0.57324	0.4172	0.70141	0.603
Mof_O 	O 	0.5344	0.1907	0.8493	-0.232
Mof_O 	O 	0.5415	0.0653	0.8643	-0.29
Mof_O 	O 	0.581	0.1519	0.9187	-0.249
Mof_O 	O 	0.5773	0.7447	0.6805	-0.28
Mof_O 	O 	0.5465	0.7863	0.7274	-0.263
Mof_O 	O 	0.5228	0.8367	0.6559	-0.458
Mof_O 	O 	0.7379	0.8012	0.5698	-0.226
Mof_O 	O 	0.7171	0.7341	0.6201	-0.238
Mof_O 	O 	0.6679	0.7949	0.5571	-0.23
Mof_O 	O 	0.9134	0.9821	0.5932	-0.262
Mof_O 	O 	0.8987	0.8855	0.6354	-0.272
Mof_O 	O 	0.9424	0.9889	0.6719	-0.403
Mof_O 	O 	0.6587	0.0425	0.4279	-0.262
Mof_O 	O 	0.723	0.0436	0.4241	-0.255
Mof_O 	O 	0.6749	0.1391	0.3885	-0.266
Mof_O 	O 	0.5481	0.115	0.5887	-0.349
Mof_O 	O 	0.5607	0.0799	0.5249	-0.452
Mof_O 	O 	0.5267	0.1854	0.5228	-0.411
Mof_O 	O 	0.5376	0.376	0.6839	-0.335
Mof_O 	O 	0.5809	0.4639	0.6708	-0.267
Mof_O 	O 	0.5737	0.4608	0.7382	-0.398
Mof_Ba	Ba	0.4869	0.86607	0.56691	1.479
Mof_O 	O 	0.0347	0.8242	0.8	-0.214
Mof_Ba	Ba	0.00311	0.94743	0.74032	0.91
Mof_O 	O 	0.5	0.4053	0.25	-0.249
Mof_O 	O 	1.17663e-33	0.9053	0.25	-0.246
Mof_O 	O 	0.5	0.5947	0.75	-0.249
Mof_O 	O 	3.52988e-33	0.0947	0.75	-0.247
_end
