# CIF file generated by openbabel 3.1.0, see https://openbabel.org
data_I
_chemical_name_common 'KAPHOZ_ion_b'
_cell_length_a 9.5545
_cell_length_b 9.5545
_cell_length_c 11.1085
_cell_angle_alpha 90.8293
_cell_angle_beta 90.8293
_cell_angle_gamma 107.222
_space_group_name_H-M_alt 'P 1'
_space_group_name_Hall 'P 1'
loop_
    _symmetry_equiv_pos_as_xyz
    x,y,z
loop_
    _atom_site_label
    _atom_site_type_symbol
    _atom_site_fract_x
    _atom_site_fract_y
    _atom_site_fract_z
    _atom_site_occupancy
    K1       K        0.64219    0.78981    0.49244    1.000
    O2       O        0.44421    0.31999    0.15210    1.000
    O3       O        0.67750    0.38010    0.09900    1.000
    O4       O        0.47222    0.34538    0.87490    1.000
    O5       O        0.50030    0.20450    0.72370    1.000
    C6       C        0.55270    0.29450    0.09940    1.000
    C7       C        0.48930    0.22730    0.83250    1.000
    C8       C        0.52270    0.14310    0.04390    1.000
    C9       C        0.49580    0.11140    0.92120    1.000
    C10      C        0.52620    0.03120    0.12100    1.000
    H11      H        0.54360    0.05220    0.20280    1.000
    K15      K        0.21019    0.35781    0.00756    1.000
    O16      O        0.68001    0.55579    0.34790    1.000
    O17      O        0.61990    0.32250    0.40100    1.000
    O18      O        0.65462    0.52778    0.62510    1.000
    O19      O        0.79550    0.49970    0.77630    1.000
    C20      C        0.70550    0.44730    0.40060    1.000
    C21      C        0.77270    0.51070    0.66750    1.000
    C22      C        0.85690    0.47730    0.45610    1.000
    C23      C        0.88860    0.50420    0.57880    1.000
    C24      C        0.96880    0.47380    0.37900    1.000
    H25      H        0.94780    0.45640    0.29720    1.000
    K29      K        0.35781    0.21019    0.50756    1.000
    O30      O        0.55579    0.68001    0.84790    1.000
    O31      O        0.32250    0.61990    0.90100    1.000
    O32      O        0.52778    0.65462    0.12510    1.000
    O33      O        0.49970    0.79550    0.27630    1.000
    C34      C        0.44730    0.70550    0.90060    1.000
    C35      C        0.51070    0.77270    0.16750    1.000
    C36      C        0.47730    0.85690    0.95610    1.000
    C37      C        0.50420    0.88860    0.07880    1.000
    C38      C        0.47380    0.96880    0.87900    1.000
    H39      H        0.45640    0.94780    0.79720    1.000
    K43      K        0.78981    0.64219    0.99244    1.000
    O44      O        0.31999    0.44421    0.65210    1.000
    O45      O        0.38010    0.67750    0.59900    1.000
    O46      O        0.34538    0.47222    0.37490    1.000
    O47      O        0.20450    0.50030    0.22370    1.000
    C48      C        0.29450    0.55270    0.59940    1.000
    C49      C        0.22730    0.48930    0.33250    1.000
    C50      C        0.14310    0.52270    0.54390    1.000
    C51      C        0.11140    0.49580    0.42120    1.000
    C52      C        0.03120    0.52620    0.62100    1.000
    H53      H        0.05220    0.54360    0.70280    1.000
    Zn57     Zn       0.49675    0.50325    0.25000    1.000
    Zn59     Zn       0.50325    0.49675    0.75000    1.000
