data_functionalizedCrystal
_audit_creation_method	'EQeq! by Chris Wilmer'
_symmetry_space_group_name_H-M	'P1'
_symmetry_Int_Tables_number	1
_symmetry_cell_setting	triclinic
loop_
_symmetry_equiv_pos_as_xyz
  x,y,z
_cell_length_a	9.334
_cell_length_b	25.458
_cell_length_c	19.822
_cell_angle_alpha	90
_cell_angle_beta	99.86
_cell_angle_gamma	90
loop_
_atom_site_label
_atom_site_type_symbol
_atom_site_fract_x
_atom_site_fract_y
_atom_site_fract_z
_atom_site_charge
Mof_N 	N 	0.1982	0.04897	0.02124	-0.263
Mof_N 	N 	0.3497	0.11378	0.05792	-0.105
Mof_N 	N 	0.909	0.03813	0.07881	-0.227
Mof_N 	N 	0.839	0.05066	0.1778	-0.096
Mof_N 	N 	0.107	0.94067	0.07009	-0.223
Mof_N 	N 	0.1706	0.8608	0.1074	-0.107
Mof_C 	C 	0.2189	0.09227	0.05918	0.075
Mof_H 	H 	0.151	0.106	0.0836	-0.017
Mof_C 	C 	0.3247	0.04327	0.99482	0.087
Mof_H 	H 	0.3435	0.0162	0.9661	-0.014
Mof_C 	C 	0.4177	0.083	0.01698	-0.083
Mof_H 	H 	0.5099	0.0882	0.0063	0.048
Mof_C 	C 	0.3958	0.16544	0.08413	-0.079
Mof_H 	H 	0.4998	0.169	0.0857	0.054
Mof_H 	H 	0.3767	0.1689	0.1305	0.05
Mof_C 	C 	0.3177	0.20901	0.04013	-0.042
Mof_C 	C 	0.2931	0.2055	0.96941	0.042
Mof_H 	H 	0.3225	0.1757	0.9484	0.026
Mof_C 	C 	0.2752	0.2538	0.07059	0.008
Mof_H 	H 	0.2923	0.2568	0.1181	0.017
Mof_C 	C 	0.8931	0.01634	0.13711	0.019
Mof_H 	H 	0.9163	0.9816	0.1488	0.042
Mof_C 	C 	0.8614	0.08899	0.0827	0.006
Mof_H 	H 	0.8582	0.1141	0.0485	0.018
Mof_C 	C 	0.8204	0.09681	0.1433	-0.007
Mof_H 	H 	0.7856	0.128	0.1588	0.034
Mof_C 	C 	0.8094	0.039	0.24654	-0.12
Mof_H 	H 	0.8564	0.0652	0.2784	0.077
Mof_H 	H 	0.8504	0.0051	0.2611	0.062
Mof_C 	C 	0.6475	0.03861	0.24846	0.027
Mof_C 	C 	0.5734	0.08576	0.2499	-0.069
Mof_H 	H 	0.6235	0.1174	0.2508	0.052
Mof_C 	C 	0.573	0.99161	0.2487	-0.042
Mof_H 	H 	0.622	0.96	0.247	0.051
Mof_C 	C 	0.0617	0.89262	0.07907	0.023
Mof_H 	H 	0.9655	0.8819	0.0672	0.03
Mof_C 	C 	0.2538	0.93919	0.09448	-0.003
Mof_H 	H 	0.3162	0.9677	0.0953	0.029
Mof_C 	C 	0.2949	0.89038	0.11721	-0.009
Mof_H 	H 	0.3883	0.8793	0.1357	0.031
Mof_C 	C 	0.1639	0.80364	0.11692	-0.072
Mof_H 	H 	0.0659	0.7936	0.1217	0.041
Mof_H 	H 	0.2289	0.7937	0.1585	0.048
Mof_C 	C 	0.2076	0.77481	0.05586	-0.049
Mof_C 	C 	0.1175	0.77522	0.99345	0.05
Mof_H 	H 	0.0278	0.792	0.9886	0.017
Mof_C 	C 	0.3398	0.74943	0.06271	0.023
Mof_H 	H 	0.4008	0.7487	0.105	0.017
Mof_N 	N 	0.6982	0.54897	0.02124	-0.246
Mof_N 	N 	0.8497	0.61378	0.05792	-0.112
Mof_N 	N 	0.409	0.53813	0.07881	-0.24
Mof_N 	N 	0.339	0.55066	0.1778	-0.099
Mof_N 	N 	0.607	0.44067	0.07009	-0.234
Mof_N 	N 	0.6706	0.3608	0.1074	-0.114
Mof_C 	C 	0.7189	0.59227	0.05918	0.079
Mof_H 	H 	0.651	0.606	0.0836	-0.008
Mof_C 	C 	0.8247	0.54327	0.99482	0.055
Mof_H 	H 	0.8435	0.5162	0.9661	0.017
Mof_C 	C 	0.9177	0.583	0.01698	-0.007
Mof_H 	H 	0.0099	0.5882	0.0063	0.006
Mof_C 	C 	0.8958	0.66544	0.08413	-0.082
Mof_H 	H 	0.9998	0.669	0.0857	0.066
Mof_H 	H 	0.8767	0.6689	0.1305	0.058
Mof_C 	C 	0.8177	0.70901	0.04013	-0.029
Mof_C 	C 	0.7931	0.7055	0.96941	0.039
Mof_H 	H 	0.8225	0.6757	0.9484	0.032
Mof_C 	C 	0.7752	0.7538	0.07059	0.007
Mof_H 	H 	0.7923	0.7568	0.1181	0.025
Mof_C 	C 	0.3931	0.51634	0.13711	0.076
Mof_H 	H 	0.4163	0.4816	0.1488	-0.011
Mof_C 	C 	0.3614	0.58899	0.0827	0.003
Mof_H 	H 	0.3582	0.6141	0.0485	0.015
Mof_C 	C 	0.3204	0.59681	0.1433	-0.014
Mof_H 	H 	0.2856	0.628	0.1588	0.03
Mof_C 	C 	0.3094	0.539	0.24654	-0.178
Mof_H 	H 	0.3564	0.5652	0.2784	0.086
Mof_H 	H 	0.3504	0.5051	0.2611	0.083
Mof_C 	C 	0.1475	0.53861	0.24846	0.149
Mof_C 	C 	0.0734	0.58576	0.2499	-0.2
Mof_H 	H 	0.1235	0.6174	0.2508	0.09
Mof_C 	C 	0.073	0.49161	0.2487	-0.205
Mof_H 	H 	0.122	0.46	0.247	0.093
Mof_C 	C 	0.5617	0.39262	0.07907	0.079
Mof_H 	H 	0.4655	0.3819	0.0672	-0.012
Mof_C 	C 	0.7538	0.43919	0.09448	-0.004
Mof_H 	H 	0.8162	0.4677	0.0953	0.023
Mof_C 	C 	0.7949	0.39038	0.11721	-0.009
Mof_H 	H 	0.8883	0.3793	0.1357	0.037
Mof_C 	C 	0.6639	0.30364	0.11692	-0.074
Mof_H 	H 	0.5659	0.2936	0.1217	0.05
Mof_H 	H 	0.7289	0.2937	0.1585	0.054
Mof_C 	C 	0.7076	0.27481	0.05586	-0.042
Mof_C 	C 	0.6175	0.27522	0.99345	0.049
Mof_H 	H 	0.5278	0.292	0.9886	0.027
Mof_C 	C 	0.8398	0.24943	0.06271	0.024
Mof_H 	H 	0.9008	0.2487	0.105	0.024
Mof_N 	N 	0.8018	0.04897	0.47876	-0.225
Mof_N 	N 	0.6503	0.11378	0.44208	-0.105
Mof_N 	N 	0.091	0.03813	0.42119	-0.235
Mof_N 	N 	0.161	0.05066	0.3222	-0.102
Mof_N 	N 	0.893	0.94067	0.42991	-0.223
Mof_N 	N 	0.8294	0.8608	0.3926	-0.114
Mof_C 	C 	0.7811	0.09227	0.44082	0.08
Mof_H 	H 	0.849	0.106	0.4164	0.001
Mof_C 	C 	0.6753	0.04327	0.50518	-0.001
Mof_H 	H 	0.6565	0.0162	0.5339	0.011
Mof_C 	C 	0.5823	0.083	0.48302	-0.014
Mof_H 	H 	0.4901	0.0882	0.4937	0.034
Mof_C 	C 	0.6042	0.16544	0.41587	-0.121
Mof_H 	H 	0.5002	0.169	0.4143	0.068
Mof_H 	H 	0.6233	0.1689	0.3695	0.065
Mof_C 	C 	0.6823	0.20901	0.45987	0.057
Mof_C 	C 	0.7069	0.2055	0.53059	-0.066
Mof_H 	H 	0.6775	0.1757	0.5516	0.058
Mof_C 	C 	0.7248	0.2538	0.42941	-0.073
Mof_H 	H 	0.7077	0.2568	0.3819	0.05
Mof_C 	C 	0.1069	0.01634	0.36289	0.007
Mof_H 	H 	0.0837	0.9816	0.3512	0.03
Mof_C 	C 	0.1386	0.08899	0.4173	-0.004
Mof_H 	H 	0.1418	0.1141	0.4515	0.021
Mof_C 	C 	0.1796	0.09681	0.3567	-0.01
Mof_H 	H 	0.2144	0.128	0.3412	0.029
Mof_C 	C 	0.1906	0.039	0.25346	-0.101
Mof_H 	H 	0.1436	0.0652	0.2216	0.056
Mof_H 	H 	0.1496	0.0051	0.2389	0.042
Mof_C 	C 	0.3525	0.03861	0.25154	0.009
Mof_C 	C 	0.4266	0.08576	0.2501	-0.051
Mof_H 	H 	0.3765	0.1174	0.2492	0.043
Mof_C 	C 	0.427	0.99161	0.2513	-0.023
Mof_H 	H 	0.378	0.96	0.253	0.043
Mof_C 	C 	0.9383	0.89262	0.42093	0.138
Mof_H 	H 	0.0345	0.8819	0.4328	-0.044
Mof_C 	C 	0.7462	0.93919	0.40552	-0
Mof_H 	H 	0.6838	0.9677	0.4047	0.035
Mof_C 	C 	0.7051	0.89038	0.38279	-0.007
Mof_H 	H 	0.6117	0.8793	0.3643	0.033
Mof_C 	C 	0.8361	0.80364	0.38308	-0.124
Mof_H 	H 	0.9341	0.7936	0.3783	0.076
Mof_H 	H 	0.7711	0.7937	0.3415	0.068
Mof_C 	C 	0.7924	0.77481	0.44414	0.065
Mof_C 	C 	0.8825	0.77522	0.50655	-0.075
Mof_H 	H 	0.9722	0.792	0.5114	0.07
Mof_C 	C 	0.6602	0.74943	0.43729	-0.075
Mof_H 	H 	0.5992	0.7487	0.395	0.052
Mof_N 	N 	0.3018	0.54897	0.47876	-0.231
Mof_N 	N 	0.1503	0.61378	0.44208	-0.097
Mof_N 	N 	0.591	0.53813	0.42119	-0.237
Mof_N 	N 	0.661	0.55066	0.3222	-0.112
Mof_N 	N 	0.393	0.44067	0.42991	-0.231
Mof_N 	N 	0.3294	0.3608	0.3926	-0.108
Mof_C 	C 	0.2811	0.59227	0.44082	0.081
Mof_H 	H 	0.349	0.606	0.4164	-0.008
Mof_C 	C 	0.1753	0.54327	0.50518	0.032
Mof_H 	H 	0.1565	0.5162	0.5339	0.006
Mof_C 	C 	0.0823	0.583	0.48302	-0.077
Mof_H 	H 	0.9901	0.5882	0.4937	0.077
Mof_C 	C 	0.1042	0.66544	0.41587	-0.119
Mof_H 	H 	0.0002	0.669	0.4143	0.058
Mof_H 	H 	0.1233	0.6689	0.3695	0.059
Mof_C 	C 	0.1823	0.70901	0.45987	0.05
Mof_C 	C 	0.2069	0.7055	0.53059	-0.07
Mof_H 	H 	0.1775	0.6757	0.5516	0.054
Mof_C 	C 	0.2248	0.7538	0.42941	-0.077
Mof_H 	H 	0.2077	0.7568	0.3819	0.044
Mof_C 	C 	0.6069	0.51634	0.36289	0.083
Mof_H 	H 	0.5837	0.4816	0.3512	-0.012
Mof_C 	C 	0.6386	0.58899	0.4173	0.002
Mof_H 	H 	0.6418	0.6141	0.4515	0.024
Mof_C 	C 	0.6796	0.59681	0.3567	-0.004
Mof_H 	H 	0.7144	0.628	0.3412	0.034
Mof_C 	C 	0.6906	0.539	0.25346	-0.075
Mof_H 	H 	0.6436	0.5652	0.2216	0.057
Mof_H 	H 	0.6496	0.5051	0.2389	0.054
Mof_C 	C 	0.8525	0.53861	0.25154	-0.028
Mof_C 	C 	0.9266	0.58576	0.2501	0.064
Mof_H 	H 	0.8765	0.6174	0.2492	0.01
Mof_C 	C 	0.927	0.49161	0.2513	0.061
Mof_H 	H 	0.878	0.46	0.253	0.013
Mof_C 	C 	0.4383	0.39262	0.42093	0.081
Mof_H 	H 	0.5345	0.3819	0.4328	-0.006
Mof_C 	C 	0.2462	0.43919	0.40552	-0.003
Mof_H 	H 	0.1838	0.4677	0.4047	0.02
Mof_C 	C 	0.2051	0.39038	0.38279	-0.011
Mof_H 	H 	0.1117	0.3793	0.3643	0.026
Mof_C 	C 	0.3361	0.30364	0.38308	-0.123
Mof_H 	H 	0.4341	0.2936	0.3783	0.066
Mof_H 	H 	0.2711	0.2937	0.3415	0.062
Mof_C 	C 	0.2924	0.27481	0.44414	0.059
Mof_C 	C 	0.3825	0.27522	0.50655	-0.076
Mof_H 	H 	0.4722	0.292	0.5114	0.06
Mof_C 	C 	0.1602	0.24943	0.43729	-0.077
Mof_H 	H 	0.0992	0.2487	0.395	0.046
Mof_N 	N 	0.8018	0.95103	0.97876	-0.184
Mof_N 	N 	0.6503	0.88622	0.94208	-0.107
Mof_N 	N 	0.091	0.96187	0.92119	-0.237
Mof_N 	N 	0.161	0.94934	0.8222	-0.116
Mof_N 	N 	0.893	0.05933	0.92991	-0.23
Mof_N 	N 	0.8294	0.1392	0.8926	-0.107
Mof_C 	C 	0.7811	0.90773	0.94082	0.088
Mof_H 	H 	0.849	0.894	0.9164	0.002
Mof_C 	C 	0.6753	0.95673	0.00518	-0.079
Mof_H 	H 	0.6565	0.9838	0.0339	0.058
Mof_C 	C 	0.5823	0.917	0.98302	0.059
Mof_H 	H 	0.4901	0.9118	0.9937	0.024
Mof_C 	C 	0.6042	0.83456	0.91587	-0.161
Mof_H 	H 	0.5002	0.831	0.9143	0.083
Mof_H 	H 	0.6233	0.8311	0.8695	0.076
Mof_C 	C 	0.6823	0.79099	0.95987	0.15
Mof_C 	C 	0.7069	0.7945	0.03059	-0.176
Mof_H 	H 	0.6775	0.8243	0.0516	0.09
Mof_C 	C 	0.7248	0.7462	0.92941	-0.158
Mof_H 	H 	0.7077	0.7432	0.8819	0.079
Mof_C 	C 	0.1069	0.98366	0.86289	0.144
Mof_H 	H 	0.0837	0.0184	0.8512	-0.064
Mof_C 	C 	0.1386	0.91101	0.9173	-0.001
Mof_H 	H 	0.1418	0.8859	0.9515	0.029
Mof_C 	C 	0.1796	0.90319	0.8567	-0.008
Mof_H 	H 	0.2144	0.872	0.8412	0.029
Mof_C 	C 	0.1906	0.961	0.75346	-0.134
Mof_H 	H 	0.1436	0.9348	0.7216	0.067
Mof_H 	H 	0.1496	0.9949	0.7389	0.077
Mof_C 	C 	0.3525	0.96139	0.75154	0.096
Mof_C 	C 	0.4266	0.91424	0.7501	-0.068
Mof_H 	H 	0.3765	0.8826	0.7492	0.049
Mof_C 	C 	0.427	0.00839	0.7513	-0.103
Mof_H 	H 	0.378	0.04	0.753	0.056
Mof_C 	C 	0.9383	0.10738	0.92093	0.139
Mof_H 	H 	0.0345	0.1181	0.9328	-0.04
Mof_C 	C 	0.7462	0.06081	0.90552	-0
Mof_H 	H 	0.6838	0.0323	0.9047	0.019
Mof_C 	C 	0.7051	0.10962	0.88279	-0.01
Mof_H 	H 	0.6117	0.1207	0.8643	0.034
Mof_C 	C 	0.8361	0.19636	0.88308	-0.171
Mof_H 	H 	0.9341	0.2064	0.8783	0.09
Mof_H 	H 	0.7711	0.2063	0.8415	0.08
Mof_C 	C 	0.7924	0.22519	0.94414	0.165
Mof_C 	C 	0.8825	0.22478	0.00655	-0.194
Mof_H 	H 	0.9722	0.208	0.0114	0.103
Mof_C 	C 	0.6602	0.25057	0.93729	-0.167
Mof_H 	H 	0.5992	0.2513	0.895	0.084
Mof_N 	N 	0.3018	0.45103	0.97876	-0.202
Mof_N 	N 	0.1503	0.38622	0.94208	-0.099
Mof_N 	N 	0.591	0.46187	0.92119	-0.231
Mof_N 	N 	0.661	0.44934	0.8222	-0.112
Mof_N 	N 	0.393	0.55933	0.92991	-0.224
Mof_N 	N 	0.3294	0.6392	0.8926	-0.1
Mof_C 	C 	0.2811	0.40773	0.94082	0.085
Mof_H 	H 	0.349	0.394	0.9164	-0.007
Mof_C 	C 	0.1753	0.45673	0.00518	-0.058
Mof_H 	H 	0.1565	0.4838	0.0339	0.03
Mof_C 	C 	0.0823	0.417	0.98302	-0.005
Mof_H 	H 	0.9901	0.4118	0.9937	0.061
Mof_C 	C 	0.1042	0.33456	0.91587	-0.163
Mof_H 	H 	0.0002	0.331	0.9143	0.073
Mof_H 	H 	0.1233	0.3311	0.8695	0.07
Mof_C 	C 	0.1823	0.29099	0.95987	0.148
Mof_C 	C 	0.2069	0.2945	0.03059	-0.186
Mof_H 	H 	0.1775	0.3243	0.0516	0.086
Mof_C 	C 	0.2248	0.2462	0.92941	-0.168
Mof_H 	H 	0.2077	0.2432	0.8819	0.074
Mof_C 	C 	0.6069	0.48366	0.86289	0.084
Mof_H 	H 	0.5837	0.5184	0.8512	-0.011
Mof_C 	C 	0.6386	0.41101	0.9173	0.002
Mof_H 	H 	0.6418	0.3859	0.9515	0.031
Mof_C 	C 	0.6796	0.40319	0.8567	-0.003
Mof_H 	H 	0.7144	0.372	0.8412	0.033
Mof_C 	C 	0.6906	0.461	0.75346	-0.076
Mof_H 	H 	0.6436	0.4348	0.7216	0.057
Mof_H 	H 	0.6496	0.4949	0.7389	0.054
Mof_C 	C 	0.8525	0.46139	0.75154	-0.025
Mof_C 	C 	0.9266	0.41424	0.7501	0.061
Mof_H 	H 	0.8765	0.3826	0.7492	0.011
Mof_C 	C 	0.927	0.50839	0.7513	0.057
Mof_H 	H 	0.878	0.54	0.753	0.015
Mof_C 	C 	0.4383	0.60738	0.92093	0.083
Mof_H 	H 	0.5345	0.6181	0.9328	0
Mof_C 	C 	0.2462	0.56081	0.90552	0.001
Mof_H 	H 	0.1838	0.5323	0.9047	0.024
Mof_C 	C 	0.2051	0.60962	0.88279	-0.01
Mof_H 	H 	0.1117	0.6207	0.8643	0.028
Mof_C 	C 	0.3361	0.69636	0.88308	-0.171
Mof_H 	H 	0.4341	0.7064	0.8783	0.081
Mof_H 	H 	0.2711	0.7063	0.8415	0.075
Mof_C 	C 	0.2924	0.72519	0.94414	0.16
Mof_C 	C 	0.3825	0.72478	0.00655	-0.197
Mof_H 	H 	0.4722	0.708	0.0114	0.093
Mof_C 	C 	0.1602	0.75057	0.93729	-0.17
Mof_H 	H 	0.0992	0.7513	0.895	0.078
Mof_N 	N 	0.1982	0.95103	0.52124	-0.22
Mof_N 	N 	0.3497	0.88622	0.55792	-0.106
Mof_N 	N 	0.909	0.96187	0.57881	-0.231
Mof_N 	N 	0.839	0.94934	0.6778	-0.109
Mof_N 	N 	0.107	0.05933	0.57009	-0.231
Mof_N 	N 	0.1706	0.1392	0.6074	-0.099
Mof_C 	C 	0.2189	0.90773	0.55918	0.084
Mof_H 	H 	0.151	0.894	0.5836	-0.015
Mof_C 	C 	0.3247	0.95673	0.49482	0.004
Mof_H 	H 	0.3435	0.9838	0.4661	0.036
Mof_C 	C 	0.4177	0.917	0.51698	-0.006
Mof_H 	H 	0.5099	0.9118	0.5063	0.037
Mof_C 	C 	0.3958	0.83456	0.58413	-0.122
Mof_H 	H 	0.4998	0.831	0.5857	0.07
Mof_H 	H 	0.3767	0.8311	0.6305	0.063
Mof_C 	C 	0.3177	0.79099	0.54013	0.056
Mof_C 	C 	0.2931	0.7945	0.46941	-0.075
Mof_H 	H 	0.3225	0.8243	0.4484	0.059
Mof_C 	C 	0.2752	0.7462	0.57059	-0.083
Mof_H 	H 	0.2923	0.7432	0.6181	0.047
Mof_C 	C 	0.8931	0.98366	0.63711	0.149
Mof_H 	H 	0.9163	0.0184	0.6488	-0.048
Mof_C 	C 	0.8614	0.91101	0.5827	0.008
Mof_H 	H 	0.8582	0.8859	0.5485	0.025
Mof_C 	C 	0.8204	0.90319	0.6433	-0.006
Mof_H 	H 	0.7856	0.872	0.6588	0.033
Mof_C 	C 	0.8094	0.961	0.74654	-0.15
Mof_H 	H 	0.8564	0.9348	0.7784	0.086
Mof_H 	H 	0.8504	0.9949	0.7611	0.093
Mof_C 	C 	0.6475	0.96139	0.74846	0.11
Mof_C 	C 	0.5734	0.91424	0.7499	-0.082
Mof_H 	H 	0.6235	0.8826	0.7508	0.056
Mof_C 	C 	0.573	0.00839	0.7487	-0.116
Mof_H 	H 	0.622	0.04	0.747	0.063
Mof_C 	C 	0.0617	0.10738	0.57907	0.022
Mof_H 	H 	0.9655	0.1181	0.5672	0.035
Mof_C 	C 	0.2538	0.06081	0.59448	-0.003
Mof_H 	H 	0.3162	0.0323	0.5953	0.012
Mof_C 	C 	0.2949	0.10962	0.61721	-0.013
Mof_H 	H 	0.3883	0.1207	0.6357	0.032
Mof_C 	C 	0.1639	0.19636	0.61692	-0.121
Mof_H 	H 	0.0659	0.2064	0.6217	0.055
Mof_H 	H 	0.2289	0.2063	0.6585	0.06
Mof_C 	C 	0.2076	0.22519	0.55586	0.052
Mof_C 	C 	0.1175	0.22478	0.49345	-0.072
Mof_H 	H 	0.0278	0.208	0.4886	0.049
Mof_C 	C 	0.3398	0.25057	0.56271	-0.07
Mof_H 	H 	0.4008	0.2513	0.605	0.049
Mof_N 	N 	0.6982	0.45103	0.52124	-0.221
Mof_N 	N 	0.8497	0.38622	0.55792	-0.114
Mof_N 	N 	0.409	0.46187	0.57881	-0.237
Mof_N 	N 	0.339	0.44934	0.6778	-0.1
Mof_N 	N 	0.607	0.55933	0.57009	-0.231
Mof_N 	N 	0.6706	0.6392	0.6074	-0.106
Mof_C 	C 	0.7189	0.40773	0.55918	0.083
Mof_H 	H 	0.651	0.394	0.5836	-0.007
Mof_C 	C 	0.8247	0.45673	0.49482	-0.029
Mof_H 	H 	0.8435	0.4838	0.4661	0.039
Mof_C 	C 	0.9177	0.417	0.51698	0.057
Mof_H 	H 	0.0099	0.4118	0.5063	-0.007
Mof_C 	C 	0.8958	0.33456	0.58413	-0.124
Mof_H 	H 	0.9998	0.331	0.5857	0.08
Mof_H 	H 	0.8767	0.3311	0.6305	0.069
Mof_C 	C 	0.8177	0.29099	0.54013	0.064
Mof_C 	C 	0.7931	0.2945	0.46941	-0.07
Mof_H 	H 	0.8225	0.3243	0.4484	0.064
Mof_C 	C 	0.7752	0.2462	0.57059	-0.078
Mof_H 	H 	0.7923	0.2432	0.6181	0.053
Mof_C 	C 	0.3931	0.48366	0.63711	0.078
Mof_H 	H 	0.4163	0.5184	0.6488	-0.011
Mof_C 	C 	0.3614	0.41101	0.5827	0.003
Mof_H 	H 	0.3582	0.3859	0.5485	0.022
Mof_C 	C 	0.3204	0.40319	0.6433	-0.012
Mof_H 	H 	0.2856	0.372	0.6588	0.029
Mof_C 	C 	0.3094	0.461	0.74654	-0.176
Mof_H 	H 	0.3564	0.4348	0.7784	0.086
Mof_H 	H 	0.3504	0.4949	0.7611	0.082
Mof_C 	C 	0.1475	0.46139	0.74846	0.147
Mof_C 	C 	0.0734	0.41424	0.7499	-0.196
Mof_H 	H 	0.1235	0.3826	0.7508	0.088
Mof_C 	C 	0.073	0.50839	0.7487	-0.2
Mof_H 	H 	0.122	0.54	0.747	0.092
Mof_C 	C 	0.5617	0.60738	0.57907	0.082
Mof_H 	H 	0.4655	0.6181	0.5672	-0.006
Mof_C 	C 	0.7538	0.56081	0.59448	-0.001
Mof_H 	H 	0.8162	0.5323	0.5953	0.026
Mof_C 	C 	0.7949	0.60962	0.61721	-0.008
Mof_H 	H 	0.8883	0.6207	0.6357	0.038
Mof_C 	C 	0.6639	0.69636	0.61692	-0.122
Mof_H 	H 	0.5659	0.7064	0.6217	0.066
Mof_H 	H 	0.7289	0.7063	0.6585	0.066
Mof_C 	C 	0.7076	0.72519	0.55586	0.058
Mof_C 	C 	0.6175	0.72478	0.49345	-0.071
Mof_H 	H 	0.5278	0.708	0.4886	0.059
Mof_C 	C 	0.8398	0.75057	0.56271	-0.068
Mof_H 	H 	0.9008	0.7513	0.605	0.055
Mof_Co	Co	-0	0	-0	1.072
Mof_Co	Co	0.5	0.5	-0	1.1
Mof_Co	Co	4.66292e-33	0	0.5	1.084
Mof_Co	Co	0.5	0.5	0.5	1.112
_end
