data_functionalizedCrystal
_audit_creation_method	'EQeq! by Chris Wilmer'
_symmetry_space_group_name_H-M	'P1'
_symmetry_Int_Tables_number	1
_symmetry_cell_setting	triclinic
loop_
_symmetry_equiv_pos_as_xyz
  x,y,z
_cell_length_a	18.2486
_cell_length_b	18.2486
_cell_length_c	18.2486
_cell_angle_alpha	60
_cell_angle_beta	60
_cell_angle_gamma	60
loop_
_atom_site_label
_atom_site_type_symbol
_atom_site_fract_x
_atom_site_fract_y
_atom_site_fract_z
_atom_site_charge
Mof_Zn	Zn	0.11962	0.29346	0.29346	1.211
Mof_Zn	Zn	0.70654	0.88038	0.70654	1.211
Mof_Zn	Zn	0.29346	0.29346	0.11962	1.211
Mof_Zn	Zn	0.29346	0.29346	0.29346	1.211
Mof_Zn	Zn	0.88038	0.70654	0.70654	1.211
Mof_Zn	Zn	0.29346	0.11962	0.29346	1.211
Mof_Zn	Zn	0.70654	0.70654	0.88038	1.211
Mof_Zn	Zn	0.70654	0.70654	0.70654	1.211
Mof_H 	H 	0.1506	0.4564	0.4564	0.049
Mof_H 	H 	0.8494	0.5436	0.0634	0.049
Mof_H 	H 	0.4564	0.9366	0.4564	0.049
Mof_H 	H 	0.5436	0.8494	0.0634	0.049
Mof_H 	H 	0.8494	0.5436	0.5436	0.049
Mof_H 	H 	0.4564	0.1506	0.9366	0.049
Mof_H 	H 	0.4564	0.9366	0.1506	0.049
Mof_H 	H 	0.0634	0.5436	0.5436	0.049
Mof_H 	H 	0.4564	0.1506	0.4564	0.05
Mof_H 	H 	0.9366	0.4564	0.4564	0.05
Mof_H 	H 	0.9366	0.1506	0.4564	0.05
Mof_H 	H 	0.4564	0.4564	0.1506	0.05
Mof_H 	H 	0.0634	0.8494	0.5436	0.05
Mof_H 	H 	0.0634	0.5436	0.8494	0.05
Mof_H 	H 	0.5436	0.0634	0.8494	0.05
Mof_H 	H 	0.5436	0.8494	0.5436	0.05
Mof_H 	H 	0.1506	0.9366	0.4564	0.05
Mof_H 	H 	0.5436	0.0634	0.5436	0.05
Mof_H 	H 	0.9366	0.4564	0.1506	0.05
Mof_H 	H 	0.8494	0.0634	0.5436	0.05
Mof_H 	H 	0.4564	0.4564	0.9366	0.05
Mof_H 	H 	0.5436	0.5436	0.0634	0.05
Mof_H 	H 	0.1506	0.4564	0.9366	0.05
Mof_H 	H 	0.5436	0.5436	0.8494	0.05
Mof_C 	C 	0.8903	0.6097	0.6097	0.332
Mof_C 	C 	0.5539	0.5539	0.9461	-0.083
Mof_C 	C 	0.0365	0.9113	0.5261	-0.016
Mof_C 	C 	0.4739	0.9635	0.0887	-0.016
Mof_C 	C 	0.9113	0.5261	0.0365	-0.016
Mof_C 	C 	0.4739	0.4739	0.0887	-0.015
Mof_C 	C 	0.9635	0.0887	0.4739	-0.016
Mof_C 	C 	0.3903	0.1097	0.3903	0.332
Mof_C 	C 	0.4461	0.0539	0.4461	-0.083
Mof_C 	C 	0.5261	0.5261	0.0365	-0.016
Mof_C 	C 	0.5261	0.9113	0.0365	-0.016
Mof_C 	C 	0.1097	0.1097	0.3903	0.332
Mof_C 	C 	0.0539	0.4461	0.4461	-0.083
Mof_C 	C 	0.5539	0.9461	0.5539	-0.083
Mof_C 	C 	0.4461	0.0539	0.0539	-0.082
Mof_C 	C 	0.9461	0.5539	0.5539	-0.083
Mof_C 	C 	0.9461	0.5539	0.9461	-0.082
Mof_C 	C 	0.3903	0.3903	0.1097	0.332
Mof_C 	C 	0.0365	0.5261	0.5261	-0.016
Mof_C 	C 	0.0887	0.4739	0.9635	-0.016
Mof_C 	C 	0.4739	0.9635	0.4739	-0.016
Mof_C 	C 	0.4739	0.4739	0.9635	-0.016
Mof_C 	C 	0.6097	0.8903	0.6097	0.332
Mof_C 	C 	0.9461	0.9461	0.5539	-0.082
Mof_C 	C 	0.0539	0.0539	0.4461	-0.082
Mof_C 	C 	0.3903	0.1097	0.1097	0.332
Mof_C 	C 	0.0365	0.5261	0.9113	-0.016
Mof_C 	C 	0.4461	0.4461	0.0539	-0.083
Mof_C 	C 	0.1097	0.3903	0.3903	0.332
Mof_C 	C 	0.8903	0.8903	0.6097	0.332
Mof_C 	C 	0.6097	0.8903	0.8903	0.332
Mof_C 	C 	0.9635	0.4739	0.4739	-0.016
Mof_C 	C 	0.8903	0.6097	0.8903	0.332
Mof_C 	C 	0.0887	0.4739	0.4739	-0.015
Mof_C 	C 	0.9113	0.5261	0.5261	-0.015
Mof_C 	C 	0.4739	0.0887	0.4739	-0.015
Mof_C 	C 	0.4739	0.0887	0.9635	-0.016
Mof_C 	C 	0.0887	0.9635	0.4739	-0.016
Mof_C 	C 	0.1097	0.3903	0.1097	0.332
Mof_C 	C 	0.9635	0.4739	0.0887	-0.016
Mof_C 	C 	0.5261	0.5261	0.9113	-0.015
Mof_C 	C 	0.6097	0.6097	0.8903	0.332
Mof_C 	C 	0.5261	0.9113	0.5261	-0.015
Mof_C 	C 	0.9113	0.0365	0.5261	-0.016
Mof_C 	C 	0.5261	0.0365	0.9113	-0.016
Mof_C 	C 	0.0539	0.4461	0.0539	-0.082
Mof_C 	C 	0.5539	0.9461	0.9461	-0.082
Mof_C 	C 	0.5261	0.0365	0.5261	-0.016
Mof_O 	O 	0.6338	0.803	0.9294	-0.482
Mof_O 	O 	0.0706	0.197	0.3662	-0.482
Mof_O 	O 	0.803	0.6338	0.6338	-0.482
Mof_O 	O 	0.803	0.9294	0.6338	-0.482
Mof_O 	O 	0.3662	0.0706	0.197	-0.482
Mof_O 	O 	0.0706	0.3662	0.197	-0.482
Mof_O 	O 	0.6338	0.9294	0.6338	-0.482
Mof_O 	O 	0.6338	0.803	0.6338	-0.482
Mof_O 	O 	0.3662	0.3662	0.197	-0.482
Mof_O 	O 	0.3662	0.0706	0.3662	-0.482
Mof_O 	O 	0.75	0.75	0.75	-0.964
Mof_O 	O 	0.803	0.6338	0.9294	-0.482
Mof_O 	O 	0.9294	0.803	0.6338	-0.482
Mof_O 	O 	0.3662	0.197	0.3662	-0.482
Mof_O 	O 	0.6338	0.6338	0.803	-0.482
Mof_O 	O 	0.197	0.3662	0.0706	-0.482
Mof_O 	O 	0.6338	0.6338	0.9294	-0.482
Mof_O 	O 	0.3662	0.3662	0.0706	-0.482
Mof_O 	O 	0.6338	0.9294	0.803	-0.482
Mof_O 	O 	0.197	0.0706	0.3662	-0.482
Mof_O 	O 	0.3662	0.197	0.0706	-0.482
Mof_O 	O 	0.9294	0.6338	0.803	-0.482
Mof_O 	O 	0.25	0.25	0.25	-0.964
Mof_O 	O 	0.197	0.3662	0.3662	-0.482
Mof_O 	O 	0.9294	0.6338	0.6338	-0.482
Mof_O 	O 	0.0706	0.3662	0.3662	-0.482
_end
