# CIF file generated by openbabel 3.1.0, see https://openbabel.org
data_I
_chemical_name_common 'image0'
_cell_length_a 10.2268
_cell_length_b 23.7126
_cell_length_c 17.4281
_cell_angle_alpha 90
_cell_angle_beta 105.803
_cell_angle_gamma 90
_space_group_name_H-M_alt 'P 1'
_space_group_name_Hall 'P 1'
loop_
    _symmetry_equiv_pos_as_xyz
    x,y,z
loop_
    _atom_site_label
    _atom_site_type_symbol
    _atom_site_fract_x
    _atom_site_fract_y
    _atom_site_fract_z
    _atom_site_occupancy
    Cd1      Cd       0.11373    0.87778    0.17278    1.000
    C1       C        0.11360    0.11450    0.25890    1.000
    C2       C        0.99660    0.05310    0.10870    1.000
    C3       C        0.99220    0.99720    0.09680    1.000
    C4       C        0.12040    0.01030    0.21920    1.000
    C5       C        0.00980    0.14880    0.22970    1.000
    C6       C        0.93040    0.18510    0.19430    1.000
    C7       C        0.80860    0.27090    0.19080    1.000
    C8       C        0.67150    0.19550    0.17270    1.000
    C9       C        0.59310    0.24200    0.16910    1.000
    C10      C        0.50990    0.96099    0.87850    1.000
    C11      C        0.52820    0.93119    0.95630    1.000
    C12      C        0.42190    0.92628    0.99230    1.000
    H1       H        0.33470    0.93760    0.96470    1.000
    C13      C        0.44570    0.90474    0.06860    1.000
    C14      C        0.33180    0.90016    0.10710    1.000
    C15      C        0.57490    0.88707    0.11000    1.000
    H2       H        0.59100    0.87350    0.16180    1.000
    C16      C        0.68080    0.88962    0.07370    1.000
    C17      C        0.65640    0.91197    0.99770    1.000
    H3       H        0.72720    0.91410    0.97380    1.000
    C18      C        0.82380    0.87300    0.11870    1.000
    N1       N        0.07690    0.06390    0.20440    1.000
    N2       N        0.07710    0.97330    0.17790    1.000
    N3       N        0.66950    0.29090    0.18630    1.000
    N4       N        0.80610    0.21560    0.19480    1.000
    O1       O        0.61190    0.96631    0.85206    1.000
    O2       O        0.39660    0.98077    0.84226    1.000
    O3       O        0.21530    0.88998    0.06463    1.000
    O4       O        0.35900    0.90439    0.18291    1.000
    O5       O        0.90770    0.86452    0.07920    1.000
    O6       O        0.84700    0.86070    0.19230    1.000
    C19      C        0.37510    0.38880    0.78580    1.000
    C20      C        0.53880    0.31220    0.84600    1.000
    C21      C        0.79600    0.29890    0.89200    1.000
    C22      C        0.87770    0.25700    0.88520    1.000
    N5       N        0.41920    0.44030    0.83120    1.000
    N6       N        0.43520    0.53200    0.84590    1.000
    N7       N        0.80750    0.21510    0.83820    1.000
    N8       N        0.66710    0.28160    0.84930    1.000
    O7       O        0.13600    0.11920    0.80760    1.000
    Cd2      Cd       0.61373    0.37778    0.17278    1.000
    C23      C        0.61360    0.61450    0.25890    1.000
    C24      C        0.49660    0.55310    0.10870    1.000
    C25      C        0.49220    0.49720    0.09680    1.000
    C26      C        0.62040    0.51030    0.21920    1.000
    C27      C        0.50980    0.64880    0.22970    1.000
    C28      C        0.43040    0.68510    0.19430    1.000
    C29      C        0.30860    0.77090    0.19080    1.000
    C30      C        0.17150    0.69550    0.17270    1.000
    C31      C        0.09310    0.74200    0.16910    1.000
    C32      C        0.00990    0.46099    0.87850    1.000
    C33      C        0.02820    0.43119    0.95630    1.000
    C34      C        0.92190    0.42628    0.99230    1.000
    H4       H        0.83470    0.43760    0.96470    1.000
    C35      C        0.94570    0.40474    0.06860    1.000
    C36      C        0.83180    0.40016    0.10710    1.000
    C37      C        0.07490    0.38707    0.11000    1.000
    H5       H        0.09100    0.37350    0.16180    1.000
    C38      C        0.18080    0.38962    0.07370    1.000
    C39      C        0.15640    0.41197    0.99770    1.000
    H6       H        0.22720    0.41410    0.97380    1.000
    C40      C        0.32380    0.37300    0.11870    1.000
    N9       N        0.57690    0.56390    0.20440    1.000
    N10      N        0.57710    0.47330    0.17790    1.000
    N11      N        0.16950    0.79090    0.18630    1.000
    N12      N        0.30610    0.71560    0.19480    1.000
    O8       O        0.11190    0.46631    0.85206    1.000
    O9       O        0.89660    0.48077    0.84226    1.000
    O10      O        0.71530    0.38998    0.06463    1.000
    O11      O        0.85900    0.40439    0.18291    1.000
    O12      O        0.40770    0.36452    0.07920    1.000
    O13      O        0.34700    0.36070    0.19230    1.000
    C41      C        0.87510    0.88880    0.78580    1.000
    C42      C        0.03880    0.81220    0.84600    1.000
    C43      C        0.29600    0.79890    0.89200    1.000
    C44      C        0.37770    0.75700    0.88520    1.000
    N13      N        0.91920    0.94030    0.83120    1.000
    N14      N        0.93520    0.03200    0.84590    1.000
    N15      N        0.30750    0.71510    0.83820    1.000
    N16      N        0.16710    0.78160    0.84930    1.000
    O14      O        0.63600    0.61920    0.80760    1.000
    Cd3      Cd       0.88627    0.87778    0.32722    1.000
    C45      C        0.88640    0.11450    0.24110    1.000
    C46      C        0.00340    0.05310    0.39130    1.000
    C47      C        0.00780    0.99720    0.40320    1.000
    C48      C        0.87960    0.01030    0.28080    1.000
    C49      C        0.99020    0.14880    0.27030    1.000
    C50      C        0.06960    0.18510    0.30570    1.000
    C51      C        0.19140    0.27090    0.30920    1.000
    C52      C        0.32850    0.19550    0.32730    1.000
    C53      C        0.40690    0.24200    0.33090    1.000
    C54      C        0.49010    0.96099    0.62150    1.000
    C55      C        0.47180    0.93119    0.54370    1.000
    C56      C        0.57810    0.92628    0.50770    1.000
    H7       H        0.66530    0.93760    0.53530    1.000
    C57      C        0.55430    0.90474    0.43140    1.000
    C58      C        0.66820    0.90016    0.39290    1.000
    C59      C        0.42510    0.88707    0.39000    1.000
    H8       H        0.40900    0.87350    0.33820    1.000
    C60      C        0.31920    0.88962    0.42630    1.000
    C61      C        0.34360    0.91197    0.50230    1.000
    H9       H        0.27280    0.91410    0.52620    1.000
    C62      C        0.17620    0.87300    0.38130    1.000
    N17      N        0.92310    0.06390    0.29560    1.000
    N18      N        0.92290    0.97330    0.32210    1.000
    N19      N        0.33050    0.29090    0.31370    1.000
    N20      N        0.19390    0.21560    0.30520    1.000
    O15      O        0.38810    0.96631    0.64794    1.000
    O16      O        0.60340    0.98077    0.65774    1.000
    O17      O        0.78470    0.88998    0.43537    1.000
    O18      O        0.64100    0.90439    0.31709    1.000
    O19      O        0.09230    0.86452    0.42080    1.000
    O20      O        0.15300    0.86070    0.30770    1.000
    C63      C        0.62490    0.38880    0.71420    1.000
    C64      C        0.46120    0.31220    0.65400    1.000
    C65      C        0.20400    0.29890    0.60800    1.000
    C66      C        0.12230    0.25700    0.61480    1.000
    N21      N        0.58080    0.44030    0.66880    1.000
    N22      N        0.56480    0.53200    0.65410    1.000
    N23      N        0.19250    0.21510    0.66180    1.000
    N24      N        0.33290    0.28160    0.65070    1.000
    O21      O        0.86400    0.11920    0.69240    1.000
    Cd4      Cd       0.38627    0.37778    0.32722    1.000
    C67      C        0.38640    0.61450    0.24110    1.000
    C68      C        0.50340    0.55310    0.39130    1.000
    C69      C        0.50780    0.49720    0.40320    1.000
    C70      C        0.37960    0.51030    0.28080    1.000
    C71      C        0.49020    0.64880    0.27030    1.000
    C72      C        0.56960    0.68510    0.30570    1.000
    C73      C        0.69140    0.77090    0.30920    1.000
    C74      C        0.82850    0.69550    0.32730    1.000
    C75      C        0.90690    0.74200    0.33090    1.000
    C76      C        0.99010    0.46099    0.62150    1.000
    C77      C        0.97180    0.43119    0.54370    1.000
    C78      C        0.07810    0.42628    0.50770    1.000
    H10      H        0.16530    0.43760    0.53530    1.000
    C79      C        0.05430    0.40474    0.43140    1.000
    C80      C        0.16820    0.40016    0.39290    1.000
    C81      C        0.92510    0.38707    0.39000    1.000
    H11      H        0.90900    0.37350    0.33820    1.000
    C82      C        0.81920    0.38962    0.42630    1.000
    C83      C        0.84360    0.41197    0.50230    1.000
    H12      H        0.77280    0.41410    0.52620    1.000
    C84      C        0.67620    0.37300    0.38130    1.000
    N25      N        0.42310    0.56390    0.29560    1.000
    N26      N        0.42290    0.47330    0.32210    1.000
    N27      N        0.83050    0.79090    0.31370    1.000
    N28      N        0.69390    0.71560    0.30520    1.000
    O22      O        0.88810    0.46631    0.64794    1.000
    O23      O        0.10340    0.48077    0.65774    1.000
    O24      O        0.28470    0.38998    0.43537    1.000
    O25      O        0.14100    0.40439    0.31709    1.000
    O26      O        0.59230    0.36452    0.42080    1.000
    O27      O        0.65300    0.36070    0.30770    1.000
    C85      C        0.12490    0.88880    0.71420    1.000
    C86      C        0.96120    0.81220    0.65400    1.000
    C87      C        0.70400    0.79890    0.60800    1.000
    C88      C        0.62230    0.75700    0.61480    1.000
    N29      N        0.08080    0.94030    0.66880    1.000
    N30      N        0.06480    0.03200    0.65410    1.000
    N31      N        0.69250    0.71510    0.66180    1.000
    N32      N        0.83290    0.78160    0.65070    1.000
    O28      O        0.36400    0.61920    0.69240    1.000
    Cd5      Cd       0.88627    0.12222    0.82722    1.000
    C89      C        0.88640    0.88550    0.74110    1.000
    C90      C        0.00340    0.94690    0.89130    1.000
    C91      C        0.00780    0.00280    0.90320    1.000
    C92      C        0.87960    0.98970    0.78080    1.000
    C93      C        0.99020    0.85120    0.77030    1.000
    C94      C        0.06960    0.81490    0.80570    1.000
    C95      C        0.19140    0.72910    0.80920    1.000
    C96      C        0.32850    0.80450    0.82730    1.000
    C97      C        0.40690    0.75800    0.83090    1.000
    C98      C        0.49010    0.03901    0.12150    1.000
    C99      C        0.47180    0.06881    0.04370    1.000
    C100     C        0.57810    0.07372    0.00770    1.000
    H13      H        0.66530    0.06240    0.03530    1.000
    C101     C        0.55430    0.09526    0.93140    1.000
    C102     C        0.66820    0.09984    0.89290    1.000
    C103     C        0.42510    0.11293    0.89000    1.000
    H14      H        0.40900    0.12650    0.83820    1.000
    C104     C        0.31920    0.11038    0.92630    1.000
    C105     C        0.34360    0.08803    0.00230    1.000
    H15      H        0.27280    0.08590    0.02620    1.000
    C106     C        0.17620    0.12700    0.88130    1.000
    N33      N        0.92310    0.93610    0.79560    1.000
    N34      N        0.92290    0.02670    0.82210    1.000
    N35      N        0.33050    0.70910    0.81370    1.000
    N36      N        0.19390    0.78440    0.80520    1.000
    O29      O        0.38810    0.03369    0.14794    1.000
    O30      O        0.60340    0.01923    0.15774    1.000
    O31      O        0.78470    0.11002    0.93537    1.000
    O32      O        0.64100    0.09561    0.81709    1.000
    O33      O        0.09230    0.13548    0.92080    1.000
    O34      O        0.15300    0.13930    0.80770    1.000
    C107     C        0.62490    0.61120    0.21420    1.000
    C108     C        0.46120    0.68780    0.15400    1.000
    C109     C        0.20400    0.70110    0.10800    1.000
    C110     C        0.12230    0.74300    0.11480    1.000
    N37      N        0.58080    0.55970    0.16880    1.000
    N38      N        0.56480    0.46800    0.15410    1.000
    N39      N        0.19250    0.78490    0.16180    1.000
    N40      N        0.33290    0.71840    0.15070    1.000
    O35      O        0.86400    0.88080    0.19240    1.000
    Cd6      Cd       0.38627    0.62222    0.82722    1.000
    C111     C        0.38640    0.38550    0.74110    1.000
    C112     C        0.50340    0.44690    0.89130    1.000
    C113     C        0.50780    0.50280    0.90320    1.000
    C114     C        0.37960    0.48970    0.78080    1.000
    C115     C        0.49020    0.35120    0.77030    1.000
    C116     C        0.56960    0.31490    0.80570    1.000
    C117     C        0.69140    0.22910    0.80920    1.000
    C118     C        0.82850    0.30450    0.82730    1.000
    C119     C        0.90690    0.25800    0.83090    1.000
    C120     C        0.99010    0.53901    0.12150    1.000
    C121     C        0.97180    0.56881    0.04370    1.000
    C122     C        0.07810    0.57372    0.00770    1.000
    H16      H        0.16530    0.56240    0.03530    1.000
    C123     C        0.05430    0.59526    0.93140    1.000
    C124     C        0.16820    0.59984    0.89290    1.000
    C125     C        0.92510    0.61293    0.89000    1.000
    H17      H        0.90900    0.62650    0.83820    1.000
    C126     C        0.81920    0.61038    0.92630    1.000
    C127     C        0.84360    0.58803    0.00230    1.000
    H18      H        0.77280    0.58590    0.02620    1.000
    C128     C        0.67620    0.62700    0.88130    1.000
    N41      N        0.42310    0.43610    0.79560    1.000
    N42      N        0.42290    0.52670    0.82210    1.000
    N43      N        0.83050    0.20910    0.81370    1.000
    N44      N        0.69390    0.28440    0.80520    1.000
    O36      O        0.88810    0.53369    0.14794    1.000
    O37      O        0.10340    0.51923    0.15774    1.000
    O38      O        0.28470    0.61002    0.93537    1.000
    O39      O        0.14100    0.59561    0.81709    1.000
    O40      O        0.59230    0.63548    0.92080    1.000
    O41      O        0.65300    0.63930    0.80770    1.000
    C129     C        0.12490    0.11120    0.21420    1.000
    C130     C        0.96120    0.18780    0.15400    1.000
    C131     C        0.70400    0.20110    0.10800    1.000
    C132     C        0.62230    0.24300    0.11480    1.000
    N45      N        0.08080    0.05970    0.16880    1.000
    N46      N        0.06480    0.96800    0.15410    1.000
    N47      N        0.69250    0.28490    0.16180    1.000
    N48      N        0.83290    0.21840    0.15070    1.000
    O42      O        0.36400    0.38080    0.19240    1.000
    Cd7      Cd       0.11373    0.12222    0.67278    1.000
    C133     C        0.11360    0.88550    0.75890    1.000
    C134     C        0.99660    0.94690    0.60870    1.000
    C135     C        0.99220    0.00280    0.59680    1.000
    C136     C        0.12040    0.98970    0.71920    1.000
    C137     C        0.00980    0.85120    0.72970    1.000
    C138     C        0.93040    0.81490    0.69430    1.000
    C139     C        0.80860    0.72910    0.69080    1.000
    C140     C        0.67150    0.80450    0.67270    1.000
    C141     C        0.59310    0.75800    0.66910    1.000
    C142     C        0.50990    0.03901    0.37850    1.000
    C143     C        0.52820    0.06881    0.45630    1.000
    C144     C        0.42190    0.07372    0.49230    1.000
    H19      H        0.33470    0.06240    0.46470    1.000
    C145     C        0.44570    0.09526    0.56860    1.000
    C146     C        0.33180    0.09984    0.60710    1.000
    C147     C        0.57490    0.11293    0.61000    1.000
    H20      H        0.59100    0.12650    0.66180    1.000
    C148     C        0.68080    0.11038    0.57370    1.000
    C149     C        0.65640    0.08803    0.49770    1.000
    H21      H        0.72720    0.08590    0.47380    1.000
    C150     C        0.82380    0.12700    0.61870    1.000
    N49      N        0.07690    0.93610    0.70440    1.000
    N50      N        0.07710    0.02670    0.67790    1.000
    N51      N        0.66950    0.70910    0.68630    1.000
    N52      N        0.80610    0.78440    0.69480    1.000
    O43      O        0.61190    0.03369    0.35206    1.000
    O44      O        0.39660    0.01923    0.34226    1.000
    O45      O        0.21530    0.11002    0.56463    1.000
    O46      O        0.35900    0.09561    0.68291    1.000
    O47      O        0.90770    0.13548    0.57920    1.000
    O48      O        0.84700    0.13930    0.69230    1.000
    C151     C        0.37510    0.61120    0.28580    1.000
    C152     C        0.53880    0.68780    0.34600    1.000
    C153     C        0.79600    0.70110    0.39200    1.000
    C154     C        0.87770    0.74300    0.38520    1.000
    N53      N        0.41920    0.55970    0.33120    1.000
    N54      N        0.43520    0.46800    0.34590    1.000
    N55      N        0.80750    0.78490    0.33820    1.000
    N56      N        0.66710    0.71840    0.34930    1.000
    O49      O        0.13600    0.88080    0.30760    1.000
    Cd8      Cd       0.61373    0.62222    0.67278    1.000
    C155     C        0.61360    0.38550    0.75890    1.000
    C156     C        0.49660    0.44690    0.60870    1.000
    C157     C        0.49220    0.50280    0.59680    1.000
    C158     C        0.62040    0.48970    0.71920    1.000
    C159     C        0.50980    0.35120    0.72970    1.000
    C160     C        0.43040    0.31490    0.69430    1.000
    C161     C        0.30860    0.22910    0.69080    1.000
    C162     C        0.17150    0.30450    0.67270    1.000
    C163     C        0.09310    0.25800    0.66910    1.000
    C164     C        0.00990    0.53901    0.37850    1.000
    C165     C        0.02820    0.56881    0.45630    1.000
    C166     C        0.92190    0.57372    0.49230    1.000
    H22      H        0.83470    0.56240    0.46470    1.000
    C167     C        0.94570    0.59526    0.56860    1.000
    C168     C        0.83180    0.59984    0.60710    1.000
    C169     C        0.07490    0.61293    0.61000    1.000
    H23      H        0.09100    0.62650    0.66180    1.000
    C170     C        0.18080    0.61038    0.57370    1.000
    C171     C        0.15640    0.58803    0.49770    1.000
    H24      H        0.22720    0.58590    0.47380    1.000
    C172     C        0.32380    0.62700    0.61870    1.000
    N57      N        0.57690    0.43610    0.70440    1.000
    N58      N        0.57710    0.52670    0.67790    1.000
    N59      N        0.16950    0.20910    0.68630    1.000
    N60      N        0.30610    0.28440    0.69480    1.000
    O50      O        0.11190    0.53369    0.35206    1.000
    O51      O        0.89660    0.51923    0.34226    1.000
    O52      O        0.71530    0.61002    0.56463    1.000
    O53      O        0.85900    0.59561    0.68291    1.000
    O54      O        0.40770    0.63548    0.57920    1.000
    O55      O        0.34700    0.63930    0.69230    1.000
    C173     C        0.87510    0.11120    0.28580    1.000
    C174     C        0.03880    0.18780    0.34600    1.000
    C175     C        0.29600    0.20110    0.39200    1.000
    C176     C        0.37770    0.24300    0.38520    1.000
    N61      N        0.91920    0.05970    0.33120    1.000
    N62      N        0.93520    0.96800    0.34590    1.000
    N63      N        0.30750    0.28490    0.33820    1.000
    N64      N        0.16710    0.21840    0.34930    1.000
    O56      O        0.63600    0.38080    0.30760    1.000
    Cd9      Cd       0.50000    0.02465    0.75000    1.000
    Cd10     Cd       0.00000    0.52465    0.75000    1.000
    Cd11     Cd       0.50000    0.97535    0.25000    1.000
    Cd12     Cd       0.00000    0.47535    0.25000    1.000
