data_functionalizedCrystal
_audit_creation_method	'EQeq! by Chris Wilmer'
_symmetry_space_group_name_H-M	'P1'
_symmetry_Int_Tables_number	1
_symmetry_cell_setting	triclinic
loop_
_symmetry_equiv_pos_as_xyz
  x,y,z
_cell_length_a	18.2898
_cell_length_b	9.3102
_cell_length_c	22.2027
_cell_angle_alpha	90
_cell_angle_beta	112.556
_cell_angle_gamma	90
loop_
_atom_site_label
_atom_site_type_symbol
_atom_site_fract_x
_atom_site_fract_y
_atom_site_fract_z
_atom_site_charge
Mof_Dy	Dy	0.23501	0.8019	0.14141	1.535
Mof_S 	S 	0.19593	0.18617	0.10797	0.643
Mof_O 	O 	0.8207	0.2053	0.9781	-0.794
Mof_O 	O 	0.1865	0.1936	0.0405	-0.885
Mof_C 	C 	0.0987	0.1917	0.1082	-0.169
Mof_C 	C 	0.8897	0.1812	0.9805	0.33
Mof_C 	C 	0.9576	0.1899	0.0463	-0.164
Mof_O 	O 	0.1992	0.1485	0.2585	-0.425
Mof_O 	O 	0.8409	0.3739	0.1047	-0.702
Mof_O 	O 	0.9025	0.1517	0.9307	-0.507
Mof_O 	O 	0.1515	0.3637	0.2607	-0.422
Mof_O 	O 	0.2327	0.0515	0.1383	-0.54
Mof_O 	O 	0.8282	0.1436	0.1176	-0.724
Mof_C 	C 	0.0865	0.226	0.1656	-0.068
Mof_C 	C 	0.9444	0.2236	0.1025	-0.151
Mof_C 	C 	0.0346	0.1756	0.0502	0.047
Mof_H 	H 	0.0437	0.1533	0.0114	-0.042
Mof_C 	C 	0.8653	0.2471	0.1065	0.414
Mof_C 	C 	0.0097	0.2424	0.161	-0.009
Mof_H 	H 	0.0007	0.2679	0.1994	0.014
Mof_C 	C 	0.1506	0.2476	0.2317	0.312
Mof_O 	O 	0.2368	0.3081	0.1465	-0.522
Mof_K 	K 	0.23154	0.4788	0.01396	2.839
Mof_Dy	Dy	0.73501	0.3019	0.14141	1.544
Mof_S 	S 	0.69593	0.68617	0.10797	0.646
Mof_O 	O 	0.3207	0.7053	0.9781	-0.793
Mof_O 	O 	0.6865	0.6936	0.0405	-0.887
Mof_C 	C 	0.5987	0.6917	0.1082	-0.172
Mof_C 	C 	0.3897	0.6812	0.9805	0.34
Mof_C 	C 	0.4576	0.6899	0.0463	-0.175
Mof_O 	O 	0.6992	0.6485	0.2585	-0.425
Mof_O 	O 	0.3409	0.8739	0.1047	-0.7
Mof_O 	O 	0.4025	0.6517	0.9307	-0.506
Mof_O 	O 	0.6515	0.8637	0.2607	-0.421
Mof_O 	O 	0.7327	0.5515	0.1383	-0.545
Mof_O 	O 	0.3282	0.6436	0.1176	-0.728
Mof_C 	C 	0.5865	0.726	0.1656	-0.066
Mof_C 	C 	0.4444	0.7236	0.1025	-0.15
Mof_C 	C 	0.5346	0.6756	0.0502	0.055
Mof_H 	H 	0.5437	0.6533	0.0114	-0.045
Mof_C 	C 	0.3653	0.7471	0.1065	0.412
Mof_C 	C 	0.5097	0.7424	0.161	-0.008
Mof_H 	H 	0.5007	0.7679	0.1994	0.015
Mof_C 	C 	0.6506	0.7476	0.2317	0.312
Mof_O 	O 	0.7368	0.8081	0.1465	-0.523
Mof_K 	K 	0.73154	0.9788	0.01396	2.812
Mof_Dy	Dy	0.76499	0.8019	0.35859	1.538
Mof_S 	S 	0.80407	0.18617	0.39203	0.645
Mof_O 	O 	0.1793	0.2053	0.5219	-0.795
Mof_O 	O 	0.8135	0.1936	0.4595	-0.887
Mof_C 	C 	0.9013	0.1917	0.3918	-0.172
Mof_C 	C 	0.1103	0.1812	0.5195	0.336
Mof_C 	C 	0.0424	0.1899	0.4537	-0.174
Mof_O 	O 	0.8008	0.1485	0.2415	-0.424
Mof_O 	O 	0.1591	0.3739	0.3953	-0.702
Mof_O 	O 	0.0975	0.1517	0.5693	-0.507
Mof_O 	O 	0.8485	0.3637	0.2393	-0.422
Mof_O 	O 	0.7673	0.0515	0.3617	-0.542
Mof_O 	O 	0.1718	0.1436	0.3824	-0.728
Mof_C 	C 	0.9135	0.226	0.3344	-0.066
Mof_C 	C 	0.0556	0.2236	0.3975	-0.151
Mof_C 	C 	0.9654	0.1756	0.4498	0.054
Mof_H 	H 	0.9563	0.1533	0.4886	-0.046
Mof_C 	C 	0.1347	0.2471	0.3935	0.413
Mof_C 	C 	0.9903	0.2424	0.339	-0.008
Mof_H 	H 	0.9993	0.2679	0.3006	0.015
Mof_C 	C 	0.8494	0.2476	0.2683	0.312
Mof_O 	O 	0.7632	0.3081	0.3535	-0.522
Mof_K 	K 	0.76846	0.4788	0.48604	2.828
Mof_Dy	Dy	0.26499	0.3019	0.35859	1.541
Mof_S 	S 	0.30407	0.68617	0.39203	0.646
Mof_O 	O 	0.6793	0.7053	0.5219	-0.795
Mof_O 	O 	0.3135	0.6936	0.4595	-0.887
Mof_C 	C 	0.4013	0.6917	0.3918	-0.172
Mof_C 	C 	0.6103	0.6812	0.5195	0.336
Mof_C 	C 	0.5424	0.6899	0.4537	-0.173
Mof_O 	O 	0.3008	0.6485	0.2415	-0.425
Mof_O 	O 	0.6591	0.8739	0.3953	-0.701
Mof_O 	O 	0.5975	0.6517	0.5693	-0.506
Mof_O 	O 	0.3485	0.8637	0.2393	-0.421
Mof_O 	O 	0.2673	0.5515	0.3617	-0.544
Mof_O 	O 	0.6718	0.6436	0.3824	-0.728
Mof_C 	C 	0.4135	0.726	0.3344	-0.067
Mof_C 	C 	0.5556	0.7236	0.3975	-0.151
Mof_C 	C 	0.4654	0.6756	0.4498	0.054
Mof_H 	H 	0.4563	0.6533	0.4886	-0.045
Mof_C 	C 	0.6347	0.7471	0.3935	0.413
Mof_C 	C 	0.4903	0.7424	0.339	-0.008
Mof_H 	H 	0.4993	0.7679	0.3006	0.015
Mof_C 	C 	0.3494	0.7476	0.2683	0.312
Mof_O 	O 	0.2632	0.8081	0.3535	-0.523
Mof_K 	K 	0.26846	0.9788	0.48604	2.83
Mof_Dy	Dy	0.76499	0.1981	0.8586	1.536
Mof_S 	S 	0.80407	0.81383	0.89203	0.644
Mof_O 	O 	0.1793	0.7947	0.0219	-0.793
Mof_O 	O 	0.8135	0.8064	0.9595	-0.884
Mof_C 	C 	0.9013	0.8083	0.8918	-0.169
Mof_C 	C 	0.1103	0.8188	0.0195	0.33
Mof_C 	C 	0.0424	0.8101	0.9537	-0.164
Mof_O 	O 	0.8008	0.8515	0.7415	-0.425
Mof_O 	O 	0.1591	0.6261	0.8953	-0.702
Mof_O 	O 	0.0975	0.8483	0.0693	-0.507
Mof_O 	O 	0.8485	0.6363	0.7393	-0.422
Mof_O 	O 	0.7673	0.9485	0.8617	-0.54
Mof_O 	O 	0.1718	0.8564	0.8824	-0.724
Mof_C 	C 	0.9135	0.774	0.8344	-0.068
Mof_C 	C 	0.0556	0.7764	0.8975	-0.151
Mof_C 	C 	0.9654	0.8244	0.9498	0.047
Mof_H 	H 	0.9563	0.8467	0.9886	-0.042
Mof_C 	C 	0.1347	0.7529	0.8935	0.414
Mof_C 	C 	0.9903	0.7576	0.839	-0.009
Mof_H 	H 	0.9993	0.7321	0.8006	0.014
Mof_C 	C 	0.8494	0.7524	0.7683	0.312
Mof_O 	O 	0.7632	0.6919	0.8535	-0.522
Mof_K 	K 	0.76846	0.5212	0.98604	2.839
Mof_Dy	Dy	0.26499	0.6981	0.85859	1.544
Mof_S 	S 	0.30407	0.31383	0.89203	0.646
Mof_O 	O 	0.6793	0.2947	0.0219	-0.793
Mof_O 	O 	0.3135	0.3064	0.9595	-0.887
Mof_C 	C 	0.4013	0.3083	0.8918	-0.172
Mof_C 	C 	0.6103	0.3188	0.0195	0.34
Mof_C 	C 	0.5424	0.3101	0.9537	-0.175
Mof_O 	O 	0.3008	0.3515	0.7415	-0.425
Mof_O 	O 	0.6591	0.1261	0.8953	-0.7
Mof_O 	O 	0.5975	0.3483	0.0693	-0.506
Mof_O 	O 	0.3485	0.1363	0.7393	-0.421
Mof_O 	O 	0.2673	0.4485	0.8617	-0.545
Mof_O 	O 	0.6718	0.3564	0.8824	-0.728
Mof_C 	C 	0.4135	0.274	0.8344	-0.066
Mof_C 	C 	0.5556	0.2764	0.8975	-0.15
Mof_C 	C 	0.4654	0.3244	0.9498	0.055
Mof_H 	H 	0.4563	0.3467	0.9886	-0.045
Mof_C 	C 	0.6347	0.2529	0.8935	0.412
Mof_C 	C 	0.4903	0.2576	0.839	-0.008
Mof_H 	H 	0.4993	0.2321	0.8006	0.015
Mof_C 	C 	0.3494	0.2524	0.7683	0.312
Mof_O 	O 	0.2632	0.1919	0.8535	-0.523
Mof_K 	K 	0.26846	0.0212	0.98604	2.812
Mof_Dy	Dy	0.23501	0.1981	0.6414	1.538
Mof_S 	S 	0.19593	0.81383	0.60797	0.645
Mof_O 	O 	0.8207	0.7947	0.4781	-0.795
Mof_O 	O 	0.1865	0.8064	0.5405	-0.887
Mof_C 	C 	0.0987	0.8083	0.6082	-0.172
Mof_C 	C 	0.8897	0.8188	0.4805	0.336
Mof_C 	C 	0.9576	0.8101	0.5463	-0.174
Mof_O 	O 	0.1992	0.8515	0.7585	-0.424
Mof_O 	O 	0.8409	0.6261	0.6047	-0.702
Mof_O 	O 	0.9025	0.8483	0.4307	-0.507
Mof_O 	O 	0.1515	0.6363	0.7607	-0.422
Mof_O 	O 	0.2327	0.9485	0.6383	-0.542
Mof_O 	O 	0.8282	0.8564	0.6176	-0.728
Mof_C 	C 	0.0865	0.774	0.6656	-0.066
Mof_C 	C 	0.9444	0.7764	0.6025	-0.151
Mof_C 	C 	0.0346	0.8244	0.5502	0.054
Mof_H 	H 	0.0437	0.8467	0.5114	-0.046
Mof_C 	C 	0.8653	0.7529	0.6065	0.413
Mof_C 	C 	0.0097	0.7576	0.661	-0.008
Mof_H 	H 	0.0007	0.7321	0.6994	0.015
Mof_C 	C 	0.1506	0.7524	0.7317	0.312
Mof_O 	O 	0.2368	0.6919	0.6465	-0.522
Mof_K 	K 	0.23154	0.5212	0.51396	2.828
Mof_Dy	Dy	0.73501	0.6981	0.6414	1.541
Mof_S 	S 	0.69593	0.31383	0.60797	0.646
Mof_O 	O 	0.3207	0.2947	0.4781	-0.795
Mof_O 	O 	0.6865	0.3064	0.5405	-0.887
Mof_C 	C 	0.5987	0.3083	0.6082	-0.172
Mof_C 	C 	0.3897	0.3188	0.4805	0.336
Mof_C 	C 	0.4576	0.3101	0.5463	-0.173
Mof_O 	O 	0.6992	0.3515	0.7585	-0.425
Mof_O 	O 	0.3409	0.1261	0.6047	-0.701
Mof_O 	O 	0.4025	0.3483	0.4307	-0.506
Mof_O 	O 	0.6515	0.1363	0.7607	-0.421
Mof_O 	O 	0.7327	0.4485	0.6383	-0.544
Mof_O 	O 	0.3282	0.3564	0.6176	-0.728
Mof_C 	C 	0.5865	0.274	0.6656	-0.067
Mof_C 	C 	0.4444	0.2764	0.6025	-0.151
Mof_C 	C 	0.5346	0.3244	0.5502	0.054
Mof_H 	H 	0.5437	0.3467	0.5114	-0.045
Mof_C 	C 	0.3653	0.2529	0.6065	0.413
Mof_C 	C 	0.5097	0.2576	0.661	-0.008
Mof_H 	H 	0.5007	0.2321	0.6994	0.015
Mof_C 	C 	0.6506	0.2524	0.7317	0.312
Mof_O 	O 	0.7368	0.1919	0.6465	-0.523
Mof_K 	K 	0.73154	0.0212	0.51396	2.83
_end
