# CIF file generated by openbabel 3.1.0, see https://openbabel.org
data_I
_chemical_name_common 'SOGWIV_charged'
_cell_length_a 9.6172
_cell_length_b 11.7826
_cell_length_c 12.2734
_cell_angle_alpha 90
_cell_angle_beta 99.295
_cell_angle_gamma 90
_space_group_name_H-M_alt 'P 1'
_space_group_name_Hall 'P 1'
loop_
    _symmetry_equiv_pos_as_xyz
    x,y,z
loop_
    _atom_site_label
    _atom_site_type_symbol
    _atom_site_fract_x
    _atom_site_fract_y
    _atom_site_fract_z
    _atom_site_occupancy
    Cd1      Cd       0.78663    0.01752    0.17059    1.000
    Cd2      Cd       0.71337    0.51752    0.32941    1.000
    Cd3      Cd       0.21337    0.98248    0.82941    1.000
    Cd4      Cd       0.28663    0.48248    0.67059    1.000
    C1       C        0.79970    0.74850    0.21760    1.000
    C2       C        0.70040    0.79130    0.29530    1.000
    C3       C        0.49420    0.06560    0.99880    1.000
    C4       C        0.06320    0.00070    0.04710    1.000
    C5       C        0.70030    0.24850    0.28240    1.000
    C6       C        0.79960    0.29130    0.20470    1.000
    C7       C        0.00580    0.56560    0.50120    1.000
    C8       C        0.43680    0.50070    0.45290    1.000
    C9       C        0.20030    0.25150    0.78240    1.000
    C10      C        0.29960    0.20870    0.70470    1.000
    C11      C        0.50580    0.93440    0.00120    1.000
    C12      C        0.93680    0.99930    0.95290    1.000
    C13      C        0.29970    0.75150    0.71760    1.000
    C14      C        0.20040    0.70870    0.79530    1.000
    C15      C        0.99420    0.43440    0.49880    1.000
    C16      C        0.56320    0.49930    0.54710    1.000
    O1       O        0.68690    0.89650    0.30340    1.000
    O2       O        0.63890    0.71720    0.34360    1.000
    O3       O        0.80570    0.64380    0.20310    1.000
    O4       O        0.86810    0.82100    0.17380    1.000
    O5       O        0.03550    0.01590    0.14280    1.000
    O6       O        0.18280    0.98700    0.02310    1.000
    O7       O        0.58130    0.11880    0.06730    1.000
    O8       O        0.39980    0.10770    0.93120    1.000
    O9       O        0.81310    0.39650    0.19660    1.000
    O10      O        0.86110    0.21720    0.15640    1.000
    O11      O        0.69430    0.14380    0.29690    1.000
    O12      O        0.63190    0.32100    0.32620    1.000
    O13      O        0.46450    0.51590    0.35720    1.000
    O14      O        0.31720    0.48700    0.47690    1.000
    O15      O        0.91870    0.61880    0.43270    1.000
    O16      O        0.10020    0.60770    0.56880    1.000
    O17      O        0.31310    0.10350    0.69660    1.000
    O18      O        0.36110    0.28280    0.65640    1.000
    O19      O        0.19430    0.35620    0.79690    1.000
    O20      O        0.13190    0.17900    0.82620    1.000
    O21      O        0.96450    0.98410    0.85720    1.000
    O22      O        0.81720    0.01300    0.97690    1.000
    O23      O        0.41870    0.88120    0.93270    1.000
    O24      O        0.60020    0.89230    0.06880    1.000
    O25      O        0.18690    0.60350    0.80340    1.000
    O26      O        0.13890    0.78280    0.84360    1.000
    O27      O        0.30570    0.85620    0.70310    1.000
    O28      O        0.36810    0.67900    0.67380    1.000
    O29      O        0.53550    0.48410    0.64280    1.000
    O30      O        0.68280    0.51300    0.52310    1.000
    O31      O        0.08130    0.38120    0.56730    1.000
    O32      O        0.89980    0.39230    0.43120    1.000
    H1       H        0.00560    0.30530    0.00590    1.000
    H2       H        0.10420    0.23660    0.98210    1.000
    H3       H        0.07340    0.23610    0.08050    1.000
    O33      O        0.08650    0.28090    0.03080    1.000
    H4       H        0.64590    0.96460    0.44880    1.000
    H5       H        0.61430    0.97550    0.54910    1.000
    H6       H        0.64490    0.06190    0.48970    1.000
    O34      O        0.67010    0.99640    0.50860    1.000
    H7       H        0.49440    0.80530    0.49410    1.000
    H8       H        0.39580    0.73660    0.51790    1.000
    H9       H        0.42660    0.73610    0.41950    1.000
    O35      O        0.41350    0.78090    0.46920    1.000
    H10      H        0.85410    0.46460    0.05120    1.000
    H11      H        0.88570    0.47550    0.95090    1.000
    H12      H        0.85510    0.56190    0.01030    1.000
    O36      O        0.82990    0.49640    0.99140    1.000
    H13      H        0.99440    0.69470    0.99410    1.000
    H14      H        0.89580    0.76340    0.01790    1.000
    H15      H        0.92660    0.76390    0.91950    1.000
    O37      O        0.91350    0.71910    0.96920    1.000
    H16      H        0.35410    0.03540    0.55120    1.000
    H17      H        0.38570    0.02450    0.45090    1.000
    H18      H        0.35510    0.93810    0.51030    1.000
    O38      O        0.32990    0.00360    0.49140    1.000
    H19      H        0.50560    0.19470    0.50590    1.000
    H20      H        0.60420    0.26340    0.48210    1.000
    H21      H        0.57340    0.26390    0.58050    1.000
    O39      O        0.58650    0.21910    0.53080    1.000
    H22      H        0.14590    0.53540    0.94880    1.000
    H23      H        0.11430    0.52450    0.04910    1.000
    H24      H        0.14490    0.43810    0.98970    1.000
    O40      O        0.17010    0.50360    0.00860    1.000
