data_functionalizedCrystal
_audit_creation_method	'EQeq! by Chris Wilmer'
_symmetry_space_group_name_H-M	'P1'
_symmetry_Int_Tables_number	1
_symmetry_cell_setting	triclinic
loop_
_symmetry_equiv_pos_as_xyz
  x,y,z
_cell_length_a	27.841
_cell_length_b	7.5266
_cell_length_c	17.413
_cell_angle_alpha	90
_cell_angle_beta	90
_cell_angle_gamma	90
loop_
_atom_site_label
_atom_site_type_symbol
_atom_site_fract_x
_atom_site_fract_y
_atom_site_fract_z
_atom_site_charge
Mof_Zn	Zn	0.09747	0.30632	0.23386	1.188
Mof_O 	O 	0.56407	0.0108	0.22294	-0.456
Mof_O 	O 	0.57634	0.2071	0.87337	-0.461
Mof_O 	O 	0.51028	0.3636	0.85057	-0.326
Mof_O 	O 	0.61345	0.9671	0.1255	-0.338
Mof_C 	C 	0.35514	0.3273	0.1926	-0.133
Mof_H 	H 	0.3483	0.3726	0.2411	0.053
Mof_C 	C 	0.20439	0.3213	0.2632	0.068
Mof_H 	H 	0.1959	0.3449	0.3139	-0.01
Mof_C 	C 	0.25278	0.3121	0.2444	-0.129
Mof_H 	H 	0.276	0.3283	0.2822	0.07
Mof_C 	C 	0.26655	0.2785	0.1692	0.056
Mof_C 	C 	0.31773	0.2676	0.1451	0.043
Mof_C 	C 	0.33032	0.2015	0.0734	-0.12
Mof_H 	H 	0.3064	0.1619	0.0402	0.071
Mof_C 	C 	0.3775	0.1938	0.0507	0.057
Mof_H 	H 	0.3852	0.1487	0.0026	0.027
Mof_C 	C 	0.40207	0.3187	0.1673	0.053
Mof_H 	H 	0.4266	0.36	0.1988	0.006
Mof_C 	C 	0.46285	0.2335	0.0746	0.105
Mof_C 	C 	0.47528	0.2753	0.0001	-0.082
Mof_H 	H 	0.4527	0.3229	0.9665	0.069
Mof_C 	C 	0.49534	0.1618	0.1263	-0.093
Mof_H 	H 	0.486	0.1345	0.1762	0.089
Mof_C 	C 	0.54223	0.1316	0.102	-0.037
Mof_C 	C 	0.55543	0.1733	0.0271	-0.021
Mof_H 	H 	0.5868	0.1531	0.0109	0.06
Mof_C 	C 	0.53638	0.2765	0.8931	0.331
Mof_C 	C 	0.52233	0.2446	0.9762	-0.042
Mof_C 	C 	0.57699	0.0322	0.1529	0.301
Mof_C 	C 	0.23003	0.2556	0.1159	-0.127
Mof_H 	H 	0.2375	0.2345	0.0647	0.072
Mof_C 	C 	0.18276	0.264	0.1385	0.065
Mof_H 	H 	0.159	0.2457	0.1019	0.001
Mof_N 	N 	0.16937	0.2975	0.2112	-0.271
Mof_N 	N 	0.41277	0.2513	0.09782	-0.142
Mof_Zn	Zn	0.59747	0.19368	0.76614	1.188
Mof_O 	O 	0.06407	0.4892	0.77706	-0.455
Mof_O 	O 	0.07634	0.2929	0.12663	-0.459
Mof_O 	O 	0.01028	0.1364	0.14943	-0.325
Mof_O 	O 	0.11345	0.5329	0.8745	-0.337
Mof_C 	C 	0.85514	0.1727	0.8074	-0.133
Mof_H 	H 	0.8483	0.1274	0.7589	0.053
Mof_C 	C 	0.70439	0.1787	0.7368	0.068
Mof_H 	H 	0.6959	0.1551	0.6861	-0.01
Mof_C 	C 	0.75278	0.1879	0.7556	-0.129
Mof_H 	H 	0.776	0.1717	0.7178	0.07
Mof_C 	C 	0.76655	0.2215	0.8308	0.056
Mof_C 	C 	0.81773	0.2324	0.8549	0.043
Mof_C 	C 	0.83032	0.2985	0.9266	-0.12
Mof_H 	H 	0.8064	0.3381	0.9598	0.071
Mof_C 	C 	0.8775	0.3062	0.9493	0.057
Mof_H 	H 	0.8852	0.3513	0.9974	0.027
Mof_C 	C 	0.90207	0.1813	0.8327	0.053
Mof_H 	H 	0.9266	0.14	0.8012	0.006
Mof_C 	C 	0.96285	0.2665	0.9254	0.105
Mof_C 	C 	0.97528	0.2247	0.9999	-0.083
Mof_H 	H 	0.9527	0.1771	0.0335	0.069
Mof_C 	C 	0.99534	0.3382	0.8737	-0.093
Mof_H 	H 	0.986	0.3655	0.8238	0.089
Mof_C 	C 	0.04223	0.3684	0.898	-0.037
Mof_C 	C 	0.05543	0.3267	0.9729	-0.021
Mof_H 	H 	0.0868	0.3469	0.9891	0.061
Mof_C 	C 	0.03638	0.2235	0.1069	0.331
Mof_C 	C 	0.02233	0.2554	0.0238	-0.041
Mof_C 	C 	0.07699	0.4678	0.8471	0.3
Mof_C 	C 	0.73003	0.2444	0.8841	-0.127
Mof_H 	H 	0.7375	0.2655	0.9353	0.072
Mof_C 	C 	0.68276	0.236	0.8615	0.065
Mof_H 	H 	0.659	0.2543	0.8981	0
Mof_N 	N 	0.66937	0.2025	0.7888	-0.271
Mof_N 	N 	0.91277	0.2487	0.90218	-0.142
Mof_Zn	Zn	0.59747	0.80632	0.26614	1.188
Mof_O 	O 	0.06407	0.5108	0.27706	-0.455
Mof_O 	O 	0.07634	0.7071	0.62663	-0.459
Mof_O 	O 	0.01028	0.8636	0.64943	-0.325
Mof_O 	O 	0.11345	0.4671	0.3745	-0.337
Mof_C 	C 	0.85514	0.8273	0.3074	-0.133
Mof_H 	H 	0.8483	0.8726	0.2589	0.053
Mof_C 	C 	0.70439	0.8213	0.2368	0.068
Mof_H 	H 	0.6959	0.8449	0.1861	-0.01
Mof_C 	C 	0.75278	0.8121	0.2556	-0.129
Mof_H 	H 	0.776	0.8283	0.2178	0.07
Mof_C 	C 	0.76655	0.7785	0.3308	0.056
Mof_C 	C 	0.81773	0.7676	0.3549	0.043
Mof_C 	C 	0.83032	0.7015	0.4266	-0.12
Mof_H 	H 	0.8064	0.6619	0.4598	0.071
Mof_C 	C 	0.8775	0.6938	0.4493	0.057
Mof_H 	H 	0.8852	0.6487	0.4974	0.027
Mof_C 	C 	0.90207	0.8187	0.3327	0.053
Mof_H 	H 	0.9266	0.86	0.3012	0.006
Mof_C 	C 	0.96285	0.7335	0.4254	0.106
Mof_C 	C 	0.97528	0.7753	0.4999	-0.083
Mof_H 	H 	0.9527	0.8229	0.5335	0.069
Mof_C 	C 	0.99534	0.6618	0.3737	-0.093
Mof_H 	H 	0.986	0.6345	0.3238	0.089
Mof_C 	C 	0.04223	0.6316	0.398	-0.037
Mof_C 	C 	0.05543	0.6733	0.4729	-0.021
Mof_H 	H 	0.0868	0.6531	0.4891	0.061
Mof_C 	C 	0.03638	0.7765	0.6069	0.331
Mof_C 	C 	0.02233	0.7446	0.5238	-0.042
Mof_C 	C 	0.07699	0.5322	0.3471	0.3
Mof_C 	C 	0.73003	0.7556	0.3841	-0.127
Mof_H 	H 	0.7375	0.7345	0.4353	0.072
Mof_C 	C 	0.68276	0.764	0.3615	0.065
Mof_H 	H 	0.659	0.7457	0.3981	0
Mof_N 	N 	0.66937	0.7975	0.2888	-0.271
Mof_N 	N 	0.91277	0.7513	0.40218	-0.142
Mof_Zn	Zn	0.09747	0.69368	0.73386	1.189
Mof_O 	O 	0.56407	0.9892	0.72294	-0.455
Mof_O 	O 	0.57634	0.7929	0.37337	-0.46
Mof_O 	O 	0.51028	0.6364	0.35057	-0.325
Mof_O 	O 	0.61345	0.0329	0.6255	-0.338
Mof_C 	C 	0.35514	0.6727	0.6926	-0.133
Mof_H 	H 	0.3483	0.6274	0.7411	0.053
Mof_C 	C 	0.20439	0.6787	0.7632	0.068
Mof_H 	H 	0.1959	0.6551	0.8139	-0.01
Mof_C 	C 	0.25278	0.6879	0.7444	-0.129
Mof_H 	H 	0.276	0.6717	0.7822	0.07
Mof_C 	C 	0.26655	0.7215	0.6692	0.056
Mof_C 	C 	0.31773	0.7324	0.6451	0.043
Mof_C 	C 	0.33032	0.7985	0.5734	-0.12
Mof_H 	H 	0.3064	0.8381	0.5402	0.071
Mof_C 	C 	0.3775	0.8062	0.5507	0.057
Mof_H 	H 	0.3852	0.8513	0.5026	0.027
Mof_C 	C 	0.40207	0.6813	0.6673	0.053
Mof_H 	H 	0.4266	0.64	0.6988	0.006
Mof_C 	C 	0.46285	0.7665	0.5746	0.105
Mof_C 	C 	0.47528	0.7247	0.5001	-0.083
Mof_H 	H 	0.4527	0.6771	0.4665	0.069
Mof_C 	C 	0.49534	0.8382	0.6263	-0.093
Mof_H 	H 	0.486	0.8655	0.6762	0.089
Mof_C 	C 	0.54223	0.8684	0.602	-0.037
Mof_C 	C 	0.55543	0.8267	0.5271	-0.021
Mof_H 	H 	0.5868	0.8469	0.5109	0.06
Mof_C 	C 	0.53638	0.7235	0.3931	0.331
Mof_C 	C 	0.52233	0.7554	0.4762	-0.042
Mof_C 	C 	0.57699	0.9678	0.6529	0.301
Mof_C 	C 	0.23003	0.7444	0.6159	-0.127
Mof_H 	H 	0.2375	0.7655	0.5647	0.072
Mof_C 	C 	0.18276	0.736	0.6385	0.065
Mof_H 	H 	0.159	0.7543	0.6019	0
Mof_N 	N 	0.16937	0.7025	0.7112	-0.271
Mof_N 	N 	0.41277	0.7487	0.59782	-0.142
Mof_Zn	Zn	0.40253	0.19368	0.73386	1.188
Mof_O 	O 	0.93593	0.4892	0.72294	-0.455
Mof_O 	O 	0.92366	0.2929	0.37337	-0.459
Mof_O 	O 	0.98972	0.1364	0.35057	-0.325
Mof_O 	O 	0.88655	0.5329	0.6255	-0.337
Mof_C 	C 	0.14486	0.1727	0.6926	-0.133
Mof_H 	H 	0.1517	0.1274	0.7411	0.053
Mof_C 	C 	0.29561	0.1787	0.7632	0.068
Mof_H 	H 	0.3041	0.1551	0.8139	-0.01
Mof_C 	C 	0.24722	0.1879	0.7444	-0.129
Mof_H 	H 	0.224	0.1717	0.7822	0.07
Mof_C 	C 	0.23345	0.2215	0.6692	0.056
Mof_C 	C 	0.18227	0.2324	0.6451	0.043
Mof_C 	C 	0.16968	0.2985	0.5734	-0.12
Mof_H 	H 	0.1936	0.3381	0.5402	0.071
Mof_C 	C 	0.1225	0.3062	0.5507	0.057
Mof_H 	H 	0.1148	0.3513	0.5026	0.027
Mof_C 	C 	0.09793	0.1813	0.6673	0.053
Mof_H 	H 	0.0734	0.14	0.6988	0.006
Mof_C 	C 	0.03715	0.2665	0.5746	0.106
Mof_C 	C 	0.02472	0.2247	0.5001	-0.083
Mof_H 	H 	0.0473	0.1771	0.4665	0.069
Mof_C 	C 	0.00466	0.3382	0.6263	-0.093
Mof_H 	H 	0.014	0.3655	0.6762	0.089
Mof_C 	C 	0.95777	0.3684	0.602	-0.037
Mof_C 	C 	0.94457	0.3267	0.5271	-0.021
Mof_H 	H 	0.9132	0.3469	0.5109	0.061
Mof_C 	C 	0.96362	0.2235	0.3931	0.331
Mof_C 	C 	0.97767	0.2554	0.4762	-0.042
Mof_C 	C 	0.92301	0.4678	0.6529	0.3
Mof_C 	C 	0.26997	0.2444	0.6159	-0.127
Mof_H 	H 	0.2625	0.2655	0.5647	0.072
Mof_C 	C 	0.31724	0.236	0.6385	0.065
Mof_H 	H 	0.341	0.2543	0.6019	0
Mof_N 	N 	0.33063	0.2025	0.7112	-0.271
Mof_N 	N 	0.08723	0.2487	0.59782	-0.142
Mof_Zn	Zn	0.90253	0.30632	0.26614	1.189
Mof_O 	O 	0.43593	0.0108	0.27706	-0.455
Mof_O 	O 	0.42366	0.2071	0.62663	-0.46
Mof_O 	O 	0.48972	0.3636	0.64943	-0.325
Mof_O 	O 	0.38655	0.9671	0.3745	-0.338
Mof_C 	C 	0.64486	0.3273	0.3074	-0.133
Mof_H 	H 	0.6517	0.3726	0.2589	0.053
Mof_C 	C 	0.79561	0.3213	0.2368	0.068
Mof_H 	H 	0.8041	0.3449	0.1861	-0.01
Mof_C 	C 	0.74722	0.3121	0.2556	-0.129
Mof_H 	H 	0.724	0.3283	0.2178	0.07
Mof_C 	C 	0.73345	0.2785	0.3308	0.056
Mof_C 	C 	0.68227	0.2676	0.3549	0.043
Mof_C 	C 	0.66968	0.2015	0.4266	-0.12
Mof_H 	H 	0.6936	0.1619	0.4598	0.071
Mof_C 	C 	0.6225	0.1938	0.4493	0.057
Mof_H 	H 	0.6148	0.1487	0.4974	0.027
Mof_C 	C 	0.59793	0.3187	0.3327	0.053
Mof_H 	H 	0.5734	0.36	0.3012	0.006
Mof_C 	C 	0.53715	0.2335	0.4254	0.105
Mof_C 	C 	0.52472	0.2753	0.4999	-0.083
Mof_H 	H 	0.5473	0.3229	0.5335	0.069
Mof_C 	C 	0.50466	0.1618	0.3737	-0.093
Mof_H 	H 	0.514	0.1345	0.3238	0.089
Mof_C 	C 	0.45777	0.1316	0.398	-0.037
Mof_C 	C 	0.44457	0.1733	0.4729	-0.021
Mof_H 	H 	0.4132	0.1531	0.4891	0.06
Mof_C 	C 	0.46362	0.2765	0.6069	0.331
Mof_C 	C 	0.47767	0.2446	0.5238	-0.042
Mof_C 	C 	0.42301	0.0322	0.3471	0.301
Mof_C 	C 	0.76997	0.2556	0.3841	-0.127
Mof_H 	H 	0.7625	0.2345	0.4353	0.072
Mof_C 	C 	0.81724	0.264	0.3615	0.065
Mof_H 	H 	0.841	0.2457	0.3981	0
Mof_N 	N 	0.83063	0.2975	0.2888	-0.271
Mof_N 	N 	0.58723	0.2513	0.40218	-0.142
Mof_Zn	Zn	0.90253	0.69368	0.76614	1.189
Mof_O 	O 	0.43593	0.9892	0.77706	-0.455
Mof_O 	O 	0.42366	0.7929	0.12663	-0.46
Mof_O 	O 	0.48972	0.6364	0.14943	-0.325
Mof_O 	O 	0.38655	0.0329	0.8745	-0.338
Mof_C 	C 	0.64486	0.6727	0.8074	-0.133
Mof_H 	H 	0.6517	0.6274	0.7589	0.053
Mof_C 	C 	0.79561	0.6787	0.7368	0.068
Mof_H 	H 	0.8041	0.6551	0.6861	-0.01
Mof_C 	C 	0.74722	0.6879	0.7556	-0.129
Mof_H 	H 	0.724	0.6717	0.7178	0.07
Mof_C 	C 	0.73345	0.7215	0.8308	0.056
Mof_C 	C 	0.68227	0.7324	0.8549	0.043
Mof_C 	C 	0.66968	0.7985	0.9266	-0.12
Mof_H 	H 	0.6936	0.8381	0.9598	0.071
Mof_C 	C 	0.6225	0.8062	0.9493	0.057
Mof_H 	H 	0.6148	0.8513	0.9974	0.027
Mof_C 	C 	0.59793	0.6813	0.8327	0.053
Mof_H 	H 	0.5734	0.64	0.8012	0.006
Mof_C 	C 	0.53715	0.7665	0.9254	0.105
Mof_C 	C 	0.52472	0.7247	0.9999	-0.082
Mof_H 	H 	0.5473	0.6771	0.0335	0.069
Mof_C 	C 	0.50466	0.8382	0.8737	-0.093
Mof_H 	H 	0.514	0.8655	0.8238	0.089
Mof_C 	C 	0.45777	0.8684	0.898	-0.037
Mof_C 	C 	0.44457	0.8267	0.9729	-0.021
Mof_H 	H 	0.4132	0.8469	0.9891	0.06
Mof_C 	C 	0.46362	0.7235	0.1069	0.331
Mof_C 	C 	0.47767	0.7554	0.0238	-0.042
Mof_C 	C 	0.42301	0.9678	0.8471	0.301
Mof_C 	C 	0.76997	0.7444	0.8841	-0.127
Mof_H 	H 	0.7625	0.7655	0.9353	0.072
Mof_C 	C 	0.81724	0.736	0.8615	0.065
Mof_H 	H 	0.841	0.7543	0.8981	0.001
Mof_N 	N 	0.83063	0.7025	0.7888	-0.271
Mof_N 	N 	0.58723	0.7487	0.90218	-0.142
Mof_Zn	Zn	0.40253	0.80632	0.23386	1.188
Mof_O 	O 	0.93593	0.5108	0.22294	-0.455
Mof_O 	O 	0.92366	0.7071	0.87337	-0.459
Mof_O 	O 	0.98972	0.8636	0.85057	-0.325
Mof_O 	O 	0.88655	0.4671	0.1255	-0.337
Mof_C 	C 	0.14486	0.8273	0.1926	-0.133
Mof_H 	H 	0.1517	0.8726	0.2411	0.053
Mof_C 	C 	0.29561	0.8213	0.2632	0.068
Mof_H 	H 	0.3041	0.8449	0.3139	-0.01
Mof_C 	C 	0.24722	0.8121	0.2444	-0.129
Mof_H 	H 	0.224	0.8283	0.2822	0.07
Mof_C 	C 	0.23345	0.7785	0.1692	0.056
Mof_C 	C 	0.18227	0.7676	0.1451	0.043
Mof_C 	C 	0.16968	0.7015	0.0734	-0.12
Mof_H 	H 	0.1936	0.6619	0.0402	0.071
Mof_C 	C 	0.1225	0.6938	0.0507	0.057
Mof_H 	H 	0.1148	0.6487	0.0026	0.027
Mof_C 	C 	0.09793	0.8187	0.1673	0.053
Mof_H 	H 	0.0734	0.86	0.1988	0.006
Mof_C 	C 	0.03715	0.7335	0.0746	0.105
Mof_C 	C 	0.02472	0.7753	0.0001	-0.083
Mof_H 	H 	0.0473	0.8229	0.9665	0.069
Mof_C 	C 	0.00466	0.6618	0.1263	-0.093
Mof_H 	H 	0.014	0.6345	0.1762	0.089
Mof_C 	C 	0.95777	0.6316	0.102	-0.037
Mof_C 	C 	0.94457	0.6733	0.0271	-0.021
Mof_H 	H 	0.9132	0.6531	0.0109	0.061
Mof_C 	C 	0.96362	0.7765	0.8931	0.331
Mof_C 	C 	0.97767	0.7446	0.9762	-0.041
Mof_C 	C 	0.92301	0.5322	0.1529	0.3
Mof_C 	C 	0.26997	0.7556	0.1159	-0.127
Mof_H 	H 	0.2625	0.7345	0.0647	0.072
Mof_C 	C 	0.31724	0.764	0.1385	0.065
Mof_H 	H 	0.341	0.7457	0.1019	0
Mof_N 	N 	0.33063	0.7975	0.2112	-0.271
Mof_N 	N 	0.08723	0.7513	0.09782	-0.142
_end
