data_functionalizedCrystal
_audit_creation_method	'EQeq! by Chris Wilmer'
_symmetry_space_group_name_H-M	'P1'
_symmetry_Int_Tables_number	1
_symmetry_cell_setting	triclinic
loop_
_symmetry_equiv_pos_as_xyz
  x,y,z
_cell_length_a	15.1014
_cell_length_b	10.9686
_cell_length_c	22.3338
_cell_angle_alpha	90
_cell_angle_beta	103.099
_cell_angle_gamma	90
loop_
_atom_site_label
_atom_site_type_symbol
_atom_site_fract_x
_atom_site_fract_y
_atom_site_fract_z
_atom_site_charge
Mof_Mg	Mg	0.48037	0.52588	0.56888	1.475
Mof_Mg	Mg	0.35481	0.97919	0.62141	1.478
Mof_P 	P 	0.38217	0.26051	0.57263	0.642
Mof_O 	O 	0.45352	0.35575	0.59081	-0.445
Mof_O 	O 	0.39567	0.15167	0.61322	-0.427
Mof_O 	O 	0.28861	0.3205	0.57308	-0.446
Mof_H 	H 	0.248	0.2833	0.5495	0.312
Mof_O 	O 	0.37244	0.2218	0.50333	-0.509
Mof_H 	H 	0.4213	0.231	0.4938	0.332
Mof_O 	O 	0.44018	0.97817	0.70376	-0.429
Mof_O 	O 	0.44789	0.8171	0.78617	-0.463
Mof_H 	H 	0.4348	0.7534	0.767	0.291
Mof_O 	O 	0.49868	0.71672	0.55183	-0.4
Mof_O 	O 	0.44511	0.89928	0.57289	-0.365
Mof_O 	O 	0.38947	0.6068	0.61245	-0.371
Mof_O 	O 	0.32852	0.78565	0.62815	-0.352
Mof_O 	O 	0.58832	0.4904	0.52357	-0.577
Mof_O 	O 	0.74054	0.48181	0.54412	-0.398
Mof_O 	O 	0.59438	0.52987	0.64161	-0.362
Mof_O 	O 	0.7456	0.51379	0.66293	-0.348
Mof_C 	C 	0.44854	0.7868	0.57483	0.256
Mof_C 	C 	0.38303	0.7204	0.60843	0.235
Mof_C 	C 	0.66698	0.4941	0.55839	0.305
Mof_C 	C 	0.66945	0.5152	0.62757	0.228
Mof_Mg	Mg	0.98037	0.02588	0.56888	1.479
Mof_Mg	Mg	0.85481	0.47919	0.62141	1.478
Mof_P 	P 	0.88217	0.76051	0.57263	0.644
Mof_O 	O 	0.95352	0.85575	0.59081	-0.429
Mof_O 	O 	0.89567	0.65167	0.61322	-0.42
Mof_O 	O 	0.78861	0.8205	0.57308	-0.443
Mof_H 	H 	0.748	0.7833	0.5495	0.313
Mof_O 	O 	0.87244	0.7218	0.50333	-0.51
Mof_H 	H 	0.9213	0.731	0.4938	0.346
Mof_O 	O 	0.94018	0.47817	0.70376	-0.395
Mof_O 	O 	0.94789	0.3171	0.78617	-0.423
Mof_H 	H 	0.9348	0.2534	0.767	0.289
Mof_O 	O 	0.99868	0.21672	0.55183	-0.376
Mof_O 	O 	0.94511	0.39928	0.57289	-0.353
Mof_O 	O 	0.88947	0.1068	0.61245	-0.363
Mof_O 	O 	0.82852	0.28565	0.62815	-0.348
Mof_O 	O 	0.08832	0.9904	0.52357	-0.591
Mof_O 	O 	0.24054	0.98181	0.54412	-0.4
Mof_O 	O 	0.09438	0.02987	0.64161	-0.379
Mof_O 	O 	0.2456	0.01379	0.66293	-0.353
Mof_C 	C 	0.94854	0.2868	0.57483	0.256
Mof_C 	C 	0.88303	0.2204	0.60843	0.239
Mof_C 	C 	0.16698	0.9941	0.55839	0.305
Mof_C 	C 	0.16945	0.0152	0.62757	0.228
Mof_Mg	Mg	0.51963	0.52588	0.93112	1.476
Mof_Mg	Mg	0.64519	0.97919	0.87859	1.478
Mof_P 	P 	0.61783	0.26051	0.92737	0.642
Mof_O 	O 	0.54648	0.35575	0.90919	-0.445
Mof_O 	O 	0.60433	0.15167	0.88678	-0.427
Mof_O 	O 	0.71139	0.3205	0.92692	-0.442
Mof_H 	H 	0.752	0.2833	0.9505	0.315
Mof_O 	O 	0.62756	0.2218	0.99667	-0.51
Mof_H 	H 	0.5787	0.231	0.0062	0.333
Mof_O 	O 	0.55982	0.97817	0.79624	-0.428
Mof_O 	O 	0.55211	0.8171	0.71383	-0.462
Mof_H 	H 	0.5652	0.7534	0.733	0.292
Mof_O 	O 	0.50132	0.71672	0.94817	-0.4
Mof_O 	O 	0.55489	0.89928	0.92711	-0.365
Mof_O 	O 	0.61053	0.6068	0.88755	-0.368
Mof_O 	O 	0.67148	0.78565	0.87185	-0.347
Mof_O 	O 	0.41168	0.4904	0.97643	-0.579
Mof_O 	O 	0.25946	0.48181	0.95588	-0.401
Mof_O 	O 	0.40562	0.52987	0.85839	-0.363
Mof_O 	O 	0.2544	0.51379	0.83707	-0.352
Mof_C 	C 	0.55146	0.7868	0.92517	0.256
Mof_C 	C 	0.61697	0.7204	0.89157	0.234
Mof_C 	C 	0.33302	0.4941	0.94161	0.305
Mof_C 	C 	0.33055	0.5152	0.87243	0.228
Mof_Mg	Mg	0.01963	0.02588	0.93112	1.474
Mof_Mg	Mg	0.14519	0.47919	0.87859	1.477
Mof_P 	P 	0.11783	0.76051	0.92737	0.641
Mof_O 	O 	0.04648	0.85575	0.90919	-0.46
Mof_O 	O 	0.10433	0.65167	0.88678	-0.435
Mof_O 	O 	0.21139	0.8205	0.92692	-0.446
Mof_H 	H 	0.252	0.7833	0.9505	0.313
Mof_O 	O 	0.12756	0.7218	0.99667	-0.51
Mof_H 	H 	0.0787	0.731	0.0062	0.32
Mof_O 	O 	0.05982	0.47817	0.79624	-0.431
Mof_O 	O 	0.05211	0.3171	0.71383	-0.467
Mof_H 	H 	0.0652	0.2534	0.733	0.285
Mof_O 	O 	0.00132	0.21672	0.94817	-0.425
Mof_O 	O 	0.05489	0.39928	0.92711	-0.379
Mof_O 	O 	0.11053	0.1068	0.88755	-0.377
Mof_O 	O 	0.17148	0.28565	0.87185	-0.351
Mof_O 	O 	0.91168	0.9904	0.97643	-0.563
Mof_O 	O 	0.75946	0.98181	0.95588	-0.398
Mof_O 	O 	0.90562	0.02987	0.85839	-0.344
Mof_O 	O 	0.7544	0.01379	0.83707	-0.347
Mof_C 	C 	0.05146	0.2868	0.92517	0.256
Mof_C 	C 	0.11697	0.2204	0.89157	0.23
Mof_C 	C 	0.83302	0.9941	0.94161	0.307
Mof_C 	C 	0.83055	0.0152	0.87243	0.228
Mof_Mg	Mg	0.51963	0.47412	0.43112	1.476
Mof_Mg	Mg	0.64519	0.02081	0.37859	1.478
Mof_P 	P 	0.61783	0.73949	0.42737	0.642
Mof_O 	O 	0.54648	0.64425	0.40919	-0.445
Mof_O 	O 	0.60433	0.84833	0.38678	-0.427
Mof_O 	O 	0.71139	0.6795	0.42692	-0.442
Mof_H 	H 	0.752	0.7167	0.4505	0.315
Mof_O 	O 	0.62756	0.7782	0.49667	-0.508
Mof_H 	H 	0.5787	0.769	0.5062	0.332
Mof_O 	O 	0.55982	0.02183	0.29624	-0.428
Mof_O 	O 	0.55211	0.1829	0.21383	-0.462
Mof_H 	H 	0.5652	0.2466	0.233	0.292
Mof_O 	O 	0.50132	0.28328	0.44817	-0.4
Mof_O 	O 	0.55489	0.10072	0.42711	-0.365
Mof_O 	O 	0.61053	0.3932	0.38755	-0.368
Mof_O 	O 	0.67148	0.21435	0.37185	-0.348
Mof_O 	O 	0.41168	0.5096	0.47643	-0.578
Mof_O 	O 	0.25946	0.51819	0.45588	-0.401
Mof_O 	O 	0.40562	0.47013	0.35839	-0.363
Mof_O 	O 	0.2544	0.48621	0.33707	-0.352
Mof_C 	C 	0.55146	0.2132	0.42517	0.256
Mof_C 	C 	0.61697	0.2796	0.39157	0.234
Mof_C 	C 	0.33302	0.5059	0.44161	0.305
Mof_C 	C 	0.33055	0.4848	0.37243	0.229
Mof_Mg	Mg	0.01963	0.97412	0.43112	1.474
Mof_Mg	Mg	0.14519	0.52081	0.37859	1.477
Mof_P 	P 	0.11783	0.23949	0.42737	0.641
Mof_O 	O 	0.04648	0.14425	0.40919	-0.46
Mof_O 	O 	0.10433	0.34833	0.38678	-0.434
Mof_O 	O 	0.21139	0.1795	0.42692	-0.446
Mof_H 	H 	0.252	0.2167	0.4505	0.314
Mof_O 	O 	0.12756	0.2782	0.49667	-0.507
Mof_H 	H 	0.0787	0.269	0.5062	0.318
Mof_O 	O 	0.05982	0.52183	0.29624	-0.431
Mof_O 	O 	0.05211	0.6829	0.21383	-0.467
Mof_H 	H 	0.0652	0.7466	0.233	0.285
Mof_O 	O 	0.00132	0.78328	0.44817	-0.424
Mof_O 	O 	0.05489	0.60072	0.42711	-0.378
Mof_O 	O 	0.11053	0.8932	0.38755	-0.376
Mof_O 	O 	0.17148	0.71435	0.37185	-0.351
Mof_O 	O 	0.91168	0.0096	0.47643	-0.564
Mof_O 	O 	0.75946	0.01819	0.45588	-0.398
Mof_O 	O 	0.90562	0.97013	0.35839	-0.345
Mof_O 	O 	0.7544	0.98621	0.33707	-0.347
Mof_C 	C 	0.05146	0.7132	0.42517	0.256
Mof_C 	C 	0.11697	0.7796	0.39157	0.23
Mof_C 	C 	0.83302	0.0059	0.44161	0.306
Mof_C 	C 	0.83055	0.9848	0.37243	0.229
Mof_Mg	Mg	0.48037	0.47412	0.06888	1.476
Mof_Mg	Mg	0.35481	0.02081	0.12141	1.478
Mof_P 	P 	0.38217	0.73949	0.07263	0.642
Mof_O 	O 	0.45352	0.64425	0.09081	-0.445
Mof_O 	O 	0.39567	0.84833	0.11322	-0.427
Mof_O 	O 	0.28861	0.6795	0.07308	-0.446
Mof_H 	H 	0.248	0.7167	0.0495	0.313
Mof_O 	O 	0.37244	0.7782	0.00333	-0.508
Mof_H 	H 	0.4213	0.769	0.9938	0.332
Mof_O 	O 	0.44018	0.02183	0.20376	-0.429
Mof_O 	O 	0.44789	0.1829	0.28617	-0.463
Mof_H 	H 	0.4348	0.2466	0.267	0.291
Mof_O 	O 	0.49868	0.28328	0.05183	-0.399
Mof_O 	O 	0.44511	0.10072	0.07289	-0.365
Mof_O 	O 	0.38947	0.3932	0.11245	-0.371
Mof_O 	O 	0.32852	0.21435	0.12815	-0.352
Mof_O 	O 	0.58832	0.5096	0.02357	-0.577
Mof_O 	O 	0.74054	0.51819	0.04412	-0.398
Mof_O 	O 	0.59438	0.47013	0.14161	-0.362
Mof_O 	O 	0.7456	0.48621	0.16293	-0.348
Mof_C 	C 	0.44854	0.2132	0.07483	0.256
Mof_C 	C 	0.38303	0.2796	0.10843	0.235
Mof_C 	C 	0.66698	0.5059	0.05839	0.305
Mof_C 	C 	0.66945	0.4848	0.12757	0.228
Mof_Mg	Mg	0.98037	0.97412	0.06888	1.478
Mof_Mg	Mg	0.85481	0.52081	0.12141	1.478
Mof_P 	P 	0.88217	0.23949	0.07263	0.644
Mof_O 	O 	0.95352	0.14425	0.09081	-0.43
Mof_O 	O 	0.89567	0.34833	0.11322	-0.42
Mof_O 	O 	0.78861	0.1795	0.07308	-0.443
Mof_H 	H 	0.748	0.2167	0.0495	0.313
Mof_O 	O 	0.87244	0.2782	0.00333	-0.511
Mof_H 	H 	0.9213	0.269	0.9938	0.347
Mof_O 	O 	0.94018	0.52183	0.20376	-0.396
Mof_O 	O 	0.94789	0.6829	0.28617	-0.424
Mof_H 	H 	0.9348	0.7466	0.267	0.289
Mof_O 	O 	0.99868	0.78328	0.05183	-0.377
Mof_O 	O 	0.94511	0.60072	0.07289	-0.353
Mof_O 	O 	0.88947	0.8932	0.11245	-0.364
Mof_O 	O 	0.82852	0.71435	0.12815	-0.348
Mof_O 	O 	0.08832	0.0096	0.02357	-0.59
Mof_O 	O 	0.24054	0.01819	0.04412	-0.399
Mof_O 	O 	0.09438	0.97013	0.14161	-0.379
Mof_O 	O 	0.2456	0.98621	0.16293	-0.352
Mof_C 	C 	0.94854	0.7132	0.07483	0.256
Mof_C 	C 	0.88303	0.7796	0.10843	0.239
Mof_C 	C 	0.16698	0.0059	0.05839	0.305
Mof_C 	C 	0.16945	0.9848	0.12757	0.227
Mof_P 	P 	0.5	0.90285	0.75	0.665
Mof_P 	P 	5.10133e-33	0.40285	0.75	0.607
Mof_P 	P 	0.5	0.09715	0.25	0.665
Mof_P 	P 	1.70044e-33	0.59715	0.25	0.609
_end
