data_functionalizedCrystal
_audit_creation_method	'EQeq! by Chris Wilmer'
_symmetry_space_group_name_H-M	'P1'
_symmetry_Int_Tables_number	1
_symmetry_cell_setting	triclinic
loop_
_symmetry_equiv_pos_as_xyz
  x,y,z
_cell_length_a	10.9931
_cell_length_b	10.9931
_cell_length_c	18.085
_cell_angle_alpha	90
_cell_angle_beta	90
_cell_angle_gamma	90
loop_
_atom_site_label
_atom_site_type_symbol
_atom_site_fract_x
_atom_site_fract_y
_atom_site_fract_z
_atom_site_charge
Mof_Cu	Cu	0.38354	0.10803	0.85612	0.856
Mof_Cu	Cu	0.59223	0.89933	0.86556	0.854
Mof_Cu	Cu	0.61646	0.89197	0.35612	0.856
Mof_Cu	Cu	0.40777	0.10067	0.36556	0.854
Mof_Cu	Cu	0.89197	0.38354	0.60612	0.856
Mof_Cu	Cu	0.10067	0.59223	0.61556	0.854
Mof_Cu	Cu	0.10803	0.61646	0.10612	0.857
Mof_Cu	Cu	0.89933	0.40777	0.11556	0.855
Mof_H 	H 	0.1659	0.0299	0.7093	0.267
Mof_H 	H 	0.084	0.9334	0.7493	0.284
Mof_H 	H 	0.1417	0.0406	0.7945	0.262
Mof_H 	H 	0.4227	0.5815	0.7829	0.33
Mof_H 	H 	0.5151	0.6422	0.7281	0.319
Mof_H 	H 	0.5344	0.6543	0.8137	0.315
Mof_H 	H 	0.4807	0.3321	0.6862	0.278
Mof_H 	H 	0.4133	0.3167	0.762	0.256
Mof_H 	H 	0.5261	0.4035	0.756	0.275
Mof_H 	H 	0.8645	0.9927	0.8092	0.272
Mof_H 	H 	0.8132	0.9349	0.7364	0.26
Mof_H 	H 	0.8916	0.0538	0.7326	0.291
Mof_H 	H 	0.8341	0.9701	0.2093	0.267
Mof_H 	H 	0.916	0.0666	0.2493	0.284
Mof_H 	H 	0.8583	0.9594	0.2945	0.262
Mof_H 	H 	0.5773	0.4185	0.2829	0.33
Mof_H 	H 	0.4849	0.3578	0.2281	0.319
Mof_H 	H 	0.4656	0.3457	0.3137	0.315
Mof_H 	H 	0.5193	0.6679	0.1862	0.278
Mof_H 	H 	0.5867	0.6833	0.262	0.256
Mof_H 	H 	0.4739	0.5965	0.256	0.275
Mof_H 	H 	0.1355	0.0073	0.3092	0.272
Mof_H 	H 	0.1868	0.0651	0.2364	0.26
Mof_H 	H 	0.1084	0.9462	0.2326	0.291
Mof_H 	H 	0.9701	0.1659	0.4593	0.266
Mof_H 	H 	0.0666	0.084	0.4993	0.283
Mof_H 	H 	0.9594	0.1417	0.5445	0.26
Mof_H 	H 	0.4185	0.4227	0.5329	0.33
Mof_H 	H 	0.3578	0.5151	0.4781	0.319
Mof_H 	H 	0.3457	0.5344	0.5637	0.315
Mof_H 	H 	0.6679	0.4807	0.4362	0.278
Mof_H 	H 	0.6833	0.4133	0.512	0.256
Mof_H 	H 	0.5965	0.5261	0.506	0.275
Mof_H 	H 	0.0073	0.8645	0.5592	0.274
Mof_H 	H 	0.0651	0.8132	0.4864	0.261
Mof_H 	H 	0.9462	0.8916	0.4826	0.293
Mof_H 	H 	0.0299	0.8341	0.9593	0.267
Mof_H 	H 	0.9334	0.916	0.9993	0.283
Mof_H 	H 	0.0406	0.8583	0.0445	0.26
Mof_H 	H 	0.5815	0.5773	0.0329	0.331
Mof_H 	H 	0.6422	0.4849	0.9781	0.32
Mof_H 	H 	0.6543	0.4656	0.0637	0.316
Mof_H 	H 	0.3321	0.5193	0.9362	0.273
Mof_H 	H 	0.3167	0.5867	0.012	0.25
Mof_H 	H 	0.4035	0.4739	0.006	0.268
Mof_H 	H 	0.9927	0.1355	0.0592	0.276
Mof_H 	H 	0.9349	0.1868	0.9864	0.263
Mof_H 	H 	0.0538	0.1084	0.9826	0.296
Mof_C 	C 	0.1541	0.9849	0.7542	-0.88
Mof_C 	C 	0.4748	0.6504	0.775	-1.067
Mof_C 	C 	0.2673	0.9063	0.7698	0.389
Mof_C 	C 	0.4045	0.758	0.7752	0.435
Mof_C 	C 	0.2868	0.7915	0.7455	-0.432
Mof_C 	C 	0.2159	0.7154	0.6962	0.424
Mof_C 	C 	0.491	0.3286	0.7389	-0.891
Mof_C 	C 	0.8323	0.0099	0.761	-0.883
Mof_C 	C 	0.572	0.2269	0.7579	0.366
Mof_C 	C 	0.7159	0.0872	0.7686	0.376
Mof_C 	C 	0.6932	0.1951	0.7339	-0.401
Mof_C 	C 	0.7666	0.2656	0.6826	0.432
Mof_C 	C 	0.8459	0.0151	0.2542	-0.881
Mof_C 	C 	0.5252	0.3496	0.275	-1.066
Mof_C 	C 	0.7327	0.0937	0.2698	0.39
Mof_C 	C 	0.5955	0.242	0.2752	0.435
Mof_C 	C 	0.7132	0.2085	0.2455	-0.432
Mof_C 	C 	0.7841	0.2846	0.1962	0.423
Mof_C 	C 	0.509	0.6714	0.2389	-0.891
Mof_C 	C 	0.1677	0.9901	0.261	-0.883
Mof_C 	C 	0.428	0.7731	0.2579	0.366
Mof_C 	C 	0.2841	0.9128	0.2686	0.376
Mof_C 	C 	0.3068	0.8049	0.2339	-0.401
Mof_C 	C 	0.2334	0.7344	0.1826	0.431
Mof_C 	C 	0.0151	0.1541	0.5042	-0.877
Mof_C 	C 	0.3496	0.4748	0.525	-1.066
Mof_C 	C 	0.0937	0.2673	0.5198	0.389
Mof_C 	C 	0.242	0.4045	0.5252	0.434
Mof_C 	C 	0.2085	0.2868	0.4955	-0.432
Mof_C 	C 	0.2846	0.2159	0.4462	0.423
Mof_C 	C 	0.6714	0.491	0.4889	-0.891
Mof_C 	C 	0.9901	0.8323	0.511	-0.887
Mof_C 	C 	0.7731	0.572	0.5079	0.366
Mof_C 	C 	0.9128	0.7159	0.5186	0.377
Mof_C 	C 	0.8049	0.6932	0.4839	-0.401
Mof_C 	C 	0.7344	0.7666	0.4326	0.432
Mof_C 	C 	0.9849	0.8459	0.0042	-0.879
Mof_C 	C 	0.6504	0.5252	0.025	-1.069
Mof_C 	C 	0.9063	0.7327	0.0198	0.389
Mof_C 	C 	0.758	0.5955	0.0252	0.435
Mof_C 	C 	0.7915	0.7132	0.9955	-0.433
Mof_C 	C 	0.7154	0.7841	0.9462	0.424
Mof_C 	C 	0.3286	0.509	0.9889	-0.873
Mof_C 	C 	0.0099	0.1677	0.011	-0.893
Mof_C 	C 	0.2269	0.428	0.0079	0.358
Mof_C 	C 	0.0872	0.2841	0.0186	0.376
Mof_C 	C 	0.1951	0.3068	0.9839	-0.396
Mof_C 	C 	0.2656	0.2334	0.9326	0.43
Mof_N 	N 	0.3545	0.9521	0.8086	-0.291
Mof_N 	N 	0.4372	0.8592	0.8158	-0.281
Mof_N 	N 	0.5352	0.1354	0.8015	-0.277
Mof_N 	N 	0.625	0.0464	0.8069	-0.286
Mof_N 	N 	0.6455	0.0479	0.3086	-0.291
Mof_N 	N 	0.5628	0.1408	0.3158	-0.281
Mof_N 	N 	0.4648	0.8646	0.3015	-0.277
Mof_N 	N 	0.375	0.9536	0.3069	-0.286
Mof_N 	N 	0.0479	0.3545	0.5586	-0.291
Mof_N 	N 	0.1408	0.4372	0.5658	-0.281
Mof_N 	N 	0.8646	0.5352	0.5515	-0.277
Mof_N 	N 	0.9536	0.625	0.5569	-0.287
Mof_N 	N 	0.9521	0.6455	0.0586	-0.291
Mof_N 	N 	0.8592	0.5628	0.0658	-0.281
Mof_N 	N 	0.1354	0.4648	0.0515	-0.276
Mof_N 	N 	0.0464	0.375	0.0569	-0.287
Mof_O 	O 	0.1148	0.7531	0.6681	-0.453
Mof_O 	O 	0.2502	0.6106	0.6781	-0.467
Mof_O 	O 	0.7327	0.3637	0.6571	-0.471
Mof_O 	O 	0.8718	0.2264	0.6632	-0.46
Mof_O 	O 	0.8852	0.2469	0.1681	-0.453
Mof_O 	O 	0.7498	0.3894	0.1781	-0.467
Mof_O 	O 	0.2673	0.6363	0.1571	-0.471
Mof_O 	O 	0.1282	0.7736	0.1632	-0.46
Mof_O 	O 	0.2469	0.1148	0.4181	-0.453
Mof_O 	O 	0.3894	0.2502	0.4281	-0.467
Mof_O 	O 	0.6363	0.7327	0.4071	-0.471
Mof_O 	O 	0.7736	0.8718	0.4132	-0.46
Mof_O 	O 	0.7531	0.8852	0.9181	-0.453
Mof_O 	O 	0.6106	0.7498	0.9281	-0.467
Mof_O 	O 	0.3637	0.2673	0.9071	-0.471
Mof_O 	O 	0.2264	0.1282	0.9132	-0.459
_end
