data_functionalizedCrystal
_audit_creation_method	'EQeq! by Chris Wilmer'
_symmetry_space_group_name_H-M	'P1'
_symmetry_Int_Tables_number	1
_symmetry_cell_setting	triclinic
loop_
_symmetry_equiv_pos_as_xyz
  x,y,z
_cell_length_a	10.4993
_cell_length_b	16.9416
_cell_length_c	12.3346
_cell_angle_alpha	90
_cell_angle_beta	100.516
_cell_angle_gamma	90
loop_
_atom_site_label
_atom_site_type_symbol
_atom_site_fract_x
_atom_site_fract_y
_atom_site_fract_z
_atom_site_charge
Mof_Cd	Cd	0.79437	0.10447	0.16037	0.45
Mof_C 	C 	0.2129	0.1619	0.25	-0.099
Mof_C 	C 	0.2224	0.2256	0.3212	0.04
Mof_H 	H 	0.1493	0.2427	0.3472	0.036
Mof_C 	C 	0.3391	0.2642	0.3543	-0.101
Mof_C 	C 	0.4468	0.2389	0.3129	0.039
Mof_H 	H 	0.5245	0.2663	0.3314	0.041
Mof_C 	C 	0.4402	0.1736	0.2443	-0.1
Mof_C 	C 	0.3239	0.1344	0.2141	0.034
Mof_H 	H 	0.3192	0.0898	0.1697	0.042
Mof_C 	C 	0.084	0.1223	0.2089	0.309
Mof_C 	C 	0.3511	0.3317	0.4359	0.336
Mof_C 	C 	0.5608	0.1462	0.2067	0.312
Mof_C 	C 	0.7406	0.9261	0.0763	0.337
Mof_C 	C 	0.5718	0.8472	0.1065	-0.007
Mof_H 	H 	0.4869	0.8426	0.0602	0.056
Mof_H 	H 	0.5657	0.8328	0.1815	0.055
Mof_C 	C 	0.6699	0.7971	0.0636	-0.082
Mof_H 	H 	0.6999	0.7541	0.1138	0.078
Mof_H 	H 	0.6346	0.7756	0.9915	0.083
Mof_N 	N 	0.6243	0.9271	0.1016	-0.25
Mof_H 	H 	0.584	0.9695	0.1137	0.182
Mof_N 	N 	0.7743	0.8535	0.0577	-0.238
Mof_H 	H 	0.8489	0.8406	0.0436	0.16
Mof_O 	O 	0.0845	0.0561	0.1644	-0.291
Mof_O 	O 	0.9851	0.1587	0.2236	-0.279
Mof_O 	O 	0.2672	0.3369	0.4938	-0.288
Mof_O 	O 	0.4467	0.3772	0.4386	-0.292
Mof_O 	O 	0.6612	0.1873	0.2305	-0.283
Mof_O 	O 	0.5577	0.0838	0.1519	-0.294
Mof_O 	O 	0.8095	0.98678	0.069	-0.291
Mof_Cd	Cd	0.70563	0.60447	0.33963	0.467
Mof_C 	C 	0.2871	0.6619	0.25	-0.096
Mof_C 	C 	0.2776	0.7256	0.1788	0.038
Mof_H 	H 	0.3507	0.7427	0.1528	0.042
Mof_C 	C 	0.1609	0.7642	0.1457	-0.091
Mof_C 	C 	0.0532	0.7389	0.1871	0.014
Mof_H 	H 	0.9755	0.7663	0.1686	0.059
Mof_C 	C 	0.0598	0.6736	0.2557	-0.1
Mof_C 	C 	0.1761	0.6344	0.2859	0.034
Mof_H 	H 	0.1808	0.5898	0.3303	0.045
Mof_C 	C 	0.416	0.6223	0.2911	0.328
Mof_C 	C 	0.1489	0.8317	0.0641	0.332
Mof_C 	C 	0.9392	0.6462	0.2933	0.32
Mof_C 	C 	0.7594	0.4261	0.4237	0.339
Mof_C 	C 	0.9282	0.3472	0.3935	0.004
Mof_H 	H 	0.0131	0.3426	0.4398	0.047
Mof_H 	H 	0.9343	0.3328	0.3185	0.051
Mof_C 	C 	0.8301	0.2971	0.4364	-0.05
Mof_H 	H 	0.8001	0.2541	0.3862	0.07
Mof_H 	H 	0.8654	0.2756	0.5085	0.062
Mof_N 	N 	0.8757	0.4271	0.3984	-0.251
Mof_H 	H 	0.916	0.4695	0.3863	0.176
Mof_N 	N 	0.7257	0.3535	0.4423	-0.242
Mof_H 	H 	0.6511	0.3406	0.4564	0.16
Mof_O 	O 	0.4155	0.5561	0.3356	-0.287
Mof_O 	O 	0.5149	0.6587	0.2764	-0.291
Mof_O 	O 	0.2328	0.8369	0.0062	-0.291
Mof_O 	O 	0.0533	0.8772	0.0614	-0.287
Mof_O 	O 	0.8388	0.6873	0.2695	-0.281
Mof_O 	O 	0.9423	0.5838	0.3481	-0.278
Mof_O 	O 	0.6905	0.48678	0.431	-0.311
Mof_Cd	Cd	0.20563	0.89553	0.83963	0.487
Mof_C 	C 	0.7871	0.8381	0.75	-0.091
Mof_C 	C 	0.7776	0.7744	0.6788	0.044
Mof_H 	H 	0.8507	0.7573	0.6528	0.045
Mof_C 	C 	0.6609	0.7358	0.6457	-0.095
Mof_C 	C 	0.5532	0.7611	0.6871	0.037
Mof_H 	H 	0.4755	0.7337	0.6686	0.044
Mof_C 	C 	0.5598	0.8264	0.7557	-0.09
Mof_C 	C 	0.6761	0.8656	0.7859	0.033
Mof_H 	H 	0.6808	0.9102	0.8303	0.055
Mof_C 	C 	0.916	0.8777	0.7911	0.341
Mof_C 	C 	0.6489	0.6683	0.5641	0.337
Mof_C 	C 	0.4392	0.8538	0.7933	0.309
Mof_C 	C 	0.2594	0.0739	0.9237	0.339
Mof_C 	C 	0.4282	0.1528	0.8935	-0.062
Mof_H 	H 	0.5131	0.1574	0.9398	0.081
Mof_H 	H 	0.4343	0.1672	0.8185	0.067
Mof_C 	C 	0.3301	0.2029	0.9364	0.025
Mof_H 	H 	0.3001	0.2459	0.8862	0.049
Mof_H 	H 	0.3654	0.2244	0.0085	0.022
Mof_N 	N 	0.3757	0.0729	0.8984	-0.241
Mof_H 	H 	0.416	0.0305	0.8863	0.164
Mof_N 	N 	0.2257	0.1465	0.9423	-0.251
Mof_H 	H 	0.1511	0.1594	0.9564	0.166
Mof_O 	O 	0.9155	0.9439	0.8356	-0.263
Mof_O 	O 	0.0149	0.8413	0.7764	-0.298
Mof_O 	O 	0.7328	0.6631	0.5062	-0.284
Mof_O 	O 	0.5533	0.6228	0.5614	-0.29
Mof_O 	O 	0.3388	0.8127	0.7695	-0.277
Mof_O 	O 	0.4423	0.9162	0.8481	-0.267
Mof_O 	O 	0.1905	0.01322	0.931	-0.313
Mof_Cd	Cd	0.29437	0.39553	0.66037	0.469
Mof_C 	C 	0.7129	0.3381	0.75	-0.096
Mof_C 	C 	0.7224	0.2744	0.8212	0.047
Mof_H 	H 	0.6493	0.2573	0.8472	0.041
Mof_C 	C 	0.8391	0.2358	0.8543	-0.104
Mof_C 	C 	0.9468	0.2611	0.8129	0.063
Mof_H 	H 	0.0245	0.2337	0.8314	0.025
Mof_C 	C 	0.9402	0.3264	0.7443	-0.09
Mof_C 	C 	0.8239	0.3656	0.7141	0.035
Mof_H 	H 	0.8192	0.4102	0.6697	0.051
Mof_C 	C 	0.584	0.3777	0.7089	0.33
Mof_C 	C 	0.8511	0.1683	0.9359	0.337
Mof_C 	C 	0.0608	0.3538	0.7067	0.301
Mof_C 	C 	0.2406	0.5739	0.5763	0.338
Mof_C 	C 	0.0718	0.6528	0.6065	-0.066
Mof_H 	H 	0.9869	0.6574	0.5602	0.086
Mof_H 	H 	0.0657	0.6672	0.6815	0.069
Mof_C 	C 	0.1699	0.7029	0.5636	-0.016
Mof_H 	H 	0.1999	0.7459	0.6138	0.06
Mof_H 	H 	0.1346	0.7244	0.4915	0.049
Mof_N 	N 	0.1243	0.5729	0.6016	-0.242
Mof_H 	H 	0.084	0.5305	0.6137	0.169
Mof_N 	N 	0.2743	0.6465	0.5577	-0.246
Mof_H 	H 	0.3489	0.6594	0.5436	0.163
Mof_O 	O 	0.5845	0.4439	0.6644	-0.284
Mof_O 	O 	0.4851	0.3413	0.7236	-0.29
Mof_O 	O 	0.7672	0.1631	0.9938	-0.275
Mof_O 	O 	0.9467	0.1228	0.9386	-0.275
Mof_O 	O 	0.1612	0.3127	0.7305	-0.279
Mof_O 	O 	0.0577	0.4162	0.6519	-0.281
Mof_O 	O 	0.3095	0.51322	0.569	-0.31
Mof_Cd	Cd	-0	0	-0	0.455
Mof_Cd	Cd	0.5	0.5	0.5	0.516
_end
