data_functionalizedCrystal
_audit_creation_method	'EQeq! by Chris Wilmer'
_symmetry_space_group_name_H-M	'P1'
_symmetry_Int_Tables_number	1
_symmetry_cell_setting	triclinic
loop_
_symmetry_equiv_pos_as_xyz
  x,y,z
_cell_length_a	7.512
_cell_length_b	16.53
_cell_length_c	14.154
_cell_angle_alpha	90
_cell_angle_beta	90.71
_cell_angle_gamma	90
loop_
_atom_site_label
_atom_site_type_symbol
_atom_site_fract_x
_atom_site_fract_y
_atom_site_fract_z
_atom_site_charge
Mof_O 	O 	0.4109	0.39264	0.5698	-0.365
Mof_O 	O 	0.1227	0.41291	0.5968	-0.373
Mof_O 	O 	0.1216	0.07761	0.8983	-0.344
Mof_O 	O 	0.4089	0.10248	0.9282	-0.327
Mof_O 	O 	0.2493	0.50623	0.4034	-0.293
Mof_C 	C 	0.3353	0.3161	0.7656	0.003
Mof_H 	H 	0.3824	0.3661	0.7829	0.041
Mof_C 	C 	0.3356	0.2528	0.8312	-0.016
Mof_H 	H 	0.3822	0.2616	0.8915	0.06
Mof_C 	C 	0.2686	0.1781	0.8085	-0.088
Mof_C 	C 	0.2007	0.1635	0.7149	0.04
Mof_C 	C 	0.143	0.0864	0.6852	-0.085
Mof_H 	H 	0.1441	0.0436	0.7278	0.055
Mof_C 	C 	0.0853	0.0741	0.5942	-0.032
Mof_H 	H 	0.0514	0.0225	0.5748	-0.006
Mof_C 	C 	0.0771	0.1386	0.5303	-0.032
Mof_H 	H 	0.0345	0.1298	0.4691	0.003
Mof_C 	C 	0.1303	0.2134	0.5565	-0.087
Mof_H 	H 	0.1227	0.2557	0.5133	0.06
Mof_C 	C 	0.1973	0.2285	0.6487	0.049
Mof_C 	C 	0.2665	0.3055	0.6759	-0.103
Mof_C 	C 	0.267	0.3753	0.6085	0.377
Mof_C 	C 	0.2661	0.1145	0.8836	0.358
Mof_O 	O 	0.0891	0.89264	0.9302	-0.305
Mof_O 	O 	0.3773	0.91291	0.9032	-0.282
Mof_O 	O 	0.3784	0.57761	0.6017	-0.365
Mof_O 	O 	0.0911	0.60248	0.5718	-0.395
Mof_O 	O 	0.2507	0.00623	0.0966	-0.314
Mof_C 	C 	0.1647	0.8161	0.7344	0.01
Mof_H 	H 	0.1176	0.8661	0.7171	0.038
Mof_C 	C 	0.1644	0.7528	0.6688	-0.026
Mof_H 	H 	0.1178	0.7616	0.6085	0.033
Mof_C 	C 	0.2314	0.6781	0.6915	-0.075
Mof_C 	C 	0.2993	0.6635	0.7851	-0.021
Mof_C 	C 	0.357	0.5864	0.8148	0.046
Mof_H 	H 	0.3559	0.5436	0.7722	0.033
Mof_C 	C 	0.4147	0.5741	0.9058	-0.197
Mof_H 	H 	0.4486	0.5225	0.9252	0.12
Mof_C 	C 	0.4229	0.6386	0.9697	0.26
Mof_H 	H 	0.4655	0.6298	0.0309	-0.099
Mof_C 	C 	0.3697	0.7134	0.9435	-0.247
Mof_H 	H 	0.3773	0.7557	0.9867	0.157
Mof_C 	C 	0.3027	0.7285	0.8513	0.138
Mof_C 	C 	0.2335	0.8055	0.8241	-0.12
Mof_C 	C 	0.233	0.8753	0.8915	0.366
Mof_C 	C 	0.2339	0.6145	0.6164	0.373
Mof_O 	O 	0.5891	0.60736	0.4302	-0.364
Mof_O 	O 	0.8773	0.58709	0.4032	-0.315
Mof_O 	O 	0.8784	0.92239	0.1017	-0.277
Mof_O 	O 	0.5911	0.89752	0.0718	-0.341
Mof_O 	O 	0.7507	0.49377	0.5966	-0.232
Mof_C 	C 	0.6647	0.6839	0.2344	-0.004
Mof_H 	H 	0.6176	0.6339	0.2171	0.038
Mof_C 	C 	0.6644	0.7472	0.1688	-0.01
Mof_H 	H 	0.6178	0.7384	0.1085	0.038
Mof_C 	C 	0.7314	0.8219	0.1915	-0.083
Mof_C 	C 	0.7993	0.8365	0.2851	0.053
Mof_C 	C 	0.857	0.9136	0.3148	-0.059
Mof_H 	H 	0.8559	0.9564	0.2722	0.099
Mof_C 	C 	0.9147	0.9259	0.4058	-0.015
Mof_H 	H 	0.9486	0.9775	0.4252	0.09
Mof_C 	C 	0.9229	0.8614	0.4697	0.002
Mof_H 	H 	0.9655	0.8702	0.5309	0.074
Mof_C 	C 	0.8697	0.7866	0.4435	-0.075
Mof_H 	H 	0.8773	0.7443	0.4867	0.096
Mof_C 	C 	0.8027	0.7715	0.3513	0.061
Mof_C 	C 	0.7335	0.6945	0.3241	-0.092
Mof_C 	C 	0.733	0.6247	0.3915	0.368
Mof_C 	C 	0.7339	0.8855	0.1164	0.354
Mof_O 	O 	0.9109	0.10736	0.0698	-0.311
Mof_O 	O 	0.6227	0.08709	0.0968	-0.357
Mof_O 	O 	0.6216	0.42239	0.3983	-0.374
Mof_O 	O 	0.9089	0.39752	0.4282	-0.329
Mof_O 	O 	0.7493	0.99377	0.9034	-0.122
Mof_C 	C 	0.8353	0.1839	0.2656	-0.039
Mof_H 	H 	0.8824	0.1339	0.2829	0.054
Mof_C 	C 	0.8356	0.2472	0.3312	0.028
Mof_H 	H 	0.8822	0.2384	0.3915	0.053
Mof_C 	C 	0.7686	0.3219	0.3085	-0.129
Mof_C 	C 	0.7007	0.3365	0.2149	0.134
Mof_C 	C 	0.643	0.4136	0.1852	-0.206
Mof_H 	H 	0.6441	0.4564	0.2278	0.12
Mof_C 	C 	0.5853	0.4259	0.0942	0.164
Mof_H 	H 	0.5514	0.4775	0.0748	-0.042
Mof_C 	C 	0.5771	0.3614	0.0303	-0.307
Mof_H 	H 	0.5345	0.3702	0.9691	0.182
Mof_C 	C 	0.6303	0.2866	0.0565	0.102
Mof_H 	H 	0.6227	0.2443	0.0133	-0.004
Mof_C 	C 	0.6973	0.2715	0.1487	-0.048
Mof_C 	C 	0.7665	0.1945	0.1759	-0.044
Mof_C 	C 	0.767	0.1247	0.1085	0.334
Mof_C 	C 	0.7661	0.3855	0.3836	0.388
Mof_Mn	Mn	-2.02156e-18	0.5	0.5	0.869
Mof_Mn	Mn	0.5	0	-0	0.795
Mof_Mn	Mn	0.5	0.5	0.5	0.987
Mof_Mn	Mn	-0	0	-0	0.673
_end
