data_functionalizedCrystal
_audit_creation_method	'EQeq! by Chris Wilmer'
_symmetry_space_group_name_H-M	'P1'
_symmetry_Int_Tables_number	1
_symmetry_cell_setting	triclinic
loop_
_symmetry_equiv_pos_as_xyz
  x,y,z
_cell_length_a	13.563
_cell_length_b	15.03
_cell_length_c	16.193
_cell_angle_alpha	90
_cell_angle_beta	90
_cell_angle_gamma	90
loop_
_atom_site_label
_atom_site_type_symbol
_atom_site_fract_x
_atom_site_fract_y
_atom_site_fract_z
_atom_site_charge
Mof_Ce	Ce	0.10727	0.75	0.75	3.941
Mof_Ce	Ce	0.39273	0.25	0.25	3.954
Mof_Ce	Ce	0.89273	0.25	0.25	3.941
Mof_Ce	Ce	0.60727	0.75	0.75	3.954
Mof_Ni	Ni	0.28516	0.56033	0.88495	1.131
Mof_Ni	Ni	0.28516	0.93967	0.61505	1.129
Mof_Ni	Ni	0.21484	0.43967	0.38495	1.131
Mof_Ni	Ni	0.21484	0.06033	0.11505	1.131
Mof_Ni	Ni	0.71484	0.43967	0.11505	1.13
Mof_Ni	Ni	0.71484	0.06033	0.38495	1.128
Mof_Ni	Ni	0.78516	0.56033	0.61505	1.13
Mof_Ni	Ni	0.78516	0.93967	0.88495	1.13
Mof_H 	H 	0.0944	0.7348	0.5724	0.494
Mof_H 	H 	0.0057	0.7728	0.5947	0.558
Mof_H 	H 	0.2968	0.7567	0.6668	0.642
Mof_H 	H 	0.2446	0.6911	0.6247	0.598
Mof_H 	H 	0.2197	0.4545	0.6908	0.167
Mof_H 	H 	0.1744	0.4336	0.7782	0.158
Mof_H 	H 	0.4305	0.494	0.7177	0.194
Mof_H 	H 	0.3412	0.5447	0.6782	0.209
Mof_H 	H 	0.2985	0.3687	0.838	0.071
Mof_H 	H 	0.3786	0.3721	0.768	0.076
Mof_H 	H 	0.4797	0.4564	0.8492	0.05
Mof_H 	H 	0.4513	0.3696	0.8977	0.048
Mof_H 	H 	0.3524	0.3638	0.9936	0.121
Mof_H 	H 	0.3496	0.4447	0.0546	0.152
Mof_H 	H 	0.4925	0.5669	0.9408	0.067
Mof_H 	H 	0.4322	0.5649	0.0233	0.048
Mof_H 	H 	0.0944	0.7652	0.9276	0.493
Mof_H 	H 	0.0057	0.7272	0.9053	0.557
Mof_H 	H 	0.2968	0.7433	0.8332	0.642
Mof_H 	H 	0.2446	0.8089	0.8753	0.598
Mof_H 	H 	0.2197	0.0455	0.8092	0.166
Mof_H 	H 	0.1744	0.0664	0.7218	0.157
Mof_H 	H 	0.4305	0.006	0.7823	0.198
Mof_H 	H 	0.3412	0.9553	0.8218	0.21
Mof_H 	H 	0.2985	0.1313	0.662	0.071
Mof_H 	H 	0.3786	0.1279	0.732	0.076
Mof_H 	H 	0.4797	0.0436	0.6508	0.05
Mof_H 	H 	0.4513	0.1304	0.6023	0.048
Mof_H 	H 	0.3524	0.1362	0.5064	0.12
Mof_H 	H 	0.3496	0.0553	0.4454	0.151
Mof_H 	H 	0.4925	0.9331	0.5592	0.067
Mof_H 	H 	0.4322	0.9351	0.4767	0.047
Mof_H 	H 	0.4056	0.2652	0.0724	0.495
Mof_H 	H 	0.4943	0.2272	0.0947	0.56
Mof_H 	H 	0.2032	0.2433	0.1668	0.643
Mof_H 	H 	0.2554	0.3089	0.1247	0.599
Mof_H 	H 	0.2803	0.5455	0.1908	0.167
Mof_H 	H 	0.3256	0.5664	0.2782	0.159
Mof_H 	H 	0.0695	0.506	0.2177	0.195
Mof_H 	H 	0.1588	0.4553	0.1782	0.209
Mof_H 	H 	0.2015	0.6313	0.338	0.071
Mof_H 	H 	0.1214	0.6279	0.268	0.076
Mof_H 	H 	0.0203	0.5436	0.3492	0.05
Mof_H 	H 	0.0487	0.6304	0.3977	0.048
Mof_H 	H 	0.1476	0.6362	0.4936	0.121
Mof_H 	H 	0.1504	0.5553	0.5546	0.151
Mof_H 	H 	0.0075	0.4331	0.4408	0.068
Mof_H 	H 	0.0678	0.4351	0.5233	0.047
Mof_H 	H 	0.4056	0.2348	0.4276	0.495
Mof_H 	H 	0.4943	0.2728	0.4053	0.561
Mof_H 	H 	0.2032	0.2567	0.3332	0.643
Mof_H 	H 	0.2554	0.1911	0.3753	0.599
Mof_H 	H 	0.2803	0.9545	0.3092	0.166
Mof_H 	H 	0.3256	0.9336	0.2218	0.159
Mof_H 	H 	0.0695	0.994	0.2823	0.188
Mof_H 	H 	0.1588	0.0447	0.3218	0.206
Mof_H 	H 	0.2015	0.8687	0.162	0.07
Mof_H 	H 	0.1214	0.8721	0.232	0.076
Mof_H 	H 	0.0203	0.9564	0.1508	0.049
Mof_H 	H 	0.0487	0.8696	0.1023	0.048
Mof_H 	H 	0.1476	0.8638	0.0064	0.119
Mof_H 	H 	0.1504	0.9447	0.9454	0.142
Mof_H 	H 	0.0075	0.0669	0.0592	0.068
Mof_H 	H 	0.0678	0.0649	0.9767	0.045
Mof_H 	H 	0.9056	0.2652	0.4276	0.494
Mof_H 	H 	0.9943	0.2272	0.4053	0.558
Mof_H 	H 	0.7032	0.2433	0.3332	0.642
Mof_H 	H 	0.7554	0.3089	0.3753	0.598
Mof_H 	H 	0.7803	0.5455	0.3092	0.167
Mof_H 	H 	0.8256	0.5664	0.2218	0.158
Mof_H 	H 	0.5695	0.506	0.2823	0.194
Mof_H 	H 	0.6588	0.4553	0.3218	0.209
Mof_H 	H 	0.7015	0.6313	0.162	0.071
Mof_H 	H 	0.6214	0.6279	0.232	0.076
Mof_H 	H 	0.5203	0.5436	0.1508	0.05
Mof_H 	H 	0.5487	0.6304	0.1023	0.048
Mof_H 	H 	0.6476	0.6362	0.0064	0.121
Mof_H 	H 	0.6504	0.5553	0.9454	0.152
Mof_H 	H 	0.5075	0.4331	0.0592	0.067
Mof_H 	H 	0.5678	0.4351	0.9767	0.048
Mof_H 	H 	0.9056	0.2348	0.0724	0.493
Mof_H 	H 	0.9943	0.2728	0.0947	0.557
Mof_H 	H 	0.7032	0.2567	0.1668	0.642
Mof_H 	H 	0.7554	0.1911	0.1247	0.598
Mof_H 	H 	0.7803	0.9545	0.1908	0.166
Mof_H 	H 	0.8256	0.9336	0.2782	0.157
Mof_H 	H 	0.5695	0.994	0.2177	0.198
Mof_H 	H 	0.6588	0.0447	0.1782	0.21
Mof_H 	H 	0.7015	0.8687	0.338	0.071
Mof_H 	H 	0.6214	0.8721	0.268	0.076
Mof_H 	H 	0.5203	0.9564	0.3492	0.05
Mof_H 	H 	0.5487	0.8696	0.3977	0.048
Mof_H 	H 	0.6476	0.8638	0.4936	0.12
Mof_H 	H 	0.6504	0.9447	0.5546	0.151
Mof_H 	H 	0.5075	0.0669	0.4408	0.067
Mof_H 	H 	0.5678	0.0649	0.5233	0.047
Mof_H 	H 	0.5944	0.7348	0.9276	0.495
Mof_H 	H 	0.5057	0.7728	0.9053	0.56
Mof_H 	H 	0.7968	0.7567	0.8332	0.643
Mof_H 	H 	0.7446	0.6911	0.8753	0.599
Mof_H 	H 	0.7197	0.4545	0.8092	0.167
Mof_H 	H 	0.6744	0.4336	0.7218	0.159
Mof_H 	H 	0.9305	0.494	0.7823	0.195
Mof_H 	H 	0.8412	0.5447	0.8218	0.209
Mof_H 	H 	0.7985	0.3687	0.662	0.071
Mof_H 	H 	0.8786	0.3721	0.732	0.076
Mof_H 	H 	0.9797	0.4564	0.6508	0.05
Mof_H 	H 	0.9513	0.3696	0.6023	0.048
Mof_H 	H 	0.8524	0.3638	0.5064	0.121
Mof_H 	H 	0.8496	0.4447	0.4454	0.151
Mof_H 	H 	0.9925	0.5669	0.5592	0.068
Mof_H 	H 	0.9322	0.5649	0.4767	0.047
Mof_H 	H 	0.5944	0.7652	0.5724	0.495
Mof_H 	H 	0.5057	0.7272	0.5947	0.561
Mof_H 	H 	0.7968	0.7433	0.6668	0.643
Mof_H 	H 	0.7446	0.8089	0.6247	0.599
Mof_H 	H 	0.7197	0.0455	0.6908	0.166
Mof_H 	H 	0.6744	0.0664	0.7782	0.159
Mof_H 	H 	0.9305	0.006	0.7177	0.188
Mof_H 	H 	0.8412	0.9553	0.6782	0.206
Mof_H 	H 	0.7985	0.1313	0.838	0.07
Mof_H 	H 	0.8786	0.1279	0.768	0.076
Mof_H 	H 	0.9797	0.0436	0.8492	0.049
Mof_H 	H 	0.9513	0.1304	0.8977	0.048
Mof_H 	H 	0.8524	0.1362	0.9936	0.119
Mof_H 	H 	0.8496	0.0553	0.0546	0.142
Mof_H 	H 	0.9925	0.9331	0.9408	0.068
Mof_H 	H 	0.9322	0.9351	0.0233	0.045
Mof_C 	C 	0.1656	0.5628	0.7476	0.547
Mof_C 	C 	0.2133	0.476	0.747	-0.438
Mof_C 	C 	0.3747	0.5323	0.7299	-0.542
Mof_C 	C 	0.4114	0.6164	0.7648	0.75
Mof_C 	C 	0.3498	0.4051	0.8134	-0.141
Mof_C 	C 	0.4257	0.4248	0.8752	-0.073
Mof_C 	C 	0.3322	0.4254	0.9993	-0.397
Mof_C 	C 	0.2261	0.4306	0.99	0.46
Mof_C 	C 	0.4617	0.5278	0.981	-0.079
Mof_C 	C 	0.2295	0.6579	0.0259	0.108
Mof_C 	C 	0.1656	0.9372	0.7524	0.541
Mof_C 	C 	0.2133	0.024	0.753	-0.43
Mof_C 	C 	0.3747	0.9677	0.7701	-0.551
Mof_C 	C 	0.4114	0.8836	0.7352	0.753
Mof_C 	C 	0.3498	0.0949	0.6866	-0.141
Mof_C 	C 	0.4257	0.0752	0.6248	-0.073
Mof_C 	C 	0.3322	0.0746	0.5007	-0.395
Mof_C 	C 	0.2261	0.0694	0.51	0.464
Mof_C 	C 	0.4617	0.9722	0.519	-0.079
Mof_C 	C 	0.2295	0.8421	0.4741	0.102
Mof_C 	C 	0.3344	0.4372	0.2476	0.547
Mof_C 	C 	0.2867	0.524	0.247	-0.438
Mof_C 	C 	0.1253	0.4677	0.2299	-0.541
Mof_C 	C 	0.0886	0.3836	0.2648	0.748
Mof_C 	C 	0.1502	0.5949	0.3134	-0.141
Mof_C 	C 	0.0743	0.5752	0.3752	-0.074
Mof_C 	C 	0.1678	0.5746	0.4993	-0.396
Mof_C 	C 	0.2739	0.5694	0.49	0.464
Mof_C 	C 	0.0383	0.4722	0.481	-0.078
Mof_C 	C 	0.2705	0.3421	0.5259	0.102
Mof_C 	C 	0.3344	0.0628	0.2524	0.548
Mof_C 	C 	0.2867	0.976	0.253	-0.439
Mof_C 	C 	0.1253	0.0323	0.2701	-0.529
Mof_C 	C 	0.0886	0.1164	0.2352	0.745
Mof_C 	C 	0.1502	0.9051	0.1866	-0.14
Mof_C 	C 	0.0743	0.9248	0.1248	-0.074
Mof_C 	C 	0.1678	0.9254	0.0007	-0.384
Mof_C 	C 	0.2739	0.9306	0.01	0.466
Mof_C 	C 	0.0383	0.0278	0.019	-0.072
Mof_C 	C 	0.2705	0.1579	0.9741	0.101
Mof_C 	C 	0.8344	0.4372	0.2524	0.547
Mof_C 	C 	0.7867	0.524	0.253	-0.438
Mof_C 	C 	0.6253	0.4677	0.2701	-0.542
Mof_C 	C 	0.5886	0.3836	0.2352	0.75
Mof_C 	C 	0.6502	0.5949	0.1866	-0.141
Mof_C 	C 	0.5743	0.5752	0.1248	-0.073
Mof_C 	C 	0.6678	0.5746	0.0007	-0.397
Mof_C 	C 	0.7739	0.5694	0.01	0.46
Mof_C 	C 	0.5383	0.4722	0.019	-0.079
Mof_C 	C 	0.7705	0.3421	0.9741	0.108
Mof_C 	C 	0.8344	0.0628	0.2476	0.541
Mof_C 	C 	0.7867	0.976	0.247	-0.43
Mof_C 	C 	0.6253	0.0323	0.2299	-0.551
Mof_C 	C 	0.5886	0.1164	0.2648	0.753
Mof_C 	C 	0.6502	0.9051	0.3134	-0.141
Mof_C 	C 	0.5743	0.9248	0.3752	-0.073
Mof_C 	C 	0.6678	0.9254	0.4993	-0.395
Mof_C 	C 	0.7739	0.9306	0.49	0.464
Mof_C 	C 	0.5383	0.0278	0.481	-0.079
Mof_C 	C 	0.7705	0.1579	0.5259	0.102
Mof_C 	C 	0.6656	0.5628	0.7524	0.547
Mof_C 	C 	0.7133	0.476	0.753	-0.438
Mof_C 	C 	0.8747	0.5323	0.7701	-0.541
Mof_C 	C 	0.9114	0.6164	0.7352	0.748
Mof_C 	C 	0.8498	0.4051	0.6866	-0.141
Mof_C 	C 	0.9257	0.4248	0.6248	-0.074
Mof_C 	C 	0.8322	0.4254	0.5007	-0.396
Mof_C 	C 	0.7261	0.4306	0.51	0.464
Mof_C 	C 	0.9617	0.5278	0.519	-0.078
Mof_C 	C 	0.7295	0.6579	0.4741	0.102
Mof_C 	C 	0.6656	0.9372	0.7476	0.548
Mof_C 	C 	0.7133	0.024	0.747	-0.439
Mof_C 	C 	0.8747	0.9677	0.7299	-0.529
Mof_C 	C 	0.9114	0.8836	0.7648	0.745
Mof_C 	C 	0.8498	0.0949	0.8134	-0.14
Mof_C 	C 	0.9257	0.0752	0.8752	-0.074
Mof_C 	C 	0.8322	0.0746	0.9993	-0.384
Mof_C 	C 	0.7261	0.0694	0.99	0.466
Mof_C 	C 	0.9617	0.9722	0.981	-0.072
Mof_C 	C 	0.7295	0.8421	0.0259	0.101
Mof_S 	S 	0.1805	0.6996	0.1173	-0.111
Mof_S 	S 	0.1805	0.8004	0.3827	-0.112
Mof_S 	S 	0.3195	0.3004	0.6173	-0.111
Mof_S 	S 	0.3195	0.1996	0.8827	-0.11
Mof_S 	S 	0.8195	0.3004	0.8827	-0.111
Mof_S 	S 	0.8195	0.1996	0.6173	-0.112
Mof_S 	S 	0.6805	0.6996	0.3827	-0.111
Mof_S 	S 	0.6805	0.8004	0.1173	-0.11
Mof_N 	N 	0.3084	0.4858	0.7836	-0.059
Mof_N 	N 	0.3856	0.4781	0.9409	-0.133
Mof_N 	N 	0.268	0.6386	0.9719	-0.308
Mof_N 	N 	0.3084	0.0142	0.7164	-0.057
Mof_N 	N 	0.3856	0.0219	0.5591	-0.133
Mof_N 	N 	0.268	0.8614	0.5281	-0.304
Mof_N 	N 	0.1916	0.5142	0.2836	-0.059
Mof_N 	N 	0.1144	0.5219	0.4409	-0.133
Mof_N 	N 	0.232	0.3614	0.4719	-0.304
Mof_N 	N 	0.1916	0.9858	0.2164	-0.062
Mof_N 	N 	0.1144	0.9781	0.0591	-0.136
Mof_N 	N 	0.232	0.1386	0.0281	-0.303
Mof_N 	N 	0.6916	0.5142	0.2164	-0.059
Mof_N 	N 	0.6144	0.5219	0.0591	-0.133
Mof_N 	N 	0.732	0.3614	0.0281	-0.308
Mof_N 	N 	0.6916	0.9858	0.2836	-0.057
Mof_N 	N 	0.6144	0.9781	0.4409	-0.133
Mof_N 	N 	0.732	0.1386	0.4719	-0.304
Mof_N 	N 	0.8084	0.4858	0.7164	-0.059
Mof_N 	N 	0.8856	0.4781	0.5591	-0.133
Mof_N 	N 	0.768	0.6386	0.5281	-0.304
Mof_N 	N 	0.8084	0.0142	0.7836	-0.062
Mof_N 	N 	0.8856	0.0219	0.9409	-0.136
Mof_N 	N 	0.768	0.8614	0.9719	-0.303
Mof_O 	O 	0.1804	0.6109	0.809	-0.76
Mof_O 	O 	0.1147	0.5853	0.6914	-0.577
Mof_O 	O 	0.3847	0.6385	0.8335	-0.598
Mof_O 	O 	0.4667	0.6582	0.7227	-0.787
Mof_O 	O 	0.1909	0.4753	0.9349	-0.457
Mof_O 	O 	0.1782	0.3876	0.0393	-0.368
Mof_O 	O 	0.0484	0.7368	0.6057	-1.323
Mof_O 	O 	0.2571	0.717	0.6679	-1.472
Mof_O 	O 	0.1804	0.8891	0.691	-0.759
Mof_O 	O 	0.1147	0.9147	0.8086	-0.577
Mof_O 	O 	0.3847	0.8615	0.6665	-0.599
Mof_O 	O 	0.4667	0.8418	0.7773	-0.788
Mof_O 	O 	0.1909	0.0247	0.5651	-0.455
Mof_O 	O 	0.1782	0.1124	0.4607	-0.371
Mof_O 	O 	0.0484	0.7632	0.8943	-1.323
Mof_O 	O 	0.2571	0.783	0.8321	-1.472
Mof_O 	O 	0.3196	0.3891	0.309	-0.761
Mof_O 	O 	0.3853	0.4147	0.1914	-0.577
Mof_O 	O 	0.1153	0.3615	0.3335	-0.597
Mof_O 	O 	0.0333	0.3418	0.2227	-0.782
Mof_O 	O 	0.3091	0.5247	0.4349	-0.457
Mof_O 	O 	0.3218	0.6124	0.5393	-0.372
Mof_O 	O 	0.4516	0.2632	0.1057	-1.325
Mof_O 	O 	0.2429	0.283	0.1679	-1.475
Mof_O 	O 	0.3196	0.1109	0.191	-0.761
Mof_O 	O 	0.3853	0.0853	0.3086	-0.577
Mof_O 	O 	0.1153	0.1385	0.1665	-0.595
Mof_O 	O 	0.0333	0.1582	0.2773	-0.78
Mof_O 	O 	0.3091	0.9753	0.0651	-0.457
Mof_O 	O 	0.3218	0.8876	0.9607	-0.376
Mof_O 	O 	0.4516	0.2368	0.3943	-1.325
Mof_O 	O 	0.2429	0.217	0.3321	-1.475
Mof_O 	O 	0.8196	0.3891	0.191	-0.76
Mof_O 	O 	0.8853	0.4147	0.3086	-0.577
Mof_O 	O 	0.6153	0.3615	0.1665	-0.598
Mof_O 	O 	0.5333	0.3418	0.2773	-0.787
Mof_O 	O 	0.8091	0.5247	0.0651	-0.457
Mof_O 	O 	0.8218	0.6124	0.9607	-0.368
Mof_O 	O 	0.9516	0.2632	0.3943	-1.323
Mof_O 	O 	0.7429	0.283	0.3321	-1.472
Mof_O 	O 	0.8196	0.1109	0.309	-0.759
Mof_O 	O 	0.8853	0.0853	0.1914	-0.577
Mof_O 	O 	0.6153	0.1385	0.3335	-0.599
Mof_O 	O 	0.5333	0.1582	0.2227	-0.788
Mof_O 	O 	0.8091	0.9753	0.4349	-0.455
Mof_O 	O 	0.8218	0.8876	0.5393	-0.371
Mof_O 	O 	0.9516	0.2368	0.1057	-1.323
Mof_O 	O 	0.7429	0.217	0.1679	-1.472
Mof_O 	O 	0.6804	0.6109	0.691	-0.761
Mof_O 	O 	0.6147	0.5853	0.8086	-0.577
Mof_O 	O 	0.8847	0.6385	0.6665	-0.597
Mof_O 	O 	0.9667	0.6582	0.7773	-0.782
Mof_O 	O 	0.6909	0.4753	0.5651	-0.457
Mof_O 	O 	0.6782	0.3876	0.4607	-0.372
Mof_O 	O 	0.5484	0.7368	0.8943	-1.325
Mof_O 	O 	0.7571	0.717	0.8321	-1.475
Mof_O 	O 	0.6804	0.8891	0.809	-0.761
Mof_O 	O 	0.6147	0.9147	0.6914	-0.577
Mof_O 	O 	0.8847	0.8615	0.8335	-0.595
Mof_O 	O 	0.9667	0.8418	0.7227	-0.78
Mof_O 	O 	0.6909	0.0247	0.9349	-0.457
Mof_O 	O 	0.6782	0.1124	0.0393	-0.376
Mof_O 	O 	0.5484	0.7632	0.6057	-1.325
Mof_O 	O 	0.7571	0.783	0.6679	-1.475
_end
