# CIF file generated by openbabel 3.1.0, see https://openbabel.org
data_I
_chemical_name_common 'GAWKEW_clean'
_cell_length_a 14.907
_cell_length_b 18.432
_cell_length_c 33.284
_cell_angle_alpha 97.89
_cell_angle_beta 90
_cell_angle_gamma 90
_space_group_name_H-M_alt 'P 1'
_space_group_name_Hall 'P 1'
loop_
    _symmetry_equiv_pos_as_xyz
    x,y,z
loop_
    _atom_site_label
    _atom_site_type_symbol
    _atom_site_fract_x
    _atom_site_fract_y
    _atom_site_fract_z
    _atom_site_occupancy
    Cu1      Cu       0.05247    0.48059    0.61290    1.000
    Cu2      Cu       0.13861    0.31622    0.62394    1.000
    Cu3      Cu       0.74440    0.04798    0.77338    1.000
    Cu4      Cu       0.30310    0.94814    0.62883    1.000
    Cu5      Cu       0.96591    0.77062    0.79261    1.000
    Cu6      Cu       0.21165    0.79529    0.65805    1.000
    Cu7      Cu       0.26234    0.47138    0.64984    1.000
    Cu8      Cu       0.80940    0.25487    0.52040    1.000
    Cu9      Cu       0.55247    0.51941    0.88710    1.000
    Cu10     Cu       0.63861    0.68378    0.87606    1.000
    Cu11     Cu       0.24440    0.95202    0.72662    1.000
    Cu12     Cu       0.80310    0.05186    0.87117    1.000
    Cu13     Cu       0.46591    0.22938    0.70739    1.000
    Cu14     Cu       0.71165    0.20471    0.84195    1.000
    Cu15     Cu       0.76234    0.52862    0.85016    1.000
    Cu16     Cu       0.30940    0.74513    0.97960    1.000
    Cu17     Cu       0.94753    0.51941    0.38710    1.000
    Cu18     Cu       0.86139    0.68378    0.37606    1.000
    Cu19     Cu       0.25560    0.95202    0.22662    1.000
    Cu20     Cu       0.69690    0.05186    0.37117    1.000
    Cu21     Cu       0.03409    0.22938    0.20739    1.000
    Cu22     Cu       0.78835    0.20471    0.34195    1.000
    Cu23     Cu       0.73766    0.52862    0.35016    1.000
    Cu24     Cu       0.19060    0.74513    0.47960    1.000
    Cu25     Cu       0.44753    0.48059    0.11290    1.000
    Cu26     Cu       0.36139    0.31622    0.12394    1.000
    Cu27     Cu       0.75560    0.04798    0.27338    1.000
    Cu28     Cu       0.19690    0.94814    0.12883    1.000
    Cu29     Cu       0.53409    0.77062    0.29261    1.000
    Cu30     Cu       0.28835    0.79529    0.15805    1.000
    Cu31     Cu       0.23766    0.47138    0.14984    1.000
    Cu32     Cu       0.69060    0.25487    0.02040    1.000
    P1       P        0.73730    0.83400    0.57840    1.000
    P2       P        0.66170    0.66490    0.63199    1.000
    P3       P        0.23730    0.16600    0.92160    1.000
    P4       P        0.16170    0.33510    0.86801    1.000
    P5       P        0.26270    0.16600    0.42160    1.000
    P6       P        0.33830    0.33510    0.36801    1.000
    P7       P        0.76270    0.83400    0.07840    1.000
    P8       P        0.83830    0.66490    0.13199    1.000
    H1       H        0.06130    0.66320    0.61970    1.000
    H2       H        0.90570    0.90000    0.85640    1.000
    H3       H        0.87060    0.41080    0.57040    1.000
    H4       H        0.26930    0.21420    0.66720    1.000
    H5       H        0.84810    0.89080    0.74390    1.000
    H6       H        0.57880    0.27640    0.78490    1.000
    H7       H        0.29520    0.64470    0.66730    1.000
    H8       H        0.59430    0.09280    0.71160    1.000
    H9       H        0.81050    0.28650    0.43040    1.000
    H10      H        0.98750    0.22130    0.56900    1.000
    H11      H        0.69740    0.11820    0.46670    1.000
    H12      H        0.42460    0.38310    0.68600    1.000
    H13      H        0.56130    0.33680    0.88030    1.000
    H14      H        0.40570    0.10000    0.64360    1.000
    H15      H        0.37060    0.58920    0.92960    1.000
    H16      H        0.76930    0.78580    0.83280    1.000
    H17      H        0.34810    0.10920    0.75610    1.000
    H18      H        0.07880    0.72360    0.71510    1.000
    H19      H        0.79520    0.35530    0.83270    1.000
    H20      H        0.09430    0.90720    0.78840    1.000
    H21      H        0.31050    0.71350    0.06960    1.000
    H22      H        0.48750    0.77870    0.93100    1.000
    H23      H        0.19740    0.88180    0.03330    1.000
    H24      H        0.92460    0.61690    0.81400    1.000
    H25      H        0.93870    0.33680    0.38030    1.000
    H26      H        0.09430    0.10000    0.14360    1.000
    H27      H        0.12940    0.58920    0.42960    1.000
    H28      H        0.73070    0.78580    0.33280    1.000
    H29      H        0.15190    0.10920    0.25610    1.000
    H30      H        0.42120    0.72360    0.21510    1.000
    H31      H        0.70480    0.35530    0.33270    1.000
    H32      H        0.40570    0.90720    0.28840    1.000
    H33      H        0.18950    0.71350    0.56960    1.000
    H34      H        0.01250    0.77870    0.43100    1.000
    H35      H        0.30260    0.88180    0.53330    1.000
    H36      H        0.57540    0.61690    0.31400    1.000
    H37      H        0.43870    0.66320    0.11970    1.000
    H38      H        0.59430    0.90000    0.35640    1.000
    H39      H        0.62940    0.41080    0.07040    1.000
    H40      H        0.23070    0.21420    0.16720    1.000
    H41      H        0.65190    0.89080    0.24390    1.000
    H42      H        0.92120    0.27640    0.28490    1.000
    H43      H        0.20480    0.64470    0.16730    1.000
    H44      H        0.90570    0.09280    0.21160    1.000
    H45      H        0.68950    0.28650    0.93040    1.000
    H46      H        0.51250    0.22130    0.06900    1.000
    H47      H        0.80260    0.11820    0.96670    1.000
    H48      H        0.07540    0.38310    0.18600    1.000
    W1       W        0.86075    0.89803    0.49960    1.000
    W2       W        0.66606    0.58122    0.72264    1.000
    W3       W        0.84403    0.00597    0.59024    1.000
    W4       W        0.48509    0.55616    0.65974    1.000
    W5       W        0.94147    0.74706    0.55248    1.000
    W6       W        0.68226    0.47296    0.63113    1.000
    W7       W        0.92768    0.85336    0.64219    1.000
    W8       W        0.53478    0.91615    0.61055    1.000
    W9       W        0.74411    0.71679    0.48601    1.000
    W10      W        0.86755    0.58924    0.60376    1.000
    W11      W        0.66250    0.97966    0.52777    1.000
    W12      W        0.71132    0.94094    0.67259    1.000
    W13      W        0.46574    0.75757    0.66219    1.000
    W14      W        0.85531    0.69410    0.69394    1.000
    W15      W        0.54995    0.79870    0.51366    1.000
    W16      W        0.64172    0.78187    0.72460    1.000
    W17      W        0.48128    0.64011    0.56433    1.000
    W18      W        0.67395    0.55802    0.53716    1.000
    W19      W        0.36075    0.10197    0.00040    1.000
    W20      W        0.16606    0.41878    0.77736    1.000
    W21      W        0.34403    0.99403    0.90976    1.000
    W22      W        0.98509    0.44384    0.84026    1.000
    W23      W        0.44147    0.25294    0.94752    1.000
    W24      W        0.18226    0.52704    0.86887    1.000
    W25      W        0.42768    0.14664    0.85781    1.000
    W26      W        0.03478    0.08385    0.88945    1.000
    W27      W        0.24411    0.28321    0.01399    1.000
    W28      W        0.36755    0.41076    0.89624    1.000
    W29      W        0.16250    0.02034    0.97223    1.000
    W30      W        0.21132    0.05906    0.82741    1.000
    W31      W        0.96574    0.24243    0.83781    1.000
    W32      W        0.35531    0.30590    0.80606    1.000
    W33      W        0.04995    0.20130    0.98634    1.000
    W34      W        0.14172    0.21813    0.77540    1.000
    W35      W        0.98128    0.35989    0.93567    1.000
    W36      W        0.17395    0.44198    0.96284    1.000
    W37      W        0.13925    0.10197    0.50040    1.000
    W38      W        0.33394    0.41878    0.27736    1.000
    W39      W        0.15597    0.99403    0.40976    1.000
    W40      W        0.51491    0.44384    0.34026    1.000
    W41      W        0.05853    0.25294    0.44752    1.000
    W42      W        0.31774    0.52704    0.36887    1.000
    W43      W        0.07232    0.14664    0.35781    1.000
    W44      W        0.46522    0.08385    0.38945    1.000
    W45      W        0.25589    0.28321    0.51399    1.000
    W46      W        0.13245    0.41076    0.39624    1.000
    W47      W        0.33750    0.02034    0.47223    1.000
    W48      W        0.28868    0.05906    0.32741    1.000
    W49      W        0.53426    0.24243    0.33781    1.000
    W50      W        0.14469    0.30590    0.30606    1.000
    W51      W        0.45005    0.20130    0.48634    1.000
    W52      W        0.35828    0.21813    0.27540    1.000
    W53      W        0.51872    0.35989    0.43567    1.000
    W54      W        0.32605    0.44198    0.46284    1.000
    W55      W        0.63925    0.89803    0.99960    1.000
    W56      W        0.83394    0.58122    0.22264    1.000
    W57      W        0.65597    0.00597    0.09024    1.000
    W58      W        0.01491    0.55616    0.15974    1.000
    W59      W        0.55853    0.74706    0.05248    1.000
    W60      W        0.81774    0.47296    0.13113    1.000
    W61      W        0.57232    0.85336    0.14219    1.000
    W62      W        0.96522    0.91615    0.11055    1.000
    W63      W        0.75589    0.71679    0.98601    1.000
    W64      W        0.63245    0.58924    0.10376    1.000
    W65      W        0.83750    0.97966    0.02777    1.000
    W66      W        0.78868    0.94094    0.17259    1.000
    W67      W        0.03426    0.75757    0.16219    1.000
    W68      W        0.64469    0.69410    0.19394    1.000
    W69      W        0.95005    0.79870    0.01366    1.000
    W70      W        0.85828    0.78187    0.22460    1.000
    W71      W        0.01872    0.64011    0.06433    1.000
    W72      W        0.82605    0.55802    0.03716    1.000
    C1       C        0.11130    0.64340    0.63080    1.000
    C2       C        0.88300    0.91040    0.83190    1.000
    C3       C        0.91090    0.37440    0.57520    1.000
    C4       C        0.29310    0.26080    0.66720    1.000
    C5       C        0.85010    0.90610    0.77170    1.000
    C6       C        0.59720    0.23020    0.77290    1.000
    C7       C        0.23840    0.63400    0.65660    1.000
    C8       C        0.60460    0.13010    0.73290    1.000
    C9       C        0.78210    0.24180    0.43100    1.000
    C10      C        0.97390    0.27090    0.57410    1.000
    C11      C        0.72110    0.15100    0.45060    1.000
    C12      C        0.37650    0.35280    0.67750    1.000
    C13      C        0.61130    0.35660    0.86920    1.000
    C14      C        0.38300    0.08960    0.66810    1.000
    C15      C        0.41090    0.62560    0.92480    1.000
    C16      C        0.79310    0.73920    0.83280    1.000
    C17      C        0.35010    0.09390    0.72830    1.000
    C18      C        0.09720    0.76980    0.72710    1.000
    C19      C        0.73840    0.36600    0.84340    1.000
    C20      C        0.10460    0.86990    0.76710    1.000
    C21      C        0.28210    0.75820    0.06900    1.000
    C22      C        0.47390    0.72910    0.92590    1.000
    C23      C        0.22110    0.84900    0.04940    1.000
    C24      C        0.87650    0.64720    0.82250    1.000
    C25      C        0.88870    0.35660    0.36920    1.000
    C26      C        0.11700    0.08960    0.16810    1.000
    C27      C        0.08910    0.62560    0.42480    1.000
    C28      C        0.70690    0.73920    0.33280    1.000
    C29      C        0.14990    0.09390    0.22830    1.000
    C30      C        0.40280    0.76980    0.22710    1.000
    C31      C        0.76160    0.36600    0.34340    1.000
    C32      C        0.39540    0.86990    0.26710    1.000
    C33      C        0.21790    0.75820    0.56900    1.000
    C34      C        0.02610    0.72910    0.42590    1.000
    C35      C        0.27890    0.84900    0.54940    1.000
    C36      C        0.62350    0.64720    0.32250    1.000
    C37      C        0.38870    0.64340    0.13080    1.000
    C38      C        0.61700    0.91040    0.33190    1.000
    C39      C        0.58910    0.37440    0.07520    1.000
    C40      C        0.20690    0.26080    0.16720    1.000
    C41      C        0.64990    0.90610    0.27170    1.000
    C42      C        0.90280    0.23020    0.27290    1.000
    C43      C        0.26160    0.63400    0.15660    1.000
    C44      C        0.89540    0.13010    0.23290    1.000
    C45      C        0.71790    0.24180    0.93100    1.000
    C46      C        0.52610    0.27090    0.07410    1.000
    C47      C        0.77890    0.15100    0.95060    1.000
    C48      C        0.12350    0.35280    0.17750    1.000
    N1       N        0.83630    0.97010    0.82780    1.000
    N2       N        0.12270    0.57440    0.63140    1.000
    N3       N        0.66460    0.12670    0.76210    1.000
    N4       N        0.89310    0.86860    0.79810    1.000
    N5       N        0.66060    0.19280    0.78770    1.000
    N6       N        0.20830    0.56780    0.64820    1.000
    N7       N        0.37410    0.28340    0.68140    1.000
    N8       N        0.25270    0.31610    0.65310    1.000
    N9       N        0.02660    0.32050    0.59460    1.000
    N10      N        0.75880    0.21580    0.46590    1.000
    N11      N        0.72140    0.13930    0.41180    1.000
    N12      N        0.76110    0.19850    0.39950    1.000
    N13      N        0.89830    0.30060    0.56140    1.000
    N14      N        0.30400    0.37610    0.66020    1.000
    N15      N        0.18160    0.68470    0.64860    1.000
    N16      N        0.98400    0.38710    0.59500    1.000
    N17      N        0.56050    0.19420    0.73790    1.000
    N18      N        0.81190    0.96580    0.78920    1.000
    N19      N        0.33630    0.02990    0.67220    1.000
    N20      N        0.62270    0.42560    0.86860    1.000
    N21      N        0.16460    0.87330    0.73790    1.000
    N22      N        0.39310    0.13140    0.70190    1.000
    N23      N        0.16060    0.80720    0.71230    1.000
    N24      N        0.70830    0.43220    0.85180    1.000
    N25      N        0.87410    0.71660    0.81860    1.000
    N26      N        0.75270    0.68390    0.84690    1.000
    N27      N        0.52660    0.67950    0.90540    1.000
    N28      N        0.25880    0.78420    0.03410    1.000
    N29      N        0.22140    0.86070    0.08820    1.000
    N30      N        0.26110    0.80150    0.10050    1.000
    N31      N        0.39830    0.69940    0.93860    1.000
    N32      N        0.80400    0.62390    0.83980    1.000
    N33      N        0.68160    0.31530    0.85140    1.000
    N34      N        0.48400    0.61290    0.90500    1.000
    N35      N        0.06050    0.80580    0.76210    1.000
    N36      N        0.31190    0.03420    0.71080    1.000
    N37      N        0.16370    0.02990    0.17220    1.000
    N38      N        0.87730    0.42560    0.36860    1.000
    N39      N        0.33540    0.87330    0.23790    1.000
    N40      N        0.10690    0.13140    0.20190    1.000
    N41      N        0.33940    0.80720    0.21230    1.000
    N42      N        0.79170    0.43220    0.35180    1.000
    N43      N        0.62590    0.71660    0.31860    1.000
    N44      N        0.74730    0.68390    0.34690    1.000
    N45      N        0.97340    0.67950    0.40540    1.000
    N46      N        0.24120    0.78420    0.53410    1.000
    N47      N        0.27860    0.86070    0.58820    1.000
    N48      N        0.23890    0.80150    0.60050    1.000
    N49      N        0.10170    0.69940    0.43860    1.000
    N50      N        0.69600    0.62390    0.33980    1.000
    N51      N        0.81840    0.31530    0.35140    1.000
    N52      N        0.01600    0.61290    0.40500    1.000
    N53      N        0.43950    0.80580    0.26210    1.000
    N54      N        0.18810    0.03420    0.21080    1.000
    N55      N        0.66370    0.97010    0.32780    1.000
    N56      N        0.37730    0.57440    0.13140    1.000
    N57      N        0.83540    0.12670    0.26210    1.000
    N58      N        0.60690    0.86860    0.29810    1.000
    N59      N        0.83940    0.19280    0.28770    1.000
    N60      N        0.29170    0.56780    0.14820    1.000
    N61      N        0.12590    0.28340    0.18140    1.000
    N62      N        0.24730    0.31610    0.15310    1.000
    N63      N        0.47340    0.32050    0.09460    1.000
    N64      N        0.74120    0.21580    0.96590    1.000
    N65      N        0.77860    0.13930    0.91180    1.000
    N66      N        0.73890    0.19850    0.89950    1.000
    N67      N        0.60170    0.30060    0.06140    1.000
    N68      N        0.19600    0.37610    0.16020    1.000
    N69      N        0.31840    0.68470    0.14860    1.000
    N70      N        0.51600    0.38710    0.09500    1.000
    N71      N        0.93950    0.19420    0.23790    1.000
    N72      N        0.68810    0.96580    0.28920    1.000
    O1       O        0.73720    0.09630    0.83190    1.000
    O2       O        0.13990    0.42600    0.64140    1.000
    O3       O        0.91670    0.93630    0.61170    1.000
    O4       O        0.46120    0.65690    0.67530    1.000
    O5       O        0.77970    0.61780    0.71180    1.000
    O6       O        0.69530    0.49180    0.69090    1.000
    O7       O        0.61610    0.73240    0.65630    1.000
    O8       O        0.76610    0.66960    0.63510    1.000
    O9       O        0.45970    0.71490    0.60780    1.000
    O10      O        0.76530    0.90180    0.55840    1.000
    O11      O        0.43210    0.96230    0.61020    1.000
    O12      O        0.54140    0.55570    0.71230    1.000
    O13      O        0.92910    0.70070    0.73360    1.000
    O14      O        0.73070    0.00410    0.71590    1.000
    O15      O        0.49880    0.84730    0.64570    1.000
    O16      O        0.67520    0.86310    0.61330    1.000
    O17      O        0.59610    0.97490    0.57550    1.000
    O18      O        0.69600    0.63610    0.50630    1.000
    O19      O        0.65990    0.86940    0.70000    1.000
    O20      O        0.91370    0.62090    0.65860    1.000
    O21      O        0.90810    0.76690    0.66480    1.000
    O22      O        0.79560    0.51710    0.62700    1.000
    O23      O        0.93110    0.83360    0.52890    1.000
    O24      O        0.59540    0.97160    0.65690    1.000
    O25      O        0.85190    0.70790    0.51740    1.000
    O26      O        0.52020    0.70820    0.53120    1.000
    O27      O        0.76570    0.76000    0.71290    1.000
    O28      O        0.79160    0.57580    0.55970    1.000
    O29      O        0.54630    0.56640    0.53160    1.000
    O30      O        0.99480    0.80380    0.59920    1.000
    O31      O        0.82400    0.80200    0.59440    1.000
    O32      O        0.62800    0.68170    0.73370    1.000
    O33      O        0.76060    0.95970    0.48930    1.000
    O34      O        0.91780    0.67240    0.58530    1.000
    O35      O        0.74880    0.04350    0.55980    1.000
    O36      O        0.51610    0.78920    0.71530    1.000
    O37      O        0.65500    0.49630    0.57950    1.000
    O38      O        0.55420    0.47070    0.64160    1.000
    O39      O        0.62900    0.65170    0.58830    1.000
    O40      O        0.82270    0.89060    0.66910    1.000
    O41      O        0.90200    0.97820    0.53840    1.000
    O42      O        0.68900    0.77950    0.54630    1.000
    O43      O        0.62730    0.74930    0.47330    1.000
    O44      O        0.76380    0.99720    0.63270    1.000
    O45      O        0.51630    0.84640    0.56560    1.000
    O46      O        0.95900    0.53090    0.58720    1.000
    O47      O        0.37980    0.51710    0.66830    1.000
    O48      O        0.47270    0.57460    0.60530    1.000
    O49      O        0.60920    0.89110    0.50680    1.000
    O50      O        0.35450    0.77740    0.67340    1.000
    O51      O        0.63350    0.59580    0.65300    1.000
    O52      O        0.79340    0.81420    0.48110    1.000
    O53      O        0.23720    0.90370    0.66810    1.000
    O54      O        0.63990    0.57400    0.85860    1.000
    O55      O        0.41670    0.06370    0.88830    1.000
    O56      O        0.96120    0.34310    0.82470    1.000
    O57      O        0.27970    0.38220    0.78820    1.000
    O58      O        0.19530    0.50820    0.80910    1.000
    O59      O        0.11610    0.26760    0.84370    1.000
    O60      O        0.26610    0.33040    0.86490    1.000
    O61      O        0.95970    0.28510    0.89220    1.000
    O62      O        0.26530    0.09820    0.94160    1.000
    O63      O        0.93210    0.03770    0.88980    1.000
    O64      O        0.04140    0.44430    0.78770    1.000
    O65      O        0.42910    0.29930    0.76640    1.000
    O66      O        0.23070    0.99590    0.78410    1.000
    O67      O        0.99880    0.15270    0.85430    1.000
    O68      O        0.17520    0.13690    0.88670    1.000
    O69      O        0.09610    0.02510    0.92450    1.000
    O70      O        0.19600    0.36390    0.99370    1.000
    O71      O        0.15990    0.13060    0.80000    1.000
    O72      O        0.41370    0.37910    0.84140    1.000
    O73      O        0.40810    0.23310    0.83520    1.000
    O74      O        0.29560    0.48290    0.87300    1.000
    O75      O        0.43110    0.16640    0.97110    1.000
    O76      O        0.09540    0.02840    0.84310    1.000
    O77      O        0.35190    0.29210    0.98260    1.000
    O78      O        0.02020    0.29180    0.96880    1.000
    O79      O        0.26570    0.24000    0.78710    1.000
    O80      O        0.29160    0.42420    0.94030    1.000
    O81      O        0.04630    0.43360    0.96840    1.000
    O82      O        0.49480    0.19620    0.90080    1.000
    O83      O        0.32400    0.19800    0.90560    1.000
    O84      O        0.12800    0.31830    0.76630    1.000
    O85      O        0.26060    0.04030    0.01070    1.000
    O86      O        0.41780    0.32760    0.91470    1.000
    O87      O        0.24880    0.95650    0.94020    1.000
    O88      O        0.01610    0.21080    0.78470    1.000
    O89      O        0.15500    0.50370    0.92050    1.000
    O90      O        0.05420    0.52930    0.85840    1.000
    O91      O        0.12900    0.34830    0.91170    1.000
    O92      O        0.32270    0.10940    0.83090    1.000
    O93      O        0.40200    0.02180    0.96160    1.000
    O94      O        0.18900    0.22050    0.95370    1.000
    O95      O        0.12730    0.25070    0.02670    1.000
    O96      O        0.26380    0.00280    0.86730    1.000
    O97      O        0.01630    0.15360    0.93440    1.000
    O98      O        0.45900    0.46910    0.91280    1.000
    O99      O        0.87980    0.48290    0.83170    1.000
    O100     O        0.97270    0.42540    0.89470    1.000
    O101     O        0.10920    0.10890    0.99320    1.000
    O102     O        0.85450    0.22260    0.82660    1.000
    O103     O        0.13350    0.40420    0.84700    1.000
    O104     O        0.29340    0.18580    0.01890    1.000
    O105     O        0.26280    0.90370    0.16810    1.000
    O106     O        0.86010    0.57400    0.35860    1.000
    O107     O        0.08330    0.06370    0.38830    1.000
    O108     O        0.53880    0.34310    0.32470    1.000
    O109     O        0.22030    0.38220    0.28820    1.000
    O110     O        0.30470    0.50820    0.30910    1.000
    O111     O        0.38390    0.26760    0.34370    1.000
    O112     O        0.23390    0.33040    0.36490    1.000
    O113     O        0.54030    0.28510    0.39220    1.000
    O114     O        0.23470    0.09820    0.44160    1.000
    O115     O        0.56790    0.03770    0.38980    1.000
    O116     O        0.45860    0.44430    0.28770    1.000
    O117     O        0.07090    0.29930    0.26640    1.000
    O118     O        0.26930    0.99590    0.28410    1.000
    O119     O        0.50120    0.15270    0.35430    1.000
    O120     O        0.32480    0.13690    0.38670    1.000
    O121     O        0.40390    0.02510    0.42450    1.000
    O122     O        0.30400    0.36390    0.49370    1.000
    O123     O        0.34010    0.13060    0.30000    1.000
    O124     O        0.08630    0.37910    0.34140    1.000
    O125     O        0.09190    0.23310    0.33520    1.000
    O126     O        0.20440    0.48290    0.37300    1.000
    O127     O        0.06890    0.16640    0.47110    1.000
    O128     O        0.40460    0.02840    0.34310    1.000
    O129     O        0.14810    0.29210    0.48260    1.000
    O130     O        0.47980    0.29180    0.46880    1.000
    O131     O        0.23430    0.24000    0.28710    1.000
    O132     O        0.20840    0.42420    0.44030    1.000
    O133     O        0.45370    0.43360    0.46840    1.000
    O134     O        0.00520    0.19620    0.40080    1.000
    O135     O        0.17600    0.19800    0.40560    1.000
    O136     O        0.37200    0.31830    0.26630    1.000
    O137     O        0.23940    0.04030    0.51070    1.000
    O138     O        0.08220    0.32760    0.41470    1.000
    O139     O        0.25120    0.95650    0.44020    1.000
    O140     O        0.48390    0.21080    0.28470    1.000
    O141     O        0.34500    0.50370    0.42050    1.000
    O142     O        0.44580    0.52930    0.35840    1.000
    O143     O        0.37100    0.34830    0.41170    1.000
    O144     O        0.17730    0.10940    0.33090    1.000
    O145     O        0.09800    0.02180    0.46160    1.000
    O146     O        0.31100    0.22050    0.45370    1.000
    O147     O        0.37270    0.25070    0.52670    1.000
    O148     O        0.23620    0.00280    0.36730    1.000
    O149     O        0.48370    0.15360    0.43440    1.000
    O150     O        0.04100    0.46910    0.41280    1.000
    O151     O        0.62020    0.48290    0.33170    1.000
    O152     O        0.52730    0.42540    0.39470    1.000
    O153     O        0.39080    0.10890    0.49320    1.000
    O154     O        0.64550    0.22260    0.32660    1.000
    O155     O        0.36650    0.40420    0.34700    1.000
    O156     O        0.20660    0.18580    0.51890    1.000
    O157     O        0.76280    0.09630    0.33190    1.000
    O158     O        0.36010    0.42600    0.14140    1.000
    O159     O        0.58330    0.93630    0.11170    1.000
    O160     O        0.03880    0.65690    0.17530    1.000
    O161     O        0.72030    0.61780    0.21180    1.000
    O162     O        0.80470    0.49180    0.19090    1.000
    O163     O        0.88390    0.73240    0.15630    1.000
    O164     O        0.73390    0.66960    0.13510    1.000
    O165     O        0.04030    0.71490    0.10780    1.000
    O166     O        0.73470    0.90180    0.05840    1.000
    O167     O        0.06790    0.96230    0.11020    1.000
    O168     O        0.95860    0.55570    0.21230    1.000
    O169     O        0.57090    0.70070    0.23360    1.000
    O170     O        0.76930    0.00410    0.21590    1.000
    O171     O        0.00120    0.84730    0.14570    1.000
    O172     O        0.82480    0.86310    0.11330    1.000
    O173     O        0.90390    0.97490    0.07550    1.000
    O174     O        0.80400    0.63610    0.00630    1.000
    O175     O        0.84010    0.86940    0.20000    1.000
    O176     O        0.58630    0.62090    0.15860    1.000
    O177     O        0.59190    0.76690    0.16480    1.000
    O178     O        0.70440    0.51710    0.12700    1.000
    O179     O        0.56890    0.83360    0.02890    1.000
    O180     O        0.90460    0.97160    0.15690    1.000
    O181     O        0.64810    0.70790    0.01740    1.000
    O182     O        0.97980    0.70820    0.03120    1.000
    O183     O        0.73430    0.76000    0.21290    1.000
    O184     O        0.70840    0.57580    0.05970    1.000
    O185     O        0.95370    0.56640    0.03160    1.000
    O186     O        0.50520    0.80380    0.09920    1.000
    O187     O        0.67600    0.80200    0.09440    1.000
    O188     O        0.87200    0.68170    0.23370    1.000
    O189     O        0.73940    0.95970    0.98930    1.000
    O190     O        0.58220    0.67240    0.08530    1.000
    O191     O        0.75120    0.04350    0.05980    1.000
    O192     O        0.98390    0.78920    0.21530    1.000
    O193     O        0.84500    0.49630    0.07950    1.000
    O194     O        0.94580    0.47070    0.14160    1.000
    O195     O        0.87100    0.65170    0.08830    1.000
    O196     O        0.67730    0.89060    0.16910    1.000
    O197     O        0.59800    0.97820    0.03840    1.000
    O198     O        0.81100    0.77950    0.04630    1.000
    O199     O        0.87270    0.74930    0.97330    1.000
    O200     O        0.73620    0.99720    0.13270    1.000
    O201     O        0.98370    0.84640    0.06560    1.000
    O202     O        0.54100    0.53090    0.08720    1.000
    O203     O        0.12020    0.51710    0.16830    1.000
    O204     O        0.02730    0.57460    0.10530    1.000
    O205     O        0.89080    0.89110    0.00680    1.000
    O206     O        0.14550    0.77740    0.17340    1.000
    O207     O        0.86650    0.59580    0.15300    1.000
    O208     O        0.70660    0.81420    0.98110    1.000
