data_functionalizedCrystal
_audit_creation_method	'EQeq! by Chris Wilmer'
_symmetry_space_group_name_H-M	'P1'
_symmetry_Int_Tables_number	1
_symmetry_cell_setting	triclinic
loop_
_symmetry_equiv_pos_as_xyz
  x,y,z
_cell_length_a	9.806
_cell_length_b	10.599
_cell_length_c	10.599
_cell_angle_alpha	120
_cell_angle_beta	90
_cell_angle_gamma	90
loop_
_atom_site_label
_atom_site_type_symbol
_atom_site_fract_x
_atom_site_fract_y
_atom_site_fract_z
_atom_site_charge
Mof_Sr	Sr	0.12349	0.68831	0.23478	1.244
Mof_Sr	Sr	0.45682	0.54647	0.31169	1.452
Mof_Sr	Sr	0.79016	0.76522	0.45353	1.446
Mof_H 	H 	0.52077	0.5278	0.9826	0.052
Mof_H 	H 	0.45037	0.5146	0.7689	0.032
Mof_H 	H 	0.81477	0.666	0.7315	0.001
Mof_H 	H 	0.88577	0.6782	0.9458	0.048
Mof_H 	H 	0.8541	0.4548	0.4722	-0.068
Mof_H 	H 	0.7837	0.2543	0.4854	0.121
Mof_H 	H 	0.1481	0.0655	0.334	0.096
Mof_H 	H 	0.2191	0.2676	0.3218	-0.067
Mof_H 	H 	0.18744	0.0174	0.5452	0.044
Mof_H 	H 	0.11704	0.2311	0.7457	0.013
Mof_H 	H 	0.48144	0.2685	0.9345	0.002
Mof_H 	H 	0.55244	0.0542	0.7324	0.047
Mof_C 	C 	0.753	0.6161	0.1287	0.34
Mof_C 	C 	0.7095	0.6034	0.9856	-0.048
Mof_C 	C 	0.58	0.5553	0.9321	-0.052
Mof_C 	C 	0.5377	0.5476	0.8041	-0.001
Mof_C 	C 	0.6253	0.589	0.7273	-0.12
Mof_C 	C 	0.5752	0.5797	0.5882	0.359
Mof_C 	C 	0.7558	0.638	0.7817	0.011
Mof_C 	C 	0.7985	0.6454	0.9101	-0.05
Mof_C 	C 	0.08633	0.5126	0.3839	0.377
Mof_C 	C 	0.04283	0.3822	0.3966	-0.347
Mof_C 	C 	0.91333	0.3768	0.4447	0.275
Mof_C 	C 	0.87103	0.2565	0.4524	-0.241
Mof_C 	C 	0.95863	0.1383	0.411	0.133
Mof_C 	C 	0.90853	0.0085	0.4203	0.334
Mof_C 	C 	0.08913	0.1437	0.362	-0.301
Mof_C 	C 	0.13183	0.2647	0.3546	0.194
Mof_C 	C 	0.41967	0.8713	0.4874	0.326
Mof_C 	C 	0.37617	0.0144	0.6178	-0.032
Mof_C 	C 	0.24667	0.0679	0.6232	-0.068
Mof_C 	C 	0.20437	0.1959	0.7435	0.019
Mof_C 	C 	0.29197	0.2727	0.8617	-0.143
Mof_C 	C 	0.24187	0.4118	0.9915	0.425
Mof_C 	C 	0.42247	0.2183	0.8563	0.031
Mof_C 	C 	0.46517	0.0899	0.7353	-0.062
Mof_O 	O 	0.871	0.6593	0.1747	-0.479
Mof_O 	O 	0.6664	0.5874	0.1994	-0.529
Mof_O 	O 	0.4524	0.5568	0.5576	-0.424
Mof_O 	O 	0.66192	0.5934	0.5065	-0.51
Mof_O 	O 	0.20433	0.5154	0.3407	-0.513
Mof_O 	O 	0.99973	0.612	0.4126	-0.458
Mof_O 	O 	0.78573	0.0008	0.4432	-0.383
Mof_O 	O 	0.99525	0.9131	0.4066	-0.494
Mof_O 	O 	0.53767	0.8253	0.4846	-0.517
Mof_O 	O 	0.33307	0.8006	0.388	-0.529
Mof_O 	O 	0.11907	0.4424	0.9992	-0.423
Mof_O 	O 	0.32859	0.4935	0.0869	-0.563
_end
