data_functionalizedCrystal
_audit_creation_method	'EQeq! by Chris Wilmer'
_symmetry_space_group_name_H-M	'P1'
_symmetry_Int_Tables_number	1
_symmetry_cell_setting	triclinic
loop_
_symmetry_equiv_pos_as_xyz
  x,y,z
_cell_length_a	9.3789
_cell_length_b	10.9247
_cell_length_c	18.8993
_cell_angle_alpha	104.858
_cell_angle_beta	94.314
_cell_angle_gamma	107.714
loop_
_atom_site_label
_atom_site_type_symbol
_atom_site_fract_x
_atom_site_fract_y
_atom_site_fract_z
_atom_site_charge
Mof_Zn	Zn	0.31589	0.03581	0.13786	1.23
Mof_Zn	Zn	0.04421	0.36595	0.76793	1.164
Mof_O 	O 	0.9727	0.9969	0.10852	-0.37
Mof_O 	O 	0.21	0.1528	0.03254	-0.468
Mof_O 	O 	0.4269	0.138	0.07846	-0.463
Mof_O 	O 	0.1737	0.0806	0.20025	-0.455
Mof_C 	C 	0.5918	0.3018	0.00147	-0.126
Mof_H 	H 	0.6461	0.2785	0.0375	0.081
Mof_C 	C 	0.3498	0.1744	0.03552	0.329
Mof_C 	C 	0.5889	0.4171	0.90894	-0.064
Mof_H 	H 	0.6413	0.4727	0.8813	0.062
Mof_C 	C 	0.031	0.0328	0.17492	0.264
Mof_C 	C 	0.6712	0.3835	0.96123	0.081
Mof_C 	C 	0.7774	0.0081	0.21318	-0.038
Mof_H 	H 	0.7414	0.0125	0.1659	0.058
Mof_C 	C 	0.3537	0.2875	0.93605	-0.022
Mof_H 	H 	0.2459	0.2532	0.9268	0.065
Mof_C 	C 	0.9276	0.0183	0.23127	-0.044
Mof_C 	C 	0.434	0.2546	0.98923	-0.005
Mof_C 	C 	0.8403	0.4394	0.9781	-0.054
Mof_C 	C 	0.68	0.9915	0.26416	-0.04
Mof_C 	C 	0.9815	0.0155	0.30125	-0.024
Mof_H 	H 	0.0854	0.0264	0.3141	0.024
Mof_C 	C 	0.4309	0.3699	0.89683	-0.047
Mof_O 	O 	0.9107	0.15832	0.0181	-0.447
Mof_O 	O 	0.7894	0.15586	0.91077	-0.481
Mof_O 	O 	0.4975	0.0447	0.19886	-0.465
Mof_O 	O 	0.1974	0.3703	0.84208	-0.494
Mof_O 	O 	0.4174	0.9156	0.272	-0.281
Mof_C 	C 	0.9305	0.3647	0.99264	-0.001
Mof_C 	C 	0.9124	0.5744	0.98486	0.073
Mof_H 	H 	0.8537	0.6265	0.974	0.029
Mof_C 	C 	0.8712	0.2142	0.97411	0.382
Mof_O 	O 	0.9265	0.7332	0.32803	-0.445
Mof_C 	C 	0.3405	0.4104	0.84322	0.349
Mof_O 	O 	0.4051	0.4772	0.8047	-0.298
Mof_C 	C 	0.5182	0.9816	0.24468	0.37
Mof_C 	C 	0.7326	0.9852	0.33414	-0.03
Mof_H 	H 	0.6652	0.9731	0.3688	0.067
Mof_C 	C 	0.8836	0.9967	0.35269	0.01
Mof_C 	C 	0.9405	0.9947	0.42801	0.115
Mof_C 	C 	0.0835	0.9198	0.5103	0.047
Mof_H 	H 	0.1418	0.8649	0.5169	0.037
Mof_C 	C 	0.0252	0.9108	0.4384	-0.123
Mof_O 	O 	0.1726	0.7957	0.37184	-0.302
Mof_C 	C 	0.0454	0.8065	0.3752	0.315
Mof_Zn	Zn	0.68411	0.96419	0.86214	1.246
Mof_Zn	Zn	0.95579	0.63405	0.23207	1.175
Mof_O 	O 	0.0273	0.0031	0.89148	-0.502
Mof_O 	O 	0.79	0.8472	0.96746	-0.448
Mof_O 	O 	0.5731	0.862	0.92154	-0.464
Mof_O 	O 	0.8263	0.9194	0.79975	-0.477
Mof_C 	C 	0.4082	0.6982	0.99853	0.121
Mof_H 	H 	0.3539	0.7215	0.9625	0.017
Mof_C 	C 	0.6502	0.8256	0.96448	0.426
Mof_C 	C 	0.4111	0.5829	0.09106	0.053
Mof_H 	H 	0.3587	0.5273	0.1187	0.017
Mof_C 	C 	0.969	0.9672	0.82508	0.463
Mof_C 	C 	0.3288	0.6165	0.03877	-0.111
Mof_C 	C 	0.2226	0.9919	0.78682	0.105
Mof_H 	H 	0.2586	0.9875	0.8341	0.03
Mof_C 	C 	0.6463	0.7125	0.06395	0.093
Mof_H 	H 	0.7541	0.7468	0.0732	0.026
Mof_C 	C 	0.0724	0.9817	0.76873	-0.157
Mof_C 	C 	0.566	0.7454	0.01077	-0.194
Mof_C 	C 	0.1597	0.5606	0.0219	0.12
Mof_C 	C 	0.32	0.0085	0.73584	-0.134
Mof_C 	C 	0.0185	0.9845	0.69875	0.011
Mof_H 	H 	0.9146	0.9736	0.6859	0.061
Mof_C 	C 	0.5691	0.6301	0.10317	-0.137
Mof_O 	O 	0.0893	0.84168	0.9819	-0.411
Mof_O 	O 	0.2106	0.84414	0.08923	-0.473
Mof_O 	O 	0.5025	0.9553	0.80114	-0.412
Mof_O 	O 	0.8026	0.6297	0.15792	-0.494
Mof_O 	O 	0.5826	0.0844	0.728	-0.282
Mof_C 	C 	0.0695	0.6353	0.00736	-0.215
Mof_C 	C 	0.0876	0.4256	0.01514	-0.19
Mof_H 	H 	0.1463	0.3735	0.026	0.094
Mof_C 	C 	0.1288	0.7858	0.02589	0.382
Mof_O 	O 	0.0735	0.2668	0.67197	-0.483
Mof_C 	C 	0.6595	0.5896	0.15678	0.377
Mof_O 	O 	0.5949	0.5228	0.1953	-0.308
Mof_C 	C 	0.4818	0.0184	0.75532	0.333
Mof_C 	C 	0.2674	0.0148	0.66586	0.001
Mof_H 	H 	0.3348	0.0269	0.6312	0.047
Mof_C 	C 	0.1164	0.0033	0.64731	-0.025
Mof_C 	C 	0.0595	0.0053	0.57199	-0.05
Mof_C 	C 	0.9165	0.0802	0.4897	-0.114
Mof_H 	H 	0.8582	0.1351	0.4831	0.079
Mof_C 	C 	0.9748	0.0892	0.5616	-0.005
Mof_O 	O 	0.8274	0.2043	0.62816	-0.304
Mof_C 	C 	0.9546	0.1935	0.6248	0.329
Mof_Zn	Zn	-0	0	-0	1.219
_end
