# CIF file generated by openbabel 3.1.0, see https://openbabel.org
data_I
_chemical_name_common 'image0'
_cell_length_a 5.4134
_cell_length_b 15.259
_cell_length_c 9.0176
_cell_angle_alpha 90
_cell_angle_beta 94.704
_cell_angle_gamma 90
_space_group_name_H-M_alt 'P 1'
_space_group_name_Hall 'P 1'
loop_
    _symmetry_equiv_pos_as_xyz
    x,y,z
loop_
    _atom_site_label
    _atom_site_type_symbol
    _atom_site_fract_x
    _atom_site_fract_y
    _atom_site_fract_z
    _atom_site_occupancy
    Mg1      Mg       0.17920    0.67327    0.49178    1.000
    P1       P        0.14944    0.81834    0.76618    1.000
    O1       O        0.11250    0.78509    0.60650    1.000
    O2       O        0.94840    0.78660    0.86080    1.000
    O3       O        0.40900    0.79556    0.83100    1.000
    O4       O        0.13320    0.92252    0.75680    1.000
    H1       H        0.01590    0.93960    0.80100    1.000
    O5       O        0.23980    0.54410    0.40840    1.000
    O6       O        0.08210    0.40806    0.40140    1.000
    C1       C        0.09320    0.48590    0.44490    1.000
    Mg2      Mg       0.32080    0.17327    0.00822    1.000
    P2       P        0.35056    0.31834    0.73382    1.000
    O7       O        0.38750    0.28509    0.89350    1.000
    O8       O        0.55160    0.28660    0.63920    1.000
    O9       O        0.09100    0.29556    0.66900    1.000
    O10      O        0.36680    0.42252    0.74320    1.000
    H2       H        0.48410    0.43960    0.69900    1.000
    O11      O        0.26020    0.04410    0.09160    1.000
    O12      O        0.41790    0.90806    0.09860    1.000
    C2       C        0.40680    0.98590    0.05510    1.000
    Mg3      Mg       0.82080    0.32673    0.50822    1.000
    P3       P        0.85056    0.18166    0.23382    1.000
    O13      O        0.88750    0.21491    0.39350    1.000
    O14      O        0.05160    0.21340    0.13920    1.000
    O15      O        0.59100    0.20444    0.16900    1.000
    O16      O        0.86680    0.07748    0.24320    1.000
    H3       H        0.98410    0.06040    0.19900    1.000
    O17      O        0.76020    0.45590    0.59160    1.000
    O18      O        0.91790    0.59194    0.59860    1.000
    C3       C        0.90680    0.51410    0.55510    1.000
    Mg4      Mg       0.67920    0.82673    0.99178    1.000
    P4       P        0.64944    0.68166    0.26618    1.000
    O19      O        0.61250    0.71491    0.10650    1.000
    O20      O        0.44840    0.71340    0.36080    1.000
    O21      O        0.90900    0.70444    0.33100    1.000
    O22      O        0.63320    0.57748    0.25680    1.000
    H4       H        0.51590    0.56040    0.30100    1.000
    O23      O        0.73980    0.95590    0.90840    1.000
    O24      O        0.58210    0.09194    0.90140    1.000
    C4       C        0.59320    0.01410    0.94490    1.000
