data_functionalizedCrystal
_audit_creation_method	'EQeq! by Chris Wilmer'
_symmetry_space_group_name_H-M	'P1'
_symmetry_Int_Tables_number	1
_symmetry_cell_setting	triclinic
loop_
_symmetry_equiv_pos_as_xyz
  x,y,z
_cell_length_a	8.444
_cell_length_b	13.506
_cell_length_c	13.58
_cell_angle_alpha	103.83
_cell_angle_beta	90
_cell_angle_gamma	90
loop_
_atom_site_label
_atom_site_type_symbol
_atom_site_fract_x
_atom_site_fract_y
_atom_site_fract_z
_atom_site_charge
Mof_Cu	Cu	0.63729	0.78128	0.15652	0.826
Mof_Cu	Cu	0.13729	0.71872	0.34348	0.826
Mof_Cu	Cu	0.67059	0.64925	0.77041	0.826
Mof_Cu	Cu	0.32941	0.35075	0.22959	0.826
Mof_Cu	Cu	0.17059	0.85075	0.72959	0.826
Mof_Cu	Cu	0.86271	0.28128	0.65652	0.825
Mof_Cu	Cu	0.82941	0.14925	0.27041	0.826
Mof_Cu	Cu	0.36271	0.21872	0.84348	0.825
Mof_C 	C 	0.7049	0.933	0.1714	-0.17
Mof_C 	C 	0.1491	0.7913	0.4869	-0.236
Mof_C 	C 	0.5346	0.2859	0.247	-0.222
Mof_C 	C 	0.5644	0.2192	0.7675	-0.22
Mof_C 	C 	0.819	0.7287	0.2258	-0.198
Mof_C 	C 	0.6491	0.7087	0.0131	-0.236
Mof_C 	C 	0.0346	0.2141	0.253	-0.22
Mof_C 	C 	0.9654	0.7859	0.747	-0.22
Mof_C 	C 	0.6489	0.244	0.2543	-0.189
Mof_C 	C 	0.7559	0.0134	0.2055	-0.248
Mof_C 	C 	0.1489	0.256	0.2457	-0.189
Mof_C 	C 	0.2951	0.067	0.8286	-0.17
Mof_C 	C 	0.681	0.2287	0.7258	-0.199
Mof_C 	C 	0.3509	0.2913	0.9869	-0.236
Mof_C 	C 	0.4356	0.7808	0.2325	-0.22
Mof_C 	C 	0.2441	0.9866	0.7945	-0.248
Mof_C 	C 	0.8511	0.744	0.7543	-0.189
Mof_C 	C 	0.4654	0.7141	0.753	-0.222
Mof_C 	C 	0.8509	0.2087	0.5131	-0.236
Mof_C 	C 	0.6634	0.671	0.9286	-0.169
Mof_C 	C 	0.7951	0.433	0.6714	-0.172
Mof_C 	C 	0.9356	0.7192	0.2675	-0.219
Mof_C 	C 	0.181	0.2713	0.7742	-0.198
Mof_C 	C 	0.7441	0.5134	0.7055	-0.246
Mof_C 	C 	0.8366	0.171	0.4286	-0.17
Mof_C 	C 	0.2049	0.567	0.3286	-0.172
Mof_C 	C 	0.1634	0.829	0.5714	-0.17
Mof_C 	C 	0.319	0.7713	0.2742	-0.199
Mof_C 	C 	0.3511	0.756	0.7457	-0.189
Mof_C 	C 	0.2559	0.4866	0.2945	-0.246
Mof_C 	C 	0.3366	0.329	0.0714	-0.169
Mof_C 	C 	0.0644	0.2808	0.7325	-0.219
_end
