data_functionalizedCrystal
_audit_creation_method	'EQeq! by Chris Wilmer'
_symmetry_space_group_name_H-M	'P1'
_symmetry_Int_Tables_number	1
_symmetry_cell_setting	triclinic
loop_
_symmetry_equiv_pos_as_xyz
  x,y,z
_cell_length_a	14.6116
_cell_length_b	15.5623
_cell_length_c	15.5623
_cell_angle_alpha	112.887
_cell_angle_beta	95.8753
_cell_angle_gamma	95.8753
loop_
_atom_site_label
_atom_site_type_symbol
_atom_site_fract_x
_atom_site_fract_y
_atom_site_fract_z
_atom_site_charge
Mof_Cu	Cu	0.48711	0.92203	0.92203	0.912
Mof_Cu	Cu	8.87143e-18	0	0.5	0.861
Mof_Cu	Cu	0.51289	0.07797	0.07797	0.901
Mof_Cu	Cu	8.87143e-18	0.5	-0	0.86
Mof_H 	H 	0.6891	0.0048	0.7744	0.072
Mof_H 	H 	0.3109	0.9952	0.2256	0.092
Mof_H 	H 	0.2114	0.5154	0.0966	0.033
Mof_H 	H 	0.7307	0.0127	0.2407	0.045
Mof_H 	H 	0.876	0.8041	0.2241	0.088
Mof_H 	H 	0.124	0.1959	0.7759	0.07
Mof_H 	H 	0.7886	0.4846	0.9034	0.037
Mof_H 	H 	0.3109	0.2256	0.9952	0.092
Mof_H 	H 	0.2693	0.9873	0.7593	0.105
Mof_H 	H 	0.2114	0.0966	0.5154	0.033
Mof_H 	H 	0.0558	0.3033	0.8913	-0.031
Mof_H 	H 	0.2693	0.7593	0.9873	0.105
Mof_H 	H 	0.0558	0.8913	0.3033	-0.031
Mof_H 	H 	0.306	0.0424	0.3938	0.036
Mof_H 	H 	0.306	0.3938	0.0424	0.036
Mof_H 	H 	0.876	0.2241	0.8041	0.088
Mof_H 	H 	0.9442	0.6967	0.1087	0.022
Mof_H 	H 	0.9442	0.1087	0.6967	0.022
Mof_H 	H 	0.124	0.7759	0.1959	0.07
Mof_H 	H 	0.7886	0.9034	0.4846	0.037
Mof_H 	H 	0.6891	0.7744	0.0048	0.072
Mof_H 	H 	0.694	0.9576	0.6062	0.04
Mof_H 	H 	0.694	0.6062	0.9576	0.04
Mof_H 	H 	0.7307	0.2407	0.0127	0.045
Mof_C 	C 	0.8934	0.6584	0.0646	0.123
Mof_C 	C 	0.8323	0.8294	0.197	-0.071
Mof_C 	C 	0.1066	0.3416	0.9354	0.118
Mof_C 	C 	0.7881	0.1058	0.7774	0.102
Mof_C 	C 	0.2553	0.7928	0.0472	-0.087
Mof_C 	C 	0.7447	0.9528	0.2072	0.031
Mof_C 	C 	0.2119	0.2226	0.8942	0.111
Mof_C 	C 	0.8323	0.197	0.8294	-0.071
Mof_C 	C 	0.1677	0.803	0.1706	-0.106
Mof_C 	C 	0.8663	0.9787	0.3455	0.366
Mof_C 	C 	0.1872	0.7513	0.0819	-0.02
Mof_C 	C 	0.72	0.8109	0.0657	-0.072
Mof_C 	C 	0.6236	0.937	0.0746	0.346
Mof_C 	C 	0.8663	0.3455	0.9787	0.366
Mof_C 	C 	0.1337	0.6545	0.0213	0.296
Mof_C 	C 	0.8078	0.9531	0.5433	0.031
Mof_C 	C 	0.1922	0.4567	0.0469	-0.011
Mof_C 	C 	0.1066	0.9354	0.3416	0.118
Mof_C 	C 	0.7881	0.7774	0.1058	0.102
Mof_C 	C 	0.8128	0.9181	0.2487	-0.054
Mof_C 	C 	0.1872	0.0819	0.7513	-0.02
Mof_C 	C 	0.1677	0.1706	0.803	-0.106
Mof_C 	C 	0.8934	0.0646	0.6584	0.123
Mof_C 	C 	0.3764	0.9254	0.063	0.325
Mof_C 	C 	0.6975	0.8988	0.116	-0.058
Mof_C 	C 	0.1922	0.0469	0.4567	-0.011
Mof_C 	C 	0.7447	0.2072	0.9528	0.031
Mof_C 	C 	0.72	0.0657	0.8109	-0.072
Mof_C 	C 	0.756	0.9813	0.6095	0.022
Mof_C 	C 	0.6975	0.116	0.8988	-0.058
Mof_C 	C 	0.1337	0.0213	0.6545	0.296
Mof_C 	C 	0.8078	0.5433	0.9531	0.031
Mof_C 	C 	0.8128	0.2487	0.9181	-0.054
Mof_C 	C 	0.3025	0.1012	0.884	-0.017
Mof_C 	C 	0.3764	0.063	0.9254	0.325
Mof_C 	C 	0.3025	0.884	0.1012	-0.017
Mof_C 	C 	0.2553	0.0472	0.7928	-0.087
Mof_C 	C 	0.28	0.1891	0.9343	-0.103
Mof_C 	C 	0.2119	0.8942	0.2226	0.111
Mof_C 	C 	0.6236	0.0746	0.937	0.346
Mof_C 	C 	0.244	0.3905	0.0187	-0.018
Mof_C 	C 	0.756	0.6095	0.9813	0.022
Mof_C 	C 	0.244	0.0187	0.3905	-0.018
Mof_C 	C 	0.28	0.9343	0.1891	-0.103
Mof_N 	N 	0.8951	0.57247	0.00733	-0.205
Mof_N 	N 	0.8128	0.05442	0.68638	-0.147
Mof_N 	N 	0.1872	0.31362	0.94558	-0.137
Mof_N 	N 	0.1872	0.94558	0.31362	-0.137
Mof_N 	N 	0.8128	0.68638	0.05442	-0.147
Mof_N 	N 	0.1049	0.42753	0.99267	-0.213
Mof_N 	N 	0.1049	0.99267	0.42753	-0.213
Mof_N 	N 	0.8951	0.00733	0.57247	-0.205
Mof_O 	O 	0.0846	0.6181	0.0643	-0.421
Mof_O 	O 	0.8595	0.3833	0.0605	-0.288
Mof_O 	O 	0.9154	0.9357	0.3819	-0.361
Mof_O 	O 	0.3935	0.98238	0.87642	-0.376
Mof_O 	O 	0.0846	0.0643	0.6181	-0.421
Mof_O 	O 	0.3935	0.87642	0.98238	-0.376
Mof_O 	O 	0.5846	0.88618	0.99202	-0.378
Mof_O 	O 	0.4154	0.11382	0.00798	-0.418
Mof_O 	O 	0.9154	0.3819	0.9357	-0.361
Mof_O 	O 	0.4154	0.00798	0.11382	-0.418
Mof_O 	O 	0.5846	0.99202	0.88618	-0.378
Mof_O 	O 	0.6065	0.01762	0.12358	-0.411
Mof_O 	O 	0.1405	0.9395	0.6167	-0.275
Mof_O 	O 	0.6065	0.12358	0.01762	-0.411
Mof_O 	O 	0.8595	0.0605	0.3833	-0.288
Mof_O 	O 	0.1405	0.6167	0.9395	-0.275
_end
