data_functionalizedCrystal
_audit_creation_method	'EQeq! by Chris Wilmer'
_symmetry_space_group_name_H-M	'P1'
_symmetry_Int_Tables_number	1
_symmetry_cell_setting	triclinic
loop_
_symmetry_equiv_pos_as_xyz
  x,y,z
_cell_length_a	11.3424
_cell_length_b	15.4516
_cell_length_c	51.319
_cell_angle_alpha	90
_cell_angle_beta	90
_cell_angle_gamma	96.009
loop_
_atom_site_label
_atom_site_type_symbol
_atom_site_fract_x
_atom_site_fract_y
_atom_site_fract_z
_atom_site_charge
Mof_Ag	Ag	0.44718	0.20761	0.85795	0.378
Mof_Ag	Ag	0.27669	0.18281	0.80886	0.532
Mof_Ag	Ag	0.30747	0.99611	0.80448	0.42
Mof_Ag	Ag	0.45895	0.02203	0.8533	0.18
Mof_Ag	Ag	0.30027	0.11155	0.8944	0.38
Mof_Ag	Ag	0.03418	0.10701	0.83787	0.462
Mof_Ag	Ag	0.12004	0.93726	0.84192	0.295
Mof_Ag	Ag	0.36198	0.87571	0.88394	0.266
Mof_Ag	Ag	0.17227	0.06979	0.94128	0.55
Mof_Ag	Ag	0.01151	0.0221	0.89066	0.216
Mof_Ag	Ag	0.02334	0.83479	0.8873	0.485
Mof_Ag	Ag	0.16202	0.86692	0.94199	0.532
Mof_Ag	Ag	0.39969	0.98379	0.93171	0.361
Mof_Ag	Ag	0.80286	0.12774	0.91602	0.655
Mof_Ag	Ag	0.74297	0.00764	0.87138	0.287
Mof_Ag	Ag	0.7613	0.29103	0.87464	0.713
Mof_Ag	Ag	0.76248	0.17255	0.83258	0.486
Mof_Ag	Ag	0.60987	0.89566	0.82888	0.575
Mof_Ag	Ag	0.6868	0.75503	0.87958	0.693
Mof_Ag	Ag	0.67259	0.87709	0.92099	0.508
Mof_Ag	Ag	0.05282	0.79239	0.35795	0.391
Mof_Ag	Ag	0.22331	0.81719	0.30886	0.536
Mof_Ag	Ag	0.19253	0.00389	0.30448	0.422
Mof_Ag	Ag	0.04105	0.97797	0.3533	0.2
Mof_Ag	Ag	0.19973	0.88845	0.3944	0.38
Mof_Ag	Ag	0.46582	0.89299	0.33787	0.48
Mof_Ag	Ag	0.37996	0.06274	0.34192	0.294
Mof_Ag	Ag	0.13802	0.12429	0.38394	0.271
Mof_Ag	Ag	0.32773	0.93021	0.44128	0.552
Mof_Ag	Ag	0.48849	0.9779	0.39066	0.232
Mof_Ag	Ag	0.47666	0.16521	0.3873	0.496
Mof_Ag	Ag	0.33798	0.13308	0.44199	0.532
Mof_Ag	Ag	0.10031	0.01621	0.43171	0.364
Mof_Ag	Ag	0.69714	0.87226	0.41602	0.651
Mof_Ag	Ag	0.75703	0.99236	0.37138	0.28
Mof_Ag	Ag	0.7387	0.70897	0.37464	0.707
Mof_Ag	Ag	0.73752	0.82745	0.33258	0.475
Mof_Ag	Ag	0.89013	0.10434	0.32888	0.568
Mof_Ag	Ag	0.8132	0.24497	0.37958	0.686
Mof_Ag	Ag	0.82741	0.12291	0.42099	0.505
Mof_Ag	Ag	0.55282	0.79239	0.14205	0.379
Mof_Ag	Ag	0.72331	0.81719	0.19114	0.533
Mof_Ag	Ag	0.69253	0.00389	0.19552	0.421
Mof_Ag	Ag	0.54105	0.97797	0.1467	0.181
Mof_Ag	Ag	0.69973	0.88845	0.1056	0.381
Mof_Ag	Ag	0.96582	0.89299	0.16213	0.463
Mof_Ag	Ag	0.87996	0.06274	0.15808	0.295
Mof_Ag	Ag	0.63802	0.12429	0.11606	0.266
Mof_Ag	Ag	0.82773	0.93021	0.05872	0.55
Mof_Ag	Ag	0.98849	0.9779	0.10934	0.216
Mof_Ag	Ag	0.97666	0.16521	0.1127	0.485
Mof_Ag	Ag	0.83798	0.13308	0.05801	0.532
Mof_Ag	Ag	0.60031	0.01621	0.06829	0.361
Mof_Ag	Ag	0.19714	0.87226	0.08398	0.655
Mof_Ag	Ag	0.25703	0.99236	0.12862	0.287
Mof_Ag	Ag	0.2387	0.70897	0.12536	0.713
Mof_Ag	Ag	0.23752	0.82745	0.16742	0.486
Mof_Ag	Ag	0.39013	0.10434	0.17112	0.575
Mof_Ag	Ag	0.3132	0.24497	0.12042	0.693
Mof_Ag	Ag	0.32741	0.12291	0.07901	0.508
Mof_Ag	Ag	0.94718	0.20761	0.64205	0.391
Mof_Ag	Ag	0.77669	0.18281	0.69114	0.536
Mof_Ag	Ag	0.80747	0.99611	0.69552	0.422
Mof_Ag	Ag	0.95895	0.02203	0.6467	0.2
Mof_Ag	Ag	0.80027	0.11155	0.6056	0.38
Mof_Ag	Ag	0.53418	0.10701	0.66213	0.48
Mof_Ag	Ag	0.62004	0.93726	0.65808	0.294
Mof_Ag	Ag	0.86198	0.87571	0.61606	0.271
Mof_Ag	Ag	0.67227	0.06979	0.55872	0.552
Mof_Ag	Ag	0.51151	0.0221	0.60934	0.232
Mof_Ag	Ag	0.52334	0.83479	0.6127	0.496
Mof_Ag	Ag	0.66202	0.86692	0.55801	0.532
Mof_Ag	Ag	0.89969	0.98379	0.56829	0.364
Mof_Ag	Ag	0.30286	0.12774	0.58398	0.651
Mof_Ag	Ag	0.24297	0.00764	0.62862	0.28
Mof_Ag	Ag	0.2613	0.29103	0.62536	0.707
Mof_Ag	Ag	0.26248	0.17255	0.66742	0.475
Mof_Ag	Ag	0.10987	0.89566	0.67112	0.568
Mof_Ag	Ag	0.1868	0.75503	0.62042	0.686
Mof_Ag	Ag	0.17259	0.87709	0.57901	0.505
Mof_H 	H 	0.8767	0.0092	0.7538	0.048
Mof_H 	H 	0.5855	0.8884	0.7282	0.069
Mof_H 	H 	0.5246	0.8591	0.7698	0.052
Mof_H 	H 	0.5845	0.1252	0.7413	0.016
Mof_H 	H 	0.8945	0.2585	0.7398	0.061
Mof_H 	H 	0.9048	0.2528	0.7835	0.095
Mof_H 	H 	0.9246	0.9432	0.0022	0.027
Mof_H 	H 	0.6149	0.8289	0.0211	0.094
Mof_H 	H 	0.5654	0.8153	0.9769	0.052
Mof_H 	H 	0.6315	0.072	0.0073	0.024
Mof_H 	H 	0.942	0.2082	0.0091	0.101
Mof_H 	H 	0.9472	0.2078	0.9652	0.096
Mof_H 	H 	0.3356	0.5487	0.8722	0.263
Mof_H 	H 	0.4112	0.4755	0.8714	0.239
Mof_H 	H 	0.5669	0.4218	0.8746	0.018
Mof_H 	H 	0.908	0.4748	0.879	0.132
Mof_H 	H 	0.886	0.6207	0.8795	0.063
Mof_H 	H 	0.6233	0.9908	0.2538	0.045
Mof_H 	H 	0.9145	0.1116	0.2282	0.066
Mof_H 	H 	0.9754	0.1409	0.2698	0.049
Mof_H 	H 	0.9155	0.8748	0.2413	0.013
Mof_H 	H 	0.6055	0.7415	0.2398	0.058
Mof_H 	H 	0.5952	0.7472	0.2835	0.09
Mof_H 	H 	0.5754	0.0568	0.5022	0.028
Mof_H 	H 	0.8851	0.1711	0.5211	0.094
Mof_H 	H 	0.9346	0.1847	0.4769	0.051
Mof_H 	H 	0.8685	0.928	0.5073	0.024
Mof_H 	H 	0.558	0.7918	0.5091	0.102
Mof_H 	H 	0.5528	0.7922	0.4652	0.095
Mof_H 	H 	0.1644	0.4513	0.3722	0.263
Mof_H 	H 	0.0888	0.5245	0.3714	0.239
Mof_H 	H 	0.9331	0.5782	0.3746	0.016
Mof_H 	H 	0.592	0.5252	0.379	0.13
Mof_H 	H 	0.614	0.3793	0.3795	0.062
Mof_H 	H 	0.1233	0.9908	0.2462	0.048
Mof_H 	H 	0.4145	0.1116	0.2718	0.069
Mof_H 	H 	0.4754	0.1409	0.2302	0.052
Mof_H 	H 	0.4155	0.8748	0.2587	0.016
Mof_H 	H 	0.1055	0.7415	0.2602	0.061
Mof_H 	H 	0.0952	0.7472	0.2165	0.095
Mof_H 	H 	0.0754	0.0568	0.9978	0.027
Mof_H 	H 	0.3851	0.1711	0.9789	0.094
Mof_H 	H 	0.4346	0.1847	0.0231	0.052
Mof_H 	H 	0.3685	0.928	0.9927	0.024
Mof_H 	H 	0.058	0.7918	0.9909	0.101
Mof_H 	H 	0.0528	0.7922	0.0348	0.096
Mof_H 	H 	0.6644	0.4513	0.1278	0.263
Mof_H 	H 	0.5888	0.5245	0.1286	0.239
Mof_H 	H 	0.4331	0.5782	0.1254	0.018
Mof_H 	H 	0.092	0.5252	0.121	0.132
Mof_H 	H 	0.114	0.3793	0.1205	0.063
Mof_H 	H 	0.3767	0.0092	0.7462	0.045
Mof_H 	H 	0.0855	0.8884	0.7718	0.066
Mof_H 	H 	0.0246	0.8591	0.7302	0.049
Mof_H 	H 	0.0845	0.1252	0.7587	0.013
Mof_H 	H 	0.3945	0.2585	0.7602	0.058
Mof_H 	H 	0.4048	0.2528	0.7165	0.09
Mof_H 	H 	0.4246	0.9432	0.4978	0.028
Mof_H 	H 	0.1149	0.8289	0.4789	0.094
Mof_H 	H 	0.0654	0.8153	0.5231	0.051
Mof_H 	H 	0.1315	0.072	0.4927	0.024
Mof_H 	H 	0.442	0.2082	0.4909	0.102
Mof_H 	H 	0.4472	0.2078	0.5348	0.095
Mof_H 	H 	0.8356	0.5487	0.6278	0.263
Mof_H 	H 	0.9112	0.4755	0.6286	0.239
Mof_H 	H 	0.0669	0.4218	0.6254	0.016
Mof_H 	H 	0.408	0.4748	0.621	0.13
Mof_H 	H 	0.386	0.6207	0.6205	0.062
Mof_C 	C 	0.312	0.1028	0.8475	-0.264
Mof_C 	C 	0.225	0.0625	0.8393	-0.295
Mof_C 	C 	0.2371	0.972	0.9103	-0.346
Mof_C 	C 	0.1519	0.9373	0.8996	-0.258
Mof_C 	C 	0.8977	0.1125	0.8754	-0.204
Mof_C 	C 	0.8322	0.169	0.8714	-0.333
Mof_C 	C 	0.6165	0.8787	0.8813	-0.33
Mof_C 	C 	0.5561	0.9247	0.8695	-0.245
Mof_C 	C 	0.1097	0.2429	0.9134	0.315
Mof_C 	C 	0.0552	0.3285	0.9128	0.295
Mof_C 	C 	0.1238	0.3997	0.9286	0.848
Mof_C 	C 	0.0927	0.3096	0.8237	0.316
Mof_C 	C 	0.0594	0.4027	0.8223	0.302
Mof_C 	C 	0.081	0.4414	0.7953	0.845
Mof_C 	C 	0.5115	0.244	0.918	0.314
Mof_C 	C 	0.5761	0.2973	0.93973	0.299
Mof_C 	C 	0.5152	0.3771	0.9472	0.832
Mof_C 	C 	0.9173	0.7283	0.9358	0.323
Mof_C 	C 	0.8418	0.65	0.9474	0.308
Mof_C 	C 	0.8587	0.6306	0.9761	0.85
Mof_C 	C 	0.9285	0.7866	0.8308	0.34
Mof_C 	C 	0.854	0.7142	0.8158	0.316
Mof_C 	C 	0.8789	0.7079	0.7869	0.847
Mof_C 	C 	0.8517	0.9888	0.8048	0.333
Mof_C 	C 	0.7706	0.9572	0.7821	0.007
Mof_C 	C 	0.8041	0.9768	0.7567	0.042
Mof_C 	C 	0.6352	0.9078	0.7419	0.033
Mof_C 	C 	0.5987	0.8894	0.7669	0.045
Mof_C 	C 	0.5602	0.0984	0.7925	0.331
Mof_C 	C 	0.656	0.1471	0.7765	-0.061
Mof_C 	C 	0.6522	0.151	0.7496	0.075
Mof_C 	C 	0.8322	0.2284	0.7489	0.041
Mof_C 	C 	0.8383	0.2256	0.7751	0.017
Mof_C 	C 	0.9066	0.9561	0.9522	0.329
Mof_C 	C 	0.8192	0.9137	0.9718	-0.037
Mof_C 	C 	0.849	0.919	0.9976	0.069
Mof_C 	C 	0.6691	0.8514	0.0086	0.046
Mof_C 	C 	0.6387	0.843	0.9818	0.062
Mof_C 	C 	0.5992	0.0564	0.9567	0.352
Mof_C 	C 	0.7013	0.1012	0.9726	-0.011
Mof_C 	C 	0.6979	0.0997	0.999	0.059
Mof_C 	C 	0.879	0.1789	0.0001	0.025
Mof_C 	C 	0.8817	0.1794	0.9737	0.054
Mof_C 	C 	0.5011	0.5868	0.8749	0.341
Mof_C 	C 	0.6217	0.5501	0.8756	0.01
Mof_C 	C 	0.634	0.4618	0.8754	0.099
Mof_C 	C 	0.8322	0.4925	0.8781	0.072
Mof_C 	C 	0.8189	0.5807	0.8785	0.108
Mof_C 	C 	0.188	0.8972	0.3475	-0.268
Mof_C 	C 	0.275	0.9375	0.3393	-0.295
Mof_C 	C 	0.2629	0.028	0.4103	-0.346
Mof_C 	C 	0.3481	0.0627	0.3996	-0.263
Mof_C 	C 	0.6023	0.8875	0.3754	-0.216
Mof_C 	C 	0.6678	0.831	0.3714	-0.328
Mof_C 	C 	0.8835	0.1213	0.3813	-0.326
Mof_C 	C 	0.9439	0.0753	0.3695	-0.255
Mof_C 	C 	0.3903	0.7571	0.4134	0.314
Mof_C 	C 	0.4448	0.6715	0.4128	0.301
Mof_C 	C 	0.3762	0.6003	0.4286	0.847
Mof_C 	C 	0.4073	0.6904	0.3237	0.313
Mof_C 	C 	0.4406	0.5973	0.3223	0.313
Mof_C 	C 	0.419	0.5586	0.2953	0.843
Mof_C 	C 	0.9885	0.756	0.418	0.305
Mof_C 	C 	0.9239	0.7027	0.43973	0.303
Mof_C 	C 	0.9848	0.6229	0.4472	0.823
Mof_C 	C 	0.5827	0.2717	0.4358	0.319
Mof_C 	C 	0.6582	0.35	0.4474	0.309
Mof_C 	C 	0.6413	0.3694	0.4761	0.849
Mof_C 	C 	0.5715	0.2134	0.3308	0.327
Mof_C 	C 	0.646	0.2858	0.3158	0.319
Mof_C 	C 	0.6211	0.2921	0.2869	0.845
Mof_C 	C 	0.6483	0.0112	0.3048	0.336
Mof_C 	C 	0.7294	0.0428	0.2821	0.004
Mof_C 	C 	0.6959	0.0232	0.2567	0.045
Mof_C 	C 	0.8648	0.0922	0.2419	0.032
Mof_C 	C 	0.9013	0.1106	0.2669	0.043
Mof_C 	C 	0.9398	0.9016	0.2925	0.314
Mof_C 	C 	0.844	0.8529	0.2765	-0.059
Mof_C 	C 	0.8478	0.849	0.2496	0.072
Mof_C 	C 	0.6678	0.7716	0.2489	0.039
Mof_C 	C 	0.6617	0.7744	0.2751	0.017
Mof_C 	C 	0.5934	0.0439	0.4522	0.327
Mof_C 	C 	0.6808	0.0863	0.4718	-0.036
Mof_C 	C 	0.651	0.081	0.4976	0.069
Mof_C 	C 	0.8309	0.1486	0.5086	0.047
Mof_C 	C 	0.8613	0.157	0.4818	0.062
Mof_C 	C 	0.9008	0.9436	0.4567	0.352
Mof_C 	C 	0.7987	0.8988	0.4726	-0.011
Mof_C 	C 	0.8021	0.9003	0.499	0.059
Mof_C 	C 	0.621	0.8211	0.5001	0.025
Mof_C 	C 	0.6183	0.8206	0.4737	0.054
Mof_C 	C 	0.9989	0.4132	0.3749	0.322
Mof_C 	C 	0.8783	0.4499	0.3756	0.013
Mof_C 	C 	0.866	0.5382	0.3754	0.096
Mof_C 	C 	0.6678	0.5075	0.3781	0.072
Mof_C 	C 	0.6811	0.4193	0.3785	0.108
Mof_C 	C 	0.688	0.8972	0.1525	-0.264
Mof_C 	C 	0.775	0.9375	0.1607	-0.295
Mof_C 	C 	0.7629	0.028	0.0897	-0.346
Mof_C 	C 	0.8481	0.0627	0.1004	-0.258
Mof_C 	C 	0.1023	0.8875	0.1246	-0.204
Mof_C 	C 	0.1678	0.831	0.1286	-0.333
Mof_C 	C 	0.3835	0.1213	0.1187	-0.33
Mof_C 	C 	0.4439	0.0753	0.1305	-0.245
Mof_C 	C 	0.8903	0.7571	0.0866	0.315
Mof_C 	C 	0.9448	0.6715	0.0872	0.295
Mof_C 	C 	0.8762	0.6003	0.0714	0.848
Mof_C 	C 	0.9073	0.6904	0.1763	0.316
Mof_C 	C 	0.9406	0.5973	0.1777	0.302
Mof_C 	C 	0.919	0.5586	0.2047	0.845
Mof_C 	C 	0.4885	0.756	0.082	0.314
Mof_C 	C 	0.4239	0.7027	0.06027	0.299
Mof_C 	C 	0.4848	0.6229	0.0528	0.832
Mof_C 	C 	0.0827	0.2717	0.0642	0.323
Mof_C 	C 	0.1582	0.35	0.0526	0.308
Mof_C 	C 	0.1413	0.3694	0.0239	0.85
Mof_C 	C 	0.0715	0.2134	0.1692	0.34
Mof_C 	C 	0.146	0.2858	0.1842	0.316
Mof_C 	C 	0.1211	0.2921	0.2131	0.847
Mof_C 	C 	0.1483	0.0112	0.1952	0.333
Mof_C 	C 	0.2294	0.0428	0.2179	0.007
Mof_C 	C 	0.1959	0.0232	0.2433	0.042
Mof_C 	C 	0.3648	0.0922	0.2581	0.033
Mof_C 	C 	0.4013	0.1106	0.2331	0.045
Mof_C 	C 	0.4398	0.9016	0.2075	0.331
Mof_C 	C 	0.344	0.8529	0.2235	-0.061
Mof_C 	C 	0.3478	0.849	0.2504	0.075
Mof_C 	C 	0.1678	0.7716	0.2511	0.041
Mof_C 	C 	0.1617	0.7744	0.2249	0.017
Mof_C 	C 	0.0934	0.0439	0.0478	0.329
Mof_C 	C 	0.1808	0.0863	0.0282	-0.037
Mof_C 	C 	0.151	0.081	0.0024	0.069
Mof_C 	C 	0.3309	0.1486	0.9914	0.046
Mof_C 	C 	0.3613	0.157	0.0182	0.062
Mof_C 	C 	0.4008	0.9436	0.0433	0.352
Mof_C 	C 	0.2987	0.8988	0.0274	-0.011
Mof_C 	C 	0.3021	0.9003	0.001	0.059
Mof_C 	C 	0.121	0.8211	0.9999	0.025
Mof_C 	C 	0.1183	0.8206	0.0263	0.054
Mof_C 	C 	0.4989	0.4132	0.1251	0.341
Mof_C 	C 	0.3783	0.4499	0.1244	0.01
Mof_C 	C 	0.366	0.5382	0.1246	0.099
Mof_C 	C 	0.1678	0.5075	0.1219	0.072
Mof_C 	C 	0.1811	0.4193	0.1215	0.108
Mof_C 	C 	0.812	0.1028	0.6525	-0.268
Mof_C 	C 	0.725	0.0625	0.6607	-0.295
Mof_C 	C 	0.7371	0.972	0.5897	-0.346
Mof_C 	C 	0.6519	0.9373	0.6004	-0.263
Mof_C 	C 	0.3977	0.1125	0.6246	-0.216
Mof_C 	C 	0.3322	0.169	0.6286	-0.328
Mof_C 	C 	0.1165	0.8787	0.6187	-0.326
Mof_C 	C 	0.0561	0.9247	0.6305	-0.255
Mof_C 	C 	0.6097	0.2429	0.5866	0.314
Mof_C 	C 	0.5552	0.3285	0.5872	0.301
Mof_C 	C 	0.6238	0.3997	0.5714	0.847
Mof_C 	C 	0.5927	0.3096	0.6763	0.313
Mof_C 	C 	0.5594	0.4027	0.6777	0.313
Mof_C 	C 	0.581	0.4414	0.7047	0.843
Mof_C 	C 	0.0115	0.244	0.582	0.305
Mof_C 	C 	0.0761	0.2973	0.56027	0.303
Mof_C 	C 	0.0152	0.3771	0.5528	0.823
Mof_C 	C 	0.4173	0.7283	0.5642	0.319
Mof_C 	C 	0.3418	0.65	0.5526	0.309
Mof_C 	C 	0.3587	0.6306	0.5239	0.849
Mof_C 	C 	0.4285	0.7866	0.6692	0.327
Mof_C 	C 	0.354	0.7142	0.6842	0.319
Mof_C 	C 	0.3789	0.7079	0.7131	0.845
Mof_C 	C 	0.3517	0.9888	0.6952	0.336
Mof_C 	C 	0.2706	0.9572	0.7179	0.004
Mof_C 	C 	0.3041	0.9768	0.7433	0.045
Mof_C 	C 	0.1352	0.9078	0.7581	0.032
Mof_C 	C 	0.0987	0.8894	0.7331	0.043
Mof_C 	C 	0.0602	0.0984	0.7075	0.314
Mof_C 	C 	0.156	0.1471	0.7235	-0.059
Mof_C 	C 	0.1522	0.151	0.7504	0.072
Mof_C 	C 	0.3322	0.2284	0.7511	0.039
Mof_C 	C 	0.3383	0.2256	0.7249	0.017
Mof_C 	C 	0.4066	0.9561	0.5478	0.327
Mof_C 	C 	0.3192	0.9137	0.5282	-0.036
Mof_C 	C 	0.349	0.919	0.5024	0.069
Mof_C 	C 	0.1691	0.8514	0.4914	0.047
Mof_C 	C 	0.1387	0.843	0.5182	0.062
Mof_C 	C 	0.0992	0.0564	0.5433	0.352
Mof_C 	C 	0.2013	0.1012	0.5274	-0.011
Mof_C 	C 	0.1979	0.0997	0.501	0.059
Mof_C 	C 	0.379	0.1789	0.4999	0.025
Mof_C 	C 	0.3817	0.1794	0.5263	0.054
Mof_C 	C 	0.0011	0.5868	0.6251	0.322
Mof_C 	C 	0.1217	0.5501	0.6244	0.013
Mof_C 	C 	0.134	0.4618	0.6246	0.096
Mof_C 	C 	0.3322	0.4925	0.6219	0.072
Mof_C 	C 	0.3189	0.5807	0.6215	0.108
Mof_N 	N 	0.6687	0.9145	0.7873	-0.139
Mof_N 	N 	0.7368	0.9514	0.7364	-0.153
Mof_N 	N 	0.7514	0.1847	0.7892	-0.136
Mof_N 	N 	0.738	0.1888	0.735	-0.166
Mof_N 	N 	0.7153	0.875	0.964	-0.14
Mof_N 	N 	0.7734	0.8906	0.0162	-0.148
Mof_N 	N 	0.7936	0.1407	0.9597	-0.133
Mof_N 	N 	0.7884	0.1374	0.0136	-0.155
Mof_N 	N 	0.7135	0.6092	0.8775	-0.126
Mof_N 	N 	0.7413	0.4335	0.8764	-0.144
Mof_N 	N 	0.4046	0.5303	0.8726	-0.377
Mof_N 	N 	0.8313	0.0855	0.2873	-0.138
Mof_N 	N 	0.7632	0.0486	0.2364	-0.154
Mof_N 	N 	0.7486	0.8153	0.2892	-0.137
Mof_N 	N 	0.762	0.8112	0.235	-0.166
Mof_N 	N 	0.7847	0.125	0.464	-0.14
Mof_N 	N 	0.7266	0.1094	0.5162	-0.148
Mof_N 	N 	0.7064	0.8593	0.4597	-0.133
Mof_N 	N 	0.7116	0.8626	0.5136	-0.155
Mof_N 	N 	0.7865	0.3908	0.3775	-0.126
Mof_N 	N 	0.7587	0.5665	0.3764	-0.143
Mof_N 	N 	0.0954	0.4697	0.3726	-0.37
Mof_N 	N 	0.3313	0.0855	0.2127	-0.139
Mof_N 	N 	0.2632	0.0486	0.2636	-0.153
Mof_N 	N 	0.2486	0.8153	0.2108	-0.136
Mof_N 	N 	0.262	0.8112	0.265	-0.166
Mof_N 	N 	0.2847	0.125	0.036	-0.14
Mof_N 	N 	0.2266	0.1094	0.9838	-0.148
Mof_N 	N 	0.2064	0.8593	0.0403	-0.133
Mof_N 	N 	0.2116	0.8626	0.9864	-0.155
Mof_N 	N 	0.2865	0.3908	0.1225	-0.126
Mof_N 	N 	0.2587	0.5665	0.1236	-0.144
Mof_N 	N 	0.5954	0.4697	0.1274	-0.377
Mof_N 	N 	0.1687	0.9145	0.7127	-0.138
Mof_N 	N 	0.2368	0.9514	0.7636	-0.154
Mof_N 	N 	0.2514	0.1847	0.7108	-0.137
Mof_N 	N 	0.238	0.1888	0.765	-0.166
Mof_N 	N 	0.2153	0.875	0.536	-0.14
Mof_N 	N 	0.2734	0.8906	0.4838	-0.148
Mof_N 	N 	0.2936	0.1407	0.5403	-0.133
Mof_N 	N 	0.2884	0.1374	0.4864	-0.155
Mof_N 	N 	0.2135	0.6092	0.6225	-0.126
Mof_N 	N 	0.2413	0.4335	0.6236	-0.143
Mof_N 	N 	0.9046	0.5303	0.6274	-0.37
Mof_O 	O 	0.1901	0.2352	0.8965	-0.274
Mof_O 	O 	0.0726	0.1897	0.929	-0.327
Mof_O 	O 	0.0129	0.2501	0.8222	-0.324
Mof_O 	O 	0.2032	0.3067	0.8262	-0.268
Mof_O 	O 	0.4241	0.194	0.9257	-0.292
Mof_O 	O 	0.5535	0.2545	0.8958	-0.373
Mof_O 	O 	0.005	0.7613	0.9488	-0.282
Mof_O 	O 	0.8878	0.7488	0.9135	-0.336
Mof_O 	O 	0.8975	0.7836	0.8544	-0.353
Mof_O 	O 	0.014	0.8317	0.8214	-0.301
Mof_O 	O 	0.8245	0.9603	0.8264	-0.39
Mof_O 	O 	0.9406	0.0407	0.7991	-0.336
Mof_O 	O 	0.5843	0.0872	0.81654	-0.431
Mof_O 	O 	0.4696	0.0705	0.78131	-0.362
Mof_O 	O 	0.8717	0.9601	0.92842	-0.415
Mof_O 	O 	0.0066	0.9837	0.96003	-0.374
Mof_O 	O 	0.613	0.0519	0.93235	-0.413
Mof_O 	O 	0.5107	0.026	0.96797	-0.334
Mof_O 	O 	0.4967	0.6642	0.8766	-0.326
Mof_O 	O 	0.3099	0.7648	0.3965	-0.274
Mof_O 	O 	0.4274	0.8103	0.429	-0.325
Mof_O 	O 	0.4871	0.7499	0.3222	-0.317
Mof_O 	O 	0.2968	0.6933	0.3262	-0.267
Mof_O 	O 	0.0759	0.806	0.4257	-0.286
Mof_O 	O 	0.9465	0.7455	0.3958	-0.375
Mof_O 	O 	0.495	0.2387	0.4488	-0.278
Mof_O 	O 	0.6122	0.2512	0.4135	-0.338
Mof_O 	O 	0.6025	0.2164	0.3544	-0.353
Mof_O 	O 	0.486	0.1683	0.3214	-0.288
Mof_O 	O 	0.6755	0.0397	0.3264	-0.392
Mof_O 	O 	0.5594	0.9593	0.2991	-0.345
Mof_O 	O 	0.9157	0.9128	0.31654	-0.432
Mof_O 	O 	0.0304	0.9295	0.28131	-0.347
Mof_O 	O 	0.6283	0.0399	0.42842	-0.417
Mof_O 	O 	0.4934	0.0163	0.46003	-0.373
Mof_O 	O 	0.887	0.9481	0.43235	-0.415
Mof_O 	O 	0.9893	0.974	0.46797	-0.336
Mof_O 	O 	0.0033	0.3358	0.3766	-0.312
Mof_O 	O 	0.8099	0.7648	0.1035	-0.274
Mof_O 	O 	0.9274	0.8103	0.071	-0.327
Mof_O 	O 	0.9871	0.7499	0.1778	-0.324
Mof_O 	O 	0.7968	0.6933	0.1738	-0.268
Mof_O 	O 	0.5759	0.806	0.0743	-0.292
Mof_O 	O 	0.4465	0.7455	0.1042	-0.373
Mof_O 	O 	0.995	0.2387	0.0512	-0.282
Mof_O 	O 	0.1122	0.2512	0.0865	-0.336
Mof_O 	O 	0.1025	0.2164	0.1456	-0.353
Mof_O 	O 	0.986	0.1683	0.1786	-0.301
Mof_O 	O 	0.1755	0.0397	0.1736	-0.39
Mof_O 	O 	0.0594	0.9593	0.2009	-0.336
Mof_O 	O 	0.4157	0.9128	0.18346	-0.431
Mof_O 	O 	0.5304	0.9295	0.21869	-0.362
Mof_O 	O 	0.1283	0.0399	0.07158	-0.415
Mof_O 	O 	0.9934	0.0163	0.03997	-0.374
Mof_O 	O 	0.387	0.9481	0.06765	-0.413
Mof_O 	O 	0.4893	0.974	0.03203	-0.334
Mof_O 	O 	0.5033	0.3358	0.1234	-0.326
Mof_O 	O 	0.6901	0.2352	0.6035	-0.274
Mof_O 	O 	0.5726	0.1897	0.571	-0.325
Mof_O 	O 	0.5129	0.2501	0.6778	-0.317
Mof_O 	O 	0.7032	0.3067	0.6738	-0.267
Mof_O 	O 	0.9241	0.194	0.5743	-0.286
Mof_O 	O 	0.0535	0.2545	0.6042	-0.375
Mof_O 	O 	0.505	0.7613	0.5512	-0.278
Mof_O 	O 	0.3878	0.7488	0.5865	-0.338
Mof_O 	O 	0.3975	0.7836	0.6456	-0.353
Mof_O 	O 	0.514	0.8317	0.6786	-0.288
Mof_O 	O 	0.3245	0.9603	0.6736	-0.392
Mof_O 	O 	0.4406	0.0407	0.7009	-0.345
Mof_O 	O 	0.0843	0.0872	0.68346	-0.432
Mof_O 	O 	0.9696	0.0705	0.71869	-0.347
Mof_O 	O 	0.3717	0.9601	0.57158	-0.417
Mof_O 	O 	0.5066	0.9837	0.53997	-0.373
Mof_O 	O 	0.113	0.0519	0.56765	-0.415
Mof_O 	O 	0.0107	0.026	0.53203	-0.336
Mof_O 	O 	0.9967	0.6642	0.6234	-0.312
Mof_F 	F 	0.0497	0.3587	0.8888	-0.389
Mof_F 	F 	0.9445	0.3201	0.9219	-0.381
Mof_F 	F 	0.0705	0.4713	0.9278	-0.377
Mof_F 	F 	0.132	0.3754	0.953	-0.376
Mof_F 	F 	0.2311	0.415	0.9186	-0.412
Mof_F 	F 	0.946	0.4053	0.8281	-0.376
Mof_F 	F 	0.1233	0.4576	0.8383	-0.348
Mof_F 	F 	0.1921	0.4444	0.7881	-0.429
Mof_F 	F 	0.05	0.5207	0.7931	-0.355
Mof_F 	F 	0.016	0.3921	0.7787	-0.458
Mof_F 	F 	0.686	0.3257	0.93298	-0.369
Mof_F 	F 	0.583	0.2516	0.96161	-0.378
Mof_F 	F 	0.4913	0.4233	0.9265	-0.423
Mof_F 	F 	0.4118	0.3559	0.9584	-0.377
Mof_F 	F 	0.5785	0.4293	0.9634	-0.328
Mof_F 	F 	0.86	0.5741	0.9358	-0.309
Mof_F 	F 	0.7285	0.6623	0.9443	-0.374
Mof_F 	F 	0.7804	0.5642	0.9823	-0.316
Mof_F 	F 	0.8377	0.7051	0.9871	-0.445
Mof_F 	F 	0.9679	0.6102	0.9798	-0.376
Mof_F 	F 	0.87	0.6321	0.8238	-0.335
Mof_F 	F 	0.7397	0.727	0.818	-0.414
Mof_F 	F 	0.8016	0.6455	0.7775	-0.373
Mof_F 	F 	0.8592	0.7899	0.7829	-0.491
Mof_F 	F 	0.9895	0.6889	0.7842	-0.401
Mof_F 	F 	0.4503	0.6413	0.3888	-0.386
Mof_F 	F 	0.5555	0.6799	0.4219	-0.385
Mof_F 	F 	0.4295	0.5287	0.4278	-0.374
Mof_F 	F 	0.368	0.6246	0.453	-0.375
Mof_F 	F 	0.2689	0.585	0.4186	-0.411
Mof_F 	F 	0.554	0.5947	0.3281	-0.385
Mof_F 	F 	0.3767	0.5424	0.3383	-0.347
Mof_F 	F 	0.3079	0.5556	0.2881	-0.426
Mof_F 	F 	0.45	0.4793	0.2931	-0.35
Mof_F 	F 	0.484	0.6079	0.2787	-0.452
Mof_F 	F 	0.814	0.6743	0.43298	-0.37
Mof_F 	F 	0.917	0.7484	0.46161	-0.379
Mof_F 	F 	0.0087	0.5767	0.4265	-0.418
Mof_F 	F 	0.0882	0.6441	0.4584	-0.373
Mof_F 	F 	0.9215	0.5707	0.4634	-0.327
Mof_F 	F 	0.64	0.4259	0.4358	-0.31
Mof_F 	F 	0.7715	0.3377	0.4443	-0.375
Mof_F 	F 	0.7196	0.4358	0.4823	-0.316
Mof_F 	F 	0.6623	0.2949	0.4871	-0.445
Mof_F 	F 	0.5321	0.3898	0.4798	-0.376
Mof_F 	F 	0.63	0.3679	0.3238	-0.337
Mof_F 	F 	0.7603	0.273	0.318	-0.415
Mof_F 	F 	0.6984	0.3545	0.2775	-0.375
Mof_F 	F 	0.6408	0.2101	0.2829	-0.494
Mof_F 	F 	0.5105	0.3111	0.2842	-0.406
Mof_F 	F 	0.9503	0.6413	0.1112	-0.389
Mof_F 	F 	0.0555	0.6799	0.0781	-0.381
Mof_F 	F 	0.9295	0.5287	0.0722	-0.377
Mof_F 	F 	0.868	0.6246	0.047	-0.376
Mof_F 	F 	0.7689	0.585	0.0814	-0.412
Mof_F 	F 	0.054	0.5947	0.1719	-0.376
Mof_F 	F 	0.8767	0.5424	0.1617	-0.348
Mof_F 	F 	0.8079	0.5556	0.2119	-0.429
Mof_F 	F 	0.95	0.4793	0.2069	-0.355
Mof_F 	F 	0.984	0.6079	0.2213	-0.458
Mof_F 	F 	0.314	0.6743	0.06702	-0.369
Mof_F 	F 	0.417	0.7484	0.03839	-0.378
Mof_F 	F 	0.5087	0.5767	0.0735	-0.423
Mof_F 	F 	0.5882	0.6441	0.0416	-0.377
Mof_F 	F 	0.4215	0.5707	0.0366	-0.328
Mof_F 	F 	0.14	0.4259	0.0642	-0.309
Mof_F 	F 	0.2715	0.3377	0.0557	-0.374
Mof_F 	F 	0.2196	0.4358	0.0177	-0.316
Mof_F 	F 	0.1623	0.2949	0.0129	-0.445
Mof_F 	F 	0.0321	0.3898	0.0202	-0.376
Mof_F 	F 	0.13	0.3679	0.1762	-0.335
Mof_F 	F 	0.2603	0.273	0.182	-0.414
Mof_F 	F 	0.1984	0.3545	0.2225	-0.373
Mof_F 	F 	0.1408	0.2101	0.2171	-0.491
Mof_F 	F 	0.0105	0.3111	0.2158	-0.401
Mof_F 	F 	0.5497	0.3587	0.6112	-0.386
Mof_F 	F 	0.4445	0.3201	0.5781	-0.385
Mof_F 	F 	0.5705	0.4713	0.5722	-0.374
Mof_F 	F 	0.632	0.3754	0.547	-0.375
Mof_F 	F 	0.7311	0.415	0.5814	-0.411
Mof_F 	F 	0.446	0.4053	0.6719	-0.385
Mof_F 	F 	0.6233	0.4576	0.6617	-0.347
Mof_F 	F 	0.6921	0.4444	0.7119	-0.426
Mof_F 	F 	0.55	0.5207	0.7069	-0.35
Mof_F 	F 	0.516	0.3921	0.7213	-0.452
Mof_F 	F 	0.186	0.3257	0.56702	-0.37
Mof_F 	F 	0.083	0.2516	0.53839	-0.379
Mof_F 	F 	0.9913	0.4233	0.5735	-0.418
Mof_F 	F 	0.9118	0.3559	0.5416	-0.373
Mof_F 	F 	0.0785	0.4293	0.5366	-0.327
Mof_F 	F 	0.36	0.5741	0.5642	-0.31
Mof_F 	F 	0.2285	0.6623	0.5557	-0.375
Mof_F 	F 	0.2804	0.5642	0.5177	-0.316
Mof_F 	F 	0.3377	0.7051	0.5129	-0.445
Mof_F 	F 	0.4679	0.6102	0.5202	-0.376
Mof_F 	F 	0.37	0.6321	0.6762	-0.337
Mof_F 	F 	0.2397	0.727	0.682	-0.415
Mof_F 	F 	0.3016	0.6455	0.7225	-0.375
Mof_F 	F 	0.3592	0.7899	0.7171	-0.494
Mof_F 	F 	0.4895	0.6889	0.7158	-0.406
_end
