# CIF file generated by openbabel 3.1.0, see https://openbabel.org
data_I
_chemical_name_common 'image0'
_cell_length_a 26.093
_cell_length_b 21.58
_cell_length_c 17.238
_cell_angle_alpha 90
_cell_angle_beta 92.593
_cell_angle_gamma 90
_space_group_name_H-M_alt 'P 1'
_space_group_name_Hall 'P 1'
loop_
    _symmetry_equiv_pos_as_xyz
    x,y,z
loop_
    _atom_site_label
    _atom_site_type_symbol
    _atom_site_fract_x
    _atom_site_fract_y
    _atom_site_fract_z
    _atom_site_occupancy
    Zn1      Zn       0.13350    0.42747    0.30779    1.000
    O1       O        0.13410    0.55120    0.41910    1.000
    O2       O        0.06550    0.38710    0.29440    1.000
    O3       O        0.03460    0.43050    0.18450    1.000
    O4       O        0.68460    0.13290    0.30250    1.000
    O5       O        0.70630    0.09150    0.18750    1.000
    O6       O        0.21820    0.44980    0.79190    1.000
    O7       O        0.91320    0.26690    0.38540    1.000
    C1       C        0.02980    0.39350    0.24230    1.000
    C2       C        0.98530    0.35330    0.24110    1.000
    C3       C        0.97320    0.32240    0.30870    1.000
    H1       H        0.99590    0.32440    0.35330    1.000
    C4       C        0.92800    0.28860    0.31100    1.000
    C5       C        0.89480    0.28560    0.24570    1.000
    C6       C        0.90690    0.31650    0.17810    1.000
    H2       H        0.88420    0.31450    0.13350    1.000
    C7       C        0.95210    0.35030    0.17580    1.000
    H3       H        0.96030    0.37140    0.12970    1.000
    C8       C        0.84820    0.24440    0.24270    1.000
    C9       C        0.81390    0.25310    0.30100    1.000
    H4       H        0.82050    0.28360    0.33990    1.000
    C10      C        0.76970    0.21710    0.30250    1.000
    H5       H        0.74630    0.22300    0.34240    1.000
    C11      C        0.76000    0.17240    0.24560    1.000
    C12      C        0.79430    0.16380    0.18720    1.000
    H6       H        0.78770    0.13320    0.14840    1.000
    C13      C        0.83850    0.19980    0.18580    1.000
    H7       H        0.86190    0.19380    0.14590    1.000
    C14      C        0.71520    0.13180    0.24180    1.000
    C15      C        0.17690    0.48020    0.91360    1.000
    H8       H        0.20620    0.47130    0.94630    1.000
    C16      C        0.18020    0.47240    0.83130    1.000
    C17      C        0.09820    0.51970    0.82460    1.000
    H9       H        0.06990    0.53450    0.79320    1.000
    C18      C        0.09430    0.52050    0.90080    1.000
    H10      H        0.06390    0.53570    0.92260    1.000
    C19      C        0.13870    0.55230    0.65880    1.000
    H11      H        0.13890    0.59040    0.68640    1.000
    C20      C        0.13880    0.55490    0.57790    1.000
    H12      H        0.14070    0.59360    0.55170    1.000
    C21      C        0.25720    0.41080    0.83610    1.000
    H13      H        0.24070    0.37330    0.85660    1.000
    H14      H        0.27270    0.43460    0.88030    1.000
    Zn2      Zn       0.63350    0.92747    0.30779    1.000
    O8       O        0.63410    0.05120    0.41910    1.000
    O9       O        0.56550    0.88710    0.29440    1.000
    O10      O        0.53460    0.93050    0.18450    1.000
    O11      O        0.18460    0.63290    0.30250    1.000
    O12      O        0.20630    0.59150    0.18750    1.000
    O13      O        0.71820    0.94980    0.79190    1.000
    O14      O        0.41320    0.76690    0.38540    1.000
    C22      C        0.52980    0.89350    0.24230    1.000
    C23      C        0.48530    0.85330    0.24110    1.000
    C24      C        0.47320    0.82240    0.30870    1.000
    H15      H        0.49590    0.82440    0.35330    1.000
    C25      C        0.42800    0.78860    0.31100    1.000
    C26      C        0.39480    0.78560    0.24570    1.000
    C27      C        0.40690    0.81650    0.17810    1.000
    H16      H        0.38420    0.81450    0.13350    1.000
    C28      C        0.45210    0.85030    0.17580    1.000
    H17      H        0.46030    0.87140    0.12970    1.000
    C29      C        0.34820    0.74440    0.24270    1.000
    C30      C        0.31390    0.75310    0.30100    1.000
    H18      H        0.32050    0.78360    0.33990    1.000
    C31      C        0.26970    0.71710    0.30250    1.000
    H19      H        0.24630    0.72300    0.34240    1.000
    C32      C        0.26000    0.67240    0.24560    1.000
    C33      C        0.29430    0.66380    0.18720    1.000
    H20      H        0.28770    0.63320    0.14840    1.000
    C34      C        0.33850    0.69980    0.18580    1.000
    H21      H        0.36190    0.69380    0.14590    1.000
    C35      C        0.21520    0.63180    0.24180    1.000
    C36      C        0.67690    0.98020    0.91360    1.000
    H22      H        0.70620    0.97130    0.94630    1.000
    C37      C        0.68020    0.97240    0.83130    1.000
    C38      C        0.59820    0.01970    0.82460    1.000
    H23      H        0.56990    0.03450    0.79320    1.000
    C39      C        0.59430    0.02050    0.90080    1.000
    H24      H        0.56390    0.03570    0.92260    1.000
    C40      C        0.63870    0.05230    0.65880    1.000
    H25      H        0.63890    0.09040    0.68640    1.000
    C41      C        0.63880    0.05490    0.57790    1.000
    H26      H        0.64070    0.09360    0.55170    1.000
    C42      C        0.75720    0.91080    0.83610    1.000
    H27      H        0.74070    0.87330    0.85660    1.000
    H28      H        0.77270    0.93460    0.88030    1.000
    Zn3      Zn       0.13350    0.57253    0.30779    1.000
    O15      O        0.13410    0.44880    0.41910    1.000
    O16      O        0.06550    0.61290    0.29440    1.000
    O17      O        0.03460    0.56950    0.18450    1.000
    O18      O        0.68460    0.86710    0.30250    1.000
    O19      O        0.70630    0.90850    0.18750    1.000
    O20      O        0.21820    0.55020    0.79190    1.000
    O21      O        0.91320    0.73310    0.38540    1.000
    C43      C        0.02980    0.60650    0.24230    1.000
    C44      C        0.98530    0.64670    0.24110    1.000
    C45      C        0.97320    0.67760    0.30870    1.000
    H29      H        0.99590    0.67560    0.35330    1.000
    C46      C        0.92800    0.71140    0.31100    1.000
    C47      C        0.89480    0.71440    0.24570    1.000
    C48      C        0.90690    0.68350    0.17810    1.000
    H30      H        0.88420    0.68550    0.13350    1.000
    C49      C        0.95210    0.64970    0.17580    1.000
    H31      H        0.96030    0.62860    0.12970    1.000
    C50      C        0.84820    0.75560    0.24270    1.000
    C51      C        0.81390    0.74690    0.30100    1.000
    H32      H        0.82050    0.71640    0.33990    1.000
    C52      C        0.76970    0.78290    0.30250    1.000
    H33      H        0.74630    0.77700    0.34240    1.000
    C53      C        0.76000    0.82760    0.24560    1.000
    C54      C        0.79430    0.83620    0.18720    1.000
    H34      H        0.78770    0.86680    0.14840    1.000
    C55      C        0.83850    0.80020    0.18580    1.000
    H35      H        0.86190    0.80620    0.14590    1.000
    C56      C        0.71520    0.86820    0.24180    1.000
    C57      C        0.17690    0.51980    0.91360    1.000
    H36      H        0.20620    0.52870    0.94630    1.000
    C58      C        0.18020    0.52760    0.83130    1.000
    C59      C        0.09820    0.48030    0.82460    1.000
    H37      H        0.06990    0.46550    0.79320    1.000
    C60      C        0.09430    0.47950    0.90080    1.000
    H38      H        0.06390    0.46430    0.92260    1.000
    C61      C        0.13870    0.44770    0.65880    1.000
    H39      H        0.13890    0.40960    0.68640    1.000
    C62      C        0.13880    0.44510    0.57790    1.000
    H40      H        0.14070    0.40640    0.55170    1.000
    C63      C        0.25720    0.58920    0.83610    1.000
    H41      H        0.24070    0.62670    0.85660    1.000
    H42      H        0.27270    0.56540    0.88030    1.000
    Zn4      Zn       0.63350    0.07253    0.30779    1.000
    O22      O        0.63410    0.94880    0.41910    1.000
    O23      O        0.56550    0.11290    0.29440    1.000
    O24      O        0.53460    0.06950    0.18450    1.000
    O25      O        0.18460    0.36710    0.30250    1.000
    O26      O        0.20630    0.40850    0.18750    1.000
    O27      O        0.71820    0.05020    0.79190    1.000
    O28      O        0.41320    0.23310    0.38540    1.000
    C64      C        0.52980    0.10650    0.24230    1.000
    C65      C        0.48530    0.14670    0.24110    1.000
    C66      C        0.47320    0.17760    0.30870    1.000
    H43      H        0.49590    0.17560    0.35330    1.000
    C67      C        0.42800    0.21140    0.31100    1.000
    C68      C        0.39480    0.21440    0.24570    1.000
    C69      C        0.40690    0.18350    0.17810    1.000
    H44      H        0.38420    0.18550    0.13350    1.000
    C70      C        0.45210    0.14970    0.17580    1.000
    H45      H        0.46030    0.12860    0.12970    1.000
    C71      C        0.34820    0.25560    0.24270    1.000
    C72      C        0.31390    0.24690    0.30100    1.000
    H46      H        0.32050    0.21640    0.33990    1.000
    C73      C        0.26970    0.28290    0.30250    1.000
    H47      H        0.24630    0.27700    0.34240    1.000
    C74      C        0.26000    0.32760    0.24560    1.000
    C75      C        0.29430    0.33620    0.18720    1.000
    H48      H        0.28770    0.36680    0.14840    1.000
    C76      C        0.33850    0.30020    0.18580    1.000
    H49      H        0.36190    0.30620    0.14590    1.000
    C77      C        0.21520    0.36820    0.24180    1.000
    C78      C        0.67690    0.01980    0.91360    1.000
    H50      H        0.70620    0.02870    0.94630    1.000
    C79      C        0.68020    0.02760    0.83130    1.000
    C80      C        0.59820    0.98030    0.82460    1.000
    H51      H        0.56990    0.96550    0.79320    1.000
    C81      C        0.59430    0.97950    0.90080    1.000
    H52      H        0.56390    0.96430    0.92260    1.000
    C82      C        0.63870    0.94770    0.65880    1.000
    H53      H        0.63890    0.90960    0.68640    1.000
    C83      C        0.63880    0.94510    0.57790    1.000
    H54      H        0.64070    0.90640    0.55170    1.000
    C84      C        0.75720    0.08920    0.83610    1.000
    H55      H        0.74070    0.12670    0.85660    1.000
    H56      H        0.77270    0.06540    0.88030    1.000
    Zn5      Zn       0.07838    0.50000    0.17032    1.000
    Zn6      Zn       0.20014    0.50000    0.18464    1.000
    O29      O        0.13640    0.50000    0.24300    1.000
    O30      O        0.08880    0.50000    0.06190    1.000
    O31      O        0.17160    0.50000    0.07150    1.000
    C85      C        0.13110    0.50000    0.03510    1.000
    C86      C        0.13270    0.50000    0.94680    1.000
    C87      C        0.13850    0.50000    0.78960    1.000
    C88      C        0.13850    0.50000    0.70010    1.000
    C89      C        0.13610    0.50000    0.53690    1.000
    C90      C        0.13410    0.50000    0.45160    1.000
    Zn7      Zn       0.57838    0.00000    0.17032    1.000
    Zn8      Zn       0.70014    0.00000    0.18464    1.000
    O32      O        0.63640    0.00000    0.24300    1.000
    O33      O        0.58880    0.00000    0.06190    1.000
    O34      O        0.67160    0.00000    0.07150    1.000
    C91      C        0.63110    0.00000    0.03510    1.000
    C92      C        0.63270    0.00000    0.94680    1.000
    C93      C        0.63850    0.00000    0.78960    1.000
    C94      C        0.63850    0.00000    0.70010    1.000
    C95      C        0.63610    0.00000    0.53690    1.000
    C96      C        0.63410    0.00000    0.45160    1.000
    Zn9      Zn       0.86650    0.42747    0.69221    1.000
    O35      O        0.86590    0.55120    0.58090    1.000
    O36      O        0.93450    0.38710    0.70560    1.000
    O37      O        0.96540    0.43050    0.81550    1.000
    O38      O        0.31540    0.13290    0.69750    1.000
    O39      O        0.29370    0.09150    0.81250    1.000
    O40      O        0.78180    0.44980    0.20810    1.000
    O41      O        0.08680    0.26690    0.61460    1.000
    C97      C        0.97020    0.39350    0.75770    1.000
    C98      C        0.01470    0.35330    0.75890    1.000
    C99      C        0.02680    0.32240    0.69130    1.000
    H57      H        0.00410    0.32440    0.64670    1.000
    C100     C        0.07200    0.28860    0.68900    1.000
    C101     C        0.10520    0.28560    0.75430    1.000
    C102     C        0.09310    0.31650    0.82190    1.000
    H58      H        0.11580    0.31450    0.86650    1.000
    C103     C        0.04790    0.35030    0.82420    1.000
    H59      H        0.03970    0.37140    0.87030    1.000
    C104     C        0.15180    0.24440    0.75730    1.000
    C105     C        0.18610    0.25310    0.69900    1.000
    H60      H        0.17950    0.28360    0.66010    1.000
    C106     C        0.23030    0.21710    0.69750    1.000
    H61      H        0.25370    0.22300    0.65760    1.000
    C107     C        0.24000    0.17240    0.75440    1.000
    C108     C        0.20570    0.16380    0.81280    1.000
    H62      H        0.21230    0.13320    0.85160    1.000
    C109     C        0.16150    0.19980    0.81420    1.000
    H63      H        0.13810    0.19380    0.85410    1.000
    C110     C        0.28480    0.13180    0.75820    1.000
    C111     C        0.82310    0.48020    0.08640    1.000
    H64      H        0.79380    0.47130    0.05370    1.000
    C112     C        0.81980    0.47240    0.16870    1.000
    C113     C        0.90180    0.51970    0.17540    1.000
    H65      H        0.93010    0.53450    0.20680    1.000
    C114     C        0.90570    0.52050    0.09920    1.000
    H66      H        0.93610    0.53570    0.07740    1.000
    C115     C        0.86130    0.55230    0.34120    1.000
    H67      H        0.86110    0.59040    0.31360    1.000
    C116     C        0.86120    0.55490    0.42210    1.000
    H68      H        0.85930    0.59360    0.44830    1.000
    C117     C        0.74280    0.41080    0.16390    1.000
    H69      H        0.75930    0.37330    0.14340    1.000
    H70      H        0.72730    0.43460    0.11970    1.000
    Zn10     Zn       0.36650    0.92747    0.69221    1.000
    O42      O        0.36590    0.05120    0.58090    1.000
    O43      O        0.43450    0.88710    0.70560    1.000
    O44      O        0.46540    0.93050    0.81550    1.000
    O45      O        0.81540    0.63290    0.69750    1.000
    O46      O        0.79370    0.59150    0.81250    1.000
    O47      O        0.28180    0.94980    0.20810    1.000
    O48      O        0.58680    0.76690    0.61460    1.000
    C118     C        0.47020    0.89350    0.75770    1.000
    C119     C        0.51470    0.85330    0.75890    1.000
    C120     C        0.52680    0.82240    0.69130    1.000
    H71      H        0.50410    0.82440    0.64670    1.000
    C121     C        0.57200    0.78860    0.68900    1.000
    C122     C        0.60520    0.78560    0.75430    1.000
    C123     C        0.59310    0.81650    0.82190    1.000
    H72      H        0.61580    0.81450    0.86650    1.000
    C124     C        0.54790    0.85030    0.82420    1.000
    H73      H        0.53970    0.87140    0.87030    1.000
    C125     C        0.65180    0.74440    0.75730    1.000
    C126     C        0.68610    0.75310    0.69900    1.000
    H74      H        0.67950    0.78360    0.66010    1.000
    C127     C        0.73030    0.71710    0.69750    1.000
    H75      H        0.75370    0.72300    0.65760    1.000
    C128     C        0.74000    0.67240    0.75440    1.000
    C129     C        0.70570    0.66380    0.81280    1.000
    H76      H        0.71230    0.63320    0.85160    1.000
    C130     C        0.66150    0.69980    0.81420    1.000
    H77      H        0.63810    0.69380    0.85410    1.000
    C131     C        0.78480    0.63180    0.75820    1.000
    C132     C        0.32310    0.98020    0.08640    1.000
    H78      H        0.29380    0.97130    0.05370    1.000
    C133     C        0.31980    0.97240    0.16870    1.000
    C134     C        0.40180    0.01970    0.17540    1.000
    H79      H        0.43010    0.03450    0.20680    1.000
    C135     C        0.40570    0.02050    0.09920    1.000
    H80      H        0.43610    0.03570    0.07740    1.000
    C136     C        0.36130    0.05230    0.34120    1.000
    H81      H        0.36110    0.09040    0.31360    1.000
    C137     C        0.36120    0.05490    0.42210    1.000
    H82      H        0.35930    0.09360    0.44830    1.000
    C138     C        0.24280    0.91080    0.16390    1.000
    H83      H        0.25930    0.87330    0.14340    1.000
    H84      H        0.22730    0.93460    0.11970    1.000
    Zn11     Zn       0.86650    0.57253    0.69221    1.000
    O49      O        0.86590    0.44880    0.58090    1.000
    O50      O        0.93450    0.61290    0.70560    1.000
    O51      O        0.96540    0.56950    0.81550    1.000
    O52      O        0.31540    0.86710    0.69750    1.000
    O53      O        0.29370    0.90850    0.81250    1.000
    O54      O        0.78180    0.55020    0.20810    1.000
    O55      O        0.08680    0.73310    0.61460    1.000
    C139     C        0.97020    0.60650    0.75770    1.000
    C140     C        0.01470    0.64670    0.75890    1.000
    C141     C        0.02680    0.67760    0.69130    1.000
    H85      H        0.00410    0.67560    0.64670    1.000
    C142     C        0.07200    0.71140    0.68900    1.000
    C143     C        0.10520    0.71440    0.75430    1.000
    C144     C        0.09310    0.68350    0.82190    1.000
    H86      H        0.11580    0.68550    0.86650    1.000
    C145     C        0.04790    0.64970    0.82420    1.000
    H87      H        0.03970    0.62860    0.87030    1.000
    C146     C        0.15180    0.75560    0.75730    1.000
    C147     C        0.18610    0.74690    0.69900    1.000
    H88      H        0.17950    0.71640    0.66010    1.000
    C148     C        0.23030    0.78290    0.69750    1.000
    H89      H        0.25370    0.77700    0.65760    1.000
    C149     C        0.24000    0.82760    0.75440    1.000
    C150     C        0.20570    0.83620    0.81280    1.000
    H90      H        0.21230    0.86680    0.85160    1.000
    C151     C        0.16150    0.80020    0.81420    1.000
    H91      H        0.13810    0.80620    0.85410    1.000
    C152     C        0.28480    0.86820    0.75820    1.000
    C153     C        0.82310    0.51980    0.08640    1.000
    H92      H        0.79380    0.52870    0.05370    1.000
    C154     C        0.81980    0.52760    0.16870    1.000
    C155     C        0.90180    0.48030    0.17540    1.000
    H93      H        0.93010    0.46550    0.20680    1.000
    C156     C        0.90570    0.47950    0.09920    1.000
    H94      H        0.93610    0.46430    0.07740    1.000
    C157     C        0.86130    0.44770    0.34120    1.000
    H95      H        0.86110    0.40960    0.31360    1.000
    C158     C        0.86120    0.44510    0.42210    1.000
    H96      H        0.85930    0.40640    0.44830    1.000
    C159     C        0.74280    0.58920    0.16390    1.000
    H97      H        0.75930    0.62670    0.14340    1.000
    H98      H        0.72730    0.56540    0.11970    1.000
    Zn12     Zn       0.36650    0.07253    0.69221    1.000
    O56      O        0.36590    0.94880    0.58090    1.000
    O57      O        0.43450    0.11290    0.70560    1.000
    O58      O        0.46540    0.06950    0.81550    1.000
    O59      O        0.81540    0.36710    0.69750    1.000
    O60      O        0.79370    0.40850    0.81250    1.000
    O61      O        0.28180    0.05020    0.20810    1.000
    O62      O        0.58680    0.23310    0.61460    1.000
    C160     C        0.47020    0.10650    0.75770    1.000
    C161     C        0.51470    0.14670    0.75890    1.000
    C162     C        0.52680    0.17760    0.69130    1.000
    H99      H        0.50410    0.17560    0.64670    1.000
    C163     C        0.57200    0.21140    0.68900    1.000
    C164     C        0.60520    0.21440    0.75430    1.000
    C165     C        0.59310    0.18350    0.82190    1.000
    H100     H        0.61580    0.18550    0.86650    1.000
    C166     C        0.54790    0.14970    0.82420    1.000
    H101     H        0.53970    0.12860    0.87030    1.000
    C167     C        0.65180    0.25560    0.75730    1.000
    C168     C        0.68610    0.24690    0.69900    1.000
    H102     H        0.67950    0.21640    0.66010    1.000
    C169     C        0.73030    0.28290    0.69750    1.000
    H103     H        0.75370    0.27700    0.65760    1.000
    C170     C        0.74000    0.32760    0.75440    1.000
    C171     C        0.70570    0.33620    0.81280    1.000
    H104     H        0.71230    0.36680    0.85160    1.000
    C172     C        0.66150    0.30020    0.81420    1.000
    H105     H        0.63810    0.30620    0.85410    1.000
    C173     C        0.78480    0.36820    0.75820    1.000
    C174     C        0.32310    0.01980    0.08640    1.000
    H106     H        0.29380    0.02870    0.05370    1.000
    C175     C        0.31980    0.02760    0.16870    1.000
    C176     C        0.40180    0.98030    0.17540    1.000
    H107     H        0.43010    0.96550    0.20680    1.000
    C177     C        0.40570    0.97950    0.09920    1.000
    H108     H        0.43610    0.96430    0.07740    1.000
    C178     C        0.36130    0.94770    0.34120    1.000
    H109     H        0.36110    0.90960    0.31360    1.000
    C179     C        0.36120    0.94510    0.42210    1.000
    H110     H        0.35930    0.90640    0.44830    1.000
    C180     C        0.24280    0.08920    0.16390    1.000
    H111     H        0.25930    0.12670    0.14340    1.000
    H112     H        0.22730    0.06540    0.11970    1.000
    Zn13     Zn       0.92162    0.50000    0.82968    1.000
    Zn14     Zn       0.79986    0.50000    0.81536    1.000
    O63      O        0.86360    0.50000    0.75700    1.000
    O64      O        0.91120    0.50000    0.93810    1.000
    O65      O        0.82840    0.50000    0.92850    1.000
    C181     C        0.86890    0.50000    0.96490    1.000
    C182     C        0.86730    0.50000    0.05320    1.000
    C183     C        0.86150    0.50000    0.21040    1.000
    C184     C        0.86150    0.50000    0.29990    1.000
    C185     C        0.86390    0.50000    0.46310    1.000
    C186     C        0.86590    0.50000    0.54840    1.000
    Zn15     Zn       0.42162    0.00000    0.82968    1.000
    Zn16     Zn       0.29986    0.00000    0.81536    1.000
    O66      O        0.36360    0.00000    0.75700    1.000
    O67      O        0.41120    0.00000    0.93810    1.000
    O68      O        0.32840    0.00000    0.92850    1.000
    C187     C        0.36890    0.00000    0.96490    1.000
    C188     C        0.36730    0.00000    0.05320    1.000
    C189     C        0.36150    0.00000    0.21040    1.000
    C190     C        0.36150    0.00000    0.29990    1.000
    C191     C        0.36390    0.00000    0.46310    1.000
    C192     C        0.36590    0.00000    0.54840    1.000
