# CIF file generated by openbabel 3.1.0, see https://openbabel.org
data_I
_chemical_name_common 'XAWVUN_clean'
_cell_length_a 15.2563
_cell_length_b 16.0699
_cell_length_c 23.5937
_cell_angle_alpha 90
_cell_angle_beta 90
_cell_angle_gamma 118.339
_space_group_name_H-M_alt 'P 1'
_space_group_name_Hall 'P 1'
loop_
    _symmetry_equiv_pos_as_xyz
    x,y,z
loop_
    _atom_site_label
    _atom_site_type_symbol
    _atom_site_fract_x
    _atom_site_fract_y
    _atom_site_fract_z
    _atom_site_occupancy
    Cu1      Cu       0.53432    0.43824    0.50000    1.000
    Cu2      Cu       0.46568    0.56176    0.50000    1.000
    Cu3      Cu       0.90392    0.43824    0.00000    1.000
    Cu4      Cu       0.09608    0.56176    0.00000    1.000
    H1       H        0.65560    0.75200    0.63010    1.000
    H2       H        0.76650    0.83340    0.70270    1.000
    H3       H        0.87120    0.64860    0.69740    1.000
    H4       H        0.75780    0.56460    0.62840    1.000
    H5       H        0.96530    0.91920    0.66570    1.000
    H6       H        0.34440    0.24800    0.63010    1.000
    H7       H        0.23350    0.16660    0.70270    1.000
    H8       H        0.12880    0.35140    0.69740    1.000
    H9       H        0.24220    0.43540    0.62840    1.000
    H10      H        0.03470    0.08080    0.66570    1.000
    H11      H        0.09640    0.75200    0.86990    1.000
    H12      H        0.06690    0.83340    0.79730    1.000
    H13      H        0.77740    0.64860    0.80260    1.000
    H14      H        0.80680    0.56460    0.87160    1.000
    H15      H        0.95390    0.91920    0.83430    1.000
    H16      H        0.90360    0.24800    0.86990    1.000
    H17      H        0.93310    0.16660    0.79730    1.000
    H18      H        0.22260    0.35140    0.80260    1.000
    H19      H        0.19320    0.43540    0.87160    1.000
    H20      H        0.04610    0.08080    0.83430    1.000
    H21      H        0.34440    0.24800    0.36990    1.000
    H22      H        0.23350    0.16660    0.29730    1.000
    H23      H        0.12880    0.35140    0.30260    1.000
    H24      H        0.24220    0.43540    0.37160    1.000
    H25      H        0.03470    0.08080    0.33430    1.000
    H26      H        0.65560    0.75200    0.36990    1.000
    H27      H        0.76650    0.83340    0.29730    1.000
    H28      H        0.87120    0.64860    0.30260    1.000
    H29      H        0.75780    0.56460    0.37160    1.000
    H30      H        0.96530    0.91920    0.33430    1.000
    H31      H        0.90360    0.24800    0.13010    1.000
    H32      H        0.93310    0.16660    0.20270    1.000
    H33      H        0.22260    0.35140    0.19740    1.000
    H34      H        0.19320    0.43540    0.12840    1.000
    H35      H        0.04610    0.08080    0.16570    1.000
    H36      H        0.09640    0.75200    0.13010    1.000
    H37      H        0.06690    0.83340    0.20270    1.000
    H38      H        0.77740    0.64860    0.19740    1.000
    H39      H        0.80680    0.56460    0.12840    1.000
    H40      H        0.95390    0.91920    0.16570    1.000
    C1       C        0.62316    0.59480    0.57599    1.000
    C2       C        0.69547    0.64944    0.62155    1.000
    C3       C        0.69844    0.73052    0.64382    1.000
    C4       C        0.76597    0.78004    0.68702    1.000
    C5       C        0.83220    0.75036    0.70657    1.000
    C6       C        0.82783    0.66978    0.68426    1.000
    C7       C        0.76007    0.61964    0.64261    1.000
    C8       C        0.97746    0.95122    0.70005    1.000
    C9       C        0.37684    0.40520    0.57599    1.000
    C10      C        0.30453    0.35056    0.62155    1.000
    C11      C        0.30156    0.26948    0.64382    1.000
    C12      C        0.23403    0.21996    0.68702    1.000
    C13      C        0.16780    0.24964    0.70657    1.000
    C14      C        0.17217    0.33022    0.68426    1.000
    C15      C        0.23993    0.38036    0.64261    1.000
    C16      C        0.02254    0.04878    0.70005    1.000
    C17      C        0.97164    0.59480    0.92401    1.000
    C18      C        0.95397    0.64944    0.87845    1.000
    C19      C        0.03208    0.73052    0.85618    1.000
    C20      C        0.01407    0.78004    0.81298    1.000
    C21      C        0.91816    0.75036    0.79343    1.000
    C22      C        0.84195    0.66978    0.81574    1.000
    C23      C        0.85957    0.61964    0.85739    1.000
    C24      C        0.97376    0.95122    0.79995    1.000
    C25      C        0.02836    0.40520    0.92401    1.000
    C26      C        0.04603    0.35056    0.87845    1.000
    C27      C        0.96792    0.26948    0.85618    1.000
    C28      C        0.98593    0.21996    0.81298    1.000
    C29      C        0.08184    0.24964    0.79343    1.000
    C30      C        0.15805    0.33022    0.81574    1.000
    C31      C        0.14043    0.38036    0.85739    1.000
    C32      C        0.02624    0.04878    0.79995    1.000
    C33      C        0.37684    0.40520    0.42401    1.000
    C34      C        0.30453    0.35056    0.37845    1.000
    C35      C        0.30156    0.26948    0.35618    1.000
    C36      C        0.23403    0.21996    0.31298    1.000
    C37      C        0.16780    0.24964    0.29343    1.000
    C38      C        0.17217    0.33022    0.31574    1.000
    C39      C        0.23993    0.38036    0.35739    1.000
    C40      C        0.02254    0.04878    0.29995    1.000
    C41      C        0.62316    0.59480    0.42401    1.000
    C42      C        0.69547    0.64944    0.37845    1.000
    C43      C        0.69844    0.73052    0.35618    1.000
    C44      C        0.76597    0.78004    0.31298    1.000
    C45      C        0.83220    0.75036    0.29343    1.000
    C46      C        0.82783    0.66978    0.31574    1.000
    C47      C        0.76007    0.61964    0.35739    1.000
    C48      C        0.97746    0.95122    0.29995    1.000
    C49      C        0.02836    0.40520    0.07599    1.000
    C50      C        0.04603    0.35056    0.12155    1.000
    C51      C        0.96792    0.26948    0.14382    1.000
    C52      C        0.98593    0.21996    0.18702    1.000
    C53      C        0.08184    0.24964    0.20657    1.000
    C54      C        0.15805    0.33022    0.18426    1.000
    C55      C        0.14043    0.38036    0.14261    1.000
    C56      C        0.02624    0.04878    0.20005    1.000
    C57      C        0.97164    0.59480    0.07599    1.000
    C58      C        0.95397    0.64944    0.12155    1.000
    C59      C        0.03208    0.73052    0.14382    1.000
    C60      C        0.01407    0.78004    0.18702    1.000
    C61      C        0.91816    0.75036    0.20657    1.000
    C62      C        0.84195    0.66978    0.18426    1.000
    C63      C        0.85957    0.61964    0.14261    1.000
    C64      C        0.97376    0.95122    0.20005    1.000
    C65      C        0.95021    0.90042    0.75000    1.000
    C66      C        0.04979    0.09958    0.75000    1.000
    C67      C        0.04979    0.09958    0.25000    1.000
    C68      C        0.95021    0.90042    0.25000    1.000
    N1       N        0.90035    0.80070    0.75000    1.000
    N2       N        0.09965    0.19930    0.75000    1.000
    N3       N        0.09965    0.19930    0.25000    1.000
    N4       N        0.90035    0.80070    0.25000    1.000
    O1       O        0.62395    0.52198    0.55836    1.000
    O2       O        0.56727    0.62720    0.55837    1.000
    O3       O        0.37605    0.47802    0.55836    1.000
    O4       O        0.43273    0.37280    0.55837    1.000
    O5       O        0.89803    0.52198    0.94164    1.000
    O6       O        0.05993    0.62720    0.94163    1.000
    O7       O        0.10197    0.47802    0.94164    1.000
    O8       O        0.94007    0.37280    0.94163    1.000
    O9       O        0.37605    0.47802    0.44164    1.000
    O10      O        0.43273    0.37280    0.44163    1.000
    O11      O        0.62395    0.52198    0.44164    1.000
    O12      O        0.56727    0.62720    0.44163    1.000
    O13      O        0.10197    0.47802    0.05836    1.000
    O14      O        0.94007    0.37280    0.05837    1.000
    O15      O        0.89803    0.52198    0.05836    1.000
    O16      O        0.05993    0.62720    0.05837    1.000
