# CIF file generated by openbabel 3.1.0, see https://openbabel.org
data_I
_chemical_name_common 'image0'
_cell_length_a 12.9517
_cell_length_b 14.733
_cell_length_c 20.052
_cell_angle_alpha 90
_cell_angle_beta 129.256
_cell_angle_gamma 90
_space_group_name_H-M_alt 'P 1'
_space_group_name_Hall 'P 1'
loop_
    _symmetry_equiv_pos_as_xyz
    x,y,z
loop_
    _atom_site_label
    _atom_site_type_symbol
    _atom_site_fract_x
    _atom_site_fract_y
    _atom_site_fract_z
    _atom_site_occupancy
    Cu1      Cu       0.61344    0.20816    0.59763    1.000
    N1       N        0.55410    0.09580    0.45610    1.000
    N2       N        0.60470    0.17510    0.49600    1.000
    N3       N        0.62840    0.22650    0.45380    1.000
    N4       N        0.54440    0.09270    0.38640    1.000
    N5       N        0.60960    0.25520    0.19280    1.000
    N6       N        0.75050    0.06750    0.66860    1.000
    N7       N        0.68610    0.99780    0.61370    1.000
    N8       N        0.76660    0.92670    0.63970    1.000
    N9       N        0.87400    0.04120    0.73250    1.000
    N10      N        0.46130    0.12640    0.55030    1.000
    N11      N        0.37090    0.14330    0.54820    1.000
    N12      N        0.22550    0.78760    0.84960    1.000
    N13      N        0.28180    0.15790    0.54540    1.000
    C1       C        0.59010    0.17400    0.38710    1.000
    C2       C        0.59690    0.20120    0.31900    1.000
    C3       C        0.63810    0.28940    0.31860    1.000
    H1       H        0.66280    0.33080    0.36150    1.000
    C4       C        0.56660    0.17130    0.19080    1.000
    H2       H        0.54070    0.13190    0.14630    1.000
    C5       C        0.88260    0.95620    0.71280    1.000
    C6       C        0.00180    0.89920    0.76160    1.000
    C7       C        0.11280    0.91820    0.84520    1.000
    H3       H        0.11390    0.96890    0.87330    1.000
    C8       C        0.64100    0.31320    0.25370    1.000
    H4       H        0.66570    0.37200    0.25230    1.000
    C9       C        0.56040    0.14260    0.25420    1.000
    H5       H        0.53180    0.08410    0.25270    1.000
    C10      C        0.00410    0.82160    0.72250    1.000
    H6       H        0.93100    0.80690    0.66620    1.000
    C11      C        0.11580    0.76710    0.76820    1.000
    H7       H        0.11600    0.71470    0.74240    1.000
    C12      C        0.22180    0.86160    0.88680    1.000
    H8       H        0.29610    0.87540    0.94300    1.000
    Cu2      Cu       0.38656    0.70816    0.90237    1.000
    N14      N        0.44590    0.59580    0.04390    1.000
    N15      N        0.39530    0.67510    0.00400    1.000
    N16      N        0.37160    0.72650    0.04620    1.000
    N17      N        0.45560    0.59270    0.11360    1.000
    N18      N        0.39040    0.75520    0.30720    1.000
    N19      N        0.24950    0.56750    0.83140    1.000
    N20      N        0.31390    0.49780    0.88630    1.000
    N21      N        0.23340    0.42670    0.86030    1.000
    N22      N        0.12600    0.54120    0.76750    1.000
    N23      N        0.53870    0.62640    0.94970    1.000
    N24      N        0.62910    0.64330    0.95180    1.000
    N25      N        0.77450    0.28760    0.65040    1.000
    N26      N        0.71820    0.65790    0.95460    1.000
    C13      C        0.40990    0.67400    0.11290    1.000
    C14      C        0.40310    0.70120    0.18100    1.000
    C15      C        0.36190    0.78940    0.18140    1.000
    H9       H        0.33720    0.83080    0.13850    1.000
    C16      C        0.43340    0.67130    0.30920    1.000
    H10      H        0.45930    0.63190    0.35370    1.000
    C17      C        0.11740    0.45620    0.78720    1.000
    C18      C        0.99820    0.39920    0.73840    1.000
    C19      C        0.88720    0.41820    0.65480    1.000
    H11      H        0.88610    0.46890    0.62670    1.000
    C20      C        0.35900    0.81320    0.24630    1.000
    H12      H        0.33430    0.87200    0.24770    1.000
    C21      C        0.43960    0.64260    0.24580    1.000
    H13      H        0.46820    0.58410    0.24730    1.000
    C22      C        0.99590    0.32160    0.77750    1.000
    H14      H        0.06900    0.30690    0.83380    1.000
    C23      C        0.88420    0.26710    0.73180    1.000
    H15      H        0.88400    0.21470    0.75760    1.000
    C24      C        0.77820    0.36160    0.61320    1.000
    H16      H        0.70390    0.37540    0.55700    1.000
    Cu3      Cu       0.38656    0.79184    0.40237    1.000
    N27      N        0.44590    0.90420    0.54390    1.000
    N28      N        0.39530    0.82490    0.50400    1.000
    N29      N        0.37160    0.77350    0.54620    1.000
    N30      N        0.45560    0.90730    0.61360    1.000
    N31      N        0.39040    0.74480    0.80720    1.000
    N32      N        0.24950    0.93250    0.33140    1.000
    N33      N        0.31390    0.00220    0.38630    1.000
    N34      N        0.23340    0.07330    0.36030    1.000
    N35      N        0.12600    0.95880    0.26750    1.000
    N36      N        0.53870    0.87360    0.44970    1.000
    N37      N        0.62910    0.85670    0.45180    1.000
    N38      N        0.77450    0.21240    0.15040    1.000
    N39      N        0.71820    0.84210    0.45460    1.000
    C25      C        0.40990    0.82600    0.61290    1.000
    C26      C        0.40310    0.79880    0.68100    1.000
    C27      C        0.36190    0.71060    0.68140    1.000
    H17      H        0.33720    0.66920    0.63850    1.000
    C28      C        0.43340    0.82870    0.80920    1.000
    H18      H        0.45930    0.86810    0.85370    1.000
    C29      C        0.11740    0.04380    0.28720    1.000
    C30      C        0.99820    0.10080    0.23840    1.000
    C31      C        0.88720    0.08180    0.15480    1.000
    H19      H        0.88610    0.03110    0.12670    1.000
    C32      C        0.35900    0.68680    0.74630    1.000
    H20      H        0.33430    0.62800    0.74770    1.000
    C33      C        0.43960    0.85740    0.74580    1.000
    H21      H        0.46820    0.91590    0.74730    1.000
    C34      C        0.99590    0.17840    0.27750    1.000
    H22      H        0.06900    0.19310    0.33380    1.000
    C35      C        0.88420    0.23290    0.23180    1.000
    H23      H        0.88400    0.28530    0.25760    1.000
    C36      C        0.77820    0.13840    0.11320    1.000
    H24      H        0.70390    0.12460    0.05700    1.000
    Cu4      Cu       0.61344    0.29184    0.09763    1.000
    N40      N        0.55410    0.40420    0.95610    1.000
    N41      N        0.60470    0.32490    0.99600    1.000
    N42      N        0.62840    0.27350    0.95380    1.000
    N43      N        0.54440    0.40730    0.88640    1.000
    N44      N        0.60960    0.24480    0.69280    1.000
    N45      N        0.75050    0.43250    0.16860    1.000
    N46      N        0.68610    0.50220    0.11370    1.000
    N47      N        0.76660    0.57330    0.13970    1.000
    N48      N        0.87400    0.45880    0.23250    1.000
    N49      N        0.46130    0.37360    0.05030    1.000
    N50      N        0.37090    0.35670    0.04820    1.000
    N51      N        0.22550    0.71240    0.34960    1.000
    N52      N        0.28180    0.34210    0.04540    1.000
    C37      C        0.59010    0.32600    0.88710    1.000
    C38      C        0.59690    0.29880    0.81900    1.000
    C39      C        0.63810    0.21060    0.81860    1.000
    H25      H        0.66280    0.16920    0.86150    1.000
    C40      C        0.56660    0.32870    0.69080    1.000
    H26      H        0.54070    0.36810    0.64630    1.000
    C41      C        0.88260    0.54380    0.21280    1.000
    C42      C        0.00180    0.60080    0.26160    1.000
    C43      C        0.11280    0.58180    0.34520    1.000
    H27      H        0.11390    0.53110    0.37330    1.000
    C44      C        0.64100    0.18680    0.75370    1.000
    H28      H        0.66570    0.12800    0.75230    1.000
    C45      C        0.56040    0.35740    0.75420    1.000
    H29      H        0.53180    0.41590    0.75270    1.000
    C46      C        0.00410    0.67840    0.22250    1.000
    H30      H        0.93100    0.69310    0.16620    1.000
    C47      C        0.11580    0.73290    0.26820    1.000
    H31      H        0.11600    0.78530    0.24240    1.000
    C48      C        0.22180    0.63840    0.38680    1.000
    H32      H        0.29610    0.62460    0.44300    1.000
    Cu5      Cu       0.50000    0.00000    0.50000    1.000
    Cu6      Cu       0.50000    0.50000    0.00000    1.000
