# CIF file generated by openbabel 3.1.0, see https://openbabel.org
data_I
_chemical_name_common 'image0'
_cell_length_a 7.2973
_cell_length_b 7.948
_cell_length_c 13.8224
_cell_angle_alpha 90
_cell_angle_beta 90
_cell_angle_gamma 90
_space_group_name_H-M_alt 'P 1'
_space_group_name_Hall 'P 1'
loop_
    _symmetry_equiv_pos_as_xyz
    x,y,z
loop_
    _atom_site_label
    _atom_site_type_symbol
    _atom_site_fract_x
    _atom_site_fract_y
    _atom_site_fract_z
    _atom_site_occupancy
    Zn1      Zn       0.75924    0.71943    0.66453    1.000
    O1       O        0.58650    0.92540    0.66291    1.000
    O2       O        0.90375    0.80618    0.78854    1.000
    O3       O        0.60870    0.60502    0.77203    1.000
    O4       O        0.61923    0.61081    0.54686    1.000
    O5       O        0.91920    0.86982    0.57341    1.000
    O6       O        0.92287    0.50424    0.64373    1.000
    C1       C        0.50866    0.69260    0.49474    1.000
    H1       H        0.49250    0.80890    0.50820    1.000
    C2       C        0.50097    0.98458    0.73352    1.000
    H2       H        0.52050    0.93500    0.79520    1.000
    C3       C        0.99169    0.94291    0.78645    1.000
    H3       H        0.99290    0.00370    0.72730    1.000
    Zn2      Zn       0.74076    0.28057    0.16453    1.000
    O7       O        0.91350    0.07460    0.16291    1.000
    O8       O        0.59625    0.19382    0.28854    1.000
    O9       O        0.89130    0.39498    0.27203    1.000
    O10      O        0.88077    0.38919    0.04686    1.000
    O11      O        0.58080    0.13018    0.07341    1.000
    O12      O        0.57713    0.49576    0.14373    1.000
    C4       C        0.99134    0.30740    0.99474    1.000
    H4       H        0.00750    0.19110    0.00820    1.000
    C5       C        0.99903    0.01542    0.23352    1.000
    H5       H        0.97950    0.06500    0.29520    1.000
    C6       C        0.50831    0.05709    0.28645    1.000
    H6       H        0.50710    0.99630    0.22730    1.000
    Zn3      Zn       0.24076    0.21943    0.83547    1.000
    O13      O        0.41350    0.42540    0.83709    1.000
    O14      O        0.09625    0.30618    0.71146    1.000
    O15      O        0.39130    0.10502    0.72797    1.000
    O16      O        0.38077    0.11081    0.95314    1.000
    O17      O        0.08080    0.36982    0.92659    1.000
    O18      O        0.07713    0.00424    0.85627    1.000
    C7       C        0.49134    0.19260    0.00526    1.000
    H7       H        0.50750    0.30890    0.99180    1.000
    C8       C        0.49903    0.48458    0.76648    1.000
    H8       H        0.47950    0.43500    0.70480    1.000
    C9       C        0.00831    0.44291    0.71355    1.000
    H9       H        0.00710    0.50370    0.77270    1.000
    Zn4      Zn       0.25924    0.78057    0.33547    1.000
    O19      O        0.08650    0.57460    0.33709    1.000
    O20      O        0.40375    0.69382    0.21146    1.000
    O21      O        0.10870    0.89498    0.22797    1.000
    O22      O        0.11923    0.88919    0.45314    1.000
    O23      O        0.41920    0.63018    0.42659    1.000
    O24      O        0.42287    0.99576    0.35627    1.000
    C10      C        0.00866    0.80740    0.50526    1.000
    H10      H        0.99250    0.69110    0.49180    1.000
    C11      C        0.00097    0.51542    0.26648    1.000
    H11      H        0.02050    0.56500    0.20480    1.000
    C12      C        0.49169    0.55709    0.21355    1.000
    H12      H        0.49290    0.49630    0.27270    1.000
