data_functionalizedCrystal
_audit_creation_method	'EQeq! by Chris Wilmer'
_symmetry_space_group_name_H-M	'P1'
_symmetry_Int_Tables_number	1
_symmetry_cell_setting	triclinic
loop_
_symmetry_equiv_pos_as_xyz
  x,y,z
_cell_length_a	16.4011
_cell_length_b	7.1786
_cell_length_c	14.2586
_cell_angle_alpha	90
_cell_angle_beta	90
_cell_angle_gamma	90
loop_
_atom_site_label
_atom_site_type_symbol
_atom_site_fract_x
_atom_site_fract_y
_atom_site_fract_z
_atom_site_charge
Mof_O 	O 	0.59187	0.56111	0.73336	-0.392
Mof_O 	O 	0.54019	0.80989	0.6583	-0.195
Mof_O 	O 	0.56026	0.63816	0.46344	-0.225
Mof_O 	O 	0.5841	0.94104	0.43363	-0.317
Mof_C 	C 	0.67589	0.71908	0.62452	-0.03
Mof_C 	C 	0.67626	0.77558	0.53074	-0.017
Mof_C 	C 	0.5958	0.69471	0.67606	0.319
Mof_C 	C 	0.5998	0.78639	0.47228	0.313
Mof_O 	O 	0.09187	0.06111	0.23336	-0.442
Mof_O 	O 	0.04019	0.30989	0.1583	-0.286
Mof_O 	O 	0.06026	0.13816	0.96344	-0.311
Mof_O 	O 	0.0841	0.44104	0.93363	-0.391
Mof_C 	C 	0.17589	0.21908	0.12452	-0.058
Mof_C 	C 	0.17626	0.27558	0.03074	-0.01
Mof_C 	C 	0.0958	0.19471	0.17606	0.331
Mof_C 	C 	0.0998	0.28639	0.97228	0.315
Mof_O 	O 	0.40813	0.43889	0.73336	-0.382
Mof_O 	O 	0.45981	0.19011	0.6583	-0.264
Mof_O 	O 	0.43974	0.36184	0.46344	-0.23
Mof_O 	O 	0.4159	0.05896	0.43363	-0.405
Mof_C 	C 	0.32411	0.28092	0.62452	-0.036
Mof_C 	C 	0.32374	0.22442	0.53074	-0.039
Mof_C 	C 	0.4042	0.30529	0.67606	0.321
Mof_C 	C 	0.4002	0.21361	0.47228	0.324
Mof_O 	O 	0.90813	0.93889	0.23336	-0.296
Mof_O 	O 	0.95981	0.69011	0.1583	-0.159
Mof_O 	O 	0.93974	0.86184	0.96344	-0.141
Mof_O 	O 	0.9159	0.55896	0.93363	-0.326
Mof_C 	C 	0.82411	0.78092	0.12452	-0.026
Mof_C 	C 	0.82374	0.72442	0.03074	0.008
Mof_C 	C 	0.9042	0.80529	0.17606	0.311
Mof_C 	C 	0.9002	0.71361	0.97228	0.293
Mof_O 	O 	0.09187	0.43889	0.73336	-0.406
Mof_O 	O 	0.04019	0.19011	0.6583	-0.311
Mof_O 	O 	0.06026	0.36184	0.46344	-0.272
Mof_O 	O 	0.0841	0.05896	0.43363	-0.432
Mof_C 	C 	0.17589	0.28092	0.62452	-0.042
Mof_C 	C 	0.17626	0.22442	0.53074	-0.045
Mof_C 	C 	0.0958	0.30529	0.67606	0.325
Mof_C 	C 	0.0998	0.21361	0.47228	0.33
Mof_O 	O 	0.59187	0.93889	0.23336	-0.337
Mof_O 	O 	0.54019	0.69011	0.1583	-0.212
Mof_O 	O 	0.56026	0.86184	0.96344	-0.189
Mof_O 	O 	0.5841	0.55896	0.93363	-0.372
Mof_C 	C 	0.67589	0.78092	0.12452	-0.033
Mof_C 	C 	0.67626	0.72442	0.03074	0.002
Mof_C 	C 	0.5958	0.80529	0.17606	0.319
Mof_C 	C 	0.5998	0.71361	0.97228	0.302
Mof_O 	O 	0.90813	0.56111	0.73336	-0.349
Mof_O 	O 	0.95981	0.80989	0.6583	-0.14
Mof_O 	O 	0.93974	0.63816	0.46344	-0.176
Mof_O 	O 	0.9159	0.94104	0.43363	-0.271
Mof_C 	C 	0.82411	0.71908	0.62452	-0.022
Mof_C 	C 	0.82374	0.77558	0.53074	-0.01
Mof_C 	C 	0.9042	0.69471	0.67606	0.311
Mof_C 	C 	0.9002	0.78639	0.47228	0.304
Mof_O 	O 	0.40813	0.06111	0.23336	-0.419
Mof_O 	O 	0.45981	0.30989	0.1583	-0.239
Mof_O 	O 	0.43974	0.13816	0.96344	-0.27
Mof_O 	O 	0.4159	0.44104	0.93363	-0.363
Mof_C 	C 	0.32411	0.21908	0.12452	-0.052
Mof_C 	C 	0.32374	0.27558	0.03074	-0.005
Mof_C 	C 	0.4042	0.19471	0.17606	0.327
Mof_C 	C 	0.4002	0.28639	0.97228	0.31
Mof_Co	Co	0.5	0.5	0.82749	1.167
Mof_Co	Co	1.06749e-33	-7.51849e-33	0.32749	1.077
Mof_Co	Co	2.69729e-33	0.5	0.82749	1.12
Mof_Co	Co	0.5	-7.51849e-33	0.32749	1.123
Mof_C 	C 	0.75	0.6908	0.67061	0
Mof_H 	H 	0.75	0.6517	0.7343	0.06
Mof_C 	C 	0.75	0.8056	0.48435	-0.012
Mof_H 	H 	0.75	0.8465	0.421	0.067
Mof_C 	C 	0.25	0.1908	0.17061	0.013
Mof_H 	H 	0.25	0.1517	0.2343	0.047
Mof_C 	C 	0.25	0.3056	0.98435	-0.042
Mof_H 	H 	0.25	0.3465	0.921	0.065
Mof_C 	C 	0.25	0.3092	0.67061	-0.003
Mof_H 	H 	0.25	0.3483	0.7343	0.056
Mof_C 	C 	0.25	0.1944	0.48435	-0.002
Mof_H 	H 	0.25	0.1535	0.421	0.047
Mof_C 	C 	0.75	0.8092	0.17061	0.006
Mof_H 	H 	0.75	0.8483	0.2343	0.065
Mof_C 	C 	0.75	0.6944	0.98435	-0.043
Mof_H 	H 	0.75	0.6535	0.921	0.069
_end
