# CIF file generated by openbabel 3.1.0, see https://openbabel.org
data_I
_chemical_name_common 'image0'
_cell_length_a 8.7238
_cell_length_b 11.6272
_cell_length_c 8.2747
_cell_angle_alpha 90
_cell_angle_beta 90
_cell_angle_gamma 90
_space_group_name_H-M_alt 'P 1'
_space_group_name_Hall 'P 1'
loop_
    _symmetry_equiv_pos_as_xyz
    x,y,z
loop_
    _atom_site_label
    _atom_site_type_symbol
    _atom_site_fract_x
    _atom_site_fract_y
    _atom_site_fract_z
    _atom_site_occupancy
    O1       O        0.58387    0.32227    0.58900    1.000
    O2       O        0.23808    0.09475    0.38367    1.000
    O3       O        0.41236    0.31689    0.39500    1.000
    C1       C        0.47015    0.28001    0.52253    1.000
    H1       H        0.42200    0.21230    0.57110    1.000
    O4       O        0.91613    0.67773    0.58900    1.000
    O5       O        0.26192    0.90525    0.38367    1.000
    O6       O        0.08764    0.68311    0.39500    1.000
    C2       C        0.02985    0.71999    0.52253    1.000
    H2       H        0.07800    0.78770    0.57110    1.000
    O7       O        0.91613    0.82227    0.91100    1.000
    O8       O        0.26192    0.59475    0.11633    1.000
    O9       O        0.08764    0.81689    0.10500    1.000
    C3       C        0.02985    0.78001    0.97747    1.000
    H3       H        0.07800    0.71230    0.92890    1.000
    O10      O        0.58387    0.17773    0.91100    1.000
    O11      O        0.23808    0.40525    0.11633    1.000
    O12      O        0.41236    0.18311    0.10500    1.000
    C4       C        0.47015    0.21999    0.97747    1.000
    H4       H        0.42200    0.28770    0.92890    1.000
    O13      O        0.41613    0.67773    0.41100    1.000
    O14      O        0.76192    0.90525    0.61633    1.000
    O15      O        0.58764    0.68311    0.60500    1.000
    C5       C        0.52985    0.71999    0.47747    1.000
    H5       H        0.57800    0.78770    0.42890    1.000
    O16      O        0.08387    0.32227    0.41100    1.000
    O17      O        0.73808    0.09475    0.61633    1.000
    O18      O        0.91236    0.31689    0.60500    1.000
    C6       C        0.97015    0.28001    0.47747    1.000
    H6       H        0.92200    0.21230    0.42890    1.000
    O19      O        0.08387    0.17773    0.08900    1.000
    O20      O        0.73808    0.40525    0.88367    1.000
    O21      O        0.91236    0.18311    0.89500    1.000
    C7       C        0.97015    0.21999    0.02253    1.000
    H7       H        0.92200    0.28770    0.07110    1.000
    O22      O        0.41613    0.82227    0.08900    1.000
    O23      O        0.76192    0.59475    0.88367    1.000
    O24      O        0.58764    0.81689    0.89500    1.000
    C8       C        0.52985    0.78001    0.02253    1.000
    H8       H        0.57800    0.71230    0.07110    1.000
    Co1      Co       0.23720    0.25000    0.25000    1.000
    Co2      Co       0.26280    0.75000    0.25000    1.000
    Co3      Co       0.76280    0.75000    0.75000    1.000
    Co4      Co       0.73720    0.25000    0.75000    1.000
    C9       C        0.25000    0.00000    0.31430    1.000
    H9       H        0.25000    0.00000    0.20190    1.000
    C10      C        0.25000    0.50000    0.18570    1.000
    H10      H        0.25000    0.50000    0.29810    1.000
    C11      C        0.75000    0.00000    0.68570    1.000
    H11      H        0.75000    0.00000    0.79810    1.000
    C12      C        0.75000    0.50000    0.81430    1.000
    H12      H        0.75000    0.50000    0.70190    1.000
