data_functionalizedCrystal
_audit_creation_method	'EQeq! by Chris Wilmer'
_symmetry_space_group_name_H-M	'P1'
_symmetry_Int_Tables_number	1
_symmetry_cell_setting	triclinic
loop_
_symmetry_equiv_pos_as_xyz
  x,y,z
_cell_length_a	12.9022
_cell_length_b	20.0587
_cell_length_c	20.0587
_cell_angle_alpha	101.708
_cell_angle_beta	107.849
_cell_angle_gamma	72.151
loop_
_atom_site_label
_atom_site_type_symbol
_atom_site_fract_x
_atom_site_fract_y
_atom_site_fract_z
_atom_site_charge
Mof_Co	Co	0.6712	0.70851	0.29149	1.143
Mof_Co	Co	0.927	0.72608	0.27392	1.205
Mof_Co	Co	0.43563	0.30914	0.18268	1.179
Mof_Co	Co	0.073	0.27392	0.72608	1.192
Mof_Co	Co	-0	0	-0	1.118
Mof_Co	Co	0.56437	0.69086	0.81732	1.179
Mof_Co	Co	0.3288	0.29149	0.70851	1.142
Mof_Co	Co	0.56437	0.18268	0.30914	1.178
Mof_Co	Co	0.43563	0.81732	0.69086	1.179
Mof_H 	H 	0.9728	0.8487	0.9725	0.031
Mof_H 	H 	0.5447	0.5141	0.3369	0.031
Mof_H 	H 	0.3357	0.8306	0.5334	0.009
Mof_H 	H 	0.7787	0.0635	0.3227	0.033
Mof_H 	H 	0.5735	0.6543	0.3741	0.023
Mof_H 	H 	0.2213	0.9365	0.6773	-0.005
Mof_H 	H 	0.5682	0.8232	0.3982	-0.035
Mof_H 	H 	0.1995	0.5629	0.1993	0.069
Mof_H 	H 	0.5338	0.6762	0.0592	0.078
Mof_H 	H 	0.2316	0.7552	0.658	0.025
Mof_H 	H 	0.2277	0.7916	0.2084	0.05
Mof_H 	H 	0.7696	0.1151	0.9855	0.064
Mof_H 	H 	0.7696	0.0145	0.8849	-0.004
Mof_H 	H 	0.7723	0.2084	0.7916	0.083
Mof_H 	H 	0.1617	0.0578	0.6854	0.082
Mof_H 	H 	0.3561	0.8198	0.9516	0.081
Mof_H 	H 	0.1523	0.1687	0.8313	0.009
Mof_H 	H 	0.4662	0.0592	0.6762	0.082
Mof_H 	H 	0.6643	0.1694	0.4666	0.009
Mof_H 	H 	0.0272	0.9725	0.8487	0.017
Mof_H 	H 	0.4553	0.4859	0.6631	0.03
Mof_H 	H 	0.9096	0.2742	0.4338	0.081
Mof_H 	H 	0.5191	0.3287	0.0619	0.039
Mof_H 	H 	0.6439	0.1802	0.0484	0.048
Mof_H 	H 	0.1617	0.3146	0.9422	0.044
Mof_H 	H 	0.9728	0.0275	0.1513	0.024
Mof_H 	H 	0.8495	0.2624	0.7376	-0.005
Mof_H 	H 	0.4809	0.0619	0.3287	0.039
Mof_H 	H 	0.8005	0.4371	0.8007	0.072
Mof_H 	H 	0.1995	0.8007	0.4371	0.073
Mof_H 	H 	0.6439	0.9516	0.8198	0.083
Mof_H 	H 	0.2053	0.3498	0.5598	-0.005
Mof_H 	H 	0.2386	0.5483	0.6579	0.099
Mof_H 	H 	0.4318	0.3982	0.8232	-0.034
Mof_H 	H 	0.7614	0.6579	0.5483	0.104
Mof_H 	H 	0.1508	0.9113	0.7815	0.065
Mof_H 	H 	0.709	0.8088	0.5496	-0.015
Mof_H 	H 	0.3357	0.4666	0.1694	0.007
Mof_H 	H 	0.4831	0.5007	0.8333	0.114
Mof_H 	H 	0.1505	0.7376	0.2624	0.025
Mof_H 	H 	0.291	0.5496	0.8088	-0.019
Mof_H 	H 	0.4809	0.6713	0.9381	0.008
Mof_H 	H 	0.2053	0.4402	0.6502	-0.006
Mof_H 	H 	0.6643	0.5334	0.8306	0.011
Mof_H 	H 	0.4831	0.1667	0.4993	0.109
Mof_H 	H 	0.5447	0.6631	0.4859	0.03
Mof_H 	H 	0.2213	0.3227	0.0635	0.028
Mof_H 	H 	0.4265	0.3741	0.6543	0.023
Mof_H 	H 	0.5191	0.9381	0.6713	0.006
Mof_H 	H 	0.8492	0.0887	0.2185	0.056
Mof_H 	H 	0.0904	0.7258	0.5662	0.074
Mof_H 	H 	0.0865	0.1092	0.8908	0.083
Mof_H 	H 	0.5735	0.6259	0.3457	0.022
Mof_H 	H 	0.2578	0.4447	0.7935	0.092
Mof_H 	H 	0.5169	0.4993	0.1667	0.11
Mof_H 	H 	0.5682	0.6018	0.1768	-0.038
Mof_H 	H 	0.1508	0.2185	0.0887	0.05
Mof_H 	H 	0.2386	0.3421	0.4517	0.098
Mof_H 	H 	0.7787	0.6773	0.9365	0.001
Mof_H 	H 	0.4553	0.3369	0.5141	0.03
Mof_H 	H 	0.4662	0.3238	0.9408	0.043
Mof_H 	H 	0.291	0.1912	0.4504	-0.023
Mof_H 	H 	0.7947	0.5598	0.3498	-0.002
Mof_H 	H 	0.7947	0.6502	0.4402	-0.003
Mof_H 	H 	0.7422	0.7935	0.4447	0.096
Mof_H 	H 	0.2578	0.2065	0.5553	0.089
Mof_H 	H 	0.3561	0.0484	0.1802	0.043
Mof_H 	H 	0.7684	0.2448	0.342	0.029
Mof_H 	H 	0.7614	0.4517	0.3421	0.103
Mof_H 	H 	0.2304	0.9855	0.1151	0.072
Mof_H 	H 	0.8383	0.6854	0.0578	0.086
Mof_H 	H 	0.8492	0.7815	0.9113	0.069
Mof_H 	H 	0.4265	0.3457	0.6259	0.022
Mof_H 	H 	0.2304	0.8849	0.0145	-0.001
Mof_H 	H 	0.5338	0.9408	0.3238	0.04
Mof_H 	H 	0.709	0.4504	0.1912	-0.018
Mof_H 	H 	0.0904	0.4338	0.2742	0.072
Mof_H 	H 	0.4318	0.1768	0.6018	-0.038
Mof_H 	H 	0.7422	0.5553	0.2065	0.093
Mof_H 	H 	0.7684	0.658	0.7552	0.029
Mof_H 	H 	0.5169	0.8333	0.5007	0.115
Mof_H 	H 	0.9135	0.8908	0.1092	0.049
Mof_H 	H 	0.8477	0.8313	0.1687	0.028
Mof_H 	H 	0.2316	0.342	0.2448	0.025
Mof_H 	H 	0.8383	0.9422	0.3146	0.049
Mof_H 	H 	0.8005	0.1993	0.5629	0.069
Mof_H 	H 	0.9096	0.5662	0.7258	0.082
Mof_H 	H 	0.0272	0.1513	0.0275	0.008
Mof_C 	C 	0.7858	0.1094	0.0328	-0.026
Mof_C 	C 	0.7267	0.6957	0.1527	0.379
Mof_C 	C 	0.4295	0.4883	0.7935	-0.207
Mof_C 	C 	0.7958	0.4816	0.7912	-0.069
Mof_C 	C 	0.7133	0.5395	0.8081	0.05
Mof_C 	C 	0.5536	0.6744	0.9626	0.093
Mof_C 	C 	0.4464	0.3256	0.0374	-0.019
Mof_C 	C 	0.2719	0.9615	0.6783	0.107
Mof_C 	C 	0.301	0.4512	0.7666	-0.164
Mof_C 	C 	0.9049	0.0577	0.1301	0.022
Mof_C 	C 	0.7281	0.0385	0.3217	-0.02
Mof_C 	C 	0.5705	0.5117	0.2065	-0.207
Mof_C 	C 	0.416	0.3082	0.5222	0.035
Mof_C 	C 	0.9634	0.4291	0.7401	0.334
Mof_C 	C 	0.2719	0.3217	0.0385	-0.016
Mof_C 	C 	0.403	0.4249	0.7855	0.166
Mof_C 	C 	0.0951	0.9423	0.8699	0.039
Mof_C 	C 	0.732	0.6841	0.4503	0.132
Mof_C 	C 	0.584	0.5222	0.3082	0.035
Mof_C 	C 	0.7095	0.9297	0.8513	-0.079
Mof_C 	C 	0.397	0.315	0.589	-0.071
Mof_C 	C 	0.9251	0.8235	0.1765	0.025
Mof_C 	C 	0.416	0.4778	0.6918	0.036
Mof_C 	C 	0.7133	0.1919	0.4605	0.047
Mof_C 	C 	0.714	0.6892	0.5164	-0.149
Mof_C 	C 	0.646	0.1821	0.1821	0.383
Mof_C 	C 	0.9219	0.1513	0.8487	0.028
Mof_C 	C 	0.2254	0.7642	0.613	0.064
Mof_C 	C 	0.2867	0.8081	0.5395	0.053
Mof_C 	C 	0.403	0.2145	0.5751	0.163
Mof_C 	C 	0.268	0.3159	0.5497	0.129
Mof_C 	C 	0.4061	0.6001	0.7449	0.34
Mof_C 	C 	0.0366	0.7401	0.4291	0.273
Mof_C 	C 	0.6912	0.9276	0.315	-0.097
Mof_C 	C 	0.7281	0.6783	0.9615	0.097
Mof_C 	C 	0.7267	0.8473	0.3043	0.412
Mof_C 	C 	0.0781	0.8487	0.1513	-0.088
Mof_C 	C 	0.354	0.1821	0.1821	0.383
Mof_C 	C 	0.3088	0.315	0.9276	-0.096
Mof_C 	C 	0.32	0.5156	0.7754	0.165
Mof_C 	C 	0.2905	0.8513	0.9297	-0.077
Mof_C 	C 	0.4061	0.2551	0.3999	0.34
Mof_C 	C 	0.86	0.5579	0.7465	-0.069
Mof_C 	C 	0.354	0.8179	0.8179	0.373
Mof_C 	C 	0.14	0.7465	0.5579	-0.082
Mof_C 	C 	0.8311	0.0949	0.1711	-0.036
Mof_C 	C 	0.102	0.769	0.231	0.012
Mof_C 	C 	0.646	0.8179	0.8179	0.373
Mof_C 	C 	0.597	0.5751	0.2145	0.165
Mof_C 	C 	0.2733	0.1527	0.6957	0.377
Mof_C 	C 	0.5842	0.9646	0.3218	0.024
Mof_C 	C 	0.0357	0.1403	0.8597	-0.135
Mof_C 	C 	0.32	0.2246	0.4844	0.164
Mof_C 	C 	0.2142	0.8906	0.9672	0.084
Mof_C 	C 	0.68	0.4844	0.2246	0.165
Mof_C 	C 	0.699	0.7666	0.4512	-0.165
Mof_C 	C 	0.1263	0.8859	0.1141	0.353
Mof_C 	C 	0.2353	0.3167	0.9653	0.013
Mof_C 	C 	0.9634	0.2599	0.5709	0.335
Mof_C 	C 	0.269	0.8589	0.8587	-0.037
Mof_C 	C 	0.731	0.8587	0.8589	-0.034
Mof_C 	C 	0.6912	0.685	0.0724	-0.013
Mof_C 	C 	0.269	0.1413	0.1411	-0.076
Mof_C 	C 	0.731	0.1411	0.1413	-0.07
Mof_C 	C 	0.85	0.1989	0.8011	-0.125
Mof_C 	C 	0.286	0.3108	0.4836	-0.148
Mof_C 	C 	0.8737	0.1141	0.8859	0.318
Mof_C 	C 	0.1277	0.5091	0.2405	-0.008
Mof_C 	C 	0.68	0.7754	0.5156	0.167
Mof_C 	C 	0.3753	0.2587	0.4663	-0.055
Mof_C 	C 	0.603	0.589	0.315	-0.071
Mof_C 	C 	0.0951	0.1301	0.0577	0.016
Mof_C 	C 	0.597	0.7855	0.4249	0.167
Mof_C 	C 	0.0749	0.1765	0.8235	0.075
Mof_C 	C 	0.14	0.4421	0.2535	-0.083
Mof_C 	C 	0.584	0.6918	0.4778	0.036
Mof_C 	C 	0.301	0.2334	0.5488	-0.161
Mof_C 	C 	0.7858	0.9672	0.8906	0.093
Mof_C 	C 	0.9643	0.8597	0.1403	-0.008
Mof_C 	C 	0.2254	0.387	0.2358	0.062
Mof_C 	C 	0.2042	0.7912	0.4816	-0.081
Mof_C 	C 	0.0366	0.5709	0.2599	0.271
Mof_C 	C 	0.6247	0.7413	0.5337	-0.052
Mof_C 	C 	0.2042	0.5184	0.2088	-0.082
Mof_C 	C 	0.603	0.685	0.411	-0.073
Mof_C 	C 	0.4464	0.9626	0.6744	0.103
Mof_C 	C 	0.4158	0.0354	0.6782	-0.129
Mof_C 	C 	0.7095	0.1487	0.0703	-0.018
Mof_C 	C 	0.86	0.2535	0.4421	-0.069
Mof_C 	C 	0.732	0.5497	0.3159	0.131
Mof_C 	C 	0.1277	0.7595	0.4909	-0.006
Mof_C 	C 	0.2353	0.0347	0.6833	-0.132
Mof_C 	C 	0.7647	0.6833	0.0347	-0.118
Mof_C 	C 	0.5939	0.7449	0.6001	0.34
Mof_C 	C 	0.1689	0.1711	0.0949	-0.037
Mof_C 	C 	0.2142	0.0328	0.1094	-0.044
Mof_C 	C 	0.7746	0.613	0.7642	0.062
Mof_C 	C 	0.6247	0.4663	0.2587	-0.053
Mof_C 	C 	0.3753	0.5337	0.7413	-0.053
Mof_C 	C 	0.8723	0.2405	0.5091	-0.021
Mof_C 	C 	0.4158	0.3218	0.9646	0.015
Mof_C 	C 	0.397	0.411	0.685	-0.073
Mof_C 	C 	0.268	0.4503	0.6841	0.131
Mof_C 	C 	0.7746	0.2358	0.387	0.06
Mof_C 	C 	0.8723	0.4909	0.7595	-0.018
Mof_C 	C 	0.5705	0.7935	0.4883	-0.209
Mof_C 	C 	0.4295	0.2065	0.5117	-0.205
Mof_C 	C 	0.5842	0.6782	0.0354	-0.117
Mof_C 	C 	0.714	0.4836	0.3108	-0.148
Mof_C 	C 	0.2733	0.3043	0.8473	0.411
Mof_C 	C 	0.5939	0.3999	0.2551	0.34
Mof_C 	C 	0.3088	0.0724	0.685	-0.009
Mof_C 	C 	0.5536	0.0374	0.3256	-0.025
Mof_C 	C 	0.2905	0.0703	0.1487	-0.012
Mof_C 	C 	0.898	0.231	0.769	0.119
Mof_C 	C 	0.2867	0.4605	0.1919	0.05
Mof_C 	C 	0.699	0.5488	0.2334	-0.163
Mof_C 	C 	0.286	0.5164	0.6892	-0.149
Mof_C 	C 	0.8311	0.8289	0.9051	-0.056
Mof_C 	C 	0.7958	0.2088	0.5184	-0.07
Mof_C 	C 	0.15	0.8011	0.1989	-0.038
Mof_C 	C 	0.9049	0.8699	0.9423	0.043
Mof_C 	C 	0.1689	0.9051	0.8289	-0.058
Mof_C 	C 	0.7647	0.9653	0.3167	0.021
Mof_N 	N 	0.3359	0.4003	0.7253	-0.214
Mof_N 	N 	0.8821	0.939	0.9362	-0.205
Mof_N 	N 	0.2996	0.3952	0.2066	-0.213
Mof_N 	N 	0.7004	0.2066	0.3952	-0.211
Mof_N 	N 	0.2996	0.7934	0.6048	-0.213
Mof_N 	N 	0.8821	0.0638	0.061	-0.199
Mof_N 	N 	0.6641	0.5997	0.2747	-0.214
Mof_N 	N 	0.6641	0.7253	0.4003	-0.214
Mof_N 	N 	0.3755	0.9259	0.6751	-0.229
Mof_N 	N 	0.1179	0.061	0.0638	-0.207
Mof_N 	N 	0.6245	0.0741	0.3249	-0.19
Mof_N 	N 	0.3755	0.3249	0.0741	-0.192
Mof_N 	N 	0.0057	0.2215	0.7785	-0.237
Mof_N 	N 	0.1179	0.9362	0.939	-0.212
Mof_N 	N 	0.3359	0.2747	0.5997	-0.214
Mof_N 	N 	0.6245	0.6751	0.9259	-0.226
Mof_N 	N 	0.7004	0.6048	0.7934	-0.211
Mof_N 	N 	0.9943	0.7785	0.2215	-0.182
Mof_O 	O 	0.599	0.6769	0.6147	-0.043
Mof_O 	O 	0.7711	0.1263	0.8737	-0.271
Mof_O 	O 	0.2289	0.8737	0.1263	-0.283
Mof_O 	O 	0.5651	0.8466	0.773	-0.423
Mof_O 	O 	0.9575	0.3688	0.7446	-0.371
Mof_O 	O 	0.6573	0.6968	0.184	-0.447
Mof_O 	O 	0.1543	0.324	0.676	-0.386
Mof_O 	O 	0.3309	0.2437	0.1651	-0.428
Mof_O 	O 	0.0425	0.7446	0.3688	-0.379
Mof_O 	O 	0.5	0.7093	0.7093	-0.374
Mof_O 	O 	0.9649	0.5577	0.2829	-0.221
Mof_O 	O 	0.8227	0.7043	0.1783	-0.437
Mof_O 	O 	0.6691	0.1651	0.2437	-0.426
Mof_O 	O 	0.643	0.6953	0.6363	-0.225
Mof_O 	O 	0.4671	0.1992	0.3802	-0.406
Mof_O 	O 	0.3427	0.3032	0.816	-0.455
Mof_O 	O 	0.1773	0.1783	0.7043	-0.445
Mof_O 	O 	0.5	0.2907	0.2907	-0.374
Mof_O 	O 	0.3427	0.184	0.6968	-0.447
Mof_O 	O 	0.357	0.3047	0.3637	-0.23
Mof_O 	O 	0.4349	0.773	0.8466	-0.424
Mof_O 	O 	0.0351	0.2829	0.5577	-0.275
Mof_O 	O 	0.6573	0.816	0.3032	-0.454
Mof_O 	O 	0.0351	0.4423	0.7171	-0.273
Mof_O 	O 	0.8457	0.676	0.324	-0.379
Mof_O 	O 	0.401	0.6147	0.6769	-0.042
Mof_O 	O 	0.643	0.3637	0.3047	-0.226
Mof_O 	O 	0.5329	0.3802	0.1992	-0.405
Mof_O 	O 	0.401	0.3231	0.3853	-0.041
Mof_O 	O 	0.6691	0.7563	0.8349	-0.42
Mof_O 	O 	0.357	0.6363	0.6953	-0.229
Mof_O 	O 	0.0534	0.9275	0.0725	-0.43
Mof_O 	O 	0.4671	0.6198	0.8008	-0.404
Mof_O 	O 	0.5329	0.8008	0.6198	-0.403
Mof_O 	O 	0.3309	0.8349	0.7563	-0.422
Mof_O 	O 	0.4349	0.1534	0.227	-0.431
Mof_O 	O 	0.1773	0.2957	0.8217	-0.451
Mof_O 	O 	0.5651	0.227	0.1534	-0.43
Mof_O 	O 	0.599	0.3853	0.3231	-0.042
Mof_O 	O 	0.0425	0.6312	0.2554	-0.38
Mof_O 	O 	0.9466	0.0725	0.9275	-0.397
Mof_O 	O 	0.9649	0.7171	0.4423	-0.221
Mof_O 	O 	0.8227	0.8217	0.2957	-0.443
Mof_O 	O 	0.9575	0.2554	0.6312	-0.373
_end
