# CIF file generated by openbabel 3.1.0, see https://openbabel.org
data_I
_chemical_name_common 'image0'
_cell_length_a 22.8131
_cell_length_b 22.8131
_cell_length_c 7.7879
_cell_angle_alpha 90
_cell_angle_beta 90
_cell_angle_gamma 90
_space_group_name_H-M_alt 'P 1'
_space_group_name_Hall 'P 1'
loop_
    _symmetry_equiv_pos_as_xyz
    x,y,z
loop_
    _atom_site_label
    _atom_site_type_symbol
    _atom_site_fract_x
    _atom_site_fract_y
    _atom_site_fract_z
    _atom_site_occupancy
    Ag1      Ag       0.51168    0.62687    0.23171    1.000
    N1       N        0.63006    0.89596    0.36200    1.000
    N2       N        0.66760    0.63088    0.57310    1.000
    N3       N        0.68126    0.68734    0.52390    1.000
    N4       N        0.58650    0.68269    0.57630    1.000
    N5       N        0.52690    0.46709    0.72110    1.000
    N6       N        0.48732    0.67449    0.50410    1.000
    C1       C        0.58070    0.80440    0.39600    1.000
    H1       H        0.54700    0.78230    0.37860    1.000
    C2       C        0.58260    0.86210    0.34520    1.000
    H2       H        0.54910    0.87840    0.29660    1.000
    C3       C        0.67740    0.87120    0.43230    1.000
    H3       H        0.71130    0.89350    0.44220    1.000
    C4       C        0.67860    0.81440    0.49070    1.000
    H4       H        0.71230    0.79950    0.54180    1.000
    C5       C        0.62918    0.77940    0.47290    1.000
    C6       C        0.63280    0.71760    0.52710    1.000
    C7       C        0.61110    0.62850    0.60250    1.000
    C8       C        0.58050    0.57430    0.65040    1.000
    C9       C        0.60320    0.52240    0.58810    1.000
    H5       H        0.63690    0.52260    0.52090    1.000
    C10      C        0.57560    0.47050    0.62600    1.000
    H6       H        0.59170    0.43600    0.58350    1.000
    C11      C        0.50580    0.51770    0.78280    1.000
    H7       H        0.47240    0.51650    0.85090    1.000
    C12      C        0.53100    0.57180    0.75080    1.000
    H8       H        0.51480    0.60580    0.79630    1.000
    C13      C        0.52683    0.70067    0.60270    1.000
    C14      C        0.43140    0.69100    0.52690    1.000
    H9       H        0.40250    0.67290    0.46130    1.000
    C15      C        0.41500    0.73290    0.64140    1.000
    H10      H        0.37570    0.74290    0.65320    1.000
    C16      C        0.45670    0.76020    0.73940    1.000
    H11      H        0.44620    0.78970    0.81600    1.000
    C17      C        0.51450    0.74330    0.72240    1.000
    H12      H        0.54390    0.76000    0.78920    1.000
    Ag2      Ag       0.98832    0.87313    0.23171    1.000
    N7       N        0.86994    0.60404    0.36200    1.000
    N8       N        0.83240    0.86912    0.57310    1.000
    N9       N        0.81874    0.81266    0.52390    1.000
    N10      N        0.91350    0.81731    0.57630    1.000
    N11      N        0.97310    0.03291    0.72110    1.000
    N12      N        0.01268    0.82551    0.50410    1.000
    C18      C        0.91930    0.69560    0.39600    1.000
    H13      H        0.95300    0.71770    0.37860    1.000
    C19      C        0.91740    0.63790    0.34520    1.000
    H14      H        0.95090    0.62160    0.29660    1.000
    C20      C        0.82260    0.62880    0.43230    1.000
    H15      H        0.78870    0.60650    0.44220    1.000
    C21      C        0.82140    0.68560    0.49070    1.000
    H16      H        0.78770    0.70050    0.54180    1.000
    C22      C        0.87082    0.72060    0.47290    1.000
    C23      C        0.86720    0.78240    0.52710    1.000
    C24      C        0.88890    0.87150    0.60250    1.000
    C25      C        0.91950    0.92570    0.65040    1.000
    C26      C        0.89680    0.97760    0.58810    1.000
    H17      H        0.86310    0.97740    0.52090    1.000
    C27      C        0.92440    0.02950    0.62600    1.000
    H18      H        0.90830    0.06400    0.58350    1.000
    C28      C        0.99420    0.98230    0.78280    1.000
    H19      H        0.02760    0.98350    0.85090    1.000
    C29      C        0.96900    0.92820    0.75080    1.000
    H20      H        0.98520    0.89420    0.79630    1.000
    C30      C        0.97317    0.79933    0.60270    1.000
    C31      C        0.06860    0.80900    0.52690    1.000
    H21      H        0.09750    0.82710    0.46130    1.000
    C32      C        0.08500    0.76710    0.64140    1.000
    H22      H        0.12430    0.75710    0.65320    1.000
    C33      C        0.04330    0.73980    0.73940    1.000
    H23      H        0.05380    0.71030    0.81600    1.000
    C34      C        0.98550    0.75670    0.72240    1.000
    H24      H        0.95610    0.74000    0.78920    1.000
    Ag3      Ag       0.37313    0.01168    0.73171    1.000
    N13      N        0.10404    0.13006    0.86200    1.000
    N14      N        0.36912    0.16760    0.07310    1.000
    N15      N        0.31266    0.18126    0.02390    1.000
    N16      N        0.31731    0.08650    0.07630    1.000
    N17      N        0.53291    0.02690    0.22110    1.000
    N18      N        0.32551    0.98732    0.00410    1.000
    C35      C        0.19560    0.08070    0.89600    1.000
    H25      H        0.21770    0.04700    0.87860    1.000
    C36      C        0.13790    0.08260    0.84520    1.000
    H26      H        0.12160    0.04910    0.79660    1.000
    C37      C        0.12880    0.17740    0.93230    1.000
    H27      H        0.10650    0.21130    0.94220    1.000
    C38      C        0.18560    0.17860    0.99070    1.000
    H28      H        0.20050    0.21230    0.04180    1.000
    C39      C        0.22060    0.12918    0.97290    1.000
    C40      C        0.28240    0.13280    0.02710    1.000
    C41      C        0.37150    0.11110    0.10250    1.000
    C42      C        0.42570    0.08050    0.15040    1.000
    C43      C        0.47760    0.10320    0.08810    1.000
    H29      H        0.47740    0.13690    0.02090    1.000
    C44      C        0.52950    0.07560    0.12600    1.000
    H30      H        0.56400    0.09170    0.08350    1.000
    C45      C        0.48230    0.00580    0.28280    1.000
    H31      H        0.48350    0.97240    0.35090    1.000
    C46      C        0.42820    0.03100    0.25080    1.000
    H32      H        0.39420    0.01480    0.29630    1.000
    C47      C        0.29933    0.02683    0.10270    1.000
    C48      C        0.30900    0.93140    0.02690    1.000
    H33      H        0.32710    0.90250    0.96130    1.000
    C49      C        0.26710    0.91500    0.14140    1.000
    H34      H        0.25710    0.87570    0.15320    1.000
    C50      C        0.23980    0.95670    0.23940    1.000
    H35      H        0.21030    0.94620    0.31600    1.000
    C51      C        0.25670    0.01450    0.22240    1.000
    H36      H        0.24000    0.04390    0.28920    1.000
    Ag4      Ag       0.12687    0.48832    0.73171    1.000
    N19      N        0.39596    0.36994    0.86200    1.000
    N20      N        0.13088    0.33240    0.07310    1.000
    N21      N        0.18734    0.31874    0.02390    1.000
    N22      N        0.18269    0.41350    0.07630    1.000
    N23      N        0.96709    0.47310    0.22110    1.000
    N24      N        0.17449    0.51268    0.00410    1.000
    C52      C        0.30440    0.41930    0.89600    1.000
    H37      H        0.28230    0.45300    0.87860    1.000
    C53      C        0.36210    0.41740    0.84520    1.000
    H38      H        0.37840    0.45090    0.79660    1.000
    C54      C        0.37120    0.32260    0.93230    1.000
    H39      H        0.39350    0.28870    0.94220    1.000
    C55      C        0.31440    0.32140    0.99070    1.000
    H40      H        0.29950    0.28770    0.04180    1.000
    C56      C        0.27940    0.37082    0.97290    1.000
    C57      C        0.21760    0.36720    0.02710    1.000
    C58      C        0.12850    0.38890    0.10250    1.000
    C59      C        0.07430    0.41950    0.15040    1.000
    C60      C        0.02240    0.39680    0.08810    1.000
    H41      H        0.02260    0.36310    0.02090    1.000
    C61      C        0.97050    0.42440    0.12600    1.000
    H42      H        0.93600    0.40830    0.08350    1.000
    C62      C        0.01770    0.49420    0.28280    1.000
    H43      H        0.01650    0.52760    0.35090    1.000
    C63      C        0.07180    0.46900    0.25080    1.000
    H44      H        0.10580    0.48520    0.29630    1.000
    C64      C        0.20067    0.47317    0.10270    1.000
    C65      C        0.19100    0.56860    0.02690    1.000
    H45      H        0.17290    0.59750    0.96130    1.000
    C66      C        0.23290    0.58500    0.14140    1.000
    H46      H        0.24290    0.62430    0.15320    1.000
    C67      C        0.26020    0.54330    0.23940    1.000
    H47      H        0.28970    0.55380    0.31600    1.000
    C68      C        0.24330    0.48550    0.22240    1.000
    H48      H        0.26000    0.45610    0.28920    1.000
    Ag5      Ag       0.48832    0.37313    0.76829    1.000
    N25      N        0.36994    0.10404    0.63800    1.000
    N26      N        0.33240    0.36912    0.42690    1.000
    N27      N        0.31874    0.31266    0.47610    1.000
    N28      N        0.41350    0.31731    0.42370    1.000
    N29      N        0.47310    0.53291    0.27890    1.000
    N30      N        0.51268    0.32551    0.49590    1.000
    C69      C        0.41930    0.19560    0.60400    1.000
    H49      H        0.45300    0.21770    0.62140    1.000
    C70      C        0.41740    0.13790    0.65480    1.000
    H50      H        0.45090    0.12160    0.70340    1.000
    C71      C        0.32260    0.12880    0.56770    1.000
    H51      H        0.28870    0.10650    0.55780    1.000
    C72      C        0.32140    0.18560    0.50930    1.000
    H52      H        0.28770    0.20050    0.45820    1.000
    C73      C        0.37082    0.22060    0.52710    1.000
    C74      C        0.36720    0.28240    0.47290    1.000
    C75      C        0.38890    0.37150    0.39750    1.000
    C76      C        0.41950    0.42570    0.34960    1.000
    C77      C        0.39680    0.47760    0.41190    1.000
    H53      H        0.36310    0.47740    0.47910    1.000
    C78      C        0.42440    0.52950    0.37400    1.000
    H54      H        0.40830    0.56400    0.41650    1.000
    C79      C        0.49420    0.48230    0.21720    1.000
    H55      H        0.52760    0.48350    0.14910    1.000
    C80      C        0.46900    0.42820    0.24920    1.000
    H56      H        0.48520    0.39420    0.20370    1.000
    C81      C        0.47317    0.29933    0.39730    1.000
    C82      C        0.56860    0.30900    0.47310    1.000
    H57      H        0.59750    0.32710    0.53870    1.000
    C83      C        0.58500    0.26710    0.35860    1.000
    H58      H        0.62430    0.25710    0.34680    1.000
    C84      C        0.54330    0.23980    0.26060    1.000
    H59      H        0.55380    0.21030    0.18400    1.000
    C85      C        0.48550    0.25670    0.27760    1.000
    H60      H        0.45610    0.24000    0.21080    1.000
    Ag6      Ag       0.01168    0.12687    0.76829    1.000
    N31      N        0.13006    0.39596    0.63800    1.000
    N32      N        0.16760    0.13088    0.42690    1.000
    N33      N        0.18126    0.18734    0.47610    1.000
    N34      N        0.08650    0.18269    0.42370    1.000
    N35      N        0.02690    0.96709    0.27890    1.000
    N36      N        0.98732    0.17449    0.49590    1.000
    C86      C        0.08070    0.30440    0.60400    1.000
    H61      H        0.04700    0.28230    0.62140    1.000
    C87      C        0.08260    0.36210    0.65480    1.000
    H62      H        0.04910    0.37840    0.70340    1.000
    C88      C        0.17740    0.37120    0.56770    1.000
    H63      H        0.21130    0.39350    0.55780    1.000
    C89      C        0.17860    0.31440    0.50930    1.000
    H64      H        0.21230    0.29950    0.45820    1.000
    C90      C        0.12918    0.27940    0.52710    1.000
    C91      C        0.13280    0.21760    0.47290    1.000
    C92      C        0.11110    0.12850    0.39750    1.000
    C93      C        0.08050    0.07430    0.34960    1.000
    C94      C        0.10320    0.02240    0.41190    1.000
    H65      H        0.13690    0.02260    0.47910    1.000
    C95      C        0.07560    0.97050    0.37400    1.000
    H66      H        0.09170    0.93600    0.41650    1.000
    C96      C        0.00580    0.01770    0.21720    1.000
    H67      H        0.97240    0.01650    0.14910    1.000
    C97      C        0.03100    0.07180    0.24920    1.000
    H68      H        0.01480    0.10580    0.20370    1.000
    C98      C        0.02683    0.20067    0.39730    1.000
    C99      C        0.93140    0.19100    0.47310    1.000
    H69      H        0.90250    0.17290    0.53870    1.000
    C100     C        0.91500    0.23290    0.35860    1.000
    H70      H        0.87570    0.24290    0.34680    1.000
    C101     C        0.95670    0.26020    0.26060    1.000
    H71      H        0.94620    0.28970    0.18400    1.000
    C102     C        0.01450    0.24330    0.27760    1.000
    H72      H        0.04390    0.26000    0.21080    1.000
    Ag7      Ag       0.62687    0.98832    0.26829    1.000
    N37      N        0.89596    0.86994    0.13800    1.000
    N38      N        0.63088    0.83240    0.92690    1.000
    N39      N        0.68734    0.81874    0.97610    1.000
    N40      N        0.68269    0.91350    0.92370    1.000
    N41      N        0.46709    0.97310    0.77890    1.000
    N42      N        0.67449    0.01268    0.99590    1.000
    C103     C        0.80440    0.91930    0.10400    1.000
    H73      H        0.78230    0.95300    0.12140    1.000
    C104     C        0.86210    0.91740    0.15480    1.000
    H74      H        0.87840    0.95090    0.20340    1.000
    C105     C        0.87120    0.82260    0.06770    1.000
    H75      H        0.89350    0.78870    0.05780    1.000
    C106     C        0.81440    0.82140    0.00930    1.000
    H76      H        0.79950    0.78770    0.95820    1.000
    C107     C        0.77940    0.87082    0.02710    1.000
    C108     C        0.71760    0.86720    0.97290    1.000
    C109     C        0.62850    0.88890    0.89750    1.000
    C110     C        0.57430    0.91950    0.84960    1.000
    C111     C        0.52240    0.89680    0.91190    1.000
    H77      H        0.52260    0.86310    0.97910    1.000
    C112     C        0.47050    0.92440    0.87400    1.000
    H78      H        0.43600    0.90830    0.91650    1.000
    C113     C        0.51770    0.99420    0.71720    1.000
    H79      H        0.51650    0.02760    0.64910    1.000
    C114     C        0.57180    0.96900    0.74920    1.000
    H80      H        0.60580    0.98520    0.70370    1.000
    C115     C        0.70067    0.97317    0.89730    1.000
    C116     C        0.69100    0.06860    0.97310    1.000
    H81      H        0.67290    0.09750    0.03870    1.000
    C117     C        0.73290    0.08500    0.85860    1.000
    H82      H        0.74290    0.12430    0.84680    1.000
    C118     C        0.76020    0.04330    0.76060    1.000
    H83      H        0.78970    0.05380    0.68400    1.000
    C119     C        0.74330    0.98550    0.77760    1.000
    H84      H        0.76000    0.95610    0.71080    1.000
    Ag8      Ag       0.87313    0.51168    0.26829    1.000
    N43      N        0.60404    0.63006    0.13800    1.000
    N44      N        0.86912    0.66760    0.92690    1.000
    N45      N        0.81266    0.68126    0.97610    1.000
    N46      N        0.81731    0.58650    0.92370    1.000
    N47      N        0.03291    0.52690    0.77890    1.000
    N48      N        0.82551    0.48732    0.99590    1.000
    C120     C        0.69560    0.58070    0.10400    1.000
    H85      H        0.71770    0.54700    0.12140    1.000
    C121     C        0.63790    0.58260    0.15480    1.000
    H86      H        0.62160    0.54910    0.20340    1.000
    C122     C        0.62880    0.67740    0.06770    1.000
    H87      H        0.60650    0.71130    0.05780    1.000
    C123     C        0.68560    0.67860    0.00930    1.000
    H88      H        0.70050    0.71230    0.95820    1.000
    C124     C        0.72060    0.62918    0.02710    1.000
    C125     C        0.78240    0.63280    0.97290    1.000
    C126     C        0.87150    0.61110    0.89750    1.000
    C127     C        0.92570    0.58050    0.84960    1.000
    C128     C        0.97760    0.60320    0.91190    1.000
    H89      H        0.97740    0.63690    0.97910    1.000
    C129     C        0.02950    0.57560    0.87400    1.000
    H90      H        0.06400    0.59170    0.91650    1.000
    C130     C        0.98230    0.50580    0.71720    1.000
    H91      H        0.98350    0.47240    0.64910    1.000
    C131     C        0.92820    0.53100    0.74920    1.000
    H92      H        0.89420    0.51480    0.70370    1.000
    C132     C        0.79933    0.52683    0.89730    1.000
    C133     C        0.80900    0.43140    0.97310    1.000
    H93      H        0.82710    0.40250    0.03870    1.000
    C134     C        0.76710    0.41500    0.85860    1.000
    H94      H        0.75710    0.37570    0.84680    1.000
    C135     C        0.73980    0.45670    0.76060    1.000
    H95      H        0.71030    0.44620    0.68400    1.000
    C136     C        0.75670    0.51450    0.77760    1.000
    H96      H        0.74000    0.54390    0.71080    1.000
