data_functionalizedCrystal
_audit_creation_method	'EQeq! by Chris Wilmer'
_symmetry_space_group_name_H-M	'P1'
_symmetry_Int_Tables_number	1
_symmetry_cell_setting	triclinic
loop_
_symmetry_equiv_pos_as_xyz
  x,y,z
_cell_length_a	9.905
_cell_length_b	10.333
_cell_length_c	13.562
_cell_angle_alpha	82
_cell_angle_beta	86.62
_cell_angle_gamma	65.76
loop_
_atom_site_label
_atom_site_type_symbol
_atom_site_fract_x
_atom_site_fract_y
_atom_site_fract_z
_atom_site_charge
Mof_Sm	Sm	0.16645	0.28325	0.8163	1.005
Mof_Mo	Mo	0.756	0.8766	0.75886	1.025
Mof_Cs	Cs	0.64854	0.05038	0.38411	2.397
Mof_O 	O 	0.1474	0.0524	0.8151	-0.528
Mof_H 	H 	0.1078	0.0394	0.7569	0.016
Mof_N 	N 	0.4207	0.0851	0.8283	-0.231
Mof_N 	N 	0.5961	0.1605	0.5934	-0.315
Mof_N 	N 	0.75	0.7641	0.5421	-0.312
Mof_N 	N 	0.0675	0.8909	0.6666	-0.303
Mof_N 	N 	0.8216	0.1266	0.8493	-0.118
Mof_N 	N 	0.0149	0.5461	0.7892	-0.246
Mof_N 	N 	0.2066	0.2192	0.9992	-0.19
Mof_N 	N 	0.5544	0.6852	0.7955	-0.184
Mof_C 	C 	0.5394	0.0091	0.8089	-0.263
Mof_C 	C 	0.6564	0.062	0.6486	-0.378
Mof_C 	C 	0.7537	0.7998	0.6175	-0.389
Mof_C 	C 	0.9575	0.8853	0.6951	-0.185
Mof_C 	C 	0.7969	0.0399	0.8199	-0.152
Mof_C 	C 	0.927	0.6616	0.7792	-0.165
Mof_C 	C 	0.2178	0.1863	0.0835	-0.137
Mof_C 	C 	0.6276	0.7486	0.7842	-0.32
Mof_C 	C 	0.191	0.9364	0.8944	0.153
Mof_H 	H 	0.2877	0.9208	0.92	-0.063
Mof_H 	H 	0.1976	0.8494	0.8696	-0.089
Mof_H 	H 	0.1175	0.9598	0.9481	-0.03
Mof_Sm	Sm	0.83355	0.71675	0.1837	1.006
Mof_Mo	Mo	0.244	0.1234	0.24114	1.026
Mof_Cs	Cs	0.35146	0.94962	0.61589	2.398
Mof_O 	O 	0.8526	0.9476	0.1849	-0.527
Mof_H 	H 	0.8922	0.9606	0.2431	0.016
Mof_N 	N 	0.5793	0.9149	0.1717	-0.231
Mof_N 	N 	0.4039	0.8395	0.4066	-0.315
Mof_N 	N 	0.25	0.2359	0.4579	-0.312
Mof_N 	N 	0.9325	0.1091	0.3334	-0.303
Mof_N 	N 	0.1784	0.8734	0.1507	-0.118
Mof_N 	N 	0.9851	0.4539	0.2108	-0.246
Mof_N 	N 	0.7934	0.7808	0.0008	-0.19
Mof_N 	N 	0.4456	0.3148	0.2045	-0.184
Mof_C 	C 	0.4606	0.9909	0.1911	-0.263
Mof_C 	C 	0.3436	0.938	0.3514	-0.378
Mof_C 	C 	0.2463	0.2002	0.3825	-0.389
Mof_C 	C 	0.0425	0.1147	0.3049	-0.185
Mof_C 	C 	0.2031	0.9601	0.1801	-0.152
Mof_C 	C 	0.073	0.3384	0.2208	-0.165
Mof_C 	C 	0.7822	0.8137	0.9165	-0.137
Mof_C 	C 	0.3724	0.2514	0.2158	-0.32
Mof_C 	C 	0.809	0.0636	0.1056	0.153
Mof_H 	H 	0.7123	0.0792	0.08	-0.063
Mof_H 	H 	0.8024	0.1506	0.1304	-0.089
Mof_H 	H 	0.8825	0.0402	0.0519	-0.03
_end
