data_functionalizedCrystal
_audit_creation_method	'EQeq! by Chris Wilmer'
_symmetry_space_group_name_H-M	'P1'
_symmetry_Int_Tables_number	1
_symmetry_cell_setting	triclinic
loop_
_symmetry_equiv_pos_as_xyz
  x,y,z
_cell_length_a	15.188
_cell_length_b	25.73
_cell_length_c	26.94
_cell_angle_alpha	90
_cell_angle_beta	90
_cell_angle_gamma	90
loop_
_atom_site_label
_atom_site_type_symbol
_atom_site_fract_x
_atom_site_fract_y
_atom_site_fract_z
_atom_site_charge
Mof_Tb	Tb	0.3501	0.39714	0.81634	1.95
Mof_Tb	Tb	0.3501	0.10286	0.18366	1.95
Mof_Tb	Tb	0.1499	0.10286	0.31634	1.95
Mof_Tb	Tb	0.1499	0.39714	0.68366	1.951
Mof_Tb	Tb	0.6499	0.60286	0.18366	1.951
Mof_Tb	Tb	0.6499	0.89714	0.81634	1.951
Mof_Tb	Tb	0.8501	0.89714	0.68366	1.95
Mof_Tb	Tb	0.8501	0.60286	0.31634	1.951
Mof_H 	H 	0.5433	0.6363	0.5898	0.114
Mof_H 	H 	0.5433	0.8637	0.4102	0.114
Mof_H 	H 	0.9567	0.8637	0.0898	0.113
Mof_H 	H 	0.9567	0.6363	0.9102	0.114
Mof_H 	H 	0.4567	0.3637	0.4102	0.114
Mof_H 	H 	0.4567	0.1363	0.5898	0.114
Mof_H 	H 	0.0433	0.1363	0.9102	0.113
Mof_H 	H 	0.0433	0.3637	0.0898	0.114
Mof_C 	C 	0.5888	0.6223	0.6118	0.006
Mof_C 	C 	0.6504	0.609	0.5712	0.016
Mof_C 	C 	0.7435	0.6162	0.5704	0.116
Mof_C 	C 	0.7956	0.6033	0.5288	0.171
Mof_C 	C 	0.7608	0.5821	0.486	-0.124
Mof_C 	C 	0.6679	0.5752	0.4846	0.184
Mof_C 	C 	0.6102	0.5867	0.5267	0.119
Mof_C 	C 	0.8159	0.5682	0.4402	0.426
Mof_C 	C 	0.5262	0.5803	0.6367	0.019
Mof_C 	C 	0.5572	0.5286	0.6484	0.117
Mof_C 	C 	0.4969	0.4928	0.6693	0.2
Mof_C 	C 	0.4081	0.504	0.6801	-0.163
Mof_C 	C 	0.3779	0.5552	0.6707	0.197
Mof_C 	C 	0.4396	0.5919	0.6485	0.109
Mof_C 	C 	0.3446	0.4647	0.7034	0.538
Mof_C 	C 	0.5977	0.6722	0.6427	0.012
Mof_C 	C 	0.5961	0.7185	0.6145	0.103
Mof_C 	C 	0.6049	0.7669	0.6377	0.193
Mof_C 	C 	0.6311	0.7702	0.6888	-0.146
Mof_C 	C 	0.6221	0.7243	0.7166	0.181
Mof_C 	C 	0.6141	0.6756	0.6942	0.123
Mof_C 	C 	0.6519	0.8211	0.714	0.463
Mof_C 	C 	0.5888	0.8777	0.3882	0.006
Mof_C 	C 	0.6504	0.891	0.4288	0.016
Mof_C 	C 	0.7435	0.8838	0.4296	0.116
Mof_C 	C 	0.7956	0.8967	0.4712	0.171
Mof_C 	C 	0.7608	0.9179	0.514	-0.124
Mof_C 	C 	0.6679	0.9248	0.5154	0.184
Mof_C 	C 	0.6102	0.9133	0.4733	0.119
Mof_C 	C 	0.8159	0.9318	0.5598	0.426
Mof_C 	C 	0.5262	0.9197	0.3633	0.019
Mof_C 	C 	0.5572	0.9714	0.3516	0.118
Mof_C 	C 	0.4969	0.0072	0.3307	0.199
Mof_C 	C 	0.4081	0.996	0.3199	-0.162
Mof_C 	C 	0.3779	0.9448	0.3293	0.197
Mof_C 	C 	0.4396	0.9081	0.3515	0.109
Mof_C 	C 	0.3446	0.0353	0.2966	0.537
Mof_C 	C 	0.5977	0.8278	0.3573	0.012
Mof_C 	C 	0.5961	0.7815	0.3855	0.103
Mof_C 	C 	0.6049	0.7331	0.3623	0.193
Mof_C 	C 	0.6311	0.7298	0.3112	-0.146
Mof_C 	C 	0.6221	0.7757	0.2834	0.181
Mof_C 	C 	0.6141	0.8244	0.3058	0.123
Mof_C 	C 	0.6519	0.6789	0.286	0.463
Mof_C 	C 	0.9112	0.8777	0.1118	0.007
Mof_C 	C 	0.8496	0.891	0.0712	0.016
Mof_C 	C 	0.7565	0.8838	0.0704	0.116
Mof_C 	C 	0.7044	0.8967	0.0288	0.172
Mof_C 	C 	0.7392	0.9179	0.986	-0.125
Mof_C 	C 	0.8321	0.9248	0.9846	0.184
Mof_C 	C 	0.8898	0.9133	0.0267	0.118
Mof_C 	C 	0.6841	0.9318	0.9402	0.426
Mof_C 	C 	0.9738	0.9197	0.1367	0.016
Mof_C 	C 	0.9428	0.9714	0.1484	0.119
Mof_C 	C 	0.0031	0.0072	0.1693	0.195
Mof_C 	C 	0.0919	0.996	0.1801	-0.158
Mof_C 	C 	0.1221	0.9448	0.1707	0.196
Mof_C 	C 	0.0604	0.9081	0.1485	0.112
Mof_C 	C 	0.1554	0.0353	0.2034	0.535
Mof_C 	C 	0.9023	0.8278	0.1427	0.012
Mof_C 	C 	0.9039	0.7815	0.1145	0.103
Mof_C 	C 	0.8951	0.7331	0.1377	0.192
Mof_C 	C 	0.8689	0.7298	0.1888	-0.146
Mof_C 	C 	0.8779	0.7757	0.2166	0.181
Mof_C 	C 	0.8859	0.8244	0.1942	0.123
Mof_C 	C 	0.8481	0.6789	0.214	0.463
Mof_C 	C 	0.9112	0.6223	0.8882	0.006
Mof_C 	C 	0.8496	0.609	0.9288	0.016
Mof_C 	C 	0.7565	0.6162	0.9296	0.116
Mof_C 	C 	0.7044	0.6033	0.9712	0.171
Mof_C 	C 	0.7392	0.5821	0.014	-0.124
Mof_C 	C 	0.8321	0.5752	0.0154	0.184
Mof_C 	C 	0.8898	0.5867	0.9733	0.119
Mof_C 	C 	0.6841	0.5682	0.0598	0.426
Mof_C 	C 	0.9738	0.5803	0.8633	0.018
Mof_C 	C 	0.9428	0.5286	0.8516	0.117
Mof_C 	C 	0.0031	0.4928	0.8307	0.199
Mof_C 	C 	0.0919	0.504	0.8199	-0.163
Mof_C 	C 	0.1221	0.5552	0.8293	0.197
Mof_C 	C 	0.0604	0.5919	0.8515	0.109
Mof_C 	C 	0.1554	0.4647	0.7966	0.538
Mof_C 	C 	0.9023	0.6722	0.8573	0.012
Mof_C 	C 	0.9039	0.7185	0.8855	0.103
Mof_C 	C 	0.8951	0.7669	0.8623	0.192
Mof_C 	C 	0.8689	0.7702	0.8112	-0.146
Mof_C 	C 	0.8779	0.7243	0.7834	0.181
Mof_C 	C 	0.8859	0.6756	0.8058	0.123
Mof_C 	C 	0.8481	0.8211	0.786	0.463
Mof_C 	C 	0.4112	0.3777	0.3882	0.006
Mof_C 	C 	0.3496	0.391	0.4288	0.016
Mof_C 	C 	0.2565	0.3838	0.4296	0.116
Mof_C 	C 	0.2044	0.3967	0.4712	0.171
Mof_C 	C 	0.2392	0.4179	0.514	-0.124
Mof_C 	C 	0.3321	0.4248	0.5154	0.184
Mof_C 	C 	0.3898	0.4133	0.4733	0.119
Mof_C 	C 	0.1841	0.4318	0.5598	0.426
Mof_C 	C 	0.4738	0.4197	0.3633	0.019
Mof_C 	C 	0.4428	0.4714	0.3516	0.117
Mof_C 	C 	0.5031	0.5072	0.3307	0.2
Mof_C 	C 	0.5919	0.496	0.3199	-0.163
Mof_C 	C 	0.6221	0.4448	0.3293	0.197
Mof_C 	C 	0.5604	0.4081	0.3515	0.109
Mof_C 	C 	0.6554	0.5353	0.2966	0.538
Mof_C 	C 	0.4023	0.3278	0.3573	0.012
Mof_C 	C 	0.4039	0.2815	0.3855	0.103
Mof_C 	C 	0.3951	0.2331	0.3623	0.193
Mof_C 	C 	0.3689	0.2298	0.3112	-0.146
Mof_C 	C 	0.3779	0.2757	0.2834	0.181
Mof_C 	C 	0.3859	0.3244	0.3058	0.123
Mof_C 	C 	0.3481	0.1789	0.286	0.463
Mof_C 	C 	0.4112	0.1223	0.6118	0.006
Mof_C 	C 	0.3496	0.109	0.5712	0.016
Mof_C 	C 	0.2565	0.1162	0.5704	0.116
Mof_C 	C 	0.2044	0.1033	0.5288	0.171
Mof_C 	C 	0.2392	0.0821	0.486	-0.124
Mof_C 	C 	0.3321	0.0752	0.4846	0.184
Mof_C 	C 	0.3898	0.0867	0.5267	0.119
Mof_C 	C 	0.1841	0.0682	0.4402	0.426
Mof_C 	C 	0.4738	0.0803	0.6367	0.019
Mof_C 	C 	0.4428	0.0286	0.6484	0.118
Mof_C 	C 	0.5031	0.9928	0.6693	0.199
Mof_C 	C 	0.5919	0.004	0.6801	-0.162
Mof_C 	C 	0.6221	0.0552	0.6707	0.197
Mof_C 	C 	0.5604	0.0919	0.6485	0.109
Mof_C 	C 	0.6554	0.9647	0.7034	0.537
Mof_C 	C 	0.4023	0.1722	0.6427	0.012
Mof_C 	C 	0.4039	0.2185	0.6145	0.103
Mof_C 	C 	0.3951	0.2669	0.6377	0.193
Mof_C 	C 	0.3689	0.2702	0.6888	-0.146
Mof_C 	C 	0.3779	0.2243	0.7166	0.181
Mof_C 	C 	0.3859	0.1756	0.6942	0.123
Mof_C 	C 	0.3481	0.3211	0.714	0.463
Mof_C 	C 	0.0888	0.1223	0.8882	0.007
Mof_C 	C 	0.1504	0.109	0.9288	0.016
Mof_C 	C 	0.2435	0.1162	0.9296	0.116
Mof_C 	C 	0.2956	0.1033	0.9712	0.172
Mof_C 	C 	0.2608	0.0821	0.014	-0.125
Mof_C 	C 	0.1679	0.0752	0.0154	0.184
Mof_C 	C 	0.1102	0.0867	0.9733	0.118
Mof_C 	C 	0.3159	0.0682	0.0598	0.426
Mof_C 	C 	0.0262	0.0803	0.8633	0.016
Mof_C 	C 	0.0572	0.0286	0.8516	0.119
Mof_C 	C 	0.9969	0.9928	0.8307	0.195
Mof_C 	C 	0.9081	0.004	0.8199	-0.158
Mof_C 	C 	0.8779	0.0552	0.8293	0.196
Mof_C 	C 	0.9396	0.0919	0.8515	0.112
Mof_C 	C 	0.8446	0.9647	0.7966	0.535
Mof_C 	C 	0.0977	0.1722	0.8573	0.012
Mof_C 	C 	0.0961	0.2185	0.8855	0.103
Mof_C 	C 	0.1049	0.2669	0.8623	0.192
Mof_C 	C 	0.1311	0.2702	0.8112	-0.146
Mof_C 	C 	0.1221	0.2243	0.7834	0.181
Mof_C 	C 	0.1141	0.1756	0.8058	0.123
Mof_C 	C 	0.1519	0.3211	0.786	0.463
Mof_C 	C 	0.0888	0.3777	0.1118	0.006
Mof_C 	C 	0.1504	0.391	0.0712	0.016
Mof_C 	C 	0.2435	0.3838	0.0704	0.116
Mof_C 	C 	0.2956	0.3967	0.0288	0.171
Mof_C 	C 	0.2608	0.4179	0.986	-0.124
Mof_C 	C 	0.1679	0.4248	0.9846	0.184
Mof_C 	C 	0.1102	0.4133	0.0267	0.119
Mof_C 	C 	0.3159	0.4318	0.9402	0.426
Mof_C 	C 	0.0262	0.4197	0.1367	0.018
Mof_C 	C 	0.0572	0.4714	0.1484	0.117
Mof_C 	C 	0.9969	0.5072	0.1693	0.199
Mof_C 	C 	0.9081	0.496	0.1801	-0.163
Mof_C 	C 	0.8779	0.4448	0.1707	0.197
Mof_C 	C 	0.9396	0.4081	0.1485	0.109
Mof_C 	C 	0.8446	0.5353	0.2034	0.538
Mof_C 	C 	0.0977	0.3278	0.1427	0.012
Mof_C 	C 	0.0961	0.2815	0.1145	0.103
Mof_C 	C 	0.1049	0.2331	0.1377	0.192
Mof_C 	C 	0.1311	0.2298	0.1888	-0.146
Mof_C 	C 	0.1221	0.2757	0.2166	0.181
Mof_C 	C 	0.1141	0.3244	0.1942	0.123
Mof_C 	C 	0.1519	0.1789	0.214	0.463
Mof_Cl	Cl	0.797	0.63858	0.62418	-0.183
Mof_Cl	Cl	0.9148	0.6143	0.52912	-0.211
Mof_Cl	Cl	0.6155	0.54546	0.43291	-0.207
Mof_Cl	Cl	0.4942	0.57826	0.52192	-0.179
Mof_Cl	Cl	0.6679	0.5117	0.636	-0.191
Mof_Cl	Cl	0.5333	0.42992	0.6781	-0.231
Mof_Cl	Cl	0.2664	0.57099	0.68294	-0.224
Mof_Cl	Cl	0.3933	0.65249	0.63516	-0.196
Mof_Cl	Cl	0.5711	0.71773	0.55161	-0.187
Mof_Cl	Cl	0.6021	0.82276	0.60334	-0.216
Mof_Cl	Cl	0.6452	0.72601	0.7816	-0.237
Mof_Cl	Cl	0.6237	0.62059	0.73106	-0.185
Mof_Cl	Cl	0.797	0.86142	0.37582	-0.184
Mof_Cl	Cl	0.9148	0.8857	0.47088	-0.211
Mof_Cl	Cl	0.6155	0.95454	0.56709	-0.207
Mof_Cl	Cl	0.4942	0.92174	0.47808	-0.179
Mof_Cl	Cl	0.6679	0.9883	0.364	-0.191
Mof_Cl	Cl	0.5333	0.07008	0.3219	-0.231
Mof_Cl	Cl	0.2664	0.92901	0.31706	-0.223
Mof_Cl	Cl	0.3933	0.84751	0.36484	-0.196
Mof_Cl	Cl	0.5711	0.78227	0.44839	-0.187
Mof_Cl	Cl	0.6021	0.67724	0.39666	-0.216
Mof_Cl	Cl	0.6452	0.77399	0.2184	-0.237
Mof_Cl	Cl	0.6237	0.87941	0.26894	-0.185
Mof_Cl	Cl	0.703	0.86142	0.12418	-0.183
Mof_Cl	Cl	0.5852	0.8857	0.02912	-0.211
Mof_Cl	Cl	0.8845	0.95454	0.93291	-0.208
Mof_Cl	Cl	0.0058	0.92174	0.02192	-0.177
Mof_Cl	Cl	0.8321	0.9883	0.136	-0.191
Mof_Cl	Cl	0.9667	0.07008	0.1781	-0.229
Mof_Cl	Cl	0.2336	0.92901	0.18294	-0.223
Mof_Cl	Cl	0.1067	0.84751	0.13516	-0.196
Mof_Cl	Cl	0.9289	0.78227	0.05161	-0.187
Mof_Cl	Cl	0.8979	0.67724	0.10334	-0.216
Mof_Cl	Cl	0.8548	0.77399	0.2816	-0.237
Mof_Cl	Cl	0.8763	0.87941	0.23106	-0.185
Mof_Cl	Cl	0.703	0.63858	0.87582	-0.183
Mof_Cl	Cl	0.5852	0.6143	0.97088	-0.211
Mof_Cl	Cl	0.8845	0.54546	0.06709	-0.207
Mof_Cl	Cl	0.0058	0.57826	0.97808	-0.179
Mof_Cl	Cl	0.8321	0.5117	0.864	-0.191
Mof_Cl	Cl	0.9667	0.42992	0.8219	-0.231
Mof_Cl	Cl	0.2336	0.57099	0.81706	-0.224
Mof_Cl	Cl	0.1067	0.65249	0.86484	-0.196
Mof_Cl	Cl	0.9289	0.71773	0.94839	-0.187
Mof_Cl	Cl	0.8979	0.82276	0.89666	-0.216
Mof_Cl	Cl	0.8548	0.72601	0.7184	-0.237
Mof_Cl	Cl	0.8763	0.62059	0.76894	-0.185
Mof_Cl	Cl	0.203	0.36142	0.37582	-0.183
Mof_Cl	Cl	0.0852	0.3857	0.47088	-0.211
Mof_Cl	Cl	0.3845	0.45454	0.56709	-0.207
Mof_Cl	Cl	0.5058	0.42174	0.47808	-0.179
Mof_Cl	Cl	0.3321	0.4883	0.364	-0.191
Mof_Cl	Cl	0.4667	0.57008	0.3219	-0.231
Mof_Cl	Cl	0.7336	0.42901	0.31706	-0.224
Mof_Cl	Cl	0.6067	0.34751	0.36484	-0.196
Mof_Cl	Cl	0.4289	0.28227	0.44839	-0.187
Mof_Cl	Cl	0.3979	0.17724	0.39666	-0.216
Mof_Cl	Cl	0.3548	0.27399	0.2184	-0.237
Mof_Cl	Cl	0.3763	0.37941	0.26894	-0.185
Mof_Cl	Cl	0.203	0.13858	0.62418	-0.184
Mof_Cl	Cl	0.0852	0.1143	0.52912	-0.211
Mof_Cl	Cl	0.3845	0.04546	0.43291	-0.207
Mof_Cl	Cl	0.5058	0.07826	0.52192	-0.179
Mof_Cl	Cl	0.3321	0.0117	0.636	-0.191
Mof_Cl	Cl	0.4667	0.92992	0.6781	-0.231
Mof_Cl	Cl	0.7336	0.07099	0.68294	-0.223
Mof_Cl	Cl	0.6067	0.15249	0.63516	-0.196
Mof_Cl	Cl	0.4289	0.21773	0.55161	-0.187
Mof_Cl	Cl	0.3979	0.32276	0.60334	-0.216
Mof_Cl	Cl	0.3548	0.22601	0.7816	-0.237
Mof_Cl	Cl	0.3763	0.12059	0.73106	-0.185
Mof_Cl	Cl	0.297	0.13858	0.87582	-0.183
Mof_Cl	Cl	0.4148	0.1143	0.97088	-0.211
Mof_Cl	Cl	0.1155	0.04546	0.06709	-0.208
Mof_Cl	Cl	0.9942	0.07826	0.97808	-0.177
Mof_Cl	Cl	0.1679	0.0117	0.864	-0.191
Mof_Cl	Cl	0.0333	0.92992	0.8219	-0.229
Mof_Cl	Cl	0.7664	0.07099	0.81706	-0.223
Mof_Cl	Cl	0.8933	0.15249	0.86484	-0.196
Mof_Cl	Cl	0.0711	0.21773	0.94839	-0.187
Mof_Cl	Cl	0.1021	0.32276	0.89666	-0.216
Mof_Cl	Cl	0.1452	0.22601	0.7184	-0.237
Mof_Cl	Cl	0.1237	0.12059	0.76894	-0.185
Mof_Cl	Cl	0.297	0.36142	0.12418	-0.183
Mof_Cl	Cl	0.4148	0.3857	0.02912	-0.211
Mof_Cl	Cl	0.1155	0.45454	0.93291	-0.207
Mof_Cl	Cl	0.9942	0.42174	0.02192	-0.179
Mof_Cl	Cl	0.1679	0.4883	0.136	-0.191
Mof_Cl	Cl	0.0333	0.57008	0.1781	-0.231
Mof_Cl	Cl	0.7664	0.42901	0.18294	-0.224
Mof_Cl	Cl	0.8933	0.34751	0.13516	-0.196
Mof_Cl	Cl	0.0711	0.28227	0.05161	-0.187
Mof_Cl	Cl	0.1021	0.17724	0.10334	-0.216
Mof_Cl	Cl	0.1452	0.27399	0.2816	-0.237
Mof_Cl	Cl	0.1237	0.37941	0.23106	-0.185
Mof_O 	O 	0.8577	0.5258	0.4423	-0.209
Mof_O 	O 	0.3634	0.4504	0.7468	-0.516
Mof_O 	O 	0.6055	0.8382	0.7491	-0.436
Mof_O 	O 	0.8185	0.5995	0.4043	-0.431
Mof_O 	O 	0.7259	0.8411	0.6941	-0.439
Mof_O 	O 	0.2799	0.4505	0.6769	-0.446
Mof_O 	O 	0.8577	0.9742	0.5577	-0.209
Mof_O 	O 	0.3634	0.0496	0.2532	-0.516
Mof_O 	O 	0.6055	0.6618	0.2509	-0.436
Mof_O 	O 	0.8185	0.9005	0.5957	-0.431
Mof_O 	O 	0.7259	0.6589	0.3059	-0.439
Mof_O 	O 	0.2799	0.0495	0.3231	-0.446
Mof_O 	O 	0.6423	0.9742	0.9423	-0.209
Mof_O 	O 	0.1366	0.0496	0.2468	-0.515
Mof_O 	O 	0.8945	0.6618	0.2491	-0.436
Mof_O 	O 	0.6815	0.9005	0.9043	-0.431
Mof_O 	O 	0.7741	0.6589	0.1941	-0.439
Mof_O 	O 	0.2201	0.0495	0.1769	-0.446
Mof_O 	O 	0.6423	0.5258	0.0577	-0.209
Mof_O 	O 	0.1366	0.4504	0.7532	-0.516
Mof_O 	O 	0.8945	0.8382	0.7509	-0.436
Mof_O 	O 	0.6815	0.5995	0.0957	-0.431
Mof_O 	O 	0.7741	0.8411	0.8059	-0.439
Mof_O 	O 	0.2201	0.4505	0.8231	-0.446
Mof_O 	O 	0.1423	0.4742	0.5577	-0.209
Mof_O 	O 	0.6366	0.5496	0.2532	-0.516
Mof_O 	O 	0.3945	0.1618	0.2509	-0.436
Mof_O 	O 	0.1815	0.4005	0.5957	-0.431
Mof_O 	O 	0.2741	0.1589	0.3059	-0.439
Mof_O 	O 	0.7201	0.5495	0.3231	-0.446
Mof_O 	O 	0.1423	0.0258	0.4423	-0.209
Mof_O 	O 	0.6366	0.9504	0.7468	-0.516
Mof_O 	O 	0.3945	0.3382	0.7491	-0.436
Mof_O 	O 	0.1815	0.0995	0.4043	-0.431
Mof_O 	O 	0.2741	0.3411	0.6941	-0.439
Mof_O 	O 	0.7201	0.9505	0.6769	-0.446
Mof_O 	O 	0.3577	0.0258	0.0577	-0.209
Mof_O 	O 	0.8634	0.9504	0.7532	-0.515
Mof_O 	O 	0.1055	0.3382	0.7509	-0.436
Mof_O 	O 	0.3185	0.0995	0.0957	-0.431
Mof_O 	O 	0.2259	0.3411	0.8059	-0.439
Mof_O 	O 	0.7799	0.9505	0.8231	-0.446
Mof_O 	O 	0.3577	0.4742	0.9423	-0.209
Mof_O 	O 	0.8634	0.5496	0.2468	-0.516
Mof_O 	O 	0.1055	0.1618	0.2491	-0.436
Mof_O 	O 	0.3185	0.4005	0.9043	-0.431
Mof_O 	O 	0.2259	0.1589	0.1941	-0.439
Mof_O 	O 	0.7799	0.5495	0.1769	-0.446
_end
