data_functionalizedCrystal
_audit_creation_method	'EQeq! by Chris Wilmer'
_symmetry_space_group_name_H-M	'P1'
_symmetry_Int_Tables_number	1
_symmetry_cell_setting	triclinic
loop_
_symmetry_equiv_pos_as_xyz
  x,y,z
_cell_length_a	10.0691
_cell_length_b	10.9491
_cell_length_c	13.2211
_cell_angle_alpha	99.755
_cell_angle_beta	110.245
_cell_angle_gamma	107.793
loop_
_atom_site_label
_atom_site_type_symbol
_atom_site_fract_x
_atom_site_fract_y
_atom_site_fract_z
_atom_site_charge
Mof_Er	Er	0.15495	0.70649	0.19582	1.891
Mof_Er	Er	0.84505	0.29351	0.80418	1.891
Mof_H 	H 	0.7239	0.6195	0.1626	0.039
Mof_H 	H 	0.504	0.3662	0.8463	0.039
Mof_H 	H 	0.8375	0.9156	0.3111	0.049
Mof_H 	H 	0.2263	0.9689	0.5643	0.052
Mof_H 	H 	0.2334	0.4097	0.4254	0.053
Mof_H 	H 	0.6262	0.6689	0.4412	0.055
Mof_H 	H 	0.9639	0.6419	0.9136	-0.01
Mof_H 	H 	0.902	0.7349	0.7709	0.078
Mof_H 	H 	0.0217	0.9661	0.8098	0.054
Mof_H 	H 	0.2042	0.1903	0.956	0.057
Mof_H 	H 	0.3855	0.3119	0.1365	0.054
Mof_H 	H 	0.5429	0.3156	0.3353	0.046
Mof_H 	H 	0.6014	0.1947	0.4584	0.083
Mof_H 	H 	0.4652	0.9646	0.4003	0.002
Mof_H 	H 	0.2761	0.3805	0.8374	0.039
Mof_H 	H 	0.496	0.6338	0.1537	0.039
Mof_H 	H 	0.1625	0.0844	0.6889	0.049
Mof_H 	H 	0.7737	0.0311	0.4357	0.052
Mof_H 	H 	0.7666	0.5903	0.5746	0.053
Mof_H 	H 	0.3738	0.3311	0.5588	0.055
Mof_H 	H 	0.0361	0.3581	0.0864	-0.01
Mof_H 	H 	0.098	0.2651	0.2291	0.078
Mof_H 	H 	0.9783	0.0339	0.1902	0.054
Mof_H 	H 	0.7958	0.8097	0.044	0.057
Mof_H 	H 	0.6145	0.6881	0.8635	0.054
Mof_H 	H 	0.4571	0.6844	0.6647	0.046
Mof_H 	H 	0.3986	0.8053	0.5416	0.083
Mof_H 	H 	0.5348	0.0354	0.5997	0.002
Mof_C 	C 	0.7866	0.4857	0.0099	0.51
Mof_C 	C 	0.6372	0.492	0.0048	-0.138
Mof_C 	C 	0.6336	0.5714	0.0968	-0.003
Mof_C 	C 	0.5031	0.4203	0.9083	-0.001
Mof_C 	C 	0.0771	0.8515	0.3433	0.3
Mof_C 	C 	0.0383	0.9294	0.4243	-0.06
Mof_C 	C 	0.904	0.9496	0.3878	-0.024
Mof_C 	C 	0.1343	0.981	0.5376	-0.025
Mof_C 	C 	0.3261	0.601	0.3362	0.299
Mof_C 	C 	0.4159	0.5475	0.4209	-0.053
Mof_C 	C 	0.3404	0.4461	0.4554	-0.029
Mof_C 	C 	0.5756	0.6013	0.4649	-0.031
Mof_C 	C 	0.0111	0.7349	0.931	0.096
Mof_C 	C 	0.9736	0.7895	0.8437	-0.103
Mof_C 	C 	0.0441	0.926	0.8668	-0.031
Mof_C 	C 	0.1507	0.004	0.9778	0.007
Mof_C 	C 	0.2277	0.1459	0.0096	-0.054
Mof_C 	C 	0.3361	0.219	0.1178	-0.056
Mof_C 	C 	0.3738	0.1542	0.2017	0.004
Mof_C 	C 	0.49	0.2226	0.3123	-0.024
Mof_C 	C 	0.5241	0.1512	0.3852	-0.101
Mof_C 	C 	0.4415	0.0118	0.349	0.081
Mof_C 	C 	0.2958	0.0131	0.1721	0.033
Mof_C 	C 	0.1788	0.9381	0.058	0.036
Mof_C 	C 	0.2134	0.5143	0.9901	0.51
Mof_C 	C 	0.3628	0.508	0.9952	-0.138
Mof_C 	C 	0.3664	0.4286	0.9032	-0.003
Mof_C 	C 	0.4969	0.5797	0.0917	-0.001
Mof_C 	C 	0.9229	0.1485	0.6567	0.3
Mof_C 	C 	0.9617	0.0706	0.5757	-0.06
Mof_C 	C 	0.096	0.0504	0.6122	-0.024
Mof_C 	C 	0.8657	0.019	0.4624	-0.025
Mof_C 	C 	0.6739	0.399	0.6638	0.299
Mof_C 	C 	0.5841	0.4525	0.5791	-0.053
Mof_C 	C 	0.6596	0.5539	0.5446	-0.029
Mof_C 	C 	0.4244	0.3987	0.5351	-0.031
Mof_C 	C 	0.9889	0.2651	0.069	0.096
Mof_C 	C 	0.0264	0.2105	0.1563	-0.103
Mof_C 	C 	0.9559	0.074	0.1332	-0.031
Mof_C 	C 	0.8493	0.996	0.0222	0.007
Mof_C 	C 	0.7723	0.8541	0.9904	-0.054
Mof_C 	C 	0.6639	0.781	0.8822	-0.056
Mof_C 	C 	0.6262	0.8458	0.7983	0.004
Mof_C 	C 	0.51	0.7774	0.6877	-0.024
Mof_C 	C 	0.4759	0.8488	0.6148	-0.101
Mof_C 	C 	0.5585	0.9882	0.651	0.081
Mof_C 	C 	0.7042	0.9869	0.8279	0.033
Mof_C 	C 	0.8212	0.0619	0.942	0.036
Mof_N 	N 	0.1085	0.804	0.0371	-0.235
Mof_N 	N 	0.3317	0.9432	0.2458	-0.233
Mof_N 	N 	0.8915	0.196	0.9629	-0.235
Mof_N 	N 	0.6683	0.0568	0.7542	-0.233
Mof_O 	O 	0.9088	0.5596	0.0959	-0.535
Mof_O 	O 	0.7805	0.407	0.9259	-0.534
Mof_O 	O 	0.0117	0.8337	0.2382	-0.411
Mof_O 	O 	0.1762	0.8017	0.3804	-0.411
Mof_O 	O 	0.1808	0.5376	0.2824	-0.407
Mof_O 	O 	0.394	0.709	0.3206	-0.409
Mof_O 	O 	0.0912	0.4404	0.9041	-0.535
Mof_O 	O 	0.2195	0.593	0.0741	-0.534
Mof_O 	O 	0.9883	0.1663	0.7618	-0.411
Mof_O 	O 	0.8238	0.1983	0.6196	-0.411
Mof_O 	O 	0.8192	0.4624	0.7176	-0.407
Mof_O 	O 	0.606	0.291	0.6794	-0.409
_end
