data_functionalizedCrystal
_audit_creation_method	'EQeq! by Chris Wilmer'
_symmetry_space_group_name_H-M	'P1'
_symmetry_Int_Tables_number	1
_symmetry_cell_setting	triclinic
loop_
_symmetry_equiv_pos_as_xyz
  x,y,z
_cell_length_a	27.514
_cell_length_b	14.252
_cell_length_c	24.004
_cell_angle_alpha	90
_cell_angle_beta	113.521
_cell_angle_gamma	90
loop_
_atom_site_label
_atom_site_type_symbol
_atom_site_fract_x
_atom_site_fract_y
_atom_site_fract_z
_atom_site_charge
Mof_Ag	Ag	0.25069	0.78135	0.21921	0.488
Mof_P 	P 	0.25191	0.62858	0.17324	0.009
Mof_P 	P 	0.24666	0.93949	0.17801	0.012
Mof_N 	N 	0.33864	0.7916	0.2969	-0.177
Mof_N 	N 	0.42139	0.8369	0.3419	-0.111
Mof_N 	N 	0.16426	0.8008	0.3413	-0.107
Mof_N 	N 	0.19511	0.7698	0.27181	-0.18
Mof_C 	C 	0.2739	0.536	0.2312	-0.144
Mof_H 	H 	0.2725	0.4756	0.2119	0.058
Mof_H 	H 	0.3103	0.5475	0.2591	0.059
Mof_C 	C 	0.262	0.035	0.2342	-0.141
Mof_H 	H 	0.2985	0.0287	0.263	0.06
Mof_H 	H 	0.2587	0.0945	0.2134	0.057
Mof_C 	C 	0.1899	0.5862	0.1178	-0.007
Mof_C 	C 	0.1499	0.6488	0.0895	-0.069
Mof_H 	H 	0.1557	0.7122	0.0992	0.028
Mof_C 	C 	0.1013	0.6205	0.0469	-0.022
Mof_H 	H 	0.0745	0.6638	0.0278	0.029
Mof_C 	C 	0.0933	0.524	0.033	-0.069
Mof_H 	H 	0.0607	0.5029	0.0051	0.046
Mof_C 	C 	0.1316	0.4643	0.0594	-0.007
Mof_H 	H 	0.1265	0.401	0.0492	0.029
Mof_C 	C 	0.1787	0.494	0.1017	-0.074
Mof_H 	H 	0.2047	0.4494	0.1207	0.05
Mof_C 	C 	0.2975	0.618	0.1359	0.009
Mof_C 	C 	0.2812	0.6085	0.0745	-0.093
Mof_H 	H 	0.2452	0.6028	0.0502	0.06
Mof_C 	C 	0.3174	0.6073	0.0479	0.003
Mof_H 	H 	0.3056	0.601	0.006	0.026
Mof_C 	C 	0.3702	0.6151	0.0826	-0.086
Mof_H 	H 	0.3944	0.6136	0.0645	0.057
Mof_C 	C 	0.3874	0.6251	0.1435	0.004
Mof_H 	H 	0.4233	0.6301	0.1678	0.024
Mof_C 	C 	0.3501	0.6277	0.1687	-0.09
Mof_H 	H 	0.3619	0.6365	0.2105	0.051
Mof_C 	C 	0.1857	0.977	0.1177	-0.003
Mof_C 	C 	0.1395	0.9301	0.1089	-0.074
Mof_H 	H 	0.1404	0.8804	0.1344	0.032
Mof_C 	C 	0.0911	0.9556	0.0624	-0.019
Mof_H 	H 	0.0604	0.922	0.0562	0.028
Mof_C 	C 	0.0898	0.0302	0.0266	-0.067
Mof_H 	H 	0.0576	0.0488	0.9966	0.045
Mof_C 	C 	0.1346	0.0781	0.034	-0.014
Mof_H 	H 	0.1329	0.1292	0.0091	0.029
Mof_C 	C 	0.1833	0.0507	0.0788	-0.078
Mof_H 	H 	0.2141	0.082	0.0826	0.058
Mof_C 	C 	0.2963	0.9541	0.147	-0.009
Mof_C 	C 	0.3331	0.0279	0.1621	-0.072
Mof_H 	H 	0.3308	0.0759	0.1871	0.053
Mof_C 	C 	0.3725	0.0304	0.1406	-0.011
Mof_H 	H 	0.3971	0.0791	0.1523	0.03
Mof_C 	C 	0.3762	0.9628	0.1024	-0.064
Mof_H 	H 	0.4027	0.9655	0.0876	0.049
Mof_C 	C 	0.3392	0.8884	0.0856	-0.018
Mof_H 	H 	0.3411	0.8419	0.0594	0.035
Mof_C 	C 	0.3003	0.8847	0.1081	-0.069
Mof_H 	H 	0.2763	0.8351	0.0971	0.036
Mof_C 	C 	0.3758	0.8465	0.2942	0.088
Mof_H 	H 	0.3708	0.8876	0.2623	-0.003
Mof_C 	C 	0.3629	0.7469	0.3506	0.008
Mof_H 	H 	0.3467	0.7032	0.3664	0.021
Mof_C 	C 	0.4135	0.7741	0.378	-0.011
Mof_H 	H 	0.4382	0.7529	0.4151	0.03
Mof_C 	C 	0.4696	0.8887	0.3539	-0.117
Mof_H 	H 	0.4981	0.8612	0.3886	0.064
Mof_H 	H 	0.4649	0.9529	0.3642	0.064
Mof_C 	C 	0.4853	0.8888	0.2995	0.056
Mof_C 	C 	0.4926	0.8074	0.273	-0.067
Mof_H 	H 	0.4869	0.7502	0.2881	0.054
Mof_C 	C 	0.4917	0.9704	0.2741	-0.072
Mof_H 	H 	0.4851	0.0271	0.2889	0.049
Mof_C 	C 	0.205	0.6983	0.4701	-0.073
Mof_H 	H 	0.1746	0.6631	0.45	0.057
Mof_C 	C 	0.253	0.8408	0.4827	-0.076
Mof_H 	H 	0.2552	0.9024	0.4712	0.057
Mof_C 	C 	0.2077	0.7898	0.4523	0.062
Mof_C 	C 	0.1625	0.8332	0.3993	-0.132
Mof_H 	H 	0.129	0.8154	0.4006	0.069
Mof_H 	H 	0.1653	0.9011	0.4018	0.074
Mof_C 	C 	0.2076	0.7936	0.329	0.082
Mof_H 	H 	0.242	0.8042	0.3571	-0.004
Mof_C 	C 	0.1219	0.7785	0.2886	-0.019
Mof_H 	H 	0.0865	0.7765	0.2831	0.032
Mof_C 	C 	0.141	0.7605	0.2468	0.006
Mof_H 	H 	0.1207	0.7441	0.2067	0.013
Mof_Ag	Ag	0.75069	0.28135	0.21921	0.489
Mof_P 	P 	0.75191	0.12858	0.17324	0.01
Mof_P 	P 	0.74666	0.43949	0.17801	0.012
Mof_N 	N 	0.83864	0.2916	0.2969	-0.176
Mof_N 	N 	0.92139	0.3369	0.3419	-0.11
Mof_N 	N 	0.66426	0.3008	0.3413	-0.106
Mof_N 	N 	0.69511	0.2698	0.27181	-0.179
Mof_C 	C 	0.7739	0.036	0.2312	-0.142
Mof_H 	H 	0.7725	0.9756	0.2119	0.059
Mof_H 	H 	0.8103	0.0475	0.2591	0.06
Mof_C 	C 	0.762	0.535	0.2342	-0.141
Mof_H 	H 	0.7985	0.5287	0.263	0.06
Mof_H 	H 	0.7587	0.5945	0.2134	0.057
Mof_C 	C 	0.6899	0.0862	0.1178	-0.006
Mof_C 	C 	0.6499	0.1488	0.0895	-0.069
Mof_H 	H 	0.6557	0.2122	0.0992	0.028
Mof_C 	C 	0.6013	0.1205	0.0469	-0.022
Mof_H 	H 	0.5745	0.1638	0.0278	0.029
Mof_C 	C 	0.5933	0.024	0.033	-0.068
Mof_H 	H 	0.5607	0.0029	0.0051	0.045
Mof_C 	C 	0.6316	0.9643	0.0594	-0.008
Mof_H 	H 	0.6265	0.901	0.0492	0.029
Mof_C 	C 	0.6787	0.994	0.1017	-0.074
Mof_H 	H 	0.7047	0.9494	0.1207	0.05
Mof_C 	C 	0.7975	0.118	0.1359	0.009
Mof_C 	C 	0.7812	0.1085	0.0745	-0.093
Mof_H 	H 	0.7452	0.1028	0.0502	0.06
Mof_C 	C 	0.8174	0.1073	0.0479	0.003
Mof_H 	H 	0.8056	0.101	0.006	0.026
Mof_C 	C 	0.8702	0.1151	0.0826	-0.086
Mof_H 	H 	0.8944	0.1136	0.0645	0.057
Mof_C 	C 	0.8874	0.1251	0.1435	0.004
Mof_H 	H 	0.9233	0.1301	0.1678	0.024
Mof_C 	C 	0.8501	0.1277	0.1687	-0.09
Mof_H 	H 	0.8619	0.1365	0.2105	0.051
Mof_C 	C 	0.6857	0.477	0.1177	-0.001
Mof_C 	C 	0.6395	0.4301	0.1089	-0.076
Mof_H 	H 	0.6404	0.3804	0.1344	0.033
Mof_C 	C 	0.5911	0.4556	0.0624	-0.015
Mof_H 	H 	0.5604	0.422	0.0562	0.026
Mof_C 	C 	0.5898	0.5302	0.0266	-0.072
Mof_H 	H 	0.5576	0.5488	0.9966	0.047
Mof_C 	C 	0.6346	0.5781	0.034	-0.01
Mof_H 	H 	0.6329	0.6292	0.0091	0.028
Mof_C 	C 	0.6833	0.5507	0.0788	-0.08
Mof_H 	H 	0.7141	0.582	0.0826	0.059
Mof_C 	C 	0.7963	0.4541	0.147	-0.009
Mof_C 	C 	0.8331	0.5279	0.1621	-0.072
Mof_H 	H 	0.8308	0.5759	0.1871	0.053
Mof_C 	C 	0.8725	0.5304	0.1406	-0.012
Mof_H 	H 	0.8971	0.5791	0.1523	0.03
Mof_C 	C 	0.8762	0.4628	0.1024	-0.063
Mof_H 	H 	0.9027	0.4655	0.0876	0.048
Mof_C 	C 	0.8392	0.3884	0.0856	-0.018
Mof_H 	H 	0.8411	0.3419	0.0594	0.035
Mof_C 	C 	0.8003	0.3847	0.1081	-0.069
Mof_H 	H 	0.7763	0.3351	0.0971	0.036
Mof_C 	C 	0.8758	0.3465	0.2942	0.088
Mof_H 	H 	0.8708	0.3876	0.2623	-0.003
Mof_C 	C 	0.8629	0.2469	0.3506	0.008
Mof_H 	H 	0.8467	0.2032	0.3664	0.021
Mof_C 	C 	0.9135	0.2741	0.378	-0.011
Mof_H 	H 	0.9382	0.2529	0.4151	0.03
Mof_C 	C 	0.9696	0.3887	0.3539	-0.117
Mof_H 	H 	0.9981	0.3612	0.3886	0.064
Mof_H 	H 	0.9649	0.4529	0.3642	0.064
Mof_C 	C 	0.9853	0.3888	0.2995	0.056
Mof_C 	C 	0.9926	0.3074	0.273	-0.067
Mof_H 	H 	0.9869	0.2502	0.2881	0.054
Mof_C 	C 	0.9917	0.4704	0.2741	-0.072
Mof_H 	H 	0.9851	0.5271	0.2889	0.049
Mof_C 	C 	0.705	0.1983	0.4701	-0.073
Mof_H 	H 	0.6746	0.1631	0.45	0.057
Mof_C 	C 	0.753	0.3408	0.4827	-0.076
Mof_H 	H 	0.7552	0.4024	0.4712	0.057
Mof_C 	C 	0.7077	0.2898	0.4523	0.062
Mof_C 	C 	0.6625	0.3332	0.3993	-0.132
Mof_H 	H 	0.629	0.3154	0.4006	0.069
Mof_H 	H 	0.6653	0.4011	0.4018	0.074
Mof_C 	C 	0.7076	0.2936	0.329	0.082
Mof_H 	H 	0.742	0.3042	0.3571	-0.004
Mof_C 	C 	0.6219	0.2785	0.2886	-0.019
Mof_H 	H 	0.5865	0.2765	0.2831	0.032
Mof_C 	C 	0.641	0.2605	0.2468	0.006
Mof_H 	H 	0.6207	0.2441	0.2067	0.013
Mof_Ag	Ag	0.7493	0.78135	0.28079	0.489
Mof_P 	P 	0.74809	0.62858	0.32676	0.01
Mof_P 	P 	0.75334	0.93949	0.32199	0.012
Mof_N 	N 	0.66136	0.7916	0.2031	-0.176
Mof_N 	N 	0.57861	0.8369	0.1581	-0.11
Mof_N 	N 	0.83574	0.8008	0.1587	-0.106
Mof_N 	N 	0.80489	0.7698	0.22819	-0.179
Mof_C 	C 	0.7261	0.536	0.2688	-0.143
Mof_H 	H 	0.7275	0.4756	0.2881	0.059
Mof_H 	H 	0.6897	0.5475	0.2409	0.06
Mof_C 	C 	0.738	0.035	0.2658	-0.141
Mof_H 	H 	0.7015	0.0287	0.237	0.06
Mof_H 	H 	0.7413	0.0945	0.2866	0.057
Mof_C 	C 	0.8101	0.5862	0.3822	-0.007
Mof_C 	C 	0.8501	0.6488	0.4105	-0.069
Mof_H 	H 	0.8443	0.7122	0.4008	0.028
Mof_C 	C 	0.8987	0.6205	0.4531	-0.022
Mof_H 	H 	0.9255	0.6638	0.4722	0.029
Mof_C 	C 	0.9067	0.524	0.467	-0.069
Mof_H 	H 	0.9393	0.5029	0.4949	0.046
Mof_C 	C 	0.8684	0.4643	0.4406	-0.007
Mof_H 	H 	0.8735	0.401	0.4508	0.029
Mof_C 	C 	0.8213	0.494	0.3983	-0.074
Mof_H 	H 	0.7953	0.4494	0.3793	0.05
Mof_C 	C 	0.7025	0.618	0.3641	0.009
Mof_C 	C 	0.7188	0.6085	0.4255	-0.093
Mof_H 	H 	0.7548	0.6028	0.4498	0.06
Mof_C 	C 	0.6826	0.6073	0.4521	0.003
Mof_H 	H 	0.6944	0.601	0.494	0.026
Mof_C 	C 	0.6298	0.6151	0.4174	-0.086
Mof_H 	H 	0.6056	0.6136	0.4355	0.057
Mof_C 	C 	0.6126	0.6251	0.3565	0.004
Mof_H 	H 	0.5767	0.6301	0.3322	0.024
Mof_C 	C 	0.6499	0.6277	0.3313	-0.09
Mof_H 	H 	0.6381	0.6365	0.2895	0.051
Mof_C 	C 	0.8143	0.977	0.3823	-0.002
Mof_C 	C 	0.8605	0.9301	0.3911	-0.076
Mof_H 	H 	0.8596	0.8804	0.3656	0.033
Mof_C 	C 	0.9089	0.9556	0.4376	-0.016
Mof_H 	H 	0.9396	0.922	0.4438	0.027
Mof_C 	C 	0.9102	0.0302	0.4734	-0.071
Mof_H 	H 	0.9424	0.0488	0.5034	0.047
Mof_C 	C 	0.8654	0.0781	0.466	-0.011
Mof_H 	H 	0.8671	0.1292	0.4909	0.028
Mof_C 	C 	0.8167	0.0507	0.4212	-0.08
Mof_H 	H 	0.7859	0.082	0.4174	0.059
Mof_C 	C 	0.7037	0.9541	0.353	-0.009
Mof_C 	C 	0.6669	0.0279	0.3379	-0.072
Mof_H 	H 	0.6692	0.0759	0.3129	0.053
Mof_C 	C 	0.6275	0.0304	0.3594	-0.012
Mof_H 	H 	0.6029	0.0791	0.3477	0.03
Mof_C 	C 	0.6238	0.9628	0.3976	-0.064
Mof_H 	H 	0.5973	0.9655	0.4124	0.048
Mof_C 	C 	0.6608	0.8884	0.4144	-0.018
Mof_H 	H 	0.6589	0.8419	0.4406	0.035
Mof_C 	C 	0.6997	0.8847	0.3919	-0.069
Mof_H 	H 	0.7237	0.8351	0.4029	0.036
Mof_C 	C 	0.6242	0.8465	0.2058	0.088
Mof_H 	H 	0.6292	0.8876	0.2377	-0.003
Mof_C 	C 	0.6371	0.7469	0.1494	0.008
Mof_H 	H 	0.6533	0.7032	0.1336	0.021
Mof_C 	C 	0.5865	0.7741	0.122	-0.011
Mof_H 	H 	0.5618	0.7529	0.0849	0.03
Mof_C 	C 	0.5304	0.8887	0.1461	-0.117
Mof_H 	H 	0.5019	0.8612	0.1114	0.064
Mof_H 	H 	0.5351	0.9529	0.1358	0.064
Mof_C 	C 	0.5147	0.8888	0.2005	0.056
Mof_C 	C 	0.5074	0.8074	0.227	-0.067
Mof_H 	H 	0.5131	0.7502	0.2119	0.054
Mof_C 	C 	0.5083	0.9704	0.2259	-0.072
Mof_H 	H 	0.5149	0.0271	0.2111	0.05
Mof_C 	C 	0.795	0.6983	0.0299	-0.074
Mof_H 	H 	0.8254	0.6631	0.05	0.057
Mof_C 	C 	0.747	0.8408	0.0173	-0.077
Mof_H 	H 	0.7448	0.9024	0.0288	0.057
Mof_C 	C 	0.7923	0.7898	0.0477	0.063
Mof_C 	C 	0.8375	0.8332	0.1007	-0.133
Mof_H 	H 	0.871	0.8154	0.0994	0.069
Mof_H 	H 	0.8347	0.9011	0.0982	0.074
Mof_C 	C 	0.7924	0.7936	0.171	0.082
Mof_H 	H 	0.758	0.8042	0.1429	-0.004
Mof_C 	C 	0.8781	0.7785	0.2114	-0.019
Mof_H 	H 	0.9135	0.7765	0.2169	0.032
Mof_C 	C 	0.859	0.7605	0.2532	0.006
Mof_H 	H 	0.8793	0.7441	0.2933	0.013
Mof_Ag	Ag	0.2493	0.28135	0.28079	0.489
Mof_P 	P 	0.24809	0.12858	0.32676	0.01
Mof_P 	P 	0.25334	0.43949	0.32199	0.012
Mof_N 	N 	0.16136	0.2916	0.2031	-0.176
Mof_N 	N 	0.07861	0.3369	0.1581	-0.11
Mof_N 	N 	0.33574	0.3008	0.1587	-0.106
Mof_N 	N 	0.30489	0.2698	0.22819	-0.179
Mof_C 	C 	0.2261	0.036	0.2688	-0.143
Mof_H 	H 	0.2275	0.9756	0.2881	0.059
Mof_H 	H 	0.1897	0.0475	0.2409	0.06
Mof_C 	C 	0.238	0.535	0.2658	-0.141
Mof_H 	H 	0.2015	0.5287	0.237	0.06
Mof_H 	H 	0.2413	0.5945	0.2866	0.057
Mof_C 	C 	0.3101	0.0862	0.3822	-0.006
Mof_C 	C 	0.3501	0.1488	0.4105	-0.069
Mof_H 	H 	0.3443	0.2122	0.4008	0.028
Mof_C 	C 	0.3987	0.1205	0.4531	-0.022
Mof_H 	H 	0.4255	0.1638	0.4722	0.029
Mof_C 	C 	0.4067	0.024	0.467	-0.069
Mof_H 	H 	0.4393	0.0029	0.4949	0.046
Mof_C 	C 	0.3684	0.9643	0.4406	-0.006
Mof_H 	H 	0.3735	0.901	0.4508	0.029
Mof_C 	C 	0.3213	0.994	0.3983	-0.074
Mof_H 	H 	0.2953	0.9494	0.3793	0.05
Mof_C 	C 	0.2025	0.118	0.3641	0.009
Mof_C 	C 	0.2188	0.1085	0.4255	-0.093
Mof_H 	H 	0.2548	0.1028	0.4498	0.06
Mof_C 	C 	0.1826	0.1073	0.4521	0.003
Mof_H 	H 	0.1944	0.101	0.494	0.026
Mof_C 	C 	0.1298	0.1151	0.4174	-0.086
Mof_H 	H 	0.1056	0.1136	0.4355	0.057
Mof_C 	C 	0.1126	0.1251	0.3565	0.004
Mof_H 	H 	0.0767	0.1301	0.3322	0.024
Mof_C 	C 	0.1499	0.1277	0.3313	-0.09
Mof_H 	H 	0.1381	0.1365	0.2895	0.051
Mof_C 	C 	0.3143	0.477	0.3823	-0.001
Mof_C 	C 	0.3605	0.4301	0.3911	-0.076
Mof_H 	H 	0.3596	0.3804	0.3656	0.033
Mof_C 	C 	0.4089	0.4556	0.4376	-0.015
Mof_H 	H 	0.4396	0.422	0.4438	0.026
Mof_C 	C 	0.4102	0.5302	0.4734	-0.071
Mof_H 	H 	0.4424	0.5488	0.5034	0.047
Mof_C 	C 	0.3654	0.5781	0.466	-0.01
Mof_H 	H 	0.3671	0.6292	0.4909	0.028
Mof_C 	C 	0.3167	0.5507	0.4212	-0.08
Mof_H 	H 	0.2859	0.582	0.4174	0.059
Mof_C 	C 	0.2037	0.4541	0.353	-0.009
Mof_C 	C 	0.1669	0.5279	0.3379	-0.072
Mof_H 	H 	0.1692	0.5759	0.3129	0.053
Mof_C 	C 	0.1275	0.5304	0.3594	-0.012
Mof_H 	H 	0.1029	0.5791	0.3477	0.03
Mof_C 	C 	0.1238	0.4628	0.3976	-0.063
Mof_H 	H 	0.0973	0.4655	0.4124	0.048
Mof_C 	C 	0.1608	0.3884	0.4144	-0.018
Mof_H 	H 	0.1589	0.3419	0.4406	0.035
Mof_C 	C 	0.1997	0.3847	0.3919	-0.069
Mof_H 	H 	0.2237	0.3351	0.4029	0.036
Mof_C 	C 	0.1242	0.3465	0.2058	0.088
Mof_H 	H 	0.1292	0.3876	0.2377	-0.003
Mof_C 	C 	0.1371	0.2469	0.1494	0.008
Mof_H 	H 	0.1533	0.2032	0.1336	0.021
Mof_C 	C 	0.0865	0.2741	0.122	-0.011
Mof_H 	H 	0.0618	0.2529	0.0849	0.03
Mof_C 	C 	0.0304	0.3887	0.1461	-0.117
Mof_H 	H 	0.0019	0.3612	0.1114	0.064
Mof_H 	H 	0.0351	0.4529	0.1358	0.064
Mof_C 	C 	0.0147	0.3888	0.2005	0.056
Mof_C 	C 	0.0074	0.3074	0.227	-0.066
Mof_H 	H 	0.0131	0.2502	0.2119	0.054
Mof_C 	C 	0.0083	0.4704	0.2259	-0.072
Mof_H 	H 	0.0149	0.5271	0.2111	0.049
Mof_C 	C 	0.295	0.1983	0.0299	-0.072
Mof_H 	H 	0.3254	0.1631	0.05	0.057
Mof_C 	C 	0.247	0.3408	0.0173	-0.075
Mof_H 	H 	0.2448	0.4024	0.0288	0.056
Mof_C 	C 	0.2923	0.2898	0.0477	0.061
Mof_C 	C 	0.3375	0.3332	0.1007	-0.132
Mof_H 	H 	0.371	0.3154	0.0994	0.068
Mof_H 	H 	0.3347	0.4011	0.0982	0.074
Mof_C 	C 	0.2924	0.2936	0.171	0.082
Mof_H 	H 	0.258	0.3042	0.1429	-0.004
Mof_C 	C 	0.3781	0.2785	0.2114	-0.019
Mof_H 	H 	0.4135	0.2765	0.2169	0.032
Mof_C 	C 	0.359	0.2605	0.2532	0.006
Mof_H 	H 	0.3793	0.2441	0.2933	0.013
Mof_Ag	Ag	0.7493	0.21865	0.78079	0.489
Mof_P 	P 	0.74809	0.37142	0.82676	0.01
Mof_P 	P 	0.75334	0.06051	0.82199	0.013
Mof_N 	N 	0.66136	0.2084	0.7031	-0.176
Mof_N 	N 	0.57861	0.1631	0.6581	-0.11
Mof_N 	N 	0.83574	0.1992	0.6587	-0.106
Mof_N 	N 	0.80489	0.2302	0.72819	-0.179
Mof_C 	C 	0.7261	0.464	0.7688	-0.143
Mof_H 	H 	0.7275	0.5244	0.7881	0.059
Mof_H 	H 	0.6897	0.4525	0.7409	0.06
Mof_C 	C 	0.738	0.965	0.7658	-0.141
Mof_H 	H 	0.7015	0.9713	0.737	0.06
Mof_H 	H 	0.7413	0.9055	0.7866	0.057
Mof_C 	C 	0.8101	0.4138	0.8822	-0.007
Mof_C 	C 	0.8501	0.3512	0.9105	-0.069
Mof_H 	H 	0.8443	0.2878	0.9008	0.028
Mof_C 	C 	0.8987	0.3795	0.9531	-0.022
Mof_H 	H 	0.9255	0.3362	0.9722	0.029
Mof_C 	C 	0.9067	0.476	0.967	-0.069
Mof_H 	H 	0.9393	0.4971	0.9949	0.046
Mof_C 	C 	0.8684	0.5357	0.9406	-0.006
Mof_H 	H 	0.8735	0.599	0.9508	0.029
Mof_C 	C 	0.8213	0.506	0.8983	-0.074
Mof_H 	H 	0.7953	0.5506	0.8793	0.05
Mof_C 	C 	0.7025	0.382	0.8641	0.009
Mof_C 	C 	0.7188	0.3915	0.9255	-0.093
Mof_H 	H 	0.7548	0.3972	0.9498	0.06
Mof_C 	C 	0.6826	0.3927	0.9521	0.003
Mof_H 	H 	0.6944	0.399	0.994	0.026
Mof_C 	C 	0.6298	0.3849	0.9174	-0.086
Mof_H 	H 	0.6056	0.3864	0.9355	0.057
Mof_C 	C 	0.6126	0.3749	0.8565	0.004
Mof_H 	H 	0.5767	0.3699	0.8322	0.024
Mof_C 	C 	0.6499	0.3723	0.8313	-0.09
Mof_H 	H 	0.6381	0.3635	0.7895	0.051
Mof_C 	C 	0.8143	0.023	0.8823	-0.003
Mof_C 	C 	0.8605	0.0699	0.8911	-0.074
Mof_H 	H 	0.8596	0.1196	0.8656	0.032
Mof_C 	C 	0.9089	0.0444	0.9376	-0.019
Mof_H 	H 	0.9396	0.078	0.9438	0.028
Mof_C 	C 	0.9102	0.9698	0.9734	-0.067
Mof_H 	H 	0.9424	0.9512	0.0034	0.045
Mof_C 	C 	0.8654	0.9219	0.966	-0.014
Mof_H 	H 	0.8671	0.8708	0.9909	0.029
Mof_C 	C 	0.8167	0.9493	0.9212	-0.078
Mof_H 	H 	0.7859	0.918	0.9174	0.058
Mof_C 	C 	0.7037	0.0459	0.853	-0.009
Mof_C 	C 	0.6669	0.9721	0.8379	-0.072
Mof_H 	H 	0.6692	0.9241	0.8129	0.053
Mof_C 	C 	0.6275	0.9696	0.8594	-0.011
Mof_H 	H 	0.6029	0.9209	0.8477	0.03
Mof_C 	C 	0.6238	0.0372	0.8976	-0.064
Mof_H 	H 	0.5973	0.0345	0.9124	0.049
Mof_C 	C 	0.6608	0.1116	0.9144	-0.018
Mof_H 	H 	0.6589	0.1581	0.9406	0.035
Mof_C 	C 	0.6997	0.1153	0.8919	-0.069
Mof_H 	H 	0.7237	0.1649	0.9029	0.036
Mof_C 	C 	0.6242	0.1535	0.7058	0.088
Mof_H 	H 	0.6292	0.1124	0.7377	-0.003
Mof_C 	C 	0.6371	0.2531	0.6494	0.008
Mof_H 	H 	0.6533	0.2968	0.6336	0.021
Mof_C 	C 	0.5865	0.2259	0.622	-0.011
Mof_H 	H 	0.5618	0.2471	0.5849	0.03
Mof_C 	C 	0.5304	0.1113	0.6461	-0.117
Mof_H 	H 	0.5019	0.1388	0.6114	0.064
Mof_H 	H 	0.5351	0.0471	0.6358	0.064
Mof_C 	C 	0.5147	0.1112	0.7005	0.056
Mof_C 	C 	0.5074	0.1926	0.727	-0.067
Mof_H 	H 	0.5131	0.2498	0.7119	0.054
Mof_C 	C 	0.5083	0.0296	0.7259	-0.072
Mof_H 	H 	0.5149	0.9729	0.7111	0.049
Mof_C 	C 	0.795	0.3017	0.5299	-0.073
Mof_H 	H 	0.8254	0.3369	0.55	0.057
Mof_C 	C 	0.747	0.1592	0.5173	-0.076
Mof_H 	H 	0.7448	0.0976	0.5288	0.057
Mof_C 	C 	0.7923	0.2102	0.5477	0.062
Mof_C 	C 	0.8375	0.1668	0.6007	-0.132
Mof_H 	H 	0.871	0.1846	0.5994	0.069
Mof_H 	H 	0.8347	0.0989	0.5982	0.074
Mof_C 	C 	0.7924	0.2064	0.671	0.082
Mof_H 	H 	0.758	0.1958	0.6429	-0.004
Mof_C 	C 	0.8781	0.2215	0.7114	-0.019
Mof_H 	H 	0.9135	0.2235	0.7169	0.032
Mof_C 	C 	0.859	0.2395	0.7532	0.006
Mof_H 	H 	0.8793	0.2559	0.7933	0.013
Mof_Ag	Ag	0.2493	0.71865	0.78079	0.489
Mof_P 	P 	0.24809	0.87142	0.82676	0.01
Mof_P 	P 	0.25334	0.56051	0.82199	0.012
Mof_N 	N 	0.16136	0.7084	0.7031	-0.176
Mof_N 	N 	0.07861	0.6631	0.6581	-0.11
Mof_N 	N 	0.33574	0.6992	0.6587	-0.106
Mof_N 	N 	0.30489	0.7302	0.72819	-0.179
Mof_C 	C 	0.2261	0.964	0.7688	-0.142
Mof_H 	H 	0.2275	0.0244	0.7881	0.059
Mof_H 	H 	0.1897	0.9525	0.7409	0.06
Mof_C 	C 	0.238	0.465	0.7658	-0.141
Mof_H 	H 	0.2015	0.4713	0.737	0.06
Mof_H 	H 	0.2413	0.4055	0.7866	0.057
Mof_C 	C 	0.3101	0.9138	0.8822	-0.006
Mof_C 	C 	0.3501	0.8512	0.9105	-0.069
Mof_H 	H 	0.3443	0.7878	0.9008	0.028
Mof_C 	C 	0.3987	0.8795	0.9531	-0.022
Mof_H 	H 	0.4255	0.8362	0.9722	0.029
Mof_C 	C 	0.4067	0.976	0.967	-0.068
Mof_H 	H 	0.4393	0.9971	0.9949	0.045
Mof_C 	C 	0.3684	0.0357	0.9406	-0.008
Mof_H 	H 	0.3735	0.099	0.9508	0.029
Mof_C 	C 	0.3213	0.006	0.8983	-0.074
Mof_H 	H 	0.2953	0.0506	0.8793	0.05
Mof_C 	C 	0.2025	0.882	0.8641	0.009
Mof_C 	C 	0.2188	0.8915	0.9255	-0.093
Mof_H 	H 	0.2548	0.8972	0.9498	0.06
Mof_C 	C 	0.1826	0.8927	0.9521	0.003
Mof_H 	H 	0.1944	0.899	0.994	0.026
Mof_C 	C 	0.1298	0.8849	0.9174	-0.086
Mof_H 	H 	0.1056	0.8864	0.9355	0.057
Mof_C 	C 	0.1126	0.8749	0.8565	0.004
Mof_H 	H 	0.0767	0.8699	0.8322	0.024
Mof_C 	C 	0.1499	0.8723	0.8313	-0.09
Mof_H 	H 	0.1381	0.8635	0.7895	0.051
Mof_C 	C 	0.3143	0.523	0.8823	-0.001
Mof_C 	C 	0.3605	0.5699	0.8911	-0.076
Mof_H 	H 	0.3596	0.6196	0.8656	0.033
Mof_C 	C 	0.4089	0.5444	0.9376	-0.015
Mof_H 	H 	0.4396	0.578	0.9438	0.026
Mof_C 	C 	0.4102	0.4698	0.9734	-0.072
Mof_H 	H 	0.4424	0.4512	0.0034	0.047
Mof_C 	C 	0.3654	0.4219	0.966	-0.01
Mof_H 	H 	0.3671	0.3708	0.9909	0.027
Mof_C 	C 	0.3167	0.4493	0.9212	-0.08
Mof_H 	H 	0.2859	0.418	0.9174	0.059
Mof_C 	C 	0.2037	0.5459	0.853	-0.009
Mof_C 	C 	0.1669	0.4721	0.8379	-0.072
Mof_H 	H 	0.1692	0.4241	0.8129	0.053
Mof_C 	C 	0.1275	0.4696	0.8594	-0.012
Mof_H 	H 	0.1029	0.4209	0.8477	0.03
Mof_C 	C 	0.1238	0.5372	0.8976	-0.063
Mof_H 	H 	0.0973	0.5345	0.9124	0.048
Mof_C 	C 	0.1608	0.6116	0.9144	-0.018
Mof_H 	H 	0.1589	0.6581	0.9406	0.035
Mof_C 	C 	0.1997	0.6153	0.8919	-0.069
Mof_H 	H 	0.2237	0.6649	0.9029	0.036
Mof_C 	C 	0.1242	0.6535	0.7058	0.088
Mof_H 	H 	0.1292	0.6124	0.7377	-0.003
Mof_C 	C 	0.1371	0.7531	0.6494	0.008
Mof_H 	H 	0.1533	0.7968	0.6336	0.021
Mof_C 	C 	0.0865	0.7259	0.622	-0.011
Mof_H 	H 	0.0618	0.7471	0.5849	0.03
Mof_C 	C 	0.0304	0.6113	0.6461	-0.117
Mof_H 	H 	0.0019	0.6388	0.6114	0.064
Mof_H 	H 	0.0351	0.5471	0.6358	0.064
Mof_C 	C 	0.0147	0.6112	0.7005	0.056
Mof_C 	C 	0.0074	0.6926	0.727	-0.067
Mof_H 	H 	0.0131	0.7498	0.7119	0.054
Mof_C 	C 	0.0083	0.5296	0.7259	-0.072
Mof_H 	H 	0.0149	0.4729	0.7111	0.049
Mof_C 	C 	0.295	0.8017	0.5299	-0.073
Mof_H 	H 	0.3254	0.8369	0.55	0.057
Mof_C 	C 	0.247	0.6592	0.5173	-0.076
Mof_H 	H 	0.2448	0.5976	0.5288	0.057
Mof_C 	C 	0.2923	0.7102	0.5477	0.062
Mof_C 	C 	0.3375	0.6668	0.6007	-0.132
Mof_H 	H 	0.371	0.6846	0.5994	0.069
Mof_H 	H 	0.3347	0.5989	0.5982	0.074
Mof_C 	C 	0.2924	0.7064	0.671	0.082
Mof_H 	H 	0.258	0.6958	0.6429	-0.004
Mof_C 	C 	0.3781	0.7215	0.7114	-0.019
Mof_H 	H 	0.4135	0.7235	0.7169	0.032
Mof_C 	C 	0.359	0.7395	0.7532	0.006
Mof_H 	H 	0.3793	0.7559	0.7933	0.013
Mof_Ag	Ag	0.25069	0.21865	0.71921	0.489
Mof_P 	P 	0.25191	0.37142	0.67324	0.01
Mof_P 	P 	0.24666	0.06051	0.67801	0.012
Mof_N 	N 	0.33864	0.2084	0.7969	-0.176
Mof_N 	N 	0.42139	0.1631	0.8419	-0.11
Mof_N 	N 	0.16426	0.1992	0.8413	-0.106
Mof_N 	N 	0.19511	0.2302	0.77181	-0.179
Mof_C 	C 	0.2739	0.464	0.7312	-0.143
Mof_H 	H 	0.2725	0.5244	0.7119	0.059
Mof_H 	H 	0.3103	0.4525	0.7591	0.06
Mof_C 	C 	0.262	0.965	0.7342	-0.141
Mof_H 	H 	0.2985	0.9713	0.763	0.06
Mof_H 	H 	0.2587	0.9055	0.7134	0.057
Mof_C 	C 	0.1899	0.4138	0.6178	-0.007
Mof_C 	C 	0.1499	0.3512	0.5895	-0.069
Mof_H 	H 	0.1557	0.2878	0.5992	0.028
Mof_C 	C 	0.1013	0.3795	0.5469	-0.022
Mof_H 	H 	0.0745	0.3362	0.5278	0.029
Mof_C 	C 	0.0933	0.476	0.533	-0.069
Mof_H 	H 	0.0607	0.4971	0.5051	0.046
Mof_C 	C 	0.1316	0.5357	0.5594	-0.007
Mof_H 	H 	0.1265	0.599	0.5492	0.029
Mof_C 	C 	0.1787	0.506	0.6017	-0.074
Mof_H 	H 	0.2047	0.5506	0.6207	0.05
Mof_C 	C 	0.2975	0.382	0.6359	0.009
Mof_C 	C 	0.2812	0.3915	0.5745	-0.093
Mof_H 	H 	0.2452	0.3972	0.5502	0.06
Mof_C 	C 	0.3174	0.3927	0.5479	0.003
Mof_H 	H 	0.3056	0.399	0.506	0.026
Mof_C 	C 	0.3702	0.3849	0.5826	-0.086
Mof_H 	H 	0.3944	0.3864	0.5645	0.057
Mof_C 	C 	0.3874	0.3749	0.6435	0.004
Mof_H 	H 	0.4233	0.3699	0.6678	0.024
Mof_C 	C 	0.3501	0.3723	0.6687	-0.09
Mof_H 	H 	0.3619	0.3635	0.7105	0.051
Mof_C 	C 	0.1857	0.023	0.6177	-0.002
Mof_C 	C 	0.1395	0.0699	0.6089	-0.076
Mof_H 	H 	0.1404	0.1196	0.6344	0.033
Mof_C 	C 	0.0911	0.0444	0.5624	-0.016
Mof_H 	H 	0.0604	0.078	0.5562	0.027
Mof_C 	C 	0.0898	0.9698	0.5266	-0.071
Mof_H 	H 	0.0576	0.9512	0.4966	0.047
Mof_C 	C 	0.1346	0.9219	0.534	-0.011
Mof_H 	H 	0.1329	0.8708	0.5091	0.028
Mof_C 	C 	0.1833	0.9493	0.5788	-0.08
Mof_H 	H 	0.2141	0.918	0.5826	0.059
Mof_C 	C 	0.2963	0.0459	0.647	-0.009
Mof_C 	C 	0.3331	0.9721	0.6621	-0.072
Mof_H 	H 	0.3308	0.9241	0.6871	0.053
Mof_C 	C 	0.3725	0.9696	0.6406	-0.012
Mof_H 	H 	0.3971	0.9209	0.6523	0.03
Mof_C 	C 	0.3762	0.0372	0.6024	-0.064
Mof_H 	H 	0.4027	0.0345	0.5876	0.048
Mof_C 	C 	0.3392	0.1116	0.5856	-0.018
Mof_H 	H 	0.3411	0.1581	0.5594	0.035
Mof_C 	C 	0.3003	0.1153	0.6081	-0.069
Mof_H 	H 	0.2763	0.1649	0.5971	0.036
Mof_C 	C 	0.3758	0.1535	0.7942	0.088
Mof_H 	H 	0.3708	0.1124	0.7623	-0.003
Mof_C 	C 	0.3629	0.2531	0.8506	0.008
Mof_H 	H 	0.3467	0.2968	0.8664	0.021
Mof_C 	C 	0.4135	0.2259	0.878	-0.011
Mof_H 	H 	0.4382	0.2471	0.9151	0.03
Mof_C 	C 	0.4696	0.1113	0.8539	-0.117
Mof_H 	H 	0.4981	0.1388	0.8886	0.064
Mof_H 	H 	0.4649	0.0471	0.8642	0.064
Mof_C 	C 	0.4853	0.1112	0.7995	0.056
Mof_C 	C 	0.4926	0.1926	0.773	-0.067
Mof_H 	H 	0.4869	0.2498	0.7881	0.054
Mof_C 	C 	0.4917	0.0296	0.7741	-0.072
Mof_H 	H 	0.4851	0.9729	0.7889	0.05
Mof_C 	C 	0.205	0.3017	0.9701	-0.074
Mof_H 	H 	0.1746	0.3369	0.95	0.057
Mof_C 	C 	0.253	0.1592	0.9827	-0.077
Mof_H 	H 	0.2552	0.0976	0.9712	0.057
Mof_C 	C 	0.2077	0.2102	0.9523	0.063
Mof_C 	C 	0.1625	0.1668	0.8993	-0.133
Mof_H 	H 	0.129	0.1846	0.9006	0.069
Mof_H 	H 	0.1653	0.0989	0.9018	0.074
Mof_C 	C 	0.2076	0.2064	0.829	0.082
Mof_H 	H 	0.242	0.1958	0.8571	-0.004
Mof_C 	C 	0.1219	0.2215	0.7886	-0.019
Mof_H 	H 	0.0865	0.2235	0.7831	0.032
Mof_C 	C 	0.141	0.2395	0.7468	0.006
Mof_H 	H 	0.1207	0.2559	0.7067	0.013
Mof_Ag	Ag	0.75069	0.71865	0.71921	0.489
Mof_P 	P 	0.75191	0.87142	0.67324	0.01
Mof_P 	P 	0.74666	0.56051	0.67801	0.012
Mof_N 	N 	0.83864	0.7084	0.7969	-0.176
Mof_N 	N 	0.92139	0.6631	0.8419	-0.11
Mof_N 	N 	0.66426	0.6992	0.8413	-0.106
Mof_N 	N 	0.69511	0.7302	0.77181	-0.179
Mof_C 	C 	0.7739	0.964	0.7312	-0.143
Mof_H 	H 	0.7725	0.0244	0.7119	0.059
Mof_H 	H 	0.8103	0.9525	0.7591	0.06
Mof_C 	C 	0.762	0.465	0.7342	-0.141
Mof_H 	H 	0.7985	0.4713	0.763	0.06
Mof_H 	H 	0.7587	0.4055	0.7134	0.057
Mof_C 	C 	0.6899	0.9138	0.6178	-0.006
Mof_C 	C 	0.6499	0.8512	0.5895	-0.069
Mof_H 	H 	0.6557	0.7878	0.5992	0.028
Mof_C 	C 	0.6013	0.8795	0.5469	-0.022
Mof_H 	H 	0.5745	0.8362	0.5278	0.029
Mof_C 	C 	0.5933	0.976	0.533	-0.069
Mof_H 	H 	0.5607	0.9971	0.5051	0.046
Mof_C 	C 	0.6316	0.0357	0.5594	-0.006
Mof_H 	H 	0.6265	0.099	0.5492	0.029
Mof_C 	C 	0.6787	0.006	0.6017	-0.074
Mof_H 	H 	0.7047	0.0506	0.6207	0.05
Mof_C 	C 	0.7975	0.882	0.6359	0.009
Mof_C 	C 	0.7812	0.8915	0.5745	-0.093
Mof_H 	H 	0.7452	0.8972	0.5502	0.06
Mof_C 	C 	0.8174	0.8927	0.5479	0.003
Mof_H 	H 	0.8056	0.899	0.506	0.026
Mof_C 	C 	0.8702	0.8849	0.5826	-0.086
Mof_H 	H 	0.8944	0.8864	0.5645	0.057
Mof_C 	C 	0.8874	0.8749	0.6435	0.004
Mof_H 	H 	0.9233	0.8699	0.6678	0.024
Mof_C 	C 	0.8501	0.8723	0.6687	-0.09
Mof_H 	H 	0.8619	0.8635	0.7105	0.051
Mof_C 	C 	0.6857	0.523	0.6177	-0.001
Mof_C 	C 	0.6395	0.5699	0.6089	-0.076
Mof_H 	H 	0.6404	0.6196	0.6344	0.033
Mof_C 	C 	0.5911	0.5444	0.5624	-0.015
Mof_H 	H 	0.5604	0.578	0.5562	0.026
Mof_C 	C 	0.5898	0.4698	0.5266	-0.071
Mof_H 	H 	0.5576	0.4512	0.4966	0.047
Mof_C 	C 	0.6346	0.4219	0.534	-0.01
Mof_H 	H 	0.6329	0.3708	0.5091	0.028
Mof_C 	C 	0.6833	0.4493	0.5788	-0.08
Mof_H 	H 	0.7141	0.418	0.5826	0.059
Mof_C 	C 	0.7963	0.5459	0.647	-0.009
Mof_C 	C 	0.8331	0.4721	0.6621	-0.072
Mof_H 	H 	0.8308	0.4241	0.6871	0.053
Mof_C 	C 	0.8725	0.4696	0.6406	-0.012
Mof_H 	H 	0.8971	0.4209	0.6523	0.03
Mof_C 	C 	0.8762	0.5372	0.6024	-0.063
Mof_H 	H 	0.9027	0.5345	0.5876	0.048
Mof_C 	C 	0.8392	0.6116	0.5856	-0.018
Mof_H 	H 	0.8411	0.6581	0.5594	0.035
Mof_C 	C 	0.8003	0.6153	0.6081	-0.069
Mof_H 	H 	0.7763	0.6649	0.5971	0.036
Mof_C 	C 	0.8758	0.6535	0.7942	0.088
Mof_H 	H 	0.8708	0.6124	0.7623	-0.003
Mof_C 	C 	0.8629	0.7531	0.8506	0.008
Mof_H 	H 	0.8467	0.7968	0.8664	0.021
Mof_C 	C 	0.9135	0.7259	0.878	-0.011
Mof_H 	H 	0.9382	0.7471	0.9151	0.03
Mof_C 	C 	0.9696	0.6113	0.8539	-0.117
Mof_H 	H 	0.9981	0.6388	0.8886	0.064
Mof_H 	H 	0.9649	0.5471	0.8642	0.064
Mof_C 	C 	0.9853	0.6112	0.7995	0.056
Mof_C 	C 	0.9926	0.6926	0.773	-0.066
Mof_H 	H 	0.9869	0.7498	0.7881	0.054
Mof_C 	C 	0.9917	0.5296	0.7741	-0.072
Mof_H 	H 	0.9851	0.4729	0.7889	0.049
Mof_C 	C 	0.705	0.8017	0.9701	-0.072
Mof_H 	H 	0.6746	0.8369	0.95	0.057
Mof_C 	C 	0.753	0.6592	0.9827	-0.075
Mof_H 	H 	0.7552	0.5976	0.9712	0.056
Mof_C 	C 	0.7077	0.7102	0.9523	0.061
Mof_C 	C 	0.6625	0.6668	0.8993	-0.132
Mof_H 	H 	0.629	0.6846	0.9006	0.068
Mof_H 	H 	0.6653	0.5989	0.9018	0.074
Mof_C 	C 	0.7076	0.7064	0.829	0.082
Mof_H 	H 	0.742	0.6958	0.8571	-0.004
Mof_C 	C 	0.6219	0.7215	0.7886	-0.019
Mof_H 	H 	0.5865	0.7235	0.7831	0.032
Mof_C 	C 	0.641	0.7395	0.7468	0.006
Mof_H 	H 	0.6207	0.7559	0.7067	0.013
_end
