# CIF file generated by openbabel 3.1.0, see https://openbabel.org
data_I
_chemical_name_common 'image0'
_cell_length_a 15.629
_cell_length_b 15.991
_cell_length_c 9.2343
_cell_angle_alpha 90
_cell_angle_beta 102.774
_cell_angle_gamma 90
_space_group_name_H-M_alt 'P 1'
_space_group_name_Hall 'P 1'
loop_
    _symmetry_equiv_pos_as_xyz
    x,y,z
loop_
    _atom_site_label
    _atom_site_type_symbol
    _atom_site_fract_x
    _atom_site_fract_y
    _atom_site_fract_z
    _atom_site_occupancy
    O1       O        0.88982    0.57855    0.57200    1.000
    O2       O        0.90120    0.50132    0.77430    1.000
    N1       N        0.54096    0.86386    0.95050    1.000
    N2       N        0.55930    0.72467    0.97390    1.000
    N3       N        0.61111    0.75756    0.88670    1.000
    C1       C        0.51870    0.79120    0.00750    1.000
    H1       H        0.47750    0.78860    0.06620    1.000
    C2       C        0.59950    0.83960    0.87530    1.000
    H2       H        0.62840    0.87500    0.82210    1.000
    C3       C        0.67240    0.70670    0.83170    1.000
    C4       C        0.69420    0.62890    0.89210    1.000
    H3       H        0.66740    0.60840    0.96530    1.000
    C5       C        0.71280    0.73750    0.72510    1.000
    H4       H        0.69890    0.79070    0.68610    1.000
    C6       C        0.75570    0.58180    0.84360    1.000
    H5       H        0.76960    0.52880    0.88360    1.000
    C7       C        0.77440    0.68900    0.67570    1.000
    H6       H        0.80030    0.70910    0.60110    1.000
    C8       C        0.79740    0.61136    0.73670    1.000
    C9       C        0.86810    0.56050    0.69020    1.000
    O3       O        0.38982    0.07855    0.57200    1.000
    O4       O        0.40120    0.00132    0.77430    1.000
    N4       N        0.04096    0.36386    0.95050    1.000
    N5       N        0.05930    0.22467    0.97390    1.000
    N6       N        0.11111    0.25756    0.88670    1.000
    C10      C        0.01870    0.29120    0.00750    1.000
    H7       H        0.97750    0.28860    0.06620    1.000
    C11      C        0.09950    0.33960    0.87530    1.000
    H8       H        0.12840    0.37500    0.82210    1.000
    C12      C        0.17240    0.20670    0.83170    1.000
    C13      C        0.19420    0.12890    0.89210    1.000
    H9       H        0.16740    0.10840    0.96530    1.000
    C14      C        0.21280    0.23750    0.72510    1.000
    H10      H        0.19890    0.29070    0.68610    1.000
    C15      C        0.25570    0.08180    0.84360    1.000
    H11      H        0.26960    0.02880    0.88360    1.000
    C16      C        0.27440    0.18900    0.67570    1.000
    H12      H        0.30030    0.20910    0.60110    1.000
    C17      C        0.29740    0.11136    0.73670    1.000
    C18      C        0.36810    0.06050    0.69020    1.000
    O5       O        0.11018    0.57855    0.92800    1.000
    O6       O        0.09880    0.50132    0.72570    1.000
    N7       N        0.45904    0.86386    0.54950    1.000
    N8       N        0.44070    0.72467    0.52610    1.000
    N9       N        0.38889    0.75756    0.61330    1.000
    C19      C        0.48130    0.79120    0.49250    1.000
    H13      H        0.52250    0.78860    0.43380    1.000
    C20      C        0.40050    0.83960    0.62470    1.000
    H14      H        0.37160    0.87500    0.67790    1.000
    C21      C        0.32760    0.70670    0.66830    1.000
    C22      C        0.30580    0.62890    0.60790    1.000
    H15      H        0.33260    0.60840    0.53470    1.000
    C23      C        0.28720    0.73750    0.77490    1.000
    H16      H        0.30110    0.79070    0.81390    1.000
    C24      C        0.24430    0.58180    0.65640    1.000
    H17      H        0.23040    0.52880    0.61640    1.000
    C25      C        0.22560    0.68900    0.82430    1.000
    H18      H        0.19970    0.70910    0.89890    1.000
    C26      C        0.20260    0.61136    0.76330    1.000
    C27      C        0.13190    0.56050    0.80980    1.000
    O7       O        0.61018    0.07855    0.92800    1.000
    O8       O        0.59880    0.00132    0.72570    1.000
    N10      N        0.95904    0.36386    0.54950    1.000
    N11      N        0.94070    0.22467    0.52610    1.000
    N12      N        0.88889    0.25756    0.61330    1.000
    C28      C        0.98130    0.29120    0.49250    1.000
    H19      H        0.02250    0.28860    0.43380    1.000
    C29      C        0.90050    0.33960    0.62470    1.000
    H20      H        0.87160    0.37500    0.67790    1.000
    C30      C        0.82760    0.20670    0.66830    1.000
    C31      C        0.80580    0.12890    0.60790    1.000
    H21      H        0.83260    0.10840    0.53470    1.000
    C32      C        0.78720    0.23750    0.77490    1.000
    H22      H        0.80110    0.29070    0.81390    1.000
    C33      C        0.74430    0.08180    0.65640    1.000
    H23      H        0.73040    0.02880    0.61640    1.000
    C34      C        0.72560    0.18900    0.82430    1.000
    H24      H        0.69970    0.20910    0.89890    1.000
    C35      C        0.70260    0.11136    0.76330    1.000
    C36      C        0.63190    0.06050    0.80980    1.000
    O9       O        0.11018    0.42145    0.42800    1.000
    O10      O        0.09880    0.49868    0.22570    1.000
    N13      N        0.45904    0.13614    0.04950    1.000
    N14      N        0.44070    0.27533    0.02610    1.000
    N15      N        0.38889    0.24244    0.11330    1.000
    C37      C        0.48130    0.20880    0.99250    1.000
    H25      H        0.52250    0.21140    0.93380    1.000
    C38      C        0.40050    0.16040    0.12470    1.000
    H26      H        0.37160    0.12500    0.17790    1.000
    C39      C        0.32760    0.29330    0.16830    1.000
    C40      C        0.30580    0.37110    0.10790    1.000
    H27      H        0.33260    0.39160    0.03470    1.000
    C41      C        0.28720    0.26250    0.27490    1.000
    H28      H        0.30110    0.20930    0.31390    1.000
    C42      C        0.24430    0.41820    0.15640    1.000
    H29      H        0.23040    0.47120    0.11640    1.000
    C43      C        0.22560    0.31100    0.32430    1.000
    H30      H        0.19970    0.29090    0.39890    1.000
    C44      C        0.20260    0.38864    0.26330    1.000
    C45      C        0.13190    0.43950    0.30980    1.000
    O11      O        0.61018    0.92145    0.42800    1.000
    O12      O        0.59880    0.99868    0.22570    1.000
    N16      N        0.95904    0.63614    0.04950    1.000
    N17      N        0.94070    0.77533    0.02610    1.000
    N18      N        0.88889    0.74244    0.11330    1.000
    C46      C        0.98130    0.70880    0.99250    1.000
    H31      H        0.02250    0.71140    0.93380    1.000
    C47      C        0.90050    0.66040    0.12470    1.000
    H32      H        0.87160    0.62500    0.17790    1.000
    C48      C        0.82760    0.79330    0.16830    1.000
    C49      C        0.80580    0.87110    0.10790    1.000
    H33      H        0.83260    0.89160    0.03470    1.000
    C50      C        0.78720    0.76250    0.27490    1.000
    H34      H        0.80110    0.70930    0.31390    1.000
    C51      C        0.74430    0.91820    0.15640    1.000
    H35      H        0.73040    0.97120    0.11640    1.000
    C52      C        0.72560    0.81100    0.32430    1.000
    H36      H        0.69970    0.79090    0.39890    1.000
    C53      C        0.70260    0.88864    0.26330    1.000
    C54      C        0.63190    0.93950    0.30980    1.000
    O13      O        0.88982    0.42145    0.07200    1.000
    O14      O        0.90120    0.49868    0.27430    1.000
    N19      N        0.54096    0.13614    0.45050    1.000
    N20      N        0.55930    0.27533    0.47390    1.000
    N21      N        0.61111    0.24244    0.38670    1.000
    C55      C        0.51870    0.20880    0.50750    1.000
    H37      H        0.47750    0.21140    0.56620    1.000
    C56      C        0.59950    0.16040    0.37530    1.000
    H38      H        0.62840    0.12500    0.32210    1.000
    C57      C        0.67240    0.29330    0.33170    1.000
    C58      C        0.69420    0.37110    0.39210    1.000
    H39      H        0.66740    0.39160    0.46530    1.000
    C59      C        0.71280    0.26250    0.22510    1.000
    H40      H        0.69890    0.20930    0.18610    1.000
    C60      C        0.75570    0.41820    0.34360    1.000
    H41      H        0.76960    0.47120    0.38360    1.000
    C61      C        0.77440    0.31100    0.17570    1.000
    H42      H        0.80030    0.29090    0.10110    1.000
    C62      C        0.79740    0.38864    0.23670    1.000
    C63      C        0.86810    0.43950    0.19020    1.000
    O15      O        0.38982    0.92145    0.07200    1.000
    O16      O        0.40120    0.99868    0.27430    1.000
    N22      N        0.04096    0.63614    0.45050    1.000
    N23      N        0.05930    0.77533    0.47390    1.000
    N24      N        0.11111    0.74244    0.38670    1.000
    C64      C        0.01870    0.70880    0.50750    1.000
    H43      H        0.97750    0.71140    0.56620    1.000
    C65      C        0.09950    0.66040    0.37530    1.000
    H44      H        0.12840    0.62500    0.32210    1.000
    C66      C        0.17240    0.79330    0.33170    1.000
    C67      C        0.19420    0.87110    0.39210    1.000
    H45      H        0.16740    0.89160    0.46530    1.000
    C68      C        0.21280    0.76250    0.22510    1.000
    H46      H        0.19890    0.70930    0.18610    1.000
    C69      C        0.25570    0.91820    0.34360    1.000
    H47      H        0.26960    0.97120    0.38360    1.000
    C70      C        0.27440    0.81100    0.17570    1.000
    H48      H        0.30030    0.79090    0.10110    1.000
    C71      C        0.29740    0.88864    0.23670    1.000
    C72      C        0.36810    0.93950    0.19020    1.000
    Cd1      Cd       0.50000    0.00000    0.00000    1.000
    Cd2      Cd       0.00000    0.50000    0.00000    1.000
    Cd3      Cd       0.50000    0.00000    0.50000    1.000
    Cd4      Cd       0.00000    0.50000    0.50000    1.000
