data_functionalizedCrystal
_audit_creation_method	'EQeq! by Chris Wilmer'
_symmetry_space_group_name_H-M	'P1'
_symmetry_Int_Tables_number	1
_symmetry_cell_setting	triclinic
loop_
_symmetry_equiv_pos_as_xyz
  x,y,z
_cell_length_a	28.0682
_cell_length_b	27.1147
_cell_length_c	28.0603
_cell_angle_alpha	90
_cell_angle_beta	98.558
_cell_angle_gamma	90
loop_
_atom_site_label
_atom_site_type_symbol
_atom_site_fract_x
_atom_site_fract_y
_atom_site_fract_z
_atom_site_charge
Mof_C 	C 	0.0465	0.42039	0.1364	0.401
Mof_C 	C 	0.0079	0.38063	0.13873	-0.136
Mof_C 	C 	0.9833	0.3618	0.09686	0.071
Mof_H 	H 	0.9912	0.3718	0.0673	0.019
Mof_C 	C 	0.9472	0.3283	0.0989	-0.152
Mof_H 	H 	0.9292	0.3172	0.0704	0.086
Mof_C 	C 	0.9369	0.3105	0.1431	0.103
Mof_C 	C 	0.9621	0.3289	0.185	-0.15
Mof_H 	H 	0.9546	0.3182	0.2145	0.098
Mof_C 	C 	0.9983	0.3628	0.18385	0.068
Mof_H 	H 	0.0162	0.3739	0.2123	0.022
Mof_C 	C 	0.8985	0.2744	0.1441	-0.027
Mof_C 	C 	0.8934	0.2352	0.1135	-0.124
Mof_H 	H 	0.9146	0.2322	0.0912	0.078
Mof_C 	C 	0.8588	0.2005	0.1138	0.139
Mof_C 	C 	0.8242	0.2024	0.1429	-0.065
Mof_C 	C 	0.8275	0.2432	0.1735	-0.091
Mof_H 	H 	0.8042	0.2473	0.1936	0.061
Mof_C 	C 	0.8636	0.2776	0.1754	0.108
Mof_C 	C 	0.7211	0.1144	0.1024	0.132
Mof_H 	H 	0.7023	0.1047	0.0738	0.002
Mof_C 	C 	0.7575	0.1479	0.1017	-0.201
Mof_H 	H 	0.7639	0.1598	0.0723	0.114
Mof_C 	C 	0.7849	0.1643	0.1433	0.152
Mof_C 	C 	0.7756	0.1438	0.1861	-0.216
Mof_H 	H 	0.7939	0.1538	0.2148	0.106
Mof_C 	C 	0.7415	0.1107	0.1874	0.137
Mof_H 	H 	0.7366	0.0973	0.2169	-0.005
Mof_C 	C 	0.7127	0.0954	0.1453	-0.191
Mof_C 	C 	0.6738	0.05794	0.14775	0.434
Mof_C 	C 	0.8898	0.1579	0.0422	-0.272
Mof_H 	H 	0.8843	0.1277	0.0242	0.123
Mof_H 	H 	0.9229	0.1595	0.0567	0.118
Mof_H 	H 	0.8824	0.1854	0.0209	0.115
Mof_C 	C 	0.8317	0.3209	0.2368	-0.228
Mof_H 	H 	0.8362	0.3498	0.2566	0.114
Mof_H 	H 	0.835	0.292	0.2569	0.102
Mof_H 	H 	0.8001	0.3214	0.2182	0.101
Mof_C 	C 	0.0425	0.55533	0.1348	0.415
Mof_C 	C 	0.0047	0.5921	0.1357	-0.157
Mof_C 	C 	0.9963	0.6123	0.17899	0.075
Mof_H 	H 	0.0154	0.6023	0.2073	0.022
Mof_C 	C 	0.96	0.6473	0.182	-0.137
Mof_H 	H 	0.9537	0.6581	0.2118	0.092
Mof_C 	C 	0.9333	0.6661	0.1393	0.078
Mof_C 	C 	0.9431	0.6458	0.0954	-0.145
Mof_H 	H 	0.9251	0.6562	0.0666	0.083
Mof_C 	C 	0.9786	0.6113	0.0942	0.082
Mof_H 	H 	0.9854	0.6004	0.0645	0.019
Mof_C 	C 	0.8979	0.7062	0.1407	0.009
Mof_C 	C 	0.8921	0.741	0.1124	-0.139
Mof_H 	H 	0.9133	0.7437	0.09	0.093
Mof_C 	C 	0.8563	0.7767	0.1114	0.141
Mof_C 	C 	0.8278	0.7822	0.1419	-0.104
Mof_C 	C 	0.8314	0.746	0.1722	-0.042
Mof_H 	H 	0.8107	0.7465	0.1952	0.045
Mof_C 	C 	0.8642	0.7049	0.1741	0.062
Mof_C 	C 	0.7444	0.8725	0.1857	0.135
Mof_H 	H 	0.738	0.8848	0.215	-0.006
Mof_C 	C 	0.7802	0.8388	0.1847	-0.219
Mof_H 	H 	0.7984	0.8293	0.2137	0.107
Mof_C 	C 	0.7905	0.8179	0.1424	0.179
Mof_C 	C 	0.7659	0.8357	0.1012	-0.22
Mof_H 	H 	0.774	0.8252	0.0718	0.122
Mof_C 	C 	0.7291	0.8691	0.1014	0.138
Mof_H 	H 	0.7113	0.8789	0.0723	-0.002
Mof_C 	C 	0.718	0.8882	0.1436	-0.19
Mof_C 	C 	0.6774	0.9247	0.1437	0.416
Mof_C 	C 	0.8306	0.6679	0.2424	-0.24
Mof_H 	H 	0.833	0.6395	0.263	0.12
Mof_H 	H 	0.7984	0.6705	0.2254	0.106
Mof_H 	H 	0.8382	0.697	0.2615	0.107
Mof_C 	C 	0.1334	0.5309	0.49532	0.094
Mof_H 	H 	0.1558	0.55	0.5149	-0.004
Mof_C 	C 	0.1364	0.5286	0.4478	-0.126
Mof_H 	H 	0.1609	0.546	0.4363	0.075
Mof_C 	C 	0.1057	0.50229	0.4163	0.024
Mof_C 	C 	0.0712	0.4819	0.4372	-0.124
Mof_H 	H 	0.0472	0.4642	0.418	0.082
Mof_C 	C 	0.0688	0.4857	0.48681	0.098
Mof_H 	H 	0.043	0.4716	0.4991	-0.005
Mof_C 	C 	0.1007	0.4558	0.291	0.153
Mof_H 	H 	0.0927	0.4261	0.2752	-0.019
Mof_C 	C 	0.098	0.4593	0.34012	-0.252
Mof_H 	H 	0.0892	0.4315	0.3562	0.126
Mof_C 	C 	0.10715	0.49853	0.36341	0.184
Mof_C 	C 	0.1222	0.5364	0.33905	-0.288
Mof_H 	H 	0.133	0.5659	0.3539	0.14
Mof_C 	C 	0.1205	0.5288	0.2915	0.239
Mof_H 	H 	0.1255	0.5573	0.2746	-0.049
Mof_N 	N 	0.1011	0.50798	0.51491	-0.26
Mof_N 	N 	0.114	0.49306	0.26639	-0.312
Mof_O 	O 	0.05305	0.43641	0.09746	-0.473
Mof_O 	O 	0.06792	0.43481	0.1778	-0.459
Mof_O 	O 	0.65308	0.04315	0.10785	-0.477
Mof_O 	O 	0.66634	0.04469	0.18807	-0.469
Mof_O 	O 	0.8567	0.1593	0.0825	-0.165
Mof_O 	O 	0.867	0.3198	0.2053	-0.162
Mof_O 	O 	0.06386	0.53973	0.17411	-0.476
Mof_O 	O 	0.05055	0.54085	0.09394	-0.461
Mof_O 	O 	0.66995	0.9401	0.18502	-0.459
Mof_O 	O 	0.65593	0.93912	0.10451	-0.475
Mof_O 	O 	0.8684	0.8249	0.0799	-0.171
Mof_O 	O 	0.8632	0.6632	0.2091	-0.146
Mof_Zn	Zn	0.10206	0.48991	0.08817	1.216
Mof_Zn	Zn	0.11733	0.48979	0.19445	1.216
Mof_C 	C 	0.5465	0.92039	0.1364	0.4
Mof_C 	C 	0.5079	0.88063	0.13873	-0.138
Mof_C 	C 	0.4833	0.8618	0.09686	0.07
Mof_H 	H 	0.4912	0.8718	0.0673	0.018
Mof_C 	C 	0.4472	0.8283	0.0989	-0.154
Mof_H 	H 	0.4292	0.8172	0.0704	0.085
Mof_C 	C 	0.4369	0.8105	0.1431	0.103
Mof_C 	C 	0.4621	0.8289	0.185	-0.151
Mof_H 	H 	0.4546	0.8182	0.2145	0.097
Mof_C 	C 	0.4983	0.8628	0.18385	0.069
Mof_H 	H 	0.5162	0.8739	0.2123	0.021
Mof_C 	C 	0.3985	0.7744	0.1441	-0.027
Mof_C 	C 	0.3934	0.7352	0.1135	-0.124
Mof_H 	H 	0.4146	0.7322	0.0912	0.078
Mof_C 	C 	0.3588	0.7005	0.1138	0.139
Mof_C 	C 	0.3242	0.7024	0.1429	-0.065
Mof_C 	C 	0.3275	0.7432	0.1735	-0.091
Mof_H 	H 	0.3042	0.7473	0.1936	0.061
Mof_C 	C 	0.3636	0.7776	0.1754	0.108
Mof_C 	C 	0.2211	0.6144	0.1024	0.132
Mof_H 	H 	0.2023	0.6047	0.0738	0.002
Mof_C 	C 	0.2575	0.6479	0.1017	-0.201
Mof_H 	H 	0.2639	0.6598	0.0723	0.114
Mof_C 	C 	0.2849	0.6643	0.1433	0.152
Mof_C 	C 	0.2756	0.6438	0.1861	-0.216
Mof_H 	H 	0.2939	0.6538	0.2148	0.106
Mof_C 	C 	0.2415	0.6107	0.1874	0.137
Mof_H 	H 	0.2366	0.5973	0.2169	-0.006
Mof_C 	C 	0.2127	0.5954	0.1453	-0.191
Mof_C 	C 	0.1738	0.55794	0.14775	0.434
Mof_C 	C 	0.3898	0.6579	0.0422	-0.271
Mof_H 	H 	0.3843	0.6277	0.0242	0.122
Mof_H 	H 	0.4229	0.6595	0.0567	0.118
Mof_H 	H 	0.3824	0.6854	0.0209	0.115
Mof_C 	C 	0.3317	0.8209	0.2368	-0.228
Mof_H 	H 	0.3362	0.8498	0.2566	0.114
Mof_H 	H 	0.335	0.792	0.2569	0.102
Mof_H 	H 	0.3001	0.8214	0.2182	0.101
Mof_C 	C 	0.5425	0.05533	0.1348	0.416
Mof_C 	C 	0.5047	0.0921	0.1357	-0.158
Mof_C 	C 	0.4963	0.1123	0.17899	0.076
Mof_H 	H 	0.5154	0.1023	0.2073	0.021
Mof_C 	C 	0.46	0.1473	0.182	-0.137
Mof_H 	H 	0.4537	0.1581	0.2118	0.092
Mof_C 	C 	0.4333	0.1661	0.1393	0.079
Mof_C 	C 	0.4431	0.1458	0.0954	-0.145
Mof_H 	H 	0.4251	0.1562	0.0666	0.083
Mof_C 	C 	0.4786	0.1113	0.0942	0.083
Mof_H 	H 	0.4854	0.1004	0.0645	0.019
Mof_C 	C 	0.3979	0.2062	0.1407	0.008
Mof_C 	C 	0.3921	0.241	0.1124	-0.139
Mof_H 	H 	0.4133	0.2437	0.09	0.093
Mof_C 	C 	0.3563	0.2767	0.1114	0.141
Mof_C 	C 	0.3278	0.2822	0.1419	-0.104
Mof_C 	C 	0.3314	0.246	0.1722	-0.042
Mof_H 	H 	0.3107	0.2465	0.1952	0.045
Mof_C 	C 	0.3642	0.2049	0.1741	0.062
Mof_C 	C 	0.2444	0.3725	0.1857	0.135
Mof_H 	H 	0.238	0.3848	0.215	-0.006
Mof_C 	C 	0.2802	0.3388	0.1847	-0.219
Mof_H 	H 	0.2984	0.3293	0.2137	0.107
Mof_C 	C 	0.2905	0.3179	0.1424	0.179
Mof_C 	C 	0.2659	0.3357	0.1012	-0.22
Mof_H 	H 	0.274	0.3252	0.0718	0.122
Mof_C 	C 	0.2291	0.3691	0.1014	0.138
Mof_H 	H 	0.2113	0.3789	0.0723	-0.001
Mof_C 	C 	0.218	0.3882	0.1436	-0.19
Mof_C 	C 	0.1774	0.4247	0.1437	0.416
Mof_C 	C 	0.3306	0.1679	0.2424	-0.241
Mof_H 	H 	0.333	0.1395	0.263	0.12
Mof_H 	H 	0.2984	0.1705	0.2254	0.106
Mof_H 	H 	0.3382	0.197	0.2615	0.107
Mof_C 	C 	0.6334	0.0309	0.49532	0.095
Mof_H 	H 	0.6558	0.05	0.5149	-0.004
Mof_C 	C 	0.6364	0.0286	0.4478	-0.127
Mof_H 	H 	0.6609	0.046	0.4363	0.075
Mof_C 	C 	0.6057	0.00229	0.4163	0.025
Mof_C 	C 	0.5712	0.9819	0.4372	-0.125
Mof_H 	H 	0.5472	0.9642	0.418	0.082
Mof_C 	C 	0.5688	0.9857	0.48681	0.099
Mof_H 	H 	0.543	0.9716	0.4991	-0.005
Mof_C 	C 	0.6007	0.9558	0.291	0.153
Mof_H 	H 	0.5927	0.9261	0.2752	-0.019
Mof_C 	C 	0.598	0.9593	0.34012	-0.251
Mof_H 	H 	0.5892	0.9315	0.3562	0.126
Mof_C 	C 	0.60715	0.99853	0.36341	0.183
Mof_C 	C 	0.6222	0.0364	0.33905	-0.287
Mof_H 	H 	0.633	0.0659	0.3539	0.14
Mof_C 	C 	0.6205	0.0288	0.2915	0.24
Mof_H 	H 	0.6255	0.0573	0.2746	-0.049
Mof_N 	N 	0.6011	0.00798	0.51491	-0.26
Mof_N 	N 	0.614	0.99306	0.26639	-0.312
Mof_O 	O 	0.55305	0.93641	0.09746	-0.473
Mof_O 	O 	0.56792	0.93481	0.1778	-0.459
Mof_O 	O 	0.15308	0.54315	0.10785	-0.478
Mof_O 	O 	0.16634	0.54469	0.18807	-0.469
Mof_O 	O 	0.3567	0.6593	0.0825	-0.165
Mof_O 	O 	0.367	0.8198	0.2053	-0.162
Mof_O 	O 	0.56386	0.03973	0.17411	-0.476
Mof_O 	O 	0.55055	0.04085	0.09394	-0.46
Mof_O 	O 	0.16995	0.4401	0.18502	-0.459
Mof_O 	O 	0.15593	0.43912	0.10451	-0.475
Mof_O 	O 	0.3684	0.3249	0.0799	-0.171
Mof_O 	O 	0.3632	0.1632	0.2091	-0.146
Mof_Zn	Zn	0.60206	0.98991	0.08817	1.216
Mof_Zn	Zn	0.61733	0.98979	0.19445	1.216
Mof_C 	C 	0.0465	0.57961	0.6364	0.4
Mof_C 	C 	0.0079	0.61937	0.63873	-0.138
Mof_C 	C 	0.9833	0.6382	0.59686	0.071
Mof_H 	H 	0.9912	0.6282	0.5673	0.018
Mof_C 	C 	0.9472	0.6717	0.5989	-0.154
Mof_H 	H 	0.9292	0.6828	0.5704	0.085
Mof_C 	C 	0.9369	0.6895	0.6431	0.103
Mof_C 	C 	0.9621	0.6711	0.685	-0.152
Mof_H 	H 	0.9546	0.6818	0.7145	0.097
Mof_C 	C 	0.9983	0.6372	0.68385	0.069
Mof_H 	H 	0.0162	0.6261	0.7123	0.021
Mof_C 	C 	0.8985	0.7256	0.6441	-0.027
Mof_C 	C 	0.8934	0.7648	0.6135	-0.124
Mof_H 	H 	0.9146	0.7678	0.5912	0.078
Mof_C 	C 	0.8588	0.7995	0.6138	0.139
Mof_C 	C 	0.8242	0.7976	0.6429	-0.065
Mof_C 	C 	0.8275	0.7568	0.6735	-0.091
Mof_H 	H 	0.8042	0.7527	0.6936	0.061
Mof_C 	C 	0.8636	0.7224	0.6754	0.108
Mof_C 	C 	0.7211	0.8856	0.6024	0.132
Mof_H 	H 	0.7023	0.8953	0.5738	0.002
Mof_C 	C 	0.7575	0.8521	0.6017	-0.201
Mof_H 	H 	0.7639	0.8402	0.5723	0.114
Mof_C 	C 	0.7849	0.8357	0.6433	0.152
Mof_C 	C 	0.7756	0.8562	0.6861	-0.216
Mof_H 	H 	0.7939	0.8462	0.7148	0.106
Mof_C 	C 	0.7415	0.8893	0.6874	0.137
Mof_H 	H 	0.7366	0.9027	0.7169	-0.005
Mof_C 	C 	0.7127	0.9046	0.6453	-0.191
Mof_C 	C 	0.6738	0.94206	0.64775	0.434
Mof_C 	C 	0.8898	0.8421	0.5422	-0.272
Mof_H 	H 	0.8843	0.8723	0.5242	0.123
Mof_H 	H 	0.9229	0.8405	0.5567	0.118
Mof_H 	H 	0.8824	0.8146	0.5209	0.115
Mof_C 	C 	0.8317	0.6791	0.7368	-0.228
Mof_H 	H 	0.8362	0.6502	0.7566	0.114
Mof_H 	H 	0.835	0.708	0.7569	0.102
Mof_H 	H 	0.8001	0.6786	0.7182	0.101
Mof_C 	C 	0.0425	0.44467	0.6348	0.416
Mof_C 	C 	0.0047	0.4079	0.6357	-0.159
Mof_C 	C 	0.9963	0.3877	0.67899	0.077
Mof_H 	H 	0.0154	0.3977	0.7073	0.021
Mof_C 	C 	0.96	0.3527	0.682	-0.138
Mof_H 	H 	0.9537	0.3419	0.7118	0.093
Mof_C 	C 	0.9333	0.3339	0.6393	0.079
Mof_C 	C 	0.9431	0.3542	0.5954	-0.146
Mof_H 	H 	0.9251	0.3438	0.5666	0.083
Mof_C 	C 	0.9786	0.3887	0.5942	0.084
Mof_H 	H 	0.9854	0.3996	0.5645	0.019
Mof_C 	C 	0.8979	0.2938	0.6407	0.008
Mof_C 	C 	0.8921	0.259	0.6124	-0.139
Mof_H 	H 	0.9133	0.2563	0.59	0.093
Mof_C 	C 	0.8563	0.2233	0.6114	0.141
Mof_C 	C 	0.8278	0.2178	0.6419	-0.104
Mof_C 	C 	0.8314	0.254	0.6722	-0.042
Mof_H 	H 	0.8107	0.2535	0.6952	0.045
Mof_C 	C 	0.8642	0.2951	0.6741	0.062
Mof_C 	C 	0.7444	0.1275	0.6857	0.135
Mof_H 	H 	0.738	0.1152	0.715	-0.006
Mof_C 	C 	0.7802	0.1612	0.6847	-0.219
Mof_H 	H 	0.7984	0.1707	0.7137	0.107
Mof_C 	C 	0.7905	0.1821	0.6424	0.179
Mof_C 	C 	0.7659	0.1643	0.6012	-0.22
Mof_H 	H 	0.774	0.1748	0.5718	0.122
Mof_C 	C 	0.7291	0.1309	0.6014	0.138
Mof_H 	H 	0.7113	0.1211	0.5723	-0.001
Mof_C 	C 	0.718	0.1118	0.6436	-0.189
Mof_C 	C 	0.6774	0.0753	0.6437	0.416
Mof_C 	C 	0.8306	0.3321	0.7424	-0.24
Mof_H 	H 	0.833	0.3605	0.763	0.12
Mof_H 	H 	0.7984	0.3295	0.7254	0.106
Mof_H 	H 	0.8382	0.303	0.7615	0.107
Mof_C 	C 	0.1334	0.4691	0.99532	0.093
Mof_H 	H 	0.1558	0.45	0.0149	-0.003
Mof_C 	C 	0.1364	0.4714	0.9478	-0.125
Mof_H 	H 	0.1609	0.454	0.9363	0.074
Mof_C 	C 	0.1057	0.49771	0.9163	0.023
Mof_C 	C 	0.0712	0.5181	0.9372	-0.123
Mof_H 	H 	0.0472	0.5358	0.918	0.082
Mof_C 	C 	0.0688	0.5143	0.98681	0.098
Mof_H 	H 	0.043	0.5284	0.9991	-0.005
Mof_C 	C 	0.1007	0.5442	0.791	0.154
Mof_H 	H 	0.0927	0.5739	0.7752	-0.019
Mof_C 	C 	0.098	0.5407	0.84012	-0.252
Mof_H 	H 	0.0892	0.5685	0.8562	0.126
Mof_C 	C 	0.10715	0.50147	0.86341	0.184
Mof_C 	C 	0.1222	0.4636	0.83905	-0.288
Mof_H 	H 	0.133	0.4341	0.8539	0.14
Mof_C 	C 	0.1205	0.4712	0.7915	0.239
Mof_H 	H 	0.1255	0.4427	0.7746	-0.049
Mof_N 	N 	0.1011	0.49202	0.01491	-0.259
Mof_N 	N 	0.114	0.50694	0.76639	-0.312
Mof_O 	O 	0.05305	0.56359	0.59746	-0.473
Mof_O 	O 	0.06792	0.56519	0.6778	-0.459
Mof_O 	O 	0.65308	0.95685	0.60785	-0.477
Mof_O 	O 	0.66634	0.95531	0.68807	-0.469
Mof_O 	O 	0.8567	0.8407	0.5825	-0.165
Mof_O 	O 	0.867	0.6802	0.7053	-0.162
Mof_O 	O 	0.06386	0.46027	0.67411	-0.476
Mof_O 	O 	0.05055	0.45915	0.59394	-0.461
Mof_O 	O 	0.66995	0.0599	0.68502	-0.459
Mof_O 	O 	0.65593	0.06088	0.60451	-0.475
Mof_O 	O 	0.8684	0.1751	0.5799	-0.171
Mof_O 	O 	0.8632	0.3368	0.7091	-0.146
Mof_Zn	Zn	0.10206	0.51009	0.58817	1.216
Mof_Zn	Zn	0.11733	0.51021	0.69445	1.216
Mof_C 	C 	0.5465	0.07961	0.6364	0.4
Mof_C 	C 	0.5079	0.11937	0.63873	-0.138
Mof_C 	C 	0.4833	0.1382	0.59686	0.071
Mof_H 	H 	0.4912	0.1282	0.5673	0.018
Mof_C 	C 	0.4472	0.1717	0.5989	-0.154
Mof_H 	H 	0.4292	0.1828	0.5704	0.085
Mof_C 	C 	0.4369	0.1895	0.6431	0.103
Mof_C 	C 	0.4621	0.1711	0.685	-0.151
Mof_H 	H 	0.4546	0.1818	0.7145	0.097
Mof_C 	C 	0.4983	0.1372	0.68385	0.069
Mof_H 	H 	0.5162	0.1261	0.7123	0.021
Mof_C 	C 	0.3985	0.2256	0.6441	-0.027
Mof_C 	C 	0.3934	0.2648	0.6135	-0.124
Mof_H 	H 	0.4146	0.2678	0.5912	0.078
Mof_C 	C 	0.3588	0.2995	0.6138	0.139
Mof_C 	C 	0.3242	0.2976	0.6429	-0.065
Mof_C 	C 	0.3275	0.2568	0.6735	-0.091
Mof_H 	H 	0.3042	0.2527	0.6936	0.061
Mof_C 	C 	0.3636	0.2224	0.6754	0.108
Mof_C 	C 	0.2211	0.3856	0.6024	0.132
Mof_H 	H 	0.2023	0.3953	0.5738	0.002
Mof_C 	C 	0.2575	0.3521	0.6017	-0.201
Mof_H 	H 	0.2639	0.3402	0.5723	0.114
Mof_C 	C 	0.2849	0.3357	0.6433	0.152
Mof_C 	C 	0.2756	0.3562	0.6861	-0.216
Mof_H 	H 	0.2939	0.3462	0.7148	0.106
Mof_C 	C 	0.2415	0.3893	0.6874	0.137
Mof_H 	H 	0.2366	0.4027	0.7169	-0.006
Mof_C 	C 	0.2127	0.4046	0.6453	-0.191
Mof_C 	C 	0.1738	0.44206	0.64775	0.434
Mof_C 	C 	0.3898	0.3421	0.5422	-0.272
Mof_H 	H 	0.3843	0.3723	0.5242	0.122
Mof_H 	H 	0.4229	0.3405	0.5567	0.118
Mof_H 	H 	0.3824	0.3146	0.5209	0.115
Mof_C 	C 	0.3317	0.1791	0.7368	-0.228
Mof_H 	H 	0.3362	0.1502	0.7566	0.114
Mof_H 	H 	0.335	0.208	0.7569	0.102
Mof_H 	H 	0.3001	0.1786	0.7182	0.101
Mof_C 	C 	0.5425	0.94467	0.6348	0.416
Mof_C 	C 	0.5047	0.9079	0.6357	-0.158
Mof_C 	C 	0.4963	0.8877	0.67899	0.076
Mof_H 	H 	0.5154	0.8977	0.7073	0.021
Mof_C 	C 	0.46	0.8527	0.682	-0.137
Mof_H 	H 	0.4537	0.8419	0.7118	0.092
Mof_C 	C 	0.4333	0.8339	0.6393	0.079
Mof_C 	C 	0.4431	0.8542	0.5954	-0.145
Mof_H 	H 	0.4251	0.8438	0.5666	0.083
Mof_C 	C 	0.4786	0.8887	0.5942	0.083
Mof_H 	H 	0.4854	0.8996	0.5645	0.019
Mof_C 	C 	0.3979	0.7938	0.6407	0.008
Mof_C 	C 	0.3921	0.759	0.6124	-0.139
Mof_H 	H 	0.4133	0.7563	0.59	0.093
Mof_C 	C 	0.3563	0.7233	0.6114	0.141
Mof_C 	C 	0.3278	0.7178	0.6419	-0.104
Mof_C 	C 	0.3314	0.754	0.6722	-0.042
Mof_H 	H 	0.3107	0.7535	0.6952	0.045
Mof_C 	C 	0.3642	0.7951	0.6741	0.062
Mof_C 	C 	0.2444	0.6275	0.6857	0.135
Mof_H 	H 	0.238	0.6152	0.715	-0.006
Mof_C 	C 	0.2802	0.6612	0.6847	-0.219
Mof_H 	H 	0.2984	0.6707	0.7137	0.107
Mof_C 	C 	0.2905	0.6821	0.6424	0.179
Mof_C 	C 	0.2659	0.6643	0.6012	-0.22
Mof_H 	H 	0.274	0.6748	0.5718	0.122
Mof_C 	C 	0.2291	0.6309	0.6014	0.138
Mof_H 	H 	0.2113	0.6211	0.5723	-0.001
Mof_C 	C 	0.218	0.6118	0.6436	-0.19
Mof_C 	C 	0.1774	0.5753	0.6437	0.416
Mof_C 	C 	0.3306	0.8321	0.7424	-0.241
Mof_H 	H 	0.333	0.8605	0.763	0.12
Mof_H 	H 	0.2984	0.8295	0.7254	0.106
Mof_H 	H 	0.3382	0.803	0.7615	0.107
Mof_C 	C 	0.6334	0.9691	0.99532	0.101
Mof_H 	H 	0.6558	0.95	0.0149	-0.007
Mof_C 	C 	0.6364	0.9714	0.9478	-0.133
Mof_H 	H 	0.6609	0.954	0.9363	0.078
Mof_C 	C 	0.6057	0.99771	0.9163	0.032
Mof_C 	C 	0.5712	0.0181	0.9372	-0.13
Mof_H 	H 	0.5472	0.0358	0.918	0.084
Mof_C 	C 	0.5688	0.0143	0.98681	0.102
Mof_H 	H 	0.543	0.0284	0.9991	-0.007
Mof_C 	C 	0.6007	0.0442	0.791	0.15
Mof_H 	H 	0.5927	0.0739	0.7752	-0.018
Mof_C 	C 	0.598	0.0407	0.84012	-0.246
Mof_H 	H 	0.5892	0.0685	0.8562	0.124
Mof_C 	C 	0.60715	0.00147	0.86341	0.177
Mof_C 	C 	0.6222	0.9636	0.83905	-0.282
Mof_H 	H 	0.633	0.9341	0.8539	0.138
Mof_C 	C 	0.6205	0.9712	0.7915	0.237
Mof_H 	H 	0.6255	0.9427	0.7746	-0.048
Mof_N 	N 	0.6011	0.99202	0.01491	-0.262
Mof_N 	N 	0.614	0.00694	0.76639	-0.311
Mof_O 	O 	0.55305	0.06359	0.59746	-0.473
Mof_O 	O 	0.56792	0.06519	0.6778	-0.459
Mof_O 	O 	0.15308	0.45685	0.60785	-0.478
Mof_O 	O 	0.16634	0.45531	0.68807	-0.469
Mof_O 	O 	0.3567	0.3407	0.5825	-0.165
Mof_O 	O 	0.367	0.1802	0.7053	-0.162
Mof_O 	O 	0.56386	0.96027	0.67411	-0.476
Mof_O 	O 	0.55055	0.95915	0.59394	-0.461
Mof_O 	O 	0.16995	0.5599	0.68502	-0.459
Mof_O 	O 	0.15593	0.56088	0.60451	-0.475
Mof_O 	O 	0.3684	0.6751	0.5799	-0.171
Mof_O 	O 	0.3632	0.8368	0.7091	-0.146
Mof_Zn	Zn	0.60206	0.01009	0.58817	1.216
Mof_Zn	Zn	0.61733	0.01021	0.69445	1.216
Mof_C 	C 	0.9535	0.42039	0.3636	0.4
Mof_C 	C 	0.9921	0.38063	0.36127	-0.138
Mof_C 	C 	0.0167	0.3618	0.40314	0.071
Mof_H 	H 	0.0088	0.3718	0.4327	0.018
Mof_C 	C 	0.0528	0.3283	0.4011	-0.154
Mof_H 	H 	0.0708	0.3172	0.4296	0.085
Mof_C 	C 	0.0631	0.3105	0.3569	0.103
Mof_C 	C 	0.0379	0.3289	0.315	-0.152
Mof_H 	H 	0.0454	0.3182	0.2855	0.097
Mof_C 	C 	0.0017	0.3628	0.31615	0.069
Mof_H 	H 	0.9838	0.3739	0.2877	0.021
Mof_C 	C 	0.1015	0.2744	0.3559	-0.027
Mof_C 	C 	0.1066	0.2352	0.3865	-0.124
Mof_H 	H 	0.0854	0.2322	0.4088	0.078
Mof_C 	C 	0.1412	0.2005	0.3862	0.139
Mof_C 	C 	0.1758	0.2024	0.3571	-0.065
Mof_C 	C 	0.1725	0.2432	0.3265	-0.091
Mof_H 	H 	0.1958	0.2473	0.3064	0.061
Mof_C 	C 	0.1364	0.2776	0.3246	0.108
Mof_C 	C 	0.2789	0.1144	0.3976	0.132
Mof_H 	H 	0.2977	0.1047	0.4262	0.002
Mof_C 	C 	0.2425	0.1479	0.3983	-0.201
Mof_H 	H 	0.2361	0.1598	0.4277	0.114
Mof_C 	C 	0.2151	0.1643	0.3567	0.152
Mof_C 	C 	0.2244	0.1438	0.3139	-0.216
Mof_H 	H 	0.2061	0.1538	0.2852	0.106
Mof_C 	C 	0.2585	0.1107	0.3126	0.137
Mof_H 	H 	0.2634	0.0973	0.2831	-0.005
Mof_C 	C 	0.2873	0.0954	0.3547	-0.191
Mof_C 	C 	0.3262	0.05794	0.35225	0.434
Mof_C 	C 	0.1102	0.1579	0.4578	-0.272
Mof_H 	H 	0.1157	0.1277	0.4758	0.123
Mof_H 	H 	0.0771	0.1595	0.4433	0.118
Mof_H 	H 	0.1176	0.1854	0.4791	0.115
Mof_C 	C 	0.1683	0.3209	0.2632	-0.228
Mof_H 	H 	0.1638	0.3498	0.2434	0.114
Mof_H 	H 	0.165	0.292	0.2431	0.102
Mof_H 	H 	0.1999	0.3214	0.2818	0.101
Mof_C 	C 	0.9575	0.55533	0.3652	0.416
Mof_C 	C 	0.9953	0.5921	0.3643	-0.159
Mof_C 	C 	0.0037	0.6123	0.32101	0.077
Mof_H 	H 	0.9846	0.6023	0.2927	0.021
Mof_C 	C 	0.04	0.6473	0.318	-0.138
Mof_H 	H 	0.0463	0.6581	0.2882	0.093
Mof_C 	C 	0.0667	0.6661	0.3607	0.079
Mof_C 	C 	0.0569	0.6458	0.4046	-0.146
Mof_H 	H 	0.0749	0.6562	0.4334	0.083
Mof_C 	C 	0.0214	0.6113	0.4058	0.084
Mof_H 	H 	0.0146	0.6004	0.4355	0.019
Mof_C 	C 	0.1021	0.7062	0.3593	0.008
Mof_C 	C 	0.1079	0.741	0.3876	-0.139
Mof_H 	H 	0.0867	0.7437	0.41	0.093
Mof_C 	C 	0.1437	0.7767	0.3886	0.141
Mof_C 	C 	0.1722	0.7822	0.3581	-0.104
Mof_C 	C 	0.1686	0.746	0.3278	-0.042
Mof_H 	H 	0.1893	0.7465	0.3048	0.045
Mof_C 	C 	0.1358	0.7049	0.3259	0.062
Mof_C 	C 	0.2556	0.8725	0.3143	0.135
Mof_H 	H 	0.262	0.8848	0.285	-0.006
Mof_C 	C 	0.2198	0.8388	0.3153	-0.219
Mof_H 	H 	0.2016	0.8293	0.2863	0.107
Mof_C 	C 	0.2095	0.8179	0.3576	0.179
Mof_C 	C 	0.2341	0.8357	0.3988	-0.22
Mof_H 	H 	0.226	0.8252	0.4282	0.122
Mof_C 	C 	0.2709	0.8691	0.3986	0.138
Mof_H 	H 	0.2887	0.8789	0.4277	-0.001
Mof_C 	C 	0.282	0.8882	0.3564	-0.189
Mof_C 	C 	0.3226	0.9247	0.3563	0.416
Mof_C 	C 	0.1694	0.6679	0.2576	-0.24
Mof_H 	H 	0.167	0.6395	0.237	0.12
Mof_H 	H 	0.2016	0.6705	0.2746	0.106
Mof_H 	H 	0.1618	0.697	0.2385	0.107
Mof_C 	C 	0.8666	0.5309	0.00468	0.093
Mof_H 	H 	0.8442	0.55	0.9851	-0.003
Mof_C 	C 	0.8636	0.5286	0.0522	-0.125
Mof_H 	H 	0.8391	0.546	0.0637	0.074
Mof_C 	C 	0.8943	0.50229	0.0837	0.023
Mof_C 	C 	0.9288	0.4819	0.0628	-0.123
Mof_H 	H 	0.9528	0.4642	0.082	0.082
Mof_C 	C 	0.9312	0.4857	0.01319	0.098
Mof_H 	H 	0.957	0.4716	0.0009	-0.005
Mof_C 	C 	0.8993	0.4558	0.209	0.154
Mof_H 	H 	0.9073	0.4261	0.2248	-0.019
Mof_C 	C 	0.902	0.4593	0.15988	-0.252
Mof_H 	H 	0.9108	0.4315	0.1438	0.126
Mof_C 	C 	0.89285	0.49853	0.13659	0.184
Mof_C 	C 	0.8778	0.5364	0.16095	-0.288
Mof_H 	H 	0.867	0.5659	0.1461	0.14
Mof_C 	C 	0.8795	0.5288	0.2085	0.239
Mof_H 	H 	0.8745	0.5573	0.2254	-0.049
Mof_N 	N 	0.8989	0.50798	0.98509	-0.259
Mof_N 	N 	0.886	0.49306	0.23361	-0.312
Mof_O 	O 	0.94695	0.43641	0.40254	-0.473
Mof_O 	O 	0.93208	0.43481	0.3222	-0.459
Mof_O 	O 	0.34692	0.04315	0.39215	-0.477
Mof_O 	O 	0.33366	0.04469	0.31193	-0.469
Mof_O 	O 	0.1433	0.1593	0.4175	-0.165
Mof_O 	O 	0.133	0.3198	0.2947	-0.162
Mof_O 	O 	0.93614	0.53973	0.32589	-0.476
Mof_O 	O 	0.94945	0.54085	0.40606	-0.461
Mof_O 	O 	0.33005	0.9401	0.31498	-0.459
Mof_O 	O 	0.34407	0.93912	0.39549	-0.475
Mof_O 	O 	0.1316	0.8249	0.4201	-0.171
Mof_O 	O 	0.1368	0.6632	0.2909	-0.146
Mof_Zn	Zn	0.89794	0.48991	0.41183	1.216
Mof_Zn	Zn	0.88267	0.48979	0.30555	1.216
Mof_C 	C 	0.4535	0.92039	0.3636	0.4
Mof_C 	C 	0.4921	0.88063	0.36127	-0.138
Mof_C 	C 	0.5167	0.8618	0.40314	0.071
Mof_H 	H 	0.5088	0.8718	0.4327	0.018
Mof_C 	C 	0.5528	0.8283	0.4011	-0.154
Mof_H 	H 	0.5708	0.8172	0.4296	0.085
Mof_C 	C 	0.5631	0.8105	0.3569	0.103
Mof_C 	C 	0.5379	0.8289	0.315	-0.151
Mof_H 	H 	0.5454	0.8182	0.2855	0.097
Mof_C 	C 	0.5017	0.8628	0.31615	0.069
Mof_H 	H 	0.4838	0.8739	0.2877	0.021
Mof_C 	C 	0.6015	0.7744	0.3559	-0.027
Mof_C 	C 	0.6066	0.7352	0.3865	-0.124
Mof_H 	H 	0.5854	0.7322	0.4088	0.078
Mof_C 	C 	0.6412	0.7005	0.3862	0.139
Mof_C 	C 	0.6758	0.7024	0.3571	-0.065
Mof_C 	C 	0.6725	0.7432	0.3265	-0.091
Mof_H 	H 	0.6958	0.7473	0.3064	0.061
Mof_C 	C 	0.6364	0.7776	0.3246	0.108
Mof_C 	C 	0.7789	0.6144	0.3976	0.132
Mof_H 	H 	0.7977	0.6047	0.4262	0.002
Mof_C 	C 	0.7425	0.6479	0.3983	-0.201
Mof_H 	H 	0.7361	0.6598	0.4277	0.114
Mof_C 	C 	0.7151	0.6643	0.3567	0.152
Mof_C 	C 	0.7244	0.6438	0.3139	-0.216
Mof_H 	H 	0.7061	0.6538	0.2852	0.106
Mof_C 	C 	0.7585	0.6107	0.3126	0.137
Mof_H 	H 	0.7634	0.5973	0.2831	-0.006
Mof_C 	C 	0.7873	0.5954	0.3547	-0.191
Mof_C 	C 	0.8262	0.55794	0.35225	0.434
Mof_C 	C 	0.6102	0.6579	0.4578	-0.272
Mof_H 	H 	0.6157	0.6277	0.4758	0.122
Mof_H 	H 	0.5771	0.6595	0.4433	0.118
Mof_H 	H 	0.6176	0.6854	0.4791	0.115
Mof_C 	C 	0.6683	0.8209	0.2632	-0.228
Mof_H 	H 	0.6638	0.8498	0.2434	0.114
Mof_H 	H 	0.665	0.792	0.2431	0.102
Mof_H 	H 	0.6999	0.8214	0.2818	0.101
Mof_C 	C 	0.4575	0.05533	0.3652	0.416
Mof_C 	C 	0.4953	0.0921	0.3643	-0.158
Mof_C 	C 	0.5037	0.1123	0.32101	0.076
Mof_H 	H 	0.4846	0.1023	0.2927	0.021
Mof_C 	C 	0.54	0.1473	0.318	-0.137
Mof_H 	H 	0.5463	0.1581	0.2882	0.092
Mof_C 	C 	0.5667	0.1661	0.3607	0.079
Mof_C 	C 	0.5569	0.1458	0.4046	-0.145
Mof_H 	H 	0.5749	0.1562	0.4334	0.083
Mof_C 	C 	0.5214	0.1113	0.4058	0.083
Mof_H 	H 	0.5146	0.1004	0.4355	0.019
Mof_C 	C 	0.6021	0.2062	0.3593	0.008
Mof_C 	C 	0.6079	0.241	0.3876	-0.139
Mof_H 	H 	0.5867	0.2437	0.41	0.093
Mof_C 	C 	0.6437	0.2767	0.3886	0.141
Mof_C 	C 	0.6722	0.2822	0.3581	-0.104
Mof_C 	C 	0.6686	0.246	0.3278	-0.042
Mof_H 	H 	0.6893	0.2465	0.3048	0.045
Mof_C 	C 	0.6358	0.2049	0.3259	0.062
Mof_C 	C 	0.7556	0.3725	0.3143	0.135
Mof_H 	H 	0.762	0.3848	0.285	-0.006
Mof_C 	C 	0.7198	0.3388	0.3153	-0.219
Mof_H 	H 	0.7016	0.3293	0.2863	0.107
Mof_C 	C 	0.7095	0.3179	0.3576	0.179
Mof_C 	C 	0.7341	0.3357	0.3988	-0.22
Mof_H 	H 	0.726	0.3252	0.4282	0.122
Mof_C 	C 	0.7709	0.3691	0.3986	0.138
Mof_H 	H 	0.7887	0.3789	0.4277	-0.001
Mof_C 	C 	0.782	0.3882	0.3564	-0.19
Mof_C 	C 	0.8226	0.4247	0.3563	0.416
Mof_C 	C 	0.6694	0.1679	0.2576	-0.241
Mof_H 	H 	0.667	0.1395	0.237	0.12
Mof_H 	H 	0.7016	0.1705	0.2746	0.106
Mof_H 	H 	0.6618	0.197	0.2385	0.107
Mof_C 	C 	0.3666	0.0309	0.00468	0.101
Mof_H 	H 	0.3442	0.05	0.9851	-0.007
Mof_C 	C 	0.3636	0.0286	0.0522	-0.133
Mof_H 	H 	0.3391	0.046	0.0637	0.078
Mof_C 	C 	0.3943	0.00229	0.0837	0.032
Mof_C 	C 	0.4288	0.9819	0.0628	-0.13
Mof_H 	H 	0.4528	0.9642	0.082	0.084
Mof_C 	C 	0.4312	0.9857	0.01319	0.102
Mof_H 	H 	0.457	0.9716	0.0009	-0.007
Mof_C 	C 	0.3993	0.9558	0.209	0.15
Mof_H 	H 	0.4073	0.9261	0.2248	-0.018
Mof_C 	C 	0.402	0.9593	0.15988	-0.246
Mof_H 	H 	0.4108	0.9315	0.1438	0.124
Mof_C 	C 	0.39285	0.99853	0.13659	0.177
Mof_C 	C 	0.3778	0.0364	0.16095	-0.282
Mof_H 	H 	0.367	0.0659	0.1461	0.138
Mof_C 	C 	0.3795	0.0288	0.2085	0.237
Mof_H 	H 	0.3745	0.0573	0.2254	-0.048
Mof_N 	N 	0.3989	0.00798	0.98509	-0.262
Mof_N 	N 	0.386	0.99306	0.23361	-0.311
Mof_O 	O 	0.44695	0.93641	0.40254	-0.473
Mof_O 	O 	0.43208	0.93481	0.3222	-0.459
Mof_O 	O 	0.84692	0.54315	0.39215	-0.478
Mof_O 	O 	0.83366	0.54469	0.31193	-0.469
Mof_O 	O 	0.6433	0.6593	0.4175	-0.165
Mof_O 	O 	0.633	0.8198	0.2947	-0.162
Mof_O 	O 	0.43614	0.03973	0.32589	-0.476
Mof_O 	O 	0.44945	0.04085	0.40606	-0.461
Mof_O 	O 	0.83005	0.4401	0.31498	-0.459
Mof_O 	O 	0.84407	0.43912	0.39549	-0.475
Mof_O 	O 	0.6316	0.3249	0.4201	-0.171
Mof_O 	O 	0.6368	0.1632	0.2909	-0.146
Mof_Zn	Zn	0.39794	0.98991	0.41183	1.216
Mof_Zn	Zn	0.38267	0.98979	0.30555	1.216
Mof_C 	C 	0.9535	0.57961	0.8636	0.4
Mof_C 	C 	0.9921	0.61937	0.86127	-0.137
Mof_C 	C 	0.0167	0.6382	0.90314	0.07
Mof_H 	H 	0.0088	0.6282	0.9327	0.018
Mof_C 	C 	0.0528	0.6717	0.9011	-0.153
Mof_H 	H 	0.0708	0.6828	0.9296	0.085
Mof_C 	C 	0.0631	0.6895	0.8569	0.102
Mof_C 	C 	0.0379	0.6711	0.815	-0.151
Mof_H 	H 	0.0454	0.6818	0.7855	0.097
Mof_C 	C 	0.0017	0.6372	0.81615	0.068
Mof_H 	H 	0.9838	0.6261	0.7877	0.022
Mof_C 	C 	0.1015	0.7256	0.8559	-0.027
Mof_C 	C 	0.1066	0.7648	0.8865	-0.124
Mof_H 	H 	0.0854	0.7678	0.9088	0.078
Mof_C 	C 	0.1412	0.7995	0.8862	0.139
Mof_C 	C 	0.1758	0.7976	0.8571	-0.065
Mof_C 	C 	0.1725	0.7568	0.8265	-0.091
Mof_H 	H 	0.1958	0.7527	0.8064	0.061
Mof_C 	C 	0.1364	0.7224	0.8246	0.108
Mof_C 	C 	0.2789	0.8856	0.8976	0.132
Mof_H 	H 	0.2977	0.8953	0.9262	0.002
Mof_C 	C 	0.2425	0.8521	0.8983	-0.201
Mof_H 	H 	0.2361	0.8402	0.9277	0.114
Mof_C 	C 	0.2151	0.8357	0.8567	0.152
Mof_C 	C 	0.2244	0.8562	0.8139	-0.216
Mof_H 	H 	0.2061	0.8462	0.7852	0.106
Mof_C 	C 	0.2585	0.8893	0.8126	0.137
Mof_H 	H 	0.2634	0.9027	0.7831	-0.005
Mof_C 	C 	0.2873	0.9046	0.8547	-0.191
Mof_C 	C 	0.3262	0.94206	0.85225	0.434
Mof_C 	C 	0.1102	0.8421	0.9578	-0.272
Mof_H 	H 	0.1157	0.8723	0.9758	0.123
Mof_H 	H 	0.0771	0.8405	0.9433	0.118
Mof_H 	H 	0.1176	0.8146	0.9791	0.115
Mof_C 	C 	0.1683	0.6791	0.7632	-0.228
Mof_H 	H 	0.1638	0.6502	0.7434	0.114
Mof_H 	H 	0.165	0.708	0.7431	0.102
Mof_H 	H 	0.1999	0.6786	0.7818	0.101
Mof_C 	C 	0.9575	0.44467	0.8652	0.415
Mof_C 	C 	0.9953	0.4079	0.8643	-0.157
Mof_C 	C 	0.0037	0.3877	0.82101	0.075
Mof_H 	H 	0.9846	0.3977	0.7927	0.022
Mof_C 	C 	0.04	0.3527	0.818	-0.137
Mof_H 	H 	0.0463	0.3419	0.7882	0.092
Mof_C 	C 	0.0667	0.3339	0.8607	0.078
Mof_C 	C 	0.0569	0.3542	0.9046	-0.145
Mof_H 	H 	0.0749	0.3438	0.9334	0.083
Mof_C 	C 	0.0214	0.3887	0.9058	0.082
Mof_H 	H 	0.0146	0.3996	0.9355	0.019
Mof_C 	C 	0.1021	0.2938	0.8593	0.009
Mof_C 	C 	0.1079	0.259	0.8876	-0.139
Mof_H 	H 	0.0867	0.2563	0.91	0.093
Mof_C 	C 	0.1437	0.2233	0.8886	0.141
Mof_C 	C 	0.1722	0.2178	0.8581	-0.104
Mof_C 	C 	0.1686	0.254	0.8278	-0.042
Mof_H 	H 	0.1893	0.2535	0.8048	0.045
Mof_C 	C 	0.1358	0.2951	0.8259	0.062
Mof_C 	C 	0.2556	0.1275	0.8143	0.135
Mof_H 	H 	0.262	0.1152	0.785	-0.006
Mof_C 	C 	0.2198	0.1612	0.8153	-0.219
Mof_H 	H 	0.2016	0.1707	0.7863	0.107
Mof_C 	C 	0.2095	0.1821	0.8576	0.179
Mof_C 	C 	0.2341	0.1643	0.8988	-0.22
Mof_H 	H 	0.226	0.1748	0.9282	0.122
Mof_C 	C 	0.2709	0.1309	0.8986	0.138
Mof_H 	H 	0.2887	0.1211	0.9277	-0.002
Mof_C 	C 	0.282	0.1118	0.8564	-0.19
Mof_C 	C 	0.3226	0.0753	0.8563	0.416
Mof_C 	C 	0.1694	0.3321	0.7576	-0.24
Mof_H 	H 	0.167	0.3605	0.737	0.12
Mof_H 	H 	0.2016	0.3295	0.7746	0.106
Mof_H 	H 	0.1618	0.303	0.7385	0.107
Mof_C 	C 	0.8666	0.4691	0.50468	0.094
Mof_H 	H 	0.8442	0.45	0.4851	-0.004
Mof_C 	C 	0.8636	0.4714	0.5522	-0.126
Mof_H 	H 	0.8391	0.454	0.5637	0.075
Mof_C 	C 	0.8943	0.49771	0.5837	0.024
Mof_C 	C 	0.9288	0.5181	0.5628	-0.124
Mof_H 	H 	0.9528	0.5358	0.582	0.082
Mof_C 	C 	0.9312	0.5143	0.51319	0.098
Mof_H 	H 	0.957	0.5284	0.5009	-0.005
Mof_C 	C 	0.8993	0.5442	0.709	0.153
Mof_H 	H 	0.9073	0.5739	0.7248	-0.019
Mof_C 	C 	0.902	0.5407	0.65988	-0.252
Mof_H 	H 	0.9108	0.5685	0.6438	0.126
Mof_C 	C 	0.89285	0.50147	0.63659	0.184
Mof_C 	C 	0.8778	0.4636	0.66095	-0.288
Mof_H 	H 	0.867	0.4341	0.6461	0.14
Mof_C 	C 	0.8795	0.4712	0.7085	0.239
Mof_H 	H 	0.8745	0.4427	0.7254	-0.049
Mof_N 	N 	0.8989	0.49202	0.48509	-0.26
Mof_N 	N 	0.886	0.50694	0.73361	-0.312
Mof_O 	O 	0.94695	0.56359	0.90254	-0.473
Mof_O 	O 	0.93208	0.56519	0.8222	-0.459
Mof_O 	O 	0.34692	0.95685	0.89215	-0.477
Mof_O 	O 	0.33366	0.95531	0.81193	-0.469
Mof_O 	O 	0.1433	0.8407	0.9175	-0.165
Mof_O 	O 	0.133	0.6802	0.7947	-0.162
Mof_O 	O 	0.93614	0.46027	0.82589	-0.476
Mof_O 	O 	0.94945	0.45915	0.90606	-0.461
Mof_O 	O 	0.33005	0.0599	0.81498	-0.459
Mof_O 	O 	0.34407	0.06088	0.89549	-0.475
Mof_O 	O 	0.1316	0.1751	0.9201	-0.171
Mof_O 	O 	0.1368	0.3368	0.7909	-0.146
Mof_Zn	Zn	0.89794	0.51009	0.91183	1.216
Mof_Zn	Zn	0.88267	0.51021	0.80554	1.216
Mof_C 	C 	0.4535	0.07961	0.8636	0.4
Mof_C 	C 	0.4921	0.11937	0.86127	-0.138
Mof_C 	C 	0.5167	0.1382	0.90314	0.071
Mof_H 	H 	0.5088	0.1282	0.9327	0.018
Mof_C 	C 	0.5528	0.1717	0.9011	-0.154
Mof_H 	H 	0.5708	0.1828	0.9296	0.085
Mof_C 	C 	0.5631	0.1895	0.8569	0.103
Mof_C 	C 	0.5379	0.1711	0.815	-0.151
Mof_H 	H 	0.5454	0.1818	0.7855	0.097
Mof_C 	C 	0.5017	0.1372	0.81615	0.069
Mof_H 	H 	0.4838	0.1261	0.7877	0.021
Mof_C 	C 	0.6015	0.2256	0.8559	-0.027
Mof_C 	C 	0.6066	0.2648	0.8865	-0.124
Mof_H 	H 	0.5854	0.2678	0.9088	0.078
Mof_C 	C 	0.6412	0.2995	0.8862	0.139
Mof_C 	C 	0.6758	0.2976	0.8571	-0.065
Mof_C 	C 	0.6725	0.2568	0.8265	-0.091
Mof_H 	H 	0.6958	0.2527	0.8064	0.061
Mof_C 	C 	0.6364	0.2224	0.8246	0.108
Mof_C 	C 	0.7789	0.3856	0.8976	0.132
Mof_H 	H 	0.7977	0.3953	0.9262	0.002
Mof_C 	C 	0.7425	0.3521	0.8983	-0.201
Mof_H 	H 	0.7361	0.3402	0.9277	0.114
Mof_C 	C 	0.7151	0.3357	0.8567	0.152
Mof_C 	C 	0.7244	0.3562	0.8139	-0.216
Mof_H 	H 	0.7061	0.3462	0.7852	0.106
Mof_C 	C 	0.7585	0.3893	0.8126	0.137
Mof_H 	H 	0.7634	0.4027	0.7831	-0.006
Mof_C 	C 	0.7873	0.4046	0.8547	-0.191
Mof_C 	C 	0.8262	0.44206	0.85225	0.434
Mof_C 	C 	0.6102	0.3421	0.9578	-0.271
Mof_H 	H 	0.6157	0.3723	0.9758	0.122
Mof_H 	H 	0.5771	0.3405	0.9433	0.118
Mof_H 	H 	0.6176	0.3146	0.9791	0.115
Mof_C 	C 	0.6683	0.1791	0.7632	-0.228
Mof_H 	H 	0.6638	0.1502	0.7434	0.114
Mof_H 	H 	0.665	0.208	0.7431	0.102
Mof_H 	H 	0.6999	0.1786	0.7818	0.101
Mof_C 	C 	0.4575	0.94467	0.8652	0.416
Mof_C 	C 	0.4953	0.9079	0.8643	-0.158
Mof_C 	C 	0.5037	0.8877	0.82101	0.076
Mof_H 	H 	0.4846	0.8977	0.7927	0.021
Mof_C 	C 	0.54	0.8527	0.818	-0.137
Mof_H 	H 	0.5463	0.8419	0.7882	0.092
Mof_C 	C 	0.5667	0.8339	0.8607	0.079
Mof_C 	C 	0.5569	0.8542	0.9046	-0.145
Mof_H 	H 	0.5749	0.8438	0.9334	0.083
Mof_C 	C 	0.5214	0.8887	0.9058	0.083
Mof_H 	H 	0.5146	0.8996	0.9355	0.019
Mof_C 	C 	0.6021	0.7938	0.8593	0.008
Mof_C 	C 	0.6079	0.759	0.8876	-0.139
Mof_H 	H 	0.5867	0.7563	0.91	0.093
Mof_C 	C 	0.6437	0.7233	0.8886	0.141
Mof_C 	C 	0.6722	0.7178	0.8581	-0.104
Mof_C 	C 	0.6686	0.754	0.8278	-0.042
Mof_H 	H 	0.6893	0.7535	0.8048	0.045
Mof_C 	C 	0.6358	0.7951	0.8259	0.062
Mof_C 	C 	0.7556	0.6275	0.8143	0.135
Mof_H 	H 	0.762	0.6152	0.785	-0.006
Mof_C 	C 	0.7198	0.6612	0.8153	-0.219
Mof_H 	H 	0.7016	0.6707	0.7863	0.107
Mof_C 	C 	0.7095	0.6821	0.8576	0.179
Mof_C 	C 	0.7341	0.6643	0.8988	-0.22
Mof_H 	H 	0.726	0.6748	0.9282	0.122
Mof_C 	C 	0.7709	0.6309	0.8986	0.138
Mof_H 	H 	0.7887	0.6211	0.9277	-0.001
Mof_C 	C 	0.782	0.6118	0.8564	-0.19
Mof_C 	C 	0.8226	0.5753	0.8563	0.416
Mof_C 	C 	0.6694	0.8321	0.7576	-0.241
Mof_H 	H 	0.667	0.8605	0.737	0.12
Mof_H 	H 	0.7016	0.8295	0.7746	0.106
Mof_H 	H 	0.6618	0.803	0.7385	0.107
Mof_C 	C 	0.3666	0.9691	0.50468	0.095
Mof_H 	H 	0.3442	0.95	0.4851	-0.004
Mof_C 	C 	0.3636	0.9714	0.5522	-0.127
Mof_H 	H 	0.3391	0.954	0.5637	0.075
Mof_C 	C 	0.3943	0.99771	0.5837	0.025
Mof_C 	C 	0.4288	0.0181	0.5628	-0.125
Mof_H 	H 	0.4528	0.0358	0.582	0.082
Mof_C 	C 	0.4312	0.0143	0.51319	0.099
Mof_H 	H 	0.457	0.0284	0.5009	-0.005
Mof_C 	C 	0.3993	0.0442	0.709	0.153
Mof_H 	H 	0.4073	0.0739	0.7248	-0.019
Mof_C 	C 	0.402	0.0407	0.65988	-0.251
Mof_H 	H 	0.4108	0.0685	0.6438	0.126
Mof_C 	C 	0.39285	0.00147	0.63659	0.183
Mof_C 	C 	0.3778	0.9636	0.66095	-0.287
Mof_H 	H 	0.367	0.9341	0.6461	0.14
Mof_C 	C 	0.3795	0.9712	0.7085	0.24
Mof_H 	H 	0.3745	0.9427	0.7254	-0.049
Mof_N 	N 	0.3989	0.99202	0.48509	-0.26
Mof_N 	N 	0.386	0.00694	0.73361	-0.312
Mof_O 	O 	0.44695	0.06359	0.90254	-0.473
Mof_O 	O 	0.43208	0.06519	0.8222	-0.459
Mof_O 	O 	0.84692	0.45685	0.89215	-0.478
Mof_O 	O 	0.83366	0.45531	0.81193	-0.469
Mof_O 	O 	0.6433	0.3407	0.9175	-0.165
Mof_O 	O 	0.633	0.1802	0.7947	-0.162
Mof_O 	O 	0.43614	0.96027	0.82589	-0.476
Mof_O 	O 	0.44945	0.95915	0.90606	-0.46
Mof_O 	O 	0.83005	0.5599	0.81498	-0.459
Mof_O 	O 	0.84407	0.56088	0.89549	-0.475
Mof_O 	O 	0.6316	0.6751	0.9201	-0.171
Mof_O 	O 	0.6368	0.8368	0.7909	-0.146
Mof_Zn	Zn	0.39794	0.01009	0.91183	1.216
Mof_Zn	Zn	0.38267	0.01021	0.80554	1.216
_end
