# CIF file generated by openbabel 3.1.0, see https://openbabel.org
data_I
_chemical_name_common 'image0'
_cell_length_a 9.956
_cell_length_b 11.208
_cell_length_c 10.615
_cell_angle_alpha 90
_cell_angle_beta 113.53
_cell_angle_gamma 90
_space_group_name_H-M_alt 'P 1'
_space_group_name_Hall 'P 1'
loop_
    _symmetry_equiv_pos_as_xyz
    x,y,z
loop_
    _atom_site_label
    _atom_site_type_symbol
    _atom_site_fract_x
    _atom_site_fract_y
    _atom_site_fract_z
    _atom_site_occupancy
    Zr1      Zr       0.91040    0.16416    0.72238    1.000
    Rb1      Rb       0.61900    0.56902    0.61550    1.000
    N1       N        0.06550    0.27077    0.93338    1.000
    N2       N        0.95920    0.01011    0.57988    1.000
    C1       C        0.08570    0.39400    0.89500    1.000
    C2       C        0.20490    0.20400    0.99480    1.000
    C3       C        0.99130    0.26950    0.03060    1.000
    C4       C        0.95310    0.43630    0.77350    1.000
    C5       C        0.16930    0.07200    0.98160    1.000
    C6       C        0.83490    0.22690    0.96870    1.000
    C7       C        0.91660    0.89340    0.61630    1.000
    C8       C        0.11760    0.01450    0.60860    1.000
    C9       C        0.86960    0.03920    0.43320    1.000
    C10      C        0.78660    0.90600    0.65340    1.000
    C11      C        0.17180    0.14210    0.63600    1.000
    C12      C        0.74540    0.12470    0.41200    1.000
    O1       O        0.93230    0.54378    0.74920    1.000
    O2       O        0.87107    0.35425    0.69673    1.000
    O3       O        0.24340    0.00033    0.06670    1.000
    O4       O        0.05415    0.04468    0.87143    1.000
    O5       O        0.76360    0.22227    0.03970    1.000
    O6       O        0.78476    0.19112    0.84306    1.000
    O7       O        0.71430    0.81789    0.65520    1.000
    O8       O        0.76120    0.01119    0.68490    1.000
    O9       O        0.28296    0.17100    0.62110    1.000
    O10      O        0.09570    0.21260    0.67856    1.000
    O11      O        0.64150    0.13160    0.30180    1.000
    O12      O        0.76150    0.19300    0.51473    1.000
    H1       H        0.10700    0.44800    0.96600    1.000
    H2       H        0.16600    0.39700    0.86400    1.000
    H3       H        0.25900    0.23000    0.08400    1.000
    H4       H        0.26000    0.22300    0.93900    1.000
    H5       H        0.04100    0.21300    0.10600    1.000
    H6       H        0.99800    0.34400    0.06500    1.000
    H7       H        0.00000    0.86300    0.69200    1.000
    H8       H        0.90100    0.83900    0.55500    1.000
    H9       H        0.14000    0.98500    0.53900    1.000
    H10      H        0.17100    0.97200    0.69400    1.000
    H11      H        0.83500    0.96500    0.38000    1.000
    H12      H        0.93700    0.08100    0.39400    1.000
    Zr2      Zr       0.08960    0.66416    0.27762    1.000
    Rb2      Rb       0.38100    0.06902    0.38450    1.000
    N3       N        0.93450    0.77077    0.06662    1.000
    N4       N        0.04080    0.51011    0.42012    1.000
    C13      C        0.91430    0.89400    0.10500    1.000
    C14      C        0.79510    0.70400    0.00520    1.000
    C15      C        0.00870    0.76950    0.96940    1.000
    C16      C        0.04690    0.93630    0.22650    1.000
    C17      C        0.83070    0.57200    0.01840    1.000
    C18      C        0.16510    0.72690    0.03130    1.000
    C19      C        0.08340    0.39340    0.38370    1.000
    C20      C        0.88240    0.51450    0.39140    1.000
    C21      C        0.13040    0.53920    0.56680    1.000
    C22      C        0.21340    0.40600    0.34660    1.000
    C23      C        0.82820    0.64210    0.36400    1.000
    C24      C        0.25460    0.62470    0.58800    1.000
    O13      O        0.06770    0.04378    0.25080    1.000
    O14      O        0.12893    0.85425    0.30327    1.000
    O15      O        0.75660    0.50033    0.93330    1.000
    O16      O        0.94585    0.54468    0.12857    1.000
    O17      O        0.23640    0.72227    0.96030    1.000
    O18      O        0.21524    0.69112    0.15694    1.000
    O19      O        0.28570    0.31789    0.34480    1.000
    O20      O        0.23880    0.51119    0.31510    1.000
    O21      O        0.71704    0.67100    0.37890    1.000
    O22      O        0.90430    0.71260    0.32144    1.000
    O23      O        0.35850    0.63160    0.69820    1.000
    O24      O        0.23850    0.69300    0.48527    1.000
    H13      H        0.89300    0.94800    0.03400    1.000
    H14      H        0.83400    0.89700    0.13600    1.000
    H15      H        0.74100    0.73000    0.91600    1.000
    H16      H        0.74000    0.72300    0.06100    1.000
    H17      H        0.95900    0.71300    0.89400    1.000
    H18      H        0.00200    0.84400    0.93500    1.000
    H19      H        0.00000    0.36300    0.30800    1.000
    H20      H        0.09900    0.33900    0.44500    1.000
    H21      H        0.86000    0.48500    0.46100    1.000
    H22      H        0.82900    0.47200    0.30600    1.000
    H23      H        0.16500    0.46500    0.62000    1.000
    H24      H        0.06300    0.58100    0.60600    1.000
