# CIF file generated by openbabel 3.1.0, see https://openbabel.org
data_I
_chemical_name_common 'image0'
_cell_length_a 10.5526
_cell_length_b 10.8749
_cell_length_c 15.3643
_cell_angle_alpha 76.545
_cell_angle_beta 82.101
_cell_angle_gamma 79.927
_space_group_name_H-M_alt 'P 1'
_space_group_name_Hall 'P 1'
loop_
    _symmetry_equiv_pos_as_xyz
    x,y,z
loop_
    _atom_site_label
    _atom_site_type_symbol
    _atom_site_fract_x
    _atom_site_fract_y
    _atom_site_fract_z
    _atom_site_occupancy
    Cu1      Cu       0.15906    0.51020    0.15969    1.000
    Cu2      Cu       0.92689    0.76119    0.09159    1.000
    Cu3      Cu       0.32016    0.49567    0.34245    1.000
    Cu4      Cu       0.61937    0.60361    0.28462    1.000
    O1       O        0.20890    0.39440    0.30450    1.000
    O2       O        0.31380    0.20350    0.36240    1.000
    O3       O        0.75200    0.45720    0.26860    1.000
    O4       O        0.63880    0.34100    0.38130    1.000
    O5       O        0.16300    0.63800    0.98110    1.000
    O6       O        0.06190    0.82850    0.00260    1.000
    O7       O        0.23840    0.23190    0.82890    1.000
    O8       O        0.42360    0.20170    0.74930    1.000
    O9       O        0.98330    0.54210    0.12050    1.000
    H1       H        0.92110    0.49690    0.16420    1.000
    O10      O        0.44330    0.58090    0.38190    1.000
    H2       H        0.39960    0.66710    0.38550    1.000
    N1       N        0.03050    0.76030    0.19060    1.000
    N2       N        0.10830    0.65410    0.22150    1.000
    N3       N        0.16930    0.67010    0.28870    1.000
    N4       N        0.34860    0.53720    0.14610    1.000
    N5       N        0.40740    0.53310    0.21830    1.000
    N6       N        0.51700    0.57940    0.19280    1.000
    N7       N        0.20130    0.35330    0.10760    1.000
    N8       N        0.13360    0.35740    0.03960    1.000
    N9       N        0.16910    0.25050    0.01030    1.000
    N10      N        0.71140    0.61660    0.38640    1.000
    N11      N        0.66040    0.57180    0.46840    1.000
    N12      N        0.74270    0.56750    0.52850    1.000
    C1       C        0.12560    0.78970    0.29890    1.000
    H3       H        0.15030    0.82760    0.34100    1.000
    C2       C        0.03940    0.84730    0.23800    1.000
    H4       H        0.99540    0.93030    0.23070    1.000
    C3       C        0.53080    0.61270    0.10290    1.000
    H5       H        0.59980    0.64710    0.06690    1.000
    C4       C        0.42260    0.58610    0.07430    1.000
    H6       H        0.40480    0.60000    0.01490    1.000
    C5       C        0.26110    0.17670    0.05980    1.000
    H7       H        0.30340    0.09620    0.05350    1.000
    C6       C        0.28030    0.24290    0.12060    1.000
    H8       H        0.33860    0.21560    0.16390    1.000
    C7       C        0.84680    0.61320    0.48330    1.000
    H9       H        0.91950    0.62300    0.50760    1.000
    C8       C        0.82720    0.64310    0.39390    1.000
    H10      H        0.88500    0.67640    0.34650    1.000
    C9       C        0.09160    0.22060    0.34560    1.000
    C10      C        0.97860    0.30320    0.32910    1.000
    H11      H        0.98230    0.39000    0.30800    1.000
    C11      C        0.85950    0.26090    0.34290    1.000
    C12      C        0.85500    0.13080    0.37510    1.000
    H12      H        0.77580    0.10060    0.38680    1.000
    C13      C        0.96740    0.04700    0.38960    1.000
    H13      H        0.96440    0.95990    0.40890    1.000
    C14      C        0.08480    0.09180    0.37540    1.000
    H14      H        0.16030    0.03440    0.38610    1.000
    C15      C        0.21680    0.27120    0.33760    1.000
    C16      C        0.73840    0.35880    0.33040    1.000
    C17      C        0.24230    0.82450    0.89290    1.000
    C18      C        0.24100    0.95600    0.88100    1.000
    H15      H        0.18250    0.00320    0.91630    1.000
    C19      C        0.32920    0.01580    0.81490    1.000
    C20      C        0.41410    0.94560    0.76290    1.000
    H16      H        0.47240    0.98580    0.71920    1.000
    C21      C        0.41440    0.81590    0.77440    1.000
    H17      H        0.47180    0.76910    0.73830    1.000
    C22      C        0.32870    0.75620    0.84020    1.000
    H18      H        0.32960    0.66850    0.84880    1.000
    C23      C        0.15010    0.75680    0.96380    1.000
    C24      C        0.32970    0.15860    0.79780    1.000
    Cu5      Cu       0.84094    0.48980    0.84031    1.000
    Cu6      Cu       0.07311    0.23881    0.90841    1.000
    Cu7      Cu       0.67984    0.50433    0.65755    1.000
    Cu8      Cu       0.38063    0.39639    0.71538    1.000
    O11      O        0.79110    0.60560    0.69550    1.000
    O12      O        0.68620    0.79650    0.63760    1.000
    O13      O        0.24800    0.54280    0.73140    1.000
    O14      O        0.36120    0.65900    0.61870    1.000
    O15      O        0.83700    0.36200    0.01890    1.000
    O16      O        0.93810    0.17150    0.99740    1.000
    O17      O        0.76160    0.76810    0.17110    1.000
    O18      O        0.57640    0.79830    0.25070    1.000
    O19      O        0.01670    0.45790    0.87950    1.000
    H19      H        0.07890    0.50310    0.83580    1.000
    O20      O        0.55670    0.41910    0.61810    1.000
    H20      H        0.60040    0.33290    0.61450    1.000
    N13      N        0.96950    0.23970    0.80940    1.000
    N14      N        0.89170    0.34590    0.77850    1.000
    N15      N        0.83070    0.32990    0.71130    1.000
    N16      N        0.65140    0.46280    0.85390    1.000
    N17      N        0.59260    0.46690    0.78170    1.000
    N18      N        0.48300    0.42060    0.80720    1.000
    N19      N        0.79870    0.64670    0.89240    1.000
    N20      N        0.86640    0.64260    0.96040    1.000
    N21      N        0.83090    0.74950    0.98970    1.000
    N22      N        0.28860    0.38340    0.61360    1.000
    N23      N        0.33960    0.42820    0.53160    1.000
    N24      N        0.25730    0.43250    0.47150    1.000
    C25      C        0.87440    0.21030    0.70110    1.000
    H21      H        0.84970    0.17240    0.65900    1.000
    C26      C        0.96060    0.15270    0.76200    1.000
    H22      H        0.00460    0.06970    0.76930    1.000
    C27      C        0.46920    0.38730    0.89710    1.000
    H23      H        0.40020    0.35290    0.93310    1.000
    C28      C        0.57740    0.41390    0.92570    1.000
    H24      H        0.59520    0.40000    0.98510    1.000
    C29      C        0.73890    0.82330    0.94020    1.000
    H25      H        0.69660    0.90380    0.94650    1.000
    C30      C        0.71970    0.75710    0.87940    1.000
    H26      H        0.66140    0.78440    0.83610    1.000
    C31      C        0.15320    0.38680    0.51670    1.000
    H27      H        0.08050    0.37700    0.49240    1.000
    C32      C        0.17280    0.35690    0.60610    1.000
    H28      H        0.11500    0.32360    0.65350    1.000
    C33      C        0.90840    0.77940    0.65440    1.000
    C34      C        0.02140    0.69680    0.67090    1.000
    H29      H        0.01770    0.61000    0.69200    1.000
    C35      C        0.14050    0.73910    0.65710    1.000
    C36      C        0.14500    0.86920    0.62490    1.000
    H30      H        0.22420    0.89940    0.61320    1.000
    C37      C        0.03260    0.95300    0.61040    1.000
    H31      H        0.03560    0.04010    0.59110    1.000
    C38      C        0.91520    0.90820    0.62460    1.000
    H32      H        0.83970    0.96560    0.61390    1.000
    C39      C        0.78320    0.72880    0.66240    1.000
    C40      C        0.26160    0.64120    0.66960    1.000
    C41      C        0.75770    0.17550    0.10710    1.000
    C42      C        0.75900    0.04400    0.11900    1.000
    H33      H        0.81750    0.99680    0.08370    1.000
    C43      C        0.67080    0.98420    0.18510    1.000
    C44      C        0.58590    0.05440    0.23710    1.000
    H34      H        0.52760    0.01420    0.28080    1.000
    C45      C        0.58560    0.18410    0.22560    1.000
    H35      H        0.52820    0.23090    0.26170    1.000
    C46      C        0.67130    0.24380    0.15980    1.000
    H36      H        0.67040    0.33150    0.15120    1.000
    C47      C        0.84990    0.24320    0.03620    1.000
    C48      C        0.67030    0.84140    0.20220    1.000
    Cu9      Cu       0.00000    0.50000    0.00000    1.000
    Cu10     Cu       0.50000    0.50000    0.50000    1.000
