data_functionalizedCrystal
_audit_creation_method	'EQeq! by Chris Wilmer'
_symmetry_space_group_name_H-M	'P1'
_symmetry_Int_Tables_number	1
_symmetry_cell_setting	triclinic
loop_
_symmetry_equiv_pos_as_xyz
  x,y,z
_cell_length_a	23.7776
_cell_length_b	23.7776
_cell_length_c	75.9896
_cell_angle_alpha	90
_cell_angle_beta	90
_cell_angle_gamma	90
loop_
_atom_site_label
_atom_site_type_symbol
_atom_site_fract_x
_atom_site_fract_y
_atom_site_fract_z
_atom_site_charge
Mof_Cu	Cu	0.95678	0.96532	0.13911	0.904
Mof_C 	C 	0.15377	0.80139	0.2166	0.022
Mof_C 	C 	0.1767	0.82838	0.23116	-0.16
Mof_H 	H 	0.1744	0.8673	0.2321	0.097
Mof_C 	C 	0.2031	0.7972	0.24424	0.179
Mof_C 	C 	0.20653	0.73903	0.24277	-0.043
Mof_C 	C 	0.18361	0.71204	0.22822	0.038
Mof_C 	C 	0.15723	0.74322	0.21513	-0.003
Mof_C 	C 	0.1354	0.7157	0.19981	-0.069
Mof_H 	H 	0.1202	0.737	0.1907	0.061
Mof_C 	C 	0.1366	0.6575	0.19839	0
Mof_C 	C 	0.1611	0.6263	0.2124	-0.038
Mof_H 	H 	0.1613	0.5873	0.2119	0.047
Mof_C 	C 	0.1841	0.6527	0.22631	-0.064
Mof_H 	H 	0.2011	0.6312	0.235	0.063
Mof_C 	C 	0.1235	0.8396	0.20268	0.069
Mof_C 	C 	0.0692	0.8278	0.19696	-0.134
Mof_H 	H 	0.0494	0.7978	0.2018	0.079
Mof_C 	C 	0.04455	0.8608	0.18397	0.069
Mof_H 	H 	0.0082	0.8529	0.1801	0.023
Mof_C 	C 	0.0741	0.90552	0.17671	-0.146
Mof_C 	C 	0.1284	0.91732	0.18243	0.07
Mof_H 	H 	0.1482	0.9473	0.1776	0.023
Mof_C 	C 	0.15306	0.8844	0.19541	-0.133
Mof_H 	H 	0.1894	0.8923	0.1992	0.083
Mof_O 	O 	0.9998	0.9254	0.15765	-0.412
Mof_O 	O 	0.003	0.5724	0.12943	-0.393
Mof_O 	O 	0.0728	0.5115	0.12986	-0.43
Mof_C 	C 	0.1127	0.6305	0.18234	0.074
Mof_C 	C 	0.14007	0.5846	0.17487	-0.13
Mof_H 	H 	0.1726	0.5705	0.18	0.08
Mof_C 	C 	0.1189	0.56004	0.15966	0.06
Mof_H 	H 	0.1371	0.5294	0.1547	0.027
Mof_C 	C 	0.0703	0.5813	0.15193	-0.133
Mof_C 	C 	0.04298	0.6271	0.15941	0.065
Mof_H 	H 	0.0105	0.6413	0.1542	0.025
Mof_C 	C 	0.0642	0.65169	0.17461	-0.132
Mof_H 	H 	0.0459	0.6823	0.1796	0.079
Mof_C 	C 	0.0478	0.9396	0.16308	0.396
Mof_C 	C 	0.0499	0.5518	0.13595	0.389
Mof_C 	C 	0.2083	0.8863	0.2625	-0.032
Mof_C 	C 	0.193	0.906	0.2733	0.017
Mof_O 	O 	0.0725	0.9815	0.1569	-0.414
Mof_O 	O 	0.2266	0.8216	0.25843	-0.217
Mof_C 	C 	0.7574	0.3811	0.9929	0.098
Mof_C 	C 	0.7441	0.4016	0.9739	-0.014
Mof_Cu	Cu	0.45678	0.46532	0.63911	0.903
Mof_C 	C 	0.65377	0.30139	0.7166	0.021
Mof_C 	C 	0.6767	0.32838	0.73116	-0.161
Mof_H 	H 	0.6744	0.3673	0.7321	0.096
Mof_C 	C 	0.7031	0.2972	0.74424	0.178
Mof_C 	C 	0.70653	0.23903	0.74277	-0.044
Mof_C 	C 	0.68361	0.21204	0.72822	0.037
Mof_C 	C 	0.65723	0.24322	0.71513	-0.004
Mof_C 	C 	0.6354	0.2157	0.69981	-0.07
Mof_H 	H 	0.6202	0.237	0.6907	0.06
Mof_C 	C 	0.6366	0.1575	0.69839	-0.001
Mof_C 	C 	0.6611	0.1263	0.7124	-0.039
Mof_H 	H 	0.6613	0.0873	0.7119	0.046
Mof_C 	C 	0.6841	0.1527	0.72631	-0.065
Mof_H 	H 	0.7011	0.1312	0.735	0.062
Mof_C 	C 	0.6235	0.3396	0.70268	0.068
Mof_C 	C 	0.5692	0.3278	0.69696	-0.134
Mof_H 	H 	0.5494	0.2978	0.7018	0.078
Mof_C 	C 	0.54455	0.3608	0.68397	0.067
Mof_H 	H 	0.5082	0.3529	0.6801	0.022
Mof_C 	C 	0.5741	0.40552	0.67671	-0.147
Mof_C 	C 	0.6284	0.41732	0.68243	0.069
Mof_H 	H 	0.6482	0.4473	0.6776	0.022
Mof_C 	C 	0.65306	0.3844	0.69541	-0.134
Mof_H 	H 	0.6894	0.3923	0.6992	0.082
Mof_O 	O 	0.4998	0.4254	0.65765	-0.412
Mof_O 	O 	0.503	0.0724	0.62943	-0.394
Mof_O 	O 	0.5728	0.0115	0.62986	-0.431
Mof_C 	C 	0.6127	0.1305	0.68234	0.073
Mof_C 	C 	0.64007	0.0846	0.67487	-0.13
Mof_H 	H 	0.6726	0.0705	0.68	0.079
Mof_C 	C 	0.6189	0.06004	0.65966	0.059
Mof_H 	H 	0.6371	0.0294	0.6547	0.026
Mof_C 	C 	0.5703	0.0813	0.65193	-0.134
Mof_C 	C 	0.54298	0.1271	0.65941	0.064
Mof_H 	H 	0.5105	0.1413	0.6542	0.024
Mof_C 	C 	0.5642	0.15169	0.67461	-0.133
Mof_H 	H 	0.5459	0.1823	0.6796	0.078
Mof_C 	C 	0.5478	0.4396	0.66308	0.394
Mof_C 	C 	0.5499	0.0518	0.63595	0.388
Mof_C 	C 	0.7083	0.3863	0.7625	-0.033
Mof_C 	C 	0.693	0.406	0.7733	0.016
Mof_O 	O 	0.5725	0.4815	0.6569	-0.415
Mof_O 	O 	0.7266	0.3216	0.75843	-0.218
Mof_C 	C 	0.2574	0.8811	0.4929	0.098
Mof_C 	C 	0.2441	0.9016	0.4739	-0.014
Mof_Cu	Cu	0.54322	0.53468	0.63911	0.903
Mof_C 	C 	0.34623	0.69861	0.7166	0.021
Mof_C 	C 	0.3233	0.67162	0.73116	-0.161
Mof_H 	H 	0.3256	0.6327	0.7321	0.096
Mof_C 	C 	0.2969	0.7028	0.74424	0.178
Mof_C 	C 	0.29347	0.76097	0.74277	-0.044
Mof_C 	C 	0.31639	0.78796	0.72822	0.037
Mof_C 	C 	0.34277	0.75678	0.71513	-0.004
Mof_C 	C 	0.3646	0.7843	0.69981	-0.07
Mof_H 	H 	0.3798	0.763	0.6907	0.06
Mof_C 	C 	0.3634	0.8425	0.69839	-0.001
Mof_C 	C 	0.3389	0.8737	0.7124	-0.039
Mof_H 	H 	0.3387	0.9127	0.7119	0.046
Mof_C 	C 	0.3159	0.8473	0.72631	-0.065
Mof_H 	H 	0.2989	0.8688	0.735	0.062
Mof_C 	C 	0.3765	0.6604	0.70268	0.068
Mof_C 	C 	0.4308	0.6722	0.69696	-0.134
Mof_H 	H 	0.4506	0.7022	0.7018	0.078
Mof_C 	C 	0.45545	0.6392	0.68397	0.067
Mof_H 	H 	0.4918	0.6471	0.6801	0.022
Mof_C 	C 	0.4259	0.59448	0.67671	-0.147
Mof_C 	C 	0.3716	0.58268	0.68243	0.069
Mof_H 	H 	0.3518	0.5527	0.6776	0.022
Mof_C 	C 	0.34694	0.6156	0.69541	-0.134
Mof_H 	H 	0.3106	0.6077	0.6992	0.082
Mof_O 	O 	0.5002	0.5746	0.65765	-0.412
Mof_O 	O 	0.497	0.9276	0.62943	-0.394
Mof_O 	O 	0.4272	0.9885	0.62986	-0.431
Mof_C 	C 	0.3873	0.8695	0.68234	0.073
Mof_C 	C 	0.35993	0.9154	0.67487	-0.13
Mof_H 	H 	0.3274	0.9295	0.68	0.079
Mof_C 	C 	0.3811	0.93996	0.65966	0.059
Mof_H 	H 	0.3629	0.9706	0.6547	0.026
Mof_C 	C 	0.4297	0.9187	0.65193	-0.134
Mof_C 	C 	0.45702	0.8729	0.65941	0.064
Mof_H 	H 	0.4895	0.8587	0.6542	0.024
Mof_C 	C 	0.4358	0.84831	0.67461	-0.133
Mof_H 	H 	0.4541	0.8177	0.6796	0.078
Mof_C 	C 	0.4522	0.5604	0.66308	0.394
Mof_C 	C 	0.4501	0.9482	0.63595	0.388
Mof_C 	C 	0.2917	0.6137	0.7625	-0.033
Mof_C 	C 	0.307	0.594	0.7733	0.016
Mof_O 	O 	0.4275	0.5185	0.6569	-0.415
Mof_O 	O 	0.2734	0.6784	0.75843	-0.218
Mof_C 	C 	0.7426	0.1189	0.4929	0.098
Mof_C 	C 	0.7559	0.0984	0.4739	-0.014
Mof_Cu	Cu	0.04322	0.03468	0.13911	0.903
Mof_C 	C 	0.84623	0.19861	0.2166	0.021
Mof_C 	C 	0.8233	0.17162	0.23116	-0.161
Mof_H 	H 	0.8256	0.1327	0.2321	0.096
Mof_C 	C 	0.7969	0.2028	0.24424	0.178
Mof_C 	C 	0.79347	0.26097	0.24277	-0.044
Mof_C 	C 	0.81639	0.28796	0.22822	0.037
Mof_C 	C 	0.84277	0.25678	0.21513	-0.004
Mof_C 	C 	0.8646	0.2843	0.19981	-0.07
Mof_H 	H 	0.8798	0.263	0.1907	0.06
Mof_C 	C 	0.8634	0.3425	0.19839	-0.001
Mof_C 	C 	0.8389	0.3737	0.2124	-0.039
Mof_H 	H 	0.8387	0.4127	0.2119	0.046
Mof_C 	C 	0.8159	0.3473	0.22631	-0.065
Mof_H 	H 	0.7989	0.3688	0.235	0.062
Mof_C 	C 	0.8765	0.1604	0.20268	0.068
Mof_C 	C 	0.9308	0.1722	0.19696	-0.135
Mof_H 	H 	0.9506	0.2022	0.2018	0.078
Mof_C 	C 	0.95545	0.1392	0.18397	0.068
Mof_H 	H 	0.9918	0.1471	0.1801	0.022
Mof_C 	C 	0.9259	0.09448	0.17671	-0.147
Mof_C 	C 	0.8716	0.08268	0.18243	0.069
Mof_H 	H 	0.8518	0.0527	0.1776	0.022
Mof_C 	C 	0.84694	0.1156	0.19541	-0.134
Mof_H 	H 	0.8106	0.1077	0.1992	0.082
Mof_O 	O 	0.0002	0.0746	0.15765	-0.413
Mof_O 	O 	0.997	0.4276	0.12943	-0.394
Mof_O 	O 	0.9272	0.4885	0.12986	-0.431
Mof_C 	C 	0.8873	0.3695	0.18234	0.073
Mof_C 	C 	0.85993	0.4154	0.17487	-0.131
Mof_H 	H 	0.8274	0.4295	0.18	0.079
Mof_C 	C 	0.8811	0.43996	0.15966	0.059
Mof_H 	H 	0.8629	0.4706	0.1547	0.026
Mof_C 	C 	0.9297	0.4187	0.15193	-0.134
Mof_C 	C 	0.95702	0.3729	0.15941	0.064
Mof_H 	H 	0.9895	0.3587	0.1542	0.024
Mof_C 	C 	0.9358	0.34831	0.17461	-0.133
Mof_H 	H 	0.9541	0.3177	0.1796	0.078
Mof_C 	C 	0.9522	0.0604	0.16308	0.395
Mof_C 	C 	0.9501	0.4482	0.13595	0.388
Mof_C 	C 	0.7917	0.1137	0.2625	-0.033
Mof_C 	C 	0.807	0.094	0.2733	0.016
Mof_O 	O 	0.9275	0.0185	0.1569	-0.415
Mof_O 	O 	0.7734	0.1784	0.25843	-0.218
Mof_C 	C 	0.2426	0.6189	0.9929	0.098
Mof_C 	C 	0.2559	0.5984	0.9739	-0.014
Mof_Cu	Cu	0.03468	0.45678	0.38911	0.903
Mof_C 	C 	0.19861	0.65377	0.4666	0.021
Mof_C 	C 	0.17162	0.6767	0.48116	-0.161
Mof_H 	H 	0.1327	0.6744	0.4821	0.096
Mof_C 	C 	0.2028	0.7031	0.49424	0.178
Mof_C 	C 	0.26097	0.70653	0.49277	-0.044
Mof_C 	C 	0.28796	0.68361	0.47822	0.037
Mof_C 	C 	0.25678	0.65723	0.46513	-0.004
Mof_C 	C 	0.2843	0.6354	0.44981	-0.07
Mof_H 	H 	0.263	0.6202	0.4407	0.06
Mof_C 	C 	0.3425	0.6366	0.44839	-0.001
Mof_C 	C 	0.3737	0.6611	0.4624	-0.039
Mof_H 	H 	0.4127	0.6613	0.4619	0.046
Mof_C 	C 	0.3473	0.6841	0.47631	-0.065
Mof_H 	H 	0.3688	0.7011	0.485	0.062
Mof_C 	C 	0.1604	0.6235	0.45268	0.068
Mof_C 	C 	0.1722	0.5692	0.44696	-0.134
Mof_H 	H 	0.2022	0.5494	0.4518	0.078
Mof_C 	C 	0.1392	0.54455	0.43397	0.067
Mof_H 	H 	0.1471	0.5082	0.4301	0.022
Mof_C 	C 	0.09448	0.5741	0.42671	-0.147
Mof_C 	C 	0.08268	0.6284	0.43243	0.069
Mof_H 	H 	0.0527	0.6482	0.4276	0.022
Mof_C 	C 	0.1156	0.65306	0.44541	-0.134
Mof_H 	H 	0.1077	0.6894	0.4492	0.082
Mof_O 	O 	0.0746	0.4998	0.40765	-0.412
Mof_O 	O 	0.4276	0.503	0.37943	-0.394
Mof_O 	O 	0.4885	0.5728	0.37986	-0.431
Mof_C 	C 	0.3695	0.6127	0.43234	0.073
Mof_C 	C 	0.4154	0.64007	0.42487	-0.13
Mof_H 	H 	0.4295	0.6726	0.43	0.079
Mof_C 	C 	0.43996	0.6189	0.40966	0.059
Mof_H 	H 	0.4706	0.6371	0.4047	0.026
Mof_C 	C 	0.4187	0.5703	0.40193	-0.134
Mof_C 	C 	0.3729	0.54298	0.40941	0.064
Mof_H 	H 	0.3587	0.5105	0.4042	0.024
Mof_C 	C 	0.34831	0.5642	0.42461	-0.133
Mof_H 	H 	0.3177	0.5459	0.4296	0.078
Mof_C 	C 	0.0604	0.5478	0.41308	0.394
Mof_C 	C 	0.4482	0.5499	0.38595	0.388
Mof_C 	C 	0.1137	0.7083	0.5125	-0.033
Mof_C 	C 	0.094	0.693	0.5233	0.016
Mof_O 	O 	0.0185	0.5725	0.4069	-0.415
Mof_O 	O 	0.1784	0.7266	0.50843	-0.218
Mof_C 	C 	0.6189	0.2574	0.2429	0.098
Mof_C 	C 	0.5984	0.2441	0.2239	-0.014
Mof_Cu	Cu	0.53468	0.95678	0.88911	0.903
Mof_C 	C 	0.69861	0.15377	0.9666	0.021
Mof_C 	C 	0.67162	0.1767	0.98116	-0.161
Mof_H 	H 	0.6327	0.1744	0.9821	0.096
Mof_C 	C 	0.7028	0.2031	0.99424	0.178
Mof_C 	C 	0.76097	0.20653	0.99277	-0.044
Mof_C 	C 	0.78796	0.18361	0.97822	0.037
Mof_C 	C 	0.75678	0.15723	0.96513	-0.004
Mof_C 	C 	0.7843	0.1354	0.94981	-0.07
Mof_H 	H 	0.763	0.1202	0.9407	0.06
Mof_C 	C 	0.8425	0.1366	0.94839	-0.001
Mof_C 	C 	0.8737	0.1611	0.9624	-0.039
Mof_H 	H 	0.9127	0.1613	0.9619	0.046
Mof_C 	C 	0.8473	0.1841	0.97631	-0.065
Mof_H 	H 	0.8688	0.2011	0.985	0.062
Mof_C 	C 	0.6604	0.1235	0.95268	0.068
Mof_C 	C 	0.6722	0.0692	0.94696	-0.134
Mof_H 	H 	0.7022	0.0494	0.9518	0.078
Mof_C 	C 	0.6392	0.04455	0.93397	0.068
Mof_H 	H 	0.6471	0.0082	0.9301	0.022
Mof_C 	C 	0.59448	0.0741	0.92671	-0.147
Mof_C 	C 	0.58268	0.1284	0.93243	0.069
Mof_H 	H 	0.5527	0.1482	0.9276	0.022
Mof_C 	C 	0.6156	0.15306	0.94541	-0.134
Mof_H 	H 	0.6077	0.1894	0.9492	0.082
Mof_O 	O 	0.5746	0.9998	0.90765	-0.412
Mof_O 	O 	0.9276	0.003	0.87943	-0.393
Mof_O 	O 	0.9885	0.0728	0.87986	-0.431
Mof_C 	C 	0.8695	0.1127	0.93234	0.073
Mof_C 	C 	0.9154	0.14007	0.92487	-0.13
Mof_H 	H 	0.9295	0.1726	0.93	0.079
Mof_C 	C 	0.93996	0.1189	0.90966	0.059
Mof_H 	H 	0.9706	0.1371	0.9047	0.026
Mof_C 	C 	0.9187	0.0703	0.90193	-0.134
Mof_C 	C 	0.8729	0.04298	0.90941	0.064
Mof_H 	H 	0.8587	0.0105	0.9042	0.024
Mof_C 	C 	0.84831	0.0642	0.92461	-0.133
Mof_H 	H 	0.8177	0.0459	0.9296	0.078
Mof_C 	C 	0.5604	0.0478	0.91308	0.394
Mof_C 	C 	0.9482	0.0499	0.88595	0.388
Mof_C 	C 	0.6137	0.2083	0.0125	-0.033
Mof_C 	C 	0.594	0.193	0.0233	0.016
Mof_O 	O 	0.5185	0.0725	0.9069	-0.415
Mof_O 	O 	0.6784	0.2266	0.00843	-0.218
Mof_C 	C 	0.1189	0.7574	0.7429	0.098
Mof_C 	C 	0.0984	0.7441	0.7239	-0.014
Mof_Cu	Cu	0.46532	0.04322	0.88911	0.903
Mof_C 	C 	0.30139	0.84623	0.9666	0.021
Mof_C 	C 	0.32838	0.8233	0.98116	-0.161
Mof_H 	H 	0.3673	0.8256	0.9821	0.096
Mof_C 	C 	0.2972	0.7969	0.99424	0.178
Mof_C 	C 	0.23903	0.79347	0.99277	-0.044
Mof_C 	C 	0.21204	0.81639	0.97822	0.037
Mof_C 	C 	0.24322	0.84277	0.96513	-0.004
Mof_C 	C 	0.2157	0.8646	0.94981	-0.07
Mof_H 	H 	0.237	0.8798	0.9407	0.06
Mof_C 	C 	0.1575	0.8634	0.94839	-0.001
Mof_C 	C 	0.1263	0.8389	0.9624	-0.039
Mof_H 	H 	0.0873	0.8387	0.9619	0.046
Mof_C 	C 	0.1527	0.8159	0.97631	-0.065
Mof_H 	H 	0.1312	0.7989	0.985	0.062
Mof_C 	C 	0.3396	0.8765	0.95268	0.068
Mof_C 	C 	0.3278	0.9308	0.94696	-0.134
Mof_H 	H 	0.2978	0.9506	0.9518	0.078
Mof_C 	C 	0.3608	0.95545	0.93397	0.068
Mof_H 	H 	0.3529	0.9918	0.9301	0.022
Mof_C 	C 	0.40552	0.9259	0.92671	-0.147
Mof_C 	C 	0.41732	0.8716	0.93243	0.069
Mof_H 	H 	0.4473	0.8518	0.9276	0.022
Mof_C 	C 	0.3844	0.84694	0.94541	-0.134
Mof_H 	H 	0.3923	0.8106	0.9492	0.082
Mof_O 	O 	0.4254	0.0002	0.90765	-0.412
Mof_O 	O 	0.0724	0.997	0.87943	-0.393
Mof_O 	O 	0.0115	0.9272	0.87986	-0.431
Mof_C 	C 	0.1305	0.8873	0.93234	0.073
Mof_C 	C 	0.0846	0.85993	0.92487	-0.13
Mof_H 	H 	0.0705	0.8274	0.93	0.079
Mof_C 	C 	0.06004	0.8811	0.90966	0.059
Mof_H 	H 	0.0294	0.8629	0.9047	0.026
Mof_C 	C 	0.0813	0.9297	0.90193	-0.134
Mof_C 	C 	0.1271	0.95702	0.90941	0.064
Mof_H 	H 	0.1413	0.9895	0.9042	0.024
Mof_C 	C 	0.15169	0.9358	0.92461	-0.133
Mof_H 	H 	0.1823	0.9541	0.9296	0.078
Mof_C 	C 	0.4396	0.9522	0.91308	0.394
Mof_C 	C 	0.0518	0.9501	0.88595	0.388
Mof_C 	C 	0.3863	0.7917	0.0125	-0.033
Mof_C 	C 	0.406	0.807	0.0233	0.016
Mof_O 	O 	0.4815	0.9275	0.9069	-0.415
Mof_O 	O 	0.3216	0.7734	0.00843	-0.218
Mof_C 	C 	0.8811	0.2426	0.7429	0.098
Mof_C 	C 	0.9016	0.2559	0.7239	-0.014
Mof_Cu	Cu	0.96532	0.54322	0.38911	0.903
Mof_C 	C 	0.80139	0.34623	0.4666	0.021
Mof_C 	C 	0.82838	0.3233	0.48116	-0.161
Mof_H 	H 	0.8673	0.3256	0.4821	0.096
Mof_C 	C 	0.7972	0.2969	0.49424	0.178
Mof_C 	C 	0.73903	0.29347	0.49277	-0.044
Mof_C 	C 	0.71204	0.31639	0.47822	0.037
Mof_C 	C 	0.74322	0.34277	0.46513	-0.004
Mof_C 	C 	0.7157	0.3646	0.44981	-0.07
Mof_H 	H 	0.737	0.3798	0.4407	0.06
Mof_C 	C 	0.6575	0.3634	0.44839	-0.001
Mof_C 	C 	0.6263	0.3389	0.4624	-0.039
Mof_H 	H 	0.5873	0.3387	0.4619	0.046
Mof_C 	C 	0.6527	0.3159	0.47631	-0.065
Mof_H 	H 	0.6312	0.2989	0.485	0.062
Mof_C 	C 	0.8396	0.3765	0.45268	0.068
Mof_C 	C 	0.8278	0.4308	0.44696	-0.134
Mof_H 	H 	0.7978	0.4506	0.4518	0.078
Mof_C 	C 	0.8608	0.45545	0.43397	0.067
Mof_H 	H 	0.8529	0.4918	0.4301	0.022
Mof_C 	C 	0.90552	0.4259	0.42671	-0.147
Mof_C 	C 	0.91732	0.3716	0.43243	0.069
Mof_H 	H 	0.9473	0.3518	0.4276	0.022
Mof_C 	C 	0.8844	0.34694	0.44541	-0.134
Mof_H 	H 	0.8923	0.3106	0.4492	0.082
Mof_O 	O 	0.9254	0.5002	0.40765	-0.412
Mof_O 	O 	0.5724	0.497	0.37943	-0.394
Mof_O 	O 	0.5115	0.4272	0.37986	-0.431
Mof_C 	C 	0.6305	0.3873	0.43234	0.073
Mof_C 	C 	0.5846	0.35993	0.42487	-0.13
Mof_H 	H 	0.5705	0.3274	0.43	0.079
Mof_C 	C 	0.56004	0.3811	0.40966	0.059
Mof_H 	H 	0.5294	0.3629	0.4047	0.026
Mof_C 	C 	0.5813	0.4297	0.40193	-0.134
Mof_C 	C 	0.6271	0.45702	0.40941	0.064
Mof_H 	H 	0.6413	0.4895	0.4042	0.024
Mof_C 	C 	0.65169	0.4358	0.42461	-0.133
Mof_H 	H 	0.6823	0.4541	0.4296	0.078
Mof_C 	C 	0.9396	0.4522	0.41308	0.394
Mof_C 	C 	0.5518	0.4501	0.38595	0.388
Mof_C 	C 	0.8863	0.2917	0.5125	-0.033
Mof_C 	C 	0.906	0.307	0.5233	0.016
Mof_O 	O 	0.9815	0.4275	0.4069	-0.415
Mof_O 	O 	0.8216	0.2734	0.50843	-0.218
Mof_C 	C 	0.3811	0.7426	0.2429	0.098
Mof_C 	C 	0.4016	0.7559	0.2239	-0.014
Mof_Cu	Cu	0.54322	0.96532	0.61089	0.903
Mof_C 	C 	0.34623	0.80139	0.5334	0.021
Mof_C 	C 	0.3233	0.82838	0.51884	-0.161
Mof_H 	H 	0.3256	0.8673	0.5179	0.096
Mof_C 	C 	0.2969	0.7972	0.50576	0.178
Mof_C 	C 	0.29347	0.73903	0.50723	-0.044
Mof_C 	C 	0.31639	0.71204	0.52178	0.037
Mof_C 	C 	0.34277	0.74322	0.53487	-0.004
Mof_C 	C 	0.3646	0.7157	0.55019	-0.07
Mof_H 	H 	0.3798	0.737	0.5593	0.06
Mof_C 	C 	0.3634	0.6575	0.55161	-0.001
Mof_C 	C 	0.3389	0.6263	0.5376	-0.039
Mof_H 	H 	0.3387	0.5873	0.5381	0.046
Mof_C 	C 	0.3159	0.6527	0.52369	-0.065
Mof_H 	H 	0.2989	0.6312	0.515	0.062
Mof_C 	C 	0.3765	0.8396	0.54732	0.068
Mof_C 	C 	0.4308	0.8278	0.55304	-0.134
Mof_H 	H 	0.4506	0.7978	0.5482	0.078
Mof_C 	C 	0.45545	0.8608	0.56603	0.067
Mof_H 	H 	0.4918	0.8529	0.5699	0.022
Mof_C 	C 	0.4259	0.90552	0.57329	-0.147
Mof_C 	C 	0.3716	0.91732	0.56757	0.069
Mof_H 	H 	0.3518	0.9473	0.5724	0.022
Mof_C 	C 	0.34694	0.8844	0.55459	-0.134
Mof_H 	H 	0.3106	0.8923	0.5508	0.082
Mof_O 	O 	0.5002	0.9254	0.59235	-0.412
Mof_O 	O 	0.497	0.5724	0.62057	-0.394
Mof_O 	O 	0.4272	0.5115	0.62014	-0.431
Mof_C 	C 	0.3873	0.6305	0.56766	0.073
Mof_C 	C 	0.35993	0.5846	0.57513	-0.13
Mof_H 	H 	0.3274	0.5705	0.57	0.079
Mof_C 	C 	0.3811	0.56004	0.59034	0.059
Mof_H 	H 	0.3629	0.5294	0.5953	0.026
Mof_C 	C 	0.4297	0.5813	0.59807	-0.134
Mof_C 	C 	0.45702	0.6271	0.59059	0.064
Mof_H 	H 	0.4895	0.6413	0.5958	0.024
Mof_C 	C 	0.4358	0.65169	0.57539	-0.133
Mof_H 	H 	0.4541	0.6823	0.5704	0.078
Mof_C 	C 	0.4522	0.9396	0.58692	0.394
Mof_C 	C 	0.4501	0.5518	0.61405	0.388
Mof_C 	C 	0.2917	0.8863	0.4875	-0.033
Mof_C 	C 	0.307	0.906	0.4767	0.016
Mof_O 	O 	0.4275	0.9815	0.5931	-0.415
Mof_O 	O 	0.2734	0.8216	0.49157	-0.218
Mof_C 	C 	0.7426	0.3811	0.7571	0.098
Mof_C 	C 	0.7559	0.4016	0.7761	-0.014
Mof_Cu	Cu	0.04322	0.46532	0.11089	0.903
Mof_C 	C 	0.84623	0.30139	0.0334	0.021
Mof_C 	C 	0.8233	0.32838	0.01884	-0.161
Mof_H 	H 	0.8256	0.3673	0.0179	0.096
Mof_C 	C 	0.7969	0.2972	0.00576	0.178
Mof_C 	C 	0.79347	0.23903	0.00723	-0.044
Mof_C 	C 	0.81639	0.21204	0.02178	0.037
Mof_C 	C 	0.84277	0.24322	0.03487	-0.004
Mof_C 	C 	0.8646	0.2157	0.05019	-0.07
Mof_H 	H 	0.8798	0.237	0.0593	0.06
Mof_C 	C 	0.8634	0.1575	0.05161	-0.001
Mof_C 	C 	0.8389	0.1263	0.0376	-0.039
Mof_H 	H 	0.8387	0.0873	0.0381	0.046
Mof_C 	C 	0.8159	0.1527	0.02369	-0.065
Mof_H 	H 	0.7989	0.1312	0.015	0.062
Mof_C 	C 	0.8765	0.3396	0.04732	0.068
Mof_C 	C 	0.9308	0.3278	0.05304	-0.134
Mof_H 	H 	0.9506	0.2978	0.0482	0.078
Mof_C 	C 	0.95545	0.3608	0.06603	0.068
Mof_H 	H 	0.9918	0.3529	0.0699	0.022
Mof_C 	C 	0.9259	0.40552	0.07329	-0.147
Mof_C 	C 	0.8716	0.41732	0.06757	0.069
Mof_H 	H 	0.8518	0.4473	0.0724	0.022
Mof_C 	C 	0.84694	0.3844	0.05459	-0.134
Mof_H 	H 	0.8106	0.3923	0.0508	0.082
Mof_O 	O 	0.0002	0.4254	0.09235	-0.412
Mof_O 	O 	0.997	0.0724	0.12057	-0.393
Mof_O 	O 	0.9272	0.0115	0.12014	-0.431
Mof_C 	C 	0.8873	0.1305	0.06766	0.073
Mof_C 	C 	0.85993	0.0846	0.07513	-0.13
Mof_H 	H 	0.8274	0.0705	0.07	0.079
Mof_C 	C 	0.8811	0.06004	0.09034	0.059
Mof_H 	H 	0.8629	0.0294	0.0953	0.026
Mof_C 	C 	0.9297	0.0813	0.09807	-0.134
Mof_C 	C 	0.95702	0.1271	0.09059	0.064
Mof_H 	H 	0.9895	0.1413	0.0958	0.024
Mof_C 	C 	0.9358	0.15169	0.07539	-0.133
Mof_H 	H 	0.9541	0.1823	0.0704	0.078
Mof_C 	C 	0.9522	0.4396	0.08692	0.394
Mof_C 	C 	0.9501	0.0518	0.11405	0.388
Mof_C 	C 	0.7917	0.3863	0.9875	-0.033
Mof_C 	C 	0.807	0.406	0.9767	0.016
Mof_O 	O 	0.9275	0.4815	0.0931	-0.415
Mof_O 	O 	0.7734	0.3216	0.99157	-0.218
Mof_C 	C 	0.2426	0.8811	0.2571	0.098
Mof_C 	C 	0.2559	0.9016	0.2761	-0.014
Mof_Cu	Cu	0.95678	0.53468	0.11089	0.903
Mof_C 	C 	0.15377	0.69861	0.0334	0.021
Mof_C 	C 	0.1767	0.67162	0.01884	-0.161
Mof_H 	H 	0.1744	0.6327	0.0179	0.096
Mof_C 	C 	0.2031	0.7028	0.00576	0.178
Mof_C 	C 	0.20653	0.76097	0.00723	-0.044
Mof_C 	C 	0.18361	0.78796	0.02178	0.037
Mof_C 	C 	0.15723	0.75678	0.03487	-0.004
Mof_C 	C 	0.1354	0.7843	0.05019	-0.07
Mof_H 	H 	0.1202	0.763	0.0593	0.06
Mof_C 	C 	0.1366	0.8425	0.05161	-0.001
Mof_C 	C 	0.1611	0.8737	0.0376	-0.039
Mof_H 	H 	0.1613	0.9127	0.0381	0.046
Mof_C 	C 	0.1841	0.8473	0.02369	-0.065
Mof_H 	H 	0.2011	0.8688	0.015	0.062
Mof_C 	C 	0.1235	0.6604	0.04732	0.068
Mof_C 	C 	0.0692	0.6722	0.05304	-0.134
Mof_H 	H 	0.0494	0.7022	0.0482	0.078
Mof_C 	C 	0.04455	0.6392	0.06603	0.068
Mof_H 	H 	0.0082	0.6471	0.0699	0.022
Mof_C 	C 	0.0741	0.59448	0.07329	-0.147
Mof_C 	C 	0.1284	0.58268	0.06757	0.069
Mof_H 	H 	0.1482	0.5527	0.0724	0.022
Mof_C 	C 	0.15306	0.6156	0.05459	-0.134
Mof_H 	H 	0.1894	0.6077	0.0508	0.082
Mof_O 	O 	0.9998	0.5746	0.09235	-0.412
Mof_O 	O 	0.003	0.9276	0.12057	-0.393
Mof_O 	O 	0.0728	0.9885	0.12014	-0.431
Mof_C 	C 	0.1127	0.8695	0.06766	0.073
Mof_C 	C 	0.14007	0.9154	0.07513	-0.13
Mof_H 	H 	0.1726	0.9295	0.07	0.079
Mof_C 	C 	0.1189	0.93996	0.09034	0.059
Mof_H 	H 	0.1371	0.9706	0.0953	0.026
Mof_C 	C 	0.0703	0.9187	0.09807	-0.134
Mof_C 	C 	0.04298	0.8729	0.09059	0.064
Mof_H 	H 	0.0105	0.8587	0.0958	0.024
Mof_C 	C 	0.0642	0.84831	0.07539	-0.133
Mof_H 	H 	0.0459	0.8177	0.0704	0.078
Mof_C 	C 	0.0478	0.5604	0.08692	0.394
Mof_C 	C 	0.0499	0.9482	0.11405	0.388
Mof_C 	C 	0.2083	0.6137	0.9875	-0.033
Mof_C 	C 	0.193	0.594	0.9767	0.016
Mof_O 	O 	0.0725	0.5185	0.0931	-0.415
Mof_O 	O 	0.2266	0.6784	0.99157	-0.218
Mof_C 	C 	0.7574	0.1189	0.2571	0.098
Mof_C 	C 	0.7441	0.0984	0.2761	-0.014
Mof_Cu	Cu	0.45678	0.03468	0.61089	0.903
Mof_C 	C 	0.65377	0.19861	0.5334	0.021
Mof_C 	C 	0.6767	0.17162	0.51884	-0.161
Mof_H 	H 	0.6744	0.1327	0.5179	0.096
Mof_C 	C 	0.7031	0.2028	0.50576	0.178
Mof_C 	C 	0.70653	0.26097	0.50723	-0.044
Mof_C 	C 	0.68361	0.28796	0.52178	0.037
Mof_C 	C 	0.65723	0.25678	0.53487	-0.004
Mof_C 	C 	0.6354	0.2843	0.55019	-0.07
Mof_H 	H 	0.6202	0.263	0.5593	0.06
Mof_C 	C 	0.6366	0.3425	0.55161	-0.001
Mof_C 	C 	0.6611	0.3737	0.5376	-0.039
Mof_H 	H 	0.6613	0.4127	0.5381	0.046
Mof_C 	C 	0.6841	0.3473	0.52369	-0.065
Mof_H 	H 	0.7011	0.3688	0.515	0.062
Mof_C 	C 	0.6235	0.1604	0.54732	0.068
Mof_C 	C 	0.5692	0.1722	0.55304	-0.134
Mof_H 	H 	0.5494	0.2022	0.5482	0.078
Mof_C 	C 	0.54455	0.1392	0.56603	0.067
Mof_H 	H 	0.5082	0.1471	0.5699	0.022
Mof_C 	C 	0.5741	0.09448	0.57329	-0.147
Mof_C 	C 	0.6284	0.08268	0.56757	0.069
Mof_H 	H 	0.6482	0.0527	0.5724	0.022
Mof_C 	C 	0.65306	0.1156	0.55459	-0.134
Mof_H 	H 	0.6894	0.1077	0.5508	0.082
Mof_O 	O 	0.4998	0.0746	0.59235	-0.412
Mof_O 	O 	0.503	0.4276	0.62057	-0.394
Mof_O 	O 	0.5728	0.4885	0.62014	-0.431
Mof_C 	C 	0.6127	0.3695	0.56766	0.073
Mof_C 	C 	0.64007	0.4154	0.57513	-0.13
Mof_H 	H 	0.6726	0.4295	0.57	0.079
Mof_C 	C 	0.6189	0.43996	0.59034	0.059
Mof_H 	H 	0.6371	0.4706	0.5953	0.026
Mof_C 	C 	0.5703	0.4187	0.59807	-0.134
Mof_C 	C 	0.54298	0.3729	0.59059	0.064
Mof_H 	H 	0.5105	0.3587	0.5958	0.024
Mof_C 	C 	0.5642	0.34831	0.57539	-0.133
Mof_H 	H 	0.5459	0.3177	0.5704	0.078
Mof_C 	C 	0.5478	0.0604	0.58692	0.394
Mof_C 	C 	0.5499	0.4482	0.61405	0.388
Mof_C 	C 	0.7083	0.1137	0.4875	-0.033
Mof_C 	C 	0.693	0.094	0.4767	0.016
Mof_O 	O 	0.5725	0.0185	0.5931	-0.415
Mof_O 	O 	0.7266	0.1784	0.49157	-0.218
Mof_C 	C 	0.2574	0.6189	0.7571	0.098
Mof_C 	C 	0.2441	0.5984	0.7761	-0.014
Mof_Cu	Cu	0.46532	0.45678	0.36089	0.903
Mof_C 	C 	0.30139	0.65377	0.2834	0.021
Mof_C 	C 	0.32838	0.6767	0.26884	-0.161
Mof_H 	H 	0.3673	0.6744	0.2679	0.096
Mof_C 	C 	0.2972	0.7031	0.25576	0.178
Mof_C 	C 	0.23903	0.70653	0.25723	-0.044
Mof_C 	C 	0.21204	0.68361	0.27178	0.037
Mof_C 	C 	0.24322	0.65723	0.28487	-0.004
Mof_C 	C 	0.2157	0.6354	0.30019	-0.07
Mof_H 	H 	0.237	0.6202	0.3093	0.06
Mof_C 	C 	0.1575	0.6366	0.30161	-0.001
Mof_C 	C 	0.1263	0.6611	0.2876	-0.039
Mof_H 	H 	0.0873	0.6613	0.2881	0.046
Mof_C 	C 	0.1527	0.6841	0.27369	-0.065
Mof_H 	H 	0.1312	0.7011	0.265	0.062
Mof_C 	C 	0.3396	0.6235	0.29732	0.068
Mof_C 	C 	0.3278	0.5692	0.30304	-0.134
Mof_H 	H 	0.2978	0.5494	0.2982	0.078
Mof_C 	C 	0.3608	0.54455	0.31603	0.067
Mof_H 	H 	0.3529	0.5082	0.3199	0.022
Mof_C 	C 	0.40552	0.5741	0.32329	-0.147
Mof_C 	C 	0.41732	0.6284	0.31757	0.069
Mof_H 	H 	0.4473	0.6482	0.3224	0.022
Mof_C 	C 	0.3844	0.65306	0.30459	-0.134
Mof_H 	H 	0.3923	0.6894	0.3008	0.082
Mof_O 	O 	0.4254	0.4998	0.34235	-0.412
Mof_O 	O 	0.0724	0.503	0.37057	-0.394
Mof_O 	O 	0.0115	0.5728	0.37014	-0.431
Mof_C 	C 	0.1305	0.6127	0.31766	0.073
Mof_C 	C 	0.0846	0.64007	0.32513	-0.13
Mof_H 	H 	0.0705	0.6726	0.32	0.079
Mof_C 	C 	0.06004	0.6189	0.34034	0.059
Mof_H 	H 	0.0294	0.6371	0.3453	0.026
Mof_C 	C 	0.0813	0.5703	0.34807	-0.134
Mof_C 	C 	0.1271	0.54298	0.34059	0.064
Mof_H 	H 	0.1413	0.5105	0.3458	0.024
Mof_C 	C 	0.15169	0.5642	0.32539	-0.133
Mof_H 	H 	0.1823	0.5459	0.3204	0.078
Mof_C 	C 	0.4396	0.5478	0.33692	0.394
Mof_C 	C 	0.0518	0.5499	0.36405	0.388
Mof_C 	C 	0.3863	0.7083	0.2375	-0.033
Mof_C 	C 	0.406	0.693	0.2267	0.016
Mof_O 	O 	0.4815	0.5725	0.3431	-0.415
Mof_O 	O 	0.3216	0.7266	0.24157	-0.218
Mof_C 	C 	0.8811	0.2574	0.5071	0.098
Mof_C 	C 	0.9016	0.2441	0.5261	-0.014
Mof_Cu	Cu	0.96532	0.95678	0.86089	0.903
Mof_C 	C 	0.80139	0.15377	0.7834	0.021
Mof_C 	C 	0.82838	0.1767	0.76884	-0.161
Mof_H 	H 	0.8673	0.1744	0.7679	0.096
Mof_C 	C 	0.7972	0.2031	0.75576	0.178
Mof_C 	C 	0.73903	0.20653	0.75723	-0.044
Mof_C 	C 	0.71204	0.18361	0.77178	0.037
Mof_C 	C 	0.74322	0.15723	0.78487	-0.004
Mof_C 	C 	0.7157	0.1354	0.80019	-0.07
Mof_H 	H 	0.737	0.1202	0.8093	0.06
Mof_C 	C 	0.6575	0.1366	0.80161	-0.001
Mof_C 	C 	0.6263	0.1611	0.7876	-0.039
Mof_H 	H 	0.5873	0.1613	0.7881	0.046
Mof_C 	C 	0.6527	0.1841	0.77369	-0.065
Mof_H 	H 	0.6312	0.2011	0.765	0.062
Mof_C 	C 	0.8396	0.1235	0.79732	0.068
Mof_C 	C 	0.8278	0.0692	0.80304	-0.135
Mof_H 	H 	0.7978	0.0494	0.7982	0.078
Mof_C 	C 	0.8608	0.04455	0.81603	0.068
Mof_H 	H 	0.8529	0.0082	0.8199	0.022
Mof_C 	C 	0.90552	0.0741	0.82329	-0.147
Mof_C 	C 	0.91732	0.1284	0.81757	0.069
Mof_H 	H 	0.9473	0.1482	0.8224	0.022
Mof_C 	C 	0.8844	0.15306	0.80459	-0.134
Mof_H 	H 	0.8923	0.1894	0.8008	0.082
Mof_O 	O 	0.9254	0.9998	0.84235	-0.413
Mof_O 	O 	0.5724	0.003	0.87057	-0.394
Mof_O 	O 	0.5115	0.0728	0.87014	-0.431
Mof_C 	C 	0.6305	0.1127	0.81766	0.073
Mof_C 	C 	0.5846	0.14007	0.82513	-0.131
Mof_H 	H 	0.5705	0.1726	0.82	0.079
Mof_C 	C 	0.56004	0.1189	0.84034	0.059
Mof_H 	H 	0.5294	0.1371	0.8453	0.026
Mof_C 	C 	0.5813	0.0703	0.84807	-0.134
Mof_C 	C 	0.6271	0.04298	0.84059	0.064
Mof_H 	H 	0.6413	0.0105	0.8458	0.024
Mof_C 	C 	0.65169	0.0642	0.82539	-0.133
Mof_H 	H 	0.6823	0.0459	0.8204	0.078
Mof_C 	C 	0.9396	0.0478	0.83692	0.395
Mof_C 	C 	0.5518	0.0499	0.86405	0.388
Mof_C 	C 	0.8863	0.2083	0.7375	-0.033
Mof_C 	C 	0.906	0.193	0.7267	0.016
Mof_O 	O 	0.9815	0.0725	0.8431	-0.415
Mof_O 	O 	0.8216	0.2266	0.74157	-0.218
Mof_C 	C 	0.3811	0.7574	0.0071	0.098
Mof_C 	C 	0.4016	0.7441	0.0261	-0.014
Mof_Cu	Cu	0.03468	0.04322	0.86089	0.903
Mof_C 	C 	0.19861	0.84623	0.7834	0.021
Mof_C 	C 	0.17162	0.8233	0.76884	-0.161
Mof_H 	H 	0.1327	0.8256	0.7679	0.096
Mof_C 	C 	0.2028	0.7969	0.75576	0.178
Mof_C 	C 	0.26097	0.79347	0.75723	-0.044
Mof_C 	C 	0.28796	0.81639	0.77178	0.037
Mof_C 	C 	0.25678	0.84277	0.78487	-0.004
Mof_C 	C 	0.2843	0.8646	0.80019	-0.07
Mof_H 	H 	0.263	0.8798	0.8093	0.06
Mof_C 	C 	0.3425	0.8634	0.80161	-0.001
Mof_C 	C 	0.3737	0.8389	0.7876	-0.039
Mof_H 	H 	0.4127	0.8387	0.7881	0.046
Mof_C 	C 	0.3473	0.8159	0.77369	-0.065
Mof_H 	H 	0.3688	0.7989	0.765	0.062
Mof_C 	C 	0.1604	0.8765	0.79732	0.068
Mof_C 	C 	0.1722	0.9308	0.80304	-0.135
Mof_H 	H 	0.2022	0.9506	0.7982	0.078
Mof_C 	C 	0.1392	0.95545	0.81603	0.068
Mof_H 	H 	0.1471	0.9918	0.8199	0.022
Mof_C 	C 	0.09448	0.9259	0.82329	-0.147
Mof_C 	C 	0.08268	0.8716	0.81757	0.069
Mof_H 	H 	0.0527	0.8518	0.8224	0.022
Mof_C 	C 	0.1156	0.84694	0.80459	-0.134
Mof_H 	H 	0.1077	0.8106	0.8008	0.082
Mof_O 	O 	0.0746	0.0002	0.84235	-0.413
Mof_O 	O 	0.4276	0.997	0.87057	-0.394
Mof_O 	O 	0.4885	0.9272	0.87014	-0.431
Mof_C 	C 	0.3695	0.8873	0.81766	0.073
Mof_C 	C 	0.4154	0.85993	0.82513	-0.131
Mof_H 	H 	0.4295	0.8274	0.82	0.079
Mof_C 	C 	0.43996	0.8811	0.84034	0.059
Mof_H 	H 	0.4706	0.8629	0.8453	0.026
Mof_C 	C 	0.4187	0.9297	0.84807	-0.134
Mof_C 	C 	0.3729	0.95702	0.84059	0.064
Mof_H 	H 	0.3587	0.9895	0.8458	0.024
Mof_C 	C 	0.34831	0.9358	0.82539	-0.133
Mof_H 	H 	0.3177	0.9541	0.8204	0.078
Mof_C 	C 	0.0604	0.9522	0.83692	0.395
Mof_C 	C 	0.4482	0.9501	0.86405	0.388
Mof_C 	C 	0.1137	0.7917	0.7375	-0.033
Mof_C 	C 	0.094	0.807	0.7267	0.016
Mof_O 	O 	0.0185	0.9275	0.8431	-0.415
Mof_O 	O 	0.1784	0.7734	0.74157	-0.218
Mof_C 	C 	0.6189	0.2426	0.0071	0.098
Mof_C 	C 	0.5984	0.2559	0.0261	-0.014
Mof_Cu	Cu	0.53468	0.54322	0.36089	0.903
Mof_C 	C 	0.69861	0.34623	0.2834	0.021
Mof_C 	C 	0.67162	0.3233	0.26884	-0.161
Mof_H 	H 	0.6327	0.3256	0.2679	0.096
Mof_C 	C 	0.7028	0.2969	0.25576	0.178
Mof_C 	C 	0.76097	0.29347	0.25723	-0.044
Mof_C 	C 	0.78796	0.31639	0.27178	0.037
Mof_C 	C 	0.75678	0.34277	0.28487	-0.004
Mof_C 	C 	0.7843	0.3646	0.30019	-0.07
Mof_H 	H 	0.763	0.3798	0.3093	0.06
Mof_C 	C 	0.8425	0.3634	0.30161	-0.001
Mof_C 	C 	0.8737	0.3389	0.2876	-0.039
Mof_H 	H 	0.9127	0.3387	0.2881	0.046
Mof_C 	C 	0.8473	0.3159	0.27369	-0.065
Mof_H 	H 	0.8688	0.2989	0.265	0.062
Mof_C 	C 	0.6604	0.3765	0.29732	0.068
Mof_C 	C 	0.6722	0.4308	0.30304	-0.134
Mof_H 	H 	0.7022	0.4506	0.2982	0.078
Mof_C 	C 	0.6392	0.45545	0.31603	0.067
Mof_H 	H 	0.6471	0.4918	0.3199	0.022
Mof_C 	C 	0.59448	0.4259	0.32329	-0.147
Mof_C 	C 	0.58268	0.3716	0.31757	0.069
Mof_H 	H 	0.5527	0.3518	0.3224	0.022
Mof_C 	C 	0.6156	0.34694	0.30459	-0.134
Mof_H 	H 	0.6077	0.3106	0.3008	0.082
Mof_O 	O 	0.5746	0.5002	0.34235	-0.412
Mof_O 	O 	0.9276	0.497	0.37057	-0.394
Mof_O 	O 	0.9885	0.4272	0.37014	-0.431
Mof_C 	C 	0.8695	0.3873	0.31766	0.073
Mof_C 	C 	0.9154	0.35993	0.32513	-0.13
Mof_H 	H 	0.9295	0.3274	0.32	0.079
Mof_C 	C 	0.93996	0.3811	0.34034	0.059
Mof_H 	H 	0.9706	0.3629	0.3453	0.026
Mof_C 	C 	0.9187	0.4297	0.34807	-0.134
Mof_C 	C 	0.8729	0.45702	0.34059	0.064
Mof_H 	H 	0.8587	0.4895	0.3458	0.024
Mof_C 	C 	0.84831	0.4358	0.32539	-0.133
Mof_H 	H 	0.8177	0.4541	0.3204	0.078
Mof_C 	C 	0.5604	0.4522	0.33692	0.394
Mof_C 	C 	0.9482	0.4501	0.36405	0.388
Mof_C 	C 	0.6137	0.2917	0.2375	-0.033
Mof_C 	C 	0.594	0.307	0.2267	0.016
Mof_O 	O 	0.5185	0.4275	0.3431	-0.415
Mof_O 	O 	0.6784	0.2734	0.24157	-0.218
Mof_C 	C 	0.1189	0.7426	0.5071	0.098
Mof_C 	C 	0.0984	0.7559	0.5261	-0.014
_end
