data_functionalizedCrystal
_audit_creation_method	'EQeq! by Chris Wilmer'
_symmetry_space_group_name_H-M	'P1'
_symmetry_Int_Tables_number	1
_symmetry_cell_setting	triclinic
loop_
_symmetry_equiv_pos_as_xyz
  x,y,z
_cell_length_a	21.9475
_cell_length_b	16.6741
_cell_length_c	25.5226
_cell_angle_alpha	90
_cell_angle_beta	115.119
_cell_angle_gamma	90
loop_
_atom_site_label
_atom_site_type_symbol
_atom_site_fract_x
_atom_site_fract_y
_atom_site_fract_z
_atom_site_charge
Mof_Ag	Ag	0.3217	0.74386	0.86643	0.536
Mof_Ag	Ag	0.84425	0.54332	0.36689	0.524
Mof_C 	C 	0.5975	0.5283	0.9989	0.098
Mof_C 	C 	0.6234	0.244	0.5004	0.096
Mof_C 	C 	0.5597	0.1987	0.468	0.069
Mof_C 	C 	0.7764	0.3615	0.0081	-0.132
Mof_H 	H 	0.7969	0.3646	0.0483	0.073
Mof_C 	C 	0.5036	0.615	0.9948	-0.14
Mof_H 	H 	0.5233	0.6165	0.035	0.088
Mof_C 	C 	0.7975	0.4164	0.5038	-0.139
Mof_H 	H 	0.8195	0.4123	0.5439	0.086
Mof_C 	C 	0.5325	0.1904	0.4094	-0.151
Mof_H 	H 	0.5535	0.2129	0.388	0.084
Mof_C 	C 	0.6814	0.4478	0.005	0.096
Mof_C 	C 	0.7198	0.3471	0.8905	0.065
Mof_H 	H 	0.7004	0.3425	0.8504	-0.026
Mof_C 	C 	0.4437	0.6551	0.9628	0.091
Mof_H 	H 	0.4238	0.6833	0.9829	-0.015
Mof_C 	C 	0.679	0.544	0.1794	-0.142
Mof_H 	H 	0.635	0.5618	0.159	0.083
Mof_C 	C 	0.7096	0.274	0.5858	0.099
Mof_C 	C 	0.533	0.5727	0.9649	0.072
Mof_C 	C 	0.7427	0.2637	0.6492	0.065
Mof_C 	C 	0.7352	0.3791	0.473	0.071
Mof_C 	C 	0.6799	0.498	0.0857	0.096
Mof_C 	C 	0.712	0.5076	0.1504	0.061
Mof_C 	C 	0.7358	0.4351	0.3872	0.085
Mof_H 	H 	0.7148	0.4412	0.3473	-0.011
Mof_C 	C 	0.7038	0.3905	0.4138	-0.137
Mof_H 	H 	0.6617	0.3684	0.392	0.085
Mof_C 	C 	0.7046	0.3278	0.5031	0.103
Mof_C 	C 	0.7146	0.399	0.9761	0.05
Mof_C 	C 	0.5256	0.165	0.4978	-0.157
Mof_H 	H 	0.5428	0.169	0.5379	0.079
Mof_C 	C 	0.8252	0.459	0.4734	0.095
Mof_H 	H 	0.8674	0.4817	0.4938	-0.016
Mof_C 	C 	0.6856	0.3894	0.9167	-0.132
Mof_H 	H 	0.6434	0.4111	0.8944	0.077
Mof_C 	C 	0.8065	0.3192	0.9779	0.074
Mof_H 	H 	0.8476	0.2943	0.9991	-0.012
Mof_C 	C 	0.8062	0.4949	0.2408	0.08
Mof_H 	H 	0.8501	0.4772	0.2618	-0.027
Mof_C 	C 	0.4669	0.1265	0.4673	0.086
Mof_H 	H 	0.4443	0.1045	0.4876	-0.026
Mof_C 	C 	0.473	0.1479	0.382	0.077
Mof_H 	H 	0.4559	0.1398	0.3422	-0.022
Mof_C 	C 	0.7111	0.5539	0.2384	0.08
Mof_H 	H 	0.6881	0.5785	0.2574	-0.015
Mof_C 	C 	0.7456	0.2058	0.7355	0.078
Mof_H 	H 	0.7268	0.171	0.7531	-0.021
Mof_C 	C 	0.5015	0.5722	0.9053	-0.145
Mof_H 	H 	0.5191	0.5425	0.884	0.082
Mof_C 	C 	0.4438	0.6163	0.8778	0.09
Mof_H 	H 	0.4248	0.6188	0.8376	-0.01
Mof_C 	C 	0.802	0.3002	0.6828	-0.149
Mof_H 	H 	0.8248	0.3308	0.6663	0.086
Mof_C 	C 	0.7145	0.2129	0.6765	-0.142
Mof_H 	H 	0.6753	0.1844	0.6549	0.072
Mof_C 	C 	0.7777	0.484	0.1816	-0.15
Mof_H 	H 	0.8022	0.4614	0.1632	0.075
Mof_C 	C 	0.8277	0.2905	0.7426	0.094
Mof_H 	H 	0.8669	0.3182	0.7653	-0.024
Mof_N 	N 	0.4132	0.6558	0.9055	-0.191
Mof_N 	N 	0.7793	0.3129	0.9207	-0.208
Mof_N 	N 	0.7753	0.529	0.2699	-0.199
Mof_N 	N 	0.6228	0.5372	0.0571	-0.137
Mof_N 	N 	0.6252	0.4869	0.9711	-0.142
Mof_N 	N 	0.7109	0.4502	0.0628	-0.151
Mof_N 	N 	0.7955	0.4698	0.4166	-0.194
Mof_N 	N 	0.4396	0.1182	0.4105	-0.217
Mof_N 	N 	0.8008	0.2455	0.7692	-0.203
Mof_N 	N 	0.7377	0.3229	0.561	-0.137
Mof_N 	N 	0.6476	0.29	0.4706	-0.138
Mof_N 	N 	0.6525	0.2337	0.5575	-0.142
Mof_Ag	Ag	0.8217	0.24386	0.86643	0.534
Mof_Ag	Ag	0.34425	0.04332	0.36689	0.523
Mof_C 	C 	0.0975	0.0283	0.9989	0.1
Mof_C 	C 	0.1234	0.744	0.5004	0.096
Mof_C 	C 	0.0597	0.6987	0.468	0.069
Mof_C 	C 	0.2764	0.8615	0.0081	-0.138
Mof_H 	H 	0.2969	0.8646	0.0483	0.075
Mof_C 	C 	0.0036	0.115	0.9948	-0.134
Mof_H 	H 	0.0233	0.1165	0.035	0.085
Mof_C 	C 	0.2975	0.9164	0.5038	-0.139
Mof_H 	H 	0.3195	0.9123	0.5439	0.086
Mof_C 	C 	0.0325	0.6904	0.4094	-0.151
Mof_H 	H 	0.0535	0.7129	0.388	0.084
Mof_C 	C 	0.1814	0.9478	0.005	0.093
Mof_C 	C 	0.2198	0.8471	0.8905	0.067
Mof_H 	H 	0.2004	0.8425	0.8504	-0.027
Mof_C 	C 	0.9437	0.1551	0.9628	0.087
Mof_H 	H 	0.9238	0.1833	0.9829	-0.014
Mof_C 	C 	0.179	0.044	0.1794	-0.142
Mof_H 	H 	0.135	0.0618	0.159	0.083
Mof_C 	C 	0.2096	0.774	0.5858	0.099
Mof_C 	C 	0.033	0.0727	0.9649	0.069
Mof_C 	C 	0.2427	0.7637	0.6492	0.065
Mof_C 	C 	0.2352	0.8791	0.473	0.071
Mof_C 	C 	0.1799	0.998	0.0857	0.096
Mof_C 	C 	0.212	0.0076	0.1504	0.061
Mof_C 	C 	0.2358	0.9351	0.3872	0.085
Mof_H 	H 	0.2148	0.9412	0.3473	-0.011
Mof_C 	C 	0.2038	0.8905	0.4138	-0.137
Mof_H 	H 	0.1617	0.8684	0.392	0.085
Mof_C 	C 	0.2046	0.8278	0.5031	0.103
Mof_C 	C 	0.2146	0.899	0.9761	0.056
Mof_C 	C 	0.0256	0.665	0.4978	-0.157
Mof_H 	H 	0.0428	0.669	0.5379	0.079
Mof_C 	C 	0.3252	0.959	0.4734	0.095
Mof_H 	H 	0.3674	0.9817	0.4938	-0.016
Mof_C 	C 	0.1856	0.8894	0.9167	-0.135
Mof_H 	H 	0.1434	0.9111	0.8944	0.078
Mof_C 	C 	0.3065	0.8192	0.9779	0.078
Mof_H 	H 	0.3476	0.7943	0.9991	-0.013
Mof_C 	C 	0.3062	0.9949	0.2408	0.08
Mof_H 	H 	0.3501	0.9772	0.2618	-0.027
Mof_C 	C 	0.9669	0.6265	0.4673	0.086
Mof_H 	H 	0.9443	0.6045	0.4876	-0.026
Mof_C 	C 	0.973	0.6479	0.382	0.078
Mof_H 	H 	0.9559	0.6398	0.3422	-0.022
Mof_C 	C 	0.2111	0.0539	0.2384	0.08
Mof_H 	H 	0.1881	0.0785	0.2574	-0.015
Mof_C 	C 	0.2456	0.7058	0.7355	0.078
Mof_H 	H 	0.2268	0.671	0.7531	-0.021
Mof_C 	C 	0.0015	0.0722	0.9053	-0.142
Mof_H 	H 	0.0191	0.0425	0.884	0.081
Mof_C 	C 	0.9438	0.1163	0.8778	0.087
Mof_H 	H 	0.9248	0.1188	0.8376	-0.009
Mof_C 	C 	0.302	0.8002	0.6828	-0.149
Mof_H 	H 	0.3248	0.8308	0.6663	0.086
Mof_C 	C 	0.2145	0.7129	0.6765	-0.142
Mof_H 	H 	0.1753	0.6844	0.6549	0.072
Mof_C 	C 	0.2777	0.984	0.1816	-0.15
Mof_H 	H 	0.3022	0.9614	0.1632	0.075
Mof_C 	C 	0.3277	0.7905	0.7426	0.094
Mof_H 	H 	0.3669	0.8182	0.7653	-0.024
Mof_N 	N 	0.9132	0.1558	0.9055	-0.19
Mof_N 	N 	0.2793	0.8129	0.9207	-0.209
Mof_N 	N 	0.2753	0.029	0.2699	-0.199
Mof_N 	N 	0.1228	0.0372	0.0571	-0.138
Mof_N 	N 	0.1252	0.9869	0.9711	-0.142
Mof_N 	N 	0.2109	0.9502	0.0628	-0.15
Mof_N 	N 	0.2955	0.9698	0.4166	-0.194
Mof_N 	N 	0.9396	0.6182	0.4105	-0.217
Mof_N 	N 	0.3008	0.7455	0.7692	-0.203
Mof_N 	N 	0.2377	0.8229	0.561	-0.137
Mof_N 	N 	0.1476	0.79	0.4706	-0.138
Mof_N 	N 	0.1525	0.7337	0.5575	-0.142
Mof_Ag	Ag	0.6783	0.74386	0.63357	0.535
Mof_Ag	Ag	0.15575	0.54332	0.13311	0.522
Mof_C 	C 	0.4025	0.5283	0.5011	0.099
Mof_C 	C 	0.3766	0.244	0.9996	0.096
Mof_C 	C 	0.4403	0.1987	0.032	0.068
Mof_C 	C 	0.2236	0.3615	0.4919	-0.134
Mof_H 	H 	0.2031	0.3646	0.4517	0.073
Mof_C 	C 	0.4964	0.615	0.5052	-0.14
Mof_H 	H 	0.4767	0.6165	0.465	0.088
Mof_C 	C 	0.2025	0.4164	0.9962	-0.136
Mof_H 	H 	0.1805	0.4123	0.9561	0.086
Mof_C 	C 	0.4675	0.1904	0.0906	-0.151
Mof_H 	H 	0.4465	0.2129	0.112	0.084
Mof_C 	C 	0.3186	0.4478	0.495	0.095
Mof_C 	C 	0.2802	0.3471	0.6095	0.066
Mof_H 	H 	0.2996	0.3425	0.6496	-0.026
Mof_C 	C 	0.5563	0.6551	0.5372	0.091
Mof_H 	H 	0.5762	0.6833	0.5171	-0.015
Mof_C 	C 	0.321	0.544	0.3206	-0.142
Mof_H 	H 	0.365	0.5618	0.341	0.083
Mof_C 	C 	0.2904	0.274	0.9142	0.099
Mof_C 	C 	0.467	0.5727	0.5351	0.071
Mof_C 	C 	0.2573	0.2637	0.8508	0.065
Mof_C 	C 	0.2648	0.3791	0.027	0.069
Mof_C 	C 	0.3201	0.498	0.4143	0.096
Mof_C 	C 	0.288	0.5076	0.3496	0.061
Mof_C 	C 	0.2642	0.4351	0.1128	0.085
Mof_H 	H 	0.2852	0.4412	0.1527	-0.011
Mof_C 	C 	0.2962	0.3905	0.0862	-0.135
Mof_H 	H 	0.3383	0.3684	0.108	0.085
Mof_C 	C 	0.2954	0.3278	0.9969	0.104
Mof_C 	C 	0.2854	0.399	0.5239	0.053
Mof_C 	C 	0.4744	0.165	0.0022	-0.157
Mof_H 	H 	0.4572	0.169	0.9621	0.079
Mof_C 	C 	0.1748	0.459	0.0266	0.093
Mof_H 	H 	0.1326	0.4817	0.0062	-0.016
Mof_C 	C 	0.3144	0.3894	0.5833	-0.134
Mof_H 	H 	0.3566	0.4111	0.6056	0.077
Mof_C 	C 	0.1935	0.3192	0.5221	0.076
Mof_H 	H 	0.1524	0.2943	0.5009	-0.012
Mof_C 	C 	0.1938	0.4949	0.2592	0.08
Mof_H 	H 	0.1499	0.4772	0.2382	-0.027
Mof_C 	C 	0.5331	0.1265	0.0327	0.086
Mof_H 	H 	0.5557	0.1045	0.0124	-0.026
Mof_C 	C 	0.527	0.1479	0.118	0.077
Mof_H 	H 	0.5441	0.1398	0.1578	-0.022
Mof_C 	C 	0.2889	0.5539	0.2616	0.08
Mof_H 	H 	0.3119	0.5785	0.2426	-0.015
Mof_C 	C 	0.2544	0.2058	0.7645	0.078
Mof_H 	H 	0.2732	0.171	0.7469	-0.021
Mof_C 	C 	0.4985	0.5722	0.5947	-0.145
Mof_H 	H 	0.4809	0.5425	0.616	0.082
Mof_C 	C 	0.5562	0.6163	0.6222	0.09
Mof_H 	H 	0.5752	0.6188	0.6624	-0.01
Mof_C 	C 	0.198	0.3002	0.8172	-0.149
Mof_H 	H 	0.1752	0.3308	0.8337	0.086
Mof_C 	C 	0.2855	0.2129	0.8235	-0.142
Mof_H 	H 	0.3247	0.1844	0.8451	0.072
Mof_C 	C 	0.2223	0.484	0.3184	-0.15
Mof_H 	H 	0.1978	0.4614	0.3368	0.075
Mof_C 	C 	0.1723	0.2905	0.7574	0.094
Mof_H 	H 	0.1331	0.3182	0.7347	-0.024
Mof_N 	N 	0.5868	0.6558	0.5945	-0.191
Mof_N 	N 	0.2207	0.3129	0.5793	-0.209
Mof_N 	N 	0.2247	0.529	0.2301	-0.199
Mof_N 	N 	0.3772	0.5372	0.4429	-0.137
Mof_N 	N 	0.3748	0.4869	0.5289	-0.142
Mof_N 	N 	0.2891	0.4502	0.4372	-0.15
Mof_N 	N 	0.2045	0.4698	0.0834	-0.194
Mof_N 	N 	0.5604	0.1182	0.0895	-0.217
Mof_N 	N 	0.1992	0.2455	0.7308	-0.203
Mof_N 	N 	0.2623	0.3229	0.939	-0.137
Mof_N 	N 	0.3524	0.29	0.0294	-0.138
Mof_N 	N 	0.3475	0.2337	0.9425	-0.142
Mof_Ag	Ag	0.1783	0.24386	0.63357	0.535
Mof_Ag	Ag	0.65575	0.04332	0.13311	0.523
Mof_C 	C 	0.9025	0.0283	0.5011	0.098
Mof_C 	C 	0.8766	0.744	0.9996	0.095
Mof_C 	C 	0.9403	0.6987	0.032	0.067
Mof_C 	C 	0.7236	0.8615	0.4919	-0.134
Mof_H 	H 	0.7031	0.8646	0.4517	0.073
Mof_C 	C 	0.9964	0.115	0.5052	-0.14
Mof_H 	H 	0.9767	0.1165	0.465	0.088
Mof_C 	C 	0.7025	0.9164	0.9962	-0.142
Mof_H 	H 	0.6805	0.9123	0.9561	0.087
Mof_C 	C 	0.9675	0.6904	0.0906	-0.148
Mof_H 	H 	0.9465	0.7129	0.112	0.083
Mof_C 	C 	0.8186	0.9478	0.495	0.095
Mof_C 	C 	0.7802	0.8471	0.6095	0.066
Mof_H 	H 	0.7996	0.8425	0.6496	-0.026
Mof_C 	C 	0.0563	0.1551	0.5372	0.091
Mof_H 	H 	0.0762	0.1833	0.5171	-0.015
Mof_C 	C 	0.821	0.044	0.3206	-0.142
Mof_H 	H 	0.865	0.0618	0.341	0.083
Mof_C 	C 	0.7904	0.774	0.9142	0.099
Mof_C 	C 	0.967	0.0727	0.5351	0.072
Mof_C 	C 	0.7573	0.7637	0.8508	0.065
Mof_C 	C 	0.7648	0.8791	0.027	0.074
Mof_C 	C 	0.8201	0.998	0.4143	0.096
Mof_C 	C 	0.788	0.0076	0.3496	0.061
Mof_C 	C 	0.7642	0.9351	0.1128	0.086
Mof_H 	H 	0.7852	0.9412	0.1527	-0.011
Mof_C 	C 	0.7962	0.8905	0.0862	-0.138
Mof_H 	H 	0.8383	0.8684	0.108	0.086
Mof_C 	C 	0.7954	0.8278	0.9969	0.101
Mof_C 	C 	0.7854	0.899	0.5239	0.053
Mof_C 	C 	0.9744	0.665	0.0022	-0.151
Mof_H 	H 	0.9572	0.669	0.9621	0.076
Mof_C 	C 	0.6748	0.959	0.0266	0.097
Mof_H 	H 	0.6326	0.9817	0.0062	-0.017
Mof_C 	C 	0.8144	0.8894	0.5833	-0.134
Mof_H 	H 	0.8566	0.9111	0.6056	0.077
Mof_C 	C 	0.6935	0.8192	0.5221	0.076
Mof_H 	H 	0.6524	0.7943	0.5009	-0.012
Mof_C 	C 	0.6938	0.9949	0.2592	0.08
Mof_H 	H 	0.6499	0.9772	0.2382	-0.027
Mof_C 	C 	0.0331	0.6265	0.0327	0.082
Mof_H 	H 	0.0557	0.6045	0.0124	-0.024
Mof_C 	C 	0.027	0.6479	0.118	0.075
Mof_H 	H 	0.0441	0.6398	0.1578	-0.021
Mof_C 	C 	0.7889	0.0539	0.2616	0.08
Mof_H 	H 	0.8119	0.0785	0.2426	-0.015
Mof_C 	C 	0.7544	0.7058	0.7645	0.078
Mof_H 	H 	0.7732	0.671	0.7469	-0.021
Mof_C 	C 	0.9985	0.0722	0.5947	-0.146
Mof_H 	H 	0.9809	0.0425	0.616	0.082
Mof_C 	C 	0.0562	0.1163	0.6222	0.091
Mof_H 	H 	0.0752	0.1188	0.6624	-0.01
Mof_C 	C 	0.698	0.8002	0.8172	-0.149
Mof_H 	H 	0.6752	0.8308	0.8337	0.086
Mof_C 	C 	0.7855	0.7129	0.8235	-0.142
Mof_H 	H 	0.8247	0.6844	0.8451	0.072
Mof_C 	C 	0.7223	0.984	0.3184	-0.15
Mof_H 	H 	0.6978	0.9614	0.3368	0.075
Mof_C 	C 	0.6723	0.7905	0.7574	0.094
Mof_H 	H 	0.6331	0.8182	0.7347	-0.024
Mof_N 	N 	0.0868	0.1558	0.5945	-0.191
Mof_N 	N 	0.7207	0.8129	0.5793	-0.209
Mof_N 	N 	0.7247	0.029	0.2301	-0.199
Mof_N 	N 	0.8772	0.0372	0.4429	-0.137
Mof_N 	N 	0.8748	0.9869	0.5289	-0.142
Mof_N 	N 	0.7891	0.9502	0.4372	-0.15
Mof_N 	N 	0.7045	0.9698	0.0834	-0.195
Mof_N 	N 	0.0604	0.6182	0.0895	-0.216
Mof_N 	N 	0.6992	0.7455	0.7308	-0.203
Mof_N 	N 	0.7623	0.8229	0.939	-0.137
Mof_N 	N 	0.8524	0.79	0.0294	-0.137
Mof_N 	N 	0.8475	0.7337	0.9425	-0.142
Mof_Ag	Ag	0.6783	0.25614	0.13357	0.535
Mof_Ag	Ag	0.15575	0.45668	0.63311	0.523
Mof_C 	C 	0.4025	0.4717	0.0011	0.098
Mof_C 	C 	0.3766	0.756	0.4996	0.096
Mof_C 	C 	0.4403	0.8013	0.532	0.069
Mof_C 	C 	0.2236	0.6385	0.9919	-0.132
Mof_H 	H 	0.2031	0.6354	0.9517	0.073
Mof_C 	C 	0.4964	0.385	0.0052	-0.14
Mof_H 	H 	0.4767	0.3835	0.965	0.088
Mof_C 	C 	0.2025	0.5836	0.4962	-0.139
Mof_H 	H 	0.1805	0.5877	0.4561	0.086
Mof_C 	C 	0.4675	0.8096	0.5906	-0.151
Mof_H 	H 	0.4465	0.7871	0.612	0.084
Mof_C 	C 	0.3186	0.5522	0.995	0.096
Mof_C 	C 	0.2802	0.6529	0.1095	0.065
Mof_H 	H 	0.2996	0.6575	0.1496	-0.026
Mof_C 	C 	0.5563	0.3449	0.0372	0.091
Mof_H 	H 	0.5762	0.3167	0.0171	-0.015
Mof_C 	C 	0.321	0.456	0.8206	-0.142
Mof_H 	H 	0.365	0.4382	0.841	0.083
Mof_C 	C 	0.2904	0.726	0.4142	0.099
Mof_C 	C 	0.467	0.4273	0.0351	0.072
Mof_C 	C 	0.2573	0.7363	0.3508	0.065
Mof_C 	C 	0.2648	0.6209	0.527	0.071
Mof_C 	C 	0.3201	0.502	0.9143	0.096
Mof_C 	C 	0.288	0.4924	0.8496	0.061
Mof_C 	C 	0.2642	0.5649	0.6128	0.085
Mof_H 	H 	0.2852	0.5588	0.6527	-0.011
Mof_C 	C 	0.2962	0.6095	0.5862	-0.137
Mof_H 	H 	0.3383	0.6316	0.608	0.085
Mof_C 	C 	0.2954	0.6722	0.4969	0.103
Mof_C 	C 	0.2854	0.601	0.0239	0.05
Mof_C 	C 	0.4744	0.835	0.5022	-0.157
Mof_H 	H 	0.4572	0.831	0.4621	0.079
Mof_C 	C 	0.1748	0.541	0.5266	0.095
Mof_H 	H 	0.1326	0.5183	0.5062	-0.016
Mof_C 	C 	0.3144	0.6106	0.0833	-0.132
Mof_H 	H 	0.3566	0.5889	0.1056	0.077
Mof_C 	C 	0.1935	0.6808	0.0221	0.074
Mof_H 	H 	0.1524	0.7057	0.0009	-0.012
Mof_C 	C 	0.1938	0.5051	0.7592	0.08
Mof_H 	H 	0.1499	0.5228	0.7382	-0.027
Mof_C 	C 	0.5331	0.8735	0.5327	0.086
Mof_H 	H 	0.5557	0.8955	0.5124	-0.026
Mof_C 	C 	0.527	0.8521	0.618	0.077
Mof_H 	H 	0.5441	0.8602	0.6578	-0.022
Mof_C 	C 	0.2889	0.4461	0.7616	0.08
Mof_H 	H 	0.3119	0.4215	0.7426	-0.015
Mof_C 	C 	0.2544	0.7942	0.2645	0.078
Mof_H 	H 	0.2732	0.829	0.2469	-0.021
Mof_C 	C 	0.4985	0.4278	0.0947	-0.145
Mof_H 	H 	0.4809	0.4575	0.116	0.082
Mof_C 	C 	0.5562	0.3837	0.1222	0.09
Mof_H 	H 	0.5752	0.3812	0.1624	-0.01
Mof_C 	C 	0.198	0.6998	0.3172	-0.149
Mof_H 	H 	0.1752	0.6692	0.3337	0.086
Mof_C 	C 	0.2855	0.7871	0.3235	-0.142
Mof_H 	H 	0.3247	0.8156	0.3451	0.072
Mof_C 	C 	0.2223	0.516	0.8184	-0.15
Mof_H 	H 	0.1978	0.5386	0.8368	0.075
Mof_C 	C 	0.1723	0.7095	0.2574	0.094
Mof_H 	H 	0.1331	0.6818	0.2347	-0.024
Mof_N 	N 	0.5868	0.3442	0.0945	-0.191
Mof_N 	N 	0.2207	0.6871	0.0793	-0.208
Mof_N 	N 	0.2247	0.471	0.7301	-0.199
Mof_N 	N 	0.3772	0.4628	0.9429	-0.137
Mof_N 	N 	0.3748	0.5131	0.0289	-0.142
Mof_N 	N 	0.2891	0.5498	0.9372	-0.151
Mof_N 	N 	0.2045	0.5302	0.5834	-0.194
Mof_N 	N 	0.5604	0.8818	0.5895	-0.217
Mof_N 	N 	0.1992	0.7545	0.2308	-0.203
Mof_N 	N 	0.2623	0.6771	0.439	-0.137
Mof_N 	N 	0.3524	0.71	0.5294	-0.138
Mof_N 	N 	0.3475	0.7663	0.4425	-0.142
Mof_Ag	Ag	0.1783	0.75614	0.13357	0.534
Mof_Ag	Ag	0.65575	0.95668	0.63311	0.523
Mof_C 	C 	0.9025	0.9717	0.0011	0.1
Mof_C 	C 	0.8766	0.256	0.4996	0.096
Mof_C 	C 	0.9403	0.3013	0.532	0.069
Mof_C 	C 	0.7236	0.1385	0.9919	-0.138
Mof_H 	H 	0.7031	0.1354	0.9517	0.075
Mof_C 	C 	0.9964	0.885	0.0052	-0.134
Mof_H 	H 	0.9767	0.8835	0.965	0.085
Mof_C 	C 	0.7025	0.0836	0.4962	-0.139
Mof_H 	H 	0.6805	0.0877	0.4561	0.086
Mof_C 	C 	0.9675	0.3096	0.5906	-0.151
Mof_H 	H 	0.9465	0.2871	0.612	0.084
Mof_C 	C 	0.8186	0.0522	0.995	0.093
Mof_C 	C 	0.7802	0.1529	0.1095	0.067
Mof_H 	H 	0.7996	0.1575	0.1496	-0.027
Mof_C 	C 	0.0563	0.8449	0.0372	0.087
Mof_H 	H 	0.0762	0.8167	0.0171	-0.014
Mof_C 	C 	0.821	0.956	0.8206	-0.142
Mof_H 	H 	0.865	0.9382	0.841	0.083
Mof_C 	C 	0.7904	0.226	0.4142	0.099
Mof_C 	C 	0.967	0.9273	0.0351	0.069
Mof_C 	C 	0.7573	0.2363	0.3508	0.065
Mof_C 	C 	0.7648	0.1209	0.527	0.071
Mof_C 	C 	0.8201	0.002	0.9143	0.096
Mof_C 	C 	0.788	0.9924	0.8496	0.061
Mof_C 	C 	0.7642	0.0649	0.6128	0.085
Mof_H 	H 	0.7852	0.0588	0.6527	-0.011
Mof_C 	C 	0.7962	0.1095	0.5862	-0.137
Mof_H 	H 	0.8383	0.1316	0.608	0.085
Mof_C 	C 	0.7954	0.1722	0.4969	0.103
Mof_C 	C 	0.7854	0.101	0.0239	0.056
Mof_C 	C 	0.9744	0.335	0.5022	-0.157
Mof_H 	H 	0.9572	0.331	0.4621	0.079
Mof_C 	C 	0.6748	0.041	0.5266	0.095
Mof_H 	H 	0.6326	0.0183	0.5062	-0.016
Mof_C 	C 	0.8144	0.1106	0.0833	-0.135
Mof_H 	H 	0.8566	0.0889	0.1056	0.078
Mof_C 	C 	0.6935	0.1808	0.0221	0.078
Mof_H 	H 	0.6524	0.2057	0.0009	-0.013
Mof_C 	C 	0.6938	0.0051	0.7592	0.08
Mof_H 	H 	0.6499	0.0228	0.7382	-0.027
Mof_C 	C 	0.0331	0.3735	0.5327	0.086
Mof_H 	H 	0.0557	0.3955	0.5124	-0.026
Mof_C 	C 	0.027	0.3521	0.618	0.078
Mof_H 	H 	0.0441	0.3602	0.6578	-0.022
Mof_C 	C 	0.7889	0.9461	0.7616	0.08
Mof_H 	H 	0.8119	0.9215	0.7426	-0.015
Mof_C 	C 	0.7544	0.2942	0.2645	0.078
Mof_H 	H 	0.7732	0.329	0.2469	-0.021
Mof_C 	C 	0.9985	0.9278	0.0947	-0.142
Mof_H 	H 	0.9809	0.9575	0.116	0.081
Mof_C 	C 	0.0562	0.8837	0.1222	0.087
Mof_H 	H 	0.0752	0.8812	0.1624	-0.009
Mof_C 	C 	0.698	0.1998	0.3172	-0.149
Mof_H 	H 	0.6752	0.1692	0.3337	0.086
Mof_C 	C 	0.7855	0.2871	0.3235	-0.142
Mof_H 	H 	0.8247	0.3156	0.3451	0.072
Mof_C 	C 	0.7223	0.016	0.8184	-0.15
Mof_H 	H 	0.6978	0.0386	0.8368	0.075
Mof_C 	C 	0.6723	0.2095	0.2574	0.094
Mof_H 	H 	0.6331	0.1818	0.2347	-0.024
Mof_N 	N 	0.0868	0.8442	0.0945	-0.19
Mof_N 	N 	0.7207	0.1871	0.0793	-0.209
Mof_N 	N 	0.7247	0.971	0.7301	-0.199
Mof_N 	N 	0.8772	0.9628	0.9429	-0.138
Mof_N 	N 	0.8748	0.0131	0.0289	-0.142
Mof_N 	N 	0.7891	0.0498	0.9372	-0.15
Mof_N 	N 	0.7045	0.0302	0.5834	-0.194
Mof_N 	N 	0.0604	0.3818	0.5895	-0.217
Mof_N 	N 	0.6992	0.2545	0.2308	-0.203
Mof_N 	N 	0.7623	0.1771	0.439	-0.137
Mof_N 	N 	0.8524	0.21	0.5294	-0.138
Mof_N 	N 	0.8475	0.2663	0.4425	-0.142
Mof_Ag	Ag	0.3217	0.25614	0.36643	0.535
Mof_Ag	Ag	0.84425	0.45668	0.86689	0.522
Mof_C 	C 	0.5975	0.4717	0.4989	0.099
Mof_C 	C 	0.6234	0.756	0.0004	0.096
Mof_C 	C 	0.5597	0.8013	0.968	0.068
Mof_C 	C 	0.7764	0.6385	0.5081	-0.134
Mof_H 	H 	0.7969	0.6354	0.5483	0.073
Mof_C 	C 	0.5036	0.385	0.4948	-0.14
Mof_H 	H 	0.5233	0.3835	0.535	0.088
Mof_C 	C 	0.7975	0.5836	0.0038	-0.136
Mof_H 	H 	0.8195	0.5877	0.0439	0.086
Mof_C 	C 	0.5325	0.8096	0.9094	-0.151
Mof_H 	H 	0.5535	0.7871	0.888	0.084
Mof_C 	C 	0.6814	0.5522	0.505	0.095
Mof_C 	C 	0.7198	0.6529	0.3905	0.066
Mof_H 	H 	0.7004	0.6575	0.3504	-0.026
Mof_C 	C 	0.4437	0.3449	0.4628	0.091
Mof_H 	H 	0.4238	0.3167	0.4829	-0.015
Mof_C 	C 	0.679	0.456	0.6794	-0.142
Mof_H 	H 	0.635	0.4382	0.659	0.083
Mof_C 	C 	0.7096	0.726	0.0858	0.099
Mof_C 	C 	0.533	0.4273	0.4649	0.071
Mof_C 	C 	0.7427	0.7363	0.1492	0.065
Mof_C 	C 	0.7352	0.6209	0.973	0.069
Mof_C 	C 	0.6799	0.502	0.5857	0.096
Mof_C 	C 	0.712	0.4924	0.6504	0.061
Mof_C 	C 	0.7358	0.5649	0.8872	0.085
Mof_H 	H 	0.7148	0.5588	0.8473	-0.011
Mof_C 	C 	0.7038	0.6095	0.9138	-0.135
Mof_H 	H 	0.6617	0.6316	0.892	0.085
Mof_C 	C 	0.7046	0.6722	0.0031	0.104
Mof_C 	C 	0.7146	0.601	0.4761	0.053
Mof_C 	C 	0.5256	0.835	0.9978	-0.157
Mof_H 	H 	0.5428	0.831	0.0379	0.079
Mof_C 	C 	0.8252	0.541	0.9734	0.093
Mof_H 	H 	0.8674	0.5183	0.9938	-0.016
Mof_C 	C 	0.6856	0.6106	0.4167	-0.134
Mof_H 	H 	0.6434	0.5889	0.3944	0.077
Mof_C 	C 	0.8065	0.6808	0.4779	0.076
Mof_H 	H 	0.8476	0.7057	0.4991	-0.012
Mof_C 	C 	0.8062	0.5051	0.7408	0.08
Mof_H 	H 	0.8501	0.5228	0.7618	-0.027
Mof_C 	C 	0.4669	0.8735	0.9673	0.086
Mof_H 	H 	0.4443	0.8955	0.9876	-0.026
Mof_C 	C 	0.473	0.8521	0.882	0.077
Mof_H 	H 	0.4559	0.8602	0.8422	-0.022
Mof_C 	C 	0.7111	0.4461	0.7384	0.08
Mof_H 	H 	0.6881	0.4215	0.7574	-0.015
Mof_C 	C 	0.7456	0.7942	0.2355	0.078
Mof_H 	H 	0.7268	0.829	0.2531	-0.021
Mof_C 	C 	0.5015	0.4278	0.4053	-0.145
Mof_H 	H 	0.5191	0.4575	0.384	0.082
Mof_C 	C 	0.4438	0.3837	0.3778	0.09
Mof_H 	H 	0.4248	0.3812	0.3376	-0.01
Mof_C 	C 	0.802	0.6998	0.1828	-0.149
Mof_H 	H 	0.8248	0.6692	0.1663	0.086
Mof_C 	C 	0.7145	0.7871	0.1765	-0.142
Mof_H 	H 	0.6753	0.8156	0.1549	0.072
Mof_C 	C 	0.7777	0.516	0.6816	-0.15
Mof_H 	H 	0.8022	0.5386	0.6632	0.075
Mof_C 	C 	0.8277	0.7095	0.2426	0.094
Mof_H 	H 	0.8669	0.6818	0.2653	-0.024
Mof_N 	N 	0.4132	0.3442	0.4055	-0.191
Mof_N 	N 	0.7793	0.6871	0.4207	-0.209
Mof_N 	N 	0.7753	0.471	0.7699	-0.199
Mof_N 	N 	0.6228	0.4628	0.5571	-0.137
Mof_N 	N 	0.6252	0.5131	0.4711	-0.142
Mof_N 	N 	0.7109	0.5498	0.5628	-0.15
Mof_N 	N 	0.7955	0.5302	0.9166	-0.194
Mof_N 	N 	0.4396	0.8818	0.9105	-0.217
Mof_N 	N 	0.8008	0.7545	0.2692	-0.203
Mof_N 	N 	0.7377	0.6771	0.061	-0.137
Mof_N 	N 	0.6476	0.71	0.9706	-0.138
Mof_N 	N 	0.6525	0.7663	0.0575	-0.142
Mof_Ag	Ag	0.8217	0.75614	0.36643	0.535
Mof_Ag	Ag	0.34425	0.95668	0.86689	0.523
Mof_C 	C 	0.0975	0.9717	0.4989	0.098
Mof_C 	C 	0.1234	0.256	0.0004	0.095
Mof_C 	C 	0.0597	0.3013	0.968	0.067
Mof_C 	C 	0.2764	0.1385	0.5081	-0.134
Mof_H 	H 	0.2969	0.1354	0.5483	0.073
Mof_C 	C 	0.0036	0.885	0.4948	-0.14
Mof_H 	H 	0.0233	0.8835	0.535	0.088
Mof_C 	C 	0.2975	0.0836	0.0038	-0.142
Mof_H 	H 	0.3195	0.0877	0.0439	0.087
Mof_C 	C 	0.0325	0.3096	0.9094	-0.148
Mof_H 	H 	0.0535	0.2871	0.888	0.083
Mof_C 	C 	0.1814	0.0522	0.505	0.095
Mof_C 	C 	0.2198	0.1529	0.3905	0.066
Mof_H 	H 	0.2004	0.1575	0.3504	-0.026
Mof_C 	C 	0.9437	0.8449	0.4628	0.091
Mof_H 	H 	0.9238	0.8167	0.4829	-0.015
Mof_C 	C 	0.179	0.956	0.6794	-0.142
Mof_H 	H 	0.135	0.9382	0.659	0.083
Mof_C 	C 	0.2096	0.226	0.0858	0.099
Mof_C 	C 	0.033	0.9273	0.4649	0.072
Mof_C 	C 	0.2427	0.2363	0.1492	0.065
Mof_C 	C 	0.2352	0.1209	0.973	0.074
Mof_C 	C 	0.1799	0.002	0.5857	0.096
Mof_C 	C 	0.212	0.9924	0.6504	0.061
Mof_C 	C 	0.2358	0.0649	0.8872	0.086
Mof_H 	H 	0.2148	0.0588	0.8473	-0.011
Mof_C 	C 	0.2038	0.1095	0.9138	-0.138
Mof_H 	H 	0.1617	0.1316	0.892	0.086
Mof_C 	C 	0.2046	0.1722	0.0031	0.101
Mof_C 	C 	0.2146	0.101	0.4761	0.053
Mof_C 	C 	0.0256	0.335	0.9978	-0.151
Mof_H 	H 	0.0428	0.331	0.0379	0.076
Mof_C 	C 	0.3252	0.041	0.9734	0.097
Mof_H 	H 	0.3674	0.0183	0.9938	-0.017
Mof_C 	C 	0.1856	0.1106	0.4167	-0.134
Mof_H 	H 	0.1434	0.0889	0.3944	0.077
Mof_C 	C 	0.3065	0.1808	0.4779	0.076
Mof_H 	H 	0.3476	0.2057	0.4991	-0.012
Mof_C 	C 	0.3062	0.0051	0.7408	0.08
Mof_H 	H 	0.3501	0.0228	0.7618	-0.027
Mof_C 	C 	0.9669	0.3735	0.9673	0.082
Mof_H 	H 	0.9443	0.3955	0.9876	-0.024
Mof_C 	C 	0.973	0.3521	0.882	0.075
Mof_H 	H 	0.9559	0.3602	0.8422	-0.021
Mof_C 	C 	0.2111	0.9461	0.7384	0.08
Mof_H 	H 	0.1881	0.9215	0.7574	-0.015
Mof_C 	C 	0.2456	0.2942	0.2355	0.078
Mof_H 	H 	0.2268	0.329	0.2531	-0.021
Mof_C 	C 	0.0015	0.9278	0.4053	-0.146
Mof_H 	H 	0.0191	0.9575	0.384	0.082
Mof_C 	C 	0.9438	0.8837	0.3778	0.091
Mof_H 	H 	0.9248	0.8812	0.3376	-0.01
Mof_C 	C 	0.302	0.1998	0.1828	-0.149
Mof_H 	H 	0.3248	0.1692	0.1663	0.086
Mof_C 	C 	0.2145	0.2871	0.1765	-0.142
Mof_H 	H 	0.1753	0.3156	0.1549	0.072
Mof_C 	C 	0.2777	0.016	0.6816	-0.15
Mof_H 	H 	0.3022	0.0386	0.6632	0.075
Mof_C 	C 	0.3277	0.2095	0.2426	0.094
Mof_H 	H 	0.3669	0.1818	0.2653	-0.024
Mof_N 	N 	0.9132	0.8442	0.4055	-0.191
Mof_N 	N 	0.2793	0.1871	0.4207	-0.209
Mof_N 	N 	0.2753	0.971	0.7699	-0.199
Mof_N 	N 	0.1228	0.9628	0.5571	-0.137
Mof_N 	N 	0.1252	0.0131	0.4711	-0.142
Mof_N 	N 	0.2109	0.0498	0.5628	-0.15
Mof_N 	N 	0.2955	0.0302	0.9166	-0.195
Mof_N 	N 	0.9396	0.3818	0.9105	-0.216
Mof_N 	N 	0.3008	0.2545	0.2692	-0.203
Mof_N 	N 	0.2377	0.1771	0.061	-0.137
Mof_N 	N 	0.1476	0.21	0.9706	-0.137
Mof_N 	N 	0.1525	0.2663	0.0575	-0.142
_end
