# CIF file generated by openbabel 3.1.0, see https://openbabel.org
data_I
_chemical_name_common 'image0'
_cell_length_a 26.4938
_cell_length_b 14.5214
_cell_length_c 25.6071
_cell_angle_alpha 90
_cell_angle_beta 114.285
_cell_angle_gamma 90
_space_group_name_H-M_alt 'P 1'
_space_group_name_Hall 'P 1'
loop_
    _symmetry_equiv_pos_as_xyz
    x,y,z
loop_
    _atom_site_label
    _atom_site_type_symbol
    _atom_site_fract_x
    _atom_site_fract_y
    _atom_site_fract_z
    _atom_site_occupancy
    Nd1      Nd       0.21414    0.86739    0.31003    1.000
    Nd2      Nd       0.16455    0.08841    0.19715    1.000
    O1       O        0.12800    0.94090    0.23340    1.000
    O2       O        0.21870    0.05350    0.30000    1.000
    O3       O        0.28320    0.37100    0.28120    1.000
    C1       C        0.30120    0.30590    0.37140    1.000
    O4       O        0.08240    0.07030    0.22360    1.000
    O5       O        0.26720    0.98680    0.38310    1.000
    O6       O        0.08480    0.92570    0.60030    1.000
    O7       O        0.26200    0.77350    0.39630    1.000
    H1       H        0.24150    0.76540    0.41260    1.000
    O8       O        0.15890    0.85200    0.60460    1.000
    O9       O        0.17680    0.77560    0.42520    1.000
    O10      O        0.32960    0.22220    0.22310    1.000
    O11      O        0.30630    0.83580    0.31950    1.000
    C2       C        0.15320    0.84860    0.40300    1.000
    C3       C        0.25320    0.05760    0.35370    1.000
    C4       C        0.27650    0.22150    0.34610    1.000
    H2       H        0.25970    0.21610    0.30640    1.000
    C5       C        0.04260    0.93370    0.24300    1.000
    O12      O        0.15590    0.88540    0.35940    1.000
    C6       C        0.27700    0.14730    0.37980    1.000
    C7       C        0.12920    0.87300    0.48650    1.000
    H3       H        0.15390    0.82600    0.50510    1.000
    C8       C        0.10110    0.91880    0.51530    1.000
    C9       C        0.11420    0.89730    0.57640    1.000
    C10      C        0.12060    0.89690    0.43100    1.000
    C11      C        0.08710    0.98670    0.23360    1.000
    C12      C        0.08380    0.96740    0.40410    1.000
    H4       H        0.07860    0.98550    0.36740    1.000
    C13      C        0.04110    0.83850    0.24410    1.000
    H5       H        0.06970    0.80580    0.24060    1.000
    C14      C        0.05440    0.01150    0.43130    1.000
    H6       H        0.02870    0.05690    0.41210    1.000
    O13      O        0.25770    0.13790    0.21790    1.000
    O14      O        0.35460    0.74310    0.28740    1.000
    O15      O        0.31730    0.46120    0.35640    1.000
    C15      C        0.35730    0.90590    0.27240    1.000
    C16      C        0.34330    0.06270    0.24030    1.000
    C17      C        0.30780    0.14730    0.22630    1.000
    C18      C        0.32850    0.98530    0.26270    1.000
    H7       H        0.29770    0.98840    0.27140    1.000
    C19      C        0.30090    0.38430    0.33440    1.000
    C20      C        0.32660    0.31190    0.43010    1.000
    H8       H        0.34400    0.36630    0.44740    1.000
    C21      C        0.33810    0.82300    0.29480    1.000
    C22      C        0.40380    0.89900    0.26050    1.000
    H9       H        0.42350    0.84420    0.26630    1.000
    C23      C        0.06360    0.98790    0.48640    1.000
    H10      H        0.04440    0.01850    0.50460    1.000
    C24      C        0.39120    0.05940    0.23020    1.000
    H11      H        0.40360    0.11120    0.21760    1.000
    C25      C        0.30200    0.15660    0.43860    1.000
    H12      H        0.30220    0.10680    0.46160    1.000
    C26      C        0.41980    0.97660    0.23950    1.000
    H13      H        0.45080    0.97300    0.23140    1.000
    C27      C        0.32620    0.23720    0.46380    1.000
    H14      H        0.34250    0.24220    0.50350    1.000
    Nd3      Nd       0.71414    0.36739    0.31003    1.000
    Nd4      Nd       0.66455    0.58841    0.19715    1.000
    O16      O        0.62800    0.44090    0.23340    1.000
    O17      O        0.71870    0.55350    0.30000    1.000
    O18      O        0.78320    0.87100    0.28120    1.000
    C28      C        0.80120    0.80590    0.37140    1.000
    O19      O        0.58240    0.57030    0.22360    1.000
    O20      O        0.76720    0.48680    0.38310    1.000
    O21      O        0.58480    0.42570    0.60030    1.000
    O22      O        0.76200    0.27350    0.39630    1.000
    H15      H        0.74150    0.26540    0.41260    1.000
    O23      O        0.65890    0.35200    0.60460    1.000
    O24      O        0.67680    0.27560    0.42520    1.000
    O25      O        0.82960    0.72220    0.22310    1.000
    O26      O        0.80630    0.33580    0.31950    1.000
    C29      C        0.65320    0.34860    0.40300    1.000
    C30      C        0.75320    0.55760    0.35370    1.000
    C31      C        0.77650    0.72150    0.34610    1.000
    H16      H        0.75970    0.71610    0.30640    1.000
    C32      C        0.54260    0.43370    0.24300    1.000
    O27      O        0.65590    0.38540    0.35940    1.000
    C33      C        0.77700    0.64730    0.37980    1.000
    C34      C        0.62920    0.37300    0.48650    1.000
    H17      H        0.65390    0.32600    0.50510    1.000
    C35      C        0.60110    0.41880    0.51530    1.000
    C36      C        0.61420    0.39730    0.57640    1.000
    C37      C        0.62060    0.39690    0.43100    1.000
    C38      C        0.58710    0.48670    0.23360    1.000
    C39      C        0.58380    0.46740    0.40410    1.000
    H18      H        0.57860    0.48550    0.36740    1.000
    C40      C        0.54110    0.33850    0.24410    1.000
    H19      H        0.56970    0.30580    0.24060    1.000
    C41      C        0.55440    0.51150    0.43130    1.000
    H20      H        0.52870    0.55690    0.41210    1.000
    O28      O        0.75770    0.63790    0.21790    1.000
    O29      O        0.85460    0.24310    0.28740    1.000
    O30      O        0.81730    0.96120    0.35640    1.000
    C42      C        0.85730    0.40590    0.27240    1.000
    C43      C        0.84330    0.56270    0.24030    1.000
    C44      C        0.80780    0.64730    0.22630    1.000
    C45      C        0.82850    0.48530    0.26270    1.000
    H21      H        0.79770    0.48840    0.27140    1.000
    C46      C        0.80090    0.88430    0.33440    1.000
    C47      C        0.82660    0.81190    0.43010    1.000
    H22      H        0.84400    0.86630    0.44740    1.000
    C48      C        0.83810    0.32300    0.29480    1.000
    C49      C        0.90380    0.39900    0.26050    1.000
    H23      H        0.92350    0.34420    0.26630    1.000
    C50      C        0.56360    0.48790    0.48640    1.000
    H24      H        0.54440    0.51850    0.50460    1.000
    C51      C        0.89120    0.55940    0.23020    1.000
    H25      H        0.90360    0.61120    0.21760    1.000
    C52      C        0.80200    0.65660    0.43860    1.000
    H26      H        0.80220    0.60680    0.46160    1.000
    C53      C        0.91980    0.47660    0.23950    1.000
    H27      H        0.95080    0.47300    0.23140    1.000
    C54      C        0.82620    0.73720    0.46380    1.000
    H28      H        0.84250    0.74220    0.50350    1.000
    Nd5      Nd       0.78586    0.86739    0.18997    1.000
    Nd6      Nd       0.83545    0.08841    0.30285    1.000
    O31      O        0.87200    0.94090    0.26660    1.000
    O32      O        0.78130    0.05350    0.20000    1.000
    O33      O        0.71680    0.37100    0.21880    1.000
    C55      C        0.69880    0.30590    0.12860    1.000
    O34      O        0.91760    0.07030    0.27640    1.000
    O35      O        0.73280    0.98680    0.11690    1.000
    O36      O        0.91520    0.92570    0.89970    1.000
    O37      O        0.73800    0.77350    0.10370    1.000
    H29      H        0.75850    0.76540    0.08740    1.000
    O38      O        0.84110    0.85200    0.89540    1.000
    O39      O        0.82320    0.77560    0.07480    1.000
    O40      O        0.67040    0.22220    0.27690    1.000
    O41      O        0.69370    0.83580    0.18050    1.000
    C56      C        0.84680    0.84860    0.09700    1.000
    C57      C        0.74680    0.05760    0.14630    1.000
    C58      C        0.72350    0.22150    0.15390    1.000
    H30      H        0.74030    0.21610    0.19360    1.000
    C59      C        0.95740    0.93370    0.25700    1.000
    O42      O        0.84410    0.88540    0.14060    1.000
    C60      C        0.72300    0.14730    0.12020    1.000
    C61      C        0.87080    0.87300    0.01350    1.000
    H31      H        0.84610    0.82600    0.99490    1.000
    C62      C        0.89890    0.91880    0.98470    1.000
    C63      C        0.88580    0.89730    0.92360    1.000
    C64      C        0.87940    0.89690    0.06900    1.000
    C65      C        0.91290    0.98670    0.26640    1.000
    C66      C        0.91620    0.96740    0.09590    1.000
    H32      H        0.92140    0.98550    0.13260    1.000
    C67      C        0.95890    0.83850    0.25590    1.000
    H33      H        0.93030    0.80580    0.25940    1.000
    C68      C        0.94560    0.01150    0.06870    1.000
    H34      H        0.97130    0.05690    0.08790    1.000
    O43      O        0.74230    0.13790    0.28210    1.000
    O44      O        0.64540    0.74310    0.21260    1.000
    O45      O        0.68270    0.46120    0.14360    1.000
    C69      C        0.64270    0.90590    0.22760    1.000
    C70      C        0.65670    0.06270    0.25970    1.000
    C71      C        0.69220    0.14730    0.27370    1.000
    C72      C        0.67150    0.98530    0.23730    1.000
    H35      H        0.70230    0.98840    0.22860    1.000
    C73      C        0.69910    0.38430    0.16560    1.000
    C74      C        0.67340    0.31190    0.06990    1.000
    H36      H        0.65600    0.36630    0.05260    1.000
    C75      C        0.66190    0.82300    0.20520    1.000
    C76      C        0.59620    0.89900    0.23950    1.000
    H37      H        0.57650    0.84420    0.23370    1.000
    C77      C        0.93640    0.98790    0.01360    1.000
    H38      H        0.95560    0.01850    0.99540    1.000
    C78      C        0.60880    0.05940    0.26980    1.000
    H39      H        0.59640    0.11120    0.28240    1.000
    C79      C        0.69800    0.15660    0.06140    1.000
    H40      H        0.69780    0.10680    0.03840    1.000
    C80      C        0.58020    0.97660    0.26050    1.000
    H41      H        0.54920    0.97300    0.26860    1.000
    C81      C        0.67380    0.23720    0.03620    1.000
    H42      H        0.65750    0.24220    0.99650    1.000
    Nd7      Nd       0.28586    0.36739    0.18997    1.000
    Nd8      Nd       0.33545    0.58841    0.30285    1.000
    O46      O        0.37200    0.44090    0.26660    1.000
    O47      O        0.28130    0.55350    0.20000    1.000
    O48      O        0.21680    0.87100    0.21880    1.000
    C82      C        0.19880    0.80590    0.12860    1.000
    O49      O        0.41760    0.57030    0.27640    1.000
    O50      O        0.23280    0.48680    0.11690    1.000
    O51      O        0.41520    0.42570    0.89970    1.000
    O52      O        0.23800    0.27350    0.10370    1.000
    H43      H        0.25850    0.26540    0.08740    1.000
    O53      O        0.34110    0.35200    0.89540    1.000
    O54      O        0.32320    0.27560    0.07480    1.000
    O55      O        0.17040    0.72220    0.27690    1.000
    O56      O        0.19370    0.33580    0.18050    1.000
    C83      C        0.34680    0.34860    0.09700    1.000
    C84      C        0.24680    0.55760    0.14630    1.000
    C85      C        0.22350    0.72150    0.15390    1.000
    H44      H        0.24030    0.71610    0.19360    1.000
    C86      C        0.45740    0.43370    0.25700    1.000
    O57      O        0.34410    0.38540    0.14060    1.000
    C87      C        0.22300    0.64730    0.12020    1.000
    C88      C        0.37080    0.37300    0.01350    1.000
    H45      H        0.34610    0.32600    0.99490    1.000
    C89      C        0.39890    0.41880    0.98470    1.000
    C90      C        0.38580    0.39730    0.92360    1.000
    C91      C        0.37940    0.39690    0.06900    1.000
    C92      C        0.41290    0.48670    0.26640    1.000
    C93      C        0.41620    0.46740    0.09590    1.000
    H46      H        0.42140    0.48550    0.13260    1.000
    C94      C        0.45890    0.33850    0.25590    1.000
    H47      H        0.43030    0.30580    0.25940    1.000
    C95      C        0.44560    0.51150    0.06870    1.000
    H48      H        0.47130    0.55690    0.08790    1.000
    O58      O        0.24230    0.63790    0.28210    1.000
    O59      O        0.14540    0.24310    0.21260    1.000
    O60      O        0.18270    0.96120    0.14360    1.000
    C96      C        0.14270    0.40590    0.22760    1.000
    C97      C        0.15670    0.56270    0.25970    1.000
    C98      C        0.19220    0.64730    0.27370    1.000
    C99      C        0.17150    0.48530    0.23730    1.000
    H49      H        0.20230    0.48840    0.22860    1.000
    C100     C        0.19910    0.88430    0.16560    1.000
    C101     C        0.17340    0.81190    0.06990    1.000
    H50      H        0.15600    0.86630    0.05260    1.000
    C102     C        0.16190    0.32300    0.20520    1.000
    C103     C        0.09620    0.39900    0.23950    1.000
    H51      H        0.07650    0.34420    0.23370    1.000
    C104     C        0.43640    0.48790    0.01360    1.000
    H52      H        0.45560    0.51850    0.99540    1.000
    C105     C        0.10880    0.55940    0.26980    1.000
    H53      H        0.09640    0.61120    0.28240    1.000
    C106     C        0.19800    0.65660    0.06140    1.000
    H54      H        0.19780    0.60680    0.03840    1.000
    C107     C        0.08020    0.47660    0.26050    1.000
    H55      H        0.04920    0.47300    0.26860    1.000
    C108     C        0.17380    0.73720    0.03620    1.000
    H56      H        0.15750    0.74220    0.99650    1.000
    Nd9      Nd       0.78586    0.13261    0.68997    1.000
    Nd10     Nd       0.83545    0.91159    0.80285    1.000
    O61      O        0.87200    0.05910    0.76660    1.000
    O62      O        0.78130    0.94650    0.70000    1.000
    O63      O        0.71680    0.62900    0.71880    1.000
    C109     C        0.69880    0.69410    0.62860    1.000
    O64      O        0.91760    0.92970    0.77640    1.000
    O65      O        0.73280    0.01320    0.61690    1.000
    O66      O        0.91520    0.07430    0.39970    1.000
    O67      O        0.73800    0.22650    0.60370    1.000
    H57      H        0.75850    0.23460    0.58740    1.000
    O68      O        0.84110    0.14800    0.39540    1.000
    O69      O        0.82320    0.22440    0.57480    1.000
    O70      O        0.67040    0.77780    0.77690    1.000
    O71      O        0.69370    0.16420    0.68050    1.000
    C110     C        0.84680    0.15140    0.59700    1.000
    C111     C        0.74680    0.94240    0.64630    1.000
    C112     C        0.72350    0.77850    0.65390    1.000
    H58      H        0.74030    0.78390    0.69360    1.000
    C113     C        0.95740    0.06630    0.75700    1.000
    O72      O        0.84410    0.11460    0.64060    1.000
    C114     C        0.72300    0.85270    0.62020    1.000
    C115     C        0.87080    0.12700    0.51350    1.000
    H59      H        0.84610    0.17400    0.49490    1.000
    C116     C        0.89890    0.08120    0.48470    1.000
    C117     C        0.88580    0.10270    0.42360    1.000
    C118     C        0.87940    0.10310    0.56900    1.000
    C119     C        0.91290    0.01330    0.76640    1.000
    C120     C        0.91620    0.03260    0.59590    1.000
    H60      H        0.92140    0.01450    0.63260    1.000
    C121     C        0.95890    0.16150    0.75590    1.000
    H61      H        0.93030    0.19420    0.75940    1.000
    C122     C        0.94560    0.98850    0.56870    1.000
    H62      H        0.97130    0.94310    0.58790    1.000
    O73      O        0.74230    0.86210    0.78210    1.000
    O74      O        0.64540    0.25690    0.71260    1.000
    O75      O        0.68270    0.53880    0.64360    1.000
    C123     C        0.64270    0.09410    0.72760    1.000
    C124     C        0.65670    0.93730    0.75970    1.000
    C125     C        0.69220    0.85270    0.77370    1.000
    C126     C        0.67150    0.01470    0.73730    1.000
    H63      H        0.70230    0.01160    0.72860    1.000
    C127     C        0.69910    0.61570    0.66560    1.000
    C128     C        0.67340    0.68810    0.56990    1.000
    H64      H        0.65600    0.63370    0.55260    1.000
    C129     C        0.66190    0.17700    0.70520    1.000
    C130     C        0.59620    0.10100    0.73950    1.000
    H65      H        0.57650    0.15580    0.73370    1.000
    C131     C        0.93640    0.01210    0.51360    1.000
    H66      H        0.95560    0.98150    0.49540    1.000
    C132     C        0.60880    0.94060    0.76980    1.000
    H67      H        0.59640    0.88880    0.78240    1.000
    C133     C        0.69800    0.84340    0.56140    1.000
    H68      H        0.69780    0.89320    0.53840    1.000
    C134     C        0.58020    0.02340    0.76050    1.000
    H69      H        0.54920    0.02700    0.76860    1.000
    C135     C        0.67380    0.76280    0.53620    1.000
    H70      H        0.65750    0.75780    0.49650    1.000
    Nd11     Nd       0.28586    0.63261    0.68997    1.000
    Nd12     Nd       0.33545    0.41159    0.80285    1.000
    O76      O        0.37200    0.55910    0.76660    1.000
    O77      O        0.28130    0.44650    0.70000    1.000
    O78      O        0.21680    0.12900    0.71880    1.000
    C136     C        0.19880    0.19410    0.62860    1.000
    O79      O        0.41760    0.42970    0.77640    1.000
    O80      O        0.23280    0.51320    0.61690    1.000
    O81      O        0.41520    0.57430    0.39970    1.000
    O82      O        0.23800    0.72650    0.60370    1.000
    H71      H        0.25850    0.73460    0.58740    1.000
    O83      O        0.34110    0.64800    0.39540    1.000
    O84      O        0.32320    0.72440    0.57480    1.000
    O85      O        0.17040    0.27780    0.77690    1.000
    O86      O        0.19370    0.66420    0.68050    1.000
    C137     C        0.34680    0.65140    0.59700    1.000
    C138     C        0.24680    0.44240    0.64630    1.000
    C139     C        0.22350    0.27850    0.65390    1.000
    H72      H        0.24030    0.28390    0.69360    1.000
    C140     C        0.45740    0.56630    0.75700    1.000
    O87      O        0.34410    0.61460    0.64060    1.000
    C141     C        0.22300    0.35270    0.62020    1.000
    C142     C        0.37080    0.62700    0.51350    1.000
    H73      H        0.34610    0.67400    0.49490    1.000
    C143     C        0.39890    0.58120    0.48470    1.000
    C144     C        0.38580    0.60270    0.42360    1.000
    C145     C        0.37940    0.60310    0.56900    1.000
    C146     C        0.41290    0.51330    0.76640    1.000
    C147     C        0.41620    0.53260    0.59590    1.000
    H74      H        0.42140    0.51450    0.63260    1.000
    C148     C        0.45890    0.66150    0.75590    1.000
    H75      H        0.43030    0.69420    0.75940    1.000
    C149     C        0.44560    0.48850    0.56870    1.000
    H76      H        0.47130    0.44310    0.58790    1.000
    O88      O        0.24230    0.36210    0.78210    1.000
    O89      O        0.14540    0.75690    0.71260    1.000
    O90      O        0.18270    0.03880    0.64360    1.000
    C150     C        0.14270    0.59410    0.72760    1.000
    C151     C        0.15670    0.43730    0.75970    1.000
    C152     C        0.19220    0.35270    0.77370    1.000
    C153     C        0.17150    0.51470    0.73730    1.000
    H77      H        0.20230    0.51160    0.72860    1.000
    C154     C        0.19910    0.11570    0.66560    1.000
    C155     C        0.17340    0.18810    0.56990    1.000
    H78      H        0.15600    0.13370    0.55260    1.000
    C156     C        0.16190    0.67700    0.70520    1.000
    C157     C        0.09620    0.60100    0.73950    1.000
    H79      H        0.07650    0.65580    0.73370    1.000
    C158     C        0.43640    0.51210    0.51360    1.000
    H80      H        0.45560    0.48150    0.49540    1.000
    C159     C        0.10880    0.44060    0.76980    1.000
    H81      H        0.09640    0.38880    0.78240    1.000
    C160     C        0.19800    0.34340    0.56140    1.000
    H82      H        0.19780    0.39320    0.53840    1.000
    C161     C        0.08020    0.52340    0.76050    1.000
    H83      H        0.04920    0.52700    0.76860    1.000
    C162     C        0.17380    0.26280    0.53620    1.000
    H84      H        0.15750    0.25780    0.49650    1.000
    Nd13     Nd       0.21414    0.13261    0.81003    1.000
    Nd14     Nd       0.16455    0.91159    0.69715    1.000
    O91      O        0.12800    0.05910    0.73340    1.000
    O92      O        0.21870    0.94650    0.80000    1.000
    O93      O        0.28320    0.62900    0.78120    1.000
    C163     C        0.30120    0.69410    0.87140    1.000
    O94      O        0.08240    0.92970    0.72360    1.000
    O95      O        0.26720    0.01320    0.88310    1.000
    O96      O        0.08480    0.07430    0.10030    1.000
    O97      O        0.26200    0.22650    0.89630    1.000
    H85      H        0.24150    0.23460    0.91260    1.000
    O98      O        0.15890    0.14800    0.10460    1.000
    O99      O        0.17680    0.22440    0.92520    1.000
    O100     O        0.32960    0.77780    0.72310    1.000
    O101     O        0.30630    0.16420    0.81950    1.000
    C164     C        0.15320    0.15140    0.90300    1.000
    C165     C        0.25320    0.94240    0.85370    1.000
    C166     C        0.27650    0.77850    0.84610    1.000
    H86      H        0.25970    0.78390    0.80640    1.000
    C167     C        0.04260    0.06630    0.74300    1.000
    O102     O        0.15590    0.11460    0.85940    1.000
    C168     C        0.27700    0.85270    0.87980    1.000
    C169     C        0.12920    0.12700    0.98650    1.000
    H87      H        0.15390    0.17400    0.00510    1.000
    C170     C        0.10110    0.08120    0.01530    1.000
    C171     C        0.11420    0.10270    0.07640    1.000
    C172     C        0.12060    0.10310    0.93100    1.000
    C173     C        0.08710    0.01330    0.73360    1.000
    C174     C        0.08380    0.03260    0.90410    1.000
    H88      H        0.07860    0.01450    0.86740    1.000
    C175     C        0.04110    0.16150    0.74410    1.000
    H89      H        0.06970    0.19420    0.74060    1.000
    C176     C        0.05440    0.98850    0.93130    1.000
    H90      H        0.02870    0.94310    0.91210    1.000
    O103     O        0.25770    0.86210    0.71790    1.000
    O104     O        0.35460    0.25690    0.78740    1.000
    O105     O        0.31730    0.53880    0.85640    1.000
    C177     C        0.35730    0.09410    0.77240    1.000
    C178     C        0.34330    0.93730    0.74030    1.000
    C179     C        0.30780    0.85270    0.72630    1.000
    C180     C        0.32850    0.01470    0.76270    1.000
    H91      H        0.29770    0.01160    0.77140    1.000
    C181     C        0.30090    0.61570    0.83440    1.000
    C182     C        0.32660    0.68810    0.93010    1.000
    H92      H        0.34400    0.63370    0.94740    1.000
    C183     C        0.33810    0.17700    0.79480    1.000
    C184     C        0.40380    0.10100    0.76050    1.000
    H93      H        0.42350    0.15580    0.76630    1.000
    C185     C        0.06360    0.01210    0.98640    1.000
    H94      H        0.04440    0.98150    0.00460    1.000
    C186     C        0.39120    0.94060    0.73020    1.000
    H95      H        0.40360    0.88880    0.71760    1.000
    C187     C        0.30200    0.84340    0.93860    1.000
    H96      H        0.30220    0.89320    0.96160    1.000
    C188     C        0.41980    0.02340    0.73950    1.000
    H97      H        0.45080    0.02700    0.73140    1.000
    C189     C        0.32620    0.76280    0.96380    1.000
    H98      H        0.34250    0.75780    0.00350    1.000
    Nd15     Nd       0.71414    0.63261    0.81003    1.000
    Nd16     Nd       0.66455    0.41159    0.69715    1.000
    O106     O        0.62800    0.55910    0.73340    1.000
    O107     O        0.71870    0.44650    0.80000    1.000
    O108     O        0.78320    0.12900    0.78120    1.000
    C190     C        0.80120    0.19410    0.87140    1.000
    O109     O        0.58240    0.42970    0.72360    1.000
    O110     O        0.76720    0.51320    0.88310    1.000
    O111     O        0.58480    0.57430    0.10030    1.000
    O112     O        0.76200    0.72650    0.89630    1.000
    H99      H        0.74150    0.73460    0.91260    1.000
    O113     O        0.65890    0.64800    0.10460    1.000
    O114     O        0.67680    0.72440    0.92520    1.000
    O115     O        0.82960    0.27780    0.72310    1.000
    O116     O        0.80630    0.66420    0.81950    1.000
    C191     C        0.65320    0.65140    0.90300    1.000
    C192     C        0.75320    0.44240    0.85370    1.000
    C193     C        0.77650    0.27850    0.84610    1.000
    H100     H        0.75970    0.28390    0.80640    1.000
    C194     C        0.54260    0.56630    0.74300    1.000
    O117     O        0.65590    0.61460    0.85940    1.000
    C195     C        0.77700    0.35270    0.87980    1.000
    C196     C        0.62920    0.62700    0.98650    1.000
    H101     H        0.65390    0.67400    0.00510    1.000
    C197     C        0.60110    0.58120    0.01530    1.000
    C198     C        0.61420    0.60270    0.07640    1.000
    C199     C        0.62060    0.60310    0.93100    1.000
    C200     C        0.58710    0.51330    0.73360    1.000
    C201     C        0.58380    0.53260    0.90410    1.000
    H102     H        0.57860    0.51450    0.86740    1.000
    C202     C        0.54110    0.66150    0.74410    1.000
    H103     H        0.56970    0.69420    0.74060    1.000
    C203     C        0.55440    0.48850    0.93130    1.000
    H104     H        0.52870    0.44310    0.91210    1.000
    O118     O        0.75770    0.36210    0.71790    1.000
    O119     O        0.85460    0.75690    0.78740    1.000
    O120     O        0.81730    0.03880    0.85640    1.000
    C204     C        0.85730    0.59410    0.77240    1.000
    C205     C        0.84330    0.43730    0.74030    1.000
    C206     C        0.80780    0.35270    0.72630    1.000
    C207     C        0.82850    0.51470    0.76270    1.000
    H105     H        0.79770    0.51160    0.77140    1.000
    C208     C        0.80090    0.11570    0.83440    1.000
    C209     C        0.82660    0.18810    0.93010    1.000
    H106     H        0.84400    0.13370    0.94740    1.000
    C210     C        0.83810    0.67700    0.79480    1.000
    C211     C        0.90380    0.60100    0.76050    1.000
    H107     H        0.92350    0.65580    0.76630    1.000
    C212     C        0.56360    0.51210    0.98640    1.000
    H108     H        0.54440    0.48150    0.00460    1.000
    C213     C        0.89120    0.44060    0.73020    1.000
    H109     H        0.90360    0.38880    0.71760    1.000
    C214     C        0.80200    0.34340    0.93860    1.000
    H110     H        0.80220    0.39320    0.96160    1.000
    C215     C        0.91980    0.52340    0.73950    1.000
    H111     H        0.95080    0.52700    0.73140    1.000
    C216     C        0.82620    0.26280    0.96380    1.000
    H112     H        0.84250    0.25780    0.00350    1.000
    C217     C        0.00000    0.97980    0.25000    1.000
    H113     H        0.00000    0.04390    0.25000    1.000
    C218     C        0.00000    0.79060    0.25000    1.000
    H114     H        0.00000    0.72660    0.25000    1.000
    C219     C        0.50000    0.47980    0.25000    1.000
    H115     H        0.50000    0.54390    0.25000    1.000
    C220     C        0.50000    0.29060    0.25000    1.000
    H116     H        0.50000    0.22660    0.25000    1.000
    C221     C        0.00000    0.02020    0.75000    1.000
    H117     H        0.00000    0.95610    0.75000    1.000
    C222     C        0.00000    0.20940    0.75000    1.000
    H118     H        0.00000    0.27340    0.75000    1.000
    C223     C        0.50000    0.52020    0.75000    1.000
    H119     H        0.50000    0.45610    0.75000    1.000
    C224     C        0.50000    0.70940    0.75000    1.000
    H120     H        0.50000    0.77340    0.75000    1.000
