data_functionalizedCrystal
_audit_creation_method	'EQeq! by Chris Wilmer'
_symmetry_space_group_name_H-M	'P1'
_symmetry_Int_Tables_number	1
_symmetry_cell_setting	triclinic
loop_
_symmetry_equiv_pos_as_xyz
  x,y,z
_cell_length_a	10.7585
_cell_length_b	15.0997
_cell_length_c	18.1366
_cell_angle_alpha	68.3853
_cell_angle_beta	72.7467
_cell_angle_gamma	69.13
loop_
_atom_site_label
_atom_site_type_symbol
_atom_site_fract_x
_atom_site_fract_y
_atom_site_fract_z
_atom_site_charge
Mof_Ni	Ni	0.5	2.26233e-17	0.5	1.035
Mof_Ni	Ni	-0	0.5	-0	1.024
Mof_Ni	Ni	-0	2.26233e-17	0.5	1.07
Mof_Ni	Ni	0.5	0.5	-0	1.102
Mof_H 	H 	0.6245	0.4771	0.3351	0.127
Mof_H 	H 	0.8371	0.8311	0.3639	0.011
Mof_H 	H 	0.1629	0.9911	0.2181	0.11
Mof_H 	H 	0.1713	0.8497	0.1957	0.009
Mof_H 	H 	0.2586	0.928	0.3892	0.022
Mof_H 	H 	0.3979	0.7887	0.3557	0.096
Mof_H 	H 	0.1597	0.6345	0.5267	0.085
Mof_H 	H 	0.0228	0.7786	0.5538	0.001
Mof_H 	H 	0.363	0.3295	0.5505	0.088
Mof_H 	H 	0.3856	0.1651	0.5777	-0.004
Mof_H 	H 	0.6272	0.1589	0.3715	-0.006
Mof_H 	H 	0.6185	0.3226	0.3404	0.086
Mof_H 	H 	0.4367	0.0229	0.1649	0.041
Mof_H 	H 	0.0321	0.6689	0.1361	0.013
Mof_H 	H 	0.3721	0.5089	0.2819	0.064
Mof_H 	H 	0.2167	0.6503	0.3043	0.029
Mof_H 	H 	0.5758	0.572	0.1108	-0.024
Mof_H 	H 	0.5423	0.7113	0.1443	0.128
Mof_H 	H 	0.3209	0.8655	0.9733	0.224
Mof_H 	H 	0.3552	0.7214	0.9462	-0.055
Mof_H 	H 	0.243	0.1705	0.9495	0.075
Mof_H 	H 	0.1284	0.3349	0.9223	-0.019
Mof_H 	H 	0.1576	0.3411	0.1285	0.001
Mof_H 	H 	0.2815	0.1774	0.1596	0.078
Mof_H 	H 	0.3755	0.5229	0.6649	0.121
Mof_H 	H 	0.1629	0.1689	0.6361	0.108
Mof_H 	H 	0.8371	0.0089	0.7819	-0.017
Mof_H 	H 	0.8287	0.1503	0.8043	0.119
Mof_H 	H 	0.7414	0.072	0.6108	-0.019
Mof_H 	H 	0.6021	0.2113	0.6443	0.089
Mof_H 	H 	0.8403	0.3655	0.4733	0.1
Mof_H 	H 	0.9772	0.2214	0.4462	0.027
Mof_H 	H 	0.637	0.6705	0.4495	0.095
Mof_H 	H 	0.6144	0.8349	0.4223	0.014
Mof_H 	H 	0.3728	0.8411	0.6285	0.023
Mof_H 	H 	0.3815	0.6774	0.6596	0.084
Mof_H 	H 	0.5633	0.9771	0.8351	0.2
Mof_H 	H 	0.9679	0.3311	0.8639	0.107
Mof_H 	H 	0.6279	0.4911	0.7181	0.021
Mof_H 	H 	0.7833	0.3497	0.6957	0.101
Mof_H 	H 	0.4242	0.428	0.8892	0.024
Mof_H 	H 	0.4577	0.2887	0.8557	0.055
Mof_H 	H 	0.6791	0.1345	0.0267	-0.048
Mof_H 	H 	0.6448	0.2786	0.0538	0.085
Mof_H 	H 	0.757	0.8295	0.0505	0.107
Mof_H 	H 	0.8716	0.6651	0.0777	0.028
Mof_H 	H 	0.8424	0.6589	0.8715	0.016
Mof_H 	H 	0.7185	0.8226	0.8404	0.091
Mof_C 	C 	0.0041	0.8268	0.2756	-0.201
Mof_C 	C 	0.906	0.8616	0.3364	0.143
Mof_C 	C 	0.90878	0.94074	0.3567	-0.102
Mof_C 	C 	0.79933	0.96854	0.4258	0.389
Mof_C 	C 	0.0029	0.9918	0.3112	0.035
Mof_C 	C 	0.0104	0.0834	0.3228	0.17
Mof_C 	C 	0.0993	0.9568	0.2496	-0.126
Mof_C 	C 	0.1021	0.874	0.2344	0.087
Mof_C 	C 	0.2375	0.8682	0.417	0.089
Mof_C 	C 	0.32229	0.78452	0.3969	-0.141
Mof_C 	C 	0.29575	0.6952	0.4373	0.071
Mof_C 	C 	0.1814	0.6941	0.4973	-0.14
Mof_C 	C 	0.0999	0.7808	0.5136	0.082
Mof_C 	C 	0.38494	0.60262	0.4201	0.083
Mof_C 	C 	0.46778	0.45294	0.4211	0.109
Mof_C 	C 	0.48508	0.34654	0.4407	0.051
Mof_C 	C 	0.41742	0.29636	0.5128	-0.128
Mof_C 	C 	0.43069	0.19782	0.5284	0.073
Mof_C 	C 	0.57315	0.1939	0.408	0.082
Mof_C 	C 	0.56743	0.29284	0.3883	-0.122
Mof_C 	C 	0.1065	0.6732	0.2244	-0.126
Mof_C 	C 	0.104	0.6384	0.1636	0.05
Mof_C 	C 	0.20622	0.55926	0.1433	-0.117
Mof_C 	C 	0.19367	0.53146	0.0742	0.382
Mof_C 	C 	0.3059	0.5082	0.1888	-0.038
Mof_C 	C 	0.4166	0.4166	0.1772	0.327
Mof_C 	C 	0.3057	0.5432	0.2504	-0.056
Mof_C 	C 	0.2105	0.626	0.2656	0.02
Mof_C 	C 	0.5227	0.6318	0.083	0.148
Mof_C 	C 	0.50371	0.71548	0.1031	-0.243
Mof_C 	C 	0.42825	0.8048	0.0627	0.199
Mof_C 	C 	0.3728	0.8059	0.0027	-0.417
Mof_C 	C 	0.3943	0.7192	0.9864	0.319
Mof_C 	C 	0.40766	0.89738	0.0799	0.039
Mof_C 	C 	0.34182	0.04706	0.0789	-0.023
Mof_C 	C 	0.27232	0.15346	0.0593	0.026
Mof_C 	C 	0.22658	0.20364	0.9872	-0.092
Mof_C 	C 	0.15691	0.30218	0.9716	0.108
Mof_C 	C 	0.17505	0.3061	0.092	0.069
Mof_C 	C 	0.24857	0.20716	0.1117	-0.132
Mof_C 	C 	0.9959	0.1732	0.7244	0.212
Mof_C 	C 	0.094	0.1384	0.6636	-0.193
Mof_C 	C 	0.09122	0.05926	0.6433	-0.037
Mof_C 	C 	0.20067	0.03146	0.5742	0.335
Mof_C 	C 	0.9971	0.0082	0.6888	-0.158
Mof_C 	C 	0.9896	0.9166	0.6772	0.478
Mof_C 	C 	0.9007	0.0432	0.7504	0.131
Mof_C 	C 	0.8979	0.126	0.7656	-0.219
Mof_C 	C 	0.7625	0.1318	0.583	0.095
Mof_C 	C 	0.67771	0.21548	0.6031	-0.148
Mof_C 	C 	0.70425	0.3048	0.5627	0.076
Mof_C 	C 	0.8186	0.3059	0.5027	-0.139
Mof_C 	C 	0.9001	0.2192	0.4864	0.095
Mof_C 	C 	0.61506	0.39738	0.5799	0.082
Mof_C 	C 	0.53222	0.54706	0.5789	0.112
Mof_C 	C 	0.51492	0.65346	0.5593	0.052
Mof_C 	C 	0.58258	0.70364	0.4872	-0.12
Mof_C 	C 	0.56931	0.80218	0.4716	0.076
Mof_C 	C 	0.42685	0.8061	0.592	0.085
Mof_C 	C 	0.43257	0.70716	0.6117	-0.114
Mof_C 	C 	0.8935	0.3268	0.7756	0.139
Mof_C 	C 	0.896	0.3616	0.8364	-0.103
Mof_C 	C 	0.79378	0.44074	0.8567	-0.009
Mof_C 	C 	0.80633	0.46854	0.9258	0.338
Mof_C 	C 	0.6941	0.4918	0.8112	-0.111
Mof_C 	C 	0.5834	0.5834	0.8228	0.347
Mof_C 	C 	0.6943	0.4568	0.7496	0.076
Mof_C 	C 	0.7895	0.374	0.7344	-0.162
Mof_C 	C 	0.4773	0.3682	0.917	0.033
Mof_C 	C 	0.49629	0.28452	0.8969	-0.04
Mof_C 	C 	0.57175	0.1952	0.9373	-0.059
Mof_C 	C 	0.6272	0.1941	0.9973	0.158
Mof_C 	C 	0.6057	0.2808	0.0136	-0.156
Mof_C 	C 	0.59234	0.10262	0.9201	0.131
Mof_C 	C 	0.65818	0.95294	0.9211	0.23
Mof_C 	C 	0.72768	0.84654	0.9407	0.073
Mof_C 	C 	0.77342	0.79636	0.0128	-0.149
Mof_C 	C 	0.84309	0.69782	0.0284	0.043
Mof_C 	C 	0.82495	0.6939	0.908	0.095
Mof_C 	C 	0.75143	0.79284	0.8883	-0.104
Mof_C 	C 	0.9864	0.75	0.25	0.279
Mof_C 	C 	0.0136	0.25	0.75	-0.068
Mof_N 	N 	0.12617	0.86796	0.4745	-0.211
Mof_N 	N 	0.36216	0.51278	0.4571	-0.131
Mof_N 	N 	0.49766	0.59798	0.3643	-0.082
Mof_N 	N 	0.55114	0.50172	0.365	-0.172
Mof_N 	N 	0.50543	0.14604	0.4765	-0.245
Mof_N 	N 	0.46863	0.63204	0.0255	-0.293
Mof_N 	N 	0.33204	0.98722	0.0429	-0.079
Mof_N 	N 	0.45994	0.90202	0.1357	-0.075
Mof_N 	N 	0.41786	0.99828	0.135	-0.059
Mof_N 	N 	0.12797	0.35396	0.0235	-0.272
Mof_N 	N 	0.87383	0.13204	0.5255	-0.217
Mof_N 	N 	0.63784	0.48722	0.5429	-0.125
Mof_N 	N 	0.50234	0.40202	0.6357	-0.085
Mof_N 	N 	0.44886	0.49828	0.635	-0.171
Mof_N 	N 	0.49457	0.85396	0.5235	-0.219
Mof_N 	N 	0.53137	0.36796	0.9745	-0.14
Mof_N 	N 	0.66796	0.01278	0.9571	-0.171
Mof_N 	N 	0.54006	0.09798	0.8643	-0.093
Mof_N 	N 	0.58214	0.00172	0.865	-0.274
Mof_N 	N 	0.87203	0.64604	0.9765	-0.192
Mof_O 	O 	0.6826	0.9711	0.4237	-0.402
Mof_O 	O 	0.82839	0.98522	0.4804	-0.368
Mof_O 	O 	0.04259	0.08062	0.3836	-0.397
Mof_O 	O 	0.995	0.159	0.264	-0.174
Mof_O 	O 	0.0774	0.5289	0.0763	-0.46
Mof_O 	O 	0.29401	0.51478	0.0196	-0.445
Mof_O 	O 	0.50681	0.41938	0.1164	-0.403
Mof_O 	O 	0.418	0.341	0.236	-0.254
Mof_O 	O 	0.3174	0.0289	0.5763	-0.447
Mof_O 	O 	0.17161	0.01478	0.5196	-0.453
Mof_O 	O 	0.95741	0.91938	0.6164	-0.378
Mof_O 	O 	0.005	0.841	0.736	-0.309
Mof_O 	O 	0.9226	0.4711	0.9237	-0.384
Mof_O 	O 	0.70599	0.48522	0.9804	-0.381
Mof_O 	O 	0.49319	0.58062	0.8836	-0.385
Mof_O 	O 	0.582	0.659	0.764	-0.241
Mof_O 	O 	0.8709	0.75	0.25	-0.216
Mof_O 	O 	0.1291	0.25	0.75	-0.168
_end
