data_functionalizedCrystal
_audit_creation_method	'EQeq! by Chris Wilmer'
_symmetry_space_group_name_H-M	'P1'
_symmetry_Int_Tables_number	1
_symmetry_cell_setting	triclinic
loop_
_symmetry_equiv_pos_as_xyz
  x,y,z
_cell_length_a	16.894
_cell_length_b	14.014
_cell_length_c	11.0033
_cell_angle_alpha	90
_cell_angle_beta	98.287
_cell_angle_gamma	90
loop_
_atom_site_label
_atom_site_type_symbol
_atom_site_fract_x
_atom_site_fract_y
_atom_site_fract_z
_atom_site_charge
Mof_Co	Co	0.92339	0.9322	0.0059	1.15
Mof_N 	N 	0.8658	0.941	0.1618	-0.206
Mof_N 	N 	0.9051	0.9962	0.2526	-0.174
Mof_N 	N 	0.8734	0.9809	0.358	-0.207
Mof_C 	C 	0.8079	0.8903	0.2106	0.038
Mof_C 	C 	0.8139	0.9154	0.333	0.081
Mof_C 	C 	0.7642	0.8751	0.4085	-0.146
Mof_H 	H 	0.7685	0.8905	0.4914	0.07
Mof_C 	C 	0.7081	0.8114	0.3544	0.039
Mof_H 	H 	0.6714	0.7859	0.401	0.021
Mof_C 	C 	0.7044	0.7839	0.233	-0.088
Mof_C 	C 	0.7556	0.8213	0.16	-0.056
Mof_H 	H 	0.755	0.8008	0.0795	0.061
Mof_C 	C 	0.6379	0.7139	0.1799	0.378
Mof_O 	O 	0.9756	0.0703	0.0663	-0.654
Mof_H 	H 	0.947	0.129	0.048	0.176
Mof_O 	O 	0.6418	0.6826	0.0747	-0.46
Mof_O 	O 	0.5857	0.696	0.2465	-0.452
Mof_Co	Co	0.42339	0.4322	0.0059	1.125
Mof_N 	N 	0.3658	0.441	0.1618	-0.211
Mof_N 	N 	0.4051	0.4962	0.2526	-0.198
Mof_N 	N 	0.3734	0.4809	0.358	-0.216
Mof_C 	C 	0.3079	0.3903	0.2106	0.029
Mof_C 	C 	0.3139	0.4154	0.333	0.079
Mof_C 	C 	0.2642	0.3751	0.4085	-0.155
Mof_H 	H 	0.2685	0.3905	0.4914	0.068
Mof_C 	C 	0.2081	0.3114	0.3544	0.04
Mof_H 	H 	0.1714	0.2859	0.401	0.011
Mof_C 	C 	0.2044	0.2839	0.233	-0.099
Mof_C 	C 	0.2556	0.3213	0.16	-0.057
Mof_H 	H 	0.255	0.3008	0.0795	0.057
Mof_C 	C 	0.1379	0.2139	0.1799	0.377
Mof_O 	O 	0.4756	0.5703	0.0663	-0.722
Mof_H 	H 	0.447	0.629	0.048	0.168
Mof_O 	O 	0.1418	0.1826	0.0747	-0.474
Mof_O 	O 	0.0857	0.196	0.2465	-0.48
Mof_Co	Co	0.07661	0.9322	0.4941	1.102
Mof_N 	N 	0.1342	0.941	0.3382	-0.216
Mof_N 	N 	0.0949	0.9962	0.2474	-0.211
Mof_N 	N 	0.1266	0.9809	0.142	-0.223
Mof_C 	C 	0.1921	0.8903	0.2894	0.028
Mof_C 	C 	0.1861	0.9154	0.167	0.076
Mof_C 	C 	0.2358	0.8751	0.0915	-0.152
Mof_H 	H 	0.2315	0.8905	0.0086	0.07
Mof_C 	C 	0.2919	0.8114	0.1456	0.037
Mof_H 	H 	0.3286	0.7859	0.099	0.02
Mof_C 	C 	0.2956	0.7839	0.267	-0.092
Mof_C 	C 	0.2444	0.8213	0.34	-0.061
Mof_H 	H 	0.245	0.8008	0.4205	0.059
Mof_C 	C 	0.3621	0.7139	0.3201	0.376
Mof_O 	O 	0.0244	0.0703	0.4337	-0.774
Mof_H 	H 	0.053	0.129	0.452	0.162
Mof_O 	O 	0.3582	0.6826	0.4253	-0.461
Mof_O 	O 	0.4143	0.696	0.2535	-0.453
Mof_Co	Co	0.57661	0.4322	0.4941	1.127
Mof_N 	N 	0.6342	0.441	0.3382	-0.211
Mof_N 	N 	0.5949	0.4962	0.2474	-0.197
Mof_N 	N 	0.6266	0.4809	0.142	-0.214
Mof_C 	C 	0.6921	0.3903	0.2894	0.04
Mof_C 	C 	0.6861	0.4154	0.167	0.077
Mof_C 	C 	0.7358	0.3751	0.0915	-0.14
Mof_H 	H 	0.7315	0.3905	0.0086	0.071
Mof_C 	C 	0.7919	0.3114	0.1456	0.033
Mof_H 	H 	0.8286	0.2859	0.099	0.032
Mof_C 	C 	0.7956	0.2839	0.267	-0.077
Mof_C 	C 	0.7444	0.3213	0.34	-0.062
Mof_H 	H 	0.745	0.3008	0.4205	0.066
Mof_C 	C 	0.8621	0.2139	0.3201	0.372
Mof_O 	O 	0.5244	0.5703	0.4337	-0.721
Mof_H 	H 	0.553	0.629	0.452	0.169
Mof_O 	O 	0.8582	0.1826	0.4253	-0.44
Mof_O 	O 	0.9143	0.196	0.2535	-0.408
Mof_Co	Co	0.07661	0.0678	0.9941	1.102
Mof_N 	N 	0.1342	0.059	0.8382	-0.216
Mof_N 	N 	0.0949	0.0038	0.7474	-0.211
Mof_N 	N 	0.1266	0.0191	0.642	-0.223
Mof_C 	C 	0.1921	0.1097	0.7894	0.028
Mof_C 	C 	0.1861	0.0846	0.667	0.076
Mof_C 	C 	0.2358	0.1249	0.5915	-0.151
Mof_H 	H 	0.2315	0.1095	0.5086	0.071
Mof_C 	C 	0.2919	0.1886	0.6456	0.037
Mof_H 	H 	0.3286	0.2141	0.599	0.021
Mof_C 	C 	0.2956	0.2161	0.767	-0.092
Mof_C 	C 	0.2444	0.1787	0.84	-0.061
Mof_H 	H 	0.245	0.1992	0.9205	0.059
Mof_C 	C 	0.3621	0.2861	0.8201	0.376
Mof_O 	O 	0.0244	0.9297	0.9337	-0.771
Mof_H 	H 	0.053	0.871	0.952	0.163
Mof_O 	O 	0.3582	0.3174	0.9253	-0.46
Mof_O 	O 	0.4143	0.304	0.7535	-0.453
Mof_Co	Co	0.57661	0.5678	0.9941	1.129
Mof_N 	N 	0.6342	0.559	0.8382	-0.21
Mof_N 	N 	0.5949	0.5038	0.7474	-0.197
Mof_N 	N 	0.6266	0.5191	0.642	-0.214
Mof_C 	C 	0.6921	0.6097	0.7894	0.041
Mof_C 	C 	0.6861	0.5846	0.667	0.077
Mof_C 	C 	0.7358	0.6249	0.5915	-0.139
Mof_H 	H 	0.7315	0.6095	0.5086	0.072
Mof_C 	C 	0.7919	0.6886	0.6456	0.033
Mof_H 	H 	0.8286	0.7141	0.599	0.033
Mof_C 	C 	0.7956	0.7161	0.767	-0.075
Mof_C 	C 	0.7444	0.6787	0.84	-0.063
Mof_H 	H 	0.745	0.6992	0.9205	0.068
Mof_C 	C 	0.8621	0.7861	0.8201	0.371
Mof_O 	O 	0.5244	0.4297	0.9337	-0.72
Mof_H 	H 	0.553	0.371	0.952	0.169
Mof_O 	O 	0.8582	0.8174	0.9253	-0.437
Mof_O 	O 	0.9143	0.804	0.7535	-0.406
Mof_Co	Co	0.92339	0.0678	0.5059	1.153
Mof_N 	N 	0.8658	0.059	0.6618	-0.205
Mof_N 	N 	0.9051	0.0038	0.7526	-0.174
Mof_N 	N 	0.8734	0.0191	0.858	-0.206
Mof_C 	C 	0.8079	0.1097	0.7106	0.039
Mof_C 	C 	0.8139	0.0846	0.833	0.081
Mof_C 	C 	0.7642	0.1249	0.9085	-0.145
Mof_H 	H 	0.7685	0.1095	0.9914	0.071
Mof_C 	C 	0.7081	0.1886	0.8544	0.039
Mof_H 	H 	0.6714	0.2141	0.901	0.022
Mof_C 	C 	0.7044	0.2161	0.733	-0.087
Mof_C 	C 	0.7556	0.1787	0.66	-0.056
Mof_H 	H 	0.755	0.1992	0.5795	0.063
Mof_C 	C 	0.6379	0.2861	0.6799	0.377
Mof_O 	O 	0.9756	0.9297	0.5663	-0.653
Mof_H 	H 	0.947	0.871	0.548	0.176
Mof_O 	O 	0.6418	0.3174	0.5747	-0.458
Mof_O 	O 	0.5857	0.304	0.7465	-0.452
Mof_Co	Co	0.42339	0.5678	0.5059	1.126
Mof_N 	N 	0.3658	0.559	0.6618	-0.211
Mof_N 	N 	0.4051	0.5038	0.7526	-0.198
Mof_N 	N 	0.3734	0.5191	0.858	-0.216
Mof_C 	C 	0.3079	0.6097	0.7106	0.029
Mof_C 	C 	0.3139	0.5846	0.833	0.079
Mof_C 	C 	0.2642	0.6249	0.9085	-0.155
Mof_H 	H 	0.2685	0.6095	0.9914	0.069
Mof_C 	C 	0.2081	0.6886	0.8544	0.04
Mof_H 	H 	0.1714	0.7141	0.901	0.011
Mof_C 	C 	0.2044	0.7161	0.733	-0.099
Mof_C 	C 	0.2556	0.6787	0.66	-0.057
Mof_H 	H 	0.255	0.6992	0.5795	0.057
Mof_C 	C 	0.1379	0.7861	0.6799	0.377
Mof_O 	O 	0.4756	0.4297	0.5663	-0.721
Mof_H 	H 	0.447	0.371	0.548	0.168
Mof_O 	O 	0.1418	0.8174	0.5747	-0.475
Mof_O 	O 	0.0857	0.804	0.7465	-0.48
Mof_Co	Co	6.98503e-34	0.0914	0.25	1.108
Mof_Co	Co	0.5	0.5914	0.25	1.156
Mof_Co	Co	2.20506e-17	0.9086	0.75	1.107
Mof_Co	Co	0.5	0.4086	0.75	1.156
_end
