# CIF file generated by openbabel 3.1.0, see https://openbabel.org
data_I
_chemical_name_common 'image0'
_cell_length_a 8.5989
_cell_length_b 17.044
_cell_length_c 10.165
_cell_angle_alpha 90
_cell_angle_beta 108.434
_cell_angle_gamma 90
_space_group_name_H-M_alt 'P 1'
_space_group_name_Hall 'P 1'
loop_
    _symmetry_equiv_pos_as_xyz
    x,y,z
loop_
    _atom_site_label
    _atom_site_type_symbol
    _atom_site_fract_x
    _atom_site_fract_y
    _atom_site_fract_z
    _atom_site_occupancy
    Zn1      Zn       0.10572    0.17166    0.92118    1.000
    Zn2      Zn       0.12258    0.83164    0.82182    1.000
    P1       P        0.24102    0.99648    0.99165    1.000
    P2       P        0.76414    0.24774    0.89456    1.000
    P3       P        0.22444    0.26095    0.71489    1.000
    O1       O        0.27500    0.95690    0.13690    1.000
    H1       H        0.22690    0.91470    0.12770    1.000
    O2       O        0.18780    0.93790    0.87600    1.000
    O3       O        0.12450    0.06380    0.97540    1.000
    O4       O        0.81720    0.32653    0.84980    1.000
    O5       O        0.86580    0.18014    0.86330    1.000
    O6       O        0.77300    0.24960    0.04670    1.000
    O7       O        0.11380    0.32357    0.74370    1.000
    O8       O        0.18810    0.17902    0.76270    1.000
    O9       O        0.21570    0.25460    0.56330    1.000
    C1       C        0.43740    0.03300    0.99700    1.000
    H2       H        0.42540    0.06500    0.91540    1.000
    H3       H        0.47930    0.06640    0.07780    1.000
    C2       C        0.55580    0.22880    0.79130    1.000
    H4       H        0.54860    0.23060    0.69420    1.000
    H5       H        0.52680    0.17610    0.81110    1.000
    C3       C        0.43030    0.28610    0.81500    1.000
    H6       H        0.45460    0.33870    0.79020    1.000
    H7       H        0.43970    0.28630    0.91260    1.000
    Zn3      Zn       0.89428    0.67166    0.57882    1.000
    Zn4      Zn       0.87742    0.33164    0.67818    1.000
    P4       P        0.75898    0.49648    0.50835    1.000
    P5       P        0.23586    0.74774    0.60544    1.000
    P6       P        0.77556    0.76095    0.78511    1.000
    O10      O        0.72500    0.45690    0.36310    1.000
    H8       H        0.77310    0.41470    0.37230    1.000
    O11      O        0.81220    0.43790    0.62400    1.000
    O12      O        0.87550    0.56380    0.52460    1.000
    O13      O        0.18280    0.82653    0.65020    1.000
    O14      O        0.13420    0.68014    0.63670    1.000
    O15      O        0.22700    0.74960    0.45330    1.000
    O16      O        0.88620    0.82357    0.75630    1.000
    O17      O        0.81190    0.67902    0.73730    1.000
    O18      O        0.78430    0.75460    0.93670    1.000
    C4       C        0.56260    0.53300    0.50300    1.000
    H9       H        0.57460    0.56500    0.58460    1.000
    H10      H        0.52070    0.56640    0.42220    1.000
    C5       C        0.44420    0.72880    0.70870    1.000
    H11      H        0.45140    0.73060    0.80580    1.000
    H12      H        0.47320    0.67610    0.68890    1.000
    C6       C        0.56970    0.78610    0.68500    1.000
    H13      H        0.54540    0.83870    0.70980    1.000
    H14      H        0.56030    0.78630    0.58740    1.000
    Zn5      Zn       0.89428    0.82834    0.07882    1.000
    Zn6      Zn       0.87742    0.16836    0.17818    1.000
    P7       P        0.75898    0.00352    0.00835    1.000
    P8       P        0.23586    0.75226    0.10544    1.000
    P9       P        0.77556    0.73905    0.28511    1.000
    O19      O        0.72500    0.04310    0.86310    1.000
    H15      H        0.77310    0.08530    0.87230    1.000
    O20      O        0.81220    0.06210    0.12400    1.000
    O21      O        0.87550    0.93620    0.02460    1.000
    O22      O        0.18280    0.67347    0.15020    1.000
    O23      O        0.13420    0.81986    0.13670    1.000
    O24      O        0.22700    0.75040    0.95330    1.000
    O25      O        0.88620    0.67643    0.25630    1.000
    O26      O        0.81190    0.82098    0.23730    1.000
    O27      O        0.78430    0.74540    0.43670    1.000
    C7       C        0.56260    0.96700    0.00300    1.000
    H16      H        0.57460    0.93500    0.08460    1.000
    H17      H        0.52070    0.93360    0.92220    1.000
    C8       C        0.44420    0.77120    0.20870    1.000
    H18      H        0.45140    0.76940    0.30580    1.000
    H19      H        0.47320    0.82390    0.18890    1.000
    C9       C        0.56970    0.71390    0.18500    1.000
    H20      H        0.54540    0.66130    0.20980    1.000
    H21      H        0.56030    0.71370    0.08740    1.000
    Zn7      Zn       0.10572    0.32834    0.42118    1.000
    Zn8      Zn       0.12258    0.66836    0.32182    1.000
    P10      P        0.24102    0.50352    0.49165    1.000
    P11      P        0.76414    0.25226    0.39456    1.000
    P12      P        0.22444    0.23905    0.21489    1.000
    O28      O        0.27500    0.54310    0.63690    1.000
    H22      H        0.22690    0.58530    0.62770    1.000
    O29      O        0.18780    0.56210    0.37600    1.000
    O30      O        0.12450    0.43620    0.47540    1.000
    O31      O        0.81720    0.17347    0.34980    1.000
    O32      O        0.86580    0.31986    0.36330    1.000
    O33      O        0.77300    0.25040    0.54670    1.000
    O34      O        0.11380    0.17643    0.24370    1.000
    O35      O        0.18810    0.32098    0.26270    1.000
    O36      O        0.21570    0.24540    0.06330    1.000
    C10      C        0.43740    0.46700    0.49700    1.000
    H23      H        0.42540    0.43500    0.41540    1.000
    H24      H        0.47930    0.43360    0.57780    1.000
    C11      C        0.55580    0.27120    0.29130    1.000
    H25      H        0.54860    0.26940    0.19420    1.000
    H26      H        0.52680    0.32390    0.31110    1.000
    C12      C        0.43030    0.21390    0.31500    1.000
    H27      H        0.45460    0.16130    0.29020    1.000
    H28      H        0.43970    0.21370    0.41260    1.000
