# CIF file generated by openbabel 3.1.0, see https://openbabel.org
data_I
_chemical_name_common 'image0'
_cell_length_a 7.051
_cell_length_b 14.5981
_cell_length_c 10.6214
_cell_angle_alpha 90
_cell_angle_beta 108.046
_cell_angle_gamma 90
_space_group_name_H-M_alt 'P 1'
_space_group_name_Hall 'P 1'
loop_
    _symmetry_equiv_pos_as_xyz
    x,y,z
loop_
    _atom_site_label
    _atom_site_type_symbol
    _atom_site_fract_x
    _atom_site_fract_y
    _atom_site_fract_z
    _atom_site_occupancy
    La1      La       0.72435    0.61146    0.49874    1.000
    O1       O        0.39420    0.55791    0.54320    1.000
    O2       O        0.08630    0.59213    0.53600    1.000
    O3       O        0.52090    0.72487    0.58830    1.000
    O4       O        0.91490    0.85192    0.80480    1.000
    O5       O        0.90690    0.71960    0.69610    1.000
    C1       C        0.26190    0.61390    0.55060    1.000
    C2       C        0.31630    0.71310    0.57400    1.000
    H1       H        0.23640    0.74940    0.49990    1.000
    H2       H        0.28910    0.73400    0.65340    1.000
    C3       C        0.60670    0.80480    0.66130    1.000
    H3       H        0.54380    0.81710    0.72890    1.000
    H4       H        0.58490    0.85720    0.60250    1.000
    C4       C        0.82650    0.78990    0.72490    1.000
    La2      La       0.77565    0.11146    0.00126    1.000
    O6       O        0.10580    0.05791    0.95680    1.000
    O7       O        0.41370    0.09213    0.96400    1.000
    O8       O        0.97910    0.22487    0.91170    1.000
    O9       O        0.58510    0.35192    0.69520    1.000
    O10      O        0.59310    0.21960    0.80390    1.000
    C5       C        0.23810    0.11390    0.94940    1.000
    C6       C        0.18370    0.21310    0.92600    1.000
    H5       H        0.26360    0.24940    0.00010    1.000
    H6       H        0.21090    0.23400    0.84660    1.000
    C7       C        0.89330    0.30480    0.83870    1.000
    H7       H        0.95620    0.31710    0.77110    1.000
    H8       H        0.91510    0.35720    0.89750    1.000
    C8       C        0.67350    0.28990    0.77510    1.000
    La3      La       0.27565    0.38854    0.50126    1.000
    O11      O        0.60580    0.44209    0.45680    1.000
    O12      O        0.91370    0.40787    0.46400    1.000
    O13      O        0.47910    0.27513    0.41170    1.000
    O14      O        0.08510    0.14808    0.19520    1.000
    O15      O        0.09310    0.28040    0.30390    1.000
    C9       C        0.73810    0.38610    0.44940    1.000
    C10      C        0.68370    0.28690    0.42600    1.000
    H9       H        0.76360    0.25060    0.50010    1.000
    H10      H        0.71090    0.26600    0.34660    1.000
    C11      C        0.39330    0.19520    0.33870    1.000
    H11      H        0.45620    0.18290    0.27110    1.000
    H12      H        0.41510    0.14280    0.39750    1.000
    C12      C        0.17350    0.21010    0.27510    1.000
    La4      La       0.22435    0.88853    0.99874    1.000
    O16      O        0.89420    0.94209    0.04320    1.000
    O17      O        0.58630    0.90787    0.03600    1.000
    O18      O        0.02090    0.77513    0.08830    1.000
    O19      O        0.41490    0.64808    0.30480    1.000
    O20      O        0.40690    0.78040    0.19610    1.000
    C13      C        0.76190    0.88610    0.05060    1.000
    C14      C        0.81630    0.78690    0.07400    1.000
    H13      H        0.73640    0.75060    0.99990    1.000
    H14      H        0.78910    0.76600    0.15340    1.000
    C15      C        0.10670    0.69520    0.16130    1.000
    H15      H        0.04380    0.68290    0.22890    1.000
    H16      H        0.08490    0.64280    0.10250    1.000
    C16      C        0.32650    0.71010    0.22490    1.000
