data_functionalizedCrystal
_audit_creation_method	'EQeq! by Chris Wilmer'
_symmetry_space_group_name_H-M	'P1'
_symmetry_Int_Tables_number	1
_symmetry_cell_setting	triclinic
loop_
_symmetry_equiv_pos_as_xyz
  x,y,z
_cell_length_a	9.3307
_cell_length_b	19.4814
_cell_length_c	19.4814
_cell_angle_alpha	62.4988
_cell_angle_beta	80.8133
_cell_angle_gamma	99.1867
loop_
_atom_site_label
_atom_site_type_symbol
_atom_site_fract_x
_atom_site_fract_y
_atom_site_fract_z
_atom_site_charge
Mof_Mn	Mn	-0	-3.80398e-17	0.5	0.71
Mof_H 	H 	0.5243	0.7768	0.5794	0.064
Mof_H 	H 	0.4359	0.8523	0.6417	0.059
Mof_H 	H 	0.3035	0.8833	0.3532	0.066
Mof_H 	H 	0.0441	0.797	0.4031	0.074
Mof_H 	H 	0.6092	0.9911	0.4193	0.134
Mof_H 	H 	0.8226	0.9962	0.3407	0.02
Mof_H 	H 	0.6518	0.0511	0.1619	-0.006
Mof_H 	H 	0.4254	0.0453	0.235	0.098
Mof_H 	H 	0.8373	0.6877	0.5764	0.109
Mof_H 	H 	0.7345	0.5739	0.5745	-0.013
Mof_H 	H 	0.5582	0.6936	0.4038	-0.016
Mof_H 	H 	0.6548	0.811	0.4006	0.114
Mof_H 	H 	0.4757	0.2232	0.4206	0.058
Mof_H 	H 	0.5641	0.1477	0.3583	0.065
Mof_H 	H 	0.6965	0.1167	0.6468	0.061
Mof_H 	H 	0.9559	0.203	0.5969	0.061
Mof_H 	H 	0.3908	0.0089	0.5807	0.077
Mof_H 	H 	0.1774	0.0038	0.6593	-0.032
Mof_H 	H 	0.3482	0.9489	0.8381	0.008
Mof_H 	H 	0.5746	0.9547	0.765	0.103
Mof_H 	H 	0.1627	0.3123	0.4236	0.095
Mof_H 	H 	0.2655	0.4261	0.4255	-0.015
Mof_H 	H 	0.4418	0.3064	0.5962	-0.014
Mof_H 	H 	0.3452	0.189	0.5994	0.102
Mof_C 	C 	0.26645	0.13483	0.47168	0.099
Mof_C 	C 	0.5802	0.8238	0.5742	-0.094
Mof_C 	C 	0.5313	0.8652	0.6087	-0.078
Mof_C 	C 	0.65554	0.93349	0.58447	0.102
Mof_C 	C 	0.65698	0.98975	0.61151	-0.109
Mof_C 	C 	0.78323	0.04939	0.5978	0.09
Mof_C 	C 	0.2196	0.8892	0.3807	-0.081
Mof_C 	C 	0.0764	0.8415	0.4083	-0.122
Mof_C 	C 	0.98398	0.87298	0.44704	0.156
Mof_C 	C 	0.17117	0.1607	0.51309	-0.128
Mof_C 	C 	0.48923	0.01658	0.33759	0.168
Mof_C 	C 	0.6131	0.0029	0.3669	-0.247
Mof_C 	C 	0.7417	0.0068	0.3189	0.1
Mof_C 	C 	0.642	0.0383	0.2151	0.111
Mof_C 	C 	0.5046	0.0352	0.2585	-0.213
Mof_C 	C 	0.24032	0.2362	0.51194	0.143
Mof_C 	C 	0.219	0.3093	0.4597	-0.203
Mof_C 	C 	0.2815	0.3779	0.4611	0.11
Mof_C 	C 	0.6156	0.6925	0.439	0.128
Mof_C 	C 	0.6736	0.7638	0.4365	-0.216
Mof_C 	C 	0.73355	0.86517	0.52832	0.12
Mof_C 	C 	0.4198	0.1762	0.4258	-0.079
Mof_C 	C 	0.4687	0.1348	0.3913	-0.097
Mof_C 	C 	0.34446	0.06651	0.41553	0.118
Mof_C 	C 	0.34302	0.01025	0.38849	-0.177
Mof_C 	C 	0.21677	0.95061	0.4022	0.14
Mof_C 	C 	0.7804	0.1108	0.6193	-0.092
Mof_C 	C 	0.9236	0.1585	0.5917	-0.046
Mof_C 	C 	0.01602	0.12702	0.55296	0.063
Mof_C 	C 	0.82883	0.8393	0.48691	-0.156
Mof_C 	C 	0.51077	0.98342	0.66241	0.134
Mof_C 	C 	0.3869	0.9971	0.6331	-0.172
Mof_C 	C 	0.2583	0.9932	0.6811	0.142
Mof_C 	C 	0.358	0.9617	0.7849	0.104
Mof_C 	C 	0.4954	0.9648	0.7415	-0.186
Mof_C 	C 	0.75968	0.7638	0.48806	0.167
Mof_C 	C 	0.781	0.6907	0.5403	-0.213
Mof_C 	C 	0.7185	0.6221	0.5389	0.121
Mof_C 	C 	0.3844	0.3075	0.561	0.117
Mof_C 	C 	0.3264	0.2362	0.5635	-0.202
Mof_N 	N 	0.22436	0.0672	0.46552	-0.215
Mof_N 	N 	0.9276	0.05994	0.55894	-0.191
Mof_N 	N 	0.7583	0.0245	0.2439	-0.148
Mof_N 	N 	0.36327	0.37752	0.51151	-0.196
Mof_N 	N 	0.77564	0.9328	0.53448	-0.202
Mof_N 	N 	0.0724	0.94006	0.44106	-0.224
Mof_N 	N 	0.2417	0.9755	0.7561	-0.149
Mof_N 	N 	0.63673	0.62248	0.48849	-0.198
Mof_Mn	Mn	0.5	0.5	0.5	0.773
Mof_H 	H 	0.1037	0.5794	0.6438	0.056
Mof_H 	H 	0.0776	0.6417	0.506	0.059
Mof_H 	H 	0.6567	0.3532	0.7635	0.064
Mof_H 	H 	0.4472	0.4031	0.7999	0.069
Mof_H 	H 	0.0285	0.4193	0.5896	0.051
Mof_H 	H 	0.1633	0.3407	0.6631	0.02
Mof_H 	H 	0.8137	0.1619	0.787	0.001
Mof_H 	H 	0.6604	0.235	0.7197	0.092
Mof_H 	H 	0.4137	0.5764	0.7359	0.098
Mof_H 	H 	0.309	0.5745	0.8516	-0.008
Mof_H 	H 	0.962	0.4038	0.9026	0.024
Mof_H 	H 	0.0554	0.4006	0.7884	0.092
Mof_H 	H 	0.8963	0.4206	0.3562	0.067
Mof_H 	H 	0.9224	0.3583	0.494	0.065
Mof_H 	H 	0.3433	0.6468	0.2365	0.062
Mof_H 	H 	0.5528	0.5969	0.2001	0.069
Mof_H 	H 	0.9715	0.5807	0.4104	0.159
Mof_H 	H 	0.8367	0.6593	0.3369	-0.031
Mof_H 	H 	0.1863	0.8381	0.213	0.001
Mof_H 	H 	0.3396	0.765	0.2803	0.109
Mof_H 	H 	0.5863	0.4236	0.2641	0.106
Mof_H 	H 	0.691	0.4255	0.1484	-0.017
Mof_H 	H 	0.038	0.5962	0.0974	-0.053
Mof_H 	H 	0.9446	0.5994	0.2116	0.125
Mof_C 	C 	0.73813	0.47168	0.39349	0.114
Mof_C 	C 	0.1544	0.5742	0.602	-0.084
Mof_C 	C 	0.14	0.6087	0.5261	-0.095
Mof_C 	C 	0.24001	0.58447	0.48204	0.115
Mof_C 	C 	0.26849	0.61151	0.39874	-0.162
Mof_C 	C 	0.38103	0.5978	0.35281	0.119
Mof_C 	C 	0.6003	0.3807	0.7301	-0.082
Mof_C 	C 	0.4847	0.4083	0.7502	-0.088
Mof_C 	C 	0.43102	0.44704	0.67998	0.111
Mof_C 	C 	0.68426	0.51309	0.32621	-0.151
Mof_C 	C 	0.82682	0.33759	0.64583	0.108
Mof_C 	C 	0.98	0.3669	0.6302	-0.095
Mof_C 	C 	0.0606	0.3189	0.6743	0.039
Mof_C 	C 	0.8571	0.2151	0.7466	0.116
Mof_C 	C 	0.7631	0.2585	0.7063	-0.178
Mof_C 	C 	0.75226	0.51194	0.25186	0.173
Mof_C 	C 	0.6787	0.4597	0.231	-0.22
Mof_C 	C 	0.7426	0.4611	0.161	0.123
Mof_C 	C 	0.0546	0.439	0.8685	0.068
Mof_C 	C 	0.1101	0.4365	0.7997	-0.178
Mof_C 	C 	0.26187	0.52832	0.60651	0.106
Mof_C 	C 	0.8456	0.4258	0.398	-0.09
Mof_C 	C 	0.86	0.3913	0.4739	-0.08
Mof_C 	C 	0.75999	0.41553	0.51796	0.104
Mof_C 	C 	0.73151	0.38849	0.60126	-0.124
Mof_C 	C 	0.61897	0.4022	0.64719	0.108
Mof_C 	C 	0.3997	0.6193	0.2699	-0.088
Mof_C 	C 	0.5153	0.5917	0.2498	-0.088
Mof_C 	C 	0.56898	0.55296	0.32002	0.115
Mof_C 	C 	0.31574	0.48691	0.67379	-0.14
Mof_C 	C 	0.17318	0.66241	0.35417	0.194
Mof_C 	C 	0.02	0.6331	0.3698	-0.322
Mof_C 	C 	0.9394	0.6811	0.3257	0.198
Mof_C 	C 	0.1429	0.7849	0.2534	0.1
Mof_C 	C 	0.2369	0.7415	0.2937	-0.221
Mof_C 	C 	0.24774	0.48806	0.74814	0.14
Mof_C 	C 	0.3213	0.5403	0.769	-0.196
Mof_C 	C 	0.2574	0.5389	0.839	0.107
Mof_C 	C 	0.9454	0.561	0.1315	0.18
Mof_C 	C 	0.8899	0.5635	0.2003	-0.242
Mof_N 	N 	0.68988	0.46552	0.46728	-0.215
Mof_N 	N 	0.48654	0.55894	0.38112	-0.217
Mof_N 	N 	0.0022	0.2439	0.7316	-0.148
Mof_N 	N 	0.87478	0.51151	0.11097	-0.203
Mof_N 	N 	0.31012	0.53448	0.53272	-0.216
Mof_N 	N 	0.51346	0.44106	0.61888	-0.216
Mof_N 	N 	0.9978	0.7561	0.2684	-0.15
Mof_N 	N 	0.12522	0.48849	0.88903	-0.181
Mof_Mn	Mn	-0	0.5	-0	0.71
Mof_H 	H 	0.7475	0.6438	0.7768	0.064
Mof_H 	H 	0.5836	0.506	0.8523	0.06
Mof_H 	H 	0.4202	0.7635	0.8833	0.076
Mof_H 	H 	0.2471	0.7999	0.797	0.06
Mof_H 	H 	0.6181	0.5896	0.9911	0.137
Mof_H 	H 	0.8264	0.6631	0.9962	0.022
Mof_H 	H 	0.6007	0.787	0.0511	-0.001
Mof_H 	H 	0.3801	0.7197	0.0453	0.101
Mof_H 	H 	0.1496	0.7359	0.6877	0.114
Mof_H 	H 	0.1606	0.8516	0.5739	-0.019
Mof_H 	H 	0.8646	0.9026	0.6936	-0.019
Mof_H 	H 	0.8438	0.7884	0.811	0.123
Mof_H 	H 	0.2525	0.3562	0.2232	0.059
Mof_H 	H 	0.4164	0.494	0.1477	0.063
Mof_H 	H 	0.5798	0.2365	0.1167	0.049
Mof_H 	H 	0.7529	0.2001	0.203	0.078
Mof_H 	H 	0.3819	0.4104	0.0089	0.075
Mof_H 	H 	0.1736	0.3369	0.0038	-0.034
Mof_H 	H 	0.3993	0.213	0.9489	0.003
Mof_H 	H 	0.6199	0.2803	0.9547	0.101
Mof_H 	H 	0.8504	0.2641	0.3123	0.088
Mof_H 	H 	0.8394	0.1484	0.4261	-0.005
Mof_H 	H 	0.1354	0.0974	0.3064	-0.006
Mof_H 	H 	0.1562	0.2116	0.189	0.09
Mof_C 	C 	0.13162	0.39349	0.13483	0.108
Mof_C 	C 	0.7564	0.602	0.8238	-0.088
Mof_C 	C 	0.6661	0.5261	0.8652	-0.079
Mof_C 	C 	0.72205	0.48204	0.93349	0.101
Mof_C 	C 	0.66723	0.39874	0.98975	-0.102
Mof_C 	C 	0.73384	0.35281	0.04939	0.077
Mof_C 	C 	0.3304	0.7301	0.8892	-0.106
Mof_C 	C 	0.2349	0.7502	0.8415	-0.069
Mof_C 	C 	0.111	0.67998	0.87298	0.089
Mof_C 	C 	0.01047	0.32621	0.1607	-0.161
Mof_C 	C 	0.47265	0.64583	0.01658	0.171
Mof_C 	C 	0.6102	0.6302	0.0029	-0.25
Mof_C 	C 	0.7349	0.6743	0.0068	0.098
Mof_C 	C 	0.6037	0.7466	0.0383	0.112
Mof_C 	C 	0.4694	0.7063	0.0352	-0.214
Mof_C 	C 	0.00412	0.25186	0.2362	0.11
Mof_C 	C 	0.9097	0.231	0.3093	-0.153
Mof_C 	C 	0.9036	0.161	0.3779	0.093
Mof_C 	C 	0.9231	0.8685	0.6925	0.162
Mof_C 	C 	0.9098	0.7997	0.7638	-0.235
Mof_C 	C 	0.86838	0.60651	0.86517	0.111
Mof_C 	C 	0.2436	0.398	0.1762	-0.087
Mof_C 	C 	0.3339	0.4739	0.1348	-0.096
Mof_C 	C 	0.27795	0.51796	0.06651	0.118
Mof_C 	C 	0.33277	0.60126	0.01025	-0.181
Mof_C 	C 	0.26616	0.64719	0.95061	0.151
Mof_C 	C 	0.6696	0.2699	0.1108	-0.063
Mof_C 	C 	0.7651	0.2498	0.1585	-0.107
Mof_C 	C 	0.889	0.32002	0.12702	0.141
Mof_C 	C 	0.98953	0.67379	0.8393	-0.127
Mof_C 	C 	0.52735	0.35417	0.98342	0.131
Mof_C 	C 	0.3898	0.3698	0.9971	-0.168
Mof_C 	C 	0.2651	0.3257	0.9932	0.143
Mof_C 	C 	0.3963	0.2534	0.9617	0.103
Mof_C 	C 	0.5306	0.2937	0.9648	-0.185
Mof_C 	C 	0.99588	0.74814	0.7638	0.193
Mof_C 	C 	0.0903	0.769	0.6907	-0.252
Mof_C 	C 	0.0964	0.839	0.6221	0.132
Mof_C 	C 	0.0769	0.1315	0.3075	0.074
Mof_C 	C 	0.0902	0.2003	0.2362	-0.176
Mof_N 	N 	0.15716	0.46728	0.0672	-0.218
Mof_N 	N 	0.86766	0.38112	0.05994	-0.207
Mof_N 	N 	0.7338	0.7316	0.0245	-0.147
Mof_N 	N 	0.98575	0.11097	0.37752	-0.17
Mof_N 	N 	0.84284	0.53272	0.9328	-0.198
Mof_N 	N 	0.13234	0.61888	0.94006	-0.21
Mof_N 	N 	0.2662	0.2684	0.9755	-0.151
Mof_N 	N 	0.01425	0.88903	0.62248	-0.209
_end
