data_functionalizedCrystal
_audit_creation_method	'EQeq! by Chris Wilmer'
_symmetry_space_group_name_H-M	'P1'
_symmetry_Int_Tables_number	1
_symmetry_cell_setting	triclinic
loop_
_symmetry_equiv_pos_as_xyz
  x,y,z
_cell_length_a	15.778
_cell_length_b	19.446
_cell_length_c	25.677
_cell_angle_alpha	90
_cell_angle_beta	90
_cell_angle_gamma	90
loop_
_atom_site_label
_atom_site_type_symbol
_atom_site_fract_x
_atom_site_fract_y
_atom_site_fract_z
_atom_site_charge
Mof_Cu	Cu	0.49064	0.75597	0.99637	0.852
Mof_Cu	Cu	0.99064	0.74403	0.50363	0.852
Mof_Cu	Cu	0.00936	0.24403	0.99637	0.852
Mof_Cu	Cu	0.50936	0.25597	0.50363	0.852
Mof_H 	H 	0.8174	0.9045	0.2476	0.044
Mof_H 	H 	0.8423	0.967	0.201	0.06
Mof_H 	H 	0.7549	0.8944	0.036	0.048
Mof_H 	H 	0.6557	0.828	0.9827	0.005
Mof_H 	H 	0.4975	0.7963	0.1109	0.019
Mof_H 	H 	0.5964	0.8563	0.168	0.066
Mof_H 	H 	0.7929	0.0778	0.3113	0.043
Mof_H 	H 	0.8707	0.0505	0.2671	0.051
Mof_H 	H 	0.812	0.9007	0.3929	0.053
Mof_H 	H 	0.8422	0.8106	0.456	-0.001
Mof_H 	H 	0.1011	0.846	0.445	0.002
Mof_H 	H 	0.0781	0.9392	0.3847	0.061
Mof_H 	H 	0.6418	0.0681	0.7734	0.049
Mof_H 	H 	0.7172	0.0732	0.8234	0.044
Mof_H 	H 	0.4766	0.008	0.9417	0.053
Mof_H 	H 	0.438	0.908	0.9954	0.009
Mof_H 	H 	0.5527	0.7745	0.8897	0.002
Mof_H 	H 	0.5978	0.8709	0.836	0.053
Mof_H 	H 	0.6505	0.9716	0.7099	0.056
Mof_H 	H 	0.6778	0.9073	0.7548	0.048
Mof_H 	H 	0.8986	0.9083	0.6483	0.073
Mof_H 	H 	0.9943	0.8646	0.5824	0.002
Mof_H 	H 	0.815	0.7231	0.5348	-0.005
Mof_H 	H 	0.7168	0.7595	0.6022	0.057
Mof_H 	H 	0.3174	0.5955	0.2524	0.043
Mof_H 	H 	0.3423	0.533	0.299	0.059
Mof_H 	H 	0.2549	0.6056	0.464	0.047
Mof_H 	H 	0.1557	0.672	0.5173	0.003
Mof_H 	H 	0.9975	0.7037	0.3891	0.017
Mof_H 	H 	0.0964	0.6437	0.332	0.065
Mof_H 	H 	0.2929	0.4222	0.1887	0.042
Mof_H 	H 	0.3707	0.4495	0.2329	0.049
Mof_H 	H 	0.312	0.5993	0.1071	0.052
Mof_H 	H 	0.3422	0.6894	0.044	-0.002
Mof_H 	H 	0.6011	0.654	0.055	0.001
Mof_H 	H 	0.5781	0.5608	0.1153	0.06
Mof_H 	H 	0.1418	0.4319	0.7266	0.048
Mof_H 	H 	0.2172	0.4268	0.6766	0.043
Mof_H 	H 	0.9766	0.492	0.5583	0.052
Mof_H 	H 	0.938	0.592	0.5046	0.007
Mof_H 	H 	0.0527	0.7255	0.6103	0.001
Mof_H 	H 	0.0978	0.6291	0.664	0.053
Mof_H 	H 	0.1505	0.5284	0.7901	0.056
Mof_H 	H 	0.1778	0.5927	0.7452	0.047
Mof_H 	H 	0.3986	0.5917	0.8517	0.073
Mof_H 	H 	0.4943	0.6354	0.9176	0.003
Mof_H 	H 	0.315	0.7769	0.9652	-0.005
Mof_H 	H 	0.2168	0.7405	0.8978	0.057
Mof_H 	H 	0.6826	0.0955	0.2476	0.044
Mof_H 	H 	0.6577	0.033	0.201	0.06
Mof_H 	H 	0.7451	0.1056	0.036	0.047
Mof_H 	H 	0.8443	0.172	0.9827	0.004
Mof_H 	H 	0.0025	0.2037	0.1109	0.017
Mof_H 	H 	0.9036	0.1437	0.168	0.065
Mof_H 	H 	0.7071	0.9222	0.3113	0.042
Mof_H 	H 	0.6293	0.9495	0.2671	0.05
Mof_H 	H 	0.688	0.0993	0.3929	0.052
Mof_H 	H 	0.6578	0.1894	0.456	-0.002
Mof_H 	H 	0.3989	0.154	0.445	0.001
Mof_H 	H 	0.4219	0.0608	0.3847	0.06
Mof_H 	H 	0.8582	0.9319	0.7734	0.049
Mof_H 	H 	0.7828	0.9268	0.8234	0.044
Mof_H 	H 	0.0234	0.992	0.9417	0.054
Mof_H 	H 	0.062	0.092	0.9954	0.007
Mof_H 	H 	0.9473	0.2255	0.8897	0.001
Mof_H 	H 	0.9022	0.1291	0.836	0.054
Mof_H 	H 	0.8495	0.0284	0.7099	0.057
Mof_H 	H 	0.8222	0.0927	0.7548	0.048
Mof_H 	H 	0.6014	0.0917	0.6483	0.073
Mof_H 	H 	0.5057	0.1354	0.5824	0.002
Mof_H 	H 	0.685	0.2769	0.5348	-0.005
Mof_H 	H 	0.7832	0.2405	0.6022	0.057
Mof_H 	H 	0.1826	0.4045	0.2524	0.043
Mof_H 	H 	0.1577	0.467	0.299	0.059
Mof_H 	H 	0.2451	0.3944	0.464	0.047
Mof_H 	H 	0.3443	0.328	0.5173	0.003
Mof_H 	H 	0.5025	0.2963	0.3891	0.018
Mof_H 	H 	0.4036	0.3563	0.332	0.065
Mof_H 	H 	0.2071	0.5778	0.1887	0.042
Mof_H 	H 	0.1293	0.5505	0.2329	0.05
Mof_H 	H 	0.188	0.4007	0.1071	0.052
Mof_H 	H 	0.1578	0.3106	0.044	-0.002
Mof_H 	H 	0.8989	0.346	0.055	0.001
Mof_H 	H 	0.9219	0.4392	0.1153	0.06
Mof_H 	H 	0.3582	0.5681	0.7266	0.048
Mof_H 	H 	0.2828	0.5732	0.6766	0.043
Mof_H 	H 	0.5234	0.508	0.5583	0.052
Mof_H 	H 	0.562	0.408	0.5046	0.007
Mof_H 	H 	0.4473	0.2745	0.6103	0.001
Mof_H 	H 	0.4022	0.3709	0.664	0.053
Mof_H 	H 	0.3495	0.4716	0.7901	0.056
Mof_H 	H 	0.3222	0.4073	0.7452	0.047
Mof_H 	H 	0.1014	0.4083	0.8517	0.073
Mof_H 	H 	0.0057	0.3646	0.9176	0.002
Mof_H 	H 	0.185	0.2231	0.9652	-0.005
Mof_H 	H 	0.2832	0.2595	0.8978	0.057
Mof_C 	C 	0.7913	0.9447	0.2233	0.041
Mof_C 	C 	0.7503	0.9119	0.1382	0.298
Mof_C 	C 	0.6836	0.878	0.107	-0.047
Mof_C 	C 	0.6995	0.8713	0.0534	-0.034
Mof_C 	C 	0.6431	0.8348	0.0237	0.017
Mof_C 	C 	0.5556	0.8164	0.0948	0.039
Mof_C 	C 	0.6107	0.8508	0.1271	-0.023
Mof_C 	C 	0.8185	0.0337	0.2911	0.049
Mof_C 	C 	0.9275	0.9823	0.3431	0.286
Mof_C 	C 	0.9432	0.9261	0.3821	-0.04
Mof_C 	C 	0.8767	0.8894	0.4038	-0.036
Mof_C 	C 	0.8941	0.839	0.4389	0.023
Mof_C 	C 	0.0371	0.8584	0.4335	0.048
Mof_C 	C 	0.0246	0.9102	0.3991	-0.038
Mof_C 	C 	0.685	0.0386	0.7971	0.055
Mof_C 	C 	0.5804	0.0062	0.857	0.321
Mof_C 	C 	0.5462	0.9469	0.8869	-0.053
Mof_C 	C 	0.4971	0.957	0.9308	-0.023
Mof_C 	C 	0.4748	0.9007	0.9603	0.035
Mof_C 	C 	0.539	0.8264	0.902	0.027
Mof_C 	C 	0.5639	0.8803	0.8719	-0.025
Mof_C 	C 	0.7027	0.9475	0.7301	0.044
Mof_C 	C 	0.734	0.8659	0.6664	0.28
Mof_C 	C 	0.7987	0.8391	0.629	-0.031
Mof_C 	C 	0.8785	0.8667	0.6234	-0.048
Mof_C 	C 	0.9323	0.8416	0.5864	0.046
Mof_C 	C 	0.8338	0.7637	0.561	0.035
Mof_C 	C 	0.7772	0.785	0.5978	-0.046
Mof_C 	C 	0.2913	0.5553	0.2767	0.043
Mof_C 	C 	0.2503	0.5881	0.3618	0.298
Mof_C 	C 	0.1836	0.622	0.393	-0.046
Mof_C 	C 	0.1995	0.6287	0.4466	-0.034
Mof_C 	C 	0.1431	0.6652	0.4763	0.018
Mof_C 	C 	0.0556	0.6836	0.4052	0.04
Mof_C 	C 	0.1107	0.6492	0.3729	-0.024
Mof_C 	C 	0.3185	0.4663	0.2089	0.049
Mof_C 	C 	0.4275	0.5177	0.1569	0.289
Mof_C 	C 	0.4432	0.5739	0.1179	-0.039
Mof_C 	C 	0.3767	0.6106	0.0962	-0.036
Mof_C 	C 	0.3941	0.661	0.0611	0.024
Mof_C 	C 	0.5371	0.6416	0.0665	0.047
Mof_C 	C 	0.5246	0.5898	0.1009	-0.04
Mof_C 	C 	0.185	0.4614	0.7029	0.055
Mof_C 	C 	0.0804	0.4938	0.643	0.318
Mof_C 	C 	0.0462	0.5531	0.6131	-0.051
Mof_C 	C 	0.9971	0.543	0.5692	-0.023
Mof_C 	C 	0.9748	0.5993	0.5397	0.035
Mof_C 	C 	0.039	0.6736	0.598	0.028
Mof_C 	C 	0.0639	0.6197	0.6281	-0.026
Mof_C 	C 	0.2027	0.5525	0.7699	0.046
Mof_C 	C 	0.234	0.6341	0.8336	0.28
Mof_C 	C 	0.2987	0.6609	0.871	-0.031
Mof_C 	C 	0.3785	0.6333	0.8766	-0.048
Mof_C 	C 	0.4323	0.6584	0.9136	0.047
Mof_C 	C 	0.3338	0.7363	0.939	0.035
Mof_C 	C 	0.2772	0.715	0.9022	-0.046
Mof_C 	C 	0.7087	0.0553	0.2233	0.042
Mof_C 	C 	0.7497	0.0881	0.1382	0.299
Mof_C 	C 	0.8164	0.122	0.107	-0.046
Mof_C 	C 	0.8005	0.1287	0.0534	-0.033
Mof_C 	C 	0.8569	0.1652	0.0237	0.017
Mof_C 	C 	0.9444	0.1836	0.0948	0.039
Mof_C 	C 	0.8893	0.1492	0.1271	-0.023
Mof_C 	C 	0.6815	0.9663	0.2911	0.046
Mof_C 	C 	0.5725	0.0177	0.3431	0.29
Mof_C 	C 	0.5568	0.0739	0.3821	-0.039
Mof_C 	C 	0.6233	0.1106	0.4038	-0.036
Mof_C 	C 	0.6059	0.161	0.4389	0.024
Mof_C 	C 	0.4629	0.1416	0.4335	0.047
Mof_C 	C 	0.4754	0.0898	0.3991	-0.04
Mof_C 	C 	0.815	0.9614	0.7971	0.05
Mof_C 	C 	0.9196	0.9938	0.857	0.31
Mof_C 	C 	0.9538	0.0531	0.8869	-0.042
Mof_C 	C 	0.0029	0.043	0.9308	-0.03
Mof_C 	C 	0.0252	0.0993	0.9603	0.037
Mof_C 	C 	0.961	0.1736	0.902	0.032
Mof_C 	C 	0.9361	0.1197	0.8719	-0.03
Mof_C 	C 	0.7973	0.0525	0.7301	0.045
Mof_C 	C 	0.766	0.1341	0.6664	0.28
Mof_C 	C 	0.7013	0.1609	0.629	-0.031
Mof_C 	C 	0.6215	0.1333	0.6234	-0.048
Mof_C 	C 	0.5677	0.1584	0.5864	0.047
Mof_C 	C 	0.6662	0.2363	0.561	0.035
Mof_C 	C 	0.7228	0.215	0.5978	-0.046
Mof_C 	C 	0.2087	0.4447	0.2767	0.043
Mof_C 	C 	0.2497	0.4119	0.3618	0.299
Mof_C 	C 	0.3164	0.378	0.393	-0.046
Mof_C 	C 	0.3005	0.3713	0.4466	-0.034
Mof_C 	C 	0.3569	0.3348	0.4763	0.017
Mof_C 	C 	0.4444	0.3164	0.4052	0.039
Mof_C 	C 	0.3893	0.3508	0.3729	-0.023
Mof_C 	C 	0.1815	0.5337	0.2089	0.049
Mof_C 	C 	0.0725	0.4823	0.1569	0.289
Mof_C 	C 	0.0568	0.4261	0.1179	-0.038
Mof_C 	C 	0.1233	0.3894	0.0962	-0.036
Mof_C 	C 	0.1059	0.339	0.0611	0.024
Mof_C 	C 	0.9629	0.3584	0.0665	0.047
Mof_C 	C 	0.9754	0.4102	0.1009	-0.041
Mof_C 	C 	0.315	0.5386	0.7029	0.055
Mof_C 	C 	0.4196	0.5062	0.643	0.318
Mof_C 	C 	0.4538	0.4469	0.6131	-0.051
Mof_C 	C 	0.5029	0.457	0.5692	-0.023
Mof_C 	C 	0.5252	0.4007	0.5397	0.035
Mof_C 	C 	0.461	0.3264	0.598	0.027
Mof_C 	C 	0.4361	0.3803	0.6281	-0.026
Mof_C 	C 	0.2973	0.4475	0.7699	0.046
Mof_C 	C 	0.266	0.3659	0.8336	0.28
Mof_C 	C 	0.2013	0.3391	0.871	-0.031
Mof_C 	C 	0.1215	0.3667	0.8766	-0.048
Mof_C 	C 	0.0677	0.3416	0.9136	0.046
Mof_C 	C 	0.1662	0.2637	0.939	0.035
Mof_C 	C 	0.2228	0.285	0.9022	-0.046
Mof_C 	C 	0.75	-3.20423e-33	0.2576	-0.014
Mof_C 	C 	0.75	1.28169e-32	0.7624	-0.013
Mof_C 	C 	0.25	0.5	0.2424	-0.017
Mof_C 	C 	0.25	0.5	0.7376	-0.017
Mof_N 	N 	0.5712	0.8069	0.0446	-0.219
Mof_N 	N 	0.975	0.8232	0.4532	-0.224
Mof_N 	N 	0.4981	0.8371	0.9464	-0.215
Mof_N 	N 	0.9115	0.7906	0.5557	-0.222
Mof_N 	N 	0.0712	0.6931	0.4554	-0.219
Mof_N 	N 	0.475	0.6768	0.0468	-0.224
Mof_N 	N 	0.9981	0.6629	0.5536	-0.215
Mof_N 	N 	0.4115	0.7094	0.9443	-0.222
Mof_N 	N 	0.9288	0.1931	0.0446	-0.218
Mof_N 	N 	0.525	0.1768	0.4532	-0.224
Mof_N 	N 	0.0019	0.1629	0.9464	-0.217
Mof_N 	N 	0.5885	0.2094	0.5557	-0.222
Mof_N 	N 	0.4288	0.3069	0.4554	-0.219
Mof_N 	N 	0.025	0.3232	0.0468	-0.223
Mof_N 	N 	0.5019	0.3371	0.5536	-0.215
Mof_N 	N 	0.0885	0.2906	0.9443	-0.222
Mof_O 	O 	0.7286	0.9162	0.1888	-0.244
Mof_O 	O 	0.8155	0.9327	0.1222	-0.253
Mof_O 	O 	0.847	0.9827	0.3281	-0.252
Mof_O 	O 	0.9814	0.0189	0.3266	-0.255
Mof_O 	O 	0.64	0.987	0.8257	-0.27
Mof_O 	O 	0.5589	0.0639	0.8633	-0.268
Mof_O 	O 	0.7624	0.9192	0.6931	-0.246
Mof_O 	O 	0.6654	0.8397	0.6706	-0.25
Mof_O 	O 	0.2286	0.5838	0.3112	-0.244
Mof_O 	O 	0.3155	0.5673	0.3778	-0.252
Mof_O 	O 	0.347	0.5173	0.1719	-0.251
Mof_O 	O 	0.4814	0.4811	0.1734	-0.258
Mof_O 	O 	0.14	0.513	0.6743	-0.268
Mof_O 	O 	0.0589	0.4361	0.6367	-0.268
Mof_O 	O 	0.2624	0.5808	0.8069	-0.246
Mof_O 	O 	0.1654	0.6603	0.8294	-0.25
Mof_O 	O 	0.7714	0.0838	0.1888	-0.243
Mof_O 	O 	0.6845	0.0673	0.1222	-0.252
Mof_O 	O 	0.653	0.0173	0.3281	-0.25
Mof_O 	O 	0.5186	0.9811	0.3266	-0.259
Mof_O 	O 	0.86	0.013	0.8257	-0.263
Mof_O 	O 	0.9411	0.9361	0.8633	-0.266
Mof_O 	O 	0.7376	0.0808	0.6931	-0.246
Mof_O 	O 	0.8346	0.1603	0.6706	-0.25
Mof_O 	O 	0.2714	0.4162	0.3112	-0.244
Mof_O 	O 	0.1845	0.4327	0.3778	-0.252
Mof_O 	O 	0.153	0.4827	0.1719	-0.251
Mof_O 	O 	0.0186	0.5189	0.1734	-0.257
Mof_O 	O 	0.36	0.487	0.6743	-0.268
Mof_O 	O 	0.4411	0.5639	0.6367	-0.268
Mof_O 	O 	0.2376	0.4192	0.8069	-0.246
Mof_O 	O 	0.3346	0.3397	0.8294	-0.25
Mof_Cu	Cu	0.50936	0.24403	0.00363	0.851
Mof_Cu	Cu	0.00936	0.25597	0.49637	0.851
Mof_Cu	Cu	0.99064	0.75597	0.00363	0.851
Mof_Cu	Cu	0.49064	0.74403	0.49637	0.851
Mof_H 	H 	0.1826	0.0955	0.7524	0.043
Mof_H 	H 	0.1577	0.033	0.799	0.059
Mof_H 	H 	0.2451	0.1056	0.964	0.047
Mof_H 	H 	0.3443	0.172	0.0173	0.004
Mof_H 	H 	0.5025	0.2037	0.8891	0.018
Mof_H 	H 	0.4036	0.1437	0.832	0.065
Mof_H 	H 	0.2071	0.9222	0.6887	0.041
Mof_H 	H 	0.1293	0.9495	0.7329	0.049
Mof_H 	H 	0.188	0.0993	0.6071	0.052
Mof_H 	H 	0.1578	0.1894	0.544	-0.002
Mof_H 	H 	0.8989	0.154	0.555	0.001
Mof_H 	H 	0.9219	0.0608	0.6153	0.06
Mof_H 	H 	0.3582	0.9319	0.2266	0.048
Mof_H 	H 	0.2828	0.9268	0.1766	0.043
Mof_H 	H 	0.5234	0.992	0.0583	0.051
Mof_H 	H 	0.562	0.092	0.0046	0.008
Mof_H 	H 	0.4473	0.2255	0.1103	0.001
Mof_H 	H 	0.4022	0.1291	0.164	0.053
Mof_H 	H 	0.3495	0.0284	0.2901	0.056
Mof_H 	H 	0.3222	0.0927	0.2452	0.047
Mof_H 	H 	0.1014	0.0917	0.3517	0.073
Mof_H 	H 	0.0057	0.1354	0.4176	0.002
Mof_H 	H 	0.185	0.2769	0.4652	-0.005
Mof_H 	H 	0.2832	0.2405	0.3978	0.057
Mof_H 	H 	0.6826	0.4045	0.7476	0.043
Mof_H 	H 	0.6577	0.467	0.701	0.059
Mof_H 	H 	0.7451	0.3944	0.536	0.047
Mof_H 	H 	0.8443	0.328	0.4827	0.003
Mof_H 	H 	0.0025	0.2963	0.6109	0.017
Mof_H 	H 	0.9036	0.3563	0.668	0.065
Mof_H 	H 	0.7071	0.5778	0.8113	0.042
Mof_H 	H 	0.6293	0.5505	0.7671	0.049
Mof_H 	H 	0.688	0.4007	0.8929	0.052
Mof_H 	H 	0.6578	0.3106	0.956	-0.002
Mof_H 	H 	0.3989	0.346	0.945	0.001
Mof_H 	H 	0.4219	0.4392	0.8847	0.06
Mof_H 	H 	0.8582	0.5681	0.2734	0.048
Mof_H 	H 	0.7828	0.5732	0.3234	0.043
Mof_H 	H 	0.0234	0.508	0.4417	0.052
Mof_H 	H 	0.062	0.408	0.4954	0.007
Mof_H 	H 	0.9473	0.2745	0.3897	0.001
Mof_H 	H 	0.9022	0.3709	0.336	0.053
Mof_H 	H 	0.8495	0.4716	0.2099	0.056
Mof_H 	H 	0.8222	0.4073	0.2548	0.047
Mof_H 	H 	0.6014	0.4083	0.1483	0.073
Mof_H 	H 	0.5057	0.3646	0.0824	0.003
Mof_H 	H 	0.685	0.2231	0.0348	-0.005
Mof_H 	H 	0.7832	0.2595	0.1022	0.057
Mof_H 	H 	0.3174	0.9045	0.7524	0.043
Mof_H 	H 	0.3423	0.967	0.799	0.059
Mof_H 	H 	0.2549	0.8944	0.964	0.047
Mof_H 	H 	0.1557	0.828	0.0173	0.004
Mof_H 	H 	0.9975	0.7963	0.8891	0.017
Mof_H 	H 	0.0964	0.8563	0.832	0.065
Mof_H 	H 	0.2929	0.0778	0.6887	0.041
Mof_H 	H 	0.3707	0.0505	0.7329	0.049
Mof_H 	H 	0.312	0.9007	0.6071	0.052
Mof_H 	H 	0.3422	0.8106	0.544	-0.002
Mof_H 	H 	0.6011	0.846	0.555	0.001
Mof_H 	H 	0.5781	0.9392	0.6153	0.06
Mof_H 	H 	0.1418	0.0681	0.2266	0.048
Mof_H 	H 	0.2172	0.0732	0.1766	0.043
Mof_H 	H 	0.9766	0.008	0.0583	0.055
Mof_H 	H 	0.938	0.908	0.0046	0.006
Mof_H 	H 	0.0527	0.7745	0.1103	0.001
Mof_H 	H 	0.0978	0.8709	0.164	0.054
Mof_H 	H 	0.1505	0.9716	0.2901	0.056
Mof_H 	H 	0.1778	0.9073	0.2452	0.047
Mof_H 	H 	0.3986	0.9083	0.3517	0.073
Mof_H 	H 	0.4943	0.8646	0.4176	0.002
Mof_H 	H 	0.315	0.7231	0.4652	-0.005
Mof_H 	H 	0.2168	0.7595	0.3978	0.057
Mof_H 	H 	0.8174	0.5955	0.7476	0.043
Mof_H 	H 	0.8423	0.533	0.701	0.059
Mof_H 	H 	0.7549	0.6056	0.536	0.047
Mof_H 	H 	0.6557	0.672	0.4827	0.003
Mof_H 	H 	0.4975	0.7037	0.6109	0.018
Mof_H 	H 	0.5964	0.6437	0.668	0.065
Mof_H 	H 	0.7929	0.4222	0.8113	0.042
Mof_H 	H 	0.8707	0.4495	0.7671	0.05
Mof_H 	H 	0.812	0.5993	0.8929	0.052
Mof_H 	H 	0.8422	0.6894	0.956	-0.002
Mof_H 	H 	0.1011	0.654	0.945	0.001
Mof_H 	H 	0.0781	0.5608	0.8847	0.06
Mof_H 	H 	0.6418	0.4319	0.2734	0.048
Mof_H 	H 	0.7172	0.4268	0.3234	0.043
Mof_H 	H 	0.4766	0.492	0.4417	0.052
Mof_H 	H 	0.438	0.592	0.4954	0.007
Mof_H 	H 	0.5527	0.7255	0.3897	0.001
Mof_H 	H 	0.5978	0.6291	0.336	0.053
Mof_H 	H 	0.6505	0.5284	0.2099	0.056
Mof_H 	H 	0.6778	0.5927	0.2548	0.047
Mof_H 	H 	0.8986	0.5917	0.1483	0.073
Mof_H 	H 	0.9943	0.6354	0.0824	0.002
Mof_H 	H 	0.815	0.7769	0.0348	-0.005
Mof_H 	H 	0.7168	0.7405	0.1022	0.057
Mof_C 	C 	0.2087	0.0553	0.7767	0.043
Mof_C 	C 	0.2497	0.0881	0.8618	0.299
Mof_C 	C 	0.3164	0.122	0.893	-0.047
Mof_C 	C 	0.3005	0.1287	0.9466	-0.034
Mof_C 	C 	0.3569	0.1652	0.9763	0.017
Mof_C 	C 	0.4444	0.1836	0.9052	0.039
Mof_C 	C 	0.3893	0.1492	0.8729	-0.023
Mof_C 	C 	0.1815	0.9663	0.7089	0.049
Mof_C 	C 	0.0725	0.0177	0.6569	0.288
Mof_C 	C 	0.0568	0.0739	0.6179	-0.04
Mof_C 	C 	0.1233	0.1106	0.5962	-0.036
Mof_C 	C 	0.1059	0.161	0.5611	0.023
Mof_C 	C 	0.9629	0.1416	0.5665	0.048
Mof_C 	C 	0.9754	0.0898	0.6009	-0.038
Mof_C 	C 	0.315	0.9614	0.2029	0.055
Mof_C 	C 	0.4196	0.9938	0.143	0.317
Mof_C 	C 	0.4538	0.0531	0.1131	-0.051
Mof_C 	C 	0.5029	0.043	0.0692	-0.022
Mof_C 	C 	0.5252	0.0993	0.0397	0.034
Mof_C 	C 	0.461	0.1736	0.098	0.027
Mof_C 	C 	0.4361	0.1197	0.1281	-0.026
Mof_C 	C 	0.2973	0.0525	0.2699	0.046
Mof_C 	C 	0.266	0.1341	0.3336	0.28
Mof_C 	C 	0.2013	0.1609	0.371	-0.031
Mof_C 	C 	0.1215	0.1333	0.3766	-0.048
Mof_C 	C 	0.0677	0.1584	0.4136	0.046
Mof_C 	C 	0.1662	0.2363	0.439	0.035
Mof_C 	C 	0.2228	0.215	0.4022	-0.046
Mof_C 	C 	0.7087	0.4447	0.7233	0.043
Mof_C 	C 	0.7497	0.4119	0.6382	0.298
Mof_C 	C 	0.8164	0.378	0.607	-0.046
Mof_C 	C 	0.8005	0.3713	0.5534	-0.034
Mof_C 	C 	0.8569	0.3348	0.5237	0.018
Mof_C 	C 	0.9444	0.3164	0.5948	0.04
Mof_C 	C 	0.8893	0.3508	0.6271	-0.024
Mof_C 	C 	0.6815	0.5337	0.7911	0.049
Mof_C 	C 	0.5725	0.4823	0.8431	0.289
Mof_C 	C 	0.5568	0.4261	0.8821	-0.039
Mof_C 	C 	0.6233	0.3894	0.9038	-0.036
Mof_C 	C 	0.6059	0.339	0.9389	0.024
Mof_C 	C 	0.4629	0.3584	0.9335	0.047
Mof_C 	C 	0.4754	0.4102	0.8991	-0.04
Mof_C 	C 	0.815	0.5386	0.2971	0.055
Mof_C 	C 	0.9196	0.5062	0.357	0.318
Mof_C 	C 	0.9538	0.4469	0.3869	-0.051
Mof_C 	C 	0.0029	0.457	0.4308	-0.023
Mof_C 	C 	0.0252	0.4007	0.4603	0.035
Mof_C 	C 	0.961	0.3264	0.402	0.028
Mof_C 	C 	0.9361	0.3803	0.3719	-0.026
Mof_C 	C 	0.7973	0.4475	0.2301	0.046
Mof_C 	C 	0.766	0.3659	0.1664	0.28
Mof_C 	C 	0.7013	0.3391	0.129	-0.031
Mof_C 	C 	0.6215	0.3667	0.1234	-0.048
Mof_C 	C 	0.5677	0.3416	0.0864	0.047
Mof_C 	C 	0.6662	0.2637	0.061	0.035
Mof_C 	C 	0.7228	0.285	0.0978	-0.046
Mof_C 	C 	0.2913	0.9447	0.7767	0.044
Mof_C 	C 	0.2503	0.9119	0.8618	0.299
Mof_C 	C 	0.1836	0.878	0.893	-0.046
Mof_C 	C 	0.1995	0.8713	0.9466	-0.033
Mof_C 	C 	0.1431	0.8348	0.9763	0.017
Mof_C 	C 	0.0556	0.8164	0.9052	0.039
Mof_C 	C 	0.1107	0.8508	0.8729	-0.023
Mof_C 	C 	0.3185	0.0337	0.7089	0.049
Mof_C 	C 	0.4275	0.9823	0.6569	0.288
Mof_C 	C 	0.4432	0.9261	0.6179	-0.038
Mof_C 	C 	0.3767	0.8894	0.5962	-0.036
Mof_C 	C 	0.3941	0.839	0.5611	0.024
Mof_C 	C 	0.5371	0.8584	0.5665	0.047
Mof_C 	C 	0.5246	0.9102	0.6009	-0.04
Mof_C 	C 	0.185	0.0386	0.2029	0.054
Mof_C 	C 	0.0804	0.0062	0.143	0.314
Mof_C 	C 	0.0462	0.9469	0.1131	-0.044
Mof_C 	C 	0.9971	0.957	0.0692	-0.032
Mof_C 	C 	0.9748	0.9007	0.0397	0.038
Mof_C 	C 	0.039	0.8264	0.098	0.032
Mof_C 	C 	0.0639	0.8803	0.1281	-0.029
Mof_C 	C 	0.2027	0.9475	0.2699	0.046
Mof_C 	C 	0.234	0.8659	0.3336	0.28
Mof_C 	C 	0.2987	0.8391	0.371	-0.031
Mof_C 	C 	0.3785	0.8667	0.3766	-0.048
Mof_C 	C 	0.4323	0.8416	0.4136	0.047
Mof_C 	C 	0.3338	0.7637	0.439	0.035
Mof_C 	C 	0.2772	0.785	0.4022	-0.046
Mof_C 	C 	0.7913	0.5553	0.7233	0.043
Mof_C 	C 	0.7503	0.5881	0.6382	0.299
Mof_C 	C 	0.6836	0.622	0.607	-0.046
Mof_C 	C 	0.6995	0.6287	0.5534	-0.034
Mof_C 	C 	0.6431	0.6652	0.5237	0.017
Mof_C 	C 	0.5556	0.6836	0.5948	0.039
Mof_C 	C 	0.6107	0.6492	0.6271	-0.023
Mof_C 	C 	0.8185	0.4663	0.7911	0.049
Mof_C 	C 	0.9275	0.5177	0.8431	0.289
Mof_C 	C 	0.9432	0.5739	0.8821	-0.038
Mof_C 	C 	0.8767	0.6106	0.9038	-0.036
Mof_C 	C 	0.8941	0.661	0.9389	0.024
Mof_C 	C 	0.0371	0.6416	0.9335	0.047
Mof_C 	C 	0.0246	0.5898	0.8991	-0.041
Mof_C 	C 	0.685	0.4614	0.2971	0.055
Mof_C 	C 	0.5804	0.4938	0.357	0.318
Mof_C 	C 	0.5462	0.5531	0.3869	-0.051
Mof_C 	C 	0.4971	0.543	0.4308	-0.023
Mof_C 	C 	0.4748	0.5993	0.4603	0.035
Mof_C 	C 	0.539	0.6736	0.402	0.027
Mof_C 	C 	0.5639	0.6197	0.3719	-0.026
Mof_C 	C 	0.7027	0.5525	0.2301	0.046
Mof_C 	C 	0.734	0.6341	0.1664	0.28
Mof_C 	C 	0.7987	0.6609	0.129	-0.031
Mof_C 	C 	0.8785	0.6333	0.1234	-0.048
Mof_C 	C 	0.9323	0.6584	0.0864	0.046
Mof_C 	C 	0.8338	0.7363	0.061	0.035
Mof_C 	C 	0.7772	0.715	0.0978	-0.046
Mof_C 	C 	0.25	0	0.7424	-0.018
Mof_C 	C 	0.25	0	0.2376	-0.017
Mof_C 	C 	0.75	0.5	0.7576	-0.017
Mof_C 	C 	0.75	0.5	0.2624	-0.017
Mof_N 	N 	0.4288	0.1931	0.9554	-0.219
Mof_N 	N 	0.025	0.1768	0.5468	-0.224
Mof_N 	N 	0.5019	0.1629	0.0536	-0.215
Mof_N 	N 	0.0885	0.2094	0.4443	-0.222
Mof_N 	N 	0.9288	0.3069	0.5446	-0.219
Mof_N 	N 	0.525	0.3232	0.9532	-0.224
Mof_N 	N 	0.0019	0.3371	0.4464	-0.215
Mof_N 	N 	0.5885	0.2906	0.0557	-0.222
Mof_N 	N 	0.0712	0.8069	0.9554	-0.218
Mof_N 	N 	0.475	0.8232	0.5468	-0.224
Mof_N 	N 	0.9981	0.8371	0.0536	-0.217
Mof_N 	N 	0.4115	0.7906	0.4443	-0.222
Mof_N 	N 	0.5712	0.6931	0.5446	-0.219
Mof_N 	N 	0.975	0.6768	0.9532	-0.223
Mof_N 	N 	0.4981	0.6629	0.4464	-0.215
Mof_N 	N 	0.9115	0.7094	0.0557	-0.222
Mof_O 	O 	0.2714	0.0838	0.8112	-0.244
Mof_O 	O 	0.1845	0.0673	0.8778	-0.253
Mof_O 	O 	0.153	0.0173	0.6719	-0.251
Mof_O 	O 	0.0186	0.9811	0.6734	-0.257
Mof_O 	O 	0.36	0.013	0.1743	-0.267
Mof_O 	O 	0.4411	0.9361	0.1367	-0.267
Mof_O 	O 	0.2376	0.0808	0.3069	-0.246
Mof_O 	O 	0.3346	0.1603	0.3294	-0.25
Mof_O 	O 	0.7714	0.4162	0.6888	-0.244
Mof_O 	O 	0.6845	0.4327	0.6222	-0.252
Mof_O 	O 	0.653	0.4827	0.8281	-0.251
Mof_O 	O 	0.5186	0.5189	0.8266	-0.258
Mof_O 	O 	0.86	0.487	0.3257	-0.268
Mof_O 	O 	0.9411	0.5639	0.3633	-0.268
Mof_O 	O 	0.7376	0.4192	0.1931	-0.246
Mof_O 	O 	0.8346	0.3397	0.1706	-0.25
Mof_O 	O 	0.2286	0.9162	0.8112	-0.244
Mof_O 	O 	0.3155	0.9327	0.8778	-0.252
Mof_O 	O 	0.347	0.9827	0.6719	-0.251
Mof_O 	O 	0.4814	0.0189	0.6734	-0.257
Mof_O 	O 	0.14	0.987	0.1743	-0.266
Mof_O 	O 	0.0589	0.0639	0.1367	-0.266
Mof_O 	O 	0.2624	0.9192	0.3069	-0.246
Mof_O 	O 	0.1654	0.8397	0.3294	-0.25
Mof_O 	O 	0.7286	0.5838	0.6888	-0.244
Mof_O 	O 	0.8155	0.5673	0.6222	-0.252
Mof_O 	O 	0.847	0.5173	0.8281	-0.251
Mof_O 	O 	0.9814	0.4811	0.8266	-0.257
Mof_O 	O 	0.64	0.513	0.3257	-0.268
Mof_O 	O 	0.5589	0.4361	0.3633	-0.268
Mof_O 	O 	0.7624	0.5808	0.1931	-0.246
Mof_O 	O 	0.6654	0.6603	0.1706	-0.25
_end
