data_functionalizedCrystal
_audit_creation_method	'EQeq! by Chris Wilmer'
_symmetry_space_group_name_H-M	'P1'
_symmetry_Int_Tables_number	1
_symmetry_cell_setting	triclinic
loop_
_symmetry_equiv_pos_as_xyz
  x,y,z
_cell_length_a	26.2
_cell_length_b	17.465
_cell_length_c	17.275
_cell_angle_alpha	90
_cell_angle_beta	118.183
_cell_angle_gamma	90
loop_
_atom_site_label
_atom_site_type_symbol
_atom_site_fract_x
_atom_site_fract_y
_atom_site_fract_z
_atom_site_charge
Mof_Co	Co	0.17809	0.59423	0.23947	1.083
Mof_O 	O 	0.46448	0.4598	0.3981	-0.251
Mof_O 	O 	0.63522	0.46204	0.3649	-0.25
Mof_O 	O 	0.61061	0.271	0.5409	-0.255
Mof_O 	O 	0.0882	0.6064	0.2021	-0.636
Mof_N 	N 	0.0143	0.6824	0.2056	-1.398
Mof_N 	N 	0.0092	0.5148	0.123	0.209
Mof_N 	N 	0.2683	0.5753	0.2804	-0.267
Mof_N 	N 	0.1895	0.7129	0.2748	-0.276
Mof_N 	N 	0.1563	0.4764	0.1999	-0.252
Mof_C 	C 	0.5174	0.4306	0.4146	0.366
Mof_C 	C 	0.5519	0.4634	0.3828	-0.348
Mof_H 	H 	0.5404	0.5088	0.3483	0.158
Mof_C 	C 	0.6046	0.4272	0.4033	0.353
Mof_C 	C 	0.623	0.3634	0.4553	-0.357
Mof_H 	H 	0.6589	0.3398	0.4687	0.168
Mof_C 	C 	0.5877	0.3341	0.488	0.372
Mof_C 	C 	0.5348	0.3664	0.4681	-0.358
Mof_H 	H 	0.511	0.3452	0.4904	0.165
Mof_C 	C 	0.4451	0.5262	0.3459	-0.026
Mof_H 	H 	0.4469	0.5184	0.2905	0.05
Mof_H 	H 	0.4704	0.57	0.3774	0.037
Mof_C 	C 	0.2982	0.5201	0.3378	0.089
Mof_H 	H 	0.2792	0.4916	0.3636	-0.032
Mof_C 	C 	0.3551	0.5024	0.3615	-0.156
Mof_H 	H 	0.3742	0.4622	0.4022	0.097
Mof_C 	C 	0.384	0.5432	0.3259	0.114
Mof_C 	C 	0.3539	0.6017	0.2687	-0.16
Mof_H 	H 	0.3722	0.6318	0.2432	0.078
Mof_C 	C 	0.2974	0.6166	0.2485	0.09
Mof_H 	H 	0.2781	0.6581	0.2102	-0.034
Mof_C 	C 	0.6916	0.4323	0.3891	-0.022
Mof_H 	H 	0.713	0.4264	0.4537	0.023
Mof_H 	H 	0.7129	0.4698	0.3722	0.039
Mof_C 	C 	0.1482	0.7647	0.2318	0.148
Mof_H 	H 	0.1177	0.7518	0.1754	-0.02
Mof_C 	C 	0.1476	0.8368	0.2659	-0.09
Mof_H 	H 	0.1175	0.8721	0.2329	0.153
Mof_C 	C 	0.6906	0.3563	0.347	0.099
Mof_C 	C 	0.7343	0.3037	0.3909	-0.159
Mof_H 	H 	0.7656	0.3159	0.4468	0.083
Mof_C 	C 	0.2323	0.7332	0.353	0.095
Mof_H 	H 	0.2627	0.6977	0.3841	-0.025
Mof_C 	C 	0.578	0.2386	0.5804	-0.031
Mof_H 	H 	0.5772	0.2744	0.6243	0.035
Mof_H 	H 	0.5376	0.2285	0.5351	0.037
Mof_C 	C 	0.1274	0.433	0.2308	0.076
Mof_H 	H 	0.1234	0.4512	0.2795	-0.033
Mof_C 	C 	0.1033	0.3629	0.1945	-0.17
Mof_H 	H 	0.0837	0.3341	0.2192	0.04
Mof_C 	C 	0.6072	0.1653	0.6238	0.105
Mof_C 	C 	0.6383	0.1219	0.5934	-0.158
Mof_H 	H 	0.6433	0.1395	0.5453	0.088
Mof_C 	C 	0.1619	0.4468	0.1332	0.083
Mof_H 	H 	0.1836	0.4749	0.1116	-0.033
Mof_C 	C 	0.0678	0.6638	0.2391	1.251
Mof_H 	H 	0.095	0.6894	0.2908	0.02
Mof_C 	C 	0.051	0.5606	0.1253	0.038
Mof_H 	H 	0.0566	0.5634	0.0749	-0.012
Mof_C 	C 	0.9743	0.6509	0.1165	1.466
Mof_H 	H 	0.9936	0.6519	0.0798	-0.286
Mof_H 	H 	0.9391	0.6821	0.0891	-0.109
Mof_H 	H 	0.9641	0.598	0.1223	-0.369
Mof_C 	C 	0.0012	0.4974	0.1984	-3
Mof_H 	H 	0.0346	0.5158	0.2518	1.157
Mof_H 	H 	0.9974	0.4419	0.2024	1.111
Mof_H 	H 	0.966	0.5227	0.192	1.308
Mof_H 	H 	0.0251	0.7316	0.3134	-3.206
Mof_H 	H 	0.9595	0.7308	0.2365	-3.254
Mof_H 	H 	0.0053	0.7885	0.2315	-2.37
Mof_C 	C 	0.9714	0.4739	0.0422	-0.312
Mof_H 	H 	0.983	0.4853	0.9972	0.231
Mof_H 	H 	0.9313	0.4902	0.0215	0.145
Mof_H 	H 	0.9746	0.4187	0.0538	0.189
Mof_Co	Co	0.67809	0.09423	0.23947	1.081
Mof_O 	O 	0.96448	0.9598	0.3981	-0.021
Mof_O 	O 	0.13522	0.96204	0.3649	-0.224
Mof_O 	O 	0.11061	0.771	0.5409	-0.215
Mof_O 	O 	0.5882	0.1064	0.2021	-0.465
Mof_N 	N 	0.5143	0.1824	0.2056	-0.43
Mof_N 	N 	0.5092	0.0148	0.123	-0.103
Mof_N 	N 	0.7683	0.0753	0.2804	-0.277
Mof_N 	N 	0.6895	0.2129	0.2748	-0.267
Mof_N 	N 	0.6563	0.9764	0.1999	-0.26
Mof_C 	C 	0.0174	0.9306	0.4146	0.1
Mof_C 	C 	0.0519	0.9634	0.3828	-0.15
Mof_H 	H 	0.0404	0.0088	0.3483	0.048
Mof_C 	C 	0.1046	0.9272	0.4033	0.305
Mof_C 	C 	0.123	0.8634	0.4553	-0.207
Mof_H 	H 	0.1589	0.8398	0.4687	0.148
Mof_C 	C 	0.0877	0.8341	0.488	0.344
Mof_C 	C 	0.0348	0.8664	0.4681	-0.15
Mof_H 	H 	0.011	0.8452	0.4904	0.063
Mof_C 	C 	0.9451	0.0262	0.3459	-0.171
Mof_H 	H 	0.9469	0.0184	0.2905	0.156
Mof_H 	H 	0.9704	0.07	0.3774	0.127
Mof_C 	C 	0.7982	0.0201	0.3378	0.111
Mof_H 	H 	0.7792	0.9916	0.3636	-0.039
Mof_C 	C 	0.8551	0.0024	0.3615	-0.211
Mof_H 	H 	0.8742	0.9622	0.4022	0.125
Mof_C 	C 	0.884	0.0432	0.3259	0.186
Mof_C 	C 	0.8539	0.1017	0.2687	-0.211
Mof_H 	H 	0.8722	0.1318	0.2432	0.107
Mof_C 	C 	0.7974	0.1166	0.2485	0.115
Mof_H 	H 	0.7781	0.1581	0.2102	-0.039
Mof_C 	C 	0.1916	0.9323	0.3891	-0.017
Mof_H 	H 	0.213	0.9264	0.4537	0.02
Mof_H 	H 	0.2129	0.9698	0.3722	0.034
Mof_C 	C 	0.6482	0.2647	0.2318	0.101
Mof_H 	H 	0.6177	0.2518	0.1754	-0.015
Mof_C 	C 	0.6476	0.3368	0.2659	-0.139
Mof_H 	H 	0.6175	0.3721	0.2329	0.119
Mof_C 	C 	0.1906	0.8563	0.347	0.112
Mof_C 	C 	0.2343	0.8037	0.3909	-0.151
Mof_H 	H 	0.2656	0.8159	0.4468	0.074
Mof_C 	C 	0.7323	0.2332	0.353	0.086
Mof_H 	H 	0.7627	0.1977	0.3841	-0.024
Mof_C 	C 	0.078	0.7386	0.5804	-0.019
Mof_H 	H 	0.0772	0.7744	0.6243	0.014
Mof_H 	H 	0.0376	0.7285	0.5351	0.023
Mof_C 	C 	0.6274	0.933	0.2308	0.091
Mof_H 	H 	0.6234	0.9512	0.2795	-0.032
Mof_C 	C 	0.6033	0.8629	0.1945	-0.168
Mof_H 	H 	0.5837	0.8341	0.2192	0.073
Mof_C 	C 	0.1072	0.6653	0.6238	0.087
Mof_C 	C 	0.1383	0.6219	0.5934	-0.153
Mof_H 	H 	0.1433	0.6395	0.5453	0.1
Mof_C 	C 	0.6619	0.9468	0.1332	0.086
Mof_H 	H 	0.6836	0.9749	0.1116	-0.036
Mof_C 	C 	0.5678	0.1638	0.2391	0.454
Mof_H 	H 	0.595	0.1894	0.2908	-0.027
Mof_C 	C 	0.551	0.0606	0.1253	0.144
Mof_H 	H 	0.5566	0.0634	0.0749	-0.046
Mof_C 	C 	0.4743	0.1509	0.1165	0.14
Mof_H 	H 	0.4936	0.1519	0.0798	0
Mof_H 	H 	0.4391	0.1821	0.0891	0.066
Mof_H 	H 	0.4641	0.098	0.1223	-0.005
Mof_C 	C 	0.5012	0.9974	0.1984	-0.148
Mof_H 	H 	0.5346	0.0158	0.2518	0.062
Mof_H 	H 	0.4974	0.9419	0.2024	0.061
Mof_H 	H 	0.466	0.0227	0.192	0.051
Mof_H 	H 	0.5251	0.2316	0.3134	-0.788
Mof_H 	H 	0.4595	0.2308	0.2365	-0.843
Mof_H 	H 	0.5053	0.2885	0.2315	-0.561
Mof_C 	C 	0.4714	0.9739	0.0422	-0.195
Mof_H 	H 	0.483	0.9853	0.9972	0.055
Mof_H 	H 	0.4313	0.9902	0.0215	0.08
Mof_H 	H 	0.4746	0.9187	0.0538	0.082
Mof_Co	Co	0.82191	0.59423	0.26053	1.085
Mof_O 	O 	0.53552	0.4598	0.1019	-0.25
Mof_O 	O 	0.36478	0.46204	0.1351	-0.249
Mof_O 	O 	0.38939	0.271	0.9591	-0.266
Mof_O 	O 	0.9118	0.6064	0.2979	-0.681
Mof_N 	N 	0.9857	0.6824	0.2944	-1.113
Mof_N 	N 	0.9908	0.5148	0.377	-0.434
Mof_N 	N 	0.7317	0.5753	0.2196	-0.266
Mof_N 	N 	0.8105	0.7129	0.2252	-0.27
Mof_N 	N 	0.8437	0.4764	0.3001	-0.268
Mof_C 	C 	0.4826	0.4306	0.0854	0.372
Mof_C 	C 	0.4481	0.4634	0.1172	-0.351
Mof_H 	H 	0.4596	0.5088	0.1517	0.159
Mof_C 	C 	0.3954	0.4272	0.0967	0.359
Mof_C 	C 	0.377	0.3634	0.0447	-0.364
Mof_H 	H 	0.3411	0.3398	0.0313	0.174
Mof_C 	C 	0.4123	0.3341	0.012	0.388
Mof_C 	C 	0.4652	0.3664	0.0319	-0.365
Mof_H 	H 	0.489	0.3452	0.0096	0.171
Mof_C 	C 	0.5549	0.5262	0.1541	-0.027
Mof_H 	H 	0.5531	0.5184	0.2095	0.05
Mof_H 	H 	0.5296	0.57	0.1226	0.039
Mof_C 	C 	0.7018	0.5201	0.1622	0.089
Mof_H 	H 	0.7208	0.4916	0.1364	-0.03
Mof_C 	C 	0.6449	0.5024	0.1385	-0.155
Mof_H 	H 	0.6258	0.4622	0.0978	0.099
Mof_C 	C 	0.616	0.5432	0.1741	0.115
Mof_C 	C 	0.6461	0.6017	0.2313	-0.16
Mof_H 	H 	0.6278	0.6318	0.2568	0.078
Mof_C 	C 	0.7026	0.6166	0.2515	0.09
Mof_H 	H 	0.7219	0.6581	0.2898	-0.031
Mof_C 	C 	0.3084	0.4323	0.1109	-0.024
Mof_H 	H 	0.287	0.4264	0.0463	0.027
Mof_H 	H 	0.2871	0.4698	0.1278	0.04
Mof_C 	C 	0.8518	0.7647	0.2682	0.14
Mof_H 	H 	0.8823	0.7518	0.3246	0.029
Mof_C 	C 	0.8524	0.8368	0.2341	-0.073
Mof_H 	H 	0.8825	0.8721	0.2671	0.176
Mof_C 	C 	0.3094	0.3563	0.153	0.101
Mof_C 	C 	0.2657	0.3037	0.1091	-0.16
Mof_H 	H 	0.2344	0.3159	0.0532	0.087
Mof_C 	C 	0.7677	0.7332	0.147	0.093
Mof_H 	H 	0.7373	0.6977	0.1159	-0.022
Mof_C 	C 	0.422	0.2386	0.9196	-0.025
Mof_H 	H 	0.4228	0.2744	0.8757	0.032
Mof_H 	H 	0.4624	0.2285	0.9649	0.031
Mof_C 	C 	0.8726	0.433	0.2692	0.112
Mof_H 	H 	0.8766	0.4512	0.2205	-0.031
Mof_C 	C 	0.8967	0.3629	0.3055	-0.182
Mof_H 	H 	0.9163	0.3341	0.2808	0.115
Mof_C 	C 	0.3928	0.1653	0.8762	0.101
Mof_C 	C 	0.3617	0.1219	0.9066	-0.157
Mof_H 	H 	0.3567	0.1395	0.9547	0.085
Mof_C 	C 	0.8381	0.4468	0.3668	0.098
Mof_H 	H 	0.8164	0.4749	0.3884	-0.04
Mof_C 	C 	0.9322	0.6638	0.2609	1.281
Mof_H 	H 	0.905	0.6894	0.2092	0.014
Mof_C 	C 	0.949	0.5606	0.3747	0.42
Mof_H 	H 	0.9434	0.5634	0.4251	-0.12
Mof_C 	C 	0.0257	0.6509	0.3835	1.137
Mof_H 	H 	0.0064	0.6519	0.4202	-0.367
Mof_H 	H 	0.0609	0.6821	0.4109	-0.027
Mof_H 	H 	0.0359	0.598	0.3777	-0.359
Mof_C 	C 	0.9988	0.4974	0.3016	2.777
Mof_H 	H 	0.9654	0.5158	0.2482	-1.077
Mof_H 	H 	0.0026	0.4419	0.2976	-1.009
Mof_H 	H 	0.034	0.5227	0.308	-1.194
Mof_H 	H 	0.9749	0.7316	0.1866	-2.965
Mof_H 	H 	0.0405	0.7308	0.2635	-3.222
Mof_H 	H 	0.9947	0.7885	0.2685	-1.876
Mof_C 	C 	0.0286	0.4739	0.4578	-0.073
Mof_H 	H 	0.017	0.4853	0.5028	-0.106
Mof_H 	H 	0.0687	0.4902	0.4785	0.024
Mof_H 	H 	0.0254	0.4187	0.4462	-0.018
Mof_Co	Co	0.32191	0.09423	0.26053	1.081
Mof_O 	O 	0.03552	0.9598	0.1019	-0.444
Mof_O 	O 	0.86478	0.96204	0.1351	-0.249
Mof_O 	O 	0.88939	0.771	0.9591	-0.26
Mof_O 	O 	0.4118	0.1064	0.2979	-0.464
Mof_N 	N 	0.4857	0.1824	0.2944	-0.43
Mof_N 	N 	0.4908	0.0148	0.377	-0.091
Mof_N 	N 	0.2317	0.0753	0.2196	-0.259
Mof_N 	N 	0.3105	0.2129	0.2252	-0.267
Mof_N 	N 	0.3437	0.9764	0.3001	-0.259
Mof_C 	C 	0.9826	0.9306	0.0854	0.729
Mof_C 	C 	0.9481	0.9634	0.1172	-0.43
Mof_H 	H 	0.9596	0.0088	0.1517	0.262
Mof_C 	C 	0.8954	0.9272	0.0967	0.491
Mof_C 	C 	0.877	0.8634	0.0447	-0.37
Mof_H 	H 	0.8411	0.8398	0.0313	0.207
Mof_C 	C 	0.9123	0.8341	0.012	0.551
Mof_C 	C 	0.9652	0.8664	0.0319	-0.449
Mof_H 	H 	0.989	0.8452	0.0096	0.28
Mof_C 	C 	0.0549	0.0262	0.1541	0.094
Mof_H 	H 	0.0531	0.0184	0.2095	-0.006
Mof_H 	H 	0.0296	0.07	0.1226	-0.05
Mof_C 	C 	0.2018	0.0201	0.1622	0.064
Mof_H 	H 	0.2208	0.9916	0.1364	-0.025
Mof_C 	C 	0.1449	0.0024	0.1385	-0.12
Mof_H 	H 	0.1258	0.9622	0.0978	0.077
Mof_C 	C 	0.116	0.0432	0.1741	0.057
Mof_C 	C 	0.1461	0.1017	0.2313	-0.122
Mof_H 	H 	0.1278	0.1318	0.2568	0.053
Mof_C 	C 	0.2026	0.1166	0.2515	0.068
Mof_H 	H 	0.2219	0.1581	0.2898	-0.028
Mof_C 	C 	0.8084	0.9323	0.1109	-0.001
Mof_H 	H 	0.787	0.9264	0.0463	0.017
Mof_H 	H 	0.7871	0.9698	0.1278	0.033
Mof_C 	C 	0.3518	0.2647	0.2682	0.101
Mof_H 	H 	0.3823	0.2518	0.3246	-0.016
Mof_C 	C 	0.3524	0.3368	0.2341	-0.14
Mof_H 	H 	0.3825	0.3721	0.2671	0.119
Mof_C 	C 	0.8094	0.8563	0.153	0.103
Mof_C 	C 	0.7657	0.8037	0.1091	-0.145
Mof_H 	H 	0.7344	0.8159	0.0532	0.074
Mof_C 	C 	0.2677	0.2332	0.147	0.086
Mof_H 	H 	0.2373	0.1977	0.1159	-0.02
Mof_C 	C 	0.922	0.7386	0.9196	-0.056
Mof_H 	H 	0.9228	0.7744	0.8757	0.053
Mof_H 	H 	0.9624	0.7285	0.9649	0.104
Mof_C 	C 	0.3726	0.933	0.2692	0.088
Mof_H 	H 	0.3766	0.9512	0.2205	-0.03
Mof_C 	C 	0.3967	0.8629	0.3055	-0.165
Mof_H 	H 	0.4163	0.8341	0.2808	0.072
Mof_C 	C 	0.8928	0.6653	0.8762	0.146
Mof_C 	C 	0.8617	0.6219	0.9066	-0.177
Mof_H 	H 	0.8567	0.6395	0.9547	0.106
Mof_C 	C 	0.3381	0.9468	0.3668	0.083
Mof_H 	H 	0.3164	0.9749	0.3884	-0.037
Mof_C 	C 	0.4322	0.1638	0.2609	0.454
Mof_H 	H 	0.405	0.1894	0.2092	-0.027
Mof_C 	C 	0.449	0.0606	0.3747	0.141
Mof_H 	H 	0.4434	0.0634	0.4251	-0.045
Mof_C 	C 	0.5257	0.1509	0.3835	0.143
Mof_H 	H 	0.5064	0.1519	0.4202	-0.003
Mof_H 	H 	0.5609	0.1821	0.4109	0.063
Mof_H 	H 	0.5359	0.098	0.3777	-0.007
Mof_C 	C 	0.4988	0.9974	0.3016	-0.172
Mof_H 	H 	0.4654	0.0158	0.2482	0.072
Mof_H 	H 	0.5026	0.9419	0.2976	0.068
Mof_H 	H 	0.534	0.0227	0.308	0.061
Mof_H 	H 	0.4749	0.2316	0.1866	-0.788
Mof_H 	H 	0.5405	0.2308	0.2635	-0.843
Mof_H 	H 	0.4947	0.2885	0.2685	-0.561
Mof_C 	C 	0.5286	0.9739	0.4578	-0.252
Mof_H 	H 	0.517	0.9853	0.5028	0.09
Mof_H 	H 	0.5687	0.9902	0.4785	0.091
Mof_H 	H 	0.5254	0.9187	0.4462	0.095
Mof_Co	Co	0.82191	0.40577	0.76053	1.084
Mof_O 	O 	0.53552	0.5402	0.6019	-0.252
Mof_O 	O 	0.36478	0.53796	0.6351	-0.25
Mof_O 	O 	0.38939	0.729	0.4591	-0.255
Mof_O 	O 	0.9118	0.3936	0.7979	-0.681
Mof_N 	N 	0.9857	0.3176	0.7944	-1.112
Mof_N 	N 	0.9908	0.4852	0.877	-0.426
Mof_N 	N 	0.7317	0.4247	0.7196	-0.267
Mof_N 	N 	0.8105	0.2871	0.7252	-0.271
Mof_N 	N 	0.8437	0.5236	0.8001	-0.268
Mof_C 	C 	0.4826	0.5694	0.5854	0.366
Mof_C 	C 	0.4481	0.5366	0.6172	-0.348
Mof_H 	H 	0.4596	0.4912	0.6517	0.158
Mof_C 	C 	0.3954	0.5728	0.5967	0.353
Mof_C 	C 	0.377	0.6366	0.5447	-0.357
Mof_H 	H 	0.3411	0.6602	0.5313	0.168
Mof_C 	C 	0.4123	0.6659	0.512	0.372
Mof_C 	C 	0.4652	0.6336	0.5319	-0.359
Mof_H 	H 	0.489	0.6548	0.5096	0.165
Mof_C 	C 	0.5549	0.4738	0.6541	-0.026
Mof_H 	H 	0.5531	0.4816	0.7095	0.05
Mof_H 	H 	0.5296	0.43	0.6226	0.036
Mof_C 	C 	0.7018	0.4799	0.6622	0.088
Mof_H 	H 	0.7208	0.5084	0.6364	-0.032
Mof_C 	C 	0.6449	0.4976	0.6385	-0.155
Mof_H 	H 	0.6258	0.5378	0.5978	0.097
Mof_C 	C 	0.616	0.4568	0.6741	0.113
Mof_C 	C 	0.6461	0.3983	0.7313	-0.159
Mof_H 	H 	0.6278	0.3682	0.7568	0.077
Mof_C 	C 	0.7026	0.3834	0.7515	0.089
Mof_H 	H 	0.7219	0.3419	0.7898	-0.032
Mof_C 	C 	0.3084	0.5677	0.6109	-0.022
Mof_H 	H 	0.287	0.5736	0.5463	0.024
Mof_H 	H 	0.2871	0.5302	0.6278	0.038
Mof_C 	C 	0.8518	0.2353	0.7682	0.139
Mof_H 	H 	0.8823	0.2482	0.8246	0.027
Mof_C 	C 	0.8524	0.1632	0.7341	-0.074
Mof_H 	H 	0.8825	0.1279	0.7671	0.175
Mof_C 	C 	0.3094	0.6437	0.653	0.1
Mof_C 	C 	0.2657	0.6963	0.6091	-0.159
Mof_H 	H 	0.2344	0.6841	0.5532	0.084
Mof_C 	C 	0.7677	0.2668	0.647	0.092
Mof_H 	H 	0.7373	0.3023	0.6159	-0.024
Mof_C 	C 	0.422	0.7614	0.4196	-0.031
Mof_H 	H 	0.4228	0.7256	0.3757	0.036
Mof_H 	H 	0.4624	0.7715	0.4649	0.037
Mof_C 	C 	0.8726	0.567	0.7692	0.109
Mof_H 	H 	0.8766	0.5488	0.7205	-0.032
Mof_C 	C 	0.8967	0.6371	0.8055	-0.178
Mof_H 	H 	0.9163	0.6659	0.7808	0.112
Mof_C 	C 	0.3928	0.8347	0.3762	0.105
Mof_C 	C 	0.3617	0.8781	0.4066	-0.159
Mof_H 	H 	0.3567	0.8605	0.4547	0.088
Mof_C 	C 	0.8381	0.5532	0.8668	0.095
Mof_H 	H 	0.8164	0.5251	0.8884	-0.041
Mof_C 	C 	0.9322	0.3362	0.7609	1.277
Mof_H 	H 	0.905	0.3106	0.7092	0.013
Mof_C 	C 	0.949	0.4394	0.8747	0.416
Mof_H 	H 	0.9434	0.4366	0.9251	-0.12
Mof_C 	C 	0.0257	0.3491	0.8835	1.138
Mof_H 	H 	0.0064	0.3481	0.9202	-0.37
Mof_H 	H 	0.0609	0.3179	0.9109	-0.031
Mof_H 	H 	0.0359	0.402	0.8777	-0.36
Mof_C 	C 	0.9988	0.5026	0.8016	2.765
Mof_H 	H 	0.9654	0.4842	0.7482	-1.073
Mof_H 	H 	0.0026	0.5581	0.7976	-1.006
Mof_H 	H 	0.034	0.4773	0.808	-1.191
Mof_H 	H 	0.9749	0.2684	0.6866	-2.956
Mof_H 	H 	0.0405	0.2692	0.7635	-3.213
Mof_H 	H 	0.9947	0.2115	0.7685	-1.871
Mof_C 	C 	0.0286	0.5261	0.9578	-0.136
Mof_H 	H 	0.017	0.5147	0.0028	-0.061
Mof_H 	H 	0.0687	0.5098	0.9785	0.038
Mof_H 	H 	0.0254	0.5813	0.9462	-0.003
Mof_Co	Co	0.32191	0.90577	0.76053	1.08
Mof_O 	O 	0.03552	0.0402	0.6019	-0.448
Mof_O 	O 	0.86478	0.03796	0.6351	-0.25
Mof_O 	O 	0.88939	0.229	0.4591	-0.241
Mof_O 	O 	0.4118	0.8936	0.7979	-0.465
Mof_N 	N 	0.4857	0.8176	0.7944	-0.43
Mof_N 	N 	0.4908	0.9852	0.877	-0.092
Mof_N 	N 	0.2317	0.9247	0.7196	-0.26
Mof_N 	N 	0.3105	0.7871	0.7252	-0.267
Mof_N 	N 	0.3437	0.0236	0.8001	-0.259
Mof_C 	C 	0.9826	0.0694	0.5854	0.723
Mof_C 	C 	0.9481	0.0366	0.6172	-0.428
Mof_H 	H 	0.9596	0.9912	0.6517	0.262
Mof_C 	C 	0.8954	0.0728	0.5967	0.484
Mof_C 	C 	0.877	0.1366	0.5447	-0.36
Mof_H 	H 	0.8411	0.1602	0.5313	0.199
Mof_C 	C 	0.9123	0.1659	0.512	0.525
Mof_C 	C 	0.9652	0.1336	0.5319	-0.439
Mof_H 	H 	0.989	0.1548	0.5096	0.27
Mof_C 	C 	0.0549	0.9738	0.6541	0.097
Mof_H 	H 	0.0531	0.9816	0.7095	-0.008
Mof_H 	H 	0.0296	0.93	0.6226	-0.055
Mof_C 	C 	0.2018	0.9799	0.6622	0.061
Mof_H 	H 	0.2208	0.0084	0.6364	-0.027
Mof_C 	C 	0.1449	0.9976	0.6385	-0.118
Mof_H 	H 	0.1258	0.0378	0.5978	0.073
Mof_C 	C 	0.116	0.9568	0.6741	0.052
Mof_C 	C 	0.1461	0.8983	0.7313	-0.12
Mof_H 	H 	0.1278	0.8682	0.7568	0.051
Mof_C 	C 	0.2026	0.8834	0.7515	0.066
Mof_H 	H 	0.2219	0.8419	0.7898	-0.028
Mof_C 	C 	0.8084	0.0677	0.6109	0.001
Mof_H 	H 	0.787	0.0736	0.5463	0.014
Mof_H 	H 	0.7871	0.0302	0.6278	0.032
Mof_C 	C 	0.3518	0.7353	0.7682	0.101
Mof_H 	H 	0.3823	0.7482	0.8246	-0.018
Mof_C 	C 	0.3524	0.6632	0.7341	-0.139
Mof_H 	H 	0.3825	0.6279	0.7671	0.119
Mof_C 	C 	0.8094	0.1437	0.653	0.102
Mof_C 	C 	0.7657	0.1963	0.6091	-0.145
Mof_H 	H 	0.7344	0.1841	0.5532	0.071
Mof_C 	C 	0.2677	0.7668	0.647	0.085
Mof_H 	H 	0.2373	0.8023	0.6159	-0.022
Mof_C 	C 	0.922	0.2614	0.4196	-0.068
Mof_H 	H 	0.9228	0.2256	0.3757	0.06
Mof_H 	H 	0.9624	0.2715	0.4649	0.116
Mof_C 	C 	0.3726	0.067	0.7692	0.087
Mof_H 	H 	0.3766	0.0488	0.7205	-0.031
Mof_C 	C 	0.3967	0.1371	0.8055	-0.163
Mof_H 	H 	0.4163	0.1659	0.7808	0.07
Mof_C 	C 	0.8928	0.3347	0.3762	0.155
Mof_C 	C 	0.8617	0.3781	0.4066	-0.181
Mof_H 	H 	0.8567	0.3605	0.4547	0.111
Mof_C 	C 	0.3381	0.0532	0.8668	0.082
Mof_H 	H 	0.3164	0.0251	0.8884	-0.037
Mof_C 	C 	0.4322	0.8362	0.7609	0.453
Mof_H 	H 	0.405	0.8106	0.7092	-0.027
Mof_C 	C 	0.449	0.9394	0.8747	0.141
Mof_H 	H 	0.4434	0.9366	0.9251	-0.046
Mof_C 	C 	0.5257	0.8491	0.8835	0.148
Mof_H 	H 	0.5064	0.8481	0.9202	-0.007
Mof_H 	H 	0.5609	0.8179	0.9109	0.057
Mof_H 	H 	0.5359	0.902	0.8777	-0.01
Mof_C 	C 	0.4988	0.0026	0.8016	-0.153
Mof_H 	H 	0.4654	0.9842	0.7482	0.064
Mof_H 	H 	0.5026	0.0581	0.7976	0.062
Mof_H 	H 	0.534	0.9773	0.808	0.052
Mof_H 	H 	0.4749	0.7684	0.6866	-0.785
Mof_H 	H 	0.5405	0.7692	0.7635	-0.84
Mof_H 	H 	0.4947	0.7115	0.7685	-0.559
Mof_C 	C 	0.5286	0.0261	0.9578	-0.279
Mof_H 	H 	0.517	0.0147	0.0028	0.113
Mof_H 	H 	0.5687	0.0098	0.9785	0.096
Mof_H 	H 	0.5254	0.0813	0.9462	0.101
Mof_Co	Co	0.17809	0.40577	0.73947	1.083
Mof_O 	O 	0.46448	0.5402	0.8981	-0.252
Mof_O 	O 	0.63522	0.53796	0.8649	-0.25
Mof_O 	O 	0.61061	0.729	0.0409	-0.24
Mof_O 	O 	0.0882	0.3936	0.7021	-0.636
Mof_N 	N 	0.0143	0.3176	0.7056	-1.396
Mof_N 	N 	0.0092	0.4852	0.623	0.217
Mof_N 	N 	0.2683	0.4247	0.7804	-0.267
Mof_N 	N 	0.1895	0.2871	0.7748	-0.277
Mof_N 	N 	0.1563	0.5236	0.6999	-0.252
Mof_C 	C 	0.5174	0.5694	0.9146	0.359
Mof_C 	C 	0.5519	0.5366	0.8828	-0.344
Mof_H 	H 	0.5404	0.4912	0.8483	0.155
Mof_C 	C 	0.6046	0.5728	0.9033	0.346
Mof_C 	C 	0.623	0.6366	0.9553	-0.348
Mof_H 	H 	0.6589	0.6602	0.9687	0.161
Mof_C 	C 	0.5877	0.6659	0.988	0.35
Mof_C 	C 	0.5348	0.6336	0.9681	-0.349
Mof_H 	H 	0.511	0.6548	0.9904	0.157
Mof_C 	C 	0.4451	0.4738	0.8459	-0.025
Mof_H 	H 	0.4469	0.4816	0.7905	0.05
Mof_H 	H 	0.4704	0.43	0.8774	0.034
Mof_C 	C 	0.2982	0.4799	0.8378	0.087
Mof_H 	H 	0.2792	0.5084	0.8636	-0.034
Mof_C 	C 	0.3551	0.4976	0.8615	-0.156
Mof_H 	H 	0.3742	0.5378	0.9022	0.094
Mof_C 	C 	0.384	0.4568	0.8259	0.112
Mof_C 	C 	0.3539	0.3983	0.7687	-0.16
Mof_H 	H 	0.3722	0.3682	0.7432	0.077
Mof_C 	C 	0.2974	0.3834	0.7485	0.089
Mof_H 	H 	0.2781	0.3419	0.7102	-0.035
Mof_C 	C 	0.6916	0.5677	0.8891	-0.02
Mof_H 	H 	0.713	0.5736	0.9537	0.02
Mof_H 	H 	0.7129	0.5302	0.8722	0.037
Mof_C 	C 	0.1482	0.2353	0.7318	0.148
Mof_H 	H 	0.1177	0.2482	0.6754	-0.022
Mof_C 	C 	0.1476	0.1632	0.7659	-0.091
Mof_H 	H 	0.1175	0.1279	0.7329	0.153
Mof_C 	C 	0.6906	0.6437	0.847	0.098
Mof_C 	C 	0.7343	0.6963	0.8909	-0.159
Mof_H 	H 	0.7656	0.6841	0.9468	0.079
Mof_C 	C 	0.2323	0.2668	0.853	0.094
Mof_H 	H 	0.2627	0.3023	0.8841	-0.027
Mof_C 	C 	0.578	0.7614	0.0804	-0.04
Mof_H 	H 	0.5772	0.7256	0.1243	0.04
Mof_H 	H 	0.5376	0.7715	0.0351	0.045
Mof_C 	C 	0.1274	0.567	0.7308	0.073
Mof_H 	H 	0.1234	0.5488	0.7795	-0.033
Mof_C 	C 	0.1033	0.6371	0.6945	-0.167
Mof_H 	H 	0.0837	0.6659	0.7192	0.037
Mof_C 	C 	0.6072	0.8347	0.1238	0.111
Mof_C 	C 	0.6383	0.8781	0.0934	-0.161
Mof_H 	H 	0.6433	0.8605	0.0453	0.092
Mof_C 	C 	0.1619	0.5532	0.6332	0.081
Mof_H 	H 	0.1836	0.5251	0.6116	-0.034
Mof_C 	C 	0.0678	0.3362	0.7391	1.247
Mof_H 	H 	0.095	0.3106	0.7908	0.019
Mof_C 	C 	0.051	0.4394	0.6253	0.035
Mof_H 	H 	0.0566	0.4366	0.5749	-0.012
Mof_C 	C 	0.9743	0.3491	0.6165	1.467
Mof_H 	H 	0.9936	0.3481	0.5798	-0.29
Mof_H 	H 	0.9391	0.3179	0.5891	-0.114
Mof_H 	H 	0.9641	0.402	0.6223	-0.371
Mof_C 	C 	0.0012	0.5026	0.6984	-3.005
Mof_H 	H 	0.0346	0.4842	0.7518	1.158
Mof_H 	H 	0.9974	0.5581	0.7024	1.111
Mof_H 	H 	0.966	0.4773	0.692	1.309
Mof_H 	H 	0.0251	0.2684	0.8134	-3.196
Mof_H 	H 	0.9595	0.2692	0.7365	-3.244
Mof_H 	H 	0.0053	0.2115	0.7315	-2.363
Mof_C 	C 	0.9714	0.5261	0.5422	-0.377
Mof_H 	H 	0.983	0.5147	0.4972	0.276
Mof_H 	H 	0.9313	0.5098	0.5215	0.158
Mof_H 	H 	0.9746	0.5813	0.5538	0.204
Mof_Co	Co	0.67809	0.90577	0.73947	1.08
Mof_O 	O 	0.96448	0.0402	0.8981	-0.024
Mof_O 	O 	0.13522	0.03796	0.8649	-0.222
Mof_O 	O 	0.11061	0.229	0.0409	-0.2
Mof_O 	O 	0.5882	0.8936	0.7021	-0.465
Mof_N 	N 	0.5143	0.8176	0.7056	-0.429
Mof_N 	N 	0.5092	0.9852	0.623	-0.094
Mof_N 	N 	0.7683	0.9247	0.7804	-0.277
Mof_N 	N 	0.6895	0.7871	0.7748	-0.267
Mof_N 	N 	0.6563	0.0236	0.6999	-0.259
Mof_C 	C 	0.0174	0.0694	0.9146	0.093
Mof_C 	C 	0.0519	0.0366	0.8828	-0.139
Mof_H 	H 	0.0404	0.9912	0.8483	0.041
Mof_C 	C 	0.1046	0.0728	0.9033	0.296
Mof_C 	C 	0.123	0.1366	0.9553	-0.197
Mof_H 	H 	0.1589	0.1602	0.9687	0.141
Mof_C 	C 	0.0877	0.1659	0.988	0.324
Mof_C 	C 	0.0348	0.1336	0.9681	-0.14
Mof_H 	H 	0.011	0.1548	0.9904	0.056
Mof_C 	C 	0.9451	0.9738	0.8459	-0.172
Mof_H 	H 	0.9469	0.9816	0.7905	0.156
Mof_H 	H 	0.9704	0.93	0.8774	0.122
Mof_C 	C 	0.7982	0.9799	0.8378	0.107
Mof_H 	H 	0.7792	0.0084	0.8636	-0.04
Mof_C 	C 	0.8551	0.9976	0.8615	-0.215
Mof_H 	H 	0.8742	0.0378	0.9022	0.124
Mof_C 	C 	0.884	0.9568	0.8259	0.185
Mof_C 	C 	0.8539	0.8983	0.7687	-0.211
Mof_H 	H 	0.8722	0.8682	0.7432	0.106
Mof_C 	C 	0.7974	0.8834	0.7485	0.114
Mof_H 	H 	0.7781	0.8419	0.7102	-0.039
Mof_C 	C 	0.1916	0.0677	0.8891	-0.017
Mof_H 	H 	0.213	0.0736	0.9537	0.018
Mof_H 	H 	0.2129	0.0302	0.8722	0.034
Mof_C 	C 	0.6482	0.7353	0.7318	0.1
Mof_H 	H 	0.6177	0.7482	0.6754	-0.016
Mof_C 	C 	0.6476	0.6632	0.7659	-0.138
Mof_H 	H 	0.6175	0.6279	0.7329	0.118
Mof_C 	C 	0.1906	0.1437	0.847	0.111
Mof_C 	C 	0.2343	0.1963	0.8909	-0.151
Mof_H 	H 	0.2656	0.1841	0.9468	0.072
Mof_C 	C 	0.7323	0.7668	0.853	0.084
Mof_H 	H 	0.7627	0.8023	0.8841	-0.027
Mof_C 	C 	0.078	0.2614	0.0804	-0.029
Mof_H 	H 	0.0772	0.2256	0.1243	0.019
Mof_H 	H 	0.0376	0.2715	0.0351	0.033
Mof_C 	C 	0.6274	0.067	0.7308	0.088
Mof_H 	H 	0.6234	0.0488	0.7795	-0.032
Mof_C 	C 	0.6033	0.1371	0.6945	-0.165
Mof_H 	H 	0.5837	0.1659	0.7192	0.071
Mof_C 	C 	0.1072	0.3347	0.1238	0.094
Mof_C 	C 	0.1383	0.3781	0.0934	-0.156
Mof_H 	H 	0.1433	0.3605	0.0453	0.105
Mof_C 	C 	0.6619	0.0532	0.6332	0.083
Mof_H 	H 	0.6836	0.0251	0.6116	-0.037
Mof_C 	C 	0.5678	0.8362	0.7391	0.453
Mof_H 	H 	0.595	0.8106	0.7908	-0.028
Mof_C 	C 	0.551	0.9394	0.6253	0.141
Mof_H 	H 	0.5566	0.9366	0.5749	-0.045
Mof_C 	C 	0.4743	0.8491	0.6165	0.142
Mof_H 	H 	0.4936	0.8481	0.5798	-0.002
Mof_H 	H 	0.4391	0.8179	0.5891	0.063
Mof_H 	H 	0.4641	0.902	0.6223	-0.007
Mof_C 	C 	0.5012	0.0026	0.6984	-0.161
Mof_H 	H 	0.5346	0.9842	0.7518	0.067
Mof_H 	H 	0.4974	0.0581	0.7024	0.065
Mof_H 	H 	0.466	0.9773	0.692	0.057
Mof_H 	H 	0.5251	0.7684	0.8134	-0.785
Mof_H 	H 	0.4595	0.7692	0.7365	-0.839
Mof_H 	H 	0.5053	0.7115	0.7315	-0.559
Mof_C 	C 	0.4714	0.0261	0.5422	-0.25
Mof_H 	H 	0.483	0.0147	0.4972	0.089
Mof_H 	H 	0.4313	0.0098	0.5215	0.091
Mof_H 	H 	0.4746	0.0813	0.5538	0.094
Mof_C 	C 	9.09938e-34	0.7373	0.25	14.575
Mof_C 	C 	0.5	0.2373	0.25	3.894
Mof_C 	C 	3.26331e-17	0.2627	0.75	14.532
Mof_C 	C 	0.5	0.7627	0.75	3.878
_end
