data_functionalizedCrystal
_audit_creation_method	'EQeq! by Chris Wilmer'
_symmetry_space_group_name_H-M	'P1'
_symmetry_Int_Tables_number	1
_symmetry_cell_setting	triclinic
loop_
_symmetry_equiv_pos_as_xyz
  x,y,z
_cell_length_a	12.6065
_cell_length_b	10.137
_cell_length_c	17.5701
_cell_angle_alpha	90
_cell_angle_beta	90
_cell_angle_gamma	90
loop_
_atom_site_label
_atom_site_type_symbol
_atom_site_fract_x
_atom_site_fract_y
_atom_site_fract_z
_atom_site_charge
Mof_O 	O 	0.8532	0.4484	0.91402	-0.376
Mof_O 	O 	0.777	0.2661	0.8747	-0.337
Mof_N 	N 	0.0326	0.0531	0.1635	-0.139
Mof_N 	N 	0.9794	0.958	0.2025	-0.074
Mof_N 	N 	0.1351	0.9979	0.2576	-0.196
Mof_C 	C 	0.8379	0.3243	0.919	0.355
Mof_C 	C 	0.8929	0.2519	0.9805	-0.192
Mof_C 	C 	0.977	0.3046	0.0183	0.12
Mof_H 	H 	0.0037	0.3858	0.0029	0.021
Mof_C 	C 	0.0248	0.2396	0.0801	-0.217
Mof_H 	H 	0.0814	0.2774	0.1062	0.12
Mof_C 	C 	0.9855	0.119	0.1009	0.227
Mof_C 	C 	0.9011	0.0646	0.0638	-0.345
Mof_H 	H 	0.8739	0.9837	0.0793	0.198
Mof_C 	C 	0.8566	0.1308	0.0029	0.189
Mof_H 	H 	0.8006	0.0922	0.9766	-0.032
Mof_C 	C 	0.044	0.9276	0.2574	0.122
Mof_H 	H 	0.0289	0.863	0.2934	0.009
Mof_C 	C 	0.1245	0.0758	0.197	0.051
Mof_H 	H 	0.1745	0.1371	0.1807	0.024
Mof_O 	O 	0.6468	0.5516	0.91402	-0.369
Mof_O 	O 	0.723	0.7339	0.8747	-0.318
Mof_N 	N 	0.4674	0.9469	0.1635	-0.102
Mof_N 	N 	0.5206	0.042	0.2025	-0.11
Mof_N 	N 	0.3649	0.0021	0.2576	-0.257
Mof_C 	C 	0.6621	0.6757	0.919	0.322
Mof_C 	C 	0.6071	0.7481	0.9805	-0.101
Mof_C 	C 	0.523	0.6954	0.0183	0.058
Mof_H 	H 	0.4963	0.6142	0.0029	0.039
Mof_C 	C 	0.4752	0.7604	0.0801	-0.146
Mof_H 	H 	0.4186	0.7226	0.1062	0.097
Mof_C 	C 	0.5145	0.881	0.1009	0.136
Mof_C 	C 	0.5989	0.9354	0.0638	-0.055
Mof_H 	H 	0.6261	0.0163	0.0793	0.04
Mof_C 	C 	0.6434	0.8692	0.0029	0.023
Mof_H 	H 	0.6994	0.9078	0.9766	0.053
Mof_C 	C 	0.456	0.0724	0.2574	0.1
Mof_H 	H 	0.4711	0.137	0.2934	0.008
Mof_C 	C 	0.3755	0.9242	0.197	0.149
Mof_H 	H 	0.3255	0.8629	0.1807	0.002
Mof_O 	O 	0.3532	0.0516	0.41402	-0.393
Mof_O 	O 	0.277	0.2339	0.3747	-0.334
Mof_N 	N 	0.5326	0.4469	0.6635	-0.126
Mof_N 	N 	0.4794	0.542	0.7025	-0.089
Mof_N 	N 	0.6351	0.5021	0.7576	-0.229
Mof_C 	C 	0.3379	0.1757	0.419	0.349
Mof_C 	C 	0.3929	0.2481	0.4805	-0.172
Mof_C 	C 	0.477	0.1954	0.5183	0.12
Mof_H 	H 	0.5037	0.1142	0.5029	0.004
Mof_C 	C 	0.5248	0.2604	0.5801	-0.215
Mof_H 	H 	0.5814	0.2226	0.6062	0.113
Mof_C 	C 	0.4855	0.381	0.6009	0.202
Mof_C 	C 	0.4011	0.4354	0.5638	-0.221
Mof_H 	H 	0.3739	0.5163	0.5793	0.127
Mof_C 	C 	0.3566	0.3692	0.5029	0.127
Mof_H 	H 	0.3006	0.4078	0.4766	0.003
Mof_C 	C 	0.544	0.5724	0.7574	0.109
Mof_H 	H 	0.5289	0.637	0.7934	0.009
Mof_C 	C 	0.6245	0.4242	0.697	0.1
Mof_H 	H 	0.6745	0.3629	0.6807	0.011
Mof_O 	O 	0.1468	0.9484	0.41402	-0.349
Mof_O 	O 	0.223	0.7661	0.3747	-0.322
Mof_N 	N 	0.9674	0.5531	0.6635	-0.129
Mof_N 	N 	0.0206	0.458	0.7025	-0.088
Mof_N 	N 	0.8649	0.4979	0.7576	-0.229
Mof_C 	C 	0.1621	0.8243	0.419	0.345
Mof_C 	C 	0.1071	0.7519	0.4805	-0.165
Mof_C 	C 	0.023	0.8046	0.5183	0.133
Mof_H 	H 	0.9963	0.8858	0.5029	0.022
Mof_C 	C 	0.9752	0.7396	0.5801	-0.221
Mof_H 	H 	0.9186	0.7774	0.6062	0.129
Mof_C 	C 	0.0145	0.619	0.6009	0.212
Mof_C 	C 	0.0989	0.5646	0.5638	-0.222
Mof_H 	H 	0.1261	0.4837	0.5793	0.127
Mof_C 	C 	0.1434	0.6308	0.5029	0.13
Mof_H 	H 	0.1994	0.5922	0.4766	0.003
Mof_C 	C 	0.956	0.4276	0.7574	0.107
Mof_H 	H 	0.9711	0.363	0.7934	0.007
Mof_C 	C 	0.8755	0.5758	0.697	0.102
Mof_H 	H 	0.8255	0.6371	0.6807	0.012
Mof_Cu	Cu	0.75	0.5	0.83472	0.912
Mof_Cu	Cu	0.25	0	0.33472	0.893
Mof_O 	O 	0.6468	0.9484	0.58598	-0.348
Mof_O 	O 	0.723	0.7661	0.6253	-0.321
Mof_N 	N 	0.4674	0.5531	0.3365	-0.124
Mof_N 	N 	0.5206	0.458	0.2975	-0.09
Mof_N 	N 	0.3649	0.4979	0.2424	-0.229
Mof_C 	C 	0.6621	0.8243	0.581	0.339
Mof_C 	C 	0.6071	0.7519	0.5195	-0.152
Mof_C 	C 	0.523	0.8046	0.4817	0.109
Mof_H 	H 	0.4963	0.8858	0.4971	0.033
Mof_C 	C 	0.4752	0.7396	0.4199	-0.198
Mof_H 	H 	0.4186	0.7774	0.3938	0.121
Mof_C 	C 	0.5145	0.619	0.3991	0.196
Mof_C 	C 	0.5989	0.5646	0.4362	-0.209
Mof_H 	H 	0.6261	0.4837	0.4207	0.122
Mof_C 	C 	0.6434	0.6308	0.4971	0.116
Mof_H 	H 	0.6994	0.5922	0.5234	0.007
Mof_C 	C 	0.456	0.4276	0.2426	0.11
Mof_H 	H 	0.4711	0.363	0.2066	0.007
Mof_C 	C 	0.3755	0.5758	0.303	0.101
Mof_H 	H 	0.3255	0.6371	0.3193	0.013
Mof_O 	O 	0.8532	0.0516	0.58598	-0.392
Mof_O 	O 	0.777	0.2339	0.6253	-0.332
Mof_N 	N 	0.0326	0.4469	0.3365	-0.119
Mof_N 	N 	0.9794	0.542	0.2975	-0.094
Mof_N 	N 	0.1351	0.5021	0.2424	-0.229
Mof_C 	C 	0.8379	0.1757	0.581	0.341
Mof_C 	C 	0.8929	0.2481	0.5195	-0.152
Mof_C 	C 	0.977	0.1954	0.4817	0.084
Mof_H 	H 	0.0037	0.1142	0.4971	0.02
Mof_C 	C 	0.0248	0.2604	0.4199	-0.18
Mof_H 	H 	0.0814	0.2226	0.3938	0.102
Mof_C 	C 	0.9855	0.381	0.3991	0.177
Mof_C 	C 	0.9011	0.4354	0.4362	-0.2
Mof_H 	H 	0.8739	0.5163	0.4207	0.12
Mof_C 	C 	0.8566	0.3692	0.4971	0.107
Mof_H 	H 	0.8006	0.4078	0.5234	0.01
Mof_C 	C 	0.044	0.5724	0.2426	0.114
Mof_H 	H 	0.0289	0.637	0.2066	0.009
Mof_C 	C 	0.1245	0.4242	0.303	0.099
Mof_H 	H 	0.1745	0.3629	0.3193	0.012
Mof_O 	O 	0.1468	0.5516	0.08598	-0.367
Mof_O 	O 	0.223	0.7339	0.1253	-0.317
Mof_N 	N 	0.9674	0.9469	0.8365	-0.103
Mof_N 	N 	0.0206	0.042	0.7975	-0.107
Mof_N 	N 	0.8649	0.0021	0.7424	-0.257
Mof_C 	C 	0.1621	0.6757	0.081	0.318
Mof_C 	C 	0.1071	0.7481	0.0195	-0.09
Mof_C 	C 	0.023	0.6954	0.9817	0.053
Mof_H 	H 	0.9963	0.6142	0.9971	0.039
Mof_C 	C 	0.9752	0.7604	0.9199	-0.145
Mof_H 	H 	0.9186	0.7226	0.8938	0.096
Mof_C 	C 	0.0145	0.881	0.8991	0.135
Mof_C 	C 	0.0989	0.9354	0.9362	-0.051
Mof_H 	H 	0.1261	0.0163	0.9207	0.039
Mof_C 	C 	0.1434	0.8692	0.9971	0.01
Mof_H 	H 	0.1994	0.9078	0.0234	0.059
Mof_C 	C 	0.956	0.0724	0.7426	0.097
Mof_H 	H 	0.9711	0.137	0.7066	0.008
Mof_C 	C 	0.8755	0.9242	0.803	0.15
Mof_H 	H 	0.8255	0.8629	0.8193	0.002
Mof_O 	O 	0.3532	0.4484	0.08598	-0.378
Mof_O 	O 	0.277	0.2661	0.1253	-0.339
Mof_N 	N 	0.5326	0.0531	0.8365	-0.148
Mof_N 	N 	0.4794	0.958	0.7975	-0.07
Mof_N 	N 	0.6351	0.9979	0.7424	-0.195
Mof_C 	C 	0.3379	0.3243	0.081	0.364
Mof_C 	C 	0.3929	0.2519	0.0195	-0.215
Mof_C 	C 	0.477	0.3046	0.9817	0.164
Mof_H 	H 	0.5037	0.3858	0.9971	0.001
Mof_C 	C 	0.5248	0.2396	0.9199	-0.261
Mof_H 	H 	0.5814	0.2774	0.8938	0.134
Mof_C 	C 	0.4855	0.119	0.8991	0.257
Mof_C 	C 	0.4011	0.0646	0.9362	-0.367
Mof_H 	H 	0.3739	0.9837	0.9207	0.205
Mof_C 	C 	0.3566	0.1308	0.9971	0.209
Mof_H 	H 	0.3006	0.0922	0.0234	-0.038
Mof_C 	C 	0.544	0.9276	0.7426	0.119
Mof_H 	H 	0.5289	0.863	0.7066	0.01
Mof_C 	C 	0.6245	0.0758	0.803	0.051
Mof_H 	H 	0.6745	0.1371	0.8193	0.023
Mof_Cu	Cu	0.75	1.12427e-32	0.66528	0.892
Mof_Cu	Cu	0.25	0.5	0.16528	0.912
_end
