# CIF file generated by openbabel 3.1.0, see https://openbabel.org
data_I
_chemical_name_common 'image0'
_cell_length_a 24.1636
_cell_length_b 17.671
_cell_length_c 10.1065
_cell_angle_alpha 90
_cell_angle_beta 113.969
_cell_angle_gamma 90
_space_group_name_H-M_alt 'P 1'
_space_group_name_Hall 'P 1'
loop_
    _symmetry_equiv_pos_as_xyz
    x,y,z
loop_
    _atom_site_label
    _atom_site_type_symbol
    _atom_site_fract_x
    _atom_site_fract_y
    _atom_site_fract_z
    _atom_site_occupancy
    Cu1      Cu       0.27646    0.19298    0.96543    1.000
    O1       O        0.21980    0.12900    0.00260    1.000
    O2       O        0.17510    0.22590    0.06300    1.000
    O3       O        0.21300    0.20950    0.76980    1.000
    O4       O        0.16920    0.30680    0.83010    1.000
    C1       C        0.17980    0.15650    0.03430    1.000
    C2       C        0.12900    0.10810    0.03490    1.000
    C3       C        0.13720    0.03670    0.09780    1.000
    C4       C        0.08730    0.99380    0.08650    1.000
    H1       H        0.09280    0.94550    0.12910    1.000
    C5       C        0.02910    0.02230    0.01240    1.000
    C6       C        0.02090    0.09370    0.94950    1.000
    H2       H        0.98160    0.11290    0.89930    1.000
    C7       C        0.07090    0.13660    0.96080    1.000
    H3       H        0.06530    0.18490    0.91820    1.000
    C8       C        0.20160    0.00530    0.18200    1.000
    H4       H        0.23010    0.04690    0.21590    1.000
    H5       H        0.21260    0.97290    0.11910    1.000
    H6       H        0.20260    0.97620    0.26450    1.000
    C9       C        0.17270    0.25790    0.74330    1.000
    C10      C        0.12140    0.25770    0.59510    1.000
    C11      C        0.06500    0.28440    0.57960    1.000
    C12      C        0.01710    0.28550    0.44380    1.000
    H7       H        0.97900    0.30350    0.43340    1.000
    C13      C        0.02570    0.25980    0.32340    1.000
    C14      C        0.08210    0.23310    0.33890    1.000
    H8       H        0.08790    0.21580    0.25750    1.000
    C15      C        0.12990    0.23200    0.47470    1.000
    C16      C        0.04270    0.30940    0.69700    1.000
    H9       H        0.00080    0.32590    0.65110    1.000
    H10      H        0.06760    0.35090    0.75320    1.000
    H11      H        0.04570    0.26720    0.76120    1.000
    C17      C        0.18910    0.20000    0.47100    1.000
    H12      H        0.19100    0.21330    0.38020    1.000
    H13      H        0.18950    0.14540    0.48090    1.000
    H14      H        0.22370    0.22130    0.55080    1.000
    Cu2      Cu       0.77646    0.69298    0.96543    1.000
    O5       O        0.71980    0.62900    0.00260    1.000
    O6       O        0.67510    0.72590    0.06300    1.000
    O7       O        0.71300    0.70950    0.76980    1.000
    O8       O        0.66920    0.80680    0.83010    1.000
    C18      C        0.67980    0.65650    0.03430    1.000
    C19      C        0.62900    0.60810    0.03490    1.000
    C20      C        0.63720    0.53670    0.09780    1.000
    C21      C        0.58730    0.49380    0.08650    1.000
    H15      H        0.59280    0.44550    0.12910    1.000
    C22      C        0.52910    0.52230    0.01240    1.000
    C23      C        0.52090    0.59370    0.94950    1.000
    H16      H        0.48160    0.61290    0.89930    1.000
    C24      C        0.57090    0.63660    0.96080    1.000
    H17      H        0.56530    0.68490    0.91820    1.000
    C25      C        0.70160    0.50530    0.18200    1.000
    H18      H        0.73010    0.54690    0.21590    1.000
    H19      H        0.71260    0.47290    0.11910    1.000
    H20      H        0.70260    0.47620    0.26450    1.000
    C26      C        0.67270    0.75790    0.74330    1.000
    C27      C        0.62140    0.75770    0.59510    1.000
    C28      C        0.56500    0.78440    0.57960    1.000
    C29      C        0.51710    0.78550    0.44380    1.000
    H21      H        0.47900    0.80350    0.43340    1.000
    C30      C        0.52570    0.75980    0.32340    1.000
    C31      C        0.58210    0.73310    0.33890    1.000
    H22      H        0.58790    0.71580    0.25750    1.000
    C32      C        0.62990    0.73200    0.47470    1.000
    C33      C        0.54270    0.80940    0.69700    1.000
    H23      H        0.50080    0.82590    0.65110    1.000
    H24      H        0.56760    0.85090    0.75320    1.000
    H25      H        0.54570    0.76720    0.76120    1.000
    C34      C        0.68910    0.70000    0.47100    1.000
    H26      H        0.69100    0.71330    0.38020    1.000
    H27      H        0.68950    0.64540    0.48090    1.000
    H28      H        0.72370    0.72130    0.55080    1.000
    Cu3      Cu       0.72354    0.19298    0.53457    1.000
    O9       O        0.78020    0.12900    0.49740    1.000
    O10      O        0.82490    0.22590    0.43700    1.000
    O11      O        0.78700    0.20950    0.73020    1.000
    O12      O        0.83080    0.30680    0.66990    1.000
    C35      C        0.82020    0.15650    0.46570    1.000
    C36      C        0.87100    0.10810    0.46510    1.000
    C37      C        0.86280    0.03670    0.40220    1.000
    C38      C        0.91270    0.99380    0.41350    1.000
    H29      H        0.90720    0.94550    0.37090    1.000
    C39      C        0.97090    0.02230    0.48760    1.000
    C40      C        0.97910    0.09370    0.55050    1.000
    H30      H        0.01840    0.11290    0.60070    1.000
    C41      C        0.92910    0.13660    0.53920    1.000
    H31      H        0.93470    0.18490    0.58180    1.000
    C42      C        0.79840    0.00530    0.31800    1.000
    H32      H        0.76990    0.04690    0.28410    1.000
    H33      H        0.78740    0.97290    0.38090    1.000
    H34      H        0.79740    0.97620    0.23550    1.000
    C43      C        0.82730    0.25790    0.75670    1.000
    C44      C        0.87860    0.25770    0.90490    1.000
    C45      C        0.93500    0.28440    0.92040    1.000
    C46      C        0.98290    0.28550    0.05620    1.000
    H35      H        0.02100    0.30350    0.06660    1.000
    C47      C        0.97430    0.25980    0.17660    1.000
    C48      C        0.91790    0.23310    0.16110    1.000
    H36      H        0.91210    0.21580    0.24250    1.000
    C49      C        0.87010    0.23200    0.02530    1.000
    C50      C        0.95730    0.30940    0.80300    1.000
    H37      H        0.99920    0.32590    0.84890    1.000
    H38      H        0.93240    0.35090    0.74680    1.000
    H39      H        0.95430    0.26720    0.73880    1.000
    C51      C        0.81090    0.20000    0.02900    1.000
    H40      H        0.80900    0.21330    0.11980    1.000
    H41      H        0.81050    0.14540    0.01910    1.000
    H42      H        0.77630    0.22130    0.94920    1.000
    Cu4      Cu       0.22354    0.69298    0.53457    1.000
    O13      O        0.28020    0.62900    0.49740    1.000
    O14      O        0.32490    0.72590    0.43700    1.000
    O15      O        0.28700    0.70950    0.73020    1.000
    O16      O        0.33080    0.80680    0.66990    1.000
    C52      C        0.32020    0.65650    0.46570    1.000
    C53      C        0.37100    0.60810    0.46510    1.000
    C54      C        0.36280    0.53670    0.40220    1.000
    C55      C        0.41270    0.49380    0.41350    1.000
    H43      H        0.40720    0.44550    0.37090    1.000
    C56      C        0.47090    0.52230    0.48760    1.000
    C57      C        0.47910    0.59370    0.55050    1.000
    H44      H        0.51840    0.61290    0.60070    1.000
    C58      C        0.42910    0.63660    0.53920    1.000
    H45      H        0.43470    0.68490    0.58180    1.000
    C59      C        0.29840    0.50530    0.31800    1.000
    H46      H        0.26990    0.54690    0.28410    1.000
    H47      H        0.28740    0.47290    0.38090    1.000
    H48      H        0.29740    0.47620    0.23550    1.000
    C60      C        0.32730    0.75790    0.75670    1.000
    C61      C        0.37860    0.75770    0.90490    1.000
    C62      C        0.43500    0.78440    0.92040    1.000
    C63      C        0.48290    0.78550    0.05620    1.000
    H49      H        0.52100    0.80350    0.06660    1.000
    C64      C        0.47430    0.75980    0.17660    1.000
    C65      C        0.41790    0.73310    0.16110    1.000
    H50      H        0.41210    0.71580    0.24250    1.000
    C66      C        0.37010    0.73200    0.02530    1.000
    C67      C        0.45730    0.80940    0.80300    1.000
    H51      H        0.49920    0.82590    0.84890    1.000
    H52      H        0.43240    0.85090    0.74680    1.000
    H53      H        0.45430    0.76720    0.73880    1.000
    C68      C        0.31090    0.70000    0.02900    1.000
    H54      H        0.30900    0.71330    0.11980    1.000
    H55      H        0.31050    0.64540    0.01910    1.000
    H56      H        0.27630    0.72130    0.94920    1.000
    Cu5      Cu       0.72354    0.80702    0.03457    1.000
    O17      O        0.78020    0.87100    0.99740    1.000
    O18      O        0.82490    0.77410    0.93700    1.000
    O19      O        0.78700    0.79050    0.23020    1.000
    O20      O        0.83080    0.69320    0.16990    1.000
    C69      C        0.82020    0.84350    0.96570    1.000
    C70      C        0.87100    0.89190    0.96510    1.000
    C71      C        0.86280    0.96330    0.90220    1.000
    C72      C        0.91270    0.00620    0.91350    1.000
    H57      H        0.90720    0.05450    0.87090    1.000
    C73      C        0.97090    0.97770    0.98760    1.000
    C74      C        0.97910    0.90630    0.05050    1.000
    H58      H        0.01840    0.88710    0.10070    1.000
    C75      C        0.92910    0.86340    0.03920    1.000
    H59      H        0.93470    0.81510    0.08180    1.000
    C76      C        0.79840    0.99470    0.81800    1.000
    H60      H        0.76990    0.95310    0.78410    1.000
    H61      H        0.78740    0.02710    0.88090    1.000
    H62      H        0.79740    0.02380    0.73550    1.000
    C77      C        0.82730    0.74210    0.25670    1.000
    C78      C        0.87860    0.74230    0.40490    1.000
    C79      C        0.93500    0.71560    0.42040    1.000
    C80      C        0.98290    0.71450    0.55620    1.000
    H63      H        0.02100    0.69650    0.56660    1.000
    C81      C        0.97430    0.74020    0.67660    1.000
    C82      C        0.91790    0.76690    0.66110    1.000
    H64      H        0.91210    0.78420    0.74250    1.000
    C83      C        0.87010    0.76800    0.52530    1.000
    C84      C        0.95730    0.69060    0.30300    1.000
    H65      H        0.99920    0.67410    0.34890    1.000
    H66      H        0.93240    0.64910    0.24680    1.000
    H67      H        0.95430    0.73280    0.23880    1.000
    C85      C        0.81090    0.80000    0.52900    1.000
    H68      H        0.80900    0.78670    0.61980    1.000
    H69      H        0.81050    0.85460    0.51910    1.000
    H70      H        0.77630    0.77870    0.44920    1.000
    Cu6      Cu       0.22354    0.30702    0.03457    1.000
    O21      O        0.28020    0.37100    0.99740    1.000
    O22      O        0.32490    0.27410    0.93700    1.000
    O23      O        0.28700    0.29050    0.23020    1.000
    O24      O        0.33080    0.19320    0.16990    1.000
    C86      C        0.32020    0.34350    0.96570    1.000
    C87      C        0.37100    0.39190    0.96510    1.000
    C88      C        0.36280    0.46330    0.90220    1.000
    C89      C        0.41270    0.50620    0.91350    1.000
    H71      H        0.40720    0.55450    0.87090    1.000
    C90      C        0.47090    0.47770    0.98760    1.000
    C91      C        0.47910    0.40630    0.05050    1.000
    H72      H        0.51840    0.38710    0.10070    1.000
    C92      C        0.42910    0.36340    0.03920    1.000
    H73      H        0.43470    0.31510    0.08180    1.000
    C93      C        0.29840    0.49470    0.81800    1.000
    H74      H        0.26990    0.45310    0.78410    1.000
    H75      H        0.28740    0.52710    0.88090    1.000
    H76      H        0.29740    0.52380    0.73550    1.000
    C94      C        0.32730    0.24210    0.25670    1.000
    C95      C        0.37860    0.24230    0.40490    1.000
    C96      C        0.43500    0.21560    0.42040    1.000
    C97      C        0.48290    0.21450    0.55620    1.000
    H77      H        0.52100    0.19650    0.56660    1.000
    C98      C        0.47430    0.24020    0.67660    1.000
    C99      C        0.41790    0.26690    0.66110    1.000
    H78      H        0.41210    0.28420    0.74250    1.000
    C100     C        0.37010    0.26800    0.52530    1.000
    C101     C        0.45730    0.19060    0.30300    1.000
    H79      H        0.49920    0.17410    0.34890    1.000
    H80      H        0.43240    0.14910    0.24680    1.000
    H81      H        0.45430    0.23280    0.23880    1.000
    C102     C        0.31090    0.30000    0.52900    1.000
    H82      H        0.30900    0.28670    0.61980    1.000
    H83      H        0.31050    0.35460    0.51910    1.000
    H84      H        0.27630    0.27870    0.44920    1.000
    Cu7      Cu       0.27646    0.80702    0.46543    1.000
    O25      O        0.21980    0.87100    0.50260    1.000
    O26      O        0.17510    0.77410    0.56300    1.000
    O27      O        0.21300    0.79050    0.26980    1.000
    O28      O        0.16920    0.69320    0.33010    1.000
    C103     C        0.17980    0.84350    0.53430    1.000
    C104     C        0.12900    0.89190    0.53490    1.000
    C105     C        0.13720    0.96330    0.59780    1.000
    C106     C        0.08730    0.00620    0.58650    1.000
    H85      H        0.09280    0.05450    0.62910    1.000
    C107     C        0.02910    0.97770    0.51240    1.000
    C108     C        0.02090    0.90630    0.44950    1.000
    H86      H        0.98160    0.88710    0.39930    1.000
    C109     C        0.07090    0.86340    0.46080    1.000
    H87      H        0.06530    0.81510    0.41820    1.000
    C110     C        0.20160    0.99470    0.68200    1.000
    H88      H        0.23010    0.95310    0.71590    1.000
    H89      H        0.21260    0.02710    0.61910    1.000
    H90      H        0.20260    0.02380    0.76450    1.000
    C111     C        0.17270    0.74210    0.24330    1.000
    C112     C        0.12140    0.74230    0.09510    1.000
    C113     C        0.06500    0.71560    0.07960    1.000
    C114     C        0.01710    0.71450    0.94380    1.000
    H91      H        0.97900    0.69650    0.93340    1.000
    C115     C        0.02570    0.74020    0.82340    1.000
    C116     C        0.08210    0.76690    0.83890    1.000
    H92      H        0.08790    0.78420    0.75750    1.000
    C117     C        0.12990    0.76800    0.97470    1.000
    C118     C        0.04270    0.69060    0.19700    1.000
    H93      H        0.00080    0.67410    0.15110    1.000
    H94      H        0.06760    0.64910    0.25320    1.000
    H95      H        0.04570    0.73280    0.26120    1.000
    C119     C        0.18910    0.80000    0.97100    1.000
    H96      H        0.19100    0.78670    0.88020    1.000
    H97      H        0.18950    0.85460    0.98090    1.000
    H98      H        0.22370    0.77870    0.05080    1.000
    Cu8      Cu       0.77646    0.30702    0.46543    1.000
    O29      O        0.71980    0.37100    0.50260    1.000
    O30      O        0.67510    0.27410    0.56300    1.000
    O31      O        0.71300    0.29050    0.26980    1.000
    O32      O        0.66920    0.19320    0.33010    1.000
    C120     C        0.67980    0.34350    0.53430    1.000
    C121     C        0.62900    0.39190    0.53490    1.000
    C122     C        0.63720    0.46330    0.59780    1.000
    C123     C        0.58730    0.50620    0.58650    1.000
    H99      H        0.59280    0.55450    0.62910    1.000
    C124     C        0.52910    0.47770    0.51240    1.000
    C125     C        0.52090    0.40630    0.44950    1.000
    H100     H        0.48160    0.38710    0.39930    1.000
    C126     C        0.57090    0.36340    0.46080    1.000
    H101     H        0.56530    0.31510    0.41820    1.000
    C127     C        0.70160    0.49470    0.68200    1.000
    H102     H        0.73010    0.45310    0.71590    1.000
    H103     H        0.71260    0.52710    0.61910    1.000
    H104     H        0.70260    0.52380    0.76450    1.000
    C128     C        0.67270    0.24210    0.24330    1.000
    C129     C        0.62140    0.24230    0.09510    1.000
    C130     C        0.56500    0.21560    0.07960    1.000
    C131     C        0.51710    0.21450    0.94380    1.000
    H105     H        0.47900    0.19650    0.93340    1.000
    C132     C        0.52570    0.24020    0.82340    1.000
    C133     C        0.58210    0.26690    0.83890    1.000
    H106     H        0.58790    0.28420    0.75750    1.000
    C134     C        0.62990    0.26800    0.97470    1.000
    C135     C        0.54270    0.19060    0.19700    1.000
    H107     H        0.50080    0.17410    0.15110    1.000
    H108     H        0.56760    0.14910    0.25320    1.000
    H109     H        0.54570    0.23280    0.26120    1.000
    C136     C        0.68910    0.30000    0.97100    1.000
    H110     H        0.69100    0.28670    0.88020    1.000
    H111     H        0.68950    0.35460    0.98090    1.000
    H112     H        0.72370    0.27870    0.05080    1.000
