data_functionalizedCrystal
_audit_creation_method	'EQeq! by Chris Wilmer'
_symmetry_space_group_name_H-M	'P1'
_symmetry_Int_Tables_number	1
_symmetry_cell_setting	triclinic
loop_
_symmetry_equiv_pos_as_xyz
  x,y,z
_cell_length_a	11.7271
_cell_length_b	11.7707
_cell_length_c	18.2633
_cell_angle_alpha	90
_cell_angle_beta	98.704
_cell_angle_gamma	90
loop_
_atom_site_label
_atom_site_type_symbol
_atom_site_fract_x
_atom_site_fract_y
_atom_site_fract_z
_atom_site_charge
Mof_Ag	Ag	0.3557	0.60152	0.01521	0.58
Mof_Ag	Ag	0.35991	0.13228	0.50423	0.542
Mof_Ag	Ag	0.87883	0.60307	0.92201	0.557
Mof_Ag	Ag	0.6443	0.10152	0.98479	0.548
Mof_Ag	Ag	0.64009	0.63228	0.49577	0.561
Mof_Ag	Ag	0.12117	0.10307	0.07799	0.527
Mof_P 	P 	0.14456	0.91204	0.11485	0.044
Mof_P 	P 	0.59597	0.80869	0.44037	0.018
Mof_P 	P 	0.48655	0.71465	0.95908	0.027
Mof_P 	P 	0.85544	0.41204	0.88515	0.024
Mof_P 	P 	0.40403	0.30869	0.55963	0.019
Mof_P 	P 	0.51345	0.21465	0.04092	0.025
Mof_H 	H 	0.8998	0.7722	0.7603	0.044
Mof_H 	H 	0.1202	0.4494	0.7422	0.044
Mof_H 	H 	0.3138	0.853	0.068	0.033
Mof_H 	H 	0.2019	0.8155	0.0118	0.06
Mof_H 	H 	0.1686	0.9124	0.2469	0.077
Mof_H 	H 	0.2924	0.9123	0.2201	0.06
Mof_H 	H 	0.9778	0.8122	0.0591	0.062
Mof_H 	H 	0.9646	0.8456	0.1424	0.062
Mof_H 	H 	0.1389	0.5665	0.1029	0.026
Mof_H 	H 	0.0921	0.6513	0.0368	0.032
Mof_H 	H 	0.3713	0.7474	0.1816	0.02
Mof_H 	H 	0.3163	0.6257	0.1931	0.02
Mof_H 	H 	0.1177	0.6223	0.2313	0.047
Mof_H 	H 	0.059	0.7422	0.243	0.055
Mof_H 	H 	0.6334	0.0753	0.5085	0.019
Mof_H 	H 	0.5922	0.1544	0.4384	0.023
Mof_H 	H 	0.7798	0.8745	0.4211	0.069
Mof_H 	H 	0.7533	0.9167	0.5001	0.072
Mof_H 	H 	0.6925	0.9699	0.3091	0.086
Mof_H 	H 	0.6258	0.0874	0.3135	0.062
Mof_H 	H 	0.3716	0.9629	0.3569	0.08
Mof_H 	H 	0.4263	0.0841	0.3437	0.052
Mof_H 	H 	0.5185	0.9135	0.5325	0.033
Mof_H 	H 	0.4161	0.8697	0.4712	0.039
Mof_H 	H 	0.4616	0.7929	0.3292	0.052
Mof_H 	H 	0.5904	0.7917	0.3099	0.048
Mof_H 	H 	0.7513	0.8314	0.0023	0.028
Mof_H 	H 	0.7812	0.8784	0.9252	0.033
Mof_H 	H 	0.6259	0.5763	0.9388	0.022
Mof_H 	H 	0.6724	0.6484	0.0116	0.028
Mof_H 	H 	0.7054	0.7656	0.8103	0.033
Mof_H 	H 	0.6336	0.6528	0.8208	0.021
Mof_H 	H 	0.619	0.9499	0.8324	0.03
Mof_H 	H 	0.4919	0.9552	0.8536	0.025
Mof_H 	H 	0.5646	0.8617	0.0365	0.042
Mof_H 	H 	0.46	0.9083	0.9779	0.035
Mof_H 	H 	0.3739	0.7872	0.8507	0.069
Mof_H 	H 	0.4268	0.6664	0.8333	0.064
Mof_H 	H 	0.1002	0.2722	0.2397	0.038
Mof_H 	H 	0.8798	0.9494	0.2578	0.078
Mof_H 	H 	0.6862	0.353	0.932	0.029
Mof_H 	H 	0.7981	0.3155	0.9882	0.057
Mof_H 	H 	0.8314	0.4124	0.7531	0.069
Mof_H 	H 	0.7076	0.4123	0.7799	0.053
Mof_H 	H 	0.0222	0.3122	0.9409	0.058
Mof_H 	H 	0.0354	0.3456	0.8576	0.056
Mof_H 	H 	0.8611	0.0665	0.8971	0.017
Mof_H 	H 	0.9079	0.1513	0.9632	0.03
Mof_H 	H 	0.6287	0.2474	0.8184	0.017
Mof_H 	H 	0.6837	0.1257	0.8069	0.012
Mof_H 	H 	0.8823	0.1223	0.7687	0.04
Mof_H 	H 	0.941	0.2422	0.757	0.051
Mof_H 	H 	0.3666	0.5753	0.4915	0.026
Mof_H 	H 	0.4078	0.6544	0.5616	0.024
Mof_H 	H 	0.2202	0.3745	0.5789	0.072
Mof_H 	H 	0.2467	0.4167	0.4999	0.071
Mof_H 	H 	0.3075	0.4699	0.6909	0.05
Mof_H 	H 	0.3742	0.5874	0.6865	0.046
Mof_H 	H 	0.6284	0.4629	0.6431	0.042
Mof_H 	H 	0.5737	0.5841	0.6563	0.035
Mof_H 	H 	0.4815	0.4135	0.4675	0.031
Mof_H 	H 	0.5839	0.3697	0.5288	0.039
Mof_H 	H 	0.5384	0.2929	0.6708	0.049
Mof_H 	H 	0.4096	0.2917	0.6901	0.045
Mof_H 	H 	0.2487	0.3314	0.9977	0.026
Mof_H 	H 	0.2188	0.3784	0.0748	0.027
Mof_H 	H 	0.3741	0.0763	0.0612	0.014
Mof_H 	H 	0.3276	0.1484	0.9884	0.024
Mof_H 	H 	0.2946	0.2656	0.1897	0.03
Mof_H 	H 	0.3664	0.1528	0.1792	0.016
Mof_H 	H 	0.381	0.4499	0.1676	0.019
Mof_H 	H 	0.5081	0.4552	0.1464	0.014
Mof_H 	H 	0.4354	0.3617	0.9635	0.039
Mof_H 	H 	0.54	0.4083	0.0221	0.027
Mof_H 	H 	0.6261	0.2872	0.1493	0.065
Mof_H 	H 	0.5732	0.1664	0.1667	0.058
Mof_C 	C 	0.0999	0.5822	0.8087	-0.06
Mof_C 	C 	0.0331	0.6798	0.8137	-0.079
Mof_C 	C 	0.9435	0.7049	0.757	-0.011
Mof_C 	C 	0.9153	0.6333	0.6946	-0.061
Mof_C 	C 	0.9841	0.536	0.6885	-0.042
Mof_C 	C 	0.0738	0.5146	0.7461	-0.017
Mof_C 	C 	0.1936	0.5494	0.8707	0.298
Mof_C 	C 	0.0551	0.7655	0.8779	0.322
Mof_C 	C 	0.9677	0.4532	0.6251	0.298
Mof_C 	C 	0.8157	0.6606	0.6364	0.307
Mof_C 	C 	0.2359	0.819	0.0648	-0.102
Mof_C 	C 	0.2143	0.8783	0.2112	-0.11
Mof_C 	C 	0.0188	0.8152	0.1106	-0.103
Mof_C 	C 	0.1294	0.6477	0.0891	-0
Mof_C 	C 	0.298	0.7044	0.1761	-0.001
Mof_C 	C 	0.1095	0.7014	0.2129	-0.014
Mof_C 	C 	0.6022	0.0744	0.455	-0.008
Mof_C 	C 	0.7197	0.9076	0.4474	-0.087
Mof_C 	C 	0.6363	0.0102	0.3351	-0.086
Mof_C 	C 	0.4442	0.0072	0.3642	-0.084
Mof_C 	C 	0.4935	0.9052	0.4785	-0.064
Mof_C 	C 	0.5384	0.8291	0.3405	-0.099
Mof_C 	C 	0.7218	0.8387	0.9488	0.002
Mof_C 	C 	0.6329	0.654	0.9598	-0.09
Mof_C 	C 	0.6501	0.7309	0.8396	-0.003
Mof_C 	C 	0.5642	0.9106	0.86	0
Mof_C 	C 	0.5298	0.8599	0.9836	-0.09
Mof_C 	C 	0.4444	0.7398	0.859	-0.111
Mof_C 	C 	0.9001	0.0822	0.1913	-0.035
Mof_C 	C 	0.9669	0.1798	0.1863	-0.092
Mof_C 	C 	0.0565	0.2049	0.243	-0.004
Mof_C 	C 	0.0847	0.1333	0.3054	-0.069
Mof_C 	C 	0.0159	0.036	0.3115	-0.048
Mof_C 	C 	0.9262	0.0146	0.2539	-0.074
Mof_C 	C 	0.8064	0.0494	0.1293	0.255
Mof_C 	C 	0.9449	0.2655	0.1221	0.326
Mof_C 	C 	0.0323	0.9532	0.3749	0.316
Mof_C 	C 	0.1843	0.1606	0.3636	0.307
Mof_C 	C 	0.7641	0.319	0.9352	-0.099
Mof_C 	C 	0.7857	0.3783	0.7888	-0.104
Mof_C 	C 	0.9812	0.3152	0.8894	-0.098
Mof_C 	C 	0.8706	0.1477	0.9109	0.003
Mof_C 	C 	0.702	0.2044	0.8239	0.002
Mof_C 	C 	0.8905	0.2014	0.7871	-0.011
Mof_C 	C 	0.3978	0.5744	0.545	-0.006
Mof_C 	C 	0.2803	0.4076	0.5526	-0.109
Mof_C 	C 	0.3637	0.5102	0.6649	-0.012
Mof_C 	C 	0.5558	0.5072	0.6358	-0.012
Mof_C 	C 	0.5065	0.4052	0.5215	-0.085
Mof_C 	C 	0.4616	0.3291	0.6595	-0.099
Mof_C 	C 	0.2782	0.3387	0.0512	0.001
Mof_C 	C 	0.3671	0.154	0.0402	-0.088
Mof_C 	C 	0.3499	0.2309	0.1604	-0.001
Mof_C 	C 	0.4358	0.4106	0.14	0.007
Mof_C 	C 	0.4702	0.3599	0.0164	-0.09
Mof_C 	C 	0.5556	0.2398	0.141	-0.108
Mof_N 	N 	0.2468	0.7016	0.0954	-0.139
Mof_N 	N 	0.2231	0.7556	0.2235	-0.088
Mof_N 	N 	0.0539	0.7003	0.1351	-0.095
Mof_N 	N 	0.4848	0.0177	0.4448	-0.143
Mof_N 	N 	0.6864	0.021	0.4154	-0.089
Mof_N 	N 	0.5283	0.9515	0.3211	-0.06
Mof_N 	N 	0.6129	0.9094	0.9391	-0.133
Mof_N 	N 	0.7035	0.7246	0.9164	-0.134
Mof_N 	N 	0.5398	0.7986	0.8278	-0.092
Mof_N 	N 	0.7532	0.2016	0.9046	-0.14
Mof_N 	N 	0.7769	0.2556	0.7765	-0.09
Mof_N 	N 	0.9461	0.2003	0.8649	-0.098
Mof_N 	N 	0.5152	0.5177	0.5552	-0.14
Mof_N 	N 	0.3136	0.521	0.5846	-0.082
Mof_N 	N 	0.4717	0.4515	0.6789	-0.094
Mof_N 	N 	0.3871	0.4094	0.0609	-0.142
Mof_N 	N 	0.2965	0.2246	0.0836	-0.135
Mof_N 	N 	0.4602	0.2986	0.1722	-0.095
Mof_O 	O 	0.1853	0.5818	0.9336	-0.344
Mof_O 	O 	0.274	0.484	0.8556	-0.278
Mof_O 	O 	0.9862	0.762	0.9242	-0.339
Mof_O 	O 	0.1289	0.8387	0.8747	-0.263
Mof_O 	O 	0.0241	0.4691	0.573	-0.23
Mof_O 	O 	0.9055	0.3692	0.6311	-0.243
Mof_O 	O 	0.7547	0.7478	0.6451	-0.273
Mof_O 	O 	0.7938	0.5946	0.5835	-0.324
Mof_O 	O 	0.8147	0.0818	0.0664	-0.336
Mof_O 	O 	0.726	0.984	0.1444	-0.247
Mof_O 	O 	0.0138	0.262	0.0758	-0.341
Mof_O 	O 	0.8711	0.3387	0.1253	-0.272
Mof_O 	O 	0.9759	0.9691	0.427	-0.222
Mof_O 	O 	0.0945	0.8692	0.3689	-0.24
Mof_O 	O 	0.2453	0.2478	0.3549	-0.277
Mof_O 	O 	0.2062	0.0946	0.4165	-0.333
_end
