# CIF file generated by openbabel 3.1.0, see https://openbabel.org
data_I
_chemical_name_common 'image0'
_cell_length_a 36.577
_cell_length_b 36.577
_cell_length_c 36.577
_cell_angle_alpha 90
_cell_angle_beta 90
_cell_angle_gamma 90
_space_group_name_H-M_alt 'P 1'
_space_group_name_Hall 'P 1'
loop_
    _symmetry_equiv_pos_as_xyz
    x,y,z
loop_
    _atom_site_label
    _atom_site_type_symbol
    _atom_site_fract_x
    _atom_site_fract_y
    _atom_site_fract_z
    _atom_site_occupancy
    Cu1      Cu       0.89121    0.66882    0.58599    1.000
    Cu2      Cu       0.95348    0.73125    0.55481    1.000
    S1       S        0.96786    0.71144    0.45747    1.000
    S2       S        0.83165    0.68391    0.60106    1.000
    N1       N        0.93064    0.69517    0.52098    1.000
    N2       N        0.90394    0.66992    0.53304    1.000
    N3       N        0.91553    0.66052    0.47498    1.000
    H1       H        0.91470    0.65110    0.45350    1.000
    N4       N        0.87051    0.62237    0.50396    1.000
    H2       H        0.85820    0.61720    0.52330    1.000
    H3       H        0.86690    0.61030    0.48410    1.000
    N5       N        0.80537    0.61874    0.57352    1.000
    N6       N        0.78159    0.60714    0.54611    1.000
    N7       N        0.78422    0.66722    0.54531    1.000
    H4       H        0.78060    0.68960    0.53910    1.000
    N8       N        0.74460    0.63890    0.50200    1.000
    H5       H        0.73550    0.61910    0.49320    1.000
    H6       H        0.73810    0.65970    0.49320    1.000
    C1       C        0.93668    0.68903    0.48606    1.000
    C2       C        0.89606    0.64992    0.50478    1.000
    C3       C        0.80629    0.65491    0.57274    1.000
    C4       C        0.76927    0.63734    0.53000    1.000
    Cu3      Cu       0.89121    0.16882    0.08599    1.000
    Cu4      Cu       0.95348    0.23125    0.05481    1.000
    S3       S        0.96786    0.21144    0.95747    1.000
    S4       S        0.83165    0.18391    0.10106    1.000
    N9       N        0.93064    0.19517    0.02098    1.000
    N10      N        0.90394    0.16992    0.03304    1.000
    N11      N        0.91553    0.16052    0.97498    1.000
    H7       H        0.91470    0.15110    0.95350    1.000
    N12      N        0.87051    0.12237    0.00396    1.000
    H8       H        0.85820    0.11720    0.02330    1.000
    H9       H        0.86690    0.11030    0.98410    1.000
    N13      N        0.80537    0.11874    0.07352    1.000
    N14      N        0.78159    0.10714    0.04611    1.000
    N15      N        0.78422    0.16722    0.04531    1.000
    H10      H        0.78060    0.18960    0.03910    1.000
    N16      N        0.74460    0.13890    0.00200    1.000
    H11      H        0.73550    0.11910    0.99320    1.000
    H12      H        0.73810    0.15970    0.99320    1.000
    C5       C        0.93668    0.18903    0.98606    1.000
    C6       C        0.89606    0.14992    0.00478    1.000
    C7       C        0.80629    0.15491    0.07274    1.000
    C8       C        0.76927    0.13734    0.03000    1.000
    Cu5      Cu       0.39121    0.66882    0.08599    1.000
    Cu6      Cu       0.45348    0.73125    0.05481    1.000
    S5       S        0.46786    0.71144    0.95747    1.000
    S6       S        0.33165    0.68391    0.10106    1.000
    N17      N        0.43064    0.69517    0.02098    1.000
    N18      N        0.40394    0.66992    0.03304    1.000
    N19      N        0.41553    0.66052    0.97498    1.000
    H13      H        0.41470    0.65110    0.95350    1.000
    N20      N        0.37051    0.62237    0.00396    1.000
    H14      H        0.35820    0.61720    0.02330    1.000
    H15      H        0.36690    0.61030    0.98410    1.000
    N21      N        0.30537    0.61874    0.07352    1.000
    N22      N        0.28159    0.60714    0.04611    1.000
    N23      N        0.28422    0.66722    0.04531    1.000
    H16      H        0.28060    0.68960    0.03910    1.000
    N24      N        0.24460    0.63890    0.00200    1.000
    H17      H        0.23550    0.61910    0.99320    1.000
    H18      H        0.23810    0.65970    0.99320    1.000
    C9       C        0.43668    0.68903    0.98606    1.000
    C10      C        0.39606    0.64992    0.00478    1.000
    C11      C        0.30629    0.65491    0.07274    1.000
    C12      C        0.26927    0.63734    0.03000    1.000
    Cu7      Cu       0.39121    0.16882    0.58599    1.000
    Cu8      Cu       0.45348    0.23125    0.55481    1.000
    S7       S        0.46786    0.21144    0.45747    1.000
    S8       S        0.33165    0.18391    0.60106    1.000
    N25      N        0.43064    0.19517    0.52098    1.000
    N26      N        0.40394    0.16992    0.53304    1.000
    N27      N        0.41553    0.16052    0.47498    1.000
    H19      H        0.41470    0.15110    0.45350    1.000
    N28      N        0.37051    0.12237    0.50396    1.000
    H20      H        0.35820    0.11720    0.52330    1.000
    H21      H        0.36690    0.11030    0.48410    1.000
    N29      N        0.30537    0.11874    0.57352    1.000
    N30      N        0.28159    0.10714    0.54611    1.000
    N31      N        0.28422    0.16722    0.54531    1.000
    H22      H        0.28060    0.18960    0.53910    1.000
    N32      N        0.24460    0.13890    0.50200    1.000
    H23      H        0.23550    0.11910    0.49320    1.000
    H24      H        0.23810    0.15970    0.49320    1.000
    C13      C        0.43668    0.18903    0.48606    1.000
    C14      C        0.39606    0.14992    0.50478    1.000
    C15      C        0.30629    0.15491    0.57274    1.000
    C16      C        0.26927    0.13734    0.53000    1.000
    Cu9      Cu       0.10879    0.33118    0.58599    1.000
    Cu10     Cu       0.04652    0.26875    0.55481    1.000
    S9       S        0.03214    0.28856    0.45747    1.000
    S10      S        0.16835    0.31609    0.60106    1.000
    N33      N        0.06936    0.30483    0.52098    1.000
    N34      N        0.09606    0.33008    0.53304    1.000
    N35      N        0.08447    0.33948    0.47498    1.000
    H25      H        0.08530    0.34890    0.45350    1.000
    N36      N        0.12949    0.37763    0.50396    1.000
    H26      H        0.14180    0.38280    0.52330    1.000
    H27      H        0.13310    0.38970    0.48410    1.000
    N37      N        0.19463    0.38126    0.57352    1.000
    N38      N        0.21841    0.39286    0.54611    1.000
    N39      N        0.21578    0.33278    0.54531    1.000
    H28      H        0.21940    0.31040    0.53910    1.000
    N40      N        0.25540    0.36110    0.50200    1.000
    H29      H        0.26450    0.38090    0.49320    1.000
    H30      H        0.26190    0.34030    0.49320    1.000
    C17      C        0.06332    0.31097    0.48606    1.000
    C18      C        0.10394    0.35008    0.50478    1.000
    C19      C        0.19371    0.34509    0.57274    1.000
    C20      C        0.23073    0.36266    0.53000    1.000
    Cu11     Cu       0.10879    0.83118    0.08599    1.000
    Cu12     Cu       0.04652    0.76875    0.05481    1.000
    S11      S        0.03214    0.78856    0.95747    1.000
    S12      S        0.16835    0.81609    0.10106    1.000
    N41      N        0.06936    0.80483    0.02098    1.000
    N42      N        0.09606    0.83008    0.03304    1.000
    N43      N        0.08447    0.83948    0.97498    1.000
    H31      H        0.08530    0.84890    0.95350    1.000
    N44      N        0.12949    0.87763    0.00396    1.000
    H32      H        0.14180    0.88280    0.02330    1.000
    H33      H        0.13310    0.88970    0.98410    1.000
    N45      N        0.19463    0.88126    0.07352    1.000
    N46      N        0.21841    0.89286    0.04611    1.000
    N47      N        0.21578    0.83278    0.04531    1.000
    H34      H        0.21940    0.81040    0.03910    1.000
    N48      N        0.25540    0.86110    0.00200    1.000
    H35      H        0.26450    0.88090    0.99320    1.000
    H36      H        0.26190    0.84030    0.99320    1.000
    C21      C        0.06332    0.81097    0.98606    1.000
    C22      C        0.10394    0.85008    0.00478    1.000
    C23      C        0.19371    0.84509    0.07274    1.000
    C24      C        0.23073    0.86266    0.03000    1.000
    Cu13     Cu       0.60879    0.33118    0.08599    1.000
    Cu14     Cu       0.54652    0.26875    0.05481    1.000
    S13      S        0.53214    0.28856    0.95747    1.000
    S14      S        0.66835    0.31609    0.10106    1.000
    N49      N        0.56936    0.30483    0.02098    1.000
    N50      N        0.59606    0.33008    0.03304    1.000
    N51      N        0.58447    0.33948    0.97498    1.000
    H37      H        0.58530    0.34890    0.95350    1.000
    N52      N        0.62949    0.37763    0.00396    1.000
    H38      H        0.64180    0.38280    0.02330    1.000
    H39      H        0.63310    0.38970    0.98410    1.000
    N53      N        0.69463    0.38126    0.07352    1.000
    N54      N        0.71841    0.39286    0.04611    1.000
    N55      N        0.71578    0.33278    0.04531    1.000
    H40      H        0.71940    0.31040    0.03910    1.000
    N56      N        0.75540    0.36110    0.00200    1.000
    H41      H        0.76450    0.38090    0.99320    1.000
    H42      H        0.76190    0.34030    0.99320    1.000
    C25      C        0.56332    0.31097    0.98606    1.000
    C26      C        0.60394    0.35008    0.00478    1.000
    C27      C        0.69371    0.34509    0.07274    1.000
    C28      C        0.73073    0.36266    0.03000    1.000
    Cu15     Cu       0.60879    0.83118    0.58599    1.000
    Cu16     Cu       0.54652    0.76875    0.55481    1.000
    S15      S        0.53214    0.78856    0.45747    1.000
    S16      S        0.66835    0.81609    0.60106    1.000
    N57      N        0.56936    0.80483    0.52098    1.000
    N58      N        0.59606    0.83008    0.53304    1.000
    N59      N        0.58447    0.83948    0.47498    1.000
    H43      H        0.58530    0.84890    0.45350    1.000
    N60      N        0.62949    0.87763    0.50396    1.000
    H44      H        0.64180    0.88280    0.52330    1.000
    H45      H        0.63310    0.88970    0.48410    1.000
    N61      N        0.69463    0.88126    0.57352    1.000
    N62      N        0.71841    0.89286    0.54611    1.000
    N63      N        0.71578    0.83278    0.54531    1.000
    H46      H        0.71940    0.81040    0.53910    1.000
    N64      N        0.75540    0.86110    0.50200    1.000
    H47      H        0.76450    0.88090    0.49320    1.000
    H48      H        0.76190    0.84030    0.49320    1.000
    C29      C        0.56332    0.81097    0.48606    1.000
    C30      C        0.60394    0.85008    0.50478    1.000
    C31      C        0.69371    0.84509    0.57274    1.000
    C32      C        0.73073    0.86266    0.53000    1.000
    Cu17     Cu       0.10879    0.66882    0.41401    1.000
    Cu18     Cu       0.04652    0.73125    0.44519    1.000
    S17      S        0.03214    0.71144    0.54253    1.000
    S18      S        0.16835    0.68391    0.39894    1.000
    N65      N        0.06936    0.69517    0.47902    1.000
    N66      N        0.09606    0.66992    0.46696    1.000
    N67      N        0.08447    0.66052    0.52502    1.000
    H49      H        0.08530    0.65110    0.54650    1.000
    N68      N        0.12949    0.62237    0.49604    1.000
    H50      H        0.14180    0.61720    0.47670    1.000
    H51      H        0.13310    0.61030    0.51590    1.000
    N69      N        0.19463    0.61874    0.42648    1.000
    N70      N        0.21841    0.60714    0.45389    1.000
    N71      N        0.21578    0.66722    0.45469    1.000
    H52      H        0.21940    0.68960    0.46090    1.000
    N72      N        0.25540    0.63890    0.49800    1.000
    H53      H        0.26450    0.61910    0.50680    1.000
    H54      H        0.26190    0.65970    0.50680    1.000
    C33      C        0.06332    0.68903    0.51394    1.000
    C34      C        0.10394    0.64992    0.49522    1.000
    C35      C        0.19371    0.65491    0.42726    1.000
    C36      C        0.23073    0.63734    0.47000    1.000
    Cu19     Cu       0.10879    0.16882    0.91401    1.000
    Cu20     Cu       0.04652    0.23125    0.94519    1.000
    S19      S        0.03214    0.21144    0.04253    1.000
    S20      S        0.16835    0.18391    0.89894    1.000
    N73      N        0.06936    0.19517    0.97902    1.000
    N74      N        0.09606    0.16992    0.96696    1.000
    N75      N        0.08447    0.16052    0.02502    1.000
    H55      H        0.08530    0.15110    0.04650    1.000
    N76      N        0.12949    0.12237    0.99604    1.000
    H56      H        0.14180    0.11720    0.97670    1.000
    H57      H        0.13310    0.11030    0.01590    1.000
    N77      N        0.19463    0.11874    0.92648    1.000
    N78      N        0.21841    0.10714    0.95389    1.000
    N79      N        0.21578    0.16722    0.95469    1.000
    H58      H        0.21940    0.18960    0.96090    1.000
    N80      N        0.25540    0.13890    0.99800    1.000
    H59      H        0.26450    0.11910    0.00680    1.000
    H60      H        0.26190    0.15970    0.00680    1.000
    C37      C        0.06332    0.18903    0.01394    1.000
    C38      C        0.10394    0.14992    0.99522    1.000
    C39      C        0.19371    0.15491    0.92726    1.000
    C40      C        0.23073    0.13734    0.97000    1.000
    Cu21     Cu       0.60879    0.66882    0.91401    1.000
    Cu22     Cu       0.54652    0.73125    0.94519    1.000
    S21      S        0.53214    0.71144    0.04253    1.000
    S22      S        0.66835    0.68391    0.89894    1.000
    N81      N        0.56936    0.69517    0.97902    1.000
    N82      N        0.59606    0.66992    0.96696    1.000
    N83      N        0.58447    0.66052    0.02502    1.000
    H61      H        0.58530    0.65110    0.04650    1.000
    N84      N        0.62949    0.62237    0.99604    1.000
    H62      H        0.64180    0.61720    0.97670    1.000
    H63      H        0.63310    0.61030    0.01590    1.000
    N85      N        0.69463    0.61874    0.92648    1.000
    N86      N        0.71841    0.60714    0.95389    1.000
    N87      N        0.71578    0.66722    0.95469    1.000
    H64      H        0.71940    0.68960    0.96090    1.000
    N88      N        0.75540    0.63890    0.99800    1.000
    H65      H        0.76450    0.61910    0.00680    1.000
    H66      H        0.76190    0.65970    0.00680    1.000
    C41      C        0.56332    0.68903    0.01394    1.000
    C42      C        0.60394    0.64992    0.99522    1.000
    C43      C        0.69371    0.65491    0.92726    1.000
    C44      C        0.73073    0.63734    0.97000    1.000
    Cu23     Cu       0.60879    0.16882    0.41401    1.000
    Cu24     Cu       0.54652    0.23125    0.44519    1.000
    S23      S        0.53214    0.21144    0.54253    1.000
    S24      S        0.66835    0.18391    0.39894    1.000
    N89      N        0.56936    0.19517    0.47902    1.000
    N90      N        0.59606    0.16992    0.46696    1.000
    N91      N        0.58447    0.16052    0.52502    1.000
    H67      H        0.58530    0.15110    0.54650    1.000
    N92      N        0.62949    0.12237    0.49604    1.000
    H68      H        0.64180    0.11720    0.47670    1.000
    H69      H        0.63310    0.11030    0.51590    1.000
    N93      N        0.69463    0.11874    0.42648    1.000
    N94      N        0.71841    0.10714    0.45389    1.000
    N95      N        0.71578    0.16722    0.45469    1.000
    H70      H        0.71940    0.18960    0.46090    1.000
    N96      N        0.75540    0.13890    0.49800    1.000
    H71      H        0.76450    0.11910    0.50680    1.000
    H72      H        0.76190    0.15970    0.50680    1.000
    C45      C        0.56332    0.18903    0.51394    1.000
    C46      C        0.60394    0.14992    0.49522    1.000
    C47      C        0.69371    0.15491    0.42726    1.000
    C48      C        0.73073    0.13734    0.47000    1.000
    Cu25     Cu       0.89121    0.33118    0.41401    1.000
    Cu26     Cu       0.95348    0.26875    0.44519    1.000
    S25      S        0.96786    0.28856    0.54253    1.000
    S26      S        0.83165    0.31609    0.39894    1.000
    N97      N        0.93064    0.30483    0.47902    1.000
    N98      N        0.90394    0.33008    0.46696    1.000
    N99      N        0.91553    0.33948    0.52502    1.000
    H73      H        0.91470    0.34890    0.54650    1.000
    N100     N        0.87051    0.37763    0.49604    1.000
    H74      H        0.85820    0.38280    0.47670    1.000
    H75      H        0.86690    0.38970    0.51590    1.000
    N101     N        0.80537    0.38126    0.42648    1.000
    N102     N        0.78159    0.39286    0.45389    1.000
    N103     N        0.78422    0.33278    0.45469    1.000
    H76      H        0.78060    0.31040    0.46090    1.000
    N104     N        0.74460    0.36110    0.49800    1.000
    H77      H        0.73550    0.38090    0.50680    1.000
    H78      H        0.73810    0.34030    0.50680    1.000
    C49      C        0.93668    0.31097    0.51394    1.000
    C50      C        0.89606    0.35008    0.49522    1.000
    C51      C        0.80629    0.34509    0.42726    1.000
    C52      C        0.76927    0.36266    0.47000    1.000
    Cu27     Cu       0.89121    0.83118    0.91401    1.000
    Cu28     Cu       0.95348    0.76875    0.94519    1.000
    S27      S        0.96786    0.78856    0.04253    1.000
    S28      S        0.83165    0.81609    0.89894    1.000
    N105     N        0.93064    0.80483    0.97902    1.000
    N106     N        0.90394    0.83008    0.96696    1.000
    N107     N        0.91553    0.83948    0.02502    1.000
    H79      H        0.91470    0.84890    0.04650    1.000
    N108     N        0.87051    0.87763    0.99604    1.000
    H80      H        0.85820    0.88280    0.97670    1.000
    H81      H        0.86690    0.88970    0.01590    1.000
    N109     N        0.80537    0.88126    0.92648    1.000
    N110     N        0.78159    0.89286    0.95389    1.000
    N111     N        0.78422    0.83278    0.95469    1.000
    H82      H        0.78060    0.81040    0.96090    1.000
    N112     N        0.74460    0.86110    0.99800    1.000
    H83      H        0.73550    0.88090    0.00680    1.000
    H84      H        0.73810    0.84030    0.00680    1.000
    C53      C        0.93668    0.81097    0.01394    1.000
    C54      C        0.89606    0.85008    0.99522    1.000
    C55      C        0.80629    0.84509    0.92726    1.000
    C56      C        0.76927    0.86266    0.97000    1.000
    Cu29     Cu       0.39121    0.33118    0.91401    1.000
    Cu30     Cu       0.45348    0.26875    0.94519    1.000
    S29      S        0.46786    0.28856    0.04253    1.000
    S30      S        0.33165    0.31609    0.89894    1.000
    N113     N        0.43064    0.30483    0.97902    1.000
    N114     N        0.40394    0.33008    0.96696    1.000
    N115     N        0.41553    0.33948    0.02502    1.000
    H85      H        0.41470    0.34890    0.04650    1.000
    N116     N        0.37051    0.37763    0.99604    1.000
    H86      H        0.35820    0.38280    0.97670    1.000
    H87      H        0.36690    0.38970    0.01590    1.000
    N117     N        0.30537    0.38126    0.92648    1.000
    N118     N        0.28159    0.39286    0.95389    1.000
    N119     N        0.28422    0.33278    0.95469    1.000
    H88      H        0.28060    0.31040    0.96090    1.000
    N120     N        0.24460    0.36110    0.99800    1.000
    H89      H        0.23550    0.38090    0.00680    1.000
    H90      H        0.23810    0.34030    0.00680    1.000
    C57      C        0.43668    0.31097    0.01394    1.000
    C58      C        0.39606    0.35008    0.99522    1.000
    C59      C        0.30629    0.34509    0.92726    1.000
    C60      C        0.26927    0.36266    0.97000    1.000
    Cu31     Cu       0.39121    0.83118    0.41401    1.000
    Cu32     Cu       0.45348    0.76875    0.44519    1.000
    S31      S        0.46786    0.78856    0.54253    1.000
    S32      S        0.33165    0.81609    0.39894    1.000
    N121     N        0.43064    0.80483    0.47902    1.000
    N122     N        0.40394    0.83008    0.46696    1.000
    N123     N        0.41553    0.83948    0.52502    1.000
    H91      H        0.41470    0.84890    0.54650    1.000
    N124     N        0.37051    0.87763    0.49604    1.000
    H92      H        0.35820    0.88280    0.47670    1.000
    H93      H        0.36690    0.88970    0.51590    1.000
    N125     N        0.30537    0.88126    0.42648    1.000
    N126     N        0.28159    0.89286    0.45389    1.000
    N127     N        0.28422    0.83278    0.45469    1.000
    H94      H        0.28060    0.81040    0.46090    1.000
    N128     N        0.24460    0.86110    0.49800    1.000
    H95      H        0.23550    0.88090    0.50680    1.000
    H96      H        0.23810    0.84030    0.50680    1.000
    C61      C        0.43668    0.81097    0.51394    1.000
    C62      C        0.39606    0.85008    0.49522    1.000
    C63      C        0.30629    0.84509    0.42726    1.000
    C64      C        0.26927    0.86266    0.47000    1.000
    Cu33     Cu       0.58599    0.89121    0.66882    1.000
    Cu34     Cu       0.55481    0.95348    0.73125    1.000
    S33      S        0.45747    0.96786    0.71144    1.000
    S34      S        0.60106    0.83165    0.68391    1.000
    N129     N        0.52098    0.93064    0.69517    1.000
    N130     N        0.53304    0.90394    0.66992    1.000
    N131     N        0.47498    0.91553    0.66052    1.000
    H97      H        0.45350    0.91470    0.65110    1.000
    N132     N        0.50396    0.87051    0.62237    1.000
    H98      H        0.52330    0.85820    0.61720    1.000
    H99      H        0.48410    0.86690    0.61030    1.000
    N133     N        0.57352    0.80537    0.61874    1.000
    N134     N        0.54611    0.78159    0.60714    1.000
    N135     N        0.54531    0.78422    0.66722    1.000
    H100     H        0.53910    0.78060    0.68960    1.000
    N136     N        0.50200    0.74460    0.63890    1.000
    H101     H        0.49320    0.73550    0.61910    1.000
    H102     H        0.49320    0.73810    0.65970    1.000
    C65      C        0.48606    0.93668    0.68903    1.000
    C66      C        0.50478    0.89606    0.64992    1.000
    C67      C        0.57274    0.80629    0.65491    1.000
    C68      C        0.53000    0.76927    0.63734    1.000
    Cu35     Cu       0.58599    0.39121    0.16882    1.000
    Cu36     Cu       0.55481    0.45348    0.23125    1.000
    S35      S        0.45747    0.46786    0.21144    1.000
    S36      S        0.60106    0.33165    0.18391    1.000
    N137     N        0.52098    0.43064    0.19517    1.000
    N138     N        0.53304    0.40394    0.16992    1.000
    N139     N        0.47498    0.41553    0.16052    1.000
    H103     H        0.45350    0.41470    0.15110    1.000
    N140     N        0.50396    0.37051    0.12237    1.000
    H104     H        0.52330    0.35820    0.11720    1.000
    H105     H        0.48410    0.36690    0.11030    1.000
    N141     N        0.57352    0.30537    0.11874    1.000
    N142     N        0.54611    0.28159    0.10714    1.000
    N143     N        0.54531    0.28422    0.16722    1.000
    H106     H        0.53910    0.28060    0.18960    1.000
    N144     N        0.50200    0.24460    0.13890    1.000
    H107     H        0.49320    0.23550    0.11910    1.000
    H108     H        0.49320    0.23810    0.15970    1.000
    C69      C        0.48606    0.43668    0.18903    1.000
    C70      C        0.50478    0.39606    0.14992    1.000
    C71      C        0.57274    0.30629    0.15491    1.000
    C72      C        0.53000    0.26927    0.13734    1.000
    Cu37     Cu       0.08599    0.89121    0.16882    1.000
    Cu38     Cu       0.05481    0.95348    0.23125    1.000
    S37      S        0.95747    0.96786    0.21144    1.000
    S38      S        0.10106    0.83165    0.18391    1.000
    N145     N        0.02098    0.93064    0.19517    1.000
    N146     N        0.03304    0.90394    0.16992    1.000
    N147     N        0.97498    0.91553    0.16052    1.000
    H109     H        0.95350    0.91470    0.15110    1.000
    N148     N        0.00396    0.87051    0.12237    1.000
    H110     H        0.02330    0.85820    0.11720    1.000
    H111     H        0.98410    0.86690    0.11030    1.000
    N149     N        0.07352    0.80537    0.11874    1.000
    N150     N        0.04611    0.78159    0.10714    1.000
    N151     N        0.04531    0.78422    0.16722    1.000
    H112     H        0.03910    0.78060    0.18960    1.000
    N152     N        0.00200    0.74460    0.13890    1.000
    H113     H        0.99320    0.73550    0.11910    1.000
    H114     H        0.99320    0.73810    0.15970    1.000
    C73      C        0.98606    0.93668    0.18903    1.000
    C74      C        0.00478    0.89606    0.14992    1.000
    C75      C        0.07274    0.80629    0.15491    1.000
    C76      C        0.03000    0.76927    0.13734    1.000
    Cu39     Cu       0.08599    0.39121    0.66882    1.000
    Cu40     Cu       0.05481    0.45348    0.73125    1.000
    S39      S        0.95747    0.46786    0.71144    1.000
    S40      S        0.10106    0.33165    0.68391    1.000
    N153     N        0.02098    0.43064    0.69517    1.000
    N154     N        0.03304    0.40394    0.66992    1.000
    N155     N        0.97498    0.41553    0.66052    1.000
    H115     H        0.95350    0.41470    0.65110    1.000
    N156     N        0.00396    0.37051    0.62237    1.000
    H116     H        0.02330    0.35820    0.61720    1.000
    H117     H        0.98410    0.36690    0.61030    1.000
    N157     N        0.07352    0.30537    0.61874    1.000
    N158     N        0.04611    0.28159    0.60714    1.000
    N159     N        0.04531    0.28422    0.66722    1.000
    H118     H        0.03910    0.28060    0.68960    1.000
    N160     N        0.00200    0.24460    0.63890    1.000
    H119     H        0.99320    0.23550    0.61910    1.000
    H120     H        0.99320    0.23810    0.65970    1.000
    C77      C        0.98606    0.43668    0.68903    1.000
    C78      C        0.00478    0.39606    0.64992    1.000
    C79      C        0.07274    0.30629    0.65491    1.000
    C80      C        0.03000    0.26927    0.63734    1.000
    Cu41     Cu       0.58599    0.10879    0.33118    1.000
    Cu42     Cu       0.55481    0.04652    0.26875    1.000
    S41      S        0.45747    0.03214    0.28856    1.000
    S42      S        0.60106    0.16835    0.31609    1.000
    N161     N        0.52098    0.06936    0.30483    1.000
    N162     N        0.53304    0.09606    0.33008    1.000
    N163     N        0.47498    0.08447    0.33948    1.000
    H121     H        0.45350    0.08530    0.34890    1.000
    N164     N        0.50396    0.12949    0.37763    1.000
    H122     H        0.52330    0.14180    0.38280    1.000
    H123     H        0.48410    0.13310    0.38970    1.000
    N165     N        0.57352    0.19463    0.38126    1.000
    N166     N        0.54611    0.21841    0.39286    1.000
    N167     N        0.54531    0.21578    0.33278    1.000
    H124     H        0.53910    0.21940    0.31040    1.000
    N168     N        0.50200    0.25540    0.36110    1.000
    H125     H        0.49320    0.26450    0.38090    1.000
    H126     H        0.49320    0.26190    0.34030    1.000
    C81      C        0.48606    0.06332    0.31097    1.000
    C82      C        0.50478    0.10394    0.35008    1.000
    C83      C        0.57274    0.19371    0.34509    1.000
    C84      C        0.53000    0.23073    0.36266    1.000
    Cu43     Cu       0.58599    0.60879    0.83118    1.000
    Cu44     Cu       0.55481    0.54652    0.76875    1.000
    S43      S        0.45747    0.53214    0.78856    1.000
    S44      S        0.60106    0.66835    0.81609    1.000
    N169     N        0.52098    0.56936    0.80483    1.000
    N170     N        0.53304    0.59606    0.83008    1.000
    N171     N        0.47498    0.58447    0.83948    1.000
    H127     H        0.45350    0.58530    0.84890    1.000
    N172     N        0.50396    0.62949    0.87763    1.000
    H128     H        0.52330    0.64180    0.88280    1.000
    H129     H        0.48410    0.63310    0.88970    1.000
    N173     N        0.57352    0.69463    0.88126    1.000
    N174     N        0.54611    0.71841    0.89286    1.000
    N175     N        0.54531    0.71578    0.83278    1.000
    H130     H        0.53910    0.71940    0.81040    1.000
    N176     N        0.50200    0.75540    0.86110    1.000
    H131     H        0.49320    0.76450    0.88090    1.000
    H132     H        0.49320    0.76190    0.84030    1.000
    C85      C        0.48606    0.56332    0.81097    1.000
    C86      C        0.50478    0.60394    0.85008    1.000
    C87      C        0.57274    0.69371    0.84509    1.000
    C88      C        0.53000    0.73073    0.86266    1.000
    Cu45     Cu       0.08599    0.10879    0.83118    1.000
    Cu46     Cu       0.05481    0.04652    0.76875    1.000
    S45      S        0.95747    0.03214    0.78856    1.000
    S46      S        0.10106    0.16835    0.81609    1.000
    N177     N        0.02098    0.06936    0.80483    1.000
    N178     N        0.03304    0.09606    0.83008    1.000
    N179     N        0.97498    0.08447    0.83948    1.000
    H133     H        0.95350    0.08530    0.84890    1.000
    N180     N        0.00396    0.12949    0.87763    1.000
    H134     H        0.02330    0.14180    0.88280    1.000
    H135     H        0.98410    0.13310    0.88970    1.000
    N181     N        0.07352    0.19463    0.88126    1.000
    N182     N        0.04611    0.21841    0.89286    1.000
    N183     N        0.04531    0.21578    0.83278    1.000
    H136     H        0.03910    0.21940    0.81040    1.000
    N184     N        0.00200    0.25540    0.86110    1.000
    H137     H        0.99320    0.26450    0.88090    1.000
    H138     H        0.99320    0.26190    0.84030    1.000
    C89      C        0.98606    0.06332    0.81097    1.000
    C90      C        0.00478    0.10394    0.85008    1.000
    C91      C        0.07274    0.19371    0.84509    1.000
    C92      C        0.03000    0.23073    0.86266    1.000
    Cu47     Cu       0.08599    0.60879    0.33118    1.000
    Cu48     Cu       0.05481    0.54652    0.26875    1.000
    S47      S        0.95747    0.53214    0.28856    1.000
    S48      S        0.10106    0.66835    0.31609    1.000
    N185     N        0.02098    0.56936    0.30483    1.000
    N186     N        0.03304    0.59606    0.33008    1.000
    N187     N        0.97498    0.58447    0.33948    1.000
    H139     H        0.95350    0.58530    0.34890    1.000
    N188     N        0.00396    0.62949    0.37763    1.000
    H140     H        0.02330    0.64180    0.38280    1.000
    H141     H        0.98410    0.63310    0.38970    1.000
    N189     N        0.07352    0.69463    0.38126    1.000
    N190     N        0.04611    0.71841    0.39286    1.000
    N191     N        0.04531    0.71578    0.33278    1.000
    H142     H        0.03910    0.71940    0.31040    1.000
    N192     N        0.00200    0.75540    0.36110    1.000
    H143     H        0.99320    0.76450    0.38090    1.000
    H144     H        0.99320    0.76190    0.34030    1.000
    C93      C        0.98606    0.56332    0.31097    1.000
    C94      C        0.00478    0.60394    0.35008    1.000
    C95      C        0.07274    0.69371    0.34509    1.000
    C96      C        0.03000    0.73073    0.36266    1.000
    Cu49     Cu       0.41401    0.10879    0.66882    1.000
    Cu50     Cu       0.44519    0.04652    0.73125    1.000
    S49      S        0.54253    0.03214    0.71144    1.000
    S50      S        0.39894    0.16835    0.68391    1.000
    N193     N        0.47902    0.06936    0.69517    1.000
    N194     N        0.46696    0.09606    0.66992    1.000
    N195     N        0.52502    0.08447    0.66052    1.000
    H145     H        0.54650    0.08530    0.65110    1.000
    N196     N        0.49604    0.12949    0.62237    1.000
    H146     H        0.47670    0.14180    0.61720    1.000
    H147     H        0.51590    0.13310    0.61030    1.000
    N197     N        0.42648    0.19463    0.61874    1.000
    N198     N        0.45389    0.21841    0.60714    1.000
    N199     N        0.45469    0.21578    0.66722    1.000
    H148     H        0.46090    0.21940    0.68960    1.000
    N200     N        0.49800    0.25540    0.63890    1.000
    H149     H        0.50680    0.26450    0.61910    1.000
    H150     H        0.50680    0.26190    0.65970    1.000
    C97      C        0.51394    0.06332    0.68903    1.000
    C98      C        0.49522    0.10394    0.64992    1.000
    C99      C        0.42726    0.19371    0.65491    1.000
    C100     C        0.47000    0.23073    0.63734    1.000
    Cu51     Cu       0.41401    0.60879    0.16882    1.000
    Cu52     Cu       0.44519    0.54652    0.23125    1.000
    S51      S        0.54253    0.53214    0.21144    1.000
    S52      S        0.39894    0.66835    0.18391    1.000
    N201     N        0.47902    0.56936    0.19517    1.000
    N202     N        0.46696    0.59606    0.16992    1.000
    N203     N        0.52502    0.58447    0.16052    1.000
    H151     H        0.54650    0.58530    0.15110    1.000
    N204     N        0.49604    0.62949    0.12237    1.000
    H152     H        0.47670    0.64180    0.11720    1.000
    H153     H        0.51590    0.63310    0.11030    1.000
    N205     N        0.42648    0.69463    0.11874    1.000
    N206     N        0.45389    0.71841    0.10714    1.000
    N207     N        0.45469    0.71578    0.16722    1.000
    H154     H        0.46090    0.71940    0.18960    1.000
    N208     N        0.49800    0.75540    0.13890    1.000
    H155     H        0.50680    0.76450    0.11910    1.000
    H156     H        0.50680    0.76190    0.15970    1.000
    C101     C        0.51394    0.56332    0.18903    1.000
    C102     C        0.49522    0.60394    0.14992    1.000
    C103     C        0.42726    0.69371    0.15491    1.000
    C104     C        0.47000    0.73073    0.13734    1.000
    Cu53     Cu       0.91401    0.10879    0.16882    1.000
    Cu54     Cu       0.94519    0.04652    0.23125    1.000
    S53      S        0.04253    0.03214    0.21144    1.000
    S54      S        0.89894    0.16835    0.18391    1.000
    N209     N        0.97902    0.06936    0.19517    1.000
    N210     N        0.96696    0.09606    0.16992    1.000
    N211     N        0.02502    0.08447    0.16052    1.000
    H157     H        0.04650    0.08530    0.15110    1.000
    N212     N        0.99604    0.12949    0.12237    1.000
    H158     H        0.97670    0.14180    0.11720    1.000
    H159     H        0.01590    0.13310    0.11030    1.000
    N213     N        0.92648    0.19463    0.11874    1.000
    N214     N        0.95389    0.21841    0.10714    1.000
    N215     N        0.95469    0.21578    0.16722    1.000
    H160     H        0.96090    0.21940    0.18960    1.000
    N216     N        0.99800    0.25540    0.13890    1.000
    H161     H        0.00680    0.26450    0.11910    1.000
    H162     H        0.00680    0.26190    0.15970    1.000
    C105     C        0.01394    0.06332    0.18903    1.000
    C106     C        0.99522    0.10394    0.14992    1.000
    C107     C        0.92726    0.19371    0.15491    1.000
    C108     C        0.97000    0.23073    0.13734    1.000
    Cu55     Cu       0.91401    0.60879    0.66882    1.000
    Cu56     Cu       0.94519    0.54652    0.73125    1.000
    S55      S        0.04253    0.53214    0.71144    1.000
    S56      S        0.89894    0.66835    0.68391    1.000
    N217     N        0.97902    0.56936    0.69517    1.000
    N218     N        0.96696    0.59606    0.66992    1.000
    N219     N        0.02502    0.58447    0.66052    1.000
    H163     H        0.04650    0.58530    0.65110    1.000
    N220     N        0.99604    0.62949    0.62237    1.000
    H164     H        0.97670    0.64180    0.61720    1.000
    H165     H        0.01590    0.63310    0.61030    1.000
    N221     N        0.92648    0.69463    0.61874    1.000
    N222     N        0.95389    0.71841    0.60714    1.000
    N223     N        0.95469    0.71578    0.66722    1.000
    H166     H        0.96090    0.71940    0.68960    1.000
    N224     N        0.99800    0.75540    0.63890    1.000
    H167     H        0.00680    0.76450    0.61910    1.000
    H168     H        0.00680    0.76190    0.65970    1.000
    C109     C        0.01394    0.56332    0.68903    1.000
    C110     C        0.99522    0.60394    0.64992    1.000
    C111     C        0.92726    0.69371    0.65491    1.000
    C112     C        0.97000    0.73073    0.63734    1.000
    Cu57     Cu       0.41401    0.89121    0.33118    1.000
    Cu58     Cu       0.44519    0.95348    0.26875    1.000
    S57      S        0.54253    0.96786    0.28856    1.000
    S58      S        0.39894    0.83165    0.31609    1.000
    N225     N        0.47902    0.93064    0.30483    1.000
    N226     N        0.46696    0.90394    0.33008    1.000
    N227     N        0.52502    0.91553    0.33948    1.000
    H169     H        0.54650    0.91470    0.34890    1.000
    N228     N        0.49604    0.87051    0.37763    1.000
    H170     H        0.47670    0.85820    0.38280    1.000
    H171     H        0.51590    0.86690    0.38970    1.000
    N229     N        0.42648    0.80537    0.38126    1.000
    N230     N        0.45389    0.78159    0.39286    1.000
    N231     N        0.45469    0.78422    0.33278    1.000
    H172     H        0.46090    0.78060    0.31040    1.000
    N232     N        0.49800    0.74460    0.36110    1.000
    H173     H        0.50680    0.73550    0.38090    1.000
    H174     H        0.50680    0.73810    0.34030    1.000
    C113     C        0.51394    0.93668    0.31097    1.000
    C114     C        0.49522    0.89606    0.35008    1.000
    C115     C        0.42726    0.80629    0.34509    1.000
    C116     C        0.47000    0.76927    0.36266    1.000
    Cu59     Cu       0.41401    0.39121    0.83118    1.000
    Cu60     Cu       0.44519    0.45348    0.76875    1.000
    S59      S        0.54253    0.46786    0.78856    1.000
    S60      S        0.39894    0.33165    0.81609    1.000
    N233     N        0.47902    0.43064    0.80483    1.000
    N234     N        0.46696    0.40394    0.83008    1.000
    N235     N        0.52502    0.41553    0.83948    1.000
    H175     H        0.54650    0.41470    0.84890    1.000
    N236     N        0.49604    0.37051    0.87763    1.000
    H176     H        0.47670    0.35820    0.88280    1.000
    H177     H        0.51590    0.36690    0.88970    1.000
    N237     N        0.42648    0.30537    0.88126    1.000
    N238     N        0.45389    0.28159    0.89286    1.000
    N239     N        0.45469    0.28422    0.83278    1.000
    H178     H        0.46090    0.28060    0.81040    1.000
    N240     N        0.49800    0.24460    0.86110    1.000
    H179     H        0.50680    0.23550    0.88090    1.000
    H180     H        0.50680    0.23810    0.84030    1.000
    C117     C        0.51394    0.43668    0.81097    1.000
    C118     C        0.49522    0.39606    0.85008    1.000
    C119     C        0.42726    0.30629    0.84509    1.000
    C120     C        0.47000    0.26927    0.86266    1.000
    Cu61     Cu       0.91401    0.89121    0.83118    1.000
    Cu62     Cu       0.94519    0.95348    0.76875    1.000
    S61      S        0.04253    0.96786    0.78856    1.000
    S62      S        0.89894    0.83165    0.81609    1.000
    N241     N        0.97902    0.93064    0.80483    1.000
    N242     N        0.96696    0.90394    0.83008    1.000
    N243     N        0.02502    0.91553    0.83948    1.000
    H181     H        0.04650    0.91470    0.84890    1.000
    N244     N        0.99604    0.87051    0.87763    1.000
    H182     H        0.97670    0.85820    0.88280    1.000
    H183     H        0.01590    0.86690    0.88970    1.000
    N245     N        0.92648    0.80537    0.88126    1.000
    N246     N        0.95389    0.78159    0.89286    1.000
    N247     N        0.95469    0.78422    0.83278    1.000
    H184     H        0.96090    0.78060    0.81040    1.000
    N248     N        0.99800    0.74460    0.86110    1.000
    H185     H        0.00680    0.73550    0.88090    1.000
    H186     H        0.00680    0.73810    0.84030    1.000
    C121     C        0.01394    0.93668    0.81097    1.000
    C122     C        0.99522    0.89606    0.85008    1.000
    C123     C        0.92726    0.80629    0.84509    1.000
    C124     C        0.97000    0.76927    0.86266    1.000
    Cu63     Cu       0.91401    0.39121    0.33118    1.000
    Cu64     Cu       0.94519    0.45348    0.26875    1.000
    S63      S        0.04253    0.46786    0.28856    1.000
    S64      S        0.89894    0.33165    0.31609    1.000
    N249     N        0.97902    0.43064    0.30483    1.000
    N250     N        0.96696    0.40394    0.33008    1.000
    N251     N        0.02502    0.41553    0.33948    1.000
    H187     H        0.04650    0.41470    0.34890    1.000
    N252     N        0.99604    0.37051    0.37763    1.000
    H188     H        0.97670    0.35820    0.38280    1.000
    H189     H        0.01590    0.36690    0.38970    1.000
    N253     N        0.92648    0.30537    0.38126    1.000
    N254     N        0.95389    0.28159    0.39286    1.000
    N255     N        0.95469    0.28422    0.33278    1.000
    H190     H        0.96090    0.28060    0.31040    1.000
    N256     N        0.99800    0.24460    0.36110    1.000
    H191     H        0.00680    0.23550    0.38090    1.000
    H192     H        0.00680    0.23810    0.34030    1.000
    C125     C        0.01394    0.43668    0.31097    1.000
    C126     C        0.99522    0.39606    0.35008    1.000
    C127     C        0.92726    0.30629    0.34509    1.000
    C128     C        0.97000    0.26927    0.36266    1.000
    Cu65     Cu       0.66882    0.58599    0.89121    1.000
    Cu66     Cu       0.73125    0.55481    0.95348    1.000
    S65      S        0.71144    0.45747    0.96786    1.000
    S66      S        0.68391    0.60106    0.83165    1.000
    N257     N        0.69517    0.52098    0.93064    1.000
    N258     N        0.66992    0.53304    0.90394    1.000
    N259     N        0.66052    0.47498    0.91553    1.000
    H193     H        0.65110    0.45350    0.91470    1.000
    N260     N        0.62237    0.50396    0.87051    1.000
    H194     H        0.61720    0.52330    0.85820    1.000
    H195     H        0.61030    0.48410    0.86690    1.000
    N261     N        0.61874    0.57352    0.80537    1.000
    N262     N        0.60714    0.54611    0.78159    1.000
    N263     N        0.66722    0.54531    0.78422    1.000
    H196     H        0.68960    0.53910    0.78060    1.000
    N264     N        0.63890    0.50200    0.74460    1.000
    H197     H        0.61910    0.49320    0.73550    1.000
    H198     H        0.65970    0.49320    0.73810    1.000
    C129     C        0.68903    0.48606    0.93668    1.000
    C130     C        0.64992    0.50478    0.89606    1.000
    C131     C        0.65491    0.57274    0.80629    1.000
    C132     C        0.63734    0.53000    0.76927    1.000
    Cu67     Cu       0.66882    0.08599    0.39121    1.000
    Cu68     Cu       0.73125    0.05481    0.45348    1.000
    S67      S        0.71144    0.95747    0.46786    1.000
    S68      S        0.68391    0.10106    0.33165    1.000
    N265     N        0.69517    0.02098    0.43064    1.000
    N266     N        0.66992    0.03304    0.40394    1.000
    N267     N        0.66052    0.97498    0.41553    1.000
    H199     H        0.65110    0.95350    0.41470    1.000
    N268     N        0.62237    0.00396    0.37051    1.000
    H200     H        0.61720    0.02330    0.35820    1.000
    H201     H        0.61030    0.98410    0.36690    1.000
    N269     N        0.61874    0.07352    0.30537    1.000
    N270     N        0.60714    0.04611    0.28159    1.000
    N271     N        0.66722    0.04531    0.28422    1.000
    H202     H        0.68960    0.03910    0.28060    1.000
    N272     N        0.63890    0.00200    0.24460    1.000
    H203     H        0.61910    0.99320    0.23550    1.000
    H204     H        0.65970    0.99320    0.23810    1.000
    C133     C        0.68903    0.98606    0.43668    1.000
    C134     C        0.64992    0.00478    0.39606    1.000
    C135     C        0.65491    0.07274    0.30629    1.000
    C136     C        0.63734    0.03000    0.26927    1.000
    Cu69     Cu       0.16882    0.58599    0.39121    1.000
    Cu70     Cu       0.23125    0.55481    0.45348    1.000
    S69      S        0.21144    0.45747    0.46786    1.000
    S70      S        0.18391    0.60106    0.33165    1.000
    N273     N        0.19517    0.52098    0.43064    1.000
    N274     N        0.16992    0.53304    0.40394    1.000
    N275     N        0.16052    0.47498    0.41553    1.000
    H205     H        0.15110    0.45350    0.41470    1.000
    N276     N        0.12237    0.50396    0.37051    1.000
    H206     H        0.11720    0.52330    0.35820    1.000
    H207     H        0.11030    0.48410    0.36690    1.000
    N277     N        0.11874    0.57352    0.30537    1.000
    N278     N        0.10714    0.54611    0.28159    1.000
    N279     N        0.16722    0.54531    0.28422    1.000
    H208     H        0.18960    0.53910    0.28060    1.000
    N280     N        0.13890    0.50200    0.24460    1.000
    H209     H        0.11910    0.49320    0.23550    1.000
    H210     H        0.15970    0.49320    0.23810    1.000
    C137     C        0.18903    0.48606    0.43668    1.000
    C138     C        0.14992    0.50478    0.39606    1.000
    C139     C        0.15491    0.57274    0.30629    1.000
    C140     C        0.13734    0.53000    0.26927    1.000
    Cu71     Cu       0.16882    0.08599    0.89121    1.000
    Cu72     Cu       0.23125    0.05481    0.95348    1.000
    S71      S        0.21144    0.95747    0.96786    1.000
    S72      S        0.18391    0.10106    0.83165    1.000
    N281     N        0.19517    0.02098    0.93064    1.000
    N282     N        0.16992    0.03304    0.90394    1.000
    N283     N        0.16052    0.97498    0.91553    1.000
    H211     H        0.15110    0.95350    0.91470    1.000
    N284     N        0.12237    0.00396    0.87051    1.000
    H212     H        0.11720    0.02330    0.85820    1.000
    H213     H        0.11030    0.98410    0.86690    1.000
    N285     N        0.11874    0.07352    0.80537    1.000
    N286     N        0.10714    0.04611    0.78159    1.000
    N287     N        0.16722    0.04531    0.78422    1.000
    H214     H        0.18960    0.03910    0.78060    1.000
    N288     N        0.13890    0.00200    0.74460    1.000
    H215     H        0.11910    0.99320    0.73550    1.000
    H216     H        0.15970    0.99320    0.73810    1.000
    C141     C        0.18903    0.98606    0.93668    1.000
    C142     C        0.14992    0.00478    0.89606    1.000
    C143     C        0.15491    0.07274    0.80629    1.000
    C144     C        0.13734    0.03000    0.76927    1.000
    Cu73     Cu       0.33118    0.58599    0.10879    1.000
    Cu74     Cu       0.26875    0.55481    0.04652    1.000
    S73      S        0.28856    0.45747    0.03214    1.000
    S74      S        0.31609    0.60106    0.16835    1.000
    N289     N        0.30483    0.52098    0.06936    1.000
    N290     N        0.33008    0.53304    0.09606    1.000
    N291     N        0.33948    0.47498    0.08447    1.000
    H217     H        0.34890    0.45350    0.08530    1.000
    N292     N        0.37763    0.50396    0.12949    1.000
    H218     H        0.38280    0.52330    0.14180    1.000
    H219     H        0.38970    0.48410    0.13310    1.000
    N293     N        0.38126    0.57352    0.19463    1.000
    N294     N        0.39286    0.54611    0.21841    1.000
    N295     N        0.33278    0.54531    0.21578    1.000
    H220     H        0.31040    0.53910    0.21940    1.000
    N296     N        0.36110    0.50200    0.25540    1.000
    H221     H        0.38090    0.49320    0.26450    1.000
    H222     H        0.34030    0.49320    0.26190    1.000
    C145     C        0.31097    0.48606    0.06332    1.000
    C146     C        0.35008    0.50478    0.10394    1.000
    C147     C        0.34509    0.57274    0.19371    1.000
    C148     C        0.36266    0.53000    0.23073    1.000
    Cu75     Cu       0.33118    0.08599    0.60879    1.000
    Cu76     Cu       0.26875    0.05481    0.54652    1.000
    S75      S        0.28856    0.95747    0.53214    1.000
    S76      S        0.31609    0.10106    0.66835    1.000
    N297     N        0.30483    0.02098    0.56936    1.000
    N298     N        0.33008    0.03304    0.59606    1.000
    N299     N        0.33948    0.97498    0.58447    1.000
    H223     H        0.34890    0.95350    0.58530    1.000
    N300     N        0.37763    0.00396    0.62949    1.000
    H224     H        0.38280    0.02330    0.64180    1.000
    H225     H        0.38970    0.98410    0.63310    1.000
    N301     N        0.38126    0.07352    0.69463    1.000
    N302     N        0.39286    0.04611    0.71841    1.000
    N303     N        0.33278    0.04531    0.71578    1.000
    H226     H        0.31040    0.03910    0.71940    1.000
    N304     N        0.36110    0.00200    0.75540    1.000
    H227     H        0.38090    0.99320    0.76450    1.000
    H228     H        0.34030    0.99320    0.76190    1.000
    C149     C        0.31097    0.98606    0.56332    1.000
    C150     C        0.35008    0.00478    0.60394    1.000
    C151     C        0.34509    0.07274    0.69371    1.000
    C152     C        0.36266    0.03000    0.73073    1.000
    Cu77     Cu       0.83118    0.58599    0.60879    1.000
    Cu78     Cu       0.76875    0.55481    0.54652    1.000
    S77      S        0.78856    0.45747    0.53214    1.000
    S78      S        0.81609    0.60106    0.66835    1.000
    N305     N        0.80483    0.52098    0.56936    1.000
    N306     N        0.83008    0.53304    0.59606    1.000
    N307     N        0.83948    0.47498    0.58447    1.000
    H229     H        0.84890    0.45350    0.58530    1.000
    N308     N        0.87763    0.50396    0.62949    1.000
    H230     H        0.88280    0.52330    0.64180    1.000
    H231     H        0.88970    0.48410    0.63310    1.000
    N309     N        0.88126    0.57352    0.69463    1.000
    N310     N        0.89286    0.54611    0.71841    1.000
    N311     N        0.83278    0.54531    0.71578    1.000
    H232     H        0.81040    0.53910    0.71940    1.000
    N312     N        0.86110    0.50200    0.75540    1.000
    H233     H        0.88090    0.49320    0.76450    1.000
    H234     H        0.84030    0.49320    0.76190    1.000
    C153     C        0.81097    0.48606    0.56332    1.000
    C154     C        0.85008    0.50478    0.60394    1.000
    C155     C        0.84509    0.57274    0.69371    1.000
    C156     C        0.86266    0.53000    0.73073    1.000
    Cu79     Cu       0.83118    0.08599    0.10879    1.000
    Cu80     Cu       0.76875    0.05481    0.04652    1.000
    S79      S        0.78856    0.95747    0.03214    1.000
    S80      S        0.81609    0.10106    0.16835    1.000
    N313     N        0.80483    0.02098    0.06936    1.000
    N314     N        0.83008    0.03304    0.09606    1.000
    N315     N        0.83948    0.97498    0.08447    1.000
    H235     H        0.84890    0.95350    0.08530    1.000
    N316     N        0.87763    0.00396    0.12949    1.000
    H236     H        0.88280    0.02330    0.14180    1.000
    H237     H        0.88970    0.98410    0.13310    1.000
    N317     N        0.88126    0.07352    0.19463    1.000
    N318     N        0.89286    0.04611    0.21841    1.000
    N319     N        0.83278    0.04531    0.21578    1.000
    H238     H        0.81040    0.03910    0.21940    1.000
    N320     N        0.86110    0.00200    0.25540    1.000
    H239     H        0.88090    0.99320    0.26450    1.000
    H240     H        0.84030    0.99320    0.26190    1.000
    C157     C        0.81097    0.98606    0.06332    1.000
    C158     C        0.85008    0.00478    0.10394    1.000
    C159     C        0.84509    0.07274    0.19371    1.000
    C160     C        0.86266    0.03000    0.23073    1.000
    Cu81     Cu       0.66882    0.41401    0.10879    1.000
    Cu82     Cu       0.73125    0.44519    0.04652    1.000
    S81      S        0.71144    0.54253    0.03214    1.000
    S82      S        0.68391    0.39894    0.16835    1.000
    N321     N        0.69517    0.47902    0.06936    1.000
    N322     N        0.66992    0.46696    0.09606    1.000
    N323     N        0.66052    0.52502    0.08447    1.000
    H241     H        0.65110    0.54650    0.08530    1.000
    N324     N        0.62237    0.49604    0.12949    1.000
    H242     H        0.61720    0.47670    0.14180    1.000
    H243     H        0.61030    0.51590    0.13310    1.000
    N325     N        0.61874    0.42648    0.19463    1.000
    N326     N        0.60714    0.45389    0.21841    1.000
    N327     N        0.66722    0.45469    0.21578    1.000
    H244     H        0.68960    0.46090    0.21940    1.000
    N328     N        0.63890    0.49800    0.25540    1.000
    H245     H        0.61910    0.50680    0.26450    1.000
    H246     H        0.65970    0.50680    0.26190    1.000
    C161     C        0.68903    0.51394    0.06332    1.000
    C162     C        0.64992    0.49522    0.10394    1.000
    C163     C        0.65491    0.42726    0.19371    1.000
    C164     C        0.63734    0.47000    0.23073    1.000
    Cu83     Cu       0.66882    0.91401    0.60879    1.000
    Cu84     Cu       0.73125    0.94519    0.54652    1.000
    S83      S        0.71144    0.04253    0.53214    1.000
    S84      S        0.68391    0.89894    0.66835    1.000
    N329     N        0.69517    0.97902    0.56936    1.000
    N330     N        0.66992    0.96696    0.59606    1.000
    N331     N        0.66052    0.02502    0.58447    1.000
    H247     H        0.65110    0.04650    0.58530    1.000
    N332     N        0.62237    0.99604    0.62949    1.000
    H248     H        0.61720    0.97670    0.64180    1.000
    H249     H        0.61030    0.01590    0.63310    1.000
    N333     N        0.61874    0.92648    0.69463    1.000
    N334     N        0.60714    0.95389    0.71841    1.000
    N335     N        0.66722    0.95469    0.71578    1.000
    H250     H        0.68960    0.96090    0.71940    1.000
    N336     N        0.63890    0.99800    0.75540    1.000
    H251     H        0.61910    0.00680    0.76450    1.000
    H252     H        0.65970    0.00680    0.76190    1.000
    C165     C        0.68903    0.01394    0.56332    1.000
    C166     C        0.64992    0.99522    0.60394    1.000
    C167     C        0.65491    0.92726    0.69371    1.000
    C168     C        0.63734    0.97000    0.73073    1.000
    Cu85     Cu       0.16882    0.41401    0.60879    1.000
    Cu86     Cu       0.23125    0.44519    0.54652    1.000
    S85      S        0.21144    0.54253    0.53214    1.000
    S86      S        0.18391    0.39894    0.66835    1.000
    N337     N        0.19517    0.47902    0.56936    1.000
    N338     N        0.16992    0.46696    0.59606    1.000
    N339     N        0.16052    0.52502    0.58447    1.000
    H253     H        0.15110    0.54650    0.58530    1.000
    N340     N        0.12237    0.49604    0.62949    1.000
    H254     H        0.11720    0.47670    0.64180    1.000
    H255     H        0.11030    0.51590    0.63310    1.000
    N341     N        0.11874    0.42648    0.69463    1.000
    N342     N        0.10714    0.45389    0.71841    1.000
    N343     N        0.16722    0.45469    0.71578    1.000
    H256     H        0.18960    0.46090    0.71940    1.000
    N344     N        0.13890    0.49800    0.75540    1.000
    H257     H        0.11910    0.50680    0.76450    1.000
    H258     H        0.15970    0.50680    0.76190    1.000
    C169     C        0.18903    0.51394    0.56332    1.000
    C170     C        0.14992    0.49522    0.60394    1.000
    C171     C        0.15491    0.42726    0.69371    1.000
    C172     C        0.13734    0.47000    0.73073    1.000
    Cu87     Cu       0.16882    0.91401    0.10879    1.000
    Cu88     Cu       0.23125    0.94519    0.04652    1.000
    S87      S        0.21144    0.04253    0.03214    1.000
    S88      S        0.18391    0.89894    0.16835    1.000
    N345     N        0.19517    0.97902    0.06936    1.000
    N346     N        0.16992    0.96696    0.09606    1.000
    N347     N        0.16052    0.02502    0.08447    1.000
    H259     H        0.15110    0.04650    0.08530    1.000
    N348     N        0.12237    0.99604    0.12949    1.000
    H260     H        0.11720    0.97670    0.14180    1.000
    H261     H        0.11030    0.01590    0.13310    1.000
    N349     N        0.11874    0.92648    0.19463    1.000
    N350     N        0.10714    0.95389    0.21841    1.000
    N351     N        0.16722    0.95469    0.21578    1.000
    H262     H        0.18960    0.96090    0.21940    1.000
    N352     N        0.13890    0.99800    0.25540    1.000
    H263     H        0.11910    0.00680    0.26450    1.000
    H264     H        0.15970    0.00680    0.26190    1.000
    C173     C        0.18903    0.01394    0.06332    1.000
    C174     C        0.14992    0.99522    0.10394    1.000
    C175     C        0.15491    0.92726    0.19371    1.000
    C176     C        0.13734    0.97000    0.23073    1.000
    Cu89     Cu       0.33118    0.41401    0.89121    1.000
    Cu90     Cu       0.26875    0.44519    0.95348    1.000
    S89      S        0.28856    0.54253    0.96786    1.000
    S90      S        0.31609    0.39894    0.83165    1.000
    N353     N        0.30483    0.47902    0.93064    1.000
    N354     N        0.33008    0.46696    0.90394    1.000
    N355     N        0.33948    0.52502    0.91553    1.000
    H265     H        0.34890    0.54650    0.91470    1.000
    N356     N        0.37763    0.49604    0.87051    1.000
    H266     H        0.38280    0.47670    0.85820    1.000
    H267     H        0.38970    0.51590    0.86690    1.000
    N357     N        0.38126    0.42648    0.80537    1.000
    N358     N        0.39286    0.45389    0.78159    1.000
    N359     N        0.33278    0.45469    0.78422    1.000
    H268     H        0.31040    0.46090    0.78060    1.000
    N360     N        0.36110    0.49800    0.74460    1.000
    H269     H        0.38090    0.50680    0.73550    1.000
    H270     H        0.34030    0.50680    0.73810    1.000
    C177     C        0.31097    0.51394    0.93668    1.000
    C178     C        0.35008    0.49522    0.89606    1.000
    C179     C        0.34509    0.42726    0.80629    1.000
    C180     C        0.36266    0.47000    0.76927    1.000
    Cu91     Cu       0.33118    0.91401    0.39121    1.000
    Cu92     Cu       0.26875    0.94519    0.45348    1.000
    S91      S        0.28856    0.04253    0.46786    1.000
    S92      S        0.31609    0.89894    0.33165    1.000
    N361     N        0.30483    0.97902    0.43064    1.000
    N362     N        0.33008    0.96696    0.40394    1.000
    N363     N        0.33948    0.02502    0.41553    1.000
    H271     H        0.34890    0.04650    0.41470    1.000
    N364     N        0.37763    0.99604    0.37051    1.000
    H272     H        0.38280    0.97670    0.35820    1.000
    H273     H        0.38970    0.01590    0.36690    1.000
    N365     N        0.38126    0.92648    0.30537    1.000
    N366     N        0.39286    0.95389    0.28159    1.000
    N367     N        0.33278    0.95469    0.28422    1.000
    H274     H        0.31040    0.96090    0.28060    1.000
    N368     N        0.36110    0.99800    0.24460    1.000
    H275     H        0.38090    0.00680    0.23550    1.000
    H276     H        0.34030    0.00680    0.23810    1.000
    C181     C        0.31097    0.01394    0.43668    1.000
    C182     C        0.35008    0.99522    0.39606    1.000
    C183     C        0.34509    0.92726    0.30629    1.000
    C184     C        0.36266    0.97000    0.26927    1.000
    Cu93     Cu       0.83118    0.41401    0.39121    1.000
    Cu94     Cu       0.76875    0.44519    0.45348    1.000
    S93      S        0.78856    0.54253    0.46786    1.000
    S94      S        0.81609    0.39894    0.33165    1.000
    N369     N        0.80483    0.47902    0.43064    1.000
    N370     N        0.83008    0.46696    0.40394    1.000
    N371     N        0.83948    0.52502    0.41553    1.000
    H277     H        0.84890    0.54650    0.41470    1.000
    N372     N        0.87763    0.49604    0.37051    1.000
    H278     H        0.88280    0.47670    0.35820    1.000
    H279     H        0.88970    0.51590    0.36690    1.000
    N373     N        0.88126    0.42648    0.30537    1.000
    N374     N        0.89286    0.45389    0.28159    1.000
    N375     N        0.83278    0.45469    0.28422    1.000
    H280     H        0.81040    0.46090    0.28060    1.000
    N376     N        0.86110    0.49800    0.24460    1.000
    H281     H        0.88090    0.50680    0.23550    1.000
    H282     H        0.84030    0.50680    0.23810    1.000
    C185     C        0.81097    0.51394    0.43668    1.000
    C186     C        0.85008    0.49522    0.39606    1.000
    C187     C        0.84509    0.42726    0.30629    1.000
    C188     C        0.86266    0.47000    0.26927    1.000
    Cu95     Cu       0.83118    0.91401    0.89121    1.000
    Cu96     Cu       0.76875    0.94519    0.95348    1.000
    S95      S        0.78856    0.04253    0.96786    1.000
    S96      S        0.81609    0.89894    0.83165    1.000
    N377     N        0.80483    0.97902    0.93064    1.000
    N378     N        0.83008    0.96696    0.90394    1.000
    N379     N        0.83948    0.02502    0.91553    1.000
    H283     H        0.84890    0.04650    0.91470    1.000
    N380     N        0.87763    0.99604    0.87051    1.000
    H284     H        0.88280    0.97670    0.85820    1.000
    H285     H        0.88970    0.01590    0.86690    1.000
    N381     N        0.88126    0.92648    0.80537    1.000
    N382     N        0.89286    0.95389    0.78159    1.000
    N383     N        0.83278    0.95469    0.78422    1.000
    H286     H        0.81040    0.96090    0.78060    1.000
    N384     N        0.86110    0.99800    0.74460    1.000
    H287     H        0.88090    0.00680    0.73550    1.000
    H288     H        0.84030    0.00680    0.73810    1.000
    C189     C        0.81097    0.01394    0.93668    1.000
    C190     C        0.85008    0.99522    0.89606    1.000
    C191     C        0.84509    0.92726    0.80629    1.000
    C192     C        0.86266    0.97000    0.76927    1.000
    Cu97     Cu       0.16882    0.39121    0.08599    1.000
    Cu98     Cu       0.23125    0.45348    0.05481    1.000
    S97      S        0.21144    0.46786    0.95747    1.000
    S98      S        0.18391    0.33165    0.10106    1.000
    N385     N        0.19517    0.43064    0.02098    1.000
    N386     N        0.16992    0.40394    0.03304    1.000
    N387     N        0.16052    0.41553    0.97498    1.000
    H289     H        0.15110    0.41470    0.95350    1.000
    N388     N        0.12237    0.37051    0.00396    1.000
    H290     H        0.11720    0.35820    0.02330    1.000
    H291     H        0.11030    0.36690    0.98410    1.000
    N389     N        0.11874    0.30537    0.07352    1.000
    N390     N        0.10714    0.28159    0.04611    1.000
    N391     N        0.16722    0.28422    0.04531    1.000
    H292     H        0.18960    0.28060    0.03910    1.000
    N392     N        0.13890    0.24460    0.00200    1.000
    H293     H        0.11910    0.23550    0.99320    1.000
    H294     H        0.15970    0.23810    0.99320    1.000
    C193     C        0.18903    0.43668    0.98606    1.000
    C194     C        0.14992    0.39606    0.00478    1.000
    C195     C        0.15491    0.30629    0.07274    1.000
    C196     C        0.13734    0.26927    0.03000    1.000
    Cu99     Cu       0.16882    0.89121    0.58599    1.000
    Cu100    Cu       0.23125    0.95348    0.55481    1.000
    S99      S        0.21144    0.96786    0.45747    1.000
    S100     S        0.18391    0.83165    0.60106    1.000
    N393     N        0.19517    0.93064    0.52098    1.000
    N394     N        0.16992    0.90394    0.53304    1.000
    N395     N        0.16052    0.91553    0.47498    1.000
    H295     H        0.15110    0.91470    0.45350    1.000
    N396     N        0.12237    0.87051    0.50396    1.000
    H296     H        0.11720    0.85820    0.52330    1.000
    H297     H        0.11030    0.86690    0.48410    1.000
    N397     N        0.11874    0.80537    0.57352    1.000
    N398     N        0.10714    0.78159    0.54611    1.000
    N399     N        0.16722    0.78422    0.54531    1.000
    H298     H        0.18960    0.78060    0.53910    1.000
    N400     N        0.13890    0.74460    0.50200    1.000
    H299     H        0.11910    0.73550    0.49320    1.000
    H300     H        0.15970    0.73810    0.49320    1.000
    C197     C        0.18903    0.93668    0.48606    1.000
    C198     C        0.14992    0.89606    0.50478    1.000
    C199     C        0.15491    0.80629    0.57274    1.000
    C200     C        0.13734    0.76927    0.53000    1.000
    Cu101    Cu       0.66882    0.39121    0.58599    1.000
    Cu102    Cu       0.73125    0.45348    0.55481    1.000
    S101     S        0.71144    0.46786    0.45747    1.000
    S102     S        0.68391    0.33165    0.60106    1.000
    N401     N        0.69517    0.43064    0.52098    1.000
    N402     N        0.66992    0.40394    0.53304    1.000
    N403     N        0.66052    0.41553    0.47498    1.000
    H301     H        0.65110    0.41470    0.45350    1.000
    N404     N        0.62237    0.37051    0.50396    1.000
    H302     H        0.61720    0.35820    0.52330    1.000
    H303     H        0.61030    0.36690    0.48410    1.000
    N405     N        0.61874    0.30537    0.57352    1.000
    N406     N        0.60714    0.28159    0.54611    1.000
    N407     N        0.66722    0.28422    0.54531    1.000
    H304     H        0.68960    0.28060    0.53910    1.000
    N408     N        0.63890    0.24460    0.50200    1.000
    H305     H        0.61910    0.23550    0.49320    1.000
    H306     H        0.65970    0.23810    0.49320    1.000
    C201     C        0.68903    0.43668    0.48606    1.000
    C202     C        0.64992    0.39606    0.50478    1.000
    C203     C        0.65491    0.30629    0.57274    1.000
    C204     C        0.63734    0.26927    0.53000    1.000
    Cu103    Cu       0.66882    0.89121    0.08599    1.000
    Cu104    Cu       0.73125    0.95348    0.05481    1.000
    S103     S        0.71144    0.96786    0.95747    1.000
    S104     S        0.68391    0.83165    0.10106    1.000
    N409     N        0.69517    0.93064    0.02098    1.000
    N410     N        0.66992    0.90394    0.03304    1.000
    N411     N        0.66052    0.91553    0.97498    1.000
    H307     H        0.65110    0.91470    0.95350    1.000
    N412     N        0.62237    0.87051    0.00396    1.000
    H308     H        0.61720    0.85820    0.02330    1.000
    H309     H        0.61030    0.86690    0.98410    1.000
    N413     N        0.61874    0.80537    0.07352    1.000
    N414     N        0.60714    0.78159    0.04611    1.000
    N415     N        0.66722    0.78422    0.04531    1.000
    H310     H        0.68960    0.78060    0.03910    1.000
    N416     N        0.63890    0.74460    0.00200    1.000
    H311     H        0.61910    0.73550    0.99320    1.000
    H312     H        0.65970    0.73810    0.99320    1.000
    C205     C        0.68903    0.93668    0.98606    1.000
    C206     C        0.64992    0.89606    0.00478    1.000
    C207     C        0.65491    0.80629    0.07274    1.000
    C208     C        0.63734    0.76927    0.03000    1.000
    Cu105    Cu       0.83118    0.60879    0.08599    1.000
    Cu106    Cu       0.76875    0.54652    0.05481    1.000
    S105     S        0.78856    0.53214    0.95747    1.000
    S106     S        0.81609    0.66835    0.10106    1.000
    N417     N        0.80483    0.56936    0.02098    1.000
    N418     N        0.83008    0.59606    0.03304    1.000
    N419     N        0.83948    0.58447    0.97498    1.000
    H313     H        0.84890    0.58530    0.95350    1.000
    N420     N        0.87763    0.62949    0.00396    1.000
    H314     H        0.88280    0.64180    0.02330    1.000
    H315     H        0.88970    0.63310    0.98410    1.000
    N421     N        0.88126    0.69463    0.07352    1.000
    N422     N        0.89286    0.71841    0.04611    1.000
    N423     N        0.83278    0.71578    0.04531    1.000
    H316     H        0.81040    0.71940    0.03910    1.000
    N424     N        0.86110    0.75540    0.00200    1.000
    H317     H        0.88090    0.76450    0.99320    1.000
    H318     H        0.84030    0.76190    0.99320    1.000
    C209     C        0.81097    0.56332    0.98606    1.000
    C210     C        0.85008    0.60394    0.00478    1.000
    C211     C        0.84509    0.69371    0.07274    1.000
    C212     C        0.86266    0.73073    0.03000    1.000
    Cu107    Cu       0.83118    0.10879    0.58599    1.000
    Cu108    Cu       0.76875    0.04652    0.55481    1.000
    S107     S        0.78856    0.03214    0.45747    1.000
    S108     S        0.81609    0.16835    0.60106    1.000
    N425     N        0.80483    0.06936    0.52098    1.000
    N426     N        0.83008    0.09606    0.53304    1.000
    N427     N        0.83948    0.08447    0.47498    1.000
    H319     H        0.84890    0.08530    0.45350    1.000
    N428     N        0.87763    0.12949    0.50396    1.000
    H320     H        0.88280    0.14180    0.52330    1.000
    H321     H        0.88970    0.13310    0.48410    1.000
    N429     N        0.88126    0.19463    0.57352    1.000
    N430     N        0.89286    0.21841    0.54611    1.000
    N431     N        0.83278    0.21578    0.54531    1.000
    H322     H        0.81040    0.21940    0.53910    1.000
    N432     N        0.86110    0.25540    0.50200    1.000
    H323     H        0.88090    0.26450    0.49320    1.000
    H324     H        0.84030    0.26190    0.49320    1.000
    C213     C        0.81097    0.06332    0.48606    1.000
    C214     C        0.85008    0.10394    0.50478    1.000
    C215     C        0.84509    0.19371    0.57274    1.000
    C216     C        0.86266    0.23073    0.53000    1.000
    Cu109    Cu       0.33118    0.60879    0.58599    1.000
    Cu110    Cu       0.26875    0.54652    0.55481    1.000
    S109     S        0.28856    0.53214    0.45747    1.000
    S110     S        0.31609    0.66835    0.60106    1.000
    N433     N        0.30483    0.56936    0.52098    1.000
    N434     N        0.33008    0.59606    0.53304    1.000
    N435     N        0.33948    0.58447    0.47498    1.000
    H325     H        0.34890    0.58530    0.45350    1.000
    N436     N        0.37763    0.62949    0.50396    1.000
    H326     H        0.38280    0.64180    0.52330    1.000
    H327     H        0.38970    0.63310    0.48410    1.000
    N437     N        0.38126    0.69463    0.57352    1.000
    N438     N        0.39286    0.71841    0.54611    1.000
    N439     N        0.33278    0.71578    0.54531    1.000
    H328     H        0.31040    0.71940    0.53910    1.000
    N440     N        0.36110    0.75540    0.50200    1.000
    H329     H        0.38090    0.76450    0.49320    1.000
    H330     H        0.34030    0.76190    0.49320    1.000
    C217     C        0.31097    0.56332    0.48606    1.000
    C218     C        0.35008    0.60394    0.50478    1.000
    C219     C        0.34509    0.69371    0.57274    1.000
    C220     C        0.36266    0.73073    0.53000    1.000
    Cu111    Cu       0.33118    0.10879    0.08599    1.000
    Cu112    Cu       0.26875    0.04652    0.05481    1.000
    S111     S        0.28856    0.03214    0.95747    1.000
    S112     S        0.31609    0.16835    0.10106    1.000
    N441     N        0.30483    0.06936    0.02098    1.000
    N442     N        0.33008    0.09606    0.03304    1.000
    N443     N        0.33948    0.08447    0.97498    1.000
    H331     H        0.34890    0.08530    0.95350    1.000
    N444     N        0.37763    0.12949    0.00396    1.000
    H332     H        0.38280    0.14180    0.02330    1.000
    H333     H        0.38970    0.13310    0.98410    1.000
    N445     N        0.38126    0.19463    0.07352    1.000
    N446     N        0.39286    0.21841    0.04611    1.000
    N447     N        0.33278    0.21578    0.04531    1.000
    H334     H        0.31040    0.21940    0.03910    1.000
    N448     N        0.36110    0.25540    0.00200    1.000
    H335     H        0.38090    0.26450    0.99320    1.000
    H336     H        0.34030    0.26190    0.99320    1.000
    C221     C        0.31097    0.06332    0.98606    1.000
    C222     C        0.35008    0.10394    0.00478    1.000
    C223     C        0.34509    0.19371    0.07274    1.000
    C224     C        0.36266    0.23073    0.03000    1.000
    Cu113    Cu       0.16882    0.60879    0.91401    1.000
    Cu114    Cu       0.23125    0.54652    0.94519    1.000
    S113     S        0.21144    0.53214    0.04253    1.000
    S114     S        0.18391    0.66835    0.89894    1.000
    N449     N        0.19517    0.56936    0.97902    1.000
    N450     N        0.16992    0.59606    0.96696    1.000
    N451     N        0.16052    0.58447    0.02502    1.000
    H337     H        0.15110    0.58530    0.04650    1.000
    N452     N        0.12237    0.62949    0.99604    1.000
    H338     H        0.11720    0.64180    0.97670    1.000
    H339     H        0.11030    0.63310    0.01590    1.000
    N453     N        0.11874    0.69463    0.92648    1.000
    N454     N        0.10714    0.71841    0.95389    1.000
    N455     N        0.16722    0.71578    0.95469    1.000
    H340     H        0.18960    0.71940    0.96090    1.000
    N456     N        0.13890    0.75540    0.99800    1.000
    H341     H        0.11910    0.76450    0.00680    1.000
    H342     H        0.15970    0.76190    0.00680    1.000
    C225     C        0.18903    0.56332    0.01394    1.000
    C226     C        0.14992    0.60394    0.99522    1.000
    C227     C        0.15491    0.69371    0.92726    1.000
    C228     C        0.13734    0.73073    0.97000    1.000
    Cu115    Cu       0.16882    0.10879    0.41401    1.000
    Cu116    Cu       0.23125    0.04652    0.44519    1.000
    S115     S        0.21144    0.03214    0.54253    1.000
    S116     S        0.18391    0.16835    0.39894    1.000
    N457     N        0.19517    0.06936    0.47902    1.000
    N458     N        0.16992    0.09606    0.46696    1.000
    N459     N        0.16052    0.08447    0.52502    1.000
    H343     H        0.15110    0.08530    0.54650    1.000
    N460     N        0.12237    0.12949    0.49604    1.000
    H344     H        0.11720    0.14180    0.47670    1.000
    H345     H        0.11030    0.13310    0.51590    1.000
    N461     N        0.11874    0.19463    0.42648    1.000
    N462     N        0.10714    0.21841    0.45389    1.000
    N463     N        0.16722    0.21578    0.45469    1.000
    H346     H        0.18960    0.21940    0.46090    1.000
    N464     N        0.13890    0.25540    0.49800    1.000
    H347     H        0.11910    0.26450    0.50680    1.000
    H348     H        0.15970    0.26190    0.50680    1.000
    C229     C        0.18903    0.06332    0.51394    1.000
    C230     C        0.14992    0.10394    0.49522    1.000
    C231     C        0.15491    0.19371    0.42726    1.000
    C232     C        0.13734    0.23073    0.47000    1.000
    Cu117    Cu       0.66882    0.60879    0.41401    1.000
    Cu118    Cu       0.73125    0.54652    0.44519    1.000
    S117     S        0.71144    0.53214    0.54253    1.000
    S118     S        0.68391    0.66835    0.39894    1.000
    N465     N        0.69517    0.56936    0.47902    1.000
    N466     N        0.66992    0.59606    0.46696    1.000
    N467     N        0.66052    0.58447    0.52502    1.000
    H349     H        0.65110    0.58530    0.54650    1.000
    N468     N        0.62237    0.62949    0.49604    1.000
    H350     H        0.61720    0.64180    0.47670    1.000
    H351     H        0.61030    0.63310    0.51590    1.000
    N469     N        0.61874    0.69463    0.42648    1.000
    N470     N        0.60714    0.71841    0.45389    1.000
    N471     N        0.66722    0.71578    0.45469    1.000
    H352     H        0.68960    0.71940    0.46090    1.000
    N472     N        0.63890    0.75540    0.49800    1.000
    H353     H        0.61910    0.76450    0.50680    1.000
    H354     H        0.65970    0.76190    0.50680    1.000
    C233     C        0.68903    0.56332    0.51394    1.000
    C234     C        0.64992    0.60394    0.49522    1.000
    C235     C        0.65491    0.69371    0.42726    1.000
    C236     C        0.63734    0.73073    0.47000    1.000
    Cu119    Cu       0.66882    0.10879    0.91401    1.000
    Cu120    Cu       0.73125    0.04652    0.94519    1.000
    S119     S        0.71144    0.03214    0.04253    1.000
    S120     S        0.68391    0.16835    0.89894    1.000
    N473     N        0.69517    0.06936    0.97902    1.000
    N474     N        0.66992    0.09606    0.96696    1.000
    N475     N        0.66052    0.08447    0.02502    1.000
    H355     H        0.65110    0.08530    0.04650    1.000
    N476     N        0.62237    0.12949    0.99604    1.000
    H356     H        0.61720    0.14180    0.97670    1.000
    H357     H        0.61030    0.13310    0.01590    1.000
    N477     N        0.61874    0.19463    0.92648    1.000
    N478     N        0.60714    0.21841    0.95389    1.000
    N479     N        0.66722    0.21578    0.95469    1.000
    H358     H        0.68960    0.21940    0.96090    1.000
    N480     N        0.63890    0.25540    0.99800    1.000
    H359     H        0.61910    0.26450    0.00680    1.000
    H360     H        0.65970    0.26190    0.00680    1.000
    C237     C        0.68903    0.06332    0.01394    1.000
    C238     C        0.64992    0.10394    0.99522    1.000
    C239     C        0.65491    0.19371    0.92726    1.000
    C240     C        0.63734    0.23073    0.97000    1.000
    Cu121    Cu       0.83118    0.39121    0.91401    1.000
    Cu122    Cu       0.76875    0.45348    0.94519    1.000
    S121     S        0.78856    0.46786    0.04253    1.000
    S122     S        0.81609    0.33165    0.89894    1.000
    N481     N        0.80483    0.43064    0.97902    1.000
    N482     N        0.83008    0.40394    0.96696    1.000
    N483     N        0.83948    0.41553    0.02502    1.000
    H361     H        0.84890    0.41470    0.04650    1.000
    N484     N        0.87763    0.37051    0.99604    1.000
    H362     H        0.88280    0.35820    0.97670    1.000
    H363     H        0.88970    0.36690    0.01590    1.000
    N485     N        0.88126    0.30537    0.92648    1.000
    N486     N        0.89286    0.28159    0.95389    1.000
    N487     N        0.83278    0.28422    0.95469    1.000
    H364     H        0.81040    0.28060    0.96090    1.000
    N488     N        0.86110    0.24460    0.99800    1.000
    H365     H        0.88090    0.23550    0.00680    1.000
    H366     H        0.84030    0.23810    0.00680    1.000
    C241     C        0.81097    0.43668    0.01394    1.000
    C242     C        0.85008    0.39606    0.99522    1.000
    C243     C        0.84509    0.30629    0.92726    1.000
    C244     C        0.86266    0.26927    0.97000    1.000
    Cu123    Cu       0.83118    0.89121    0.41401    1.000
    Cu124    Cu       0.76875    0.95348    0.44519    1.000
    S123     S        0.78856    0.96786    0.54253    1.000
    S124     S        0.81609    0.83165    0.39894    1.000
    N489     N        0.80483    0.93064    0.47902    1.000
    N490     N        0.83008    0.90394    0.46696    1.000
    N491     N        0.83948    0.91553    0.52502    1.000
    H367     H        0.84890    0.91470    0.54650    1.000
    N492     N        0.87763    0.87051    0.49604    1.000
    H368     H        0.88280    0.85820    0.47670    1.000
    H369     H        0.88970    0.86690    0.51590    1.000
    N493     N        0.88126    0.80537    0.42648    1.000
    N494     N        0.89286    0.78159    0.45389    1.000
    N495     N        0.83278    0.78422    0.45469    1.000
    H370     H        0.81040    0.78060    0.46090    1.000
    N496     N        0.86110    0.74460    0.49800    1.000
    H371     H        0.88090    0.73550    0.50680    1.000
    H372     H        0.84030    0.73810    0.50680    1.000
    C245     C        0.81097    0.93668    0.51394    1.000
    C246     C        0.85008    0.89606    0.49522    1.000
    C247     C        0.84509    0.80629    0.42726    1.000
    C248     C        0.86266    0.76927    0.47000    1.000
    Cu125    Cu       0.33118    0.39121    0.41401    1.000
    Cu126    Cu       0.26875    0.45348    0.44519    1.000
    S125     S        0.28856    0.46786    0.54253    1.000
    S126     S        0.31609    0.33165    0.39894    1.000
    N497     N        0.30483    0.43064    0.47902    1.000
    N498     N        0.33008    0.40394    0.46696    1.000
    N499     N        0.33948    0.41553    0.52502    1.000
    H373     H        0.34890    0.41470    0.54650    1.000
    N500     N        0.37763    0.37051    0.49604    1.000
    H374     H        0.38280    0.35820    0.47670    1.000
    H375     H        0.38970    0.36690    0.51590    1.000
    N501     N        0.38126    0.30537    0.42648    1.000
    N502     N        0.39286    0.28159    0.45389    1.000
    N503     N        0.33278    0.28422    0.45469    1.000
    H376     H        0.31040    0.28060    0.46090    1.000
    N504     N        0.36110    0.24460    0.49800    1.000
    H377     H        0.38090    0.23550    0.50680    1.000
    H378     H        0.34030    0.23810    0.50680    1.000
    C249     C        0.31097    0.43668    0.51394    1.000
    C250     C        0.35008    0.39606    0.49522    1.000
    C251     C        0.34509    0.30629    0.42726    1.000
    C252     C        0.36266    0.26927    0.47000    1.000
    Cu127    Cu       0.33118    0.89121    0.91401    1.000
    Cu128    Cu       0.26875    0.95348    0.94519    1.000
    S127     S        0.28856    0.96786    0.04253    1.000
    S128     S        0.31609    0.83165    0.89894    1.000
    N505     N        0.30483    0.93064    0.97902    1.000
    N506     N        0.33008    0.90394    0.96696    1.000
    N507     N        0.33948    0.91553    0.02502    1.000
    H379     H        0.34890    0.91470    0.04650    1.000
    N508     N        0.37763    0.87051    0.99604    1.000
    H380     H        0.38280    0.85820    0.97670    1.000
    H381     H        0.38970    0.86690    0.01590    1.000
    N509     N        0.38126    0.80537    0.92648    1.000
    N510     N        0.39286    0.78159    0.95389    1.000
    N511     N        0.33278    0.78422    0.95469    1.000
    H382     H        0.31040    0.78060    0.96090    1.000
    N512     N        0.36110    0.74460    0.99800    1.000
    H383     H        0.38090    0.73550    0.00680    1.000
    H384     H        0.34030    0.73810    0.00680    1.000
    C253     C        0.31097    0.93668    0.01394    1.000
    C254     C        0.35008    0.89606    0.99522    1.000
    C255     C        0.34509    0.80629    0.92726    1.000
    C256     C        0.36266    0.76927    0.97000    1.000
    Cu129    Cu       0.39121    0.08599    0.16882    1.000
    Cu130    Cu       0.45348    0.05481    0.23125    1.000
    S129     S        0.46786    0.95747    0.21144    1.000
    S130     S        0.33165    0.10106    0.18391    1.000
    N513     N        0.43064    0.02098    0.19517    1.000
    N514     N        0.40394    0.03304    0.16992    1.000
    N515     N        0.41553    0.97498    0.16052    1.000
    H385     H        0.41470    0.95350    0.15110    1.000
    N516     N        0.37051    0.00396    0.12237    1.000
    H386     H        0.35820    0.02330    0.11720    1.000
    H387     H        0.36690    0.98410    0.11030    1.000
    N517     N        0.30537    0.07352    0.11874    1.000
    N518     N        0.28159    0.04611    0.10714    1.000
    N519     N        0.28422    0.04531    0.16722    1.000
    H388     H        0.28060    0.03910    0.18960    1.000
    N520     N        0.24460    0.00200    0.13890    1.000
    H389     H        0.23550    0.99320    0.11910    1.000
    H390     H        0.23810    0.99320    0.15970    1.000
    C257     C        0.43668    0.98606    0.18903    1.000
    C258     C        0.39606    0.00478    0.14992    1.000
    C259     C        0.30629    0.07274    0.15491    1.000
    C260     C        0.26927    0.03000    0.13734    1.000
    Cu131    Cu       0.39121    0.58599    0.66882    1.000
    Cu132    Cu       0.45348    0.55481    0.73125    1.000
    S131     S        0.46786    0.45747    0.71144    1.000
    S132     S        0.33165    0.60106    0.68391    1.000
    N521     N        0.43064    0.52098    0.69517    1.000
    N522     N        0.40394    0.53304    0.66992    1.000
    N523     N        0.41553    0.47498    0.66052    1.000
    H391     H        0.41470    0.45350    0.65110    1.000
    N524     N        0.37051    0.50396    0.62237    1.000
    H392     H        0.35820    0.52330    0.61720    1.000
    H393     H        0.36690    0.48410    0.61030    1.000
    N525     N        0.30537    0.57352    0.61874    1.000
    N526     N        0.28159    0.54611    0.60714    1.000
    N527     N        0.28422    0.54531    0.66722    1.000
    H394     H        0.28060    0.53910    0.68960    1.000
    N528     N        0.24460    0.50200    0.63890    1.000
    H395     H        0.23550    0.49320    0.61910    1.000
    H396     H        0.23810    0.49320    0.65970    1.000
    C261     C        0.43668    0.48606    0.68903    1.000
    C262     C        0.39606    0.50478    0.64992    1.000
    C263     C        0.30629    0.57274    0.65491    1.000
    C264     C        0.26927    0.53000    0.63734    1.000
    Cu133    Cu       0.89121    0.08599    0.66882    1.000
    Cu134    Cu       0.95348    0.05481    0.73125    1.000
    S133     S        0.96786    0.95747    0.71144    1.000
    S134     S        0.83165    0.10106    0.68391    1.000
    N529     N        0.93064    0.02098    0.69517    1.000
    N530     N        0.90394    0.03304    0.66992    1.000
    N531     N        0.91553    0.97498    0.66052    1.000
    H397     H        0.91470    0.95350    0.65110    1.000
    N532     N        0.87051    0.00396    0.62237    1.000
    H398     H        0.85820    0.02330    0.61720    1.000
    H399     H        0.86690    0.98410    0.61030    1.000
    N533     N        0.80537    0.07352    0.61874    1.000
    N534     N        0.78159    0.04611    0.60714    1.000
    N535     N        0.78422    0.04531    0.66722    1.000
    H400     H        0.78060    0.03910    0.68960    1.000
    N536     N        0.74460    0.00200    0.63890    1.000
    H401     H        0.73550    0.99320    0.61910    1.000
    H402     H        0.73810    0.99320    0.65970    1.000
    C265     C        0.93668    0.98606    0.68903    1.000
    C266     C        0.89606    0.00478    0.64992    1.000
    C267     C        0.80629    0.07274    0.65491    1.000
    C268     C        0.76927    0.03000    0.63734    1.000
    Cu135    Cu       0.89121    0.58599    0.16882    1.000
    Cu136    Cu       0.95348    0.55481    0.23125    1.000
    S135     S        0.96786    0.45747    0.21144    1.000
    S136     S        0.83165    0.60106    0.18391    1.000
    N537     N        0.93064    0.52098    0.19517    1.000
    N538     N        0.90394    0.53304    0.16992    1.000
    N539     N        0.91553    0.47498    0.16052    1.000
    H403     H        0.91470    0.45350    0.15110    1.000
    N540     N        0.87051    0.50396    0.12237    1.000
    H404     H        0.85820    0.52330    0.11720    1.000
    H405     H        0.86690    0.48410    0.11030    1.000
    N541     N        0.80537    0.57352    0.11874    1.000
    N542     N        0.78159    0.54611    0.10714    1.000
    N543     N        0.78422    0.54531    0.16722    1.000
    H406     H        0.78060    0.53910    0.18960    1.000
    N544     N        0.74460    0.50200    0.13890    1.000
    H407     H        0.73550    0.49320    0.11910    1.000
    H408     H        0.73810    0.49320    0.15970    1.000
    C269     C        0.93668    0.48606    0.18903    1.000
    C270     C        0.89606    0.50478    0.14992    1.000
    C271     C        0.80629    0.57274    0.15491    1.000
    C272     C        0.76927    0.53000    0.13734    1.000
    Cu137    Cu       0.60879    0.08599    0.83118    1.000
    Cu138    Cu       0.54652    0.05481    0.76875    1.000
    S137     S        0.53214    0.95747    0.78856    1.000
    S138     S        0.66835    0.10106    0.81609    1.000
    N545     N        0.56936    0.02098    0.80483    1.000
    N546     N        0.59606    0.03304    0.83008    1.000
    N547     N        0.58447    0.97498    0.83948    1.000
    H409     H        0.58530    0.95350    0.84890    1.000
    N548     N        0.62949    0.00396    0.87763    1.000
    H410     H        0.64180    0.02330    0.88280    1.000
    H411     H        0.63310    0.98410    0.88970    1.000
    N549     N        0.69463    0.07352    0.88126    1.000
    N550     N        0.71841    0.04611    0.89286    1.000
    N551     N        0.71578    0.04531    0.83278    1.000
    H412     H        0.71940    0.03910    0.81040    1.000
    N552     N        0.75540    0.00200    0.86110    1.000
    H413     H        0.76450    0.99320    0.88090    1.000
    H414     H        0.76190    0.99320    0.84030    1.000
    C273     C        0.56332    0.98606    0.81097    1.000
    C274     C        0.60394    0.00478    0.85008    1.000
    C275     C        0.69371    0.07274    0.84509    1.000
    C276     C        0.73073    0.03000    0.86266    1.000
    Cu139    Cu       0.60879    0.58599    0.33118    1.000
    Cu140    Cu       0.54652    0.55481    0.26875    1.000
    S139     S        0.53214    0.45747    0.28856    1.000
    S140     S        0.66835    0.60106    0.31609    1.000
    N553     N        0.56936    0.52098    0.30483    1.000
    N554     N        0.59606    0.53304    0.33008    1.000
    N555     N        0.58447    0.47498    0.33948    1.000
    H415     H        0.58530    0.45350    0.34890    1.000
    N556     N        0.62949    0.50396    0.37763    1.000
    H416     H        0.64180    0.52330    0.38280    1.000
    H417     H        0.63310    0.48410    0.38970    1.000
    N557     N        0.69463    0.57352    0.38126    1.000
    N558     N        0.71841    0.54611    0.39286    1.000
    N559     N        0.71578    0.54531    0.33278    1.000
    H418     H        0.71940    0.53910    0.31040    1.000
    N560     N        0.75540    0.50200    0.36110    1.000
    H419     H        0.76450    0.49320    0.38090    1.000
    H420     H        0.76190    0.49320    0.34030    1.000
    C277     C        0.56332    0.48606    0.31097    1.000
    C278     C        0.60394    0.50478    0.35008    1.000
    C279     C        0.69371    0.57274    0.34509    1.000
    C280     C        0.73073    0.53000    0.36266    1.000
    Cu141    Cu       0.10879    0.08599    0.33118    1.000
    Cu142    Cu       0.04652    0.05481    0.26875    1.000
    S141     S        0.03214    0.95747    0.28856    1.000
    S142     S        0.16835    0.10106    0.31609    1.000
    N561     N        0.06936    0.02098    0.30483    1.000
    N562     N        0.09606    0.03304    0.33008    1.000
    N563     N        0.08447    0.97498    0.33948    1.000
    H421     H        0.08530    0.95350    0.34890    1.000
    N564     N        0.12949    0.00396    0.37763    1.000
    H422     H        0.14180    0.02330    0.38280    1.000
    H423     H        0.13310    0.98410    0.38970    1.000
    N565     N        0.19463    0.07352    0.38126    1.000
    N566     N        0.21841    0.04611    0.39286    1.000
    N567     N        0.21578    0.04531    0.33278    1.000
    H424     H        0.21940    0.03910    0.31040    1.000
    N568     N        0.25540    0.00200    0.36110    1.000
    H425     H        0.26450    0.99320    0.38090    1.000
    H426     H        0.26190    0.99320    0.34030    1.000
    C281     C        0.06332    0.98606    0.31097    1.000
    C282     C        0.10394    0.00478    0.35008    1.000
    C283     C        0.19371    0.07274    0.34509    1.000
    C284     C        0.23073    0.03000    0.36266    1.000
    Cu143    Cu       0.10879    0.58599    0.83118    1.000
    Cu144    Cu       0.04652    0.55481    0.76875    1.000
    S143     S        0.03214    0.45747    0.78856    1.000
    S144     S        0.16835    0.60106    0.81609    1.000
    N569     N        0.06936    0.52098    0.80483    1.000
    N570     N        0.09606    0.53304    0.83008    1.000
    N571     N        0.08447    0.47498    0.83948    1.000
    H427     H        0.08530    0.45350    0.84890    1.000
    N572     N        0.12949    0.50396    0.87763    1.000
    H428     H        0.14180    0.52330    0.88280    1.000
    H429     H        0.13310    0.48410    0.88970    1.000
    N573     N        0.19463    0.57352    0.88126    1.000
    N574     N        0.21841    0.54611    0.89286    1.000
    N575     N        0.21578    0.54531    0.83278    1.000
    H430     H        0.21940    0.53910    0.81040    1.000
    N576     N        0.25540    0.50200    0.86110    1.000
    H431     H        0.26450    0.49320    0.88090    1.000
    H432     H        0.26190    0.49320    0.84030    1.000
    C285     C        0.06332    0.48606    0.81097    1.000
    C286     C        0.10394    0.50478    0.85008    1.000
    C287     C        0.19371    0.57274    0.84509    1.000
    C288     C        0.23073    0.53000    0.86266    1.000
    Cu145    Cu       0.60879    0.91401    0.16882    1.000
    Cu146    Cu       0.54652    0.94519    0.23125    1.000
    S145     S        0.53214    0.04253    0.21144    1.000
    S146     S        0.66835    0.89894    0.18391    1.000
    N577     N        0.56936    0.97902    0.19517    1.000
    N578     N        0.59606    0.96696    0.16992    1.000
    N579     N        0.58447    0.02502    0.16052    1.000
    H433     H        0.58530    0.04650    0.15110    1.000
    N580     N        0.62949    0.99604    0.12237    1.000
    H434     H        0.64180    0.97670    0.11720    1.000
    H435     H        0.63310    0.01590    0.11030    1.000
    N581     N        0.69463    0.92648    0.11874    1.000
    N582     N        0.71841    0.95389    0.10714    1.000
    N583     N        0.71578    0.95469    0.16722    1.000
    H436     H        0.71940    0.96090    0.18960    1.000
    N584     N        0.75540    0.99800    0.13890    1.000
    H437     H        0.76450    0.00680    0.11910    1.000
    H438     H        0.76190    0.00680    0.15970    1.000
    C289     C        0.56332    0.01394    0.18903    1.000
    C290     C        0.60394    0.99522    0.14992    1.000
    C291     C        0.69371    0.92726    0.15491    1.000
    C292     C        0.73073    0.97000    0.13734    1.000
    Cu147    Cu       0.60879    0.41401    0.66882    1.000
    Cu148    Cu       0.54652    0.44519    0.73125    1.000
    S147     S        0.53214    0.54253    0.71144    1.000
    S148     S        0.66835    0.39894    0.68391    1.000
    N585     N        0.56936    0.47902    0.69517    1.000
    N586     N        0.59606    0.46696    0.66992    1.000
    N587     N        0.58447    0.52502    0.66052    1.000
    H439     H        0.58530    0.54650    0.65110    1.000
    N588     N        0.62949    0.49604    0.62237    1.000
    H440     H        0.64180    0.47670    0.61720    1.000
    H441     H        0.63310    0.51590    0.61030    1.000
    N589     N        0.69463    0.42648    0.61874    1.000
    N590     N        0.71841    0.45389    0.60714    1.000
    N591     N        0.71578    0.45469    0.66722    1.000
    H442     H        0.71940    0.46090    0.68960    1.000
    N592     N        0.75540    0.49800    0.63890    1.000
    H443     H        0.76450    0.50680    0.61910    1.000
    H444     H        0.76190    0.50680    0.65970    1.000
    C293     C        0.56332    0.51394    0.68903    1.000
    C294     C        0.60394    0.49522    0.64992    1.000
    C295     C        0.69371    0.42726    0.65491    1.000
    C296     C        0.73073    0.47000    0.63734    1.000
    Cu149    Cu       0.10879    0.91401    0.66882    1.000
    Cu150    Cu       0.04652    0.94519    0.73125    1.000
    S149     S        0.03214    0.04253    0.71144    1.000
    S150     S        0.16835    0.89894    0.68391    1.000
    N593     N        0.06936    0.97902    0.69517    1.000
    N594     N        0.09606    0.96696    0.66992    1.000
    N595     N        0.08447    0.02502    0.66052    1.000
    H445     H        0.08530    0.04650    0.65110    1.000
    N596     N        0.12949    0.99604    0.62237    1.000
    H446     H        0.14180    0.97670    0.61720    1.000
    H447     H        0.13310    0.01590    0.61030    1.000
    N597     N        0.19463    0.92648    0.61874    1.000
    N598     N        0.21841    0.95389    0.60714    1.000
    N599     N        0.21578    0.95469    0.66722    1.000
    H448     H        0.21940    0.96090    0.68960    1.000
    N600     N        0.25540    0.99800    0.63890    1.000
    H449     H        0.26450    0.00680    0.61910    1.000
    H450     H        0.26190    0.00680    0.65970    1.000
    C297     C        0.06332    0.01394    0.68903    1.000
    C298     C        0.10394    0.99522    0.64992    1.000
    C299     C        0.19371    0.92726    0.65491    1.000
    C300     C        0.23073    0.97000    0.63734    1.000
    Cu151    Cu       0.10879    0.41401    0.16882    1.000
    Cu152    Cu       0.04652    0.44519    0.23125    1.000
    S151     S        0.03214    0.54253    0.21144    1.000
    S152     S        0.16835    0.39894    0.18391    1.000
    N601     N        0.06936    0.47902    0.19517    1.000
    N602     N        0.09606    0.46696    0.16992    1.000
    N603     N        0.08447    0.52502    0.16052    1.000
    H451     H        0.08530    0.54650    0.15110    1.000
    N604     N        0.12949    0.49604    0.12237    1.000
    H452     H        0.14180    0.47670    0.11720    1.000
    H453     H        0.13310    0.51590    0.11030    1.000
    N605     N        0.19463    0.42648    0.11874    1.000
    N606     N        0.21841    0.45389    0.10714    1.000
    N607     N        0.21578    0.45469    0.16722    1.000
    H454     H        0.21940    0.46090    0.18960    1.000
    N608     N        0.25540    0.49800    0.13890    1.000
    H455     H        0.26450    0.50680    0.11910    1.000
    H456     H        0.26190    0.50680    0.15970    1.000
    C301     C        0.06332    0.51394    0.18903    1.000
    C302     C        0.10394    0.49522    0.14992    1.000
    C303     C        0.19371    0.42726    0.15491    1.000
    C304     C        0.23073    0.47000    0.13734    1.000
    Cu153    Cu       0.39121    0.91401    0.83118    1.000
    Cu154    Cu       0.45348    0.94519    0.76875    1.000
    S153     S        0.46786    0.04253    0.78856    1.000
    S154     S        0.33165    0.89894    0.81609    1.000
    N609     N        0.43064    0.97902    0.80483    1.000
    N610     N        0.40394    0.96696    0.83008    1.000
    N611     N        0.41553    0.02502    0.83948    1.000
    H457     H        0.41470    0.04650    0.84890    1.000
    N612     N        0.37051    0.99604    0.87763    1.000
    H458     H        0.35820    0.97670    0.88280    1.000
    H459     H        0.36690    0.01590    0.88970    1.000
    N613     N        0.30537    0.92648    0.88126    1.000
    N614     N        0.28159    0.95389    0.89286    1.000
    N615     N        0.28422    0.95469    0.83278    1.000
    H460     H        0.28060    0.96090    0.81040    1.000
    N616     N        0.24460    0.99800    0.86110    1.000
    H461     H        0.23550    0.00680    0.88090    1.000
    H462     H        0.23810    0.00680    0.84030    1.000
    C305     C        0.43668    0.01394    0.81097    1.000
    C306     C        0.39606    0.99522    0.85008    1.000
    C307     C        0.30629    0.92726    0.84509    1.000
    C308     C        0.26927    0.97000    0.86266    1.000
    Cu155    Cu       0.39121    0.41401    0.33118    1.000
    Cu156    Cu       0.45348    0.44519    0.26875    1.000
    S155     S        0.46786    0.54253    0.28856    1.000
    S156     S        0.33165    0.39894    0.31609    1.000
    N617     N        0.43064    0.47902    0.30483    1.000
    N618     N        0.40394    0.46696    0.33008    1.000
    N619     N        0.41553    0.52502    0.33948    1.000
    H463     H        0.41470    0.54650    0.34890    1.000
    N620     N        0.37051    0.49604    0.37763    1.000
    H464     H        0.35820    0.47670    0.38280    1.000
    H465     H        0.36690    0.51590    0.38970    1.000
    N621     N        0.30537    0.42648    0.38126    1.000
    N622     N        0.28159    0.45389    0.39286    1.000
    N623     N        0.28422    0.45469    0.33278    1.000
    H466     H        0.28060    0.46090    0.31040    1.000
    N624     N        0.24460    0.49800    0.36110    1.000
    H467     H        0.23550    0.50680    0.38090    1.000
    H468     H        0.23810    0.50680    0.34030    1.000
    C309     C        0.43668    0.51394    0.31097    1.000
    C310     C        0.39606    0.49522    0.35008    1.000
    C311     C        0.30629    0.42726    0.34509    1.000
    C312     C        0.26927    0.47000    0.36266    1.000
    Cu157    Cu       0.89121    0.91401    0.33118    1.000
    Cu158    Cu       0.95348    0.94519    0.26875    1.000
    S157     S        0.96786    0.04253    0.28856    1.000
    S158     S        0.83165    0.89894    0.31609    1.000
    N625     N        0.93064    0.97902    0.30483    1.000
    N626     N        0.90394    0.96696    0.33008    1.000
    N627     N        0.91553    0.02502    0.33948    1.000
    H469     H        0.91470    0.04650    0.34890    1.000
    N628     N        0.87051    0.99604    0.37763    1.000
    H470     H        0.85820    0.97670    0.38280    1.000
    H471     H        0.86690    0.01590    0.38970    1.000
    N629     N        0.80537    0.92648    0.38126    1.000
    N630     N        0.78159    0.95389    0.39286    1.000
    N631     N        0.78422    0.95469    0.33278    1.000
    H472     H        0.78060    0.96090    0.31040    1.000
    N632     N        0.74460    0.99800    0.36110    1.000
    H473     H        0.73550    0.00680    0.38090    1.000
    H474     H        0.73810    0.00680    0.34030    1.000
    C313     C        0.93668    0.01394    0.31097    1.000
    C314     C        0.89606    0.99522    0.35008    1.000
    C315     C        0.80629    0.92726    0.34509    1.000
    C316     C        0.76927    0.97000    0.36266    1.000
    Cu159    Cu       0.89121    0.41401    0.83118    1.000
    Cu160    Cu       0.95348    0.44519    0.76875    1.000
    S159     S        0.96786    0.54253    0.78856    1.000
    S160     S        0.83165    0.39894    0.81609    1.000
    N633     N        0.93064    0.47902    0.80483    1.000
    N634     N        0.90394    0.46696    0.83008    1.000
    N635     N        0.91553    0.52502    0.83948    1.000
    H475     H        0.91470    0.54650    0.84890    1.000
    N636     N        0.87051    0.49604    0.87763    1.000
    H476     H        0.85820    0.47670    0.88280    1.000
    H477     H        0.86690    0.51590    0.88970    1.000
    N637     N        0.80537    0.42648    0.88126    1.000
    N638     N        0.78159    0.45389    0.89286    1.000
    N639     N        0.78422    0.45469    0.83278    1.000
    H478     H        0.78060    0.46090    0.81040    1.000
    N640     N        0.74460    0.49800    0.86110    1.000
    H479     H        0.73550    0.50680    0.88090    1.000
    H480     H        0.73810    0.50680    0.84030    1.000
    C317     C        0.93668    0.51394    0.81097    1.000
    C318     C        0.89606    0.49522    0.85008    1.000
    C319     C        0.80629    0.42726    0.84509    1.000
    C320     C        0.76927    0.47000    0.86266    1.000
    Cu161    Cu       0.08599    0.16882    0.39121    1.000
    Cu162    Cu       0.05481    0.23125    0.45348    1.000
    S161     S        0.95747    0.21144    0.46786    1.000
    S162     S        0.10106    0.18391    0.33165    1.000
    N641     N        0.02098    0.19517    0.43064    1.000
    N642     N        0.03304    0.16992    0.40394    1.000
    N643     N        0.97498    0.16052    0.41553    1.000
    H481     H        0.95350    0.15110    0.41470    1.000
    N644     N        0.00396    0.12237    0.37051    1.000
    H482     H        0.02330    0.11720    0.35820    1.000
    H483     H        0.98410    0.11030    0.36690    1.000
    N645     N        0.07352    0.11874    0.30537    1.000
    N646     N        0.04611    0.10714    0.28159    1.000
    N647     N        0.04531    0.16722    0.28422    1.000
    H484     H        0.03910    0.18960    0.28060    1.000
    N648     N        0.00200    0.13890    0.24460    1.000
    H485     H        0.99320    0.11910    0.23550    1.000
    H486     H        0.99320    0.15970    0.23810    1.000
    C321     C        0.98606    0.18903    0.43668    1.000
    C322     C        0.00478    0.14992    0.39606    1.000
    C323     C        0.07274    0.15491    0.30629    1.000
    C324     C        0.03000    0.13734    0.26927    1.000
    Cu163    Cu       0.08599    0.66882    0.89121    1.000
    Cu164    Cu       0.05481    0.73125    0.95348    1.000
    S163     S        0.95747    0.71144    0.96786    1.000
    S164     S        0.10106    0.68391    0.83165    1.000
    N649     N        0.02098    0.69517    0.93064    1.000
    N650     N        0.03304    0.66992    0.90394    1.000
    N651     N        0.97498    0.66052    0.91553    1.000
    H487     H        0.95350    0.65110    0.91470    1.000
    N652     N        0.00396    0.62237    0.87051    1.000
    H488     H        0.02330    0.61720    0.85820    1.000
    H489     H        0.98410    0.61030    0.86690    1.000
    N653     N        0.07352    0.61874    0.80537    1.000
    N654     N        0.04611    0.60714    0.78159    1.000
    N655     N        0.04531    0.66722    0.78422    1.000
    H490     H        0.03910    0.68960    0.78060    1.000
    N656     N        0.00200    0.63890    0.74460    1.000
    H491     H        0.99320    0.61910    0.73550    1.000
    H492     H        0.99320    0.65970    0.73810    1.000
    C325     C        0.98606    0.68903    0.93668    1.000
    C326     C        0.00478    0.64992    0.89606    1.000
    C327     C        0.07274    0.65491    0.80629    1.000
    C328     C        0.03000    0.63734    0.76927    1.000
    Cu165    Cu       0.58599    0.16882    0.89121    1.000
    Cu166    Cu       0.55481    0.23125    0.95348    1.000
    S165     S        0.45747    0.21144    0.96786    1.000
    S166     S        0.60106    0.18391    0.83165    1.000
    N657     N        0.52098    0.19517    0.93064    1.000
    N658     N        0.53304    0.16992    0.90394    1.000
    N659     N        0.47498    0.16052    0.91553    1.000
    H493     H        0.45350    0.15110    0.91470    1.000
    N660     N        0.50396    0.12237    0.87051    1.000
    H494     H        0.52330    0.11720    0.85820    1.000
    H495     H        0.48410    0.11030    0.86690    1.000
    N661     N        0.57352    0.11874    0.80537    1.000
    N662     N        0.54611    0.10714    0.78159    1.000
    N663     N        0.54531    0.16722    0.78422    1.000
    H496     H        0.53910    0.18960    0.78060    1.000
    N664     N        0.50200    0.13890    0.74460    1.000
    H497     H        0.49320    0.11910    0.73550    1.000
    H498     H        0.49320    0.15970    0.73810    1.000
    C329     C        0.48606    0.18903    0.93668    1.000
    C330     C        0.50478    0.14992    0.89606    1.000
    C331     C        0.57274    0.15491    0.80629    1.000
    C332     C        0.53000    0.13734    0.76927    1.000
    Cu167    Cu       0.58599    0.66882    0.39121    1.000
    Cu168    Cu       0.55481    0.73125    0.45348    1.000
    S167     S        0.45747    0.71144    0.46786    1.000
    S168     S        0.60106    0.68391    0.33165    1.000
    N665     N        0.52098    0.69517    0.43064    1.000
    N666     N        0.53304    0.66992    0.40394    1.000
    N667     N        0.47498    0.66052    0.41553    1.000
    H499     H        0.45350    0.65110    0.41470    1.000
    N668     N        0.50396    0.62237    0.37051    1.000
    H500     H        0.52330    0.61720    0.35820    1.000
    H501     H        0.48410    0.61030    0.36690    1.000
    N669     N        0.57352    0.61874    0.30537    1.000
    N670     N        0.54611    0.60714    0.28159    1.000
    N671     N        0.54531    0.66722    0.28422    1.000
    H502     H        0.53910    0.68960    0.28060    1.000
    N672     N        0.50200    0.63890    0.24460    1.000
    H503     H        0.49320    0.61910    0.23550    1.000
    H504     H        0.49320    0.65970    0.23810    1.000
    C333     C        0.48606    0.68903    0.43668    1.000
    C334     C        0.50478    0.64992    0.39606    1.000
    C335     C        0.57274    0.65491    0.30629    1.000
    C336     C        0.53000    0.63734    0.26927    1.000
    Cu169    Cu       0.08599    0.83118    0.60879    1.000
    Cu170    Cu       0.05481    0.76875    0.54652    1.000
    S169     S        0.95747    0.78856    0.53214    1.000
    S170     S        0.10106    0.81609    0.66835    1.000
    N673     N        0.02098    0.80483    0.56936    1.000
    N674     N        0.03304    0.83008    0.59606    1.000
    N675     N        0.97498    0.83948    0.58447    1.000
    H505     H        0.95350    0.84890    0.58530    1.000
    N676     N        0.00396    0.87763    0.62949    1.000
    H506     H        0.02330    0.88280    0.64180    1.000
    H507     H        0.98410    0.88970    0.63310    1.000
    N677     N        0.07352    0.88126    0.69463    1.000
    N678     N        0.04611    0.89286    0.71841    1.000
    N679     N        0.04531    0.83278    0.71578    1.000
    H508     H        0.03910    0.81040    0.71940    1.000
    N680     N        0.00200    0.86110    0.75540    1.000
    H509     H        0.99320    0.88090    0.76450    1.000
    H510     H        0.99320    0.84030    0.76190    1.000
    C337     C        0.98606    0.81097    0.56332    1.000
    C338     C        0.00478    0.85008    0.60394    1.000
    C339     C        0.07274    0.84509    0.69371    1.000
    C340     C        0.03000    0.86266    0.73073    1.000
    Cu171    Cu       0.08599    0.33118    0.10879    1.000
    Cu172    Cu       0.05481    0.26875    0.04652    1.000
    S171     S        0.95747    0.28856    0.03214    1.000
    S172     S        0.10106    0.31609    0.16835    1.000
    N681     N        0.02098    0.30483    0.06936    1.000
    N682     N        0.03304    0.33008    0.09606    1.000
    N683     N        0.97498    0.33948    0.08447    1.000
    H511     H        0.95350    0.34890    0.08530    1.000
    N684     N        0.00396    0.37763    0.12949    1.000
    H512     H        0.02330    0.38280    0.14180    1.000
    H513     H        0.98410    0.38970    0.13310    1.000
    N685     N        0.07352    0.38126    0.19463    1.000
    N686     N        0.04611    0.39286    0.21841    1.000
    N687     N        0.04531    0.33278    0.21578    1.000
    H514     H        0.03910    0.31040    0.21940    1.000
    N688     N        0.00200    0.36110    0.25540    1.000
    H515     H        0.99320    0.38090    0.26450    1.000
    H516     H        0.99320    0.34030    0.26190    1.000
    C341     C        0.98606    0.31097    0.06332    1.000
    C342     C        0.00478    0.35008    0.10394    1.000
    C343     C        0.07274    0.34509    0.19371    1.000
    C344     C        0.03000    0.36266    0.23073    1.000
    Cu173    Cu       0.58599    0.83118    0.10879    1.000
    Cu174    Cu       0.55481    0.76875    0.04652    1.000
    S173     S        0.45747    0.78856    0.03214    1.000
    S174     S        0.60106    0.81609    0.16835    1.000
    N689     N        0.52098    0.80483    0.06936    1.000
    N690     N        0.53304    0.83008    0.09606    1.000
    N691     N        0.47498    0.83948    0.08447    1.000
    H517     H        0.45350    0.84890    0.08530    1.000
    N692     N        0.50396    0.87763    0.12949    1.000
    H518     H        0.52330    0.88280    0.14180    1.000
    H519     H        0.48410    0.88970    0.13310    1.000
    N693     N        0.57352    0.88126    0.19463    1.000
    N694     N        0.54611    0.89286    0.21841    1.000
    N695     N        0.54531    0.83278    0.21578    1.000
    H520     H        0.53910    0.81040    0.21940    1.000
    N696     N        0.50200    0.86110    0.25540    1.000
    H521     H        0.49320    0.88090    0.26450    1.000
    H522     H        0.49320    0.84030    0.26190    1.000
    C345     C        0.48606    0.81097    0.06332    1.000
    C346     C        0.50478    0.85008    0.10394    1.000
    C347     C        0.57274    0.84509    0.19371    1.000
    C348     C        0.53000    0.86266    0.23073    1.000
    Cu175    Cu       0.58599    0.33118    0.60879    1.000
    Cu176    Cu       0.55481    0.26875    0.54652    1.000
    S175     S        0.45747    0.28856    0.53214    1.000
    S176     S        0.60106    0.31609    0.66835    1.000
    N697     N        0.52098    0.30483    0.56936    1.000
    N698     N        0.53304    0.33008    0.59606    1.000
    N699     N        0.47498    0.33948    0.58447    1.000
    H523     H        0.45350    0.34890    0.58530    1.000
    N700     N        0.50396    0.37763    0.62949    1.000
    H524     H        0.52330    0.38280    0.64180    1.000
    H525     H        0.48410    0.38970    0.63310    1.000
    N701     N        0.57352    0.38126    0.69463    1.000
    N702     N        0.54611    0.39286    0.71841    1.000
    N703     N        0.54531    0.33278    0.71578    1.000
    H526     H        0.53910    0.31040    0.71940    1.000
    N704     N        0.50200    0.36110    0.75540    1.000
    H527     H        0.49320    0.38090    0.76450    1.000
    H528     H        0.49320    0.34030    0.76190    1.000
    C349     C        0.48606    0.31097    0.56332    1.000
    C350     C        0.50478    0.35008    0.60394    1.000
    C351     C        0.57274    0.34509    0.69371    1.000
    C352     C        0.53000    0.36266    0.73073    1.000
    Cu177    Cu       0.91401    0.16882    0.60879    1.000
    Cu178    Cu       0.94519    0.23125    0.54652    1.000
    S177     S        0.04253    0.21144    0.53214    1.000
    S178     S        0.89894    0.18391    0.66835    1.000
    N705     N        0.97902    0.19517    0.56936    1.000
    N706     N        0.96696    0.16992    0.59606    1.000
    N707     N        0.02502    0.16052    0.58447    1.000
    H529     H        0.04650    0.15110    0.58530    1.000
    N708     N        0.99604    0.12237    0.62949    1.000
    H530     H        0.97670    0.11720    0.64180    1.000
    H531     H        0.01590    0.11030    0.63310    1.000
    N709     N        0.92648    0.11874    0.69463    1.000
    N710     N        0.95389    0.10714    0.71841    1.000
    N711     N        0.95469    0.16722    0.71578    1.000
    H532     H        0.96090    0.18960    0.71940    1.000
    N712     N        0.99800    0.13890    0.75540    1.000
    H533     H        0.00680    0.11910    0.76450    1.000
    H534     H        0.00680    0.15970    0.76190    1.000
    C353     C        0.01394    0.18903    0.56332    1.000
    C354     C        0.99522    0.14992    0.60394    1.000
    C355     C        0.92726    0.15491    0.69371    1.000
    C356     C        0.97000    0.13734    0.73073    1.000
    Cu179    Cu       0.91401    0.66882    0.10879    1.000
    Cu180    Cu       0.94519    0.73125    0.04652    1.000
    S179     S        0.04253    0.71144    0.03214    1.000
    S180     S        0.89894    0.68391    0.16835    1.000
    N713     N        0.97902    0.69517    0.06936    1.000
    N714     N        0.96696    0.66992    0.09606    1.000
    N715     N        0.02502    0.66052    0.08447    1.000
    H535     H        0.04650    0.65110    0.08530    1.000
    N716     N        0.99604    0.62237    0.12949    1.000
    H536     H        0.97670    0.61720    0.14180    1.000
    H537     H        0.01590    0.61030    0.13310    1.000
    N717     N        0.92648    0.61874    0.19463    1.000
    N718     N        0.95389    0.60714    0.21841    1.000
    N719     N        0.95469    0.66722    0.21578    1.000
    H538     H        0.96090    0.68960    0.21940    1.000
    N720     N        0.99800    0.63890    0.25540    1.000
    H539     H        0.00680    0.61910    0.26450    1.000
    H540     H        0.00680    0.65970    0.26190    1.000
    C357     C        0.01394    0.68903    0.06332    1.000
    C358     C        0.99522    0.64992    0.10394    1.000
    C359     C        0.92726    0.65491    0.19371    1.000
    C360     C        0.97000    0.63734    0.23073    1.000
    Cu181    Cu       0.41401    0.16882    0.10879    1.000
    Cu182    Cu       0.44519    0.23125    0.04652    1.000
    S181     S        0.54253    0.21144    0.03214    1.000
    S182     S        0.39894    0.18391    0.16835    1.000
    N721     N        0.47902    0.19517    0.06936    1.000
    N722     N        0.46696    0.16992    0.09606    1.000
    N723     N        0.52502    0.16052    0.08447    1.000
    H541     H        0.54650    0.15110    0.08530    1.000
    N724     N        0.49604    0.12237    0.12949    1.000
    H542     H        0.47670    0.11720    0.14180    1.000
    H543     H        0.51590    0.11030    0.13310    1.000
    N725     N        0.42648    0.11874    0.19463    1.000
    N726     N        0.45389    0.10714    0.21841    1.000
    N727     N        0.45469    0.16722    0.21578    1.000
    H544     H        0.46090    0.18960    0.21940    1.000
    N728     N        0.49800    0.13890    0.25540    1.000
    H545     H        0.50680    0.11910    0.26450    1.000
    H546     H        0.50680    0.15970    0.26190    1.000
    C361     C        0.51394    0.18903    0.06332    1.000
    C362     C        0.49522    0.14992    0.10394    1.000
    C363     C        0.42726    0.15491    0.19371    1.000
    C364     C        0.47000    0.13734    0.23073    1.000
    Cu183    Cu       0.41401    0.66882    0.60879    1.000
    Cu184    Cu       0.44519    0.73125    0.54652    1.000
    S183     S        0.54253    0.71144    0.53214    1.000
    S184     S        0.39894    0.68391    0.66835    1.000
    N729     N        0.47902    0.69517    0.56936    1.000
    N730     N        0.46696    0.66992    0.59606    1.000
    N731     N        0.52502    0.66052    0.58447    1.000
    H547     H        0.54650    0.65110    0.58530    1.000
    N732     N        0.49604    0.62237    0.62949    1.000
    H548     H        0.47670    0.61720    0.64180    1.000
    H549     H        0.51590    0.61030    0.63310    1.000
    N733     N        0.42648    0.61874    0.69463    1.000
    N734     N        0.45389    0.60714    0.71841    1.000
    N735     N        0.45469    0.66722    0.71578    1.000
    H550     H        0.46090    0.68960    0.71940    1.000
    N736     N        0.49800    0.63890    0.75540    1.000
    H551     H        0.50680    0.61910    0.76450    1.000
    H552     H        0.50680    0.65970    0.76190    1.000
    C365     C        0.51394    0.68903    0.56332    1.000
    C366     C        0.49522    0.64992    0.60394    1.000
    C367     C        0.42726    0.65491    0.69371    1.000
    C368     C        0.47000    0.63734    0.73073    1.000
    Cu185    Cu       0.91401    0.83118    0.39121    1.000
    Cu186    Cu       0.94519    0.76875    0.45348    1.000
    S185     S        0.04253    0.78856    0.46786    1.000
    S186     S        0.89894    0.81609    0.33165    1.000
    N737     N        0.97902    0.80483    0.43064    1.000
    N738     N        0.96696    0.83008    0.40394    1.000
    N739     N        0.02502    0.83948    0.41553    1.000
    H553     H        0.04650    0.84890    0.41470    1.000
    N740     N        0.99604    0.87763    0.37051    1.000
    H554     H        0.97670    0.88280    0.35820    1.000
    H555     H        0.01590    0.88970    0.36690    1.000
    N741     N        0.92648    0.88126    0.30537    1.000
    N742     N        0.95389    0.89286    0.28159    1.000
    N743     N        0.95469    0.83278    0.28422    1.000
    H556     H        0.96090    0.81040    0.28060    1.000
    N744     N        0.99800    0.86110    0.24460    1.000
    H557     H        0.00680    0.88090    0.23550    1.000
    H558     H        0.00680    0.84030    0.23810    1.000
    C369     C        0.01394    0.81097    0.43668    1.000
    C370     C        0.99522    0.85008    0.39606    1.000
    C371     C        0.92726    0.84509    0.30629    1.000
    C372     C        0.97000    0.86266    0.26927    1.000
    Cu187    Cu       0.91401    0.33118    0.89121    1.000
    Cu188    Cu       0.94519    0.26875    0.95348    1.000
    S187     S        0.04253    0.28856    0.96786    1.000
    S188     S        0.89894    0.31609    0.83165    1.000
    N745     N        0.97902    0.30483    0.93064    1.000
    N746     N        0.96696    0.33008    0.90394    1.000
    N747     N        0.02502    0.33948    0.91553    1.000
    H559     H        0.04650    0.34890    0.91470    1.000
    N748     N        0.99604    0.37763    0.87051    1.000
    H560     H        0.97670    0.38280    0.85820    1.000
    H561     H        0.01590    0.38970    0.86690    1.000
    N749     N        0.92648    0.38126    0.80537    1.000
    N750     N        0.95389    0.39286    0.78159    1.000
    N751     N        0.95469    0.33278    0.78422    1.000
    H562     H        0.96090    0.31040    0.78060    1.000
    N752     N        0.99800    0.36110    0.74460    1.000
    H563     H        0.00680    0.38090    0.73550    1.000
    H564     H        0.00680    0.34030    0.73810    1.000
    C373     C        0.01394    0.31097    0.93668    1.000
    C374     C        0.99522    0.35008    0.89606    1.000
    C375     C        0.92726    0.34509    0.80629    1.000
    C376     C        0.97000    0.36266    0.76927    1.000
    Cu189    Cu       0.41401    0.83118    0.89121    1.000
    Cu190    Cu       0.44519    0.76875    0.95348    1.000
    S189     S        0.54253    0.78856    0.96786    1.000
    S190     S        0.39894    0.81609    0.83165    1.000
    N753     N        0.47902    0.80483    0.93064    1.000
    N754     N        0.46696    0.83008    0.90394    1.000
    N755     N        0.52502    0.83948    0.91553    1.000
    H565     H        0.54650    0.84890    0.91470    1.000
    N756     N        0.49604    0.87763    0.87051    1.000
    H566     H        0.47670    0.88280    0.85820    1.000
    H567     H        0.51590    0.88970    0.86690    1.000
    N757     N        0.42648    0.88126    0.80537    1.000
    N758     N        0.45389    0.89286    0.78159    1.000
    N759     N        0.45469    0.83278    0.78422    1.000
    H568     H        0.46090    0.81040    0.78060    1.000
    N760     N        0.49800    0.86110    0.74460    1.000
    H569     H        0.50680    0.88090    0.73550    1.000
    H570     H        0.50680    0.84030    0.73810    1.000
    C377     C        0.51394    0.81097    0.93668    1.000
    C378     C        0.49522    0.85008    0.89606    1.000
    C379     C        0.42726    0.84509    0.80629    1.000
    C380     C        0.47000    0.86266    0.76927    1.000
    Cu191    Cu       0.41401    0.33118    0.39121    1.000
    Cu192    Cu       0.44519    0.26875    0.45348    1.000
    S191     S        0.54253    0.28856    0.46786    1.000
    S192     S        0.39894    0.31609    0.33165    1.000
    N761     N        0.47902    0.30483    0.43064    1.000
    N762     N        0.46696    0.33008    0.40394    1.000
    N763     N        0.52502    0.33948    0.41553    1.000
    H571     H        0.54650    0.34890    0.41470    1.000
    N764     N        0.49604    0.37763    0.37051    1.000
    H572     H        0.47670    0.38280    0.35820    1.000
    H573     H        0.51590    0.38970    0.36690    1.000
    N765     N        0.42648    0.38126    0.30537    1.000
    N766     N        0.45389    0.39286    0.28159    1.000
    N767     N        0.45469    0.33278    0.28422    1.000
    H574     H        0.46090    0.31040    0.28060    1.000
    N768     N        0.49800    0.36110    0.24460    1.000
    H575     H        0.50680    0.38090    0.23550    1.000
    H576     H        0.50680    0.34030    0.23810    1.000
    C381     C        0.51394    0.31097    0.43668    1.000
    C382     C        0.49522    0.35008    0.39606    1.000
    C383     C        0.42726    0.34509    0.30629    1.000
    C384     C        0.47000    0.36266    0.26927    1.000
    Cu193    Cu       0.85210    0.64790    0.64790    1.000
    Cl1      Cl       0.90038    0.59962    0.59962    1.000
    Cu194    Cu       0.85210    0.14790    0.14790    1.000
    Cl2      Cl       0.90038    0.09962    0.09962    1.000
    Cu195    Cu       0.14790    0.35210    0.64790    1.000
    Cl3      Cl       0.09962    0.40038    0.59962    1.000
    Cu196    Cu       0.14790    0.85210    0.14790    1.000
    Cl4      Cl       0.09962    0.90038    0.09962    1.000
    Cu197    Cu       0.14790    0.64790    0.35210    1.000
    Cl5      Cl       0.09962    0.59962    0.40038    1.000
    Cu198    Cu       0.14790    0.14790    0.85210    1.000
    Cl6      Cl       0.09962    0.09962    0.90038    1.000
    Cu199    Cu       0.85210    0.35210    0.35210    1.000
    Cl7      Cl       0.90038    0.40038    0.40038    1.000
    Cu200    Cu       0.85210    0.85210    0.85210    1.000
    Cl8      Cl       0.90038    0.90038    0.90038    1.000
    Cu201    Cu       0.64790    0.85210    0.64790    1.000
    Cl9      Cl       0.59962    0.90038    0.59962    1.000
    Cu202    Cu       0.64790    0.14790    0.35210    1.000
    Cl10     Cl       0.59962    0.09962    0.40038    1.000
    Cu203    Cu       0.35210    0.14790    0.64790    1.000
    Cl11     Cl       0.40038    0.09962    0.59962    1.000
    Cu204    Cu       0.35210    0.85210    0.35210    1.000
    Cl12     Cl       0.40038    0.90038    0.40038    1.000
    Cu205    Cu       0.64790    0.64790    0.85210    1.000
    Cl13     Cl       0.59962    0.59962    0.90038    1.000
    Cu206    Cu       0.35210    0.64790    0.14790    1.000
    Cl14     Cl       0.40038    0.59962    0.09962    1.000
    Cu207    Cu       0.64790    0.35210    0.14790    1.000
    Cl15     Cl       0.59962    0.40038    0.09962    1.000
    Cu208    Cu       0.35210    0.35210    0.85210    1.000
    Cl16     Cl       0.40038    0.40038    0.90038    1.000
    Cu209    Cu       0.14790    0.35210    0.14790    1.000
    Cl17     Cl       0.09962    0.40038    0.09962    1.000
    Cu210    Cu       0.85210    0.64790    0.14790    1.000
    Cl18     Cl       0.90038    0.59962    0.09962    1.000
    Cu211    Cu       0.14790    0.64790    0.85210    1.000
    Cl19     Cl       0.09962    0.59962    0.90038    1.000
    Cu212    Cu       0.85210    0.35210    0.85210    1.000
    Cl20     Cl       0.90038    0.40038    0.90038    1.000
    Cu213    Cu       0.35210    0.14790    0.14790    1.000
    Cl21     Cl       0.40038    0.09962    0.09962    1.000
    Cu214    Cu       0.35210    0.64790    0.64790    1.000
    Cl22     Cl       0.40038    0.59962    0.59962    1.000
    Cu215    Cu       0.64790    0.14790    0.85210    1.000
    Cl23     Cl       0.59962    0.09962    0.90038    1.000
    Cu216    Cu       0.64790    0.64790    0.35210    1.000
    Cl24     Cl       0.59962    0.59962    0.40038    1.000
    Cu217    Cu       0.64790    0.85210    0.14790    1.000
    Cl25     Cl       0.59962    0.90038    0.09962    1.000
    Cu218    Cu       0.64790    0.35210    0.64790    1.000
    Cl26     Cl       0.59962    0.40038    0.59962    1.000
    Cu219    Cu       0.35210    0.85210    0.85210    1.000
    Cl27     Cl       0.40038    0.90038    0.90038    1.000
    Cu220    Cu       0.35210    0.35210    0.35210    1.000
    Cl28     Cl       0.40038    0.40038    0.40038    1.000
    Cu221    Cu       0.14790    0.14790    0.35210    1.000
    Cl29     Cl       0.09962    0.09962    0.40038    1.000
    Cu222    Cu       0.14790    0.85210    0.64790    1.000
    Cl30     Cl       0.09962    0.90038    0.59962    1.000
    Cu223    Cu       0.85210    0.14790    0.64790    1.000
    Cl31     Cl       0.90038    0.09962    0.59962    1.000
    Cu224    Cu       0.85210    0.85210    0.35210    1.000
    Cl32     Cl       0.90038    0.90038    0.40038    1.000
    Cu225    Cu       0.00000    0.75000    0.50000    1.000
    Cu226    Cu       0.00000    0.25000    0.00000    1.000
    Cu227    Cu       0.50000    0.75000    0.00000    1.000
    Cu228    Cu       0.50000    0.25000    0.50000    1.000
    Cu229    Cu       0.00000    0.25000    0.50000    1.000
    Cu230    Cu       0.00000    0.75000    0.00000    1.000
    Cu231    Cu       0.50000    0.25000    0.00000    1.000
    Cu232    Cu       0.50000    0.75000    0.50000    1.000
    Cu233    Cu       0.50000    0.00000    0.75000    1.000
    Cu234    Cu       0.50000    0.50000    0.25000    1.000
    Cu235    Cu       0.00000    0.00000    0.25000    1.000
    Cu236    Cu       0.00000    0.50000    0.75000    1.000
    Cu237    Cu       0.50000    0.00000    0.25000    1.000
    Cu238    Cu       0.50000    0.50000    0.75000    1.000
    Cu239    Cu       0.00000    0.00000    0.75000    1.000
    Cu240    Cu       0.00000    0.50000    0.25000    1.000
    Cu241    Cu       0.75000    0.50000    0.00000    1.000
    Cu242    Cu       0.75000    0.00000    0.50000    1.000
    Cu243    Cu       0.25000    0.50000    0.50000    1.000
    Cu244    Cu       0.25000    0.00000    0.00000    1.000
    Cu245    Cu       0.25000    0.50000    0.00000    1.000
    Cu246    Cu       0.25000    0.00000    0.50000    1.000
    Cu247    Cu       0.75000    0.50000    0.50000    1.000
    Cu248    Cu       0.75000    0.00000    0.00000    1.000
