# CIF file generated by openbabel 3.1.0, see https://openbabel.org
data_I
_chemical_name_common 'image0'
_cell_length_a 17.5515
_cell_length_b 14.2875
_cell_length_c 18.7456
_cell_angle_alpha 90
_cell_angle_beta 97.436
_cell_angle_gamma 90
_space_group_name_H-M_alt 'P 1'
_space_group_name_Hall 'P 1'
loop_
    _symmetry_equiv_pos_as_xyz
    x,y,z
loop_
    _atom_site_label
    _atom_site_type_symbol
    _atom_site_fract_x
    _atom_site_fract_y
    _atom_site_fract_z
    _atom_site_occupancy
    Mn1      Mn       0.61625    0.42877    0.99503    1.000
    Mn2      Mn       0.86809    0.57665    0.99526    1.000
    N1       N        0.67734    0.31450    0.93175    1.000
    O1       O        0.81902    0.02526    0.55842    1.000
    O2       O        0.71168    0.09745    0.57963    1.000
    C1       C        0.77789    0.06670    0.59802    1.000
    C2       C        0.81200    0.08380    0.67590    1.000
    C3       C        0.77181    0.13490    0.72134    1.000
    H1       H        0.72280    0.15830    0.70400    1.000
    C4       C        0.80280    0.15250    0.79267    1.000
    C5       C        0.87580    0.11770    0.81660    1.000
    H2       H        0.89830    0.13020    0.86390    1.000
    C6       C        0.91540    0.06520    0.77190    1.000
    H3       H        0.96420    0.04130    0.78930    1.000
    C7       C        0.88390    0.04730    0.70132    1.000
    H4       H        0.91090    0.01100    0.67110    1.000
    C8       C        0.64260    0.24950    0.88742    1.000
    H5       H        0.58950    0.24010    0.88720    1.000
    C9       C        0.68060    0.19520    0.84187    1.000
    H6       H        0.65340    0.15050    0.81170    1.000
    C10      C        0.75941    0.20720    0.84102    1.000
    C11      C        0.79560    0.27260    0.88914    1.000
    H7       H        0.84900    0.28130    0.89250    1.000
    C12      C        0.75332    0.32460    0.93178    1.000
    H8       H        0.77910    0.36950    0.96260    1.000
    N2       N        0.54667    0.16310    0.56534    1.000
    O3       O        0.41321    0.45687    0.93929    1.000
    O4       O        0.52415    0.40372    0.90899    1.000
    C13      C        0.45392    0.42200    0.89601    1.000
    C14      C        0.41505    0.39670    0.82127    1.000
    C15      C        0.45475    0.34690    0.77391    1.000
    H9       H        0.50620    0.32980    0.78820    1.000
    C16      C        0.41927    0.32200    0.70539    1.000
    C17      C        0.34340    0.35000    0.68424    1.000
    H10      H        0.31930    0.33500    0.63790    1.000
    C18      C        0.30360    0.39950    0.73090    1.000
    H11      H        0.25250    0.41780    0.71630    1.000
    C19      C        0.33903    0.42250    0.79954    1.000
    H12      H        0.31150    0.45550    0.83130    1.000
    C20      C        0.55690    0.15110    0.63686    1.000
    H13      H        0.59330    0.10670    0.65640    1.000
    C21      C        0.51690    0.20030    0.68327    1.000
    H14      H        0.52640    0.18890    0.73300    1.000
    C22      C        0.46221    0.26710    0.65645    1.000
    C23      C        0.44950    0.27610    0.58254    1.000
    H15      H        0.41180    0.31780    0.56120    1.000
    C24      C        0.49220    0.22360    0.53989    1.000
    H16      H        0.48200    0.23110    0.48980    1.000
    N3       N        0.07156    0.18186    0.57069    1.000
    O5       O        0.92360    0.46787    0.94136    1.000
    O6       O        0.03529    0.40654    0.92003    1.000
    C25      C        0.96777    0.43400    0.90108    1.000
    C26      C        0.93696    0.42100    0.82231    1.000
    C27      C        0.97793    0.36910    0.77756    1.000
    H17      H        0.02650    0.34530    0.79580    1.000
    C28      C        0.94854    0.35140    0.70607    1.000
    C29      C        0.87690    0.38880    0.67996    1.000
    H18      H        0.85570    0.37720    0.63210    1.000
    C30      C        0.83690    0.44250    0.72380    1.000
    H19      H        0.78920    0.46840    0.70500    1.000
    C31      C        0.86610    0.45880    0.79533    1.000
    H20      H        0.83830    0.49490    0.82500    1.000
    C32      C        0.10807    0.24350    0.61723    1.000
    H21      H        0.16170    0.24870    0.61960    1.000
    C33      C        0.07096    0.29950    0.66164    1.000
    H22      H        0.09920    0.34150    0.69340    1.000
    C34      C        0.99137    0.29370    0.65937    1.000
    C35      C        0.95330    0.23070    0.61027    1.000
    H23      H        0.89950    0.22570    0.60560    1.000
    C36      C        0.99460    0.17600    0.56874    1.000
    H24      H        0.96790    0.13240    0.53740    1.000
    N4       N        0.80893    0.80721    0.55458    1.000
    O7       O        0.66441    0.52839    0.92957    1.000
    O8       O        0.77515    0.59036    0.90710    1.000
    C37      C        0.70787    0.56170    0.88826    1.000
    C38      C        0.67728    0.56990    0.80889    1.000
    C39      C        0.71694    0.62190    0.76310    1.000
    H25      H        0.76350    0.65080    0.78130    1.000
    C40      C        0.68854    0.63210    0.68998    1.000
    C41      C        0.61960    0.58760    0.66384    1.000
    H26      H        0.59940    0.59410    0.61520    1.000
    C42      C        0.58100    0.53420    0.70910    1.000
    H27      H        0.53530    0.50340    0.69060    1.000
    C43      C        0.60894    0.52550    0.78194    1.000
    H28      H        0.58190    0.49000    0.81260    1.000
    C44      C        0.84671    0.75100    0.60451    1.000
    H29      H        0.90070    0.75090    0.60950    1.000
    C45      C        0.81090    0.69310    0.64897    1.000
    H30      H        0.84040    0.65630    0.68370    1.000
    C46      C        0.73092    0.68950    0.64220    1.000
    C47      C        0.69202    0.74580    0.58887    1.000
    H31      H        0.63800    0.74480    0.58100    1.000
    C48      C        0.73190    0.80310    0.54733    1.000
    H32      H        0.70380    0.84110    0.51240    1.000
    Mn3      Mn       0.38375    0.92877    0.50497    1.000
    Mn4      Mn       0.13191    0.07665    0.50474    1.000
    N5       N        0.32266    0.81450    0.56825    1.000
    O9       O        0.18098    0.52526    0.94158    1.000
    O10      O        0.28832    0.59745    0.92037    1.000
    C49      C        0.22211    0.56670    0.90198    1.000
    C50      C        0.18800    0.58380    0.82410    1.000
    C51      C        0.22819    0.63490    0.77866    1.000
    H33      H        0.27720    0.65830    0.79600    1.000
    C52      C        0.19720    0.65250    0.70733    1.000
    C53      C        0.12420    0.61770    0.68340    1.000
    H34      H        0.10170    0.63020    0.63610    1.000
    C54      C        0.08460    0.56520    0.72810    1.000
    H35      H        0.03580    0.54130    0.71070    1.000
    C55      C        0.11610    0.54730    0.79868    1.000
    H36      H        0.08910    0.51100    0.82890    1.000
    C56      C        0.35740    0.74950    0.61258    1.000
    H37      H        0.41050    0.74010    0.61280    1.000
    C57      C        0.31940    0.69520    0.65813    1.000
    H38      H        0.34660    0.65050    0.68830    1.000
    C58      C        0.24059    0.70720    0.65898    1.000
    C59      C        0.20440    0.77260    0.61086    1.000
    H39      H        0.15100    0.78130    0.60750    1.000
    C60      C        0.24668    0.82460    0.56822    1.000
    H40      H        0.22090    0.86950    0.53740    1.000
    N6       N        0.45333    0.66310    0.93466    1.000
    O11      O        0.58679    0.95687    0.56071    1.000
    O12      O        0.47585    0.90372    0.59101    1.000
    C61      C        0.54608    0.92200    0.60399    1.000
    C62      C        0.58495    0.89670    0.67873    1.000
    C63      C        0.54525    0.84690    0.72609    1.000
    H41      H        0.49380    0.82980    0.71180    1.000
    C64      C        0.58073    0.82200    0.79461    1.000
    C65      C        0.65660    0.85000    0.81576    1.000
    H42      H        0.68070    0.83500    0.86210    1.000
    C66      C        0.69640    0.89950    0.76910    1.000
    H43      H        0.74750    0.91780    0.78370    1.000
    C67      C        0.66097    0.92250    0.70046    1.000
    H44      H        0.68850    0.95550    0.66870    1.000
    C68      C        0.44310    0.65110    0.86314    1.000
    H45      H        0.40670    0.60670    0.84360    1.000
    C69      C        0.48310    0.70030    0.81673    1.000
    H46      H        0.47360    0.68890    0.76700    1.000
    C70      C        0.53779    0.76710    0.84355    1.000
    C71      C        0.55050    0.77610    0.91746    1.000
    H47      H        0.58820    0.81780    0.93880    1.000
    C72      C        0.50780    0.72360    0.96011    1.000
    H48      H        0.51800    0.73110    0.01020    1.000
    N7       N        0.92844    0.68186    0.92931    1.000
    O13      O        0.07640    0.96787    0.55864    1.000
    O14      O        0.96471    0.90654    0.57997    1.000
    C73      C        0.03223    0.93400    0.59892    1.000
    C74      C        0.06304    0.92100    0.67769    1.000
    C75      C        0.02207    0.86910    0.72244    1.000
    H49      H        0.97350    0.84530    0.70420    1.000
    C76      C        0.05146    0.85140    0.79393    1.000
    C77      C        0.12310    0.88880    0.82004    1.000
    H50      H        0.14430    0.87720    0.86790    1.000
    C78      C        0.16310    0.94250    0.77620    1.000
    H51      H        0.21080    0.96840    0.79500    1.000
    C79      C        0.13390    0.95880    0.70467    1.000
    H52      H        0.16170    0.99490    0.67500    1.000
    C80      C        0.89193    0.74350    0.88277    1.000
    H53      H        0.83830    0.74870    0.88040    1.000
    C81      C        0.92904    0.79950    0.83836    1.000
    H54      H        0.90080    0.84150    0.80660    1.000
    C82      C        0.00863    0.79370    0.84063    1.000
    C83      C        0.04670    0.73070    0.88973    1.000
    H55      H        0.10050    0.72570    0.89440    1.000
    C84      C        0.00540    0.67600    0.93126    1.000
    H56      H        0.03210    0.63240    0.96260    1.000
    N8       N        0.19107    0.30721    0.94542    1.000
    O15      O        0.33559    0.02839    0.57043    1.000
    O16      O        0.22485    0.09036    0.59290    1.000
    C85      C        0.29213    0.06170    0.61174    1.000
    C86      C        0.32272    0.06990    0.69111    1.000
    C87      C        0.28306    0.12190    0.73690    1.000
    H57      H        0.23650    0.15080    0.71870    1.000
    C88      C        0.31146    0.13210    0.81002    1.000
    C89      C        0.38040    0.08760    0.83616    1.000
    H58      H        0.40060    0.09410    0.88480    1.000
    C90      C        0.41900    0.03420    0.79090    1.000
    H59      H        0.46470    0.00340    0.80940    1.000
    C91      C        0.39106    0.02550    0.71806    1.000
    H60      H        0.41810    0.99000    0.68740    1.000
    C92      C        0.15329    0.25100    0.89549    1.000
    H61      H        0.09930    0.25090    0.89050    1.000
    C93      C        0.18910    0.19310    0.85103    1.000
    H62      H        0.15960    0.15630    0.81630    1.000
    C94      C        0.26908    0.18950    0.85780    1.000
    C95      C        0.30798    0.24580    0.91113    1.000
    H63      H        0.36200    0.24480    0.91900    1.000
    C96      C        0.26810    0.30310    0.95267    1.000
    H64      H        0.29620    0.34110    0.98760    1.000
    Mn5      Mn       0.38375    0.57123    0.00497    1.000
    Mn6      Mn       0.13191    0.42335    0.00474    1.000
    N9       N        0.32266    0.68550    0.06825    1.000
    O17      O        0.18098    0.97474    0.44158    1.000
    O18      O        0.28832    0.90255    0.42037    1.000
    C97      C        0.22211    0.93330    0.40198    1.000
    C98      C        0.18800    0.91620    0.32410    1.000
    C99      C        0.22819    0.86510    0.27866    1.000
    H65      H        0.27720    0.84170    0.29600    1.000
    C100     C        0.19720    0.84750    0.20733    1.000
    C101     C        0.12420    0.88230    0.18340    1.000
    H66      H        0.10170    0.86980    0.13610    1.000
    C102     C        0.08460    0.93480    0.22810    1.000
    H67      H        0.03580    0.95870    0.21070    1.000
    C103     C        0.11610    0.95270    0.29868    1.000
    H68      H        0.08910    0.98900    0.32890    1.000
    C104     C        0.35740    0.75050    0.11258    1.000
    H69      H        0.41050    0.75990    0.11280    1.000
    C105     C        0.31940    0.80480    0.15813    1.000
    H70      H        0.34660    0.84950    0.18830    1.000
    C106     C        0.24059    0.79280    0.15898    1.000
    C107     C        0.20440    0.72740    0.11086    1.000
    H71      H        0.15100    0.71870    0.10750    1.000
    C108     C        0.24668    0.67540    0.06822    1.000
    H72      H        0.22090    0.63050    0.03740    1.000
    N10      N        0.45333    0.83690    0.43466    1.000
    O19      O        0.58679    0.54313    0.06071    1.000
    O20      O        0.47585    0.59628    0.09101    1.000
    C109     C        0.54608    0.57800    0.10399    1.000
    C110     C        0.58495    0.60330    0.17873    1.000
    C111     C        0.54525    0.65310    0.22609    1.000
    H73      H        0.49380    0.67020    0.21180    1.000
    C112     C        0.58073    0.67800    0.29461    1.000
    C113     C        0.65660    0.65000    0.31576    1.000
    H74      H        0.68070    0.66500    0.36210    1.000
    C114     C        0.69640    0.60050    0.26910    1.000
    H75      H        0.74750    0.58220    0.28370    1.000
    C115     C        0.66097    0.57750    0.20046    1.000
    H76      H        0.68850    0.54450    0.16870    1.000
    C116     C        0.44310    0.84890    0.36314    1.000
    H77      H        0.40670    0.89330    0.34360    1.000
    C117     C        0.48310    0.79970    0.31673    1.000
    H78      H        0.47360    0.81110    0.26700    1.000
    C118     C        0.53779    0.73290    0.34355    1.000
    C119     C        0.55050    0.72390    0.41746    1.000
    H79      H        0.58820    0.68220    0.43880    1.000
    C120     C        0.50780    0.77640    0.46011    1.000
    H80      H        0.51800    0.76890    0.51020    1.000
    N11      N        0.92844    0.81814    0.42931    1.000
    O21      O        0.07640    0.53213    0.05864    1.000
    O22      O        0.96471    0.59346    0.07997    1.000
    C121     C        0.03223    0.56600    0.09892    1.000
    C122     C        0.06304    0.57900    0.17769    1.000
    C123     C        0.02207    0.63090    0.22244    1.000
    H81      H        0.97350    0.65470    0.20420    1.000
    C124     C        0.05146    0.64860    0.29393    1.000
    C125     C        0.12310    0.61120    0.32004    1.000
    H82      H        0.14430    0.62280    0.36790    1.000
    C126     C        0.16310    0.55750    0.27620    1.000
    H83      H        0.21080    0.53160    0.29500    1.000
    C127     C        0.13390    0.54120    0.20467    1.000
    H84      H        0.16170    0.50510    0.17500    1.000
    C128     C        0.89193    0.75650    0.38277    1.000
    H85      H        0.83830    0.75130    0.38040    1.000
    C129     C        0.92904    0.70050    0.33836    1.000
    H86      H        0.90080    0.65850    0.30660    1.000
    C130     C        0.00863    0.70630    0.34063    1.000
    C131     C        0.04670    0.76930    0.38973    1.000
    H87      H        0.10050    0.77430    0.39440    1.000
    C132     C        0.00540    0.82400    0.43126    1.000
    H88      H        0.03210    0.86760    0.46260    1.000
    N12      N        0.19107    0.19279    0.44542    1.000
    O23      O        0.33559    0.47161    0.07043    1.000
    O24      O        0.22485    0.40964    0.09290    1.000
    C133     C        0.29213    0.43830    0.11174    1.000
    C134     C        0.32272    0.43010    0.19111    1.000
    C135     C        0.28306    0.37810    0.23690    1.000
    H89      H        0.23650    0.34920    0.21870    1.000
    C136     C        0.31146    0.36790    0.31002    1.000
    C137     C        0.38040    0.41240    0.33616    1.000
    H90      H        0.40060    0.40590    0.38480    1.000
    C138     C        0.41900    0.46580    0.29090    1.000
    H91      H        0.46470    0.49660    0.30940    1.000
    C139     C        0.39106    0.47450    0.21806    1.000
    H92      H        0.41810    0.51000    0.18740    1.000
    C140     C        0.15329    0.24900    0.39549    1.000
    H93      H        0.09930    0.24910    0.39050    1.000
    C141     C        0.18910    0.30690    0.35103    1.000
    H94      H        0.15960    0.34370    0.31630    1.000
    C142     C        0.26908    0.31050    0.35780    1.000
    C143     C        0.30798    0.25420    0.41113    1.000
    H95      H        0.36200    0.25520    0.41900    1.000
    C144     C        0.26810    0.19690    0.45267    1.000
    H96      H        0.29620    0.15890    0.48760    1.000
    Mn7      Mn       0.61625    0.07123    0.49503    1.000
    Mn8      Mn       0.86809    0.92335    0.49526    1.000
    N13      N        0.67734    0.18550    0.43175    1.000
    O25      O        0.81902    0.47474    0.05842    1.000
    O26      O        0.71168    0.40255    0.07963    1.000
    C145     C        0.77789    0.43330    0.09802    1.000
    C146     C        0.81200    0.41620    0.17590    1.000
    C147     C        0.77181    0.36510    0.22134    1.000
    H97      H        0.72280    0.34170    0.20400    1.000
    C148     C        0.80280    0.34750    0.29267    1.000
    C149     C        0.87580    0.38230    0.31660    1.000
    H98      H        0.89830    0.36980    0.36390    1.000
    C150     C        0.91540    0.43480    0.27190    1.000
    H99      H        0.96420    0.45870    0.28930    1.000
    C151     C        0.88390    0.45270    0.20132    1.000
    H100     H        0.91090    0.48900    0.17110    1.000
    C152     C        0.64260    0.25050    0.38742    1.000
    H101     H        0.58950    0.25990    0.38720    1.000
    C153     C        0.68060    0.30480    0.34187    1.000
    H102     H        0.65340    0.34950    0.31170    1.000
    C154     C        0.75941    0.29280    0.34102    1.000
    C155     C        0.79560    0.22740    0.38914    1.000
    H103     H        0.84900    0.21870    0.39250    1.000
    C156     C        0.75332    0.17540    0.43178    1.000
    H104     H        0.77910    0.13050    0.46260    1.000
    N14      N        0.54667    0.33690    0.06534    1.000
    O27      O        0.41321    0.04313    0.43929    1.000
    O28      O        0.52415    0.09628    0.40899    1.000
    C157     C        0.45392    0.07800    0.39601    1.000
    C158     C        0.41505    0.10330    0.32127    1.000
    C159     C        0.45475    0.15310    0.27391    1.000
    H105     H        0.50620    0.17020    0.28820    1.000
    C160     C        0.41927    0.17800    0.20539    1.000
    C161     C        0.34340    0.15000    0.18424    1.000
    H106     H        0.31930    0.16500    0.13790    1.000
    C162     C        0.30360    0.10050    0.23090    1.000
    H107     H        0.25250    0.08220    0.21630    1.000
    C163     C        0.33903    0.07750    0.29954    1.000
    H108     H        0.31150    0.04450    0.33130    1.000
    C164     C        0.55690    0.34890    0.13686    1.000
    H109     H        0.59330    0.39330    0.15640    1.000
    C165     C        0.51690    0.29970    0.18327    1.000
    H110     H        0.52640    0.31110    0.23300    1.000
    C166     C        0.46221    0.23290    0.15645    1.000
    C167     C        0.44950    0.22390    0.08254    1.000
    H111     H        0.41180    0.18220    0.06120    1.000
    C168     C        0.49220    0.27640    0.03989    1.000
    H112     H        0.48200    0.26890    0.98980    1.000
    N15      N        0.07156    0.31814    0.07069    1.000
    O29      O        0.92360    0.03213    0.44136    1.000
    O30      O        0.03529    0.09346    0.42003    1.000
    C169     C        0.96777    0.06600    0.40108    1.000
    C170     C        0.93696    0.07900    0.32231    1.000
    C171     C        0.97793    0.13090    0.27756    1.000
    H113     H        0.02650    0.15470    0.29580    1.000
    C172     C        0.94854    0.14860    0.20607    1.000
    C173     C        0.87690    0.11120    0.17996    1.000
    H114     H        0.85570    0.12280    0.13210    1.000
    C174     C        0.83690    0.05750    0.22380    1.000
    H115     H        0.78920    0.03160    0.20500    1.000
    C175     C        0.86610    0.04120    0.29533    1.000
    H116     H        0.83830    0.00510    0.32500    1.000
    C176     C        0.10807    0.25650    0.11723    1.000
    H117     H        0.16170    0.25130    0.11960    1.000
    C177     C        0.07096    0.20050    0.16164    1.000
    H118     H        0.09920    0.15850    0.19340    1.000
    C178     C        0.99137    0.20630    0.15937    1.000
    C179     C        0.95330    0.26930    0.11027    1.000
    H119     H        0.89950    0.27430    0.10560    1.000
    C180     C        0.99460    0.32400    0.06874    1.000
    H120     H        0.96790    0.36760    0.03740    1.000
    N16      N        0.80893    0.69279    0.05458    1.000
    O31      O        0.66441    0.97161    0.42957    1.000
    O32      O        0.77515    0.90964    0.40710    1.000
    C181     C        0.70787    0.93830    0.38826    1.000
    C182     C        0.67728    0.93010    0.30889    1.000
    C183     C        0.71694    0.87810    0.26310    1.000
    H121     H        0.76350    0.84920    0.28130    1.000
    C184     C        0.68854    0.86790    0.18998    1.000
    C185     C        0.61960    0.91240    0.16384    1.000
    H122     H        0.59940    0.90590    0.11520    1.000
    C186     C        0.58100    0.96580    0.20910    1.000
    H123     H        0.53530    0.99660    0.19060    1.000
    C187     C        0.60894    0.97450    0.28194    1.000
    H124     H        0.58190    0.01000    0.31260    1.000
    C188     C        0.84671    0.74900    0.10451    1.000
    H125     H        0.90070    0.74910    0.10950    1.000
    C189     C        0.81090    0.80690    0.14897    1.000
    H126     H        0.84040    0.84370    0.18370    1.000
    C190     C        0.73092    0.81050    0.14220    1.000
    C191     C        0.69202    0.75420    0.08887    1.000
    H127     H        0.63800    0.75520    0.08100    1.000
    C192     C        0.73190    0.69690    0.04733    1.000
    H128     H        0.70380    0.65890    0.01240    1.000
