# CIF file generated by openbabel 3.1.0, see https://openbabel.org
data_I
_chemical_name_common 'image0'
_cell_length_a 15.1236
_cell_length_b 15.1236
_cell_length_c 12.042
_cell_angle_alpha 90
_cell_angle_beta 90
_cell_angle_gamma 90
_space_group_name_H-M_alt 'P 1'
_space_group_name_Hall 'P 1'
loop_
    _symmetry_equiv_pos_as_xyz
    x,y,z
loop_
    _atom_site_label
    _atom_site_type_symbol
    _atom_site_fract_x
    _atom_site_fract_y
    _atom_site_fract_z
    _atom_site_occupancy
    O1       O        0.60151    0.28984    0.75676    1.000
    O2       O        0.61740    0.37927    0.60963    1.000
    C1       C        0.59003    0.36026    0.70240    1.000
    C2       C        0.54299    0.43307    0.76040    1.000
    C3       C        0.54626    0.43256    0.87937    1.000
    H1       H        0.57318    0.38162    0.90735    1.000
    O3       O        0.10151    0.78984    0.25676    1.000
    O4       O        0.11740    0.87927    0.10963    1.000
    C4       C        0.09003    0.86026    0.20240    1.000
    C5       C        0.04299    0.93307    0.26040    1.000
    C6       C        0.04626    0.93256    0.37937    1.000
    H2       H        0.07318    0.88162    0.40735    1.000
    O5       O        0.89849    0.21016    0.25676    1.000
    O6       O        0.88260    0.12073    0.10963    1.000
    C7       C        0.90997    0.13974    0.20240    1.000
    C8       C        0.95701    0.06693    0.26040    1.000
    C9       C        0.95374    0.06744    0.37937    1.000
    H3       H        0.92682    0.11838    0.40735    1.000
    O7       O        0.39849    0.71016    0.75676    1.000
    O8       O        0.38260    0.62073    0.60963    1.000
    C10      C        0.40997    0.63974    0.70240    1.000
    C11      C        0.45701    0.56693    0.76040    1.000
    C12      C        0.45374    0.56744    0.87937    1.000
    H4       H        0.42682    0.61838    0.90735    1.000
    O9       O        0.71016    0.10151    0.00676    1.000
    O10      O        0.62073    0.11740    0.85963    1.000
    C13      C        0.63974    0.09003    0.95240    1.000
    C14      C        0.56693    0.04299    0.01040    1.000
    C15      C        0.56744    0.04626    0.12937    1.000
    H5       H        0.61838    0.07318    0.15735    1.000
    O11      O        0.21016    0.60151    0.50676    1.000
    O12      O        0.12073    0.61740    0.35963    1.000
    C16      C        0.13974    0.59003    0.45240    1.000
    C17      C        0.06693    0.54299    0.51040    1.000
    C18      C        0.06744    0.54626    0.62937    1.000
    H6       H        0.11838    0.57318    0.65735    1.000
    O13      O        0.78984    0.39849    0.50676    1.000
    O14      O        0.87927    0.38260    0.35963    1.000
    C19      C        0.86026    0.40997    0.45240    1.000
    C20      C        0.93307    0.45701    0.51040    1.000
    C21      C        0.93256    0.45374    0.62937    1.000
    H7       H        0.88162    0.42682    0.65735    1.000
    O15      O        0.28984    0.89849    0.00676    1.000
    O16      O        0.37927    0.88260    0.85963    1.000
    C22      C        0.36026    0.90997    0.95240    1.000
    C23      C        0.43307    0.95701    0.01040    1.000
    C24      C        0.43256    0.95374    0.12937    1.000
    H8       H        0.38162    0.92682    0.15735    1.000
    O17      O        0.89849    0.28984    0.99324    1.000
    O18      O        0.88260    0.37927    0.14037    1.000
    C25      C        0.90997    0.36026    0.04760    1.000
    C26      C        0.95701    0.43307    0.98960    1.000
    C27      C        0.95374    0.43256    0.87063    1.000
    H9       H        0.92682    0.38162    0.84265    1.000
    O19      O        0.39849    0.78984    0.49324    1.000
    O20      O        0.38260    0.87927    0.64037    1.000
    C28      C        0.40997    0.86026    0.54760    1.000
    C29      C        0.45701    0.93307    0.48960    1.000
    C30      C        0.45374    0.93256    0.37063    1.000
    H10      H        0.42682    0.88162    0.34265    1.000
    O21      O        0.60151    0.21016    0.49324    1.000
    O22      O        0.61740    0.12073    0.64037    1.000
    C31      C        0.59003    0.13974    0.54760    1.000
    C32      C        0.54299    0.06693    0.48960    1.000
    C33      C        0.54626    0.06744    0.37063    1.000
    H11      H        0.57318    0.11838    0.34265    1.000
    O23      O        0.10151    0.71016    0.99324    1.000
    O24      O        0.11740    0.62073    0.14037    1.000
    C34      C        0.09003    0.63974    0.04760    1.000
    C35      C        0.04299    0.56693    0.98960    1.000
    C36      C        0.04626    0.56744    0.87063    1.000
    H12      H        0.07318    0.61838    0.84265    1.000
    O25      O        0.78984    0.10151    0.74324    1.000
    O26      O        0.87927    0.11740    0.89037    1.000
    C37      C        0.86026    0.09003    0.79760    1.000
    C38      C        0.93307    0.04299    0.73960    1.000
    C39      C        0.93256    0.04626    0.62063    1.000
    H13      H        0.88162    0.07318    0.59265    1.000
    O27      O        0.28984    0.60151    0.24324    1.000
    O28      O        0.37927    0.61740    0.39037    1.000
    C40      C        0.36026    0.59003    0.29760    1.000
    C41      C        0.43307    0.54299    0.23960    1.000
    C42      C        0.43256    0.54626    0.12063    1.000
    H14      H        0.38162    0.57318    0.09265    1.000
    O29      O        0.71016    0.39849    0.24324    1.000
    O30      O        0.62073    0.38260    0.39037    1.000
    C43      C        0.63974    0.40997    0.29760    1.000
    C44      C        0.56693    0.45701    0.23960    1.000
    C45      C        0.56744    0.45374    0.12063    1.000
    H15      H        0.61838    0.42682    0.09265    1.000
    O31      O        0.21016    0.89849    0.74324    1.000
    O32      O        0.12073    0.88260    0.89037    1.000
    C46      C        0.13974    0.90997    0.79760    1.000
    C47      C        0.06693    0.95701    0.73960    1.000
    C48      C        0.06744    0.95374    0.62063    1.000
    H16      H        0.11838    0.92682    0.59265    1.000
    V1       V        0.69080    0.30920    0.50000    1.000
    V2       V        0.19080    0.80920    0.00000    1.000
    V3       V        0.80920    0.19080    0.00000    1.000
    V4       V        0.30920    0.69080    0.50000    1.000
    V5       V        0.69080    0.19080    0.75000    1.000
    V6       V        0.19080    0.69080    0.25000    1.000
    V7       V        0.80920    0.30920    0.25000    1.000
    V8       V        0.30920    0.80920    0.75000    1.000
    O33      O        0.74625    0.25000    0.62500    1.000
    H17      H        0.80600    0.25000    0.62500    1.000
    O34      O        0.24625    0.75000    0.12500    1.000
    H18      H        0.30600    0.75000    0.12500    1.000
    O35      O        0.75375    0.25000    0.12500    1.000
    H19      H        0.69400    0.25000    0.12500    1.000
    O36      O        0.25375    0.75000    0.62500    1.000
    H20      H        0.19400    0.75000    0.62500    1.000
    O37      O        0.75000    0.24625    0.87500    1.000
    H21      H        0.75000    0.30600    0.87500    1.000
    O38      O        0.25000    0.74625    0.37500    1.000
    H22      H        0.25000    0.80600    0.37500    1.000
    O39      O        0.75000    0.25375    0.37500    1.000
    H23      H        0.75000    0.19400    0.37500    1.000
    O40      O        0.25000    0.75375    0.87500    1.000
    H24      H        0.25000    0.69400    0.87500    1.000
    C49      C        0.50000    0.50000    0.70380    1.000
    C50      C        0.50000    0.50000    0.93619    1.000
    H25      H        0.50000    0.50000    0.62660    1.000
    C51      C        0.00000    0.00000    0.20380    1.000
    C52      C        0.00000    0.00000    0.43619    1.000
    H26      H        0.00000    0.00000    0.12660    1.000
    C53      C        0.50000    0.00000    0.95380    1.000
    C54      C        0.50000    0.00000    0.18619    1.000
    H27      H        0.50000    0.00000    0.87660    1.000
    C55      C        0.00000    0.50000    0.45380    1.000
    C56      C        0.00000    0.50000    0.68619    1.000
    H28      H        0.00000    0.50000    0.37660    1.000
    C57      C        0.00000    0.50000    0.04620    1.000
    C58      C        0.00000    0.50000    0.81381    1.000
    H29      H        0.00000    0.50000    0.12340    1.000
    C59      C        0.50000    0.00000    0.54620    1.000
    C60      C        0.50000    0.00000    0.31381    1.000
    H30      H        0.50000    0.00000    0.62340    1.000
    C61      C        0.00000    0.00000    0.79620    1.000
    C62      C        0.00000    0.00000    0.56381    1.000
    H31      H        0.00000    0.00000    0.87340    1.000
    C63      C        0.50000    0.50000    0.29620    1.000
    C64      C        0.50000    0.50000    0.06381    1.000
    H32      H        0.50000    0.50000    0.37340    1.000
