# CIF file generated by openbabel 3.1.0, see https://openbabel.org
data_I
_chemical_name_common 'GITZAM_clean'
_cell_length_a 11.0106
_cell_length_b 11.0106
_cell_length_c 24.062
_cell_angle_alpha 92.3646
_cell_angle_beta 92.3646
_cell_angle_gamma 101.204
_space_group_name_H-M_alt 'P 1'
_space_group_name_Hall 'P 1'
loop_
    _symmetry_equiv_pos_as_xyz
    x,y,z
loop_
    _atom_site_label
    _atom_site_type_symbol
    _atom_site_fract_x
    _atom_site_fract_y
    _atom_site_fract_z
    _atom_site_occupancy
    Cd1      Cd       0.94429    0.05571    0.75000    1.000
    Cd2      Cd       0.50000    0.50000    0.00000    1.000
    Cd3      Cd       0.50000    0.50000    0.50000    1.000
    Cd4      Cd       0.05571    0.94429    0.25000    1.000
    H1       H        0.30970    0.70150    0.55270    1.000
    H2       H        0.17160    0.03620    0.43710    1.000
    H3       H        0.98360    0.90940    0.40880    1.000
    H4       H        0.72530    0.84190    0.87050    1.000
    H5       H        0.11220    0.70540    0.32240    1.000
    H6       H        0.78810    0.42590    0.95840    1.000
    H7       H        0.79280    0.35040    0.40640    1.000
    H8       H        0.70310    0.62790    0.28290    1.000
    H9       H        0.27330    0.36970    0.81320    1.000
    H10      H        0.69260    0.29260    0.88260    1.000
    H11      H        0.30740    0.70740    0.11740    1.000
    H12      H        0.56210    0.63270    0.27440    1.000
    H13      H        0.63030    0.72670    0.68680    1.000
    H14      H        0.03620    0.17160    0.93710    1.000
    H15      H        0.05700    0.53920    0.85350    1.000
    H16      H        0.01640    0.09060    0.59120    1.000
    H17      H        0.94300    0.46080    0.14650    1.000
    H18      H        0.32220    0.03520    0.33360    1.000
    H19      H        0.47250    0.63850    0.17750    1.000
    H20      H        0.47220    0.16500    0.85720    1.000
    H21      H        0.03520    0.32220    0.83360    1.000
    H22      H        0.79210    0.10310    0.14820    1.000
    H23      H        0.36150    0.52750    0.32250    1.000
    H24      H        0.66080    0.28340    0.38280    1.000
    H25      H        0.59430    0.64030    0.87820    1.000
    H26      H        0.64960    0.20720    0.09360    1.000
    H27      H        0.28340    0.66080    0.88280    1.000
    H28      H        0.42590    0.78810    0.45840    1.000
    H29      H        0.29690    0.37210    0.71710    1.000
    H30      H        0.70530    0.00390    0.04280    1.000
    H31      H        0.82920    0.66880    0.65000    1.000
    H32      H        0.61970    0.94430    0.22580    1.000
    H33      H        0.78660    0.66360    0.52890    1.000
    H34      H        0.21340    0.33640    0.47110    1.000
    H35      H        0.93560    0.13740    0.14160    1.000
    H36      H        0.67780    0.96480    0.66640    1.000
    H37      H        0.38050    0.48050    0.80100    1.000
    H38      H        0.50820    0.83860    0.23830    1.000
    H39      H        0.82840    0.96380    0.56290    1.000
    H40      H        0.84190    0.72530    0.37050    1.000
    H41      H        0.48050    0.38050    0.30100    1.000
    H42      H        0.86860    0.22860    0.17470    1.000
    H43      H        0.27470    0.15810    0.12950    1.000
    H44      H        0.16500    0.47220    0.35720    1.000
    H45      H        0.36970    0.27330    0.31320    1.000
    H46      H        0.52750    0.36150    0.82250    1.000
    H47      H        0.17080    0.33120    0.35000    1.000
    H48      H        0.33640    0.21340    0.97110    1.000
    H49      H        0.10310    0.79210    0.64820    1.000
    H50      H        0.65880    0.82680    0.30230    1.000
    H51      H        0.05570    0.38030    0.27420    1.000
    H52      H        0.38030    0.05570    0.77420    1.000
    H53      H        0.66360    0.78660    0.02890    1.000
    H54      H        0.69030    0.29850    0.44730    1.000
    H55      H        0.60730    0.84890    0.51290    1.000
    H56      H        0.94430    0.61970    0.72580    1.000
    H57      H        0.21190    0.57410    0.04160    1.000
    H58      H        0.82680    0.65880    0.80230    1.000
    H59      H        0.61950    0.51950    0.19900    1.000
    H60      H        0.09060    0.01640    0.09120    1.000
    H61      H        0.62790    0.70310    0.78290    1.000
    H62      H        0.15110    0.39270    0.98710    1.000
    H63      H        0.13140    0.77140    0.82530    1.000
    H64      H        0.72670    0.63030    0.18680    1.000
    H65      H        0.84890    0.60730    0.01290    1.000
    H66      H        0.83500    0.52780    0.64280    1.000
    H67      H        0.06440    0.86260    0.85840    1.000
    H68      H        0.43790    0.36730    0.72560    1.000
    H69      H        0.63850    0.47250    0.67750    1.000
    H70      H        0.89690    0.20790    0.35180    1.000
    H71      H        0.13740    0.93560    0.64160    1.000
    H72      H        0.17320    0.34120    0.19770    1.000
    H73      H        0.00390    0.70530    0.54280    1.000
    H74      H        0.66880    0.82920    0.15000    1.000
    H75      H        0.53920    0.05700    0.35350    1.000
    H76      H        0.36730    0.43790    0.22560    1.000
    H77      H        0.63270    0.56210    0.77440    1.000
    H78      H        0.70540    0.11220    0.82240    1.000
    H79      H        0.29850    0.69030    0.94730    1.000
    H80      H        0.20790    0.89690    0.85180    1.000
    H81      H        0.29470    0.99610    0.95720    1.000
    H82      H        0.49180    0.16140    0.76170    1.000
    H83      H        0.77140    0.13140    0.32530    1.000
    H84      H        0.35040    0.79280    0.90640    1.000
    H85      H        0.40570    0.35970    0.12180    1.000
    H86      H        0.33120    0.17080    0.85000    1.000
    H87      H        0.39270    0.15110    0.48710    1.000
    H88      H        0.37210    0.29690    0.21710    1.000
    H89      H        0.88780    0.29460    0.67760    1.000
    H90      H        0.96380    0.82840    0.06290    1.000
    H91      H        0.86260    0.06440    0.35840    1.000
    H92      H        0.90940    0.98360    0.90880    1.000
    H93      H        0.52780    0.83500    0.14280    1.000
    H94      H        0.51950    0.61950    0.69900    1.000
    H95      H        0.16140    0.49180    0.26170    1.000
    H96      H        0.83860    0.50820    0.73830    1.000
    H97      H        0.70150    0.30970    0.05270    1.000
    H98      H        0.99610    0.29470    0.45720    1.000
    H99      H        0.33920    0.71660    0.61720    1.000
    H100     H        0.46080    0.94300    0.64650    1.000
    H101     H        0.29460    0.88780    0.17760    1.000
    H102     H        0.22860    0.86860    0.67470    1.000
    H103     H        0.71660    0.33920    0.11720    1.000
    H104     H        0.64030    0.59430    0.37820    1.000
    H105     H        0.29260    0.69260    0.38260    1.000
    H106     H        0.15810    0.27470    0.62950    1.000
    H107     H        0.35970    0.40570    0.62180    1.000
    H108     H        0.20720    0.64960    0.59360    1.000
    H109     H        0.34120    0.17320    0.69770    1.000
    H110     H        0.70740    0.30740    0.61740    1.000
    H111     H        0.96480    0.67780    0.16640    1.000
    H112     H        0.57410    0.21190    0.54160    1.000
    C1       C        0.62510    0.69570    0.90801    1.000
    C2       C        0.65991    0.05429    0.41881    1.000
    C3       C        0.64360    0.60900    0.20013    1.000
    C4       C        0.84820    0.81380    0.75686    1.000
    C5       C        0.96270    0.22810    0.47805    1.000
    C6       C        0.33960    0.35660    0.23994    1.000
    C7       C        0.44741    0.98319    0.61426    1.000
    C8       C        0.58840    0.80280    0.16528    1.000
    C9       C        0.00888    0.32032    0.03339    1.000
    C10      C        0.33750    0.22510    0.00968    1.000
    C11      C        0.39041    0.45501    0.39694    1.000
    C12      C        0.08204    0.53456    0.09829    1.000
    C13      C        0.39100    0.35640    0.29987    1.000
    C14      C        0.32032    0.00888    0.53339    1.000
    C15      C        0.77490    0.66250    0.49032    1.000
    C16      C        0.30270    0.19330    0.09680    1.000
    C17      C        0.35640    0.39100    0.79987    1.000
    C18      C        0.59170    0.85510    0.22512    1.000
    C19      C        0.27640    0.71520    0.58815    1.000
    C20      C        0.82220    0.22920    0.66784    1.000
    C21      C        0.72290    0.23730    0.63445    1.000
    C22      C        0.66150    0.55490    0.66265    1.000
    C23      C        0.97432    0.10508    0.55858    1.000
    C24      C        0.13802    0.97018    0.45819    1.000
    C25      C        0.64340    0.66040    0.26006    1.000
    C26      C        0.45501    0.39041    0.89694    1.000
    C27      C        0.67550    0.80090    0.26434    1.000
    C28      C        0.55259    0.01681    0.38574    1.000
    C29      C        0.13910    0.83030    0.85640    1.000
    C30      C        0.80670    0.69730    0.40320    1.000
    C31      C        0.19910    0.32450    0.23566    1.000
    C32      C        0.66040    0.64340    0.76006    1.000
    C33      C        0.22810    0.96270    0.97805    1.000
    C34      C        0.83030    0.13910    0.35640    1.000
    C35      C        0.01681    0.55259    0.88574    1.000
    C36      C        0.23730    0.72290    0.13445    1.000
    C37      C        0.41160    0.19720    0.83472    1.000
    C38      C        0.80090    0.67550    0.76434    1.000
    C39      C        0.40683    0.10877    0.51864    1.000
    C40      C        0.80280    0.58840    0.66528    1.000
    C41      C        0.22510    0.33750    0.50968    1.000
    C42      C        0.97018    0.13802    0.95819    1.000
    C43      C        0.99112    0.67968    0.96661    1.000
    C44      C        0.89123    0.59317    0.98136    1.000
    C45      C        0.89492    0.02568    0.94142    1.000
    C46      C        0.83873    0.23387    0.08958    1.000
    C47      C        0.16127    0.76613    0.91042    1.000
    C48      C        0.14490    0.40830    0.27488    1.000
    C49      C        0.04857    0.70783    0.16195    1.000
    C50      C        0.98319    0.44741    0.11426    1.000
    C51      C        0.51458    0.14502    0.55121    1.000
    C52      C        0.30430    0.37490    0.59199    1.000
    C53      C        0.05429    0.65991    0.91881    1.000
    C54      C        0.19720    0.41160    0.33472    1.000
    C55      C        0.85510    0.59170    0.72512    1.000
    C56      C        0.71520    0.27640    0.08815    1.000
    C57      C        0.10877    0.40683    0.01864    1.000
    C58      C        0.67968    0.99112    0.46661    1.000
    C59      C        0.20010    0.94690    0.50643    1.000
    C60      C        0.81380    0.84820    0.25686    1.000
    C61      C        0.48542    0.85498    0.44879    1.000
    C62      C        0.02568    0.89492    0.44142    1.000
    C63      C        0.23387    0.83873    0.58958    1.000
    C64      C        0.19330    0.30270    0.59680    1.000
    C65      C        0.27710    0.76270    0.36555    1.000
    C66      C        0.95143    0.29217    0.83805    1.000
    C67      C        0.76270    0.27710    0.86555    1.000
    C68      C        0.20223    0.02377    0.02641    1.000
    C69      C        0.76613    0.16127    0.41042    1.000
    C70      C        0.37490    0.30430    0.09199    1.000
    C71      C        0.97623    0.79777    0.47359    1.000
    C72      C        0.53456    0.08204    0.59829    1.000
    C73      C        0.14502    0.51458    0.05121    1.000
    C74      C        0.85058    0.15182    0.46173    1.000
    C75      C        0.79990    0.05310    0.49357    1.000
    C76      C        0.60959    0.54499    0.60306    1.000
    C77      C        0.77190    0.03730    0.02195    1.000
    C78      C        0.15180    0.18620    0.24314    1.000
    C79      C        0.22920    0.82220    0.16784    1.000
    C80      C        0.72360    0.28480    0.41185    1.000
    C81      C        0.91796    0.46544    0.90171    1.000
    C82      C        0.85498    0.48542    0.94879    1.000
    C83      C        0.02982    0.86198    0.04181    1.000
    C84      C        0.10508    0.97432    0.05858    1.000
    C85      C        0.59317    0.89123    0.48136    1.000
    C86      C        0.94571    0.34009    0.08119    1.000
    C87      C        0.40830    0.14490    0.77488    1.000
    C88      C        0.84818    0.14942    0.03827    1.000
    C89      C        0.17780    0.77080    0.33216    1.000
    C90      C        0.28480    0.72360    0.91185    1.000
    C91      C        0.94690    0.20010    0.00643    1.000
    C92      C        0.33850    0.44510    0.33735    1.000
    C93      C        0.55490    0.66150    0.16265    1.000
    C94      C        0.60900    0.64360    0.70013    1.000
    C95      C        0.86198    0.02982    0.54181    1.000
    C96      C        0.69730    0.80670    0.90320    1.000
    C97      C        0.69570    0.62510    0.40801    1.000
    C98      C        0.14942    0.84818    0.53827    1.000
    C99      C        0.66250    0.77490    0.99032    1.000
    C100     C        0.44510    0.33850    0.83735    1.000
    C101     C        0.05310    0.79990    0.99357    1.000
    C102     C        0.02377    0.20223    0.52641    1.000
    C103     C        0.86090    0.16970    0.14360    1.000
    C104     C        0.70783    0.04857    0.66195    1.000
    C105     C        0.34009    0.94571    0.58119    1.000
    C106     C        0.18620    0.15180    0.74314    1.000
    C107     C        0.16970    0.86090    0.64360    1.000
    C108     C        0.46544    0.91796    0.40171    1.000
    C109     C        0.77080    0.17780    0.83216    1.000
    C110     C        0.54499    0.60959    0.10306    1.000
    C111     C        0.29217    0.95143    0.33805    1.000
    C112     C        0.03730    0.77190    0.52195    1.000
    C113     C        0.79777    0.97623    0.97359    1.000
    C114     C        0.32450    0.19910    0.73566    1.000
    C115     C        0.15182    0.85058    0.96173    1.000
    C116     C        0.35660    0.33960    0.73994    1.000
    N1       N        0.81275    0.11123    0.68539    1.000
    N2       N        0.67416    0.60242    0.46237    1.000
    N3       N        0.87952    0.35068    0.86935    1.000
    N4       N        0.18725    0.88877    0.31461    1.000
    N5       N        0.32584    0.39758    0.53763    1.000
    N6       N        0.27812    0.14144    0.04331    1.000
    N7       N        0.39758    0.32584    0.03763    1.000
    N8       N        0.88877    0.18725    0.81461    1.000
    N9       N        0.12048    0.64932    0.13065    1.000
    N10      N        0.64932    0.12048    0.63065    1.000
    N11      N        0.14144    0.27812    0.54331    1.000
    N12      N        0.85856    0.72188    0.45669    1.000
    N13      N        0.60242    0.67416    0.96237    1.000
    N14      N        0.11123    0.81275    0.18539    1.000
    N15      N        0.72188    0.85856    0.95669    1.000
    N16      N        0.35068    0.87952    0.36935    1.000
    O1       O        0.80850    0.89010    0.78743    1.000
    O2       O        0.62060    0.45072    0.57340    1.000
    O3       O        0.54928    0.37940    0.92660    1.000
    O4       O        0.07713    0.15097    0.27764    1.000
    O5       O        0.89010    0.80850    0.28743    1.000
    O6       O        0.37940    0.54928    0.42660    1.000
    O7       O        0.62735    0.55835    0.08455    1.000
    O8       O        0.15097    0.07713    0.77764    1.000
    O9       O        0.84903    0.92287    0.22236    1.000
    O10      O        0.44165    0.37265    0.41545    1.000
    O11      O        0.55835    0.62735    0.58455    1.000
    O12      O        0.45072    0.62060    0.07340    1.000
    O13      O        0.10990    0.19150    0.71257    1.000
    O14      O        0.19150    0.10990    0.21257    1.000
    O15      O        0.37265    0.44165    0.91545    1.000
    O16      O        0.92287    0.84903    0.72236    1.000
