# CIF file generated by openbabel 3.1.0, see https://openbabel.org
data_I
_chemical_name_common 'IKOSUW_charged'
_cell_length_a 10.815
_cell_length_b 16.413
_cell_length_c 22.7861
_cell_angle_alpha 90
_cell_angle_beta 90
_cell_angle_gamma 90
_space_group_name_H-M_alt 'P 1'
_space_group_name_Hall 'P 1'
loop_
    _symmetry_equiv_pos_as_xyz
    x,y,z
loop_
    _atom_site_label
    _atom_site_type_symbol
    _atom_site_fract_x
    _atom_site_fract_y
    _atom_site_fract_z
    _atom_site_occupancy
    Cu1      Cu       0.50000    0.97576    0.25000    1.000
    Cu2      Cu       0.50000    0.52424    0.75000    1.000
    Cu3      Cu       0.50000    0.02424    0.75000    1.000
    Cu4      Cu       0.50000    0.47576    0.25000    1.000
    H1       H        0.83590    0.34180    0.01650    1.000
    H2       H        0.95210    0.33770    0.07030    1.000
    H3       H        0.76780    0.22790    0.24350    1.000
    H4       H        0.65820    0.11410    0.28920    1.000
    H5       H        0.56330    0.02200    0.12480    1.000
    H6       H        0.67880    0.13010    0.07540    1.000
    H7       H        0.11840    0.34170    0.99380    1.000
    H8       H        0.99950    0.35270    0.94190    1.000
    H9       H        0.46670    0.27840    0.87370    1.000
    H10      H        0.56980    0.17440    0.81610    1.000
    H11      H        0.23420    0.06020    0.78110    1.000
    H12      H        0.12220    0.15850    0.84190    1.000
    H13      H        0.16410    0.34180    0.48350    1.000
    H14      H        0.04790    0.33770    0.42970    1.000
    H15      H        0.23220    0.22790    0.25650    1.000
    H16      H        0.34180    0.11410    0.21080    1.000
    H17      H        0.43670    0.02200    0.37520    1.000
    H18      H        0.32120    0.13010    0.42460    1.000
    H19      H        0.88160    0.34170    0.50620    1.000
    H20      H        0.00050    0.35270    0.55810    1.000
    H21      H        0.53330    0.27840    0.62630    1.000
    H22      H        0.43020    0.17440    0.68390    1.000
    H23      H        0.76580    0.06020    0.71890    1.000
    H24      H        0.87780    0.15850    0.65810    1.000
    H25      H        0.83590    0.15820    0.98350    1.000
    H26      H        0.95210    0.16230    0.92970    1.000
    H27      H        0.76780    0.27210    0.75650    1.000
    H28      H        0.65820    0.38590    0.71080    1.000
    H29      H        0.56330    0.47800    0.87520    1.000
    H30      H        0.67880    0.36990    0.92460    1.000
    H31      H        0.11840    0.15830    0.00620    1.000
    H32      H        0.99950    0.14730    0.05810    1.000
    H33      H        0.46670    0.22160    0.12630    1.000
    H34      H        0.56980    0.32560    0.18390    1.000
    H35      H        0.23420    0.43980    0.21890    1.000
    H36      H        0.12220    0.34150    0.15810    1.000
    H37      H        0.16410    0.15820    0.51650    1.000
    H38      H        0.04790    0.16230    0.57030    1.000
    H39      H        0.23220    0.27210    0.74350    1.000
    H40      H        0.34180    0.38590    0.78920    1.000
    H41      H        0.43670    0.47800    0.62480    1.000
    H42      H        0.32120    0.36990    0.57540    1.000
    H43      H        0.88160    0.15830    0.49380    1.000
    H44      H        0.00050    0.14730    0.44190    1.000
    H45      H        0.53330    0.22160    0.37370    1.000
    H46      H        0.43020    0.32560    0.31610    1.000
    H47      H        0.76580    0.43980    0.28110    1.000
    H48      H        0.87780    0.34150    0.34190    1.000
    H49      H        0.16410    0.65820    0.98350    1.000
    H50      H        0.04790    0.66230    0.92970    1.000
    H51      H        0.23220    0.77210    0.75650    1.000
    H52      H        0.34180    0.88590    0.71080    1.000
    H53      H        0.43670    0.97800    0.87520    1.000
    H54      H        0.32120    0.86990    0.92460    1.000
    H55      H        0.88160    0.65830    0.00620    1.000
    H56      H        0.00050    0.64730    0.05810    1.000
    H57      H        0.53330    0.72160    0.12630    1.000
    H58      H        0.43020    0.82560    0.18390    1.000
    H59      H        0.76580    0.93980    0.21890    1.000
    H60      H        0.87780    0.84150    0.15810    1.000
    H61      H        0.83590    0.65820    0.51650    1.000
    H62      H        0.95210    0.66230    0.57030    1.000
    H63      H        0.76780    0.77210    0.74350    1.000
    H64      H        0.65820    0.88590    0.78920    1.000
    H65      H        0.56330    0.97800    0.62480    1.000
    H66      H        0.67880    0.86990    0.57540    1.000
    H67      H        0.11840    0.65830    0.49380    1.000
    H68      H        0.99950    0.64730    0.44190    1.000
    H69      H        0.46670    0.72160    0.37370    1.000
    H70      H        0.56980    0.82560    0.31610    1.000
    H71      H        0.23420    0.93980    0.28110    1.000
    H72      H        0.12220    0.84150    0.34190    1.000
    H73      H        0.16410    0.84180    0.01650    1.000
    H74      H        0.04790    0.83770    0.07030    1.000
    H75      H        0.23220    0.72790    0.24350    1.000
    H76      H        0.34180    0.61410    0.28920    1.000
    H77      H        0.43670    0.52200    0.12480    1.000
    H78      H        0.32120    0.63010    0.07540    1.000
    H79      H        0.88160    0.84170    0.99380    1.000
    H80      H        0.00050    0.85270    0.94190    1.000
    H81      H        0.53330    0.77840    0.87370    1.000
    H82      H        0.43020    0.67440    0.81610    1.000
    H83      H        0.76580    0.56020    0.78110    1.000
    H84      H        0.87780    0.65850    0.84190    1.000
    H85      H        0.83590    0.84180    0.48350    1.000
    H86      H        0.95210    0.83770    0.42970    1.000
    H87      H        0.76780    0.72790    0.25650    1.000
    H88      H        0.65820    0.61410    0.21080    1.000
    H89      H        0.56330    0.52200    0.37520    1.000
    H90      H        0.67880    0.63010    0.42460    1.000
    H91      H        0.11840    0.84170    0.50620    1.000
    H92      H        0.99950    0.85270    0.55810    1.000
    H93      H        0.46670    0.77840    0.62630    1.000
    H94      H        0.56980    0.67440    0.68390    1.000
    H95      H        0.23420    0.56020    0.71890    1.000
    H96      H        0.12220    0.65850    0.65810    1.000
    C1       C        0.89520    0.30160    0.04130    1.000
    C2       C        0.80500    0.25300    0.12330    1.000
    C3       C        0.73330    0.18670    0.15630    1.000
    C4       C        0.72430    0.18220    0.21640    1.000
    C5       C        0.65990    0.11940    0.24200    1.000
    C6       C        0.60850    0.06810    0.15090    1.000
    C7       C        0.67390    0.12840    0.12270    1.000
    C8       C        0.05620    0.30920    0.96500    1.000
    C9       C        0.22430    0.28710    0.90100    1.000
    C10      C        0.28730    0.22470    0.86380    1.000
    C11      C        0.41380    0.22920    0.85470    1.000
    C12      C        0.47070    0.17160    0.82170    1.000
    C13      C        0.28500    0.10810    0.80290    1.000
    C14      C        0.22120    0.16310    0.83670    1.000
    C15      C        0.10480    0.30160    0.45870    1.000
    C16      C        0.19500    0.25300    0.37670    1.000
    C17      C        0.26670    0.18670    0.34370    1.000
    C18      C        0.27570    0.18220    0.28360    1.000
    C19      C        0.34010    0.11940    0.25800    1.000
    C20      C        0.39150    0.06810    0.34910    1.000
    C21      C        0.32610    0.12840    0.37730    1.000
    C22      C        0.94380    0.30920    0.53500    1.000
    C23      C        0.77570    0.28710    0.59900    1.000
    C24      C        0.71270    0.22470    0.63620    1.000
    C25      C        0.58620    0.22920    0.64530    1.000
    C26      C        0.52930    0.17160    0.67830    1.000
    C27      C        0.71500    0.10810    0.69710    1.000
    C28      C        0.77880    0.16310    0.66330    1.000
    C29      C        0.89520    0.19840    0.95870    1.000
    C30      C        0.80500    0.24700    0.87670    1.000
    C31      C        0.73330    0.31330    0.84370    1.000
    C32      C        0.72430    0.31780    0.78360    1.000
    C33      C        0.65990    0.38060    0.75800    1.000
    C34      C        0.60850    0.43190    0.84910    1.000
    C35      C        0.67390    0.37160    0.87730    1.000
    C36      C        0.05620    0.19080    0.03500    1.000
    C37      C        0.22430    0.21290    0.09900    1.000
    C38      C        0.28730    0.27530    0.13620    1.000
    C39      C        0.41380    0.27080    0.14530    1.000
    C40      C        0.47070    0.32840    0.17830    1.000
    C41      C        0.28500    0.39190    0.19710    1.000
    C42      C        0.22120    0.33690    0.16330    1.000
    C43      C        0.10480    0.19840    0.54130    1.000
    C44      C        0.19500    0.24700    0.62330    1.000
    C45      C        0.26670    0.31330    0.65630    1.000
    C46      C        0.27570    0.31780    0.71640    1.000
    C47      C        0.34010    0.38060    0.74200    1.000
    C48      C        0.39150    0.43190    0.65090    1.000
    C49      C        0.32610    0.37160    0.62270    1.000
    C50      C        0.94380    0.19080    0.46500    1.000
    C51      C        0.77570    0.21290    0.40100    1.000
    C52      C        0.71270    0.27530    0.36380    1.000
    C53      C        0.58620    0.27080    0.35470    1.000
    C54      C        0.52930    0.32840    0.32170    1.000
    C55      C        0.71500    0.39190    0.30290    1.000
    C56      C        0.77880    0.33690    0.33670    1.000
    C57      C        0.10480    0.69840    0.95870    1.000
    C58      C        0.19500    0.74700    0.87670    1.000
    C59      C        0.26670    0.81330    0.84370    1.000
    C60      C        0.27570    0.81780    0.78360    1.000
    C61      C        0.34010    0.88060    0.75800    1.000
    C62      C        0.39150    0.93190    0.84910    1.000
    C63      C        0.32610    0.87160    0.87730    1.000
    C64      C        0.94380    0.69080    0.03500    1.000
    C65      C        0.77570    0.71290    0.09900    1.000
    C66      C        0.71270    0.77530    0.13620    1.000
    C67      C        0.58620    0.77080    0.14530    1.000
    C68      C        0.52930    0.82840    0.17830    1.000
    C69      C        0.71500    0.89190    0.19710    1.000
    C70      C        0.77880    0.83690    0.16330    1.000
    C71      C        0.89520    0.69840    0.54130    1.000
    C72      C        0.80500    0.74700    0.62330    1.000
    C73      C        0.73330    0.81330    0.65630    1.000
    C74      C        0.72430    0.81780    0.71640    1.000
    C75      C        0.65990    0.88060    0.74200    1.000
    C76      C        0.60850    0.93190    0.65090    1.000
    C77      C        0.67390    0.87160    0.62270    1.000
    C78      C        0.05620    0.69080    0.46500    1.000
    C79      C        0.22430    0.71290    0.40100    1.000
    C80      C        0.28730    0.77530    0.36380    1.000
    C81      C        0.41380    0.77080    0.35470    1.000
    C82      C        0.47070    0.82840    0.32170    1.000
    C83      C        0.28500    0.89190    0.30290    1.000
    C84      C        0.22120    0.83690    0.33670    1.000
    C85      C        0.10480    0.80160    0.04130    1.000
    C86      C        0.19500    0.75300    0.12330    1.000
    C87      C        0.26670    0.68670    0.15630    1.000
    C88      C        0.27570    0.68220    0.21640    1.000
    C89      C        0.34010    0.61940    0.24200    1.000
    C90      C        0.39150    0.56810    0.15090    1.000
    C91      C        0.32610    0.62840    0.12270    1.000
    C92      C        0.94380    0.80920    0.96500    1.000
    C93      C        0.77570    0.78710    0.90100    1.000
    C94      C        0.71270    0.72470    0.86380    1.000
    C95      C        0.58620    0.72920    0.85470    1.000
    C96      C        0.52930    0.67160    0.82170    1.000
    C97      C        0.71500    0.60810    0.80290    1.000
    C98      C        0.77880    0.66310    0.83670    1.000
    C99      C        0.89520    0.80160    0.45870    1.000
    C100     C        0.80500    0.75300    0.37670    1.000
    C101     C        0.73330    0.68670    0.34370    1.000
    C102     C        0.72430    0.68220    0.28360    1.000
    C103     C        0.65990    0.61940    0.25800    1.000
    C104     C        0.60850    0.56810    0.34910    1.000
    C105     C        0.67390    0.62840    0.37730    1.000
    C106     C        0.05620    0.80920    0.53500    1.000
    C107     C        0.22430    0.78710    0.59900    1.000
    C108     C        0.28730    0.72470    0.63620    1.000
    C109     C        0.41380    0.72920    0.64530    1.000
    C110     C        0.47070    0.67160    0.67830    1.000
    C111     C        0.28500    0.60810    0.69710    1.000
    C112     C        0.22120    0.66310    0.66330    1.000
    C113     C        0.97600    0.25000    0.00000    1.000
    C114     C        0.02400    0.25000    0.50000    1.000
    C115     C        0.02400    0.75000    0.00000    1.000
    C116     C        0.97600    0.75000    0.50000    1.000
    N1       N        0.59870    0.06420    0.20900    1.000
    N2       N        0.40800    0.11150    0.79600    1.000
    N3       N        0.40130    0.06420    0.29100    1.000
    N4       N        0.59200    0.11150    0.70400    1.000
    N5       N        0.59870    0.43580    0.79100    1.000
    N6       N        0.40800    0.38850    0.20400    1.000
    N7       N        0.40130    0.43580    0.70900    1.000
    N8       N        0.59200    0.38850    0.29600    1.000
    N9       N        0.40130    0.93580    0.79100    1.000
    N10      N        0.59200    0.88850    0.20400    1.000
    N11      N        0.59870    0.93580    0.70900    1.000
    N12      N        0.40800    0.88850    0.29600    1.000
    N13      N        0.40130    0.56420    0.20900    1.000
    N14      N        0.59200    0.61150    0.79600    1.000
    N15      N        0.59870    0.56420    0.29100    1.000
    N16      N        0.40800    0.61150    0.70400    1.000
    O1       O        0.79840    0.32230    0.14920    1.000
    O2       O        0.82330    0.24380    0.07404    1.000
    O3       O        0.12490    0.25910    0.92408    1.000
    O4       O        0.26060    0.35670    0.90520    1.000
    O5       O        0.20160    0.32230    0.35080    1.000
    O6       O        0.17670    0.24380    0.42596    1.000
    O7       O        0.87510    0.25910    0.57592    1.000
    O8       O        0.73940    0.35670    0.59480    1.000
    O9       O        0.79840    0.17770    0.85080    1.000
    O10      O        0.82330    0.25620    0.92596    1.000
    O11      O        0.12490    0.24090    0.07592    1.000
    O12      O        0.26060    0.14330    0.09480    1.000
    O13      O        0.20160    0.17770    0.64920    1.000
    O14      O        0.17670    0.25620    0.57404    1.000
    O15      O        0.87510    0.24090    0.42408    1.000
    O16      O        0.73940    0.14330    0.40520    1.000
    O17      O        0.20160    0.67770    0.85080    1.000
    O18      O        0.17670    0.75620    0.92596    1.000
    O19      O        0.87510    0.74090    0.07592    1.000
    O20      O        0.73940    0.64330    0.09480    1.000
    O21      O        0.79840    0.67770    0.64920    1.000
    O22      O        0.82330    0.75620    0.57404    1.000
    O23      O        0.12490    0.74090    0.42408    1.000
    O24      O        0.26060    0.64330    0.40520    1.000
    O25      O        0.20160    0.82230    0.14920    1.000
    O26      O        0.17670    0.74380    0.07404    1.000
    O27      O        0.87510    0.75910    0.92408    1.000
    O28      O        0.73940    0.85670    0.90520    1.000
    O29      O        0.79840    0.82230    0.35080    1.000
    O30      O        0.82330    0.74380    0.42596    1.000
    O31      O        0.12490    0.75910    0.57592    1.000
    O32      O        0.26060    0.85670    0.59480    1.000
    N17      N        0.00000    0.18800    0.25000    1.000
    O33      O        0.02020    0.19440    0.19180    1.000
    O34      O        0.97980    0.19440    0.30820    1.000
    O35      O        0.00000    0.09400    0.25000    1.000
    N18      N        0.00000    0.31200    0.75000    1.000
    O36      O        0.02020    0.30560    0.80820    1.000
    O37      O        0.97980    0.30560    0.69180    1.000
    O38      O        0.00000    0.40600    0.75000    1.000
    N19      N        0.00000    0.81200    0.75000    1.000
    O39      O        0.97980    0.80560    0.80820    1.000
    O40      O        0.02020    0.80560    0.69180    1.000
    O41      O        0.00000    0.90600    0.75000    1.000
    N20      N        0.00000    0.68800    0.25000    1.000
    O42      O        0.97980    0.69440    0.19180    1.000
    O43      O        0.02020    0.69440    0.30820    1.000
    O44      O        0.00000    0.59400    0.25000    1.000
