data_functionalizedCrystal
_audit_creation_method	'EQeq! by Chris Wilmer'
_symmetry_space_group_name_H-M	'P1'
_symmetry_Int_Tables_number	1
_symmetry_cell_setting	triclinic
loop_
_symmetry_equiv_pos_as_xyz
  x,y,z
_cell_length_a	14.2384
_cell_length_b	16.3862
_cell_length_c	6.845
_cell_angle_alpha	90
_cell_angle_beta	90
_cell_angle_gamma	90
loop_
_atom_site_label
_atom_site_type_symbol
_atom_site_fract_x
_atom_site_fract_y
_atom_site_fract_z
_atom_site_charge
Mof_C 	C 	0.42089	0.90723	0.1104	0.272
Mof_C 	C 	0.35909	0.83114	0.1058	-0.201
Mof_C 	C 	0.2677	0.83188	0.1771	0.265
Mof_C 	C 	0.2122	0.76207	0.1746	0.237
Mof_C 	C 	0.24531	0.68841	0.102	-0.09
Mof_C 	C 	0.18469	0.61164	0.1015	0.119
Mof_C 	C 	0.33733	0.68761	0.033	0.1
Mof_C 	C 	0.3925	0.75743	0.0324	0.139
Mof_Ca	Ca	0.43129	0.96948	0.6128	1.458
Mof_F 	F 	0.23114	0.90132	0.2496	-0.403
Mof_F 	F 	0.12394	0.76737	0.2443	-0.361
Mof_F 	F 	0.37551	0.61711	0.9692	-0.175
Mof_F 	F 	0.48097	0.75264	0.9626	-0.205
Mof_O 	O 	0.45002	0.93487	0.9506	-0.282
Mof_O 	O 	0.44135	0.93656	0.2726	-0.446
Mof_O 	O 	0.15338	0.58776	0.2626	-0.249
Mof_O 	O 	0.17047	0.57706	0.9415	-0.044
Mof_C 	C 	0.57911	0.09277	0.6104	0.52
Mof_C 	C 	0.64091	0.16886	0.6058	-0.247
Mof_C 	C 	0.7323	0.16812	0.6771	0.305
Mof_C 	C 	0.7878	0.23793	0.6746	0.285
Mof_C 	C 	0.75469	0.31159	0.602	-0.16
Mof_C 	C 	0.81531	0.38836	0.6015	0.412
Mof_C 	C 	0.66267	0.31239	0.533	0.272
Mof_C 	C 	0.6075	0.24257	0.5324	0.3
Mof_Ca	Ca	0.56871	0.03052	0.1128	1.126
Mof_F 	F 	0.76886	0.09868	0.7496	-0.353
Mof_F 	F 	0.87606	0.23263	0.7443	-0.327
Mof_F 	F 	0.62449	0.38289	0.4692	-0.35
Mof_F 	F 	0.51903	0.24736	0.4626	-0.392
Mof_O 	O 	0.54998	0.06513	0.4506	-0.501
Mof_O 	O 	0.55865	0.06344	0.7726	-0.419
Mof_O 	O 	0.84662	0.41224	0.7626	-0.281
Mof_O 	O 	0.82953	0.42294	0.4415	-0.326
Mof_C 	C 	0.92089	0.59277	0.1104	0.271
Mof_C 	C 	0.85909	0.66886	0.1058	-0.203
Mof_C 	C 	0.7677	0.66812	0.1771	0.263
Mof_C 	C 	0.7122	0.73793	0.1746	0.237
Mof_C 	C 	0.74531	0.81159	0.102	-0.096
Mof_C 	C 	0.68469	0.88836	0.1015	0.123
Mof_C 	C 	0.83733	0.81239	0.033	0.102
Mof_C 	C 	0.8925	0.74257	0.0324	0.138
Mof_Ca	Ca	0.93129	0.53052	0.6128	1.455
Mof_F 	F 	0.73114	0.59868	0.2496	-0.403
Mof_F 	F 	0.62394	0.73263	0.2443	-0.368
Mof_F 	F 	0.87551	0.88289	0.9692	-0.185
Mof_F 	F 	0.98097	0.74736	0.9626	-0.216
Mof_O 	O 	0.95002	0.56513	0.9506	-0.286
Mof_O 	O 	0.94135	0.56344	0.2726	-0.45
Mof_O 	O 	0.65338	0.91224	0.2626	-0.261
Mof_O 	O 	0.67047	0.92294	0.9415	-0.057
Mof_C 	C 	0.07911	0.40723	0.6104	0.521
Mof_C 	C 	0.14091	0.33114	0.6058	-0.246
Mof_C 	C 	0.2323	0.33188	0.6771	0.306
Mof_C 	C 	0.2878	0.26207	0.6746	0.286
Mof_C 	C 	0.25469	0.18841	0.602	-0.156
Mof_C 	C 	0.31531	0.11164	0.6015	0.412
Mof_C 	C 	0.16267	0.18761	0.533	0.274
Mof_C 	C 	0.1075	0.25743	0.5324	0.304
Mof_Ca	Ca	0.06871	0.46948	0.1128	1.127
Mof_F 	F 	0.26886	0.40132	0.7496	-0.354
Mof_F 	F 	0.37606	0.26737	0.7443	-0.32
Mof_F 	F 	0.12449	0.11711	0.4692	-0.341
Mof_F 	F 	0.01903	0.25264	0.4626	-0.382
Mof_O 	O 	0.04998	0.43487	0.4506	-0.497
Mof_O 	O 	0.05865	0.43656	0.7726	-0.415
Mof_O 	O 	0.34662	0.08776	0.7626	-0.268
Mof_O 	O 	0.32953	0.07706	0.4415	-0.313
_end
