data_functionalizedCrystal
_audit_creation_method	'EQeq! by Chris Wilmer'
_symmetry_space_group_name_H-M	'P1'
_symmetry_Int_Tables_number	1
_symmetry_cell_setting	triclinic
loop_
_symmetry_equiv_pos_as_xyz
  x,y,z
_cell_length_a	8.723
_cell_length_b	14.179
_cell_length_c	15.0312
_cell_angle_alpha	114.83
_cell_angle_beta	106.868
_cell_angle_gamma	90
loop_
_atom_site_label
_atom_site_type_symbol
_atom_site_fract_x
_atom_site_fract_y
_atom_site_fract_z
_atom_site_charge
Mof_Nd	Nd	0.90417	0.00504	0.54618	2.561
Mof_Nd	Nd	0.35799	0.99496	0.45382	2.611
Mof_H 	H 	0.8431	0.7967	0.6634	-0.045
Mof_H 	H 	0.8533	0.6416	0.6828	0.077
Mof_H 	H 	0.3794	0.5587	0.5372	0.091
Mof_H 	H 	0.364	0.7179	0.5254	-0.012
Mof_H 	H 	0.8205	0.5299	0.7458	0.069
Mof_H 	H 	0.8584	0.3638	0.7396	-0.001
Mof_H 	H 	0.4685	0.236	0.4868	-0.068
Mof_H 	H 	0.4442	0.3925	0.4814	0.086
Mof_H 	H 	0.7928	0.7154	0.2252	-0.019
Mof_H 	H 	0.7256	0.5643	0.0736	0.078
Mof_H 	H 	0.2568	0.5849	0.0512	0.085
Mof_H 	H 	0.3344	0.7197	0.2136	-0.014
Mof_H 	H 	0.1797	0.2033	0.3366	-0.031
Mof_H 	H 	0.1705	0.3584	0.3172	0.07
Mof_H 	H 	0.8422	0.4413	0.4628	0.081
Mof_H 	H 	0.8386	0.2821	0.4746	0.002
Mof_H 	H 	0.0747	0.4701	0.2542	0.106
Mof_H 	H 	0.1188	0.6362	0.2604	-0.021
Mof_H 	H 	0.9817	0.764	0.5132	-0.155
Mof_H 	H 	0.9628	0.6075	0.5186	0.149
Mof_H 	H 	0.5676	0.2846	0.7748	-0.013
Mof_H 	H 	0.652	0.4357	0.9264	0.082
Mof_H 	H 	0.2056	0.4151	0.9488	0.09
Mof_H 	H 	0.1208	0.2803	0.7864	-0.006
Mof_C 	C 	0.5977	0.8682	0.5748	0.582
Mof_C 	C 	0.6025	0.7698	0.5886	-0.261
Mof_C 	C 	0.7497	0.7492	0.6376	0.135
Mof_C 	C 	0.7554	0.6547	0.6478	-0.182
Mof_C 	C 	0.619	0.5806	0.6068	0.076
Mof_C 	C 	0.4733	0.6056	0.5624	-0.174
Mof_C 	C 	0.4637	0.7013	0.554	0.132
Mof_C 	C 	0.6294	0.4786	0.612	0.056
Mof_C 	C 	0.7535	0.4702	0.6916	-0.144
Mof_C 	C 	0.7749	0.3704	0.6884	0.085
Mof_C 	C 	0.6721	0.2824	0.6096	-0.199
Mof_C 	C 	0.5438	0.2942	0.536	0.139
Mof_C 	C 	0.5262	0.3881	0.5346	-0.18
Mof_C 	C 	0.7116	0.1755	0.6024	0.461
Mof_C 	C 	0.6165	0.8333	0.3308	0.599
Mof_C 	C 	0.5728	0.7352	0.236	-0.28
Mof_C 	C 	0.6847	0.686	0.1922	0.144
Mof_C 	C 	0.6455	0.5945	0.101	-0.172
Mof_C 	C 	0.4793	0.5461	0.0486	0.058
Mof_C 	C 	0.3662	0.6047	0.0892	-0.175
Mof_C 	C 	0.4128	0.6906	0.1836	0.142
Mof_C 	C 	0.0229	0.1318	0.4252	0.607
Mof_C 	C 	0.0139	0.2302	0.4114	-0.213
Mof_C 	C 	0.1121	0.2508	0.3624	0.109
Mof_C 	C 	0.1076	0.3453	0.3522	-0.146
Mof_C 	C 	0.0122	0.4194	0.3932	0.052
Mof_C 	C 	0.9109	0.3944	0.4376	-0.167
Mof_C 	C 	0.9097	0.2987	0.446	0.073
Mof_C 	C 	0.0174	0.5214	0.388	0.173
Mof_C 	C 	0.0619	0.5298	0.3084	-0.23
Mof_C 	C 	0.0865	0.6296	0.3116	0.175
Mof_C 	C 	0.0625	0.7176	0.3904	-0.29
Mof_C 	C 	0.0078	0.7058	0.464	0.344
Mof_C 	C 	0.9916	0.6119	0.4654	-0.381
Mof_C 	C 	0.1092	0.8245	0.3976	0.496
Mof_C 	C 	0.2857	0.1667	0.6692	0.594
Mof_C 	C 	0.3368	0.2648	0.764	-0.273
Mof_C 	C 	0.4925	0.314	0.8078	0.144
Mof_C 	C 	0.5445	0.4055	0.899	-0.173
Mof_C 	C 	0.4307	0.4539	0.9514	0.072
Mof_C 	C 	0.277	0.3953	0.9108	-0.177
Mof_C 	C 	0.2292	0.3094	0.8164	0.142
Mof_O 	O 	0.7239	0.9154	0.5856	-0.684
Mof_O 	O 	0.458	0.8985	0.5512	-0.598
Mof_O 	O 	0.6276	0.0958	0.5216	-0.688
Mof_O 	O 	0.8327	0.1699	0.6654	-0.548
Mof_O 	O 	0.7661	0.8711	0.3752	-0.615
Mof_O 	O 	0.5074	0.8763	0.3616	-0.68
Mof_O 	O 	0.1383	0.0846	0.4144	-0.687
Mof_O 	O 	0.9068	0.1015	0.4488	-0.622
Mof_O 	O 	0.106	0.9042	0.4784	-0.687
Mof_O 	O 	0.1673	0.8301	0.3346	-0.548
Mof_O 	O 	0.3909	0.1289	0.6248	-0.611
Mof_O 	O 	0.1458	0.1237	0.6384	-0.658
_end
