# CIF file generated by openbabel 3.1.0, see https://openbabel.org
data_I
_chemical_name_common 'image0'
_cell_length_a 14.9215
_cell_length_b 15.3226
_cell_length_c 15.984
_cell_angle_alpha 72.669
_cell_angle_beta 63.676
_cell_angle_gamma 63.788
_space_group_name_H-M_alt 'P 1'
_space_group_name_Hall 'P 1'
loop_
    _symmetry_equiv_pos_as_xyz
    x,y,z
loop_
    _atom_site_label
    _atom_site_type_symbol
    _atom_site_fract_x
    _atom_site_fract_y
    _atom_site_fract_z
    _atom_site_occupancy
    Zn1      Zn       0.69815    0.10632    0.15399    1.000
    Zn2      Zn       0.21081    0.99600    0.39022    1.000
    Zn3      Zn       0.31402    0.09747    0.48442    1.000
    Zn4      Zn       0.84251    0.34088    0.35260    1.000
    C1       C        0.27870    0.97810    0.66730    1.000
    H1       H        0.29540    0.02340    0.67990    1.000
    C2       C        0.24780    0.91750    0.57790    1.000
    C3       C        0.22700    0.83760    0.64210    1.000
    C4       C        0.23110    0.83300    0.72710    1.000
    C5       C        0.20970    0.82540    0.52540    1.000
    C6       C        0.14720    0.29450    0.50750    1.000
    H2       H        0.19220    0.29810    0.53120    1.000
    C7       C        0.11050    0.20940    0.44540    1.000
    C8       C        0.01940    0.29040    0.43820    1.000
    C9       C        0.99580    0.37610    0.47100    1.000
    C10      C        0.02860    0.17210    0.38650    1.000
    H3       H        0.01410    0.13570    0.36000    1.000
    C11      C        0.36660    0.97190    0.20530    1.000
    H4       H        0.32000    0.94710    0.20500    1.000
    C12      C        0.41690    0.03250    0.28270    1.000
    C13      C        0.50160    0.04000    0.20440    1.000
    C14      C        0.51830    0.01680    0.11940    1.000
    C15      C        0.49570    0.09820    0.31320    1.000
    H5       H        0.51110    0.12780    0.34550    1.000
    C16      C        0.07010    0.85910    0.31800    1.000
    H6       H        0.01940    0.84860    0.38160    1.000
    C17      C        0.00880    0.93290    0.26640    1.000
    H7       H        0.97640    0.99350    0.29350    1.000
    H8       H        0.95130    0.91460    0.27320    1.000
    C18      C        0.07500    0.95190    0.15850    1.000
    H9       H        0.02910    0.00410    0.12710    1.000
    H10      H        0.13310    0.97060    0.14970    1.000
    C19      C        0.11980    0.85510    0.11820    1.000
    H11      H        0.05950    0.83750    0.12890    1.000
    C20      C        0.18730    0.77690    0.16990    1.000
    H12      H        0.24620    0.79430    0.16110    1.000
    H13      H        0.21720    0.71570    0.14440    1.000
    C21      C        0.12100    0.76280    0.27600    1.000
    H14      H        0.06520    0.74080    0.28510    1.000
    H15      H        0.16720    0.71290    0.30830    1.000
    C22      C        0.15190    0.88640    0.32860    1.000
    C23      C        0.17970    0.86720    0.01670    1.000
    C24      C        0.47420    0.20230    0.57550    1.000
    H16      H        0.53780    0.14190    0.56840    1.000
    C25      C        0.45520    0.23900    0.66110    1.000
    H17      H        0.43110    0.19500    0.71630    1.000
    H18      H        0.52250    0.23750    0.65730    1.000
    C26      C        0.37430    0.34060    0.67290    1.000
    H19      H        0.36880    0.36170    0.72710    1.000
    H20      H        0.30460    0.34150    0.68380    1.000
    C27      C        0.40760    0.41070    0.58480    1.000
    H21      H        0.47840    0.40730    0.57560    1.000
    C28      C        0.41900    0.37700    0.49970    1.000
    H22      H        0.44050    0.42160    0.44390    1.000
    H23      H        0.35060    0.37750    0.50730    1.000
    C29      C        0.50420    0.27210    0.48760    1.000
    H24      H        0.50930    0.25000    0.43430    1.000
    H25      H        0.57370    0.27270    0.47530    1.000
    C30      C        0.38260    0.17240    0.58470    1.000
    C31      C        0.33120    0.51360    0.60110    1.000
    C32      C        0.95620    0.48580    0.09780    1.000
    H26      H        0.93250    0.55500    0.10430    1.000
    C33      C        0.89950    0.48750    0.04670    1.000
    H27      H        0.82330    0.51950    0.07950    1.000
    H28      H        0.91230    0.42070    0.04300    1.000
    C34      C        0.06630    0.45730    0.05530    1.000
    H29      H        0.09730    0.38720    0.05250    1.000
    H30      H        0.09390    0.47080    0.09280    1.000
    C35      C        0.92530    0.43730    0.19720    1.000
    N1       N        0.26030    0.90590    0.73300    1.000
    N2       N        0.27430    0.98900    0.58160    1.000
    N3       N        0.20090    0.77830    0.61290    1.000
    N4       N        0.23480    0.90740    0.50190    1.000
    N5       N        0.20200    0.75720    0.79500    1.000
    H31      H        0.24410    0.73040    0.82680    1.000
    H32      H        0.13670    0.78240    0.83330    1.000
    N6       N        0.06810    0.37170    0.50540    1.000
    N7       N        0.17690    0.20770    0.48090    1.000
    N8       N        0.96780    0.26360    0.40110    1.000
    N9       N        0.11380    0.13550    0.41310    1.000
    N10      N        0.91640    0.45630    0.46510    1.000
    H33      H        0.90770    0.50820    0.48270    1.000
    H34      H        0.87210    0.45780    0.44350    1.000
    N11      N        0.44780    0.97870    0.12350    1.000
    N12      N        0.34630    0.99680    0.28640    1.000
    N13      N        0.55600    0.08150    0.22540    1.000
    N14      N        0.41030    0.06990    0.35370    1.000
    N15      N        0.59090    0.02920    0.03760    1.000
    H35      H        0.59360    0.01390    0.98880    1.000
    H36      H        0.63610    0.05280    0.03250    1.000
    O1       O        0.14770    0.86170    0.95920    1.000
    O2       O        0.26660    0.88520    0.98530    1.000
    O3       O        0.12440    0.95920    0.35480    1.000
    O4       O        0.24850    0.81760    0.31960    1.000
    O5       O        0.40120    0.14180    0.51150    1.000
    O6       O        0.30220    0.17790    0.65710    1.000
    O7       O        0.26760    0.55820    0.55470    1.000
    O8       O        0.31790    0.54940    0.66780    1.000
    O9       O        0.91380    0.35120    0.21190    1.000
    O10      O        0.90360    0.47380    0.26700    1.000
    Zn5      Zn       0.30185    0.89368    0.84601    1.000
    Zn6      Zn       0.78919    0.00400    0.60978    1.000
    Zn7      Zn       0.68598    0.90253    0.51558    1.000
    Zn8      Zn       0.15749    0.65912    0.64740    1.000
    C36      C        0.72130    0.02190    0.33270    1.000
    H37      H        0.70460    0.97660    0.32010    1.000
    C37      C        0.75220    0.08250    0.42210    1.000
    C38      C        0.77300    0.16240    0.35790    1.000
    C39      C        0.76890    0.16700    0.27290    1.000
    C40      C        0.79030    0.17460    0.47460    1.000
    C41      C        0.85280    0.70550    0.49250    1.000
    H38      H        0.80780    0.70190    0.46880    1.000
    C42      C        0.88950    0.79060    0.55460    1.000
    C43      C        0.98060    0.70960    0.56180    1.000
    C44      C        0.00420    0.62390    0.52900    1.000
    C45      C        0.97140    0.82790    0.61350    1.000
    H39      H        0.98590    0.86430    0.64000    1.000
    C46      C        0.63340    0.02810    0.79470    1.000
    H40      H        0.68000    0.05290    0.79500    1.000
    C47      C        0.58310    0.96750    0.71730    1.000
    C48      C        0.49840    0.96000    0.79560    1.000
    C49      C        0.48170    0.98320    0.88060    1.000
    C50      C        0.50430    0.90180    0.68680    1.000
    H41      H        0.48890    0.87220    0.65450    1.000
    C51      C        0.92990    0.14090    0.68200    1.000
    H42      H        0.98060    0.15140    0.61840    1.000
    C52      C        0.99120    0.06710    0.73360    1.000
    H43      H        0.02360    0.00650    0.70650    1.000
    H44      H        0.04870    0.08540    0.72680    1.000
    C53      C        0.92500    0.04810    0.84150    1.000
    H45      H        0.97090    0.99590    0.87290    1.000
    H46      H        0.86690    0.02940    0.85030    1.000
    C54      C        0.88020    0.14490    0.88180    1.000
    H47      H        0.94050    0.16250    0.87110    1.000
    C55      C        0.81270    0.22310    0.83010    1.000
    H48      H        0.75380    0.20570    0.83890    1.000
    H49      H        0.78280    0.28430    0.85560    1.000
    C56      C        0.87900    0.23720    0.72400    1.000
    H50      H        0.93480    0.25920    0.71490    1.000
    H51      H        0.83280    0.28710    0.69170    1.000
    C57      C        0.84810    0.11360    0.67140    1.000
    C58      C        0.82030    0.13280    0.98330    1.000
    C59      C        0.52580    0.79770    0.42450    1.000
    H52      H        0.46220    0.85810    0.43160    1.000
    C60      C        0.54480    0.76100    0.33890    1.000
    H53      H        0.56890    0.80500    0.28370    1.000
    H54      H        0.47750    0.76250    0.34270    1.000
    C61      C        0.62570    0.65940    0.32710    1.000
    H55      H        0.63120    0.63830    0.27290    1.000
    H56      H        0.69540    0.65850    0.31620    1.000
    C62      C        0.59240    0.58930    0.41520    1.000
    H57      H        0.52160    0.59270    0.42440    1.000
    C63      C        0.58100    0.62300    0.50030    1.000
    H58      H        0.55950    0.57840    0.55610    1.000
    H59      H        0.64940    0.62250    0.49270    1.000
    C64      C        0.49580    0.72790    0.51240    1.000
    H60      H        0.49070    0.75000    0.56570    1.000
    H61      H        0.42630    0.72730    0.52470    1.000
    C65      C        0.61740    0.82760    0.41530    1.000
    C66      C        0.66880    0.48640    0.39890    1.000
    C67      C        0.04380    0.51420    0.90220    1.000
    H62      H        0.06750    0.44500    0.89570    1.000
    C68      C        0.10050    0.51250    0.95330    1.000
    H63      H        0.17670    0.48050    0.92050    1.000
    H64      H        0.08770    0.57930    0.95700    1.000
    C69      C        0.93370    0.54270    0.94470    1.000
    H65      H        0.90270    0.61280    0.94750    1.000
    H66      H        0.90610    0.52920    0.90720    1.000
    C70      C        0.07470    0.56270    0.80280    1.000
    N16      N        0.73970    0.09410    0.26700    1.000
    N17      N        0.72570    0.01100    0.41840    1.000
    N18      N        0.79910    0.22170    0.38710    1.000
    N19      N        0.76520    0.09260    0.49810    1.000
    N20      N        0.79800    0.24280    0.20500    1.000
    H67      H        0.75590    0.26960    0.17320    1.000
    H68      H        0.86330    0.21760    0.16670    1.000
    N21      N        0.93190    0.62830    0.49460    1.000
    N22      N        0.82310    0.79230    0.51910    1.000
    N23      N        0.03220    0.73640    0.59890    1.000
    N24      N        0.88620    0.86450    0.58690    1.000
    N25      N        0.08360    0.54370    0.53490    1.000
    H69      H        0.09230    0.49180    0.51730    1.000
    H70      H        0.12790    0.54220    0.55650    1.000
    N26      N        0.55220    0.02130    0.87650    1.000
    N27      N        0.65370    0.00320    0.71360    1.000
    N28      N        0.44400    0.91850    0.77460    1.000
    N29      N        0.58970    0.93010    0.64630    1.000
    N30      N        0.40910    0.97080    0.96240    1.000
    H71      H        0.40640    0.98610    0.01120    1.000
    H72      H        0.36390    0.94720    0.96750    1.000
    O11      O        0.85230    0.13830    0.04080    1.000
    O12      O        0.73340    0.11480    0.01470    1.000
    O13      O        0.87560    0.04080    0.64520    1.000
    O14      O        0.75150    0.18240    0.68040    1.000
    O15      O        0.59880    0.85820    0.48850    1.000
    O16      O        0.69780    0.82210    0.34290    1.000
    O17      O        0.73240    0.44180    0.44530    1.000
    O18      O        0.68210    0.45060    0.33220    1.000
    O19      O        0.08620    0.64880    0.78810    1.000
    O20      O        0.09640    0.52620    0.73300    1.000
