# CIF file generated by openbabel 3.1.0, see https://openbabel.org
data_I
_chemical_name_common 'image0'
_cell_length_a 9.725
_cell_length_b 14.654
_cell_length_c 19.736
_cell_angle_alpha 80.5
_cell_angle_beta 77.2
_cell_angle_gamma 81.7
_space_group_name_H-M_alt 'P 1'
_space_group_name_Hall 'P 1'
loop_
    _symmetry_equiv_pos_as_xyz
    x,y,z
loop_
    _atom_site_label
    _atom_site_type_symbol
    _atom_site_fract_x
    _atom_site_fract_y
    _atom_site_fract_z
    _atom_site_occupancy
    Cd1      Cd       0.46414    0.06293    0.19358    1.000
    Cd2      Cd       0.16578    0.23162    0.24784    1.000
    O1       O        0.27980    0.05570    0.14228    1.000
    O2       O        0.08470    0.14200    0.18972    1.000
    O3       O        0.53670    0.17810    0.10921    1.000
    O4       O        0.37460    0.26300    0.17643    1.000
    O5       O        0.29940    0.10280    0.29530    1.000
    O6       O        0.36030    0.95330    0.29089    1.000
    O7       O        0.99120    0.26710    0.35197    1.000
    O8       O        0.19380    0.32460    0.32430    1.000
    N1       N        0.03530    0.35800    0.19100    1.000
    N2       N        0.58960    0.94370    0.13619    1.000
    C1       C        0.15290    0.08760    0.14770    1.000
    C2       C        0.07210    0.06000    0.09849    1.000
    C3       C        0.92870    0.09750    0.09880    1.000
    H1       H        0.88020    0.13590    0.13310    1.000
    C4       C        0.13980    0.00180    0.05060    1.000
    H2       H        0.23470    0.97540    0.05140    1.000
    C5       C        0.07050    0.98020    0.00007    1.000
    C6       C        0.86050    0.07860    0.05020    1.000
    H3       H        0.76550    0.10530    0.05020    1.000
    C7       C        0.44340    0.50280    0.02930    1.000
    C8       C        0.41850    0.42320    0.07920    1.000
    H4       H        0.34470    0.42730    0.11950    1.000
    C9       C        0.50040    0.33910    0.07000    1.000
    C10      C        0.61170    0.33420    0.01160    1.000
    H5       H        0.66820    0.27650    0.00530    1.000
    C11      C        0.64080    0.41100    0.96330    1.000
    H6       H        0.71810    0.40630    0.92460    1.000
    C12      C        0.46680    0.25450    0.12210    1.000
    C13      C        0.04960    0.88400    0.46970    1.000
    H7       H        0.02570    0.82210    0.48370    1.000
    C14      C        0.14890    0.90430    0.41010    1.000
    H8       H        0.19500    0.85610    0.38340    1.000
    C15      C        0.18340    0.99580    0.38792    1.000
    C16      C        0.12000    0.06400    0.42735    1.000
    H9       H        0.14550    0.12540    0.41270    1.000
    C17      C        0.01750    0.04600    0.48944    1.000
    C18      C        0.28760    0.01730    0.32070    1.000
    C19      C        0.11000    0.44390    0.42380    1.000
    H10      H        0.19900    0.44830    0.39250    1.000
    C20      C        0.02690    0.38130    0.41770    1.000
    C21      C        0.89420    0.37420    0.46320    1.000
    H11      H        0.83620    0.32980    0.45820    1.000
    C22      C        0.84720    0.43050    0.51480    1.000
    H12      H        0.75680    0.42550    0.54480    1.000
    C23      C        0.93340    0.49560    0.52320    1.000
    C24      C        0.07270    0.31990    0.36050    1.000
    C25      C        0.03420    0.44390    0.20270    1.000
    H13      H        0.09850    0.45510    0.22950    1.000
    C26      C        0.94810    0.51690    0.17920    1.000
    H14      H        0.94960    0.57660    0.19170    1.000
    C27      C        0.85820    0.50580    0.13750    1.000
    C28      C        0.85750    0.41790    0.12400    1.000
    H15      H        0.79610    0.40570    0.09610    1.000
    C29      C        0.94810    0.34590    0.15170    1.000
    H16      H        0.94690    0.28480    0.14170    1.000
    C30      C        0.76500    0.58680    0.10490    1.000
    H17      H        0.71340    0.62550    0.14120    1.000
    H18      H        0.69440    0.56250    0.08540    1.000
    C31      C        0.86220    0.64790    0.04440    1.000
    H19      H        0.94250    0.66030    0.06360    1.000
    H20      H        0.90280    0.60910    0.00660    1.000
    C32      C        0.80820    0.72720    0.01550    1.000
    H21      H        0.74050    0.71340    0.98880    1.000
    H22      H        0.88620    0.75510    0.98070    1.000
    C33      C        0.73190    0.80210    0.05980    1.000
    C34      C        0.77780    0.82420    0.11520    1.000
    H23      H        0.86060    0.79030    0.12870    1.000
    C35      C        0.70590    0.89450    0.15120    1.000
    H24      H        0.74170    0.90840    0.18890    1.000
    C36      C        0.54630    0.92180    0.08150    1.000
    H25      H        0.46530    0.95780    0.06760    1.000
    C37      C        0.61090    0.85140    0.04500    1.000
    H26      H        0.57120    0.83670    0.00880    1.000
    Cd3      Cd       0.53586    0.93707    0.80642    1.000
    Cd4      Cd       0.83422    0.76838    0.75216    1.000
    O9       O        0.72020    0.94430    0.85772    1.000
    O10      O        0.91530    0.85800    0.81028    1.000
    O11      O        0.46330    0.82190    0.89079    1.000
    O12      O        0.62540    0.73700    0.82357    1.000
    O13      O        0.70060    0.89720    0.70470    1.000
    O14      O        0.63970    0.04670    0.70911    1.000
    O15      O        0.00880    0.73290    0.64803    1.000
    O16      O        0.80620    0.67540    0.67570    1.000
    N3       N        0.96470    0.64200    0.80900    1.000
    N4       N        0.41040    0.05630    0.86381    1.000
    C38      C        0.84710    0.91240    0.85230    1.000
    C39      C        0.92790    0.94000    0.90151    1.000
    C40      C        0.07130    0.90250    0.90120    1.000
    H27      H        0.11980    0.86410    0.86690    1.000
    C41      C        0.86020    0.99820    0.94940    1.000
    H28      H        0.76530    0.02460    0.94860    1.000
    C42      C        0.92950    0.01980    0.99993    1.000
    C43      C        0.13950    0.92140    0.94980    1.000
    H29      H        0.23450    0.89470    0.94980    1.000
    C44      C        0.55660    0.49720    0.97070    1.000
    C45      C        0.58150    0.57680    0.92080    1.000
    H30      H        0.65530    0.57270    0.88050    1.000
    C46      C        0.49960    0.66090    0.93000    1.000
    C47      C        0.38830    0.66580    0.98840    1.000
    H31      H        0.33180    0.72350    0.99470    1.000
    C48      C        0.35920    0.58900    0.03670    1.000
    H32      H        0.28190    0.59370    0.07540    1.000
    C49      C        0.53320    0.74550    0.87790    1.000
    C50      C        0.95040    0.11600    0.53030    1.000
    H33      H        0.97430    0.17790    0.51630    1.000
    C51      C        0.85110    0.09570    0.58990    1.000
    H34      H        0.80500    0.14390    0.61660    1.000
    C52      C        0.81660    0.00420    0.61208    1.000
    C53      C        0.88000    0.93600    0.57265    1.000
    H35      H        0.85450    0.87460    0.58730    1.000
    C54      C        0.98250    0.95400    0.51056    1.000
    C55      C        0.71240    0.98270    0.67930    1.000
    C56      C        0.89000    0.55610    0.57620    1.000
    H36      H        0.80100    0.55170    0.60750    1.000
    C57      C        0.97310    0.61870    0.58230    1.000
    C58      C        0.10580    0.62580    0.53680    1.000
    H37      H        0.16380    0.67020    0.54180    1.000
    C59      C        0.15280    0.56950    0.48520    1.000
    H38      H        0.24320    0.57450    0.45520    1.000
    C60      C        0.06660    0.50440    0.47680    1.000
    C61      C        0.92730    0.68010    0.63950    1.000
    C62      C        0.96580    0.55610    0.79730    1.000
    H39      H        0.90150    0.54490    0.77050    1.000
    C63      C        0.05190    0.48310    0.82080    1.000
    H40      H        0.05040    0.42340    0.80830    1.000
    C64      C        0.14180    0.49420    0.86250    1.000
    C65      C        0.14250    0.58210    0.87600    1.000
    H41      H        0.20390    0.59430    0.90390    1.000
    C66      C        0.05190    0.65410    0.84830    1.000
    H42      H        0.05310    0.71520    0.85830    1.000
    C67      C        0.23500    0.41320    0.89510    1.000
    H43      H        0.28660    0.37450    0.85880    1.000
    H44      H        0.30560    0.43750    0.91460    1.000
    C68      C        0.13780    0.35210    0.95560    1.000
    H45      H        0.05750    0.33970    0.93640    1.000
    H46      H        0.09720    0.39090    0.99340    1.000
    C69      C        0.19180    0.27280    0.98450    1.000
    H47      H        0.25950    0.28660    0.01120    1.000
    H48      H        0.11380    0.24490    0.01930    1.000
    C70      C        0.26810    0.19790    0.94020    1.000
    C71      C        0.22220    0.17580    0.88480    1.000
    H49      H        0.13940    0.20970    0.87130    1.000
    C72      C        0.29410    0.10550    0.84880    1.000
    H50      H        0.25830    0.09160    0.81110    1.000
    C73      C        0.45370    0.07820    0.91850    1.000
    H51      H        0.53470    0.04220    0.93240    1.000
    C74      C        0.38910    0.14860    0.95500    1.000
    H52      H        0.42880    0.16330    0.99120    1.000
