# CIF file generated by openbabel 3.1.0, see https://openbabel.org
data_I
_chemical_name_common 'image0'
_cell_length_a 10.35
_cell_length_b 11.94
_cell_length_c 12.75
_cell_angle_alpha 104.97
_cell_angle_beta 90.47
_cell_angle_gamma 93.06
_space_group_name_H-M_alt 'P 1'
_space_group_name_Hall 'P 1'
loop_
    _symmetry_equiv_pos_as_xyz
    x,y,z
loop_
    _atom_site_label
    _atom_site_type_symbol
    _atom_site_fract_x
    _atom_site_fract_y
    _atom_site_fract_z
    _atom_site_occupancy
    La1      La       0.99934    0.72733    0.92058    1.000
    P1       P        0.19960    0.64110    0.66880    1.000
    P2       P        0.13480    0.45160    0.89890    1.000
    P3       P        0.85750    0.99080    0.89450    1.000
    O1       O        0.14930    0.71760    0.77370    1.000
    O2       O        0.15130    0.68430    0.57230    1.000
    H1       H        0.11370    0.74420    0.59510    1.000
    O3       O        0.17190    0.51210    0.64690    1.000
    O4       O        0.40970    0.78280    0.67170    1.000
    H2       H        0.48880    0.79240    0.67330    1.000
    O5       O        0.22710    0.41440    0.80060    1.000
    O6       O        0.02860    0.51540    0.86880    1.000
    O7       O        0.09200    0.33220    0.93460    1.000
    H3       H        0.03930    0.29880    0.88320    1.000
    O8       O        0.21020    0.66620    0.99790    1.000
    H4       H        0.22170    0.71080    0.06140    1.000
    O9       O        0.75710    0.98510    0.79980    1.000
    O10      O        0.95500    0.90260    0.85400    1.000
    O11      O        0.90390    0.12130    0.93490    1.000
    H5       H        0.94470    0.13210    0.99230    1.000
    O12      O        0.78800    0.82730    0.98980    1.000
    H6       H        0.77370    0.81410    0.05110    1.000
    C1       C        0.37410    0.66630    0.67480    1.000
    H7       H        0.40580    0.65560    0.74400    1.000
    C2       C        0.43890    0.57640    0.58070    1.000
    C3       C        0.49970    0.48760    0.60380    1.000
    H8       H        0.50170    0.47960    0.67440    1.000
    C4       C        0.44200    0.58990    0.47680    1.000
    H9       H        0.40410    0.65290    0.46150    1.000
    C5       C        0.22960    0.55260    0.00740    1.000
    H10      H        0.19470    0.54590    0.07690    1.000
    C6       C        0.37130    0.52770    0.00660    1.000
    C7       C        0.41590    0.44610    0.05700    1.000
    H11      H        0.35930    0.40950    0.09550    1.000
    C8       C        0.45820    0.57970    0.95040    1.000
    H12      H        0.42970    0.63420    0.91630    1.000
    C9       C        0.77040    0.94850    0.00270    1.000
    H13      H        0.81030    0.99200    0.07230    1.000
    C10      C        0.62850    0.97480    0.00310    1.000
    C11      C        0.53910    0.89420    0.94060    1.000
    H14      H        0.56520    0.82270    0.90040    1.000
    C12      C        0.59100    0.07910    0.06200    1.000
    H15      H        0.65150    0.13290    0.10400    1.000
    La2      La       0.00066    0.27267    0.07942    1.000
    P4       P        0.80040    0.35890    0.33120    1.000
    P5       P        0.86520    0.54840    0.10110    1.000
    P6       P        0.14250    0.00920    0.10550    1.000
    O13      O        0.85070    0.28240    0.22630    1.000
    O14      O        0.84870    0.31570    0.42770    1.000
    H16      H        0.88630    0.25580    0.40490    1.000
    O15      O        0.82810    0.48790    0.35310    1.000
    O16      O        0.59030    0.21720    0.32830    1.000
    H17      H        0.51120    0.20760    0.32670    1.000
    O17      O        0.77290    0.58560    0.19940    1.000
    O18      O        0.97140    0.48460    0.13120    1.000
    O19      O        0.90800    0.66780    0.06540    1.000
    H18      H        0.96070    0.70120    0.11680    1.000
    O20      O        0.78980    0.33380    0.00210    1.000
    H19      H        0.77830    0.28920    0.93860    1.000
    O21      O        0.24290    0.01490    0.20020    1.000
    O22      O        0.04500    0.09740    0.14600    1.000
    O23      O        0.09610    0.87870    0.06510    1.000
    H20      H        0.05530    0.86790    0.00770    1.000
    O24      O        0.21200    0.17270    0.01020    1.000
    H21      H        0.22630    0.18590    0.94890    1.000
    C13      C        0.62590    0.33370    0.32520    1.000
    H22      H        0.59420    0.34440    0.25600    1.000
    C14      C        0.56110    0.42360    0.41930    1.000
    C15      C        0.50030    0.51240    0.39620    1.000
    H23      H        0.49830    0.52040    0.32560    1.000
    C16      C        0.55800    0.41010    0.52320    1.000
    H24      H        0.59590    0.34710    0.53850    1.000
    C17      C        0.77040    0.44740    0.99260    1.000
    H25      H        0.80530    0.45410    0.92310    1.000
    C18      C        0.62870    0.47230    0.99340    1.000
    C19      C        0.58410    0.55390    0.94300    1.000
    H26      H        0.64070    0.59050    0.90450    1.000
    C20      C        0.54180    0.42030    0.04960    1.000
    H27      H        0.57030    0.36580    0.08370    1.000
    C21      C        0.22960    0.05150    0.99730    1.000
    H28      H        0.18970    0.00800    0.92770    1.000
    C22      C        0.37150    0.02520    0.99690    1.000
    C23      C        0.46090    0.10580    0.05940    1.000
    H29      H        0.43480    0.17730    0.09960    1.000
    C24      C        0.40900    0.92090    0.93800    1.000
    H30      H        0.34850    0.86710    0.89600    1.000
