data_functionalizedCrystal
_audit_creation_method	'EQeq! by Chris Wilmer'
_symmetry_space_group_name_H-M	'P1'
_symmetry_Int_Tables_number	1
_symmetry_cell_setting	triclinic
loop_
_symmetry_equiv_pos_as_xyz
  x,y,z
_cell_length_a	22.7374
_cell_length_b	22.7374
_cell_length_c	17.8238
_cell_angle_alpha	90
_cell_angle_beta	90
_cell_angle_gamma	120
loop_
_atom_site_label
_atom_site_type_symbol
_atom_site_fract_x
_atom_site_fract_y
_atom_site_fract_z
_atom_site_charge
Mof_O 	O 	0.0505	0.2413	0.0865	-0.563
Mof_C 	C 	0.9409	0.2692	0.2021	0.088
Mof_H 	H 	0.9021	0.2451	0.17	-0.003
Mof_C 	C 	0.9411	0.3113	0.2583	-0.126
Mof_H 	H 	0.9023	0.3166	0.2659	0.066
Mof_O 	O 	0.042	0.2021	0.1391	-0.486
Mof_C 	C 	0.0553	0.3409	0.2897	-0.07
Mof_H 	H 	0.0943	0.3651	0.3214	0.052
Mof_C 	C 	0.0561	0.2991	0.2343	0.072
Mof_H 	H 	0.0948	0.2931	0.2283	0.008
Mof_H 	H 	0.0187	0.1035	0.2461	0.134
Mof_O 	O 	0.7587	0.8092	0.0865	-0.561
Mof_C 	C 	0.7308	0.6717	0.2021	0.089
Mof_H 	H 	0.7549	0.657	0.17	-0.003
Mof_C 	C 	0.6887	0.6298	0.2583	-0.124
Mof_H 	H 	0.6834	0.5857	0.2659	0.066
Mof_O 	O 	0.7979	0.8399	0.1391	-0.483
Mof_C 	C 	0.6591	0.7144	0.2897	-0.07
Mof_H 	H 	0.6349	0.7292	0.3214	0.051
Mof_C 	C 	0.7009	0.757	0.2343	0.07
Mof_H 	H 	0.7069	0.8017	0.2283	0.007
Mof_H 	H 	0.8965	0.9152	0.2461	0.126
Mof_O 	O 	0.1908	0.9495	0.0865	-0.568
Mof_C 	C 	0.3283	0.0591	0.2021	0.088
Mof_H 	H 	0.343	0.0979	0.17	-0.004
Mof_C 	C 	0.3702	0.0589	0.2583	-0.126
Mof_H 	H 	0.4143	0.0977	0.2659	0.066
Mof_O 	O 	0.1601	0.958	0.1391	-0.489
Mof_C 	C 	0.2856	0.9447	0.2897	-0.074
Mof_H 	H 	0.2708	0.9057	0.3214	0.051
Mof_C 	C 	0.243	0.9439	0.2343	0.067
Mof_H 	H 	0.1983	0.9052	0.2283	0.007
Mof_H 	H 	0.0848	0.9813	0.2461	0.119
Mof_O 	O 	0.9495	0.7587	0.0865	-0.565
Mof_C 	C 	0.0591	0.7308	0.2021	0.089
Mof_H 	H 	0.0979	0.7549	0.17	-0.004
Mof_C 	C 	0.0589	0.6887	0.2583	-0.125
Mof_H 	H 	0.0977	0.6834	0.2659	0.066
Mof_O 	O 	0.958	0.7979	0.1391	-0.488
Mof_C 	C 	0.9447	0.6591	0.2897	-0.073
Mof_H 	H 	0.9057	0.6349	0.3214	0.05
Mof_C 	C 	0.9439	0.7009	0.2343	0.069
Mof_H 	H 	0.9052	0.7069	0.2283	0.007
Mof_H 	H 	0.9813	0.8965	0.2461	0.123
Mof_O 	O 	0.2413	0.1908	0.0865	-0.564
Mof_C 	C 	0.2692	0.3283	0.2021	0.088
Mof_H 	H 	0.2451	0.343	0.17	-0.004
Mof_C 	C 	0.3113	0.3702	0.2583	-0.125
Mof_H 	H 	0.3166	0.4143	0.2659	0.066
Mof_O 	O 	0.2021	0.1601	0.1391	-0.486
Mof_C 	C 	0.3409	0.2856	0.2897	-0.071
Mof_H 	H 	0.3651	0.2708	0.3214	0.05
Mof_C 	C 	0.2991	0.243	0.2343	0.071
Mof_H 	H 	0.2931	0.1983	0.2283	0.007
Mof_H 	H 	0.1035	0.0848	0.2461	0.126
Mof_O 	O 	0.8092	0.0505	0.0865	-0.564
Mof_C 	C 	0.6717	0.9409	0.2021	0.087
Mof_H 	H 	0.657	0.9021	0.17	-0.004
Mof_C 	C 	0.6298	0.9411	0.2583	-0.127
Mof_H 	H 	0.5857	0.9023	0.2659	0.065
Mof_O 	O 	0.8399	0.042	0.1391	-0.484
Mof_C 	C 	0.7144	0.0553	0.2897	-0.071
Mof_H 	H 	0.7292	0.0943	0.3214	0.051
Mof_C 	C 	0.757	0.0561	0.2343	0.07
Mof_H 	H 	0.8017	0.0948	0.2283	0.007
Mof_H 	H 	0.9152	0.0187	0.2461	0.129
Mof_O 	O 	0.2413	0.0505	0.9135	-0.574
Mof_C 	C 	0.2692	0.9409	0.7979	0.087
Mof_H 	H 	0.2451	0.9021	0.83	-0.006
Mof_C 	C 	0.3113	0.9411	0.7417	-0.129
Mof_H 	H 	0.3166	0.9023	0.7341	0.065
Mof_O 	O 	0.2021	0.042	0.8609	-0.484
Mof_C 	C 	0.3409	0.0553	0.7103	-0.068
Mof_H 	H 	0.3651	0.0943	0.6786	0.049
Mof_C 	C 	0.2991	0.0561	0.7657	0.073
Mof_H 	H 	0.2931	0.0948	0.7717	0.006
Mof_H 	H 	0.1035	0.0187	0.7539	0.13
Mof_O 	O 	0.8092	0.7587	0.9135	-0.57
Mof_C 	C 	0.6717	0.7308	0.7979	0.087
Mof_H 	H 	0.657	0.7549	0.83	-0.006
Mof_C 	C 	0.6298	0.6887	0.7417	-0.128
Mof_H 	H 	0.5857	0.6834	0.7341	0.065
Mof_O 	O 	0.8399	0.7979	0.8609	-0.484
Mof_C 	C 	0.7144	0.6591	0.7103	-0.068
Mof_H 	H 	0.7292	0.6349	0.6786	0.049
Mof_C 	C 	0.757	0.7009	0.7657	0.072
Mof_H 	H 	0.8017	0.7069	0.7717	0.006
Mof_H 	H 	0.9152	0.8965	0.7539	0.126
Mof_O 	O 	0.9495	0.1908	0.9135	-0.575
Mof_C 	C 	0.0591	0.3283	0.7979	0.086
Mof_H 	H 	0.0979	0.343	0.83	-0.006
Mof_C 	C 	0.0589	0.3702	0.7417	-0.129
Mof_H 	H 	0.0977	0.4143	0.7341	0.066
Mof_O 	O 	0.958	0.1601	0.8609	-0.485
Mof_C 	C 	0.9447	0.2856	0.7103	-0.071
Mof_H 	H 	0.9057	0.2708	0.6786	0.05
Mof_C 	C 	0.9439	0.243	0.7657	0.07
Mof_H 	H 	0.9052	0.1983	0.7717	0.006
Mof_H 	H 	0.9813	0.0848	0.7539	0.122
Mof_O 	O 	0.7587	0.9495	0.9135	-0.571
Mof_C 	C 	0.7308	0.0591	0.7979	0.087
Mof_H 	H 	0.7549	0.0979	0.83	-0.006
Mof_C 	C 	0.6887	0.0589	0.7417	-0.128
Mof_H 	H 	0.6834	0.0977	0.7341	0.065
Mof_O 	O 	0.7979	0.958	0.8609	-0.485
Mof_C 	C 	0.6591	0.9447	0.7103	-0.07
Mof_H 	H 	0.6349	0.9057	0.6786	0.049
Mof_C 	C 	0.7009	0.9439	0.7657	0.071
Mof_H 	H 	0.7069	0.9052	0.7717	0.006
Mof_H 	H 	0.8965	0.9813	0.7539	0.126
Mof_O 	O 	0.1908	0.2413	0.9135	-0.574
Mof_C 	C 	0.3283	0.2692	0.7979	0.087
Mof_H 	H 	0.343	0.2451	0.83	-0.006
Mof_C 	C 	0.3702	0.3113	0.7417	-0.129
Mof_H 	H 	0.4143	0.3166	0.7341	0.065
Mof_O 	O 	0.1601	0.2021	0.8609	-0.485
Mof_C 	C 	0.2856	0.3409	0.7103	-0.068
Mof_H 	H 	0.2708	0.3651	0.6786	0.049
Mof_C 	C 	0.243	0.2991	0.7657	0.073
Mof_H 	H 	0.1983	0.2931	0.7717	0.006
Mof_H 	H 	0.0848	0.1035	0.7539	0.126
Mof_O 	O 	0.0505	0.8092	0.9135	-0.573
Mof_C 	C 	0.9409	0.6717	0.7979	0.087
Mof_H 	H 	0.9021	0.657	0.83	-0.006
Mof_C 	C 	0.9411	0.6298	0.7417	-0.129
Mof_H 	H 	0.9023	0.5857	0.7341	0.065
Mof_O 	O 	0.042	0.8399	0.8609	-0.483
Mof_C 	C 	0.0553	0.7144	0.7103	-0.068
Mof_H 	H 	0.0943	0.7292	0.6786	0.049
Mof_C 	C 	0.0561	0.757	0.7657	0.073
Mof_H 	H 	0.0948	0.8017	0.7717	0.006
Mof_H 	H 	0.0187	0.9152	0.7539	0.126
Mof_O 	O 	0.9495	0.7587	0.9135	-0.571
Mof_C 	C 	0.0591	0.7308	0.7979	0.087
Mof_H 	H 	0.0979	0.7549	0.83	-0.006
Mof_C 	C 	0.0589	0.6887	0.7417	-0.128
Mof_H 	H 	0.0977	0.6834	0.7341	0.065
Mof_O 	O 	0.958	0.7979	0.8609	-0.485
Mof_C 	C 	0.9447	0.6591	0.7103	-0.07
Mof_H 	H 	0.9057	0.6349	0.6786	0.049
Mof_C 	C 	0.9439	0.7009	0.7657	0.071
Mof_H 	H 	0.9052	0.7069	0.7717	0.006
Mof_H 	H 	0.9813	0.8965	0.7539	0.126
Mof_O 	O 	0.2413	0.1908	0.9135	-0.574
Mof_C 	C 	0.2692	0.3283	0.7979	0.087
Mof_H 	H 	0.2451	0.343	0.83	-0.006
Mof_C 	C 	0.3113	0.3702	0.7417	-0.129
Mof_H 	H 	0.3166	0.4143	0.7341	0.065
Mof_O 	O 	0.2021	0.1601	0.8609	-0.485
Mof_C 	C 	0.3409	0.2856	0.7103	-0.068
Mof_H 	H 	0.3651	0.2708	0.6786	0.049
Mof_C 	C 	0.2991	0.243	0.7657	0.073
Mof_H 	H 	0.2931	0.1983	0.7717	0.006
Mof_H 	H 	0.1035	0.0848	0.7539	0.126
Mof_O 	O 	0.8092	0.0505	0.9135	-0.573
Mof_C 	C 	0.6717	0.9409	0.7979	0.087
Mof_H 	H 	0.657	0.9021	0.83	-0.006
Mof_C 	C 	0.6298	0.9411	0.7417	-0.129
Mof_H 	H 	0.5857	0.9023	0.7341	0.065
Mof_O 	O 	0.8399	0.042	0.8609	-0.483
Mof_C 	C 	0.7144	0.0553	0.7103	-0.068
Mof_H 	H 	0.7292	0.0943	0.6786	0.049
Mof_C 	C 	0.757	0.0561	0.7657	0.073
Mof_H 	H 	0.8017	0.0948	0.7717	0.006
Mof_H 	H 	0.9152	0.0187	0.7539	0.126
Mof_O 	O 	0.0505	0.2413	0.9135	-0.574
Mof_C 	C 	0.9409	0.2692	0.7979	0.087
Mof_H 	H 	0.9021	0.2451	0.83	-0.006
Mof_C 	C 	0.9411	0.3113	0.7417	-0.129
Mof_H 	H 	0.9023	0.3166	0.7341	0.065
Mof_O 	O 	0.042	0.2021	0.8609	-0.484
Mof_C 	C 	0.0553	0.3409	0.7103	-0.068
Mof_H 	H 	0.0943	0.3651	0.6786	0.049
Mof_C 	C 	0.0561	0.2991	0.7657	0.073
Mof_H 	H 	0.0948	0.2931	0.7717	0.006
Mof_H 	H 	0.0187	0.1035	0.7539	0.13
Mof_O 	O 	0.7587	0.8092	0.9135	-0.57
Mof_C 	C 	0.7308	0.6717	0.7979	0.087
Mof_H 	H 	0.7549	0.657	0.83	-0.006
Mof_C 	C 	0.6887	0.6298	0.7417	-0.128
Mof_H 	H 	0.6834	0.5857	0.7341	0.065
Mof_O 	O 	0.7979	0.8399	0.8609	-0.484
Mof_C 	C 	0.6591	0.7144	0.7103	-0.068
Mof_H 	H 	0.6349	0.7292	0.6786	0.049
Mof_C 	C 	0.7009	0.757	0.7657	0.072
Mof_H 	H 	0.7069	0.8017	0.7717	0.006
Mof_H 	H 	0.8965	0.9152	0.7539	0.126
Mof_O 	O 	0.1908	0.9495	0.9135	-0.575
Mof_C 	C 	0.3283	0.0591	0.7979	0.086
Mof_H 	H 	0.343	0.0979	0.83	-0.006
Mof_C 	C 	0.3702	0.0589	0.7417	-0.129
Mof_H 	H 	0.4143	0.0977	0.7341	0.066
Mof_O 	O 	0.1601	0.958	0.8609	-0.485
Mof_C 	C 	0.2856	0.9447	0.7103	-0.071
Mof_H 	H 	0.2708	0.9057	0.6786	0.05
Mof_C 	C 	0.243	0.9439	0.7657	0.07
Mof_H 	H 	0.1983	0.9052	0.7717	0.006
Mof_H 	H 	0.0848	0.9813	0.7539	0.122
Mof_O 	O 	0.7587	0.9495	0.0865	-0.565
Mof_C 	C 	0.7308	0.0591	0.2021	0.089
Mof_H 	H 	0.7549	0.0979	0.17	-0.004
Mof_C 	C 	0.6887	0.0589	0.2583	-0.125
Mof_H 	H 	0.6834	0.0977	0.2659	0.066
Mof_O 	O 	0.7979	0.958	0.1391	-0.488
Mof_C 	C 	0.6591	0.9447	0.2897	-0.073
Mof_H 	H 	0.6349	0.9057	0.3214	0.05
Mof_C 	C 	0.7009	0.9439	0.2343	0.069
Mof_H 	H 	0.7069	0.9052	0.2283	0.007
Mof_H 	H 	0.8965	0.9813	0.2461	0.123
Mof_O 	O 	0.1908	0.2413	0.0865	-0.564
Mof_C 	C 	0.3283	0.2692	0.2021	0.088
Mof_H 	H 	0.343	0.2451	0.17	-0.004
Mof_C 	C 	0.3702	0.3113	0.2583	-0.125
Mof_H 	H 	0.4143	0.3166	0.2659	0.066
Mof_O 	O 	0.1601	0.2021	0.1391	-0.486
Mof_C 	C 	0.2856	0.3409	0.2897	-0.071
Mof_H 	H 	0.2708	0.3651	0.3214	0.05
Mof_C 	C 	0.243	0.2991	0.2343	0.071
Mof_H 	H 	0.1983	0.2931	0.2283	0.007
Mof_H 	H 	0.0848	0.1035	0.2461	0.126
Mof_O 	O 	0.0505	0.8092	0.0865	-0.564
Mof_C 	C 	0.9409	0.6717	0.2021	0.087
Mof_H 	H 	0.9021	0.657	0.17	-0.004
Mof_C 	C 	0.9411	0.6298	0.2583	-0.127
Mof_H 	H 	0.9023	0.5857	0.2659	0.065
Mof_O 	O 	0.042	0.8399	0.1391	-0.484
Mof_C 	C 	0.0553	0.7144	0.2897	-0.071
Mof_H 	H 	0.0943	0.7292	0.3214	0.051
Mof_C 	C 	0.0561	0.757	0.2343	0.07
Mof_H 	H 	0.0948	0.8017	0.2283	0.007
Mof_H 	H 	0.0187	0.9152	0.2461	0.129
Mof_O 	O 	0.2413	0.0505	0.0865	-0.564
Mof_C 	C 	0.2692	0.9409	0.2021	0.087
Mof_H 	H 	0.2451	0.9021	0.17	-0.004
Mof_C 	C 	0.3113	0.9411	0.2583	-0.127
Mof_H 	H 	0.3166	0.9023	0.2659	0.065
Mof_O 	O 	0.2021	0.042	0.1391	-0.487
Mof_C 	C 	0.3409	0.0553	0.2897	-0.071
Mof_H 	H 	0.3651	0.0943	0.3214	0.051
Mof_C 	C 	0.2991	0.0561	0.2343	0.071
Mof_H 	H 	0.2931	0.0948	0.2283	0.007
Mof_H 	H 	0.1035	0.0187	0.2461	0.133
Mof_O 	O 	0.8092	0.7587	0.0865	-0.562
Mof_C 	C 	0.6717	0.7308	0.2021	0.088
Mof_H 	H 	0.657	0.7549	0.17	-0.004
Mof_C 	C 	0.6298	0.6887	0.2583	-0.125
Mof_H 	H 	0.5857	0.6834	0.2659	0.065
Mof_O 	O 	0.8399	0.7979	0.1391	-0.484
Mof_C 	C 	0.7144	0.6591	0.2897	-0.071
Mof_H 	H 	0.7292	0.6349	0.3214	0.05
Mof_C 	C 	0.757	0.7009	0.2343	0.07
Mof_H 	H 	0.8017	0.7069	0.2283	0.007
Mof_H 	H 	0.9152	0.8965	0.2461	0.126
Mof_O 	O 	0.9495	0.1908	0.0865	-0.568
Mof_C 	C 	0.0591	0.3283	0.2021	0.088
Mof_H 	H 	0.0979	0.343	0.17	-0.004
Mof_C 	C 	0.0589	0.3702	0.2583	-0.126
Mof_H 	H 	0.0977	0.4143	0.2659	0.066
Mof_O 	O 	0.958	0.1601	0.1391	-0.489
Mof_C 	C 	0.9447	0.2856	0.2897	-0.074
Mof_H 	H 	0.9057	0.2708	0.3214	0.051
Mof_C 	C 	0.9439	0.243	0.2343	0.067
Mof_H 	H 	0.9052	0.1983	0.2283	0.007
Mof_H 	H 	0.9813	0.0848	0.2461	0.119
Mof_Dy	Dy	0.05632	0.11264	0.10739	0.81
Mof_O 	O 	0.04095	0.0819	0.2255	-0.402
Mof_H 	H 	0.16535	0.3307	0.9604	0.647
Mof_Dy	Dy	0.88736	0.94368	0.10739	0.801
Mof_O 	O 	0.9181	0.95905	0.2255	-0.402
Mof_H 	H 	0.6693	0.83465	0.9604	0.655
Mof_Dy	Dy	0.05632	0.94368	0.10739	0.79
Mof_O 	O 	0.04095	0.95905	0.2255	-0.399
Mof_H 	H 	0.16535	0.83465	0.9604	0.651
Mof_Dy	Dy	0.94368	0.88736	0.10739	0.801
Mof_O 	O 	0.95905	0.9181	0.2255	-0.402
Mof_H 	H 	0.83465	0.6693	0.9604	0.655
Mof_Dy	Dy	0.11264	0.05632	0.10739	0.81
Mof_O 	O 	0.0819	0.04095	0.2255	-0.402
Mof_H 	H 	0.3307	0.16535	0.9604	0.647
Mof_Dy	Dy	0.94368	0.05632	0.10739	0.79
Mof_O 	O 	0.95905	0.04095	0.2255	-0.399
Mof_H 	H 	0.83465	0.16535	0.9604	0.651
Mof_Dy	Dy	0.11264	0.05632	0.89261	0.79
Mof_O 	O 	0.0819	0.04095	0.7745	-0.399
Mof_H 	H 	0.3307	0.16535	0.0396	0.663
Mof_Dy	Dy	0.94368	0.88736	0.89261	0.794
Mof_O 	O 	0.95905	0.9181	0.7745	-0.4
Mof_H 	H 	0.83465	0.6693	0.0396	0.667
Mof_Dy	Dy	0.94368	0.05632	0.89261	0.776
Mof_O 	O 	0.95905	0.04095	0.7745	-0.397
Mof_H 	H 	0.83465	0.16535	0.0396	0.665
Mof_Dy	Dy	0.88736	0.94368	0.89261	0.794
Mof_O 	O 	0.9181	0.95905	0.7745	-0.4
Mof_H 	H 	0.6693	0.83465	0.0396	0.667
Mof_Dy	Dy	0.05632	0.11264	0.89261	0.79
Mof_O 	O 	0.04095	0.0819	0.7745	-0.399
Mof_H 	H 	0.16535	0.3307	0.0396	0.663
Mof_Dy	Dy	0.05632	0.94368	0.89261	0.776
Mof_O 	O 	0.04095	0.95905	0.7745	-0.397
Mof_H 	H 	0.16535	0.83465	0.0396	0.665
Mof_Dy	Dy	0.10285	0.2057	-0	2.529
Mof_Dy	Dy	0.7943	0.89715	-0	2.516
Mof_Dy	Dy	0.10285	0.89715	-0	2.529
Mof_Dy	Dy	0.89715	0.7943	-0	2.516
Mof_Dy	Dy	0.2057	0.10285	-0	2.529
Mof_Dy	Dy	0.89715	0.10285	-0	2.529
Mof_N 	N 	6.59693e-17	0.4071	0.5	-0.152
Mof_N 	N 	0.5929	0.5929	0.5	-0.152
Mof_N 	N 	0.4071	-6.32656e-33	0.5	-0.152
Mof_N 	N 	6.59693e-17	0.5929	0.5	-0.152
Mof_N 	N 	0.4071	0.4071	0.5	-0.152
Mof_N 	N 	0.5929	-6.32656e-33	0.5	-0.152
Mof_N 	N 	-3.71039e-17	0.5	0.3865	-0.238
Mof_H 	H 	1.52535e-17	0.5	0.4347	0.15
Mof_N 	N 	0.5	0.5	0.3865	-0.238
Mof_H 	H 	0.5	0.5	0.4347	0.149
Mof_N 	N 	0.5	-6.32656e-33	0.3865	-0.238
Mof_H 	H 	0.5	-6.32656e-33	0.4347	0.15
Mof_N 	N 	0.5	0	0.6135	-0.238
Mof_H 	H 	0.5	0	0.5653	0.149
Mof_N 	N 	0.5	0.5	0.6135	-0.238
Mof_H 	H 	0.5	0.5	0.5653	0.149
Mof_N 	N 	5.50734e-17	0.5	0.6135	-0.238
Mof_H 	H 	5.97005e-17	0.5	0.5653	0.149
Mof_O 	O 	-7.12308e-18	0.1215	-0	-1.078
Mof_O 	O 	0.8785	0.8785	-0	-1.084
Mof_O 	O 	0.1215	0	-0	-1.078
Mof_O 	O 	5.69846e-17	0.8785	-0	-1.079
Mof_O 	O 	0.1215	0.1215	-0	-1.084
Mof_O 	O 	0.8785	0	-0	-1.079
Mof_O 	O 	-7.9082e-34	-1.58164e-33	0.0743	-0.896
Mof_H 	H 	-3.9541e-34	0	0.0267	0.203
Mof_O 	O 	-6.32656e-33	1.26531e-32	0.9257	-0.88
Mof_H 	H 	-1.26531e-32	-1.26531e-32	0.9733	0.165
Mof_O 	O 	0.1423	0.3215	-0	-0.778
Mof_O 	O 	0.6785	0.8208	-0	-0.784
Mof_O 	O 	0.1792	0.8577	-0	-0.783
Mof_O 	O 	0.8577	0.6785	-0	-0.785
Mof_O 	O 	0.3215	0.1792	-0	-0.779
Mof_O 	O 	0.8208	0.1423	-0	-0.781
Mof_O 	O 	0.3215	0.1423	-0	-0.778
Mof_O 	O 	0.8208	0.6785	-0	-0.784
Mof_O 	O 	0.8577	0.1792	-0	-0.783
Mof_O 	O 	0.6785	0.8577	-0	-0.785
Mof_O 	O 	0.1792	0.3215	-0	-0.779
Mof_O 	O 	0.1423	0.8208	-0	-0.781
Mof_C 	C 	-1.23264e-17	0.2185	0.1284	1.101
Mof_C 	C 	-1.84128e-17	0.2653	0.1918	-0.341
Mof_C 	C 	2.78679e-17	0.3474	0.3033	0.137
Mof_C 	C 	-3.50015e-17	0.3933	0.3646	-0.141
Mof_C 	C 	4.32562e-17	0.3725	0.4398	0.118
Mof_C 	C 	-1.61092e-17	0.3135	0.4646	-0.087
Mof_H 	H 	-1.31812e-17	0.2803	0.4341	0.059
Mof_C 	C 	-4.34922e-18	0.452	0.3421	0.139
Mof_C 	C 	-2.55743e-17	0.4721	0.2664	-0.091
Mof_H 	H 	3.54807e-17	0.4482	0.224	0.066
Mof_C 	C 	0.7815	0.7815	0.1284	1.09
Mof_C 	C 	0.7347	0.7347	0.1918	-0.344
Mof_C 	C 	0.6526	0.6526	0.3033	0.131
Mof_C 	C 	0.6067	0.6067	0.3646	-0.14
Mof_C 	C 	0.6275	0.6275	0.4398	0.116
Mof_C 	C 	0.6865	0.6865	0.4646	-0.087
Mof_H 	H 	0.7197	0.7197	0.4341	0.058
Mof_C 	C 	0.548	0.548	0.3421	0.138
Mof_C 	C 	0.5279	0.5279	0.2664	-0.091
Mof_H 	H 	0.5518	0.5518	0.224	0.065
Mof_C 	C 	0.2185	0	0.1284	1.101
Mof_C 	C 	0.2653	0	0.1918	-0.341
Mof_C 	C 	0.3474	6.32656e-33	0.3033	0.137
Mof_C 	C 	0.3933	0	0.3646	-0.141
Mof_C 	C 	0.3725	-6.32656e-33	0.4398	0.118
Mof_C 	C 	0.3135	-6.32656e-33	0.4646	-0.087
Mof_H 	H 	0.2803	0	0.4341	0.059
Mof_C 	C 	0.452	0	0.3421	0.139
Mof_C 	C 	0.4721	0	0.2664	-0.091
Mof_H 	H 	0.4482	0	0.224	0.066
Mof_C 	C 	-1.23264e-17	0.7815	0.1284	1.096
Mof_C 	C 	-1.84128e-17	0.7347	0.1918	-0.341
Mof_C 	C 	2.78679e-17	0.6526	0.3033	0.135
Mof_C 	C 	2.19831e-17	0.6067	0.3646	-0.141
Mof_C 	C 	1.47639e-17	0.6275	0.4398	0.117
Mof_C 	C 	1.23831e-17	0.6865	0.4646	-0.087
Mof_H 	H 	-4.16735e-17	0.7197	0.4341	0.059
Mof_C 	C 	2.41431e-17	0.548	0.3421	0.139
Mof_C 	C 	-2.55743e-17	0.5279	0.2664	-0.091
Mof_H 	H 	3.54807e-17	0.5518	0.224	0.066
Mof_C 	C 	0.2185	0.2185	0.1284	1.093
Mof_C 	C 	0.2653	0.2653	0.1918	-0.345
Mof_C 	C 	0.3474	0.3474	0.3033	0.131
Mof_C 	C 	0.3933	0.3933	0.3646	-0.14
Mof_C 	C 	0.3725	0.3725	0.4398	0.117
Mof_C 	C 	0.3135	0.3135	0.4646	-0.087
Mof_H 	H 	0.2803	0.2803	0.4341	0.059
Mof_C 	C 	0.452	0.452	0.3421	0.138
Mof_C 	C 	0.4721	0.4721	0.2664	-0.091
Mof_H 	H 	0.4482	0.4482	0.224	0.066
Mof_C 	C 	0.7815	0	0.1284	1.096
Mof_C 	C 	0.7347	0	0.1918	-0.341
Mof_C 	C 	0.6526	6.32656e-33	0.3033	0.135
Mof_C 	C 	0.6067	0	0.3646	-0.141
Mof_C 	C 	0.6275	-6.32656e-33	0.4398	0.117
Mof_C 	C 	0.6865	-6.32656e-33	0.4646	-0.087
Mof_H 	H 	0.7197	0	0.4341	0.059
Mof_C 	C 	0.548	0	0.3421	0.139
Mof_C 	C 	0.5279	0	0.2664	-0.091
Mof_H 	H 	0.5518	0	0.224	0.066
Mof_C 	C 	0.2185	-1.26531e-32	0.8716	1.099
Mof_C 	C 	0.2653	-1.26531e-32	0.8082	-0.346
Mof_C 	C 	0.3474	0	0.6967	0.134
Mof_C 	C 	0.3933	0	0.6354	-0.14
Mof_C 	C 	0.3725	-6.32656e-33	0.5602	0.117
Mof_C 	C 	0.3135	6.32656e-33	0.5354	-0.086
Mof_H 	H 	0.2803	-6.32656e-33	0.5659	0.059
Mof_C 	C 	0.452	-1.26531e-32	0.6579	0.138
Mof_C 	C 	0.4721	-1.26531e-32	0.7336	-0.092
Mof_H 	H 	0.4482	0	0.776	0.063
Mof_C 	C 	0.7815	0.7815	0.8716	1.094
Mof_C 	C 	0.7347	0.7347	0.8082	-0.347
Mof_C 	C 	0.6526	0.6526	0.6967	0.131
Mof_C 	C 	0.6067	0.6067	0.6354	-0.14
Mof_C 	C 	0.6275	0.6275	0.5602	0.116
Mof_C 	C 	0.6865	0.6865	0.5354	-0.087
Mof_H 	H 	0.7197	0.7197	0.5659	0.058
Mof_C 	C 	0.548	0.548	0.6579	0.138
Mof_C 	C 	0.5279	0.5279	0.7336	-0.092
Mof_H 	H 	0.5518	0.5518	0.776	0.063
Mof_C 	C 	1.8035e-18	0.2185	0.8716	1.099
Mof_C 	C 	-2.06024e-17	0.2653	0.8082	-0.346
Mof_C 	C 	1.85939e-17	0.3474	0.6967	0.134
Mof_C 	C 	-4.01366e-18	0.3933	0.6354	-0.14
Mof_C 	C 	3.16978e-17	0.3725	0.5602	0.117
Mof_C 	C 	-2.2906e-17	0.3135	0.5354	-0.086
Mof_H 	H 	-2.5834e-17	0.2803	0.5659	0.059
Mof_C 	C 	2.23187e-17	0.452	0.6579	0.138
Mof_C 	C 	4.35438e-17	0.4721	0.7336	-0.092
Mof_H 	H 	3.94734e-17	0.4482	0.776	0.063
Mof_C 	C 	0.7815	-1.26531e-32	0.8716	1.095
Mof_C 	C 	0.7347	-1.26531e-32	0.8082	-0.346
Mof_C 	C 	0.6526	0	0.6967	0.133
Mof_C 	C 	0.6067	0	0.6354	-0.14
Mof_C 	C 	0.6275	-6.32656e-33	0.5602	0.117
Mof_C 	C 	0.6865	6.32656e-33	0.5354	-0.086
Mof_H 	H 	0.7197	-6.32656e-33	0.5659	0.058
Mof_C 	C 	0.548	-1.26531e-32	0.6579	0.138
Mof_C 	C 	0.5279	-1.26531e-32	0.7336	-0.091
Mof_H 	H 	0.5518	0	0.776	0.063
Mof_C 	C 	0.2185	0.2185	0.8716	1.097
Mof_C 	C 	0.2653	0.2653	0.8082	-0.348
Mof_C 	C 	0.3474	0.3474	0.6967	0.131
Mof_C 	C 	0.3933	0.3933	0.6354	-0.14
Mof_C 	C 	0.3725	0.3725	0.5602	0.116
Mof_C 	C 	0.3135	0.3135	0.5354	-0.087
Mof_H 	H 	0.2803	0.2803	0.5659	0.058
Mof_C 	C 	0.452	0.452	0.6579	0.138
Mof_C 	C 	0.4721	0.4721	0.7336	-0.092
Mof_H 	H 	0.4482	0.4482	0.776	0.063
Mof_C 	C 	8.72804e-17	0.7815	0.8716	1.095
Mof_C 	C 	-2.06024e-17	0.7347	0.8082	-0.346
Mof_C 	C 	4.70862e-17	0.6526	0.6967	0.133
Mof_C 	C 	5.2971e-17	0.6067	0.6354	-0.14
Mof_C 	C 	6.01901e-17	0.6275	0.5602	0.117
Mof_C 	C 	5.58632e-18	0.6865	0.5354	-0.086
Mof_H 	H 	-5.43263e-17	0.7197	0.5659	0.058
Mof_C 	C 	5.0811e-17	0.548	0.6579	0.138
Mof_C 	C 	4.35438e-17	0.5279	0.7336	-0.091
Mof_H 	H 	3.94734e-17	0.5518	0.776	0.063
_end
