data_functionalizedCrystal
_audit_creation_method	'EQeq! by Chris Wilmer'
_symmetry_space_group_name_H-M	'P1'
_symmetry_Int_Tables_number	1
_symmetry_cell_setting	triclinic
loop_
_symmetry_equiv_pos_as_xyz
  x,y,z
_cell_length_a	10.9539
_cell_length_b	17.4492
_cell_length_c	18.7
_cell_angle_alpha	88.868
_cell_angle_beta	86.16
_cell_angle_gamma	76.462
loop_
_atom_site_label
_atom_site_type_symbol
_atom_site_fract_x
_atom_site_fract_y
_atom_site_fract_z
_atom_site_charge
Mof_Ba	Ba	0.40167	0.39294	0.49075	2.042
Mof_Ba	Ba	0.4413	0.46473	0.24564	1.543
Mof_Ba	Ba	0.14237	0.64461	0.0322	1.623
Mof_Ba	Ba	0.80156	0.096	0.98444	2.008
Mof_Ba	Ba	0.11344	0.95874	0.26078	1.505
Mof_Ba	Ba	0.20044	0.17734	0.45978	1.755
Mof_Fe	Fe	0.10873	0.636	0.36585	0.957
Mof_Fe	Fe	0.39548	0.32055	0.82403	0.938
Mof_Fe	Fe	0.2634	0.145	0.12777	0.966
Mof_Fe	Fe	0.74537	0.14279	0.322	0.946
Mof_O 	O 	0.2195	0.562	0.4318	-0.42
Mof_O 	O 	0.378	0.5553	0.5013	-0.519
Mof_O 	O 	0.2197	0.7072	0.3926	-0.369
Mof_O 	O 	0.3697	0.7117	0.4674	-0.359
Mof_O 	O 	0.9739	0.6894	0.4389	-0.423
Mof_O 	O 	0.8117	0.667	0.5071	-0.503
Mof_O 	O 	0.9937	0.5593	0.3663	-0.343
Mof_O 	O 	0.8213	0.5363	0.4256	-0.359
Mof_O 	O 	0.2216	0.5829	0.2822	-0.467
Mof_O 	O 	0.2585	0.5956	0.1642	-0.464
Mof_O 	O 	0.0334	0.706	0.2862	-0.376
Mof_O 	O 	0.0497	0.7202	0.1666	-0.364
Mof_O 	O 	0.4722	0.3933	0.7553	-0.456
Mof_O 	O 	0.4764	0.4297	0.6401	-0.417
Mof_O 	O 	0.3746	0.2752	0.7288	-0.356
Mof_O 	O 	0.3675	0.306	0.6127	-0.41
Mof_O 	O 	0.5677	0.248	0.8404	-0.368
Mof_O 	O 	0.7297	0.238	0.9097	-0.463
Mof_O 	O 	0.4402	0.3722	0.91	-0.393
Mof_O 	O 	0.599	0.3662	0.9814	-0.436
Mof_O 	O 	0.2302	0.4053	0.8311	-0.349
Mof_O 	O 	0.0402	0.428	0.8953	-0.39
Mof_O 	O 	0.2923	0.2563	0.8786	-0.319
Mof_O 	O 	0.1127	0.2732	0.9454	-0.336
Mof_O 	O 	0.0946	0.2119	0.0992	-0.371
Mof_O 	O 	0.9374	0.2079	0.029	-0.479
Mof_O 	O 	0.2117	0.0682	0.0627	-0.432
Mof_O 	O 	0.0666	0.0593	0.9883	-0.483
Mof_O 	O 	0.3615	0.1934	0.0542	-0.344
Mof_O 	O 	0.5447	0.168	0.9892	-0.37
Mof_O 	O 	0.4299	0.0641	0.1294	-0.353
Mof_O 	O 	0.6191	0.0323	0.0693	-0.341
Mof_O 	O 	0.1867	0.0975	0.2137	-0.464
Mof_O 	O 	0.1442	0.1114	0.3317	-0.464
Mof_O 	O 	0.2832	0.2196	0.2048	-0.363
Mof_O 	O 	0.2533	0.2407	0.3229	-0.379
Mof_O 	O 	0.6826	0.1883	0.2286	-0.368
Mof_O 	O 	0.7145	0.176	0.1105	-0.403
Mof_O 	O 	0.8666	0.0685	0.2529	-0.456
Mof_O 	O 	0.9223	0.0535	0.1362	-0.385
Mof_O 	O 	0.6173	0.0777	0.342	-0.358
Mof_O 	O 	0.4217	0.0847	0.3898	-0.402
Mof_O 	O 	0.6059	0.2226	0.3745	-0.393
Mof_O 	O 	0.4229	0.2349	0.4386	-0.489
Mof_O 	O 	0.8501	0.2232	0.3258	-0.337
Mof_O 	O 	0.9734	0.2644	0.3997	-0.321
Mof_O 	O 	0.8389	0.1012	0.4084	-0.401
Mof_O 	O 	0.9767	0.1301	0.4805	-0.435
Mof_O 	O 	0.2942	0.3962	0.3511	-0.64
Mof_H 	H 	0.2109	0.4263	0.344	0.189
Mof_H 	H 	0.2898	0.3432	0.3434	0.203
Mof_O 	O 	0.5671	0.3827	0.3604	-0.654
Mof_H 	H 	0.6513	0.3901	0.357	0.196
Mof_H 	H 	0.5773	0.3273	0.3559	0.206
Mof_O 	O 	0.6849	0.0764	0.8519	-0.64
Mof_H 	H 	0.6387	0.0366	0.8493	0.211
Mof_H 	H 	0.6244	0.1243	0.8441	0.212
Mof_O 	O 	0.9592	0.1176	0.8559	-0.657
Mof_H 	H 	0.9532	0.1706	0.841	0.209
Mof_H 	H 	0.0477	0.0958	0.8578	0.205
Mof_C 	C 	0.2989	0.5914	0.4609	0.275
Mof_C 	C 	0.2975	0.6787	0.44	0.228
Mof_C 	C 	0.8936	0.6494	0.4574	0.262
Mof_C 	C 	0.9019	0.5738	0.4134	0.241
Mof_C 	C 	0.1981	0.6159	0.2204	0.252
Mof_C 	C 	0.0831	0.6871	0.2235	0.228
Mof_C 	C 	0.4524	0.3866	0.6898	0.238
Mof_C 	C 	0.3923	0.3167	0.6744	0.264
Mof_C 	C 	0.6233	0.2709	0.892	0.254
Mof_C 	C 	0.5488	0.3435	0.9316	0.256
Mof_C 	C 	0.1462	0.3843	0.8748	0.211
Mof_C 	C 	0.1845	0.2983	0.9035	0.239
Mof_C 	C 	0.0399	0.1793	0.0542	0.263
Mof_C 	C 	0.1103	0.0959	0.032	0.245
Mof_C 	C 	0.4716	0.1521	0.0367	0.265
Mof_C 	C 	0.5135	0.0758	0.0812	0.231
Mof_C 	C 	0.2441	0.2052	0.2686	0.245
Mof_C 	C 	0.1847	0.1325	0.2742	0.259
Mof_C 	C 	0.7409	0.1555	0.1719	0.261
Mof_C 	C 	0.8541	0.0857	0.1867	0.244
Mof_C 	C 	0.5137	0.1123	0.3767	0.228
Mof_C 	C 	0.5113	0.1972	0.4005	0.27
Mof_C 	C 	0.9144	0.2167	0.3819	0.206
Mof_C 	C 	0.9118	0.1432	0.4288	0.259
Mof_Ba	Ba	0.59833	0.60706	0.50925	2.043
Mof_Ba	Ba	0.5587	0.53527	0.75436	1.544
Mof_Ba	Ba	0.85763	0.35539	0.9678	1.624
Mof_Ba	Ba	0.19844	0.904	0.01556	2.009
Mof_Ba	Ba	0.88656	0.04126	0.73922	1.506
Mof_Ba	Ba	0.79956	0.82266	0.54022	1.756
Mof_Fe	Fe	0.89127	0.364	0.63415	0.957
Mof_Fe	Fe	0.60452	0.67945	0.17597	0.938
Mof_Fe	Fe	0.7366	0.855	0.87223	0.966
Mof_Fe	Fe	0.25463	0.85721	0.678	0.946
Mof_O 	O 	0.7805	0.438	0.5682	-0.42
Mof_O 	O 	0.622	0.4447	0.4987	-0.519
Mof_O 	O 	0.7803	0.2928	0.6074	-0.369
Mof_O 	O 	0.6303	0.2883	0.5326	-0.359
Mof_O 	O 	0.0261	0.3106	0.5611	-0.423
Mof_O 	O 	0.1883	0.333	0.4929	-0.503
Mof_O 	O 	0.0063	0.4407	0.6337	-0.343
Mof_O 	O 	0.1787	0.4637	0.5744	-0.359
Mof_O 	O 	0.7784	0.4171	0.7178	-0.467
Mof_O 	O 	0.7415	0.4044	0.8358	-0.464
Mof_O 	O 	0.9666	0.294	0.7138	-0.376
Mof_O 	O 	0.9503	0.2798	0.8334	-0.364
Mof_O 	O 	0.5278	0.6067	0.2447	-0.456
Mof_O 	O 	0.5236	0.5703	0.3599	-0.417
Mof_O 	O 	0.6254	0.7248	0.2712	-0.356
Mof_O 	O 	0.6325	0.694	0.3873	-0.41
Mof_O 	O 	0.4323	0.752	0.1596	-0.368
Mof_O 	O 	0.2703	0.762	0.0903	-0.463
Mof_O 	O 	0.5598	0.6278	0.09	-0.393
Mof_O 	O 	0.401	0.6338	0.0186	-0.436
Mof_O 	O 	0.7698	0.5947	0.1689	-0.349
Mof_O 	O 	0.9598	0.572	0.1047	-0.39
Mof_O 	O 	0.7077	0.7437	0.1214	-0.319
Mof_O 	O 	0.8873	0.7268	0.0546	-0.336
Mof_O 	O 	0.9054	0.7881	0.9008	-0.371
Mof_O 	O 	0.0626	0.7921	0.971	-0.479
Mof_O 	O 	0.7883	0.9318	0.9373	-0.432
Mof_O 	O 	0.9334	0.9407	0.0117	-0.483
Mof_O 	O 	0.6385	0.8066	0.9458	-0.344
Mof_O 	O 	0.4553	0.832	0.0108	-0.37
Mof_O 	O 	0.5701	0.9359	0.8706	-0.353
Mof_O 	O 	0.3809	0.9677	0.9307	-0.341
Mof_O 	O 	0.8133	0.9025	0.7863	-0.464
Mof_O 	O 	0.8558	0.8886	0.6683	-0.464
Mof_O 	O 	0.7168	0.7804	0.7952	-0.363
Mof_O 	O 	0.7467	0.7593	0.6771	-0.379
Mof_O 	O 	0.3174	0.8117	0.7714	-0.368
Mof_O 	O 	0.2855	0.824	0.8895	-0.403
Mof_O 	O 	0.1334	0.9315	0.7471	-0.456
Mof_O 	O 	0.0777	0.9465	0.8638	-0.385
Mof_O 	O 	0.3827	0.9223	0.658	-0.358
Mof_O 	O 	0.5783	0.9153	0.6102	-0.402
Mof_O 	O 	0.3941	0.7774	0.6255	-0.393
Mof_O 	O 	0.5771	0.7651	0.5614	-0.489
Mof_O 	O 	0.1499	0.7768	0.6742	-0.337
Mof_O 	O 	0.0266	0.7356	0.6003	-0.321
Mof_O 	O 	0.1611	0.8988	0.5916	-0.401
Mof_O 	O 	0.0233	0.8699	0.5195	-0.435
Mof_O 	O 	0.7058	0.6038	0.6489	-0.64
Mof_H 	H 	0.7891	0.5737	0.656	0.189
Mof_H 	H 	0.7102	0.6568	0.6566	0.203
Mof_O 	O 	0.4329	0.6173	0.6396	-0.654
Mof_H 	H 	0.3487	0.6099	0.643	0.196
Mof_H 	H 	0.4227	0.6727	0.6441	0.206
Mof_O 	O 	0.3151	0.9236	0.1481	-0.64
Mof_H 	H 	0.3613	0.9634	0.1507	0.211
Mof_H 	H 	0.3756	0.8757	0.1559	0.212
Mof_O 	O 	0.0408	0.8824	0.1441	-0.657
Mof_H 	H 	0.0468	0.8294	0.159	0.209
Mof_H 	H 	0.9523	0.9042	0.1422	0.205
Mof_C 	C 	0.7011	0.4086	0.5391	0.275
Mof_C 	C 	0.7025	0.3213	0.56	0.228
Mof_C 	C 	0.1064	0.3506	0.5426	0.262
Mof_C 	C 	0.0981	0.4262	0.5866	0.241
Mof_C 	C 	0.8019	0.3841	0.7796	0.252
Mof_C 	C 	0.9169	0.3129	0.7765	0.228
Mof_C 	C 	0.5476	0.6134	0.3102	0.238
Mof_C 	C 	0.6077	0.6833	0.3256	0.264
Mof_C 	C 	0.3767	0.7291	0.108	0.254
Mof_C 	C 	0.4512	0.6565	0.0684	0.256
Mof_C 	C 	0.8538	0.6157	0.1252	0.211
Mof_C 	C 	0.8155	0.7017	0.0965	0.239
Mof_C 	C 	0.9601	0.8207	0.9458	0.263
Mof_C 	C 	0.8897	0.9041	0.968	0.245
Mof_C 	C 	0.5284	0.8479	0.9633	0.265
Mof_C 	C 	0.4865	0.9242	0.9188	0.231
Mof_C 	C 	0.7559	0.7948	0.7314	0.245
Mof_C 	C 	0.8153	0.8675	0.7258	0.259
Mof_C 	C 	0.2591	0.8445	0.8281	0.261
Mof_C 	C 	0.1459	0.9143	0.8133	0.244
Mof_C 	C 	0.4863	0.8877	0.6233	0.228
Mof_C 	C 	0.4887	0.8028	0.5995	0.27
Mof_C 	C 	0.0856	0.7833	0.6181	0.206
Mof_C 	C 	0.0882	0.8568	0.5712	0.259
_end
