data_functionalizedCrystal
_audit_creation_method	'EQeq! by Chris Wilmer'
_symmetry_space_group_name_H-M	'P1'
_symmetry_Int_Tables_number	1
_symmetry_cell_setting	triclinic
loop_
_symmetry_equiv_pos_as_xyz
  x,y,z
_cell_length_a	26.4363
_cell_length_b	26.4363
_cell_length_c	7.1068
_cell_angle_alpha	90
_cell_angle_beta	90
_cell_angle_gamma	120
loop_
_atom_site_label
_atom_site_type_symbol
_atom_site_fract_x
_atom_site_fract_y
_atom_site_fract_z
_atom_site_charge
Mof_Mn	Mn	0.9629	0.643	0.996	1.005
Mof_C 	C 	0.0195	0.5979	0.767	0.389
Mof_C 	C 	0.9998	0.5494	0.919	-0.148
Mof_C 	C 	0.9883	0.538	0.11	0.195
Mof_C 	C 	0.9856	0.4937	0.177	-0.052
Mof_O 	O 	0.0261	0.5859	0.599	-0.33
Mof_O 	O 	0.0013	0.6358	0.796	-0.601
Mof_O 	O 	0.9794	0.5862	0.16	-0.453
Mof_Mn	Mn	0.62957	0.97633	0.32933	1.006
Mof_C 	C 	0.68617	0.93123	0.10033	0.386
Mof_C 	C 	0.66647	0.88273	0.25233	-0.147
Mof_C 	C 	0.65497	0.87133	0.44333	0.192
Mof_C 	C 	0.65227	0.82703	0.51033	-0.053
Mof_O 	O 	0.69277	0.91923	0.93233	-0.329
Mof_O 	O 	0.66797	0.96913	0.12933	-0.601
Mof_O 	O 	0.64607	0.91953	0.49333	-0.454
Mof_Mn	Mn	0.29623	0.30967	0.66267	1.007
Mof_C 	C 	0.35283	0.26457	0.43367	0.387
Mof_C 	C 	0.33313	0.21607	0.58567	-0.147
Mof_C 	C 	0.32163	0.20467	0.77667	0.193
Mof_C 	C 	0.31893	0.16037	0.84367	-0.054
Mof_O 	O 	0.35943	0.25257	0.26567	-0.33
Mof_O 	O 	0.33463	0.30247	0.46267	-0.601
Mof_O 	O 	0.31273	0.25287	0.82667	-0.454
Mof_Mn	Mn	0.357	0.3199	0.996	1.005
Mof_C 	C 	0.4021	0.4216	0.767	0.387
Mof_C 	C 	0.4506	0.4504	0.919	-0.147
Mof_C 	C 	0.462	0.4503	0.11	0.193
Mof_C 	C 	0.5063	0.4919	0.177	-0.053
Mof_O 	O 	0.4141	0.4402	0.599	-0.331
Mof_O 	O 	0.3642	0.3655	0.796	-0.601
Mof_O 	O 	0.4138	0.3932	0.16	-0.453
Mof_Mn	Mn	0.02367	0.65323	0.32933	1.005
Mof_C 	C 	0.06877	0.75493	0.10033	0.385
Mof_C 	C 	0.11727	0.78373	0.25233	-0.146
Mof_C 	C 	0.12867	0.78363	0.44333	0.192
Mof_C 	C 	0.17297	0.82523	0.51033	-0.053
Mof_O 	O 	0.08077	0.77353	0.93233	-0.328
Mof_O 	O 	0.03087	0.69883	0.12933	-0.601
Mof_O 	O 	0.08047	0.72653	0.49333	-0.454
Mof_Mn	Mn	0.69033	0.98657	0.66267	1.007
Mof_C 	C 	0.73543	0.08827	0.43367	0.387
Mof_C 	C 	0.78393	0.11707	0.58567	-0.147
Mof_C 	C 	0.79533	0.11697	0.77667	0.193
Mof_C 	C 	0.83963	0.15857	0.84367	-0.055
Mof_O 	O 	0.74743	0.10687	0.26567	-0.329
Mof_O 	O 	0.69753	0.03217	0.46267	-0.601
Mof_O 	O 	0.74713	0.05987	0.82667	-0.454
Mof_Mn	Mn	0.6801	0.0371	0.996	1.003
Mof_C 	C 	0.5784	0.9805	0.767	0.388
Mof_C 	C 	0.5496	0.0002	0.919	-0.15
Mof_C 	C 	0.5497	0.0117	0.11	0.194
Mof_C 	C 	0.5081	0.0144	0.177	-0.053
Mof_O 	O 	0.5598	0.9739	0.599	-0.331
Mof_O 	O 	0.6345	0.9987	0.796	-0.601
Mof_O 	O 	0.6068	0.0206	0.16	-0.453
Mof_Mn	Mn	0.34677	0.37043	0.32933	1.006
Mof_C 	C 	0.24507	0.31383	0.10033	0.386
Mof_C 	C 	0.21627	0.33353	0.25233	-0.147
Mof_C 	C 	0.21637	0.34503	0.44333	0.192
Mof_C 	C 	0.17477	0.34773	0.51033	-0.053
Mof_O 	O 	0.22647	0.30723	0.93233	-0.33
Mof_O 	O 	0.30117	0.33203	0.12933	-0.601
Mof_O 	O 	0.27347	0.35393	0.49333	-0.454
Mof_Mn	Mn	0.01343	0.70377	0.66267	1.007
Mof_C 	C 	0.91173	0.64717	0.43367	0.387
Mof_C 	C 	0.88293	0.66687	0.58567	-0.147
Mof_C 	C 	0.88303	0.67837	0.77667	0.192
Mof_C 	C 	0.84143	0.68107	0.84367	-0.054
Mof_O 	O 	0.89313	0.64057	0.26567	-0.33
Mof_O 	O 	0.96783	0.66537	0.46267	-0.601
Mof_O 	O 	0.94013	0.68727	0.82667	-0.454
Mof_Mn	Mn	0.0371	0.357	0.004	1.004
Mof_C 	C 	0.9805	0.4021	0.233	0.388
Mof_C 	C 	0.0002	0.4506	0.081	-0.149
Mof_C 	C 	0.0117	0.462	0.89	0.194
Mof_C 	C 	0.0144	0.5063	0.823	-0.053
Mof_O 	O 	0.9739	0.4141	0.401	-0.331
Mof_O 	O 	0.9987	0.3642	0.204	-0.601
Mof_O 	O 	0.0206	0.4138	0.84	-0.453
Mof_Mn	Mn	0.70377	0.69033	0.33733	1.007
Mof_C 	C 	0.64717	0.73543	0.56633	0.387
Mof_C 	C 	0.66687	0.78393	0.41433	-0.147
Mof_C 	C 	0.67837	0.79533	0.22333	0.193
Mof_C 	C 	0.68107	0.83963	0.15633	-0.054
Mof_O 	O 	0.64057	0.74743	0.73433	-0.33
Mof_O 	O 	0.66537	0.69753	0.53733	-0.601
Mof_O 	O 	0.68727	0.74713	0.17333	-0.454
Mof_Mn	Mn	0.37043	0.02367	0.67067	1.006
Mof_C 	C 	0.31383	0.06877	0.89967	0.386
Mof_C 	C 	0.33353	0.11727	0.74767	-0.147
Mof_C 	C 	0.34503	0.12867	0.55667	0.192
Mof_C 	C 	0.34773	0.17297	0.48967	-0.053
Mof_O 	O 	0.30723	0.08077	0.06767	-0.329
Mof_O 	O 	0.33203	0.03087	0.87067	-0.601
Mof_O 	O 	0.35393	0.08047	0.50667	-0.454
Mof_Mn	Mn	0.643	0.6801	0.004	1.005
Mof_C 	C 	0.5979	0.5784	0.233	0.387
Mof_C 	C 	0.5494	0.5496	0.081	-0.147
Mof_C 	C 	0.538	0.5497	0.89	0.193
Mof_C 	C 	0.4937	0.5081	0.823	-0.053
Mof_O 	O 	0.5859	0.5598	0.401	-0.331
Mof_O 	O 	0.6358	0.6345	0.204	-0.601
Mof_O 	O 	0.5862	0.6068	0.84	-0.453
Mof_Mn	Mn	0.30967	0.01343	0.33733	1.007
Mof_C 	C 	0.26457	0.91173	0.56633	0.387
Mof_C 	C 	0.21607	0.88293	0.41433	-0.147
Mof_C 	C 	0.20467	0.88303	0.22333	0.193
Mof_C 	C 	0.16037	0.84143	0.15633	-0.055
Mof_O 	O 	0.25257	0.89313	0.73433	-0.329
Mof_O 	O 	0.30247	0.96783	0.53733	-0.601
Mof_O 	O 	0.25287	0.94013	0.17333	-0.454
Mof_Mn	Mn	0.97633	0.34677	0.67067	1.005
Mof_C 	C 	0.93123	0.24507	0.89967	0.385
Mof_C 	C 	0.88273	0.21627	0.74767	-0.146
Mof_C 	C 	0.87133	0.21637	0.55667	0.192
Mof_C 	C 	0.82703	0.17477	0.48967	-0.053
Mof_O 	O 	0.91923	0.22647	0.06767	-0.328
Mof_O 	O 	0.96913	0.30117	0.87067	-0.601
Mof_O 	O 	0.91953	0.27347	0.50667	-0.454
Mof_Mn	Mn	0.3199	0.9629	0.004	1.003
Mof_C 	C 	0.4216	0.0195	0.233	0.388
Mof_C 	C 	0.4504	0.9998	0.081	-0.15
Mof_C 	C 	0.4503	0.9883	0.89	0.194
Mof_C 	C 	0.4919	0.9856	0.823	-0.053
Mof_O 	O 	0.4402	0.0261	0.401	-0.331
Mof_O 	O 	0.3655	0.0013	0.204	-0.601
Mof_O 	O 	0.3932	0.9794	0.84	-0.453
Mof_Mn	Mn	0.98657	0.29623	0.33733	1.007
Mof_C 	C 	0.08827	0.35283	0.56633	0.387
Mof_C 	C 	0.11707	0.33313	0.41433	-0.147
Mof_C 	C 	0.11697	0.32163	0.22333	0.192
Mof_C 	C 	0.15857	0.31893	0.15633	-0.054
Mof_O 	O 	0.10687	0.35943	0.73433	-0.33
Mof_O 	O 	0.03217	0.33463	0.53733	-0.601
Mof_O 	O 	0.05987	0.31273	0.17333	-0.454
Mof_Mn	Mn	0.65323	0.62957	0.67067	1.006
Mof_C 	C 	0.75493	0.68617	0.89967	0.386
Mof_C 	C 	0.78373	0.66647	0.74767	-0.147
Mof_C 	C 	0.78363	0.65497	0.55667	0.192
Mof_C 	C 	0.82523	0.65227	0.48967	-0.053
Mof_O 	O 	0.77353	0.69277	0.06767	-0.33
Mof_O 	O 	0.69883	0.66797	0.87067	-0.601
Mof_O 	O 	0.72653	0.64607	0.50667	-0.454
_end
