data_functionalizedCrystal
_audit_creation_method	'EQeq! by Chris Wilmer'
_symmetry_space_group_name_H-M	'P1'
_symmetry_Int_Tables_number	1
_symmetry_cell_setting	triclinic
loop_
_symmetry_equiv_pos_as_xyz
  x,y,z
_cell_length_a	27.0083
_cell_length_b	27.0121
_cell_length_c	27.8161
_cell_angle_alpha	90
_cell_angle_beta	90
_cell_angle_gamma	90
loop_
_atom_site_label
_atom_site_type_symbol
_atom_site_fract_x
_atom_site_fract_y
_atom_site_fract_z
_atom_site_charge
Mof_Mo	Mo	0.89929	0.46297	0.03322	1.005
Mof_Mo	Mo	0.90681	0.51417	0.11279	1.005
Mof_Mo	Mo	0.94048	0.6362	0.11562	1.324
Mof_Mo	Mo	0.96458	0.68576	0.0146	1.306
Mof_Mo	Mo	0.95315	0.61027	0.91561	1.008
Mof_Mo	Mo	0.92551	0.51719	0.92096	0.989
Mof_Mo	Mo	0.80707	0.48015	0.94905	1.282
Mof_Mo	Mo	0.72891	0.56581	0.97266	1.298
Mof_Mo	Mo	0.77465	0.6835	0.96488	0.987
Mof_Mo	Mo	0.86491	0.70681	0.9422	1.001
Mof_Mo	Mo	0.74618	0.62938	0.07855	1.012
Mof_Mo	Mo	0.81831	0.61074	0.13788	1.017
Mof_Zn	Zn	0.99472	0.55948	0.02701	1.201
Mof_Zn	Zn	0.85263	0.71709	0.07045	1.222
Mof_Zn	Zn	0.82163	0.59015	0.88677	1.222
Mof_Zn	Zn	0.779	0.50155	0.06999	1.224
Mof_O 	O 	0.7416	0.4479	0.09892	-0.479
Mof_O 	O 	0.77196	0.47477	0.16884	-0.339
Mof_O 	O 	0.66383	0.28068	0.09811	-0.485
Mof_O 	O 	0.60648	0.26861	0.1538	-0.367
Mof_O 	O 	0.6933	0.40755	0.31863	-0.485
Mof_O 	O 	0.63278	0.35121	0.3118	-0.33
Mof_O 	O 	0.94834	0.51124	0.05515	-0.768
Mof_O 	O 	0.84957	0.48574	0.07966	-0.721
Mof_O 	O 	0.93663	0.46405	0.97068	-0.713
Mof_O 	O 	0.83867	0.4434	0.995	-0.642
Mof_O 	O 	0.9493	0.57137	0.13083	-0.677
Mof_O 	O 	0.85275	0.54499	0.15683	-0.481
Mof_O 	O 	0.88292	0.64416	0.14953	-0.641
Mof_O 	O 	0.91844	0.6892	0.07038	-0.789
Mof_O 	O 	0.97719	0.62426	0.05374	-0.793
Mof_O 	O 	0.98914	0.65324	0.96248	-0.673
Mof_O 	O 	0.92316	0.7272	0.98147	-0.648
Mof_O 	O 	0.97074	0.55712	0.96	-0.766
Mof_O 	O 	0.89297	0.57609	0.89386	-0.717
Mof_O 	O 	0.9151	0.67394	0.89553	-0.473
Mof_O 	O 	0.85892	0.48536	0.9078	-0.65
Mof_O 	O 	0.76368	0.50794	0.00195	-0.777
Mof_O 	O 	0.78092	0.54526	0.92468	-0.776
Mof_O 	O 	0.73054	0.62721	0.9452	-0.643
Mof_O 	O 	0.70976	0.58581	0.03266	-0.649
Mof_O 	O 	0.81897	0.65754	0.91544	-0.715
Mof_O 	O 	0.82782	0.7148	0.00261	-0.718
Mof_O 	O 	0.73494	0.68432	0.02837	-0.503
Mof_O 	O 	0.77433	0.567	0.10133	-0.725
Mof_O 	O 	0.80415	0.66853	0.09736	-0.721
Mof_C 	C 	0.71448	0.40776	0.16952	-0.143
Mof_C 	C 	0.69261	0.36982	0.14281	0.057
Mof_H 	H 	0.6983	0.3679	0.1092	0.013
Mof_C 	C 	0.6626	0.33487	0.165	-0.148
Mof_C 	C 	0.65244	0.3393	0.21394	0.05
Mof_H 	H 	0.6296	0.3173	0.2287	0.015
Mof_C 	C 	0.6756	0.37591	0.24146	-0.142
Mof_C 	C 	0.70738	0.40924	0.21923	0.051
Mof_H 	H 	0.7244	0.4332	0.238	0.013
Mof_C 	C 	0.74561	0.44665	0.14537	0.325
Mof_C 	C 	0.6411	0.29164	0.13797	0.345
Mof_C 	C 	0.66571	0.37797	0.29459	0.328
Mof_Mo	Mo	0.60071	0.53703	0.53322	1.004
Mof_Mo	Mo	0.59319	0.48583	0.61279	1.004
Mof_Mo	Mo	0.55952	0.3638	0.61562	1.323
Mof_Mo	Mo	0.53542	0.31424	0.5146	1.305
Mof_Mo	Mo	0.54685	0.38973	0.41561	1.008
Mof_Mo	Mo	0.57449	0.48281	0.42096	0.988
Mof_Mo	Mo	0.69293	0.51985	0.44905	1.282
Mof_Mo	Mo	0.77109	0.43419	0.47266	1.298
Mof_Mo	Mo	0.72535	0.3165	0.46488	0.986
Mof_Mo	Mo	0.63509	0.29319	0.4422	1.001
Mof_Mo	Mo	0.75382	0.37062	0.57855	1.012
Mof_Mo	Mo	0.68169	0.38926	0.63788	1.017
Mof_Zn	Zn	0.50528	0.44052	0.52701	1.201
Mof_Zn	Zn	0.64737	0.28291	0.57045	1.222
Mof_Zn	Zn	0.67837	0.40985	0.38677	1.222
Mof_Zn	Zn	0.721	0.49845	0.56999	1.224
Mof_O 	O 	0.7584	0.5521	0.59892	-0.479
Mof_O 	O 	0.72804	0.52523	0.66884	-0.339
Mof_O 	O 	0.83617	0.71932	0.59811	-0.485
Mof_O 	O 	0.89352	0.73139	0.6538	-0.367
Mof_O 	O 	0.8067	0.59245	0.81863	-0.485
Mof_O 	O 	0.86722	0.64879	0.8118	-0.33
Mof_O 	O 	0.55166	0.48876	0.55515	-0.768
Mof_O 	O 	0.65043	0.51426	0.57966	-0.721
Mof_O 	O 	0.56337	0.53595	0.47068	-0.713
Mof_O 	O 	0.66133	0.5566	0.495	-0.642
Mof_O 	O 	0.5507	0.42863	0.63083	-0.677
Mof_O 	O 	0.64725	0.45501	0.65683	-0.481
Mof_O 	O 	0.61708	0.35584	0.64953	-0.641
Mof_O 	O 	0.58156	0.3108	0.57038	-0.789
Mof_O 	O 	0.52281	0.37574	0.55374	-0.793
Mof_O 	O 	0.51086	0.34676	0.46248	-0.674
Mof_O 	O 	0.57684	0.2728	0.48147	-0.648
Mof_O 	O 	0.52926	0.44288	0.46	-0.766
Mof_O 	O 	0.60703	0.42391	0.39386	-0.717
Mof_O 	O 	0.5849	0.32606	0.39553	-0.473
Mof_O 	O 	0.64108	0.51464	0.4078	-0.65
Mof_O 	O 	0.73632	0.49206	0.50195	-0.777
Mof_O 	O 	0.71908	0.45474	0.42468	-0.776
Mof_O 	O 	0.76946	0.37279	0.4452	-0.643
Mof_O 	O 	0.79024	0.41419	0.53266	-0.649
Mof_O 	O 	0.68103	0.34246	0.41544	-0.715
Mof_O 	O 	0.67218	0.2852	0.50261	-0.717
Mof_O 	O 	0.76506	0.31568	0.52837	-0.503
Mof_O 	O 	0.72567	0.433	0.60133	-0.725
Mof_O 	O 	0.69585	0.33147	0.59736	-0.721
Mof_C 	C 	0.78552	0.59224	0.66952	-0.143
Mof_C 	C 	0.80739	0.63018	0.64281	0.057
Mof_H 	H 	0.8017	0.6321	0.6092	0.013
Mof_C 	C 	0.8374	0.66513	0.665	-0.148
Mof_C 	C 	0.84756	0.6607	0.71394	0.05
Mof_H 	H 	0.8704	0.6827	0.7287	0.015
Mof_C 	C 	0.8244	0.62409	0.74146	-0.142
Mof_C 	C 	0.79262	0.59076	0.71923	0.051
Mof_H 	H 	0.7756	0.5668	0.738	0.013
Mof_C 	C 	0.75439	0.55335	0.64537	0.325
Mof_C 	C 	0.8589	0.70836	0.63797	0.345
Mof_C 	C 	0.83429	0.62203	0.79459	0.328
Mof_Mo	Mo	0.10071	0.96297	0.46678	1.005
Mof_Mo	Mo	0.09319	0.01417	0.38721	1.003
Mof_Mo	Mo	0.05952	0.1362	0.38438	1.323
Mof_Mo	Mo	0.03542	0.18576	0.4854	1.306
Mof_Mo	Mo	0.04685	0.11027	0.58439	1.008
Mof_Mo	Mo	0.07449	0.01719	0.57904	0.988
Mof_Mo	Mo	0.19293	0.98015	0.55095	1.283
Mof_Mo	Mo	0.27109	0.06581	0.52734	1.298
Mof_Mo	Mo	0.22535	0.1835	0.53512	0.986
Mof_Mo	Mo	0.13509	0.20681	0.5578	1.001
Mof_Mo	Mo	0.25382	0.12938	0.42145	1.012
Mof_Mo	Mo	0.18169	0.11074	0.36212	1.017
Mof_Zn	Zn	0.00528	0.05948	0.47299	1.201
Mof_Zn	Zn	0.14737	0.21709	0.42955	1.222
Mof_Zn	Zn	0.17837	0.09015	0.61323	1.222
Mof_Zn	Zn	0.221	0.00155	0.43001	1.224
Mof_O 	O 	0.2584	0.9479	0.40108	-0.479
Mof_O 	O 	0.22804	0.97477	0.33116	-0.338
Mof_O 	O 	0.33617	0.78068	0.40189	-0.485
Mof_O 	O 	0.39352	0.76861	0.3462	-0.367
Mof_O 	O 	0.3067	0.90755	0.18137	-0.485
Mof_O 	O 	0.36722	0.85121	0.1882	-0.33
Mof_O 	O 	0.05166	0.01124	0.44485	-0.768
Mof_O 	O 	0.15043	0.98574	0.42034	-0.721
Mof_O 	O 	0.06337	0.96405	0.52932	-0.713
Mof_O 	O 	0.16133	0.9434	0.505	-0.642
Mof_O 	O 	0.0507	0.07137	0.36917	-0.677
Mof_O 	O 	0.14725	0.04499	0.34317	-0.481
Mof_O 	O 	0.11708	0.14416	0.35047	-0.641
Mof_O 	O 	0.08156	0.1892	0.42962	-0.789
Mof_O 	O 	0.02281	0.12426	0.44626	-0.793
Mof_O 	O 	0.01086	0.15324	0.53752	-0.674
Mof_O 	O 	0.07684	0.2272	0.51853	-0.648
Mof_O 	O 	0.02926	0.05712	0.54	-0.766
Mof_O 	O 	0.10703	0.07609	0.60614	-0.717
Mof_O 	O 	0.0849	0.17394	0.60447	-0.473
Mof_O 	O 	0.14108	0.98536	0.5922	-0.649
Mof_O 	O 	0.23632	0.00794	0.49805	-0.777
Mof_O 	O 	0.21908	0.04526	0.57532	-0.776
Mof_O 	O 	0.26946	0.12721	0.5548	-0.643
Mof_O 	O 	0.29024	0.08581	0.46734	-0.649
Mof_O 	O 	0.18103	0.15754	0.58456	-0.715
Mof_O 	O 	0.17218	0.2148	0.49739	-0.717
Mof_O 	O 	0.26506	0.18432	0.47163	-0.503
Mof_O 	O 	0.22567	0.067	0.39867	-0.725
Mof_O 	O 	0.19585	0.16853	0.40264	-0.721
Mof_C 	C 	0.28552	0.90776	0.33048	-0.143
Mof_C 	C 	0.30739	0.86982	0.35719	0.057
Mof_H 	H 	0.3017	0.8679	0.3908	0.013
Mof_C 	C 	0.3374	0.83487	0.335	-0.148
Mof_C 	C 	0.34756	0.8393	0.28606	0.05
Mof_H 	H 	0.3704	0.8173	0.2713	0.015
Mof_C 	C 	0.3244	0.87591	0.25854	-0.142
Mof_C 	C 	0.29262	0.90924	0.28077	0.051
Mof_H 	H 	0.2756	0.9332	0.262	0.014
Mof_C 	C 	0.25439	0.94665	0.35463	0.325
Mof_C 	C 	0.3589	0.79164	0.36203	0.345
Mof_C 	C 	0.33429	0.87797	0.20541	0.328
Mof_Mo	Mo	0.39929	0.03703	0.96678	1.004
Mof_Mo	Mo	0.40681	0.98583	0.88721	1.004
Mof_Mo	Mo	0.44048	0.8638	0.88438	1.323
Mof_Mo	Mo	0.46458	0.81424	0.9854	1.306
Mof_Mo	Mo	0.45315	0.88973	0.08439	1.008
Mof_Mo	Mo	0.42551	0.98281	0.07904	0.989
Mof_Mo	Mo	0.30707	0.01985	0.05095	1.282
Mof_Mo	Mo	0.22891	0.93419	0.02734	1.298
Mof_Mo	Mo	0.27465	0.8165	0.03512	0.987
Mof_Mo	Mo	0.36491	0.79319	0.0578	1.001
Mof_Mo	Mo	0.24618	0.87062	0.92145	1.012
Mof_Mo	Mo	0.31831	0.88926	0.86212	1.017
Mof_Zn	Zn	0.49472	0.94052	0.97299	1.201
Mof_Zn	Zn	0.35263	0.78291	0.92955	1.222
Mof_Zn	Zn	0.32163	0.90985	0.11323	1.222
Mof_Zn	Zn	0.279	0.99845	0.93001	1.224
Mof_O 	O 	0.2416	0.0521	0.90108	-0.479
Mof_O 	O 	0.27196	0.02523	0.83116	-0.339
Mof_O 	O 	0.16383	0.21932	0.90189	-0.485
Mof_O 	O 	0.10648	0.23139	0.8462	-0.367
Mof_O 	O 	0.1933	0.09245	0.68137	-0.485
Mof_O 	O 	0.13278	0.14879	0.6882	-0.33
Mof_O 	O 	0.44834	0.98876	0.94485	-0.768
Mof_O 	O 	0.34957	0.01426	0.92034	-0.722
Mof_O 	O 	0.43663	0.03595	0.02932	-0.713
Mof_O 	O 	0.33867	0.0566	0.005	-0.642
Mof_O 	O 	0.4493	0.92863	0.86917	-0.677
Mof_O 	O 	0.35275	0.95501	0.84317	-0.481
Mof_O 	O 	0.38292	0.85584	0.85047	-0.641
Mof_O 	O 	0.41844	0.8108	0.92962	-0.789
Mof_O 	O 	0.47719	0.87574	0.94626	-0.793
Mof_O 	O 	0.48914	0.84676	0.03752	-0.674
Mof_O 	O 	0.42316	0.7728	0.01853	-0.648
Mof_O 	O 	0.47074	0.94288	0.04	-0.766
Mof_O 	O 	0.39297	0.92391	0.10614	-0.717
Mof_O 	O 	0.4151	0.82606	0.10447	-0.473
Mof_O 	O 	0.35892	0.01464	0.0922	-0.65
Mof_O 	O 	0.26368	0.99206	0.99805	-0.777
Mof_O 	O 	0.28092	0.95474	0.07532	-0.776
Mof_O 	O 	0.23054	0.87279	0.0548	-0.643
Mof_O 	O 	0.20976	0.91419	0.96734	-0.649
Mof_O 	O 	0.31897	0.84246	0.08456	-0.715
Mof_O 	O 	0.32782	0.7852	0.99739	-0.717
Mof_O 	O 	0.23494	0.81568	0.97163	-0.503
Mof_O 	O 	0.27433	0.933	0.89867	-0.724
Mof_O 	O 	0.30415	0.83147	0.90264	-0.721
Mof_C 	C 	0.21448	0.09224	0.83048	-0.143
Mof_C 	C 	0.19261	0.13018	0.85719	0.057
Mof_H 	H 	0.1983	0.1321	0.8908	0.013
Mof_C 	C 	0.1626	0.16513	0.835	-0.148
Mof_C 	C 	0.15244	0.1607	0.78606	0.05
Mof_H 	H 	0.1296	0.1827	0.7713	0.015
Mof_C 	C 	0.1756	0.12409	0.75854	-0.142
Mof_C 	C 	0.20738	0.09076	0.78077	0.051
Mof_H 	H 	0.2244	0.0668	0.762	0.013
Mof_C 	C 	0.24561	0.05335	0.85463	0.325
Mof_C 	C 	0.1411	0.20836	0.86203	0.345
Mof_C 	C 	0.16571	0.12203	0.70541	0.328
Mof_Mo	Mo	0.10071	0.53703	0.96678	1.004
Mof_Mo	Mo	0.09319	0.48583	0.88721	1.004
Mof_Mo	Mo	0.05952	0.3638	0.88438	1.323
Mof_Mo	Mo	0.03542	0.31424	0.9854	1.305
Mof_Mo	Mo	0.04685	0.38973	0.08439	1.008
Mof_Mo	Mo	0.07449	0.48281	0.07904	0.989
Mof_Mo	Mo	0.19293	0.51985	0.05095	1.282
Mof_Mo	Mo	0.27109	0.43419	0.02734	1.298
Mof_Mo	Mo	0.22535	0.3165	0.03512	0.987
Mof_Mo	Mo	0.13509	0.29319	0.0578	1.001
Mof_Mo	Mo	0.25382	0.37062	0.92145	1.012
Mof_Mo	Mo	0.18169	0.38926	0.86212	1.017
Mof_Zn	Zn	0.00528	0.44052	0.97299	1.201
Mof_Zn	Zn	0.14737	0.28291	0.92955	1.222
Mof_Zn	Zn	0.17837	0.40985	0.11323	1.222
Mof_Zn	Zn	0.221	0.49845	0.93001	1.224
Mof_O 	O 	0.2584	0.5521	0.90108	-0.479
Mof_O 	O 	0.22804	0.52523	0.83116	-0.339
Mof_O 	O 	0.33617	0.71932	0.90189	-0.485
Mof_O 	O 	0.39352	0.73139	0.8462	-0.367
Mof_O 	O 	0.3067	0.59245	0.68137	-0.485
Mof_O 	O 	0.36722	0.64879	0.6882	-0.33
Mof_O 	O 	0.05166	0.48876	0.94485	-0.768
Mof_O 	O 	0.15043	0.51426	0.92034	-0.721
Mof_O 	O 	0.06337	0.53595	0.02932	-0.713
Mof_O 	O 	0.16133	0.5566	0.005	-0.642
Mof_O 	O 	0.0507	0.42863	0.86917	-0.677
Mof_O 	O 	0.14725	0.45501	0.84317	-0.481
Mof_O 	O 	0.11708	0.35584	0.85047	-0.641
Mof_O 	O 	0.08156	0.3108	0.92962	-0.789
Mof_O 	O 	0.02281	0.37574	0.94626	-0.793
Mof_O 	O 	0.01086	0.34676	0.03752	-0.673
Mof_O 	O 	0.07684	0.2728	0.01853	-0.648
Mof_O 	O 	0.02926	0.44288	0.04	-0.766
Mof_O 	O 	0.10703	0.42391	0.10614	-0.717
Mof_O 	O 	0.0849	0.32606	0.10447	-0.473
Mof_O 	O 	0.14108	0.51464	0.0922	-0.65
Mof_O 	O 	0.23632	0.49206	0.99805	-0.777
Mof_O 	O 	0.21908	0.45474	0.07532	-0.776
Mof_O 	O 	0.26946	0.37279	0.0548	-0.643
Mof_O 	O 	0.29024	0.41419	0.96734	-0.649
Mof_O 	O 	0.18103	0.34246	0.08456	-0.715
Mof_O 	O 	0.17218	0.2852	0.99739	-0.718
Mof_O 	O 	0.26506	0.31568	0.97163	-0.503
Mof_O 	O 	0.22567	0.433	0.89867	-0.725
Mof_O 	O 	0.19585	0.33147	0.90264	-0.721
Mof_C 	C 	0.28552	0.59224	0.83048	-0.143
Mof_C 	C 	0.30739	0.63018	0.85719	0.057
Mof_H 	H 	0.3017	0.6321	0.8908	0.013
Mof_C 	C 	0.3374	0.66513	0.835	-0.148
Mof_C 	C 	0.34756	0.6607	0.78606	0.05
Mof_H 	H 	0.3704	0.6827	0.7713	0.015
Mof_C 	C 	0.3244	0.62409	0.75854	-0.142
Mof_C 	C 	0.29262	0.59076	0.78077	0.051
Mof_H 	H 	0.2756	0.5668	0.762	0.013
Mof_C 	C 	0.25439	0.55335	0.85463	0.325
Mof_C 	C 	0.3589	0.70836	0.86203	0.345
Mof_C 	C 	0.33429	0.62203	0.70541	0.328
Mof_Mo	Mo	0.39929	0.46297	0.46678	1.004
Mof_Mo	Mo	0.40681	0.51417	0.38721	1.004
Mof_Mo	Mo	0.44048	0.6362	0.38438	1.323
Mof_Mo	Mo	0.46458	0.68576	0.4854	1.305
Mof_Mo	Mo	0.45315	0.61027	0.58439	1.008
Mof_Mo	Mo	0.42551	0.51719	0.57904	0.988
Mof_Mo	Mo	0.30707	0.48015	0.55095	1.282
Mof_Mo	Mo	0.22891	0.56581	0.52734	1.298
Mof_Mo	Mo	0.27465	0.6835	0.53512	0.986
Mof_Mo	Mo	0.36491	0.70681	0.5578	1.001
Mof_Mo	Mo	0.24618	0.62938	0.42145	1.012
Mof_Mo	Mo	0.31831	0.61074	0.36212	1.017
Mof_Zn	Zn	0.49472	0.55948	0.47299	1.201
Mof_Zn	Zn	0.35263	0.71709	0.42955	1.222
Mof_Zn	Zn	0.32163	0.59015	0.61323	1.222
Mof_Zn	Zn	0.279	0.50155	0.43001	1.224
Mof_O 	O 	0.2416	0.4479	0.40108	-0.479
Mof_O 	O 	0.27196	0.47477	0.33116	-0.339
Mof_O 	O 	0.16383	0.28068	0.40189	-0.485
Mof_O 	O 	0.10648	0.26861	0.3462	-0.367
Mof_O 	O 	0.1933	0.40755	0.18137	-0.485
Mof_O 	O 	0.13278	0.35121	0.1882	-0.33
Mof_O 	O 	0.44834	0.51124	0.44485	-0.768
Mof_O 	O 	0.34957	0.48574	0.42034	-0.721
Mof_O 	O 	0.43663	0.46405	0.52932	-0.713
Mof_O 	O 	0.33867	0.4434	0.505	-0.642
Mof_O 	O 	0.4493	0.57137	0.36917	-0.677
Mof_O 	O 	0.35275	0.54499	0.34317	-0.481
Mof_O 	O 	0.38292	0.64416	0.35047	-0.641
Mof_O 	O 	0.41844	0.6892	0.42962	-0.789
Mof_O 	O 	0.47719	0.62426	0.44626	-0.793
Mof_O 	O 	0.48914	0.65324	0.53752	-0.674
Mof_O 	O 	0.42316	0.7272	0.51853	-0.648
Mof_O 	O 	0.47074	0.55712	0.54	-0.766
Mof_O 	O 	0.39297	0.57609	0.60614	-0.717
Mof_O 	O 	0.4151	0.67394	0.60447	-0.473
Mof_O 	O 	0.35892	0.48536	0.5922	-0.65
Mof_O 	O 	0.26368	0.50794	0.49805	-0.777
Mof_O 	O 	0.28092	0.54526	0.57532	-0.776
Mof_O 	O 	0.23054	0.62721	0.5548	-0.643
Mof_O 	O 	0.20976	0.58581	0.46734	-0.649
Mof_O 	O 	0.31897	0.65754	0.58456	-0.715
Mof_O 	O 	0.32782	0.7148	0.49739	-0.717
Mof_O 	O 	0.23494	0.68432	0.47163	-0.503
Mof_O 	O 	0.27433	0.567	0.39867	-0.725
Mof_O 	O 	0.30415	0.66853	0.40264	-0.721
Mof_C 	C 	0.21448	0.40776	0.33048	-0.143
Mof_C 	C 	0.19261	0.36982	0.35719	0.057
Mof_H 	H 	0.1983	0.3679	0.3908	0.013
Mof_C 	C 	0.1626	0.33487	0.335	-0.148
Mof_C 	C 	0.15244	0.3393	0.28606	0.05
Mof_H 	H 	0.1296	0.3173	0.2713	0.015
Mof_C 	C 	0.1756	0.37591	0.25854	-0.142
Mof_C 	C 	0.20738	0.40924	0.28077	0.051
Mof_H 	H 	0.2244	0.4332	0.262	0.013
Mof_C 	C 	0.24561	0.44665	0.35463	0.325
Mof_C 	C 	0.1411	0.29164	0.36203	0.345
Mof_C 	C 	0.16571	0.37797	0.20541	0.328
Mof_Mo	Mo	0.89929	0.03703	0.53322	1.005
Mof_Mo	Mo	0.90681	0.98583	0.61279	1.003
Mof_Mo	Mo	0.94048	0.8638	0.61562	1.323
Mof_Mo	Mo	0.96458	0.81424	0.5146	1.306
Mof_Mo	Mo	0.95315	0.88973	0.41561	1.008
Mof_Mo	Mo	0.92551	0.98281	0.42096	0.988
Mof_Mo	Mo	0.80707	0.01985	0.44905	1.283
Mof_Mo	Mo	0.72891	0.93419	0.47266	1.298
Mof_Mo	Mo	0.77465	0.8165	0.46488	0.986
Mof_Mo	Mo	0.86491	0.79319	0.4422	1.001
Mof_Mo	Mo	0.74618	0.87062	0.57855	1.012
Mof_Mo	Mo	0.81831	0.88926	0.63788	1.017
Mof_Zn	Zn	0.99472	0.94052	0.52701	1.201
Mof_Zn	Zn	0.85263	0.78291	0.57045	1.222
Mof_Zn	Zn	0.82163	0.90985	0.38677	1.222
Mof_Zn	Zn	0.779	0.99845	0.56999	1.224
Mof_O 	O 	0.7416	0.0521	0.59892	-0.479
Mof_O 	O 	0.77196	0.02523	0.66884	-0.338
Mof_O 	O 	0.66383	0.21932	0.59811	-0.485
Mof_O 	O 	0.60648	0.23139	0.6538	-0.367
Mof_O 	O 	0.6933	0.09245	0.81863	-0.485
Mof_O 	O 	0.63278	0.14879	0.8118	-0.33
Mof_O 	O 	0.94834	0.98876	0.55515	-0.768
Mof_O 	O 	0.84957	0.01426	0.57966	-0.721
Mof_O 	O 	0.93663	0.03595	0.47068	-0.713
Mof_O 	O 	0.83867	0.0566	0.495	-0.642
Mof_O 	O 	0.9493	0.92863	0.63083	-0.677
Mof_O 	O 	0.85275	0.95501	0.65683	-0.481
Mof_O 	O 	0.88292	0.85584	0.64953	-0.641
Mof_O 	O 	0.91844	0.8108	0.57038	-0.789
Mof_O 	O 	0.97719	0.87574	0.55374	-0.793
Mof_O 	O 	0.98914	0.84676	0.46248	-0.674
Mof_O 	O 	0.92316	0.7728	0.48147	-0.648
Mof_O 	O 	0.97074	0.94288	0.46	-0.766
Mof_O 	O 	0.89297	0.92391	0.39386	-0.717
Mof_O 	O 	0.9151	0.82606	0.39553	-0.473
Mof_O 	O 	0.85892	0.01464	0.4078	-0.649
Mof_O 	O 	0.76368	0.99206	0.50195	-0.777
Mof_O 	O 	0.78092	0.95474	0.42468	-0.776
Mof_O 	O 	0.73054	0.87279	0.4452	-0.643
Mof_O 	O 	0.70976	0.91419	0.53266	-0.649
Mof_O 	O 	0.81897	0.84246	0.41544	-0.715
Mof_O 	O 	0.82782	0.7852	0.50261	-0.717
Mof_O 	O 	0.73494	0.81568	0.52837	-0.503
Mof_O 	O 	0.77433	0.933	0.60133	-0.725
Mof_O 	O 	0.80415	0.83147	0.59736	-0.721
Mof_C 	C 	0.71448	0.09224	0.66952	-0.143
Mof_C 	C 	0.69261	0.13018	0.64281	0.057
Mof_H 	H 	0.6983	0.1321	0.6092	0.013
Mof_C 	C 	0.6626	0.16513	0.665	-0.148
Mof_C 	C 	0.65244	0.1607	0.71394	0.05
Mof_H 	H 	0.6296	0.1827	0.7287	0.015
Mof_C 	C 	0.6756	0.12409	0.74146	-0.142
Mof_C 	C 	0.70738	0.09076	0.71923	0.051
Mof_H 	H 	0.7244	0.0668	0.738	0.014
Mof_C 	C 	0.74561	0.05335	0.64537	0.325
Mof_C 	C 	0.6411	0.20836	0.63797	0.345
Mof_C 	C 	0.66571	0.12203	0.79459	0.328
Mof_Mo	Mo	0.60071	0.96297	0.03322	1.004
Mof_Mo	Mo	0.59319	0.01417	0.11279	1.004
Mof_Mo	Mo	0.55952	0.1362	0.11562	1.323
Mof_Mo	Mo	0.53542	0.18576	0.0146	1.306
Mof_Mo	Mo	0.54685	0.11027	0.91561	1.008
Mof_Mo	Mo	0.57449	0.01719	0.92096	0.989
Mof_Mo	Mo	0.69293	0.98015	0.94905	1.282
Mof_Mo	Mo	0.77109	0.06581	0.97266	1.298
Mof_Mo	Mo	0.72535	0.1835	0.96488	0.987
Mof_Mo	Mo	0.63509	0.20681	0.9422	1.001
Mof_Mo	Mo	0.75382	0.12938	0.07855	1.012
Mof_Mo	Mo	0.68169	0.11074	0.13788	1.017
Mof_Zn	Zn	0.50528	0.05948	0.02701	1.201
Mof_Zn	Zn	0.64737	0.21709	0.07045	1.222
Mof_Zn	Zn	0.67837	0.09015	0.88677	1.222
Mof_Zn	Zn	0.721	0.00155	0.06999	1.224
Mof_O 	O 	0.7584	0.9479	0.09892	-0.479
Mof_O 	O 	0.72804	0.97477	0.16884	-0.339
Mof_O 	O 	0.83617	0.78068	0.09811	-0.485
Mof_O 	O 	0.89352	0.76861	0.1538	-0.367
Mof_O 	O 	0.8067	0.90755	0.31863	-0.485
Mof_O 	O 	0.86722	0.85121	0.3118	-0.33
Mof_O 	O 	0.55166	0.01124	0.05515	-0.768
Mof_O 	O 	0.65043	0.98574	0.07966	-0.722
Mof_O 	O 	0.56337	0.96405	0.97068	-0.713
Mof_O 	O 	0.66133	0.9434	0.995	-0.642
Mof_O 	O 	0.5507	0.07137	0.13083	-0.677
Mof_O 	O 	0.64725	0.04499	0.15683	-0.481
Mof_O 	O 	0.61708	0.14416	0.14953	-0.641
Mof_O 	O 	0.58156	0.1892	0.07038	-0.789
Mof_O 	O 	0.52281	0.12426	0.05374	-0.793
Mof_O 	O 	0.51086	0.15324	0.96248	-0.674
Mof_O 	O 	0.57684	0.2272	0.98147	-0.648
Mof_O 	O 	0.52926	0.05712	0.96	-0.766
Mof_O 	O 	0.60703	0.07609	0.89386	-0.717
Mof_O 	O 	0.5849	0.17394	0.89553	-0.473
Mof_O 	O 	0.64108	0.98536	0.9078	-0.65
Mof_O 	O 	0.73632	0.00794	0.00195	-0.777
Mof_O 	O 	0.71908	0.04526	0.92468	-0.776
Mof_O 	O 	0.76946	0.12721	0.9452	-0.643
Mof_O 	O 	0.79024	0.08581	0.03266	-0.649
Mof_O 	O 	0.68103	0.15754	0.91544	-0.715
Mof_O 	O 	0.67218	0.2148	0.00261	-0.717
Mof_O 	O 	0.76506	0.18432	0.02837	-0.503
Mof_O 	O 	0.72567	0.067	0.10133	-0.724
Mof_O 	O 	0.69585	0.16853	0.09736	-0.721
Mof_C 	C 	0.78552	0.90776	0.16952	-0.143
Mof_C 	C 	0.80739	0.86982	0.14281	0.057
Mof_H 	H 	0.8017	0.8679	0.1092	0.013
Mof_C 	C 	0.8374	0.83487	0.165	-0.148
Mof_C 	C 	0.84756	0.8393	0.21394	0.05
Mof_H 	H 	0.8704	0.8173	0.2287	0.015
Mof_C 	C 	0.8244	0.87591	0.24146	-0.142
Mof_C 	C 	0.79262	0.90924	0.21923	0.051
Mof_H 	H 	0.7756	0.9332	0.238	0.013
Mof_C 	C 	0.75439	0.94665	0.14537	0.325
Mof_C 	C 	0.8589	0.79164	0.13797	0.345
Mof_C 	C 	0.83429	0.87797	0.29459	0.328
_end
