data_functionalizedCrystal
_audit_creation_method	'EQeq! by Chris Wilmer'
_symmetry_space_group_name_H-M	'P1'
_symmetry_Int_Tables_number	1
_symmetry_cell_setting	triclinic
loop_
_symmetry_equiv_pos_as_xyz
  x,y,z
_cell_length_a	9.316
_cell_length_b	11.917
_cell_length_c	25.515
_cell_angle_alpha	90
_cell_angle_beta	94.663
_cell_angle_gamma	90
loop_
_atom_site_label
_atom_site_type_symbol
_atom_site_fract_x
_atom_site_fract_y
_atom_site_fract_z
_atom_site_charge
Mof_Mn	Mn	0.55567	0.91943	0.97874	0.755
Mof_Mn	Mn	0.07356	0.60055	0.29405	0.769
Mof_Mn	Mn	0.55567	0.08057	0.47874	0.766
Mof_Mn	Mn	0.07356	0.39945	0.79405	0.769
Mof_H 	H 	0.3811	0.3122	0.0079	0.072
Mof_H 	H 	0.5224	0.4527	0.0505	0.046
Mof_H 	H 	0.7604	0.4813	0.0262	0.064
Mof_H 	H 	0.7063	0.2367	0.9166	0.066
Mof_H 	H 	0.9144	0.2542	0.0477	0.065
Mof_H 	H 	0.9457	0.2356	0.1391	0.056
Mof_H 	H 	0.0585	0.3702	0.1913	0.057
Mof_H 	H 	0.1554	0.5402	0.0597	0.062
Mof_H 	H 	0.3681	0.562	0.957	0.07
Mof_H 	H 	0.577	0.6207	0.918	0.02
Mof_H 	H 	0.5795	0.593	0.8231	0.104
Mof_H 	H 	0.3918	0.5033	0.778	0.026
Mof_H 	H 	0.8793	0.9748	0.5083	0.022
Mof_H 	H 	0.0826	0.9214	0.4688	0.09
Mof_H 	H 	0.0827	0.9252	0.3769	0.041
Mof_H 	H 	0.8823	0.0061	0.3268	0.073
Mof_H 	H 	0.2394	0.0042	0.2407	0.037
Mof_H 	H 	0.0018	0.0218	0.204	0.093
Mof_H 	H 	0.8564	0.1633	0.2302	0.014
Mof_H 	H 	0.1703	0.2766	0.3333	0.033
Mof_H 	H 	0.6326	0.9956	0.2145	0.064
Mof_H 	H 	0.5189	0.1779	0.0819	0.052
Mof_H 	H 	0.3993	0.3056	0.1333	0.059
Mof_H 	H 	0.377	0.2776	0.222	0.061
Mof_H 	H 	0.3811	0.6878	0.5079	0.049
Mof_H 	H 	0.5224	0.5473	0.5505	0.054
Mof_H 	H 	0.7604	0.5187	0.5262	0.062
Mof_H 	H 	0.7063	0.7633	0.4166	0.064
Mof_H 	H 	0.9144	0.7458	0.5477	0.059
Mof_H 	H 	0.9457	0.7644	0.6391	0.058
Mof_H 	H 	0.0585	0.6298	0.6913	0.055
Mof_H 	H 	0.1554	0.4598	0.5597	0.056
Mof_H 	H 	0.3681	0.438	0.457	0.073
Mof_H 	H 	0.577	0.3793	0.418	0.021
Mof_H 	H 	0.5795	0.407	0.3231	0.104
Mof_H 	H 	0.3918	0.4967	0.278	0.026
Mof_H 	H 	0.8793	0.0252	0.0083	0.036
Mof_H 	H 	0.0826	0.0786	0.9688	0.082
Mof_H 	H 	0.0827	0.0748	0.8769	0.044
Mof_H 	H 	0.8823	0.9939	0.8268	0.072
Mof_H 	H 	0.2394	0.9958	0.7407	0.037
Mof_H 	H 	0.0018	0.9782	0.704	0.093
Mof_H 	H 	0.8564	0.8367	0.7302	0.014
Mof_H 	H 	0.1703	0.7234	0.8333	0.033
Mof_H 	H 	0.6326	0.0044	0.7145	0.063
Mof_H 	H 	0.5189	0.8221	0.5819	0.05
Mof_H 	H 	0.3993	0.6944	0.6333	0.059
Mof_H 	H 	0.377	0.7224	0.722	0.061
Mof_C 	C 	0.5252	0.2659	0.956	-0.05
Mof_C 	C 	0.4747	0.327	0.9974	-0.054
Mof_C 	C 	0.5588	0.4092	0.0234	-0.011
Mof_C 	C 	0.701	0.4265	0.0083	-0.051
Mof_C 	C 	0.7541	0.366	0.9685	0.008
Mof_C 	C 	0.6683	0.2821	0.9427	-0.037
Mof_C 	C 	0.8977	0.3843	0.9519	0.055
Mof_C 	C 	0.0219	0.4132	0.9865	0.018
Mof_C 	C 	0.0303	0.4004	0.0441	0.008
Mof_C 	C 	0.9675	0.3089	0.0682	-0.043
Mof_C 	C 	0.9844	0.2996	0.1231	-0.004
Mof_C 	C 	0.0533	0.3774	0.1541	-0.037
Mof_C 	C 	0.1185	0.471	0.1302	-0.073
Mof_C 	C 	0.1088	0.4799	0.0757	-0.027
Mof_C 	C 	0.1399	0.4528	0.9135	0.096
Mof_C 	C 	0.2679	0.4972	0.8892	0.069
Mof_C 	C 	0.3772	0.5505	0.9206	-0.109
Mof_C 	C 	0.4987	0.5862	0.8979	0.041
Mof_C 	C 	0.5002	0.5678	0.8412	-0.117
Mof_C 	C 	0.388	0.5149	0.8147	0.082
Mof_C 	C 	0.8792	0.9804	0.4712	0.087
Mof_C 	C 	0.0004	0.9474	0.4479	-0.126
Mof_C 	C 	0.0021	0.9525	0.3936	0.013
Mof_C 	C 	0.8832	0.9984	0.3638	-0.074
Mof_C 	C 	0.7671	0.032	0.3908	0.063
Mof_C 	C 	0.6362	0.077	0.3618	0.106
Mof_C 	C 	0.5067	0.1137	0.2847	0.052
Mof_C 	C 	0.3824	0.1312	0.3136	0.054
Mof_C 	C 	0.237	0.1439	0.2904	-0.035
Mof_C 	C 	0.1804	0.0635	0.2515	0.012
Mof_C 	C 	0.0386	0.0738	0.2299	-0.15
Mof_C 	C 	0.9524	0.1574	0.2456	0.122
Mof_C 	C 	0.0007	0.2323	0.2827	-0.177
Mof_C 	C 	0.1398	0.2254	0.3062	0.037
Mof_C 	C 	0.5042	0.1301	0.2266	0.019
Mof_C 	C 	0.5822	0.057	0.1979	-0.027
Mof_C 	C 	0.5851	0.0763	0.143	-0.066
Mof_C 	C 	0.5167	0.1663	0.1187	-0.008
Mof_C 	C 	0.4429	0.2413	0.1498	-0.031
Mof_C 	C 	0.4306	0.2271	0.2023	-0.041
Mof_C 	C 	0.5252	0.7341	0.456	-0.063
Mof_C 	C 	0.4747	0.673	0.4974	-0.01
Mof_C 	C 	0.5588	0.5908	0.5234	-0.041
Mof_C 	C 	0.701	0.5735	0.5083	-0.054
Mof_C 	C 	0.7541	0.634	0.4685	0.016
Mof_C 	C 	0.6683	0.7179	0.4427	-0.032
Mof_C 	C 	0.8977	0.6157	0.4519	0.052
Mof_C 	C 	0.0219	0.5868	0.4865	0.032
Mof_C 	C 	0.0303	0.5996	0.5441	-0.008
Mof_C 	C 	0.9675	0.6911	0.5682	-0.034
Mof_C 	C 	0.9844	0.7004	0.6231	-0.012
Mof_C 	C 	0.0533	0.6226	0.6541	-0.031
Mof_C 	C 	0.1185	0.529	0.6302	-0.078
Mof_C 	C 	0.1088	0.5201	0.5757	-0.019
Mof_C 	C 	0.1399	0.5472	0.4135	0.097
Mof_C 	C 	0.2679	0.5028	0.3892	0.069
Mof_C 	C 	0.3772	0.4495	0.4206	-0.109
Mof_C 	C 	0.4987	0.4138	0.3979	0.042
Mof_C 	C 	0.5002	0.4322	0.3412	-0.118
Mof_C 	C 	0.388	0.4851	0.3147	0.082
Mof_C 	C 	0.8792	0.0196	0.9712	0.063
Mof_C 	C 	0.0004	0.0526	0.9479	-0.112
Mof_C 	C 	0.0021	0.0475	0.8936	0.004
Mof_C 	C 	0.8832	0.0016	0.8638	-0.07
Mof_C 	C 	0.7671	0.968	0.8908	0.06
Mof_C 	C 	0.6362	0.923	0.8618	0.106
Mof_C 	C 	0.5067	0.8863	0.7847	0.052
Mof_C 	C 	0.3824	0.8688	0.8136	0.054
Mof_C 	C 	0.237	0.8561	0.7904	-0.035
Mof_C 	C 	0.1804	0.9365	0.7515	0.012
Mof_C 	C 	0.0386	0.9262	0.7299	-0.15
Mof_C 	C 	0.9524	0.8426	0.7456	0.122
Mof_C 	C 	0.0007	0.7677	0.7827	-0.177
Mof_C 	C 	0.1398	0.7746	0.8062	0.037
Mof_C 	C 	0.5042	0.8699	0.7266	0.018
Mof_C 	C 	0.5822	0.943	0.6979	-0.026
Mof_C 	C 	0.5851	0.9237	0.643	-0.067
Mof_C 	C 	0.5167	0.8337	0.6187	-0.007
Mof_C 	C 	0.4429	0.7587	0.6498	-0.032
Mof_C 	C 	0.4306	0.7729	0.7023	-0.041
Mof_S 	S 	0.4174	0.1621	0.92317	0.476
Mof_S 	S 	0.2206	0.5671	0.16948	0.542
Mof_S 	S 	0.6873	0.9838	0.10583	0.524
Mof_S 	S 	0.8898	0.3441	0.30183	0.628
Mof_S 	S 	0.4174	0.8379	0.42317	0.482
Mof_S 	S 	0.2206	0.4329	0.66948	0.544
Mof_S 	S 	0.6873	0.0162	0.60583	0.524
Mof_S 	S 	0.8898	0.6559	0.80183	0.628
Mof_N 	N 	0.9124	0.374	0.9006	-0.076
Mof_N 	N 	0.0381	0.4019	0.8812	-0.148
Mof_N 	N 	0.14	0.4538	0.9665	-0.121
Mof_N 	N 	0.2723	0.4779	0.8371	-0.178
Mof_N 	N 	0.5307	0.1147	0.3911	-0.146
Mof_N 	N 	0.3998	0.1395	0.3651	-0.088
Mof_N 	N 	0.6288	0.0835	0.3091	-0.119
Mof_N 	N 	0.7587	0.0207	0.4433	-0.178
Mof_N 	N 	0.9124	0.626	0.4006	-0.075
Mof_N 	N 	0.0381	0.5981	0.3812	-0.148
Mof_N 	N 	0.14	0.5462	0.4665	-0.121
Mof_N 	N 	0.2723	0.5221	0.3371	-0.179
Mof_N 	N 	0.5307	0.8853	0.8911	-0.146
Mof_N 	N 	0.3998	0.8605	0.8651	-0.088
Mof_N 	N 	0.6288	0.9165	0.8091	-0.119
Mof_N 	N 	0.7587	0.9793	0.9433	-0.175
Mof_O 	O 	0.4196	0.067	0.9597	-0.337
Mof_O 	O 	0.2714	0.2116	0.9142	-0.255
Mof_O 	O 	0.4813	0.1353	0.8748	-0.253
Mof_O 	O 	0.1617	0.5691	0.2195	-0.37
Mof_O 	O 	0.2023	0.6717	0.1427	-0.267
Mof_O 	O 	0.3668	0.5238	0.1744	-0.259
Mof_O 	O 	0.8852	0.3366	0.3552	-0.298
Mof_O 	O 	0.7526	0.3309	0.2715	-0.278
Mof_O 	O 	0.9602	0.444	0.2869	-0.37
Mof_O 	O 	0.6838	0.876	0.1279	-0.266
Mof_O 	O 	0.6178	0.9909	0.0523	-0.363
Mof_O 	O 	0.8353	0.0243	0.1098	-0.257
Mof_O 	O 	0.4196	0.933	0.4597	-0.336
Mof_O 	O 	0.2714	0.7884	0.4142	-0.254
Mof_O 	O 	0.4813	0.8647	0.3748	-0.254
Mof_O 	O 	0.1617	0.4309	0.7195	-0.37
Mof_O 	O 	0.2023	0.3283	0.6427	-0.269
Mof_O 	O 	0.3668	0.4762	0.6744	-0.26
Mof_O 	O 	0.8852	0.6634	0.8552	-0.299
Mof_O 	O 	0.7526	0.6691	0.7715	-0.279
Mof_O 	O 	0.9602	0.556	0.7869	-0.37
Mof_O 	O 	0.6838	0.124	0.6279	-0.268
Mof_O 	O 	0.6178	0.0091	0.5523	-0.37
Mof_O 	O 	0.8353	0.9757	0.6098	-0.258
_end
