data_functionalizedCrystal
_audit_creation_method	'EQeq! by Chris Wilmer'
_symmetry_space_group_name_H-M	'P1'
_symmetry_Int_Tables_number	1
_symmetry_cell_setting	triclinic
loop_
_symmetry_equiv_pos_as_xyz
  x,y,z
_cell_length_a	13.5095
_cell_length_b	14.5356
_cell_length_c	16.2525
_cell_angle_alpha	116.563
_cell_angle_beta	99.0218
_cell_angle_gamma	90
loop_
_atom_site_label
_atom_site_type_symbol
_atom_site_fract_x
_atom_site_fract_y
_atom_site_fract_z
_atom_site_charge
Mof_La	La	0.45671	0.89516	0.36161	1.95
Mof_La	La	0.04329	0.53355	0.63839	1.95
Mof_La	La	0.54329	0.10484	0.63839	1.95
Mof_La	La	0.95671	0.46645	0.36161	1.95
Mof_H 	H 	0.5641	0.6814	0.0542	0.017
Mof_H 	H 	0.6216	0.644	0.9172	0.072
Mof_H 	H 	0.6065	0.9375	0.9652	0.084
Mof_H 	H 	0.5544	0.9766	0.1058	0.024
Mof_H 	H 	0.649	0.685	0.79	0.038
Mof_H 	H 	0.5777	0.8783	0.6788	0.037
Mof_H 	H 	0.7689	0.6788	0.7082	0.052
Mof_H 	H 	0.694	0.6792	0.458	0.017
Mof_H 	H 	0.9359	0.6272	0.9458	0.013
Mof_H 	H 	0.8784	0.7268	0.0828	0.075
Mof_H 	H 	0.8935	0.9723	0.0348	0.088
Mof_H 	H 	0.9456	0.8708	0.8942	0.02
Mof_H 	H 	0.851	0.895	0.21	0.039
Mof_H 	H 	0.9223	0.1995	0.3212	0.037
Mof_H 	H 	0.7311	0.9706	0.2918	0.051
Mof_H 	H 	0.806	0.2212	0.542	0.016
Mof_H 	H 	0.4359	0.3186	0.9458	0.016
Mof_H 	H 	0.3784	0.356	0.0828	0.071
Mof_H 	H 	0.3935	0.0625	0.0348	0.084
Mof_H 	H 	0.4456	0.0234	0.8942	0.024
Mof_H 	H 	0.351	0.315	0.21	0.038
Mof_H 	H 	0.4223	0.1217	0.3212	0.037
Mof_H 	H 	0.2311	0.3212	0.2918	0.052
Mof_H 	H 	0.306	0.3208	0.542	0.017
Mof_H 	H 	0.0641	0.3728	0.0542	0.013
Mof_H 	H 	0.1216	0.2732	0.9172	0.075
Mof_H 	H 	0.1065	0.0277	0.9652	0.088
Mof_H 	H 	0.0544	0.1292	0.1058	0.02
Mof_H 	H 	0.149	0.105	0.79	0.039
Mof_H 	H 	0.0777	0.8005	0.6788	0.037
Mof_H 	H 	0.2689	0.0294	0.7082	0.051
Mof_H 	H 	0.194	0.7788	0.458	0.016
Mof_C 	C 	0.5194	0.85979	0.18598	0.334
Mof_C 	C 	0.5553	0.8344	0.0958	-0.121
Mof_C 	C 	0.574	0.7336	0.0374	0.048
Mof_C 	C 	0.6072	0.711	0.9548	-0.142
Mof_C 	C 	0.6191	0.787	0.9278	0.087
Mof_C 	C 	0.5991	0.8861	0.9834	-0.136
Mof_C 	C 	0.5675	0.9093	0.0678	0.048
Mof_C 	C 	0.6438	0.7563	0.834	-0.021
Mof_C 	C 	0.5694	0.82571	0.49762	0.398
Mof_C 	C 	0.6264	0.78426	0.55892	-0.132
Mof_C 	C 	0.6168	0.82337	0.65254	-0.03
Mof_C 	C 	0.667	0.77909	0.70678	0.047
Mof_C 	C 	0.7324	0.70424	0.67048	-0.025
Mof_C 	C 	0.7441	0.66639	0.57658	-0.138
Mof_C 	C 	0.6889	0.70568	0.52076	0.058
Mof_C 	C 	0.8157	0.58614	0.53888	0.454
Mof_C 	C 	0.9806	0.67381	0.81402	0.338
Mof_C 	C 	0.9447	0.7386	0.9042	-0.129
Mof_C 	C 	0.926	0.6962	0.9626	0.06
Mof_C 	C 	0.8928	0.7562	0.0452	-0.155
Mof_C 	C 	0.8809	0.8592	0.0722	0.096
Mof_C 	C 	0.9009	0.9027	0.0166	-0.149
Mof_C 	C 	0.9325	0.8415	0.9322	0.061
Mof_C 	C 	0.8562	0.9223	0.166	-0.027
Mof_C 	C 	0.9306	0.32809	0.50238	0.399
Mof_C 	C 	0.8736	0.22534	0.44108	-0.132
Mof_C 	C 	0.8832	0.17083	0.34746	-0.029
Mof_C 	C 	0.833	0.07231	0.29322	0.046
Mof_C 	C 	0.7676	0.03376	0.32952	-0.023
Mof_C 	C 	0.7559	0.08981	0.42342	-0.14
Mof_C 	C 	0.8111	0.18492	0.47924	0.059
Mof_C 	C 	0.6843	0.04726	0.46112	0.455
Mof_C 	C 	0.4806	0.14021	0.81402	0.334
Mof_C 	C 	0.4447	0.1656	0.9042	-0.121
Mof_C 	C 	0.426	0.2664	0.9626	0.048
Mof_C 	C 	0.3928	0.289	0.0452	-0.142
Mof_C 	C 	0.3809	0.213	0.0722	0.087
Mof_C 	C 	0.4009	0.1139	0.0166	-0.136
Mof_C 	C 	0.4325	0.0907	0.9322	0.048
Mof_C 	C 	0.3562	0.2437	0.166	-0.021
Mof_C 	C 	0.4306	0.17429	0.50238	0.398
Mof_C 	C 	0.3736	0.21574	0.44108	-0.132
Mof_C 	C 	0.3832	0.17663	0.34746	-0.03
Mof_C 	C 	0.333	0.22091	0.29322	0.047
Mof_C 	C 	0.2676	0.29576	0.32952	-0.025
Mof_C 	C 	0.2559	0.33361	0.42342	-0.138
Mof_C 	C 	0.3111	0.29432	0.47924	0.058
Mof_C 	C 	0.1843	0.41386	0.46112	0.454
Mof_C 	C 	0.0194	0.32619	0.18598	0.338
Mof_C 	C 	0.0553	0.2614	0.0958	-0.129
Mof_C 	C 	0.074	0.3038	0.0374	0.06
Mof_C 	C 	0.1072	0.2438	0.9548	-0.155
Mof_C 	C 	0.1191	0.1408	0.9278	0.096
Mof_C 	C 	0.0991	0.0973	0.9834	-0.149
Mof_C 	C 	0.0675	0.1585	0.0678	0.061
Mof_C 	C 	0.1438	0.0777	0.834	-0.027
Mof_C 	C 	0.0694	0.67191	0.49762	0.399
Mof_C 	C 	0.1264	0.77466	0.55892	-0.132
Mof_C 	C 	0.1168	0.82917	0.65254	-0.029
Mof_C 	C 	0.167	0.92769	0.70678	0.046
Mof_C 	C 	0.2324	0.96624	0.67048	-0.023
Mof_C 	C 	0.2441	0.91019	0.57658	-0.14
Mof_C 	C 	0.1889	0.81508	0.52076	0.059
Mof_C 	C 	0.3157	0.95274	0.53888	0.455
Mof_N 	N 	0.6487	0.81828	0.80016	-0.114
Mof_N 	N 	0.8513	0.01812	0.19984	-0.112
Mof_N 	N 	0.3513	0.18172	0.19984	-0.114
Mof_N 	N 	0.1487	0.98188	0.80016	-0.112
Mof_O 	O 	0.512	0.78723	0.20766	-0.453
Mof_O 	O 	0.4985	0.94885	0.2357	-0.419
Mof_O 	O 	0.5538	0.77249	0.41158	-0.458
Mof_O 	O 	0.5373	0.9163	0.5364	-0.57
Mof_O 	O 	0.8652	0.5572	0.5942	-0.484
Mof_O 	O 	0.8232	0.55282	0.45444	-0.521
Mof_O 	O 	0.988	0.57957	0.79234	-0.453
Mof_O 	O 	0.0015	0.71315	0.7643	-0.42
Mof_O 	O 	0.9462	0.36091	0.58842	-0.458
Mof_O 	O 	0.9627	0.3799	0.4636	-0.57
Mof_O 	O 	0.6348	0.963	0.4058	-0.485
Mof_O 	O 	0.6768	0.09838	0.54556	-0.521
Mof_O 	O 	0.488	0.21277	0.79234	-0.453
Mof_O 	O 	0.5015	0.05115	0.7643	-0.419
Mof_O 	O 	0.4462	0.22751	0.58842	-0.458
Mof_O 	O 	0.4627	0.0837	0.4636	-0.57
Mof_O 	O 	0.1348	0.4428	0.4058	-0.484
Mof_O 	O 	0.1768	0.44718	0.54556	-0.521
Mof_O 	O 	0.012	0.42043	0.20766	-0.453
Mof_O 	O 	0.9985	0.28685	0.2357	-0.42
Mof_O 	O 	0.0538	0.63909	0.41158	-0.458
Mof_O 	O 	0.0373	0.6201	0.5364	-0.57
Mof_O 	O 	0.3652	0.037	0.5942	-0.485
Mof_O 	O 	0.3232	0.90162	0.45444	-0.521
_end
