# CIF file generated by openbabel 3.1.0, see https://openbabel.org
data_I
_chemical_name_common 'image0'
_cell_length_a 10.4819
_cell_length_b 12.4239
_cell_length_c 19.8043
_cell_angle_alpha 75.2285
_cell_angle_beta 81.2767
_cell_angle_gamma 82.9364
_space_group_name_H-M_alt 'P 1'
_space_group_name_Hall 'P 1'
loop_
    _symmetry_equiv_pos_as_xyz
    x,y,z
loop_
    _atom_site_label
    _atom_site_type_symbol
    _atom_site_fract_x
    _atom_site_fract_y
    _atom_site_fract_z
    _atom_site_occupancy
    Zn1      Zn       0.31217    0.86935    0.15284    1.000
    Zn2      Zn       0.35968    0.88580    0.66933    1.000
    O1       O        0.26900    0.77050    0.09905    1.000
    O2       O        0.17650    0.85660    0.23329    1.000
    O3       O        0.38220    0.87240    0.00537    1.000
    O4       O        0.27070    0.68700    0.27704    1.000
    C1       C        0.18140    0.76050    0.27753    1.000
    C2       C        0.59030    0.90990    0.14010    1.000
    H1       H        0.58420    0.96420    0.09830    1.000
    N1       N        0.26800    0.03360    0.11163    1.000
    N2       N        0.31680    0.82140    0.59439    1.000
    N3       N        0.49440    0.85190    0.17547    1.000
    N4       N        0.28030    0.20590    0.04870    1.000
    C3       C        0.30740    0.79940    0.03311    1.000
    N5       N        0.69780    0.88090    0.17178    1.000
    C4       C        0.25260    0.73970    0.98815    1.000
    O5       O        0.34820    0.81120    0.76905    1.000
    N6       N        0.94790    0.52410    0.48960    1.000
    C5       C        0.06470    0.64350    0.38510    1.000
    H2       H        0.13470    0.58950    0.38580    1.000
    C6       C        0.33410    0.10130    0.05900    1.000
    H3       H        0.40880    0.07850    0.03250    1.000
    N7       N        0.04330    0.51110    0.01500    1.000
    C7       C        0.82360    0.92750    0.14610    1.000
    H4       H        0.88980    0.88110    0.17240    1.000
    H5       H        0.81890    0.00180    0.15400    1.000
    C8       C        0.17360    0.65340    0.01960    1.000
    H6       H        0.15790    0.63020    0.06830    1.000
    C9       C        0.27880    0.77130    0.91531    1.000
    H7       H        0.33470    0.82650    0.89440    1.000
    C10      C        0.86090    0.93330    0.06850    1.000
    H8       H        0.79090    0.97370    0.04290    1.000
    H9       H        0.87340    0.85820    0.06130    1.000
    C11      C        0.14110    0.63620    0.90490    1.000
    H10      H        0.10270    0.60270    0.87700    1.000
    C12      C        0.24580    0.76210    0.79350    1.000
    C13      C        0.95760    0.62600    0.43580    1.000
    C14      C        0.11840    0.60220    0.97770    1.000
    C15      C        0.46730    0.46590    0.98190    1.000
    H11      H        0.53210    0.43360    0.95050    1.000
    H12      H        0.40570    0.51500    0.95360    1.000
    C16      C        0.98480    0.99140    0.03970    1.000
    H13      H        0.97550    0.06340    0.05140    1.000
    H14      H        0.05660    0.94680    0.06190    1.000
    N8       N        0.32590    0.77450    0.49460    1.000
    C17      C        0.33380    0.30320    0.99770    1.000
    H15      H        0.26490    0.34910    0.97350    1.000
    H16      H        0.39750    0.27780    0.96290    1.000
    C18      C        0.39670    0.37240    0.03410    1.000
    H17      H        0.45790    0.32410    0.06300    1.000
    H18      H        0.33070    0.40480    0.06490    1.000
    C19      C        0.06590    0.74300    0.33306    1.000
    C20      C        0.22270    0.72180    0.87360    1.000
    C21      C        0.85320    0.80480    0.38300    1.000
    C22      C        0.85130    0.70580    0.43490    1.000
    H19      H        0.77960    0.69270    0.46900    1.000
    C23      C        0.17250    0.20740    0.09730    1.000
    H20      H        0.11550    0.26910    0.10260    1.000
    C24      C        0.38760    0.82010    0.53320    1.000
    H21      H        0.46880    0.84700    0.51920    1.000
    O6       O        0.16490    0.74750    0.75870    1.000
    C25      C        0.54130    0.78590    0.23410    1.000
    H22      H        0.49450    0.73620    0.26960    1.000
    C26      C        0.66630    0.80370    0.23270    1.000
    H23      H        0.72030    0.76980    0.26680    1.000
    C27      C        0.20370    0.77610    0.59360    1.000
    H24      H        0.13540    0.76630    0.62990    1.000
    O7       O        0.07480    0.46090    0.07940    1.000
    C28      C        0.38490    0.74530    0.42760    1.000
    H25      H        0.46630    0.77880    0.41150    1.000
    H26      H        0.32750    0.77540    0.39190    1.000
    C29      C        0.48940    0.56190    0.49490    1.000
    H27      H        0.57300    0.59230    0.48430    1.000
    H28      H        0.44770    0.57830    0.53880    1.000
    C30      C        0.20800    0.74860    0.53270    1.000
    H29      H        0.14330    0.71760    0.51840    1.000
    C31      C        0.40850    0.62000    0.43760    1.000
    H30      H        0.32540    0.58860    0.44780    1.000
    H31      H        0.45090    0.60430    0.39360    1.000
    O8       O        0.83330    0.49400    0.50190    1.000
    C32      C        0.96100    0.82290    0.33240    1.000
    H32      H        0.96270    0.88940    0.29770    1.000
    C33      C        0.16540    0.10020    0.13640    1.000
    H33      H        0.10190    0.07580    0.17360    1.000
    O9       O        0.64750    0.87720    0.42710    1.000
    C34      C        0.73990    0.89160    0.38160    1.000
    O10      O        0.75040    0.97730    0.33001    1.000
    Zn3      Zn       0.68783    0.13065    0.84716    1.000
    Zn4      Zn       0.64032    0.11420    0.33067    1.000
    O11      O        0.73100    0.22950    0.90095    1.000
    O12      O        0.82350    0.14340    0.76671    1.000
    O13      O        0.61780    0.12760    0.99463    1.000
    O14      O        0.72930    0.31300    0.72296    1.000
    C35      C        0.81860    0.23950    0.72247    1.000
    C36      C        0.40970    0.09010    0.85990    1.000
    H34      H        0.41580    0.03580    0.90170    1.000
    N9       N        0.73200    0.96640    0.88837    1.000
    N10      N        0.68320    0.17860    0.40561    1.000
    N11      N        0.50560    0.14810    0.82453    1.000
    N12      N        0.71970    0.79410    0.95130    1.000
    C37      C        0.69260    0.20060    0.96689    1.000
    N13      N        0.30220    0.11910    0.82822    1.000
    C38      C        0.74740    0.26030    0.01185    1.000
    O15      O        0.65180    0.18880    0.23095    1.000
    N14      N        0.05210    0.47590    0.51040    1.000
    C39      C        0.93530    0.35650    0.61490    1.000
    H35      H        0.86530    0.41050    0.61420    1.000
    C40      C        0.66590    0.89870    0.94100    1.000
    H36      H        0.59120    0.92150    0.96750    1.000
    N15      N        0.95670    0.48890    0.98500    1.000
    C41      C        0.17640    0.07250    0.85390    1.000
    H37      H        0.11020    0.11890    0.82760    1.000
    H38      H        0.18110    0.99820    0.84600    1.000
    C42      C        0.82640    0.34660    0.98040    1.000
    H39      H        0.84210    0.36980    0.93170    1.000
    C43      C        0.72120    0.22870    0.08469    1.000
    H40      H        0.66530    0.17350    0.10560    1.000
    C44      C        0.13910    0.06670    0.93150    1.000
    H41      H        0.20910    0.02630    0.95710    1.000
    H42      H        0.12660    0.14180    0.93870    1.000
    C45      C        0.85890    0.36380    0.09510    1.000
    H43      H        0.89730    0.39730    0.12300    1.000
    C46      C        0.75420    0.23790    0.20650    1.000
    C47      C        0.04240    0.37400    0.56420    1.000
    C48      C        0.88160    0.39780    0.02230    1.000
    C49      C        0.53270    0.53410    0.01810    1.000
    H44      H        0.46790    0.56640    0.04950    1.000
    H45      H        0.59430    0.48500    0.04640    1.000
    C50      C        0.01520    0.00860    0.96030    1.000
    H46      H        0.02450    0.93660    0.94860    1.000
    H47      H        0.94340    0.05320    0.93810    1.000
    N16      N        0.67410    0.22550    0.50540    1.000
    C51      C        0.66620    0.69680    0.00230    1.000
    H48      H        0.73510    0.65090    0.02650    1.000
    H49      H        0.60250    0.72220    0.03710    1.000
    C52      C        0.60330    0.62760    0.96590    1.000
    H50      H        0.54210    0.67590    0.93700    1.000
    H51      H        0.66930    0.59520    0.93510    1.000
    C53      C        0.93410    0.25700    0.66694    1.000
    C54      C        0.77730    0.27820    0.12640    1.000
    C55      C        0.14680    0.19520    0.61700    1.000
    C56      C        0.14870    0.29420    0.56510    1.000
    H52      H        0.22040    0.30730    0.53100    1.000
    C57      C        0.82750    0.79260    0.90270    1.000
    H53      H        0.88450    0.73090    0.89740    1.000
    C58      C        0.61240    0.17990    0.46680    1.000
    H54      H        0.53120    0.15300    0.48080    1.000
    O16      O        0.83510    0.25250    0.24130    1.000
    C59      C        0.45870    0.21410    0.76590    1.000
    H55      H        0.50550    0.26380    0.73040    1.000
    C60      C        0.33370    0.19630    0.76730    1.000
    H56      H        0.27970    0.23020    0.73320    1.000
    C61      C        0.79630    0.22390    0.40640    1.000
    H57      H        0.86460    0.23370    0.37010    1.000
    O17      O        0.92520    0.53910    0.92060    1.000
    C62      C        0.61510    0.25470    0.57240    1.000
    H58      H        0.53370    0.22120    0.58850    1.000
    H59      H        0.67250    0.22460    0.60810    1.000
    C63      C        0.51060    0.43810    0.50510    1.000
    H60      H        0.42700    0.40770    0.51570    1.000
    H61      H        0.55230    0.42170    0.46120    1.000
    C64      C        0.79200    0.25140    0.46730    1.000
    H62      H        0.85670    0.28240    0.48160    1.000
    C65      C        0.59150    0.38000    0.56240    1.000
    H63      H        0.67460    0.41140    0.55220    1.000
    H64      H        0.54910    0.39570    0.60640    1.000
    O18      O        0.16670    0.50600    0.49810    1.000
    C66      C        0.03900    0.17710    0.66760    1.000
    H65      H        0.03730    0.11060    0.70230    1.000
    C67      C        0.83460    0.89980    0.86360    1.000
    H66      H        0.89810    0.92420    0.82640    1.000
    O19      O        0.35250    0.12280    0.57290    1.000
    C68      C        0.26010    0.10840    0.61840    1.000
    O20      O        0.24960    0.02270    0.66999    1.000
