# CIF file generated by openbabel 3.1.0, see https://openbabel.org
data_I
_chemical_name_common 'image0'
_cell_length_a 14.849
_cell_length_b 14.849
_cell_length_c 21.806
_cell_angle_alpha 90
_cell_angle_beta 90
_cell_angle_gamma 120
_space_group_name_H-M_alt 'P 1'
_space_group_name_Hall 'P 1'
loop_
    _symmetry_equiv_pos_as_xyz
    x,y,z
loop_
    _atom_site_label
    _atom_site_type_symbol
    _atom_site_fract_x
    _atom_site_fract_y
    _atom_site_fract_z
    _atom_site_occupancy
    I1       I        0.71129    0.18518    0.24093    1.000
    Cu1      Cu       0.86343    0.37898    0.25162    1.000
    Cu2      Cu       0.76036    0.23465    0.11806    1.000
    N1       N        0.95060    0.39030    0.17580    1.000
    N2       N        0.05250    0.45690    0.17120    1.000
    N3       N        0.08240    0.46060    0.11230    1.000
    N4       N        0.91240    0.34820    0.12070    1.000
    N5       N        0.09070    0.40560    0.92170    1.000
    C1       C        0.08510    0.42430    0.98160    1.000
    H1       H        0.14560    0.47240    0.00160    1.000
    C2       C        0.99450    0.39370    0.08240    1.000
    C3       C        0.99130    0.37400    0.01550    1.000
    C4       C        0.00130    0.34150    0.89140    1.000
    H2       H        0.00460    0.32660    0.85040    1.000
    C5       C        0.90370    0.29700    0.92050    1.000
    H3       H        0.84300    0.25830    0.89800    1.000
    C6       C        0.89900    0.31140    0.98320    1.000
    H4       H        0.83530    0.27990    0.00340    1.000
    I2       I        0.81482    0.52611    0.24093    1.000
    Cu3      Cu       0.62102    0.48445    0.25162    1.000
    Cu4      Cu       0.76535    0.52571    0.11806    1.000
    N6       N        0.60970    0.56030    0.17580    1.000
    N7       N        0.54310    0.59560    0.17120    1.000
    N8       N        0.53940    0.62180    0.11230    1.000
    N9       N        0.65180    0.56420    0.12070    1.000
    N10      N        0.59440    0.68510    0.92170    1.000
    C7       C        0.57570    0.66080    0.98160    1.000
    H5       H        0.52760    0.67320    0.00160    1.000
    C8       C        0.60630    0.60080    0.08240    1.000
    C9       C        0.62600    0.61730    0.01550    1.000
    C10      C        0.65850    0.65980    0.89140    1.000
    H6       H        0.67340    0.67800    0.85040    1.000
    C11      C        0.70300    0.60670    0.92050    1.000
    H7       H        0.74170    0.58470    0.89800    1.000
    C12      C        0.68860    0.58760    0.98320    1.000
    H8       H        0.72010    0.55540    0.00340    1.000
    I3       I        0.47389    0.28871    0.24093    1.000
    Cu5      Cu       0.51555    0.13657    0.25162    1.000
    Cu6      Cu       0.47429    0.23964    0.11806    1.000
    N11      N        0.43970    0.04940    0.17580    1.000
    N12      N        0.40440    0.94750    0.17120    1.000
    N13      N        0.37820    0.91760    0.11230    1.000
    N14      N        0.43580    0.08760    0.12070    1.000
    N15      N        0.31490    0.90930    0.92170    1.000
    C13      C        0.33920    0.91490    0.98160    1.000
    H9       H        0.32680    0.85440    0.00160    1.000
    C14      C        0.39920    0.00550    0.08240    1.000
    C15      C        0.38270    0.00870    0.01550    1.000
    C16      C        0.34020    0.99870    0.89140    1.000
    H10      H        0.32200    0.99540    0.85040    1.000
    C17      C        0.39330    0.09630    0.92050    1.000
    H11      H        0.41530    0.15700    0.89800    1.000
    C18      C        0.41240    0.10100    0.98320    1.000
    H12      H        0.44460    0.16470    0.00340    1.000
    I4       I        0.18518    0.71129    0.25907    1.000
    Cu7      Cu       0.37898    0.86343    0.24838    1.000
    Cu8      Cu       0.23465    0.76036    0.38194    1.000
    N16      N        0.39030    0.95060    0.32420    1.000
    N17      N        0.45690    0.05250    0.32880    1.000
    N18      N        0.46060    0.08240    0.38770    1.000
    N19      N        0.34820    0.91240    0.37930    1.000
    N20      N        0.40560    0.09070    0.57830    1.000
    C19      C        0.42430    0.08510    0.51840    1.000
    H13      H        0.47240    0.14560    0.49840    1.000
    C20      C        0.39370    0.99450    0.41760    1.000
    C21      C        0.37400    0.99130    0.48450    1.000
    C22      C        0.34150    0.00130    0.60860    1.000
    H14      H        0.32660    0.00460    0.64960    1.000
    C23      C        0.29700    0.90370    0.57950    1.000
    H15      H        0.25830    0.84300    0.60200    1.000
    C24      C        0.31140    0.89900    0.51680    1.000
    H16      H        0.27990    0.83530    0.49660    1.000
    I5       I        0.52611    0.81482    0.25907    1.000
    Cu9      Cu       0.48445    0.62102    0.24838    1.000
    Cu10     Cu       0.52571    0.76535    0.38194    1.000
    N21      N        0.56030    0.60970    0.32420    1.000
    N22      N        0.59560    0.54310    0.32880    1.000
    N23      N        0.62180    0.53940    0.38770    1.000
    N24      N        0.56420    0.65180    0.37930    1.000
    N25      N        0.68510    0.59440    0.57830    1.000
    C25      C        0.66080    0.57570    0.51840    1.000
    H17      H        0.67320    0.52760    0.49840    1.000
    C26      C        0.60080    0.60630    0.41760    1.000
    C27      C        0.61730    0.62600    0.48450    1.000
    C28      C        0.65980    0.65850    0.60860    1.000
    H18      H        0.67800    0.67340    0.64960    1.000
    C29      C        0.60670    0.70300    0.57950    1.000
    H19      H        0.58470    0.74170    0.60200    1.000
    C30      C        0.58760    0.68860    0.51680    1.000
    H20      H        0.55540    0.72010    0.49660    1.000
    I6       I        0.28871    0.47389    0.25907    1.000
    Cu11     Cu       0.13657    0.51555    0.24838    1.000
    Cu12     Cu       0.23964    0.47429    0.38194    1.000
    N26      N        0.04940    0.43970    0.32420    1.000
    N27      N        0.94750    0.40440    0.32880    1.000
    N28      N        0.91760    0.37820    0.38770    1.000
    N29      N        0.08760    0.43580    0.37930    1.000
    N30      N        0.90930    0.31490    0.57830    1.000
    C31      C        0.91490    0.33920    0.51840    1.000
    H21      H        0.85440    0.32680    0.49840    1.000
    C32      C        0.00550    0.39920    0.41760    1.000
    C33      C        0.00870    0.38270    0.48450    1.000
    C34      C        0.99870    0.34020    0.60860    1.000
    H22      H        0.99540    0.32200    0.64960    1.000
    C35      C        0.09630    0.39330    0.57950    1.000
    H23      H        0.15700    0.41530    0.60200    1.000
    C36      C        0.10100    0.41240    0.51680    1.000
    H24      H        0.16470    0.44460    0.49660    1.000
    I7       I        0.28871    0.81482    0.75907    1.000
    Cu13     Cu       0.13657    0.62102    0.74838    1.000
    Cu14     Cu       0.23964    0.76535    0.88194    1.000
    N31      N        0.04940    0.60970    0.82420    1.000
    N32      N        0.94750    0.54310    0.82880    1.000
    N33      N        0.91760    0.53940    0.88770    1.000
    N34      N        0.08760    0.65180    0.87930    1.000
    N35      N        0.90930    0.59440    0.07830    1.000
    C37      C        0.91490    0.57570    0.01840    1.000
    H25      H        0.85440    0.52760    0.99840    1.000
    C38      C        0.00550    0.60630    0.91760    1.000
    C39      C        0.00870    0.62600    0.98450    1.000
    C40      C        0.99870    0.65850    0.10860    1.000
    H26      H        0.99540    0.67340    0.14960    1.000
    C41      C        0.09630    0.70300    0.07950    1.000
    H27      H        0.15700    0.74170    0.10200    1.000
    C42      C        0.10100    0.68860    0.01680    1.000
    H28      H        0.16470    0.72010    0.99660    1.000
    I8       I        0.18518    0.47389    0.75907    1.000
    Cu15     Cu       0.37898    0.51555    0.74838    1.000
    Cu16     Cu       0.23465    0.47429    0.88194    1.000
    N36      N        0.39030    0.43970    0.82420    1.000
    N37      N        0.45690    0.40440    0.82880    1.000
    N38      N        0.46060    0.37820    0.88770    1.000
    N39      N        0.34820    0.43580    0.87930    1.000
    N40      N        0.40560    0.31490    0.07830    1.000
    C43      C        0.42430    0.33920    0.01840    1.000
    H29      H        0.47240    0.32680    0.99840    1.000
    C44      C        0.39370    0.39920    0.91760    1.000
    C45      C        0.37400    0.38270    0.98450    1.000
    C46      C        0.34150    0.34020    0.10860    1.000
    H30      H        0.32660    0.32200    0.14960    1.000
    C47      C        0.29700    0.39330    0.07950    1.000
    H31      H        0.25830    0.41530    0.10200    1.000
    C48      C        0.31140    0.41240    0.01680    1.000
    H32      H        0.27990    0.44460    0.99660    1.000
    I9       I        0.52611    0.71129    0.75907    1.000
    Cu17     Cu       0.48445    0.86343    0.74838    1.000
    Cu18     Cu       0.52571    0.76036    0.88194    1.000
    N41      N        0.56030    0.95060    0.82420    1.000
    N42      N        0.59560    0.05250    0.82880    1.000
    N43      N        0.62180    0.08240    0.88770    1.000
    N44      N        0.56420    0.91240    0.87930    1.000
    N45      N        0.68510    0.09070    0.07830    1.000
    C49      C        0.66080    0.08510    0.01840    1.000
    H33      H        0.67320    0.14560    0.99840    1.000
    C50      C        0.60080    0.99450    0.91760    1.000
    C51      C        0.61730    0.99130    0.98450    1.000
    C52      C        0.65980    0.00130    0.10860    1.000
    H34      H        0.67800    0.00460    0.14960    1.000
    C53      C        0.60670    0.90370    0.07950    1.000
    H35      H        0.58470    0.84300    0.10200    1.000
    C54      C        0.58760    0.89900    0.01680    1.000
    H36      H        0.55540    0.83530    0.99660    1.000
    I10      I        0.81482    0.28871    0.74093    1.000
    Cu19     Cu       0.62102    0.13657    0.75162    1.000
    Cu20     Cu       0.76535    0.23964    0.61806    1.000
    N46      N        0.60970    0.04940    0.67580    1.000
    N47      N        0.54310    0.94750    0.67120    1.000
    N48      N        0.53940    0.91760    0.61230    1.000
    N49      N        0.65180    0.08760    0.62070    1.000
    N50      N        0.59440    0.90930    0.42170    1.000
    C55      C        0.57570    0.91490    0.48160    1.000
    H37      H        0.52760    0.85440    0.50160    1.000
    C56      C        0.60630    0.00550    0.58240    1.000
    C57      C        0.62600    0.00870    0.51550    1.000
    C58      C        0.65850    0.99870    0.39140    1.000
    H38      H        0.67340    0.99540    0.35040    1.000
    C59      C        0.70300    0.09630    0.42050    1.000
    H39      H        0.74170    0.15700    0.39800    1.000
    C60      C        0.68860    0.10100    0.48320    1.000
    H40      H        0.72010    0.16470    0.50340    1.000
    I11      I        0.47389    0.18518    0.74093    1.000
    Cu21     Cu       0.51555    0.37898    0.75162    1.000
    Cu22     Cu       0.47429    0.23465    0.61806    1.000
    N51      N        0.43970    0.39030    0.67580    1.000
    N52      N        0.40440    0.45690    0.67120    1.000
    N53      N        0.37820    0.46060    0.61230    1.000
    N54      N        0.43580    0.34820    0.62070    1.000
    N55      N        0.31490    0.40560    0.42170    1.000
    C61      C        0.33920    0.42430    0.48160    1.000
    H41      H        0.32680    0.47240    0.50160    1.000
    C62      C        0.39920    0.39370    0.58240    1.000
    C63      C        0.38270    0.37400    0.51550    1.000
    C64      C        0.34020    0.34150    0.39140    1.000
    H42      H        0.32200    0.32660    0.35040    1.000
    C65      C        0.39330    0.29700    0.42050    1.000
    H43      H        0.41530    0.25830    0.39800    1.000
    C66      C        0.41240    0.31140    0.48320    1.000
    H44      H        0.44460    0.27990    0.50340    1.000
    I12      I        0.71129    0.52611    0.74093    1.000
    Cu23     Cu       0.86343    0.48445    0.75162    1.000
    Cu24     Cu       0.76036    0.52571    0.61806    1.000
    N56      N        0.95060    0.56030    0.67580    1.000
    N57      N        0.05250    0.59560    0.67120    1.000
    N58      N        0.08240    0.62180    0.61230    1.000
    N59      N        0.91240    0.56420    0.62070    1.000
    N60      N        0.09070    0.68510    0.42170    1.000
    C67      C        0.08510    0.66080    0.48160    1.000
    H45      H        0.14560    0.67320    0.50160    1.000
    C68      C        0.99450    0.60080    0.58240    1.000
    C69      C        0.99130    0.61730    0.51550    1.000
    C70      C        0.00130    0.65980    0.39140    1.000
    H46      H        0.00460    0.67800    0.35040    1.000
    C71      C        0.90370    0.60670    0.42050    1.000
    H47      H        0.84300    0.58470    0.39800    1.000
    C72      C        0.89900    0.58760    0.48320    1.000
    H48      H        0.83530    0.55540    0.50340    1.000
    I13      I        0.66667    0.33333    0.06988    1.000
    Cu25     Cu       0.66667    0.33333    0.28341    1.000
    I14      I        0.33333    0.66667    0.43012    1.000
    Cu26     Cu       0.33333    0.66667    0.21659    1.000
    I15      I        0.33333    0.66667    0.93012    1.000
    Cu27     Cu       0.33333    0.66667    0.71659    1.000
    I16      I        0.66667    0.33333    0.56988    1.000
    Cu28     Cu       0.66667    0.33333    0.78341    1.000
