data_functionalizedCrystal
_audit_creation_method	'EQeq! by Chris Wilmer'
_symmetry_space_group_name_H-M	'P1'
_symmetry_Int_Tables_number	1
_symmetry_cell_setting	triclinic
loop_
_symmetry_equiv_pos_as_xyz
  x,y,z
_cell_length_a	9.866
_cell_length_b	13.963
_cell_length_c	15.449
_cell_angle_alpha	90
_cell_angle_beta	90
_cell_angle_gamma	90
loop_
_atom_site_label
_atom_site_type_symbol
_atom_site_fract_x
_atom_site_fract_y
_atom_site_fract_z
_atom_site_charge
Mof_Zn	Zn	0.59721	0.90409	0.90228	1.24
Mof_Zn	Zn	0.90279	0.59591	0.40228	1.24
Mof_Zn	Zn	0.40279	0.09591	0.09772	1.24
Mof_Zn	Zn	0.09721	0.40409	0.59772	1.24
Mof_P 	P 	0.38092	0.07091	0.89468	0.422
Mof_P 	P 	0.11908	0.42909	0.39468	0.421
Mof_P 	P 	0.61908	0.92909	0.10532	0.422
Mof_P 	P 	0.88092	0.57091	0.60532	0.421
Mof_H 	H 	0.1231	0.9718	0.9182	0.057
Mof_H 	H 	0.8734	0.0896	0.7421	0.064
Mof_H 	H 	0.2549	0.1861	0.768	0.071
Mof_H 	H 	0.3769	0.5282	0.4182	0.055
Mof_H 	H 	0.6266	0.4104	0.2421	0.063
Mof_H 	H 	0.2451	0.3139	0.268	0.07
Mof_H 	H 	0.8769	0.0282	0.0818	0.057
Mof_H 	H 	0.1266	0.9104	0.2579	0.064
Mof_H 	H 	0.7451	0.8139	0.232	0.071
Mof_H 	H 	0.6231	0.4718	0.5818	0.055
Mof_H 	H 	0.3734	0.5896	0.7579	0.063
Mof_H 	H 	0.7549	0.6861	0.732	0.07
Mof_C 	C 	0.2122	0.0758	0.8481	-0.044
Mof_C 	C 	0.1077	0.0157	0.874	0.008
Mof_C 	C 	0.98	0.0196	0.8352	-0.059
Mof_C 	C 	0.9576	0.0865	0.769	0.023
Mof_C 	C 	0.0612	0.1483	0.7433	-0.062
Mof_C 	C 	0.1869	0.1435	0.7839	0.01
Mof_C 	C 	0.8697	0.9504	0.8616	0.332
Mof_C 	C 	0.042	0.2194	0.6704	0.334
Mof_C 	C 	0.2878	0.4242	0.3481	-0.046
Mof_C 	C 	0.3923	0.4843	0.374	0.013
Mof_C 	C 	0.52	0.4804	0.3352	-0.065
Mof_C 	C 	0.5424	0.4135	0.269	0.023
Mof_C 	C 	0.4388	0.3517	0.2433	-0.062
Mof_C 	C 	0.3131	0.3565	0.2839	0.011
Mof_C 	C 	0.6303	0.5496	0.3616	0.336
Mof_C 	C 	0.458	0.2806	0.1704	0.336
Mof_C 	C 	0.7878	0.9242	0.1519	-0.044
Mof_C 	C 	0.8923	0.9843	0.126	0.008
Mof_C 	C 	0.02	0.9804	0.1648	-0.059
Mof_C 	C 	0.0424	0.9135	0.231	0.023
Mof_C 	C 	0.9388	0.8517	0.2567	-0.062
Mof_C 	C 	0.8131	0.8565	0.2161	0.01
Mof_C 	C 	0.1303	0.0496	0.1384	0.332
Mof_C 	C 	0.958	0.7806	0.3296	0.334
Mof_C 	C 	0.7122	0.5758	0.6519	-0.046
Mof_C 	C 	0.6077	0.5157	0.626	0.013
Mof_C 	C 	0.48	0.5196	0.6648	-0.065
Mof_C 	C 	0.4576	0.5865	0.731	0.023
Mof_C 	C 	0.5612	0.6483	0.7567	-0.062
Mof_C 	C 	0.6869	0.6435	0.7161	0.011
Mof_C 	C 	0.3697	0.4504	0.6384	0.336
Mof_C 	C 	0.542	0.7194	0.8296	0.336
Mof_O 	O 	0.4175	0.96546	0.90741	-0.422
Mof_O 	O 	0.3739	0.12869	0.97823	-0.41
Mof_O 	O 	0.4742	0.11905	0.8291	-0.215
Mof_O 	O 	0.9026	0.8682	0.8803	-0.261
Mof_O 	O 	0.7503	0.9844	0.86213	-0.417
Mof_O 	O 	0.9767	0.1967	0.60579	-0.252
Mof_O 	O 	0.096	0.30112	0.68398	-0.417
Mof_O 	O 	0.0825	0.53454	0.40741	-0.421
Mof_O 	O 	0.1261	0.37131	0.47823	-0.41
Mof_O 	O 	0.0258	0.38095	0.3291	-0.216
Mof_O 	O 	0.5974	0.6318	0.3803	-0.262
Mof_O 	O 	0.7497	0.5156	0.36213	-0.417
Mof_O 	O 	0.5233	0.3033	0.10579	-0.254
Mof_O 	O 	0.404	0.19888	0.18398	-0.417
Mof_O 	O 	0.5825	0.03454	0.09259	-0.422
Mof_O 	O 	0.6261	0.87131	0.02177	-0.41
Mof_O 	O 	0.5258	0.88095	0.1709	-0.215
Mof_O 	O 	0.0974	0.1318	0.1197	-0.261
Mof_O 	O 	0.2497	0.0156	0.13787	-0.417
Mof_O 	O 	0.0233	0.8033	0.39421	-0.252
Mof_O 	O 	0.904	0.69888	0.31602	-0.417
Mof_O 	O 	0.9175	0.46546	0.59259	-0.421
Mof_O 	O 	0.8739	0.62869	0.52177	-0.41
Mof_O 	O 	0.9742	0.61905	0.6709	-0.216
Mof_O 	O 	0.4026	0.3682	0.6197	-0.262
Mof_O 	O 	0.2503	0.4844	0.63787	-0.417
Mof_O 	O 	0.4767	0.6967	0.89421	-0.254
Mof_O 	O 	0.596	0.80112	0.81602	-0.417
_end
