data_functionalizedCrystal
_audit_creation_method	'EQeq! by Chris Wilmer'
_symmetry_space_group_name_H-M	'P1'
_symmetry_Int_Tables_number	1
_symmetry_cell_setting	triclinic
loop_
_symmetry_equiv_pos_as_xyz
  x,y,z
_cell_length_a	17.655
_cell_length_b	17.638
_cell_length_c	12.956
_cell_angle_alpha	90
_cell_angle_beta	127.421
_cell_angle_gamma	90
loop_
_atom_site_label
_atom_site_type_symbol
_atom_site_fract_x
_atom_site_fract_y
_atom_site_fract_z
_atom_site_charge
Mof_O 	O 	0.0987	0.22105	0.389	-0.452
Mof_O 	O 	0.0774	0.29891	0.1821	-0.508
Mof_O 	O 	0.0871	0.6152	0.8792	-0.534
Mof_O 	O 	0.2278	0.65085	0.0634	-0.499
Mof_O 	O 	0.232	0.31213	0.3507	-0.458
Mof_N 	N 	0.0725	0.16054	0.4216	-0.073
Mof_C 	C 	0.0895	0.091	0.3972	0.089
Mof_C 	C 	0.0147	0.0335	0.4823	0.059
Mof_C 	C 	0.0606	0.0278	0.4267	-0.229
Mof_C 	C 	0.1577	0.3308	0.2404	0.378
Mof_C 	C 	0.1602	0.6048	0.9941	0.467
Mof_C 	C 	0.1647	0.5305	0.0566	-0.174
Mof_C 	C 	0.2395	0.4473	0.241	-0.071
Mof_C 	C 	0.164	0.397	0.1737	-0.055
Mof_C 	C 	0.0009	0.1069	0.5085	-0.254
Mof_C 	C 	0.0897	0.4796	0.9866	0.067
Mof_C 	C 	0.0885	0.4133	0.0445	-0.081
Mof_C 	C 	0.029	0.1686	0.4768	0.096
Mof_C 	C 	0.2399	0.5134	0.1837	0.046
Mof_H 	H 	0.024	0.498	0.889	0.007
Mof_H 	H 	0.013	0.219	0.489	-0.004
Mof_H 	H 	0.967	0.116	0.544	0.162
Mof_H 	H 	0.028	0.373	0.999	0.049
Mof_H 	H 	0.114	0.085	0.361	0.005
Mof_H 	H 	0.295	0.549	0.238	0.028
Mof_H 	H 	0.056	0.988	0.394	0.121
Mof_H 	H 	0.29	0.443	0.326	0.075
Mof_O 	O 	0.5987	0.72105	0.389	-0.438
Mof_O 	O 	0.5774	0.79891	0.1821	-0.478
Mof_O 	O 	0.5871	0.1152	0.8792	-0.51
Mof_O 	O 	0.7278	0.15085	0.0634	-0.493
Mof_O 	O 	0.732	0.81213	0.3507	-0.452
Mof_N 	N 	0.5725	0.66054	0.4216	-0.053
Mof_C 	C 	0.5895	0.591	0.3972	0.079
Mof_C 	C 	0.5147	0.5335	0.4823	0.059
Mof_C 	C 	0.5606	0.5278	0.4267	-0.198
Mof_C 	C 	0.6577	0.8308	0.2404	0.373
Mof_C 	C 	0.6602	0.1048	0.9941	0.468
Mof_C 	C 	0.6647	0.0305	0.0566	-0.172
Mof_C 	C 	0.7395	0.9473	0.241	-0.067
Mof_C 	C 	0.664	0.897	0.1737	-0.042
Mof_C 	C 	0.5009	0.6069	0.5085	-0.096
Mof_C 	C 	0.5897	0.9796	0.9866	0.089
Mof_C 	C 	0.5885	0.9133	0.0445	-0.084
Mof_C 	C 	0.529	0.6686	0.4768	0.035
Mof_C 	C 	0.7399	0.0134	0.1837	0.048
Mof_H 	H 	0.524	0.998	0.889	0.03
Mof_H 	H 	0.513	0.719	0.489	0.044
Mof_H 	H 	0.467	0.616	0.544	0.061
Mof_H 	H 	0.528	0.873	0.999	0.077
Mof_H 	H 	0.614	0.585	0.361	0.022
Mof_H 	H 	0.795	0.049	0.238	0.038
Mof_H 	H 	0.556	0.488	0.394	0.122
Mof_H 	H 	0.79	0.943	0.326	0.077
Mof_O 	O 	0.9013	0.22105	0.111	-0.431
Mof_O 	O 	0.9226	0.29891	0.3179	-0.443
Mof_O 	O 	0.9129	0.6152	0.6208	-0.47
Mof_O 	O 	0.7722	0.65085	0.4366	-0.466
Mof_O 	O 	0.768	0.31213	0.1493	-0.459
Mof_N 	N 	0.9275	0.16054	0.0784	0.008
Mof_C 	C 	0.9105	0.091	0.1028	-0.076
Mof_C 	C 	0.9853	0.0335	0.0177	-0.126
Mof_C 	C 	0.9394	0.0278	0.0733	0.026
Mof_C 	C 	0.8423	0.3308	0.2596	0.383
Mof_C 	C 	0.8398	0.6048	0.5059	0.414
Mof_C 	C 	0.8353	0.5305	0.4434	-0.09
Mof_C 	C 	0.7605	0.4473	0.259	-0.029
Mof_C 	C 	0.836	0.397	0.3263	-0.072
Mof_C 	C 	0.9991	0.1069	0.9915	0.214
Mof_C 	C 	0.9103	0.4796	0.5134	0.015
Mof_C 	C 	0.9115	0.4133	0.4555	-0.001
Mof_C 	C 	0.971	0.1686	0.0232	-0.119
Mof_C 	C 	0.7601	0.5134	0.3163	0.007
Mof_H 	H 	0.976	0.498	0.611	0.071
Mof_H 	H 	0.987	0.219	0.011	0.116
Mof_H 	H 	0.033	0.116	0.956	-0.086
Mof_H 	H 	0.972	0.373	0.501	0.071
Mof_H 	H 	0.886	0.085	0.139	0.098
Mof_H 	H 	0.705	0.549	0.262	0.045
Mof_H 	H 	0.944	0.988	0.106	0.036
Mof_H 	H 	0.71	0.443	0.174	0.06
Mof_O 	O 	0.4013	0.72105	0.111	-0.449
Mof_O 	O 	0.4226	0.79891	0.3179	-0.478
Mof_O 	O 	0.4129	0.1152	0.6208	-0.5
Mof_O 	O 	0.2722	0.15085	0.4366	-0.474
Mof_O 	O 	0.268	0.81213	0.1493	-0.464
Mof_N 	N 	0.4275	0.66054	0.0784	0.002
Mof_C 	C 	0.4105	0.591	0.1028	-0.123
Mof_C 	C 	0.4853	0.5335	0.0177	-0.18
Mof_C 	C 	0.4394	0.5278	0.0733	0.08
Mof_C 	C 	0.3423	0.8308	0.2596	0.387
Mof_C 	C 	0.3398	0.1048	0.5059	0.417
Mof_C 	C 	0.3353	0.0305	0.4434	-0.106
Mof_C 	C 	0.2605	0.9473	0.259	-0.032
Mof_C 	C 	0.336	0.897	0.3263	-0.081
Mof_C 	C 	0.4991	0.6069	0.9915	0.089
Mof_C 	C 	0.4103	0.9796	0.5134	0.011
Mof_C 	C 	0.4115	0.9133	0.4555	-0.012
Mof_C 	C 	0.471	0.6686	0.0232	-0.079
Mof_C 	C 	0.2601	0.0134	0.3163	0.005
Mof_H 	H 	0.476	0.998	0.611	0.046
Mof_H 	H 	0.487	0.719	0.011	0.074
Mof_H 	H 	0.533	0.616	0.956	0.004
Mof_H 	H 	0.472	0.873	0.501	0.048
Mof_H 	H 	0.386	0.585	0.139	0.107
Mof_H 	H 	0.205	0.049	0.262	0.034
Mof_H 	H 	0.444	0.488	0.106	-0.008
Mof_H 	H 	0.21	0.943	0.174	0.058
Mof_O 	O 	0.9013	0.77895	0.611	-0.423
Mof_O 	O 	0.9226	0.70109	0.8179	-0.443
Mof_O 	O 	0.9129	0.3848	0.1208	-0.46
Mof_O 	O 	0.7722	0.34915	0.9366	-0.438
Mof_O 	O 	0.768	0.68787	0.6493	-0.455
Mof_N 	N 	0.9275	0.83946	0.5784	-0.035
Mof_C 	C 	0.9105	0.909	0.6028	0.07
Mof_C 	C 	0.9853	0.9665	0.5177	0.063
Mof_C 	C 	0.9394	0.9722	0.5733	-0.173
Mof_C 	C 	0.8423	0.6692	0.7596	0.397
Mof_C 	C 	0.8398	0.3952	0.0059	0.357
Mof_C 	C 	0.8353	0.4695	0.9434	-0.015
Mof_C 	C 	0.7605	0.5527	0.759	0.015
Mof_C 	C 	0.836	0.603	0.8263	-0.108
Mof_C 	C 	0.9991	0.8931	0.4915	0.059
Mof_C 	C 	0.9103	0.5204	0.0134	-0.066
Mof_C 	C 	0.9115	0.5867	0.9555	0.074
Mof_C 	C 	0.971	0.8314	0.5232	-0.023
Mof_C 	C 	0.7601	0.4866	0.8163	-0.039
Mof_H 	H 	0.976	0.502	0.111	0.086
Mof_H 	H 	0.987	0.781	0.511	0.091
Mof_H 	H 	0.033	0.884	0.456	-0.036
Mof_H 	H 	0.972	0.627	0.001	0.04
Mof_H 	H 	0.886	0.915	0.639	0.035
Mof_H 	H 	0.705	0.451	0.762	0.062
Mof_H 	H 	0.944	0.012	0.606	0.125
Mof_H 	H 	0.71	0.557	0.674	0.047
Mof_O 	O 	0.4013	0.27895	0.611	-0.44
Mof_O 	O 	0.4226	0.20109	0.8179	-0.478
Mof_O 	O 	0.4129	0.8848	0.1208	-0.488
Mof_O 	O 	0.2722	0.84915	0.9366	-0.447
Mof_O 	O 	0.268	0.18787	0.6493	-0.461
Mof_N 	N 	0.4275	0.33946	0.5784	-0.055
Mof_C 	C 	0.4105	0.409	0.6028	0.078
Mof_C 	C 	0.4853	0.4665	0.5177	0.061
Mof_C 	C 	0.4394	0.4722	0.5733	-0.2
Mof_C 	C 	0.3423	0.1692	0.7596	0.398
Mof_C 	C 	0.3398	0.8952	0.0059	0.363
Mof_C 	C 	0.3353	0.9695	0.9434	-0.033
Mof_C 	C 	0.2605	0.0527	0.759	-0.004
Mof_C 	C 	0.336	0.103	0.8263	-0.11
Mof_C 	C 	0.4991	0.3931	0.4915	-0.098
Mof_C 	C 	0.4103	0.0204	0.0134	-0.066
Mof_C 	C 	0.4115	0.0867	0.9555	0.052
Mof_C 	C 	0.471	0.3314	0.5232	0.035
Mof_C 	C 	0.2601	0.9866	0.8163	-0.028
Mof_H 	H 	0.476	0.002	0.111	0.058
Mof_H 	H 	0.487	0.281	0.511	0.043
Mof_H 	H 	0.533	0.384	0.456	0.063
Mof_H 	H 	0.472	0.127	0.001	0.021
Mof_H 	H 	0.386	0.415	0.639	0.019
Mof_H 	H 	0.205	0.951	0.762	0.048
Mof_H 	H 	0.444	0.512	0.606	0.121
Mof_H 	H 	0.21	0.057	0.674	0.05
Mof_O 	O 	0.0987	0.77895	0.889	-0.446
Mof_O 	O 	0.0774	0.70109	0.6821	-0.51
Mof_O 	O 	0.0871	0.3848	0.3792	-0.525
Mof_O 	O 	0.2278	0.34915	0.5634	-0.475
Mof_O 	O 	0.232	0.68787	0.8507	-0.453
Mof_N 	N 	0.0725	0.83946	0.9216	-0.11
Mof_C 	C 	0.0895	0.909	0.8972	0.213
Mof_C 	C 	0.0147	0.9665	0.9823	0.235
Mof_C 	C 	0.0606	0.9722	0.9267	-0.397
Mof_C 	C 	0.1577	0.6692	0.7404	0.389
Mof_C 	C 	0.1602	0.3952	0.4941	0.418
Mof_C 	C 	0.1647	0.4695	0.5566	-0.11
Mof_C 	C 	0.2395	0.5527	0.741	-0.034
Mof_C 	C 	0.164	0.603	0.6737	-0.085
Mof_C 	C 	0.0009	0.8931	0.0085	-0.389
Mof_C 	C 	0.0897	0.5204	0.4866	-0.001
Mof_C 	C 	0.0885	0.5867	0.5445	-0.021
Mof_C 	C 	0.029	0.8314	0.9768	0.18
Mof_C 	C 	0.2399	0.4866	0.6837	0.007
Mof_H 	H 	0.024	0.502	0.389	0.02
Mof_H 	H 	0.013	0.781	0.989	-0.026
Mof_H 	H 	0.967	0.884	0.044	0.201
Mof_H 	H 	0.028	0.627	0.499	0.024
Mof_H 	H 	0.114	0.915	0.861	-0.048
Mof_H 	H 	0.295	0.451	0.738	0.043
Mof_H 	H 	0.056	0.012	0.894	0.193
Mof_H 	H 	0.29	0.557	0.826	0.064
Mof_O 	O 	0.5987	0.27895	0.889	-0.429
Mof_O 	O 	0.5774	0.20109	0.6821	-0.477
Mof_O 	O 	0.5871	0.8848	0.3792	-0.499
Mof_O 	O 	0.7278	0.84915	0.5634	-0.467
Mof_O 	O 	0.732	0.18787	0.8507	-0.448
Mof_N 	N 	0.5725	0.33946	0.9216	-0.11
Mof_C 	C 	0.5895	0.409	0.8972	0.279
Mof_C 	C 	0.5147	0.4665	0.9823	0.299
Mof_C 	C 	0.5606	0.4722	0.9267	-0.477
Mof_C 	C 	0.6577	0.1692	0.7404	0.386
Mof_C 	C 	0.6602	0.8952	0.4941	0.415
Mof_C 	C 	0.6647	0.9695	0.5566	-0.096
Mof_C 	C 	0.7395	0.0527	0.741	-0.032
Mof_C 	C 	0.664	0.103	0.6737	-0.076
Mof_C 	C 	0.5009	0.3931	0.0085	-0.281
Mof_C 	C 	0.5897	0.0204	0.4866	0.004
Mof_C 	C 	0.5885	0.0867	0.5445	-0.01
Mof_C 	C 	0.529	0.3314	0.9768	0.149
Mof_C 	C 	0.7399	0.9866	0.6837	0.01
Mof_H 	H 	0.524	0.002	0.389	0.044
Mof_H 	H 	0.513	0.281	0.989	0.013
Mof_H 	H 	0.467	0.384	0.044	0.12
Mof_H 	H 	0.528	0.127	0.499	0.046
Mof_H 	H 	0.614	0.415	0.861	-0.066
Mof_H 	H 	0.795	0.951	0.738	0.054
Mof_H 	H 	0.556	0.512	0.894	0.25
Mof_H 	H 	0.79	0.057	0.826	0.067
Mof_Mg	Mg	1.10586e-33	0.30427	0.25	1.472
Mof_Mg	Mg	0.5	0.80427	0.25	1.478
Mof_Mg	Mg	3.31759e-33	0.69573	0.75	1.472
Mof_Mg	Mg	0.5	0.19573	0.75	1.478
Mof_Mg	Mg	0.25	0.25	0.5	1.475
Mof_Mg	Mg	0.75	0.25	-0	1.474
Mof_Mg	Mg	0.75	0.75	0.5	1.475
Mof_Mg	Mg	0.25	0.75	-0	1.474
_end
