data_functionalizedCrystal
_audit_creation_method	'EQeq! by Chris Wilmer'
_symmetry_space_group_name_H-M	'P1'
_symmetry_Int_Tables_number	1
_symmetry_cell_setting	triclinic
loop_
_symmetry_equiv_pos_as_xyz
  x,y,z
_cell_length_a	15.8731
_cell_length_b	15.8731
_cell_length_c	21.776
_cell_angle_alpha	90
_cell_angle_beta	90
_cell_angle_gamma	90
loop_
_atom_site_label
_atom_site_type_symbol
_atom_site_fract_x
_atom_site_fract_y
_atom_site_fract_z
_atom_site_charge
Mof_Cd	Cd	0.55786	0.44214	0.25	0.384
Mof_Cd	Cd	0.44214	0.55786	0.75	0.384
Mof_Cd	Cd	0.05786	0.05786	0.5	0.382
Mof_Cd	Cd	0.94214	0.94214	-0	0.383
Mof_H 	H 	0.0365	0.1119	0.3496	0.034
Mof_H 	H 	0.0839	0.215	0.2848	0.09
Mof_H 	H 	0.2846	0.2431	0.3972	0.091
Mof_H 	H 	0.2274	0.1409	0.4599	0.011
Mof_H 	H 	0.1526	0.2962	0.22	0.065
Mof_H 	H 	0.2045	0.4098	0.164	0.037
Mof_H 	H 	0.303	0.5036	0.2084	0.079
Mof_H 	H 	0.2976	0.3664	0.3644	0.083
Mof_H 	H 	0.5448	0.6195	0.4612	0.068
Mof_H 	H 	0.5638	0.7292	0.5292	0.05
Mof_H 	H 	0.4648	0.8333	0.5391	0.058
Mof_H 	H 	0.325	0.7234	0.4043	0.079
Mof_H 	H 	0.3444	0.8926	0.5652	0.078
Mof_H 	H 	0.2338	0.9891	0.5744	0.018
Mof_H 	H 	0.1604	0.943	0.406	0.016
Mof_H 	H 	0.2664	0.848	0.3909	0.094
Mof_H 	H 	0.2413	0.527	0.391	0.128
Mof_H 	H 	0.2405	0.6039	0.3522	0.141
Mof_H 	H 	0.9635	0.8881	0.8496	0.035
Mof_H 	H 	0.9161	0.785	0.7848	0.091
Mof_H 	H 	0.7154	0.7569	0.8972	0.092
Mof_H 	H 	0.7726	0.8591	0.9599	0.011
Mof_H 	H 	0.8474	0.7038	0.72	0.066
Mof_H 	H 	0.7955	0.5902	0.664	0.038
Mof_H 	H 	0.697	0.4964	0.7084	0.08
Mof_H 	H 	0.7024	0.6336	0.8644	0.084
Mof_H 	H 	0.4552	0.3805	0.9612	0.068
Mof_H 	H 	0.4362	0.2708	0.0292	0.049
Mof_H 	H 	0.5352	0.1667	0.0391	0.058
Mof_H 	H 	0.675	0.2766	0.9043	0.08
Mof_H 	H 	0.6556	0.1074	0.0652	0.078
Mof_H 	H 	0.7662	0.0109	0.0744	0.018
Mof_H 	H 	0.8396	0.057	0.906	0.016
Mof_H 	H 	0.7336	0.152	0.8909	0.094
Mof_H 	H 	0.7587	0.473	0.891	0.128
Mof_H 	H 	0.7595	0.3961	0.8522	0.141
Mof_H 	H 	0.3881	0.5365	0.5996	0.036
Mof_H 	H 	0.285	0.5839	0.5348	0.092
Mof_H 	H 	0.2569	0.7846	0.6472	0.092
Mof_H 	H 	0.3591	0.7274	0.7099	0.012
Mof_H 	H 	0.2038	0.6526	0.47	0.066
Mof_H 	H 	0.0902	0.7045	0.414	0.039
Mof_H 	H 	0.9964	0.803	0.4584	0.078
Mof_H 	H 	0.1336	0.7976	0.6144	0.083
Mof_H 	H 	0.8805	0.0448	0.7112	0.068
Mof_H 	H 	0.7708	0.0638	0.7792	0.05
Mof_H 	H 	0.6667	0.9648	0.7891	0.058
Mof_H 	H 	0.7766	0.825	0.6543	0.079
Mof_H 	H 	0.6074	0.8444	0.8152	0.078
Mof_H 	H 	0.5109	0.7338	0.8244	0.017
Mof_H 	H 	0.557	0.6604	0.656	0.015
Mof_H 	H 	0.652	0.7664	0.6409	0.094
Mof_H 	H 	0.973	0.7413	0.641	0.127
Mof_H 	H 	0.8961	0.7405	0.6022	0.141
Mof_H 	H 	0.6119	0.4635	0.0996	0.036
Mof_H 	H 	0.715	0.4161	0.0348	0.092
Mof_H 	H 	0.7431	0.2154	0.1472	0.092
Mof_H 	H 	0.6409	0.2726	0.2099	0.012
Mof_H 	H 	0.7962	0.3474	0.97	0.067
Mof_H 	H 	0.9098	0.2955	0.914	0.038
Mof_H 	H 	0.0036	0.197	0.9584	0.078
Mof_H 	H 	0.8664	0.2024	0.1144	0.084
Mof_H 	H 	0.1195	0.9552	0.2112	0.068
Mof_H 	H 	0.2292	0.9362	0.2792	0.05
Mof_H 	H 	0.3333	0.0352	0.2891	0.058
Mof_H 	H 	0.2234	0.175	0.1543	0.079
Mof_H 	H 	0.3926	0.1556	0.3152	0.078
Mof_H 	H 	0.4891	0.2662	0.3244	0.017
Mof_H 	H 	0.443	0.3396	0.156	0.015
Mof_H 	H 	0.348	0.2336	0.1409	0.094
Mof_H 	H 	0.027	0.2587	0.141	0.128
Mof_H 	H 	0.1039	0.2595	0.1022	0.141
Mof_H 	H 	0.4635	0.6119	0.9004	0.035
Mof_H 	H 	0.4161	0.715	0.9652	0.091
Mof_H 	H 	0.2154	0.7431	0.8528	0.092
Mof_H 	H 	0.2726	0.6409	0.7901	0.012
Mof_H 	H 	0.3474	0.7962	0.03	0.065
Mof_H 	H 	0.2955	0.9098	0.086	0.04
Mof_H 	H 	0.197	0.0036	0.0416	0.077
Mof_H 	H 	0.2024	0.8664	0.8856	0.083
Mof_H 	H 	0.9552	0.1195	0.7888	0.068
Mof_H 	H 	0.9362	0.2292	0.7208	0.05
Mof_H 	H 	0.0352	0.3333	0.7109	0.058
Mof_H 	H 	0.175	0.2234	0.8457	0.079
Mof_H 	H 	0.1556	0.3926	0.6848	0.078
Mof_H 	H 	0.2662	0.4891	0.6756	0.017
Mof_H 	H 	0.3396	0.443	0.844	0.015
Mof_H 	H 	0.2336	0.348	0.8591	0.094
Mof_H 	H 	0.2587	0.027	0.859	0.127
Mof_H 	H 	0.2595	0.1039	0.8978	0.14
Mof_H 	H 	0.5365	0.3881	0.4004	0.036
Mof_H 	H 	0.5839	0.285	0.4652	0.092
Mof_H 	H 	0.7846	0.2569	0.3528	0.092
Mof_H 	H 	0.7274	0.3591	0.2901	0.012
Mof_H 	H 	0.6526	0.2038	0.53	0.066
Mof_H 	H 	0.7045	0.0902	0.586	0.039
Mof_H 	H 	0.803	0.9964	0.5416	0.078
Mof_H 	H 	0.7976	0.1336	0.3856	0.083
Mof_H 	H 	0.0448	0.8805	0.2888	0.068
Mof_H 	H 	0.0638	0.7708	0.2208	0.05
Mof_H 	H 	0.9648	0.6667	0.2109	0.058
Mof_H 	H 	0.825	0.7766	0.3457	0.079
Mof_H 	H 	0.8444	0.6074	0.1848	0.078
Mof_H 	H 	0.7338	0.5109	0.1756	0.017
Mof_H 	H 	0.6604	0.557	0.344	0.015
Mof_H 	H 	0.7664	0.652	0.3591	0.094
Mof_H 	H 	0.7413	0.973	0.359	0.127
Mof_H 	H 	0.7405	0.8961	0.3978	0.141
Mof_H 	H 	0.1119	0.0365	0.6504	0.035
Mof_H 	H 	0.215	0.0839	0.7152	0.091
Mof_H 	H 	0.2431	0.2846	0.6028	0.092
Mof_H 	H 	0.1409	0.2274	0.5401	0.012
Mof_H 	H 	0.2962	0.1526	0.78	0.066
Mof_H 	H 	0.4098	0.2045	0.836	0.038
Mof_H 	H 	0.5036	0.303	0.7916	0.08
Mof_H 	H 	0.3664	0.2976	0.6356	0.084
Mof_H 	H 	0.6195	0.5448	0.5388	0.068
Mof_H 	H 	0.7292	0.5638	0.4708	0.05
Mof_H 	H 	0.8333	0.4648	0.4609	0.058
Mof_H 	H 	0.7234	0.325	0.5957	0.079
Mof_H 	H 	0.8926	0.3444	0.4348	0.078
Mof_H 	H 	0.9891	0.2338	0.4256	0.018
Mof_H 	H 	0.943	0.1604	0.594	0.016
Mof_H 	H 	0.848	0.2664	0.6091	0.094
Mof_H 	H 	0.527	0.2413	0.609	0.128
Mof_H 	H 	0.6039	0.2405	0.6478	0.141
Mof_H 	H 	0.8881	0.9635	0.1504	0.035
Mof_H 	H 	0.785	0.9161	0.2152	0.091
Mof_H 	H 	0.7569	0.7154	0.1028	0.092
Mof_H 	H 	0.8591	0.7726	0.0401	0.012
Mof_H 	H 	0.7038	0.8474	0.28	0.066
Mof_H 	H 	0.5902	0.7955	0.336	0.038
Mof_H 	H 	0.4964	0.697	0.2916	0.08
Mof_H 	H 	0.6336	0.7024	0.1356	0.084
Mof_H 	H 	0.3805	0.4552	0.0388	0.067
Mof_H 	H 	0.2708	0.4362	0.9708	0.051
Mof_H 	H 	0.1667	0.5352	0.9609	0.057
Mof_H 	H 	0.2766	0.675	0.0957	0.079
Mof_H 	H 	0.1074	0.6556	0.9348	0.079
Mof_H 	H 	0.0109	0.7662	0.9256	0.018
Mof_H 	H 	0.057	0.8396	0.094	0.015
Mof_H 	H 	0.152	0.7336	0.1091	0.094
Mof_H 	H 	0.473	0.7587	0.109	0.128
Mof_H 	H 	0.3961	0.7595	0.1478	0.141
Mof_C 	C 	0.0864	0.1414	0.3604	0.076
Mof_C 	C 	0.1143	0.2026	0.3213	-0.127
Mof_C 	C 	0.1885	0.247	0.3356	0.068
Mof_C 	C 	0.2314	0.2194	0.3872	-0.135
Mof_C 	C 	0.1972	0.1575	0.4242	0.081
Mof_C 	C 	0.2185	0.3193	0.2984	0.028
Mof_C 	C 	0.1923	0.3333	0.2383	-0.081
Mof_C 	C 	0.2233	0.4009	0.2049	0.01
Mof_C 	C 	0.2825	0.4566	0.2309	-0.079
Mof_C 	C 	0.3099	0.4408	0.2903	0.033
Mof_C 	C 	0.2785	0.3749	0.3235	-0.093
Mof_C 	C 	0.3719	0.4969	0.3197	0.103
Mof_C 	C 	0.4243	0.5916	0.3819	0.11
Mof_C 	C 	0.4326	0.6616	0.4263	0.028
Mof_C 	C 	0.504	0.6632	0.4638	-0.067
Mof_C 	C 	0.5147	0.7277	0.5042	0.001
Mof_C 	C 	0.4564	0.79	0.5096	-0.066
Mof_C 	C 	0.3829	0.792	0.4718	0.015
Mof_C 	C 	0.3731	0.7251	0.4301	-0.078
Mof_C 	C 	0.3181	0.8577	0.478	0.074
Mof_C 	C 	0.3072	0.9014	0.5317	-0.13
Mof_C 	C 	0.2404	0.9595	0.5368	0.075
Mof_C 	C 	0.1983	0.9325	0.439	0.084
Mof_C 	C 	0.261	0.8755	0.4294	-0.138
Mof_C 	C 	0.9136	0.8586	0.8604	0.077
Mof_C 	C 	0.8857	0.7974	0.8213	-0.127
Mof_C 	C 	0.8115	0.753	0.8356	0.068
Mof_C 	C 	0.7686	0.7806	0.8872	-0.135
Mof_C 	C 	0.8028	0.8425	0.9242	0.081
Mof_C 	C 	0.7815	0.6807	0.7984	0.028
Mof_C 	C 	0.8077	0.6667	0.7383	-0.081
Mof_C 	C 	0.7767	0.5991	0.7049	0.01
Mof_C 	C 	0.7175	0.5434	0.7309	-0.079
Mof_C 	C 	0.6901	0.5592	0.7903	0.033
Mof_C 	C 	0.7215	0.6251	0.8235	-0.093
Mof_C 	C 	0.6281	0.5031	0.8197	0.103
Mof_C 	C 	0.5757	0.4084	0.8819	0.109
Mof_C 	C 	0.5674	0.3384	0.9263	0.029
Mof_C 	C 	0.496	0.3368	0.9638	-0.07
Mof_C 	C 	0.4853	0.2723	0.0042	0.004
Mof_C 	C 	0.5436	0.21	0.0096	-0.066
Mof_C 	C 	0.6171	0.208	0.9718	0.015
Mof_C 	C 	0.6269	0.2749	0.9301	-0.079
Mof_C 	C 	0.6819	0.1423	0.978	0.072
Mof_C 	C 	0.6928	0.0986	0.0317	-0.128
Mof_C 	C 	0.7596	0.0405	0.0368	0.076
Mof_C 	C 	0.8017	0.0675	0.939	0.083
Mof_C 	C 	0.739	0.1245	0.9294	-0.137
Mof_C 	C 	0.3586	0.5864	0.6104	0.077
Mof_C 	C 	0.2974	0.6143	0.5713	-0.127
Mof_C 	C 	0.253	0.6885	0.5856	0.069
Mof_C 	C 	0.2806	0.7314	0.6372	-0.135
Mof_C 	C 	0.3425	0.6972	0.6742	0.081
Mof_C 	C 	0.1807	0.7185	0.5484	0.027
Mof_C 	C 	0.1667	0.6923	0.4883	-0.08
Mof_C 	C 	0.0991	0.7233	0.4549	0.008
Mof_C 	C 	0.0434	0.7825	0.4809	-0.076
Mof_C 	C 	0.0592	0.8099	0.5403	0.032
Mof_C 	C 	0.1251	0.7785	0.5735	-0.092
Mof_C 	C 	0.0031	0.8719	0.5697	0.105
Mof_C 	C 	0.9084	0.9243	0.6319	0.11
Mof_C 	C 	0.8384	0.9326	0.6763	0.026
Mof_C 	C 	0.8368	0.004	0.7138	-0.066
Mof_C 	C 	0.7723	0.0147	0.7542	0.002
Mof_C 	C 	0.71	0.9564	0.7596	-0.067
Mof_C 	C 	0.708	0.8829	0.7218	0.015
Mof_C 	C 	0.7749	0.8731	0.6801	-0.078
Mof_C 	C 	0.6423	0.8181	0.728	0.074
Mof_C 	C 	0.5986	0.8072	0.7817	-0.13
Mof_C 	C 	0.5405	0.7404	0.7868	0.075
Mof_C 	C 	0.5675	0.6983	0.689	0.084
Mof_C 	C 	0.6245	0.761	0.6794	-0.138
Mof_C 	C 	0.6414	0.4136	0.1104	0.077
Mof_C 	C 	0.7026	0.3857	0.0713	-0.127
Mof_C 	C 	0.747	0.3115	0.0856	0.068
Mof_C 	C 	0.7194	0.2686	0.1372	-0.135
Mof_C 	C 	0.6575	0.3028	0.1742	0.081
Mof_C 	C 	0.8193	0.2815	0.0484	0.029
Mof_C 	C 	0.8333	0.3077	0.9883	-0.083
Mof_C 	C 	0.9009	0.2767	0.9549	0.01
Mof_C 	C 	0.9566	0.2175	0.9809	-0.077
Mof_C 	C 	0.9408	0.1901	0.0403	0.033
Mof_C 	C 	0.8749	0.2215	0.0735	-0.094
Mof_C 	C 	0.9969	0.1281	0.0697	0.104
Mof_C 	C 	0.0916	0.0757	0.1319	0.11
Mof_C 	C 	0.1616	0.0674	0.1763	0.026
Mof_C 	C 	0.1632	0.996	0.2138	-0.066
Mof_C 	C 	0.2277	0.9853	0.2542	0.002
Mof_C 	C 	0.29	0.0436	0.2596	-0.067
Mof_C 	C 	0.292	0.1171	0.2218	0.015
Mof_C 	C 	0.2251	0.1269	0.1801	-0.078
Mof_C 	C 	0.3577	0.1819	0.228	0.074
Mof_C 	C 	0.4014	0.1928	0.2817	-0.13
Mof_C 	C 	0.4595	0.2596	0.2868	0.075
Mof_C 	C 	0.4325	0.3017	0.189	0.084
Mof_C 	C 	0.3755	0.239	0.1794	-0.138
Mof_C 	C 	0.4136	0.6414	0.8896	0.077
Mof_C 	C 	0.3857	0.7026	0.9287	-0.128
Mof_C 	C 	0.3115	0.747	0.9144	0.07
Mof_C 	C 	0.2686	0.7194	0.8628	-0.136
Mof_C 	C 	0.3028	0.6575	0.8258	0.081
Mof_C 	C 	0.2815	0.8193	0.9516	0.023
Mof_C 	C 	0.3077	0.8333	0.0117	-0.076
Mof_C 	C 	0.2767	0.9009	0.0451	0.005
Mof_C 	C 	0.2175	0.9566	0.0191	-0.072
Mof_C 	C 	0.1901	0.9408	0.9597	0.028
Mof_C 	C 	0.2215	0.8749	0.9265	-0.089
Mof_C 	C 	0.1281	0.9969	0.9303	0.106
Mof_C 	C 	0.0757	0.0916	0.8681	0.11
Mof_C 	C 	0.0674	0.1616	0.8237	0.026
Mof_C 	C 	0.996	0.1632	0.7862	-0.065
Mof_C 	C 	0.9853	0.2277	0.7458	0.003
Mof_C 	C 	0.0436	0.29	0.7404	-0.068
Mof_C 	C 	0.1171	0.292	0.7782	0.015
Mof_C 	C 	0.1269	0.2251	0.8199	-0.078
Mof_C 	C 	0.1819	0.3577	0.772	0.074
Mof_C 	C 	0.1928	0.4014	0.7183	-0.13
Mof_C 	C 	0.2596	0.4595	0.7132	0.075
Mof_C 	C 	0.3017	0.4325	0.811	0.084
Mof_C 	C 	0.239	0.3755	0.8206	-0.138
Mof_C 	C 	0.5864	0.3586	0.3896	0.077
Mof_C 	C 	0.6143	0.2974	0.4287	-0.127
Mof_C 	C 	0.6885	0.253	0.4144	0.069
Mof_C 	C 	0.7314	0.2806	0.3628	-0.135
Mof_C 	C 	0.6972	0.3425	0.3258	0.081
Mof_C 	C 	0.7185	0.1807	0.4516	0.027
Mof_C 	C 	0.6923	0.1667	0.5117	-0.08
Mof_C 	C 	0.7233	0.0991	0.5451	0.008
Mof_C 	C 	0.7825	0.0434	0.5191	-0.076
Mof_C 	C 	0.8099	0.0592	0.4597	0.032
Mof_C 	C 	0.7785	0.1251	0.4265	-0.092
Mof_C 	C 	0.8719	0.0031	0.4303	0.105
Mof_C 	C 	0.9243	0.9084	0.3681	0.11
Mof_C 	C 	0.9326	0.8384	0.3237	0.026
Mof_C 	C 	0.004	0.8368	0.2862	-0.066
Mof_C 	C 	0.0147	0.7723	0.2458	0.003
Mof_C 	C 	0.9564	0.71	0.2404	-0.068
Mof_C 	C 	0.8829	0.708	0.2782	0.015
Mof_C 	C 	0.8731	0.7749	0.3199	-0.078
Mof_C 	C 	0.8181	0.6423	0.272	0.074
Mof_C 	C 	0.8072	0.5986	0.2183	-0.13
Mof_C 	C 	0.7404	0.5405	0.2132	0.075
Mof_C 	C 	0.6983	0.5675	0.311	0.084
Mof_C 	C 	0.761	0.6245	0.3206	-0.138
Mof_C 	C 	0.1414	0.0864	0.6396	0.076
Mof_C 	C 	0.2026	0.1143	0.6787	-0.127
Mof_C 	C 	0.247	0.1885	0.6644	0.068
Mof_C 	C 	0.2194	0.2314	0.6128	-0.135
Mof_C 	C 	0.1575	0.1972	0.5758	0.081
Mof_C 	C 	0.3193	0.2185	0.7016	0.028
Mof_C 	C 	0.3333	0.1923	0.7617	-0.081
Mof_C 	C 	0.4009	0.2233	0.7951	0.01
Mof_C 	C 	0.4566	0.2825	0.7691	-0.079
Mof_C 	C 	0.4408	0.3099	0.7097	0.033
Mof_C 	C 	0.3749	0.2785	0.6765	-0.093
Mof_C 	C 	0.4969	0.3719	0.6803	0.103
Mof_C 	C 	0.5916	0.4243	0.6181	0.11
Mof_C 	C 	0.6616	0.4326	0.5737	0.028
Mof_C 	C 	0.6632	0.504	0.5362	-0.067
Mof_C 	C 	0.7277	0.5147	0.4958	0.001
Mof_C 	C 	0.79	0.4564	0.4904	-0.066
Mof_C 	C 	0.792	0.3829	0.5282	0.015
Mof_C 	C 	0.7251	0.3731	0.5699	-0.078
Mof_C 	C 	0.8577	0.3181	0.522	0.074
Mof_C 	C 	0.9014	0.3072	0.4683	-0.13
Mof_C 	C 	0.9595	0.2404	0.4632	0.075
Mof_C 	C 	0.9325	0.1983	0.561	0.084
Mof_C 	C 	0.8755	0.261	0.5706	-0.138
Mof_C 	C 	0.8586	0.9136	0.1396	0.076
Mof_C 	C 	0.7974	0.8857	0.1787	-0.127
Mof_C 	C 	0.753	0.8115	0.1644	0.068
Mof_C 	C 	0.7806	0.7686	0.1128	-0.135
Mof_C 	C 	0.8425	0.8028	0.0758	0.081
Mof_C 	C 	0.6807	0.7815	0.2016	0.028
Mof_C 	C 	0.6667	0.8077	0.2617	-0.081
Mof_C 	C 	0.5991	0.7767	0.2951	0.01
Mof_C 	C 	0.5434	0.7175	0.2691	-0.079
Mof_C 	C 	0.5592	0.6901	0.2097	0.033
Mof_C 	C 	0.6251	0.7215	0.1765	-0.093
Mof_C 	C 	0.5031	0.6281	0.1803	0.103
Mof_C 	C 	0.4084	0.5757	0.1181	0.11
Mof_C 	C 	0.3384	0.5674	0.0737	0.027
Mof_C 	C 	0.3368	0.496	0.0362	-0.064
Mof_C 	C 	0.2723	0.4853	0.9958	-0.002
Mof_C 	C 	0.21	0.5436	0.9904	-0.066
Mof_C 	C 	0.208	0.6171	0.0282	0.016
Mof_C 	C 	0.2749	0.6269	0.0699	-0.077
Mof_C 	C 	0.1423	0.6819	0.022	0.076
Mof_C 	C 	0.0986	0.6928	0.9683	-0.132
Mof_C 	C 	0.0405	0.7596	0.9632	0.074
Mof_C 	C 	0.0675	0.8017	0.061	0.085
Mof_C 	C 	0.1245	0.739	0.0706	-0.139
Mof_N 	N 	0.1242	0.1202	0.4126	-0.153
Mof_N 	N 	0.4552	0.4946	0.316	-0.111
Mof_N 	N 	0.4879	0.5541	0.3551	-0.098
Mof_N 	N 	0.3507	0.5566	0.3609	-0.097
Mof_N 	N 	0.2689	0.5757	0.3821	-0.214
Mof_N 	N 	0.1861	0.975	0.4916	-0.15
Mof_N 	N 	0.8758	0.8798	0.9126	-0.153
Mof_N 	N 	0.5448	0.5054	0.816	-0.111
Mof_N 	N 	0.5121	0.4459	0.8551	-0.098
Mof_N 	N 	0.6493	0.4434	0.8609	-0.096
Mof_N 	N 	0.7311	0.4243	0.8821	-0.214
Mof_N 	N 	0.8139	0.025	0.9916	-0.151
Mof_N 	N 	0.3798	0.6242	0.6626	-0.153
Mof_N 	N 	0.0054	0.9552	0.566	-0.111
Mof_N 	N 	0.9459	0.9879	0.6051	-0.099
Mof_N 	N 	0.9434	0.8507	0.6109	-0.097
Mof_N 	N 	0.9243	0.7689	0.6321	-0.214
Mof_N 	N 	0.525	0.6861	0.7416	-0.15
Mof_N 	N 	0.6202	0.3758	0.1626	-0.153
Mof_N 	N 	0.9946	0.0448	0.066	-0.111
Mof_N 	N 	0.0541	0.0121	0.1051	-0.098
Mof_N 	N 	0.0566	0.1493	0.1109	-0.097
Mof_N 	N 	0.0757	0.2311	0.1321	-0.214
Mof_N 	N 	0.475	0.3139	0.2416	-0.15
Mof_N 	N 	0.3758	0.6202	0.8374	-0.153
Mof_N 	N 	0.0448	0.9946	0.934	-0.111
Mof_N 	N 	0.0121	0.0541	0.8949	-0.099
Mof_N 	N 	0.1493	0.0566	0.8891	-0.098
Mof_N 	N 	0.2311	0.0757	0.8679	-0.214
Mof_N 	N 	0.3139	0.475	0.7584	-0.15
Mof_N 	N 	0.6242	0.3798	0.3374	-0.153
Mof_N 	N 	0.9552	0.0054	0.434	-0.111
Mof_N 	N 	0.9879	0.9459	0.3949	-0.099
Mof_N 	N 	0.8507	0.9434	0.3891	-0.097
Mof_N 	N 	0.7689	0.9243	0.3679	-0.214
Mof_N 	N 	0.6861	0.525	0.2584	-0.15
Mof_N 	N 	0.1202	0.1242	0.5874	-0.153
Mof_N 	N 	0.4946	0.4552	0.684	-0.111
Mof_N 	N 	0.5541	0.4879	0.6449	-0.098
Mof_N 	N 	0.5566	0.3507	0.6391	-0.097
Mof_N 	N 	0.5757	0.2689	0.6179	-0.214
Mof_N 	N 	0.975	0.1861	0.5084	-0.15
Mof_N 	N 	0.8798	0.8758	0.0874	-0.153
Mof_N 	N 	0.5054	0.5448	0.184	-0.111
Mof_N 	N 	0.4459	0.5121	0.1449	-0.098
Mof_N 	N 	0.4434	0.6493	0.1391	-0.097
Mof_N 	N 	0.4243	0.7311	0.1179	-0.214
Mof_N 	N 	0.025	0.8139	0.0084	-0.149
Mof_Cl	Cl	0.23162	0.23162	-0	-0.217
Mof_O 	O 	0.2613	0.2727	0.0522	-0.049
Mof_O 	O 	0.2769	0.1578	0.008	-0.043
Mof_O 	O 	0.2727	0.2613	0.9478	-0.051
Mof_O 	O 	0.1578	0.2769	0.992	-0.045
Mof_Cl	Cl	0.62109	0.62109	-0	-0.239
Mof_O 	O 	0.642	0.5516	0.9713	-0.019
Mof_O 	O 	0.6645	0.597	0.0534	-0.047
Mof_O 	O 	0.5516	0.642	0.0287	-0.018
Mof_O 	O 	0.597	0.6645	0.9466	-0.048
Mof_Cl	Cl	0.76838	0.76838	0.5	-0.221
Mof_O 	O 	0.7387	0.7273	0.5522	-0.049
Mof_O 	O 	0.7231	0.8422	0.508	-0.043
Mof_O 	O 	0.7273	0.7387	0.4478	-0.049
Mof_O 	O 	0.8422	0.7231	0.492	-0.043
Mof_Cl	Cl	0.37891	0.37891	0.5	-0.241
Mof_O 	O 	0.358	0.4484	0.4713	-0.018
Mof_O 	O 	0.3355	0.403	0.5534	-0.047
Mof_O 	O 	0.4484	0.358	0.5287	-0.018
Mof_O 	O 	0.403	0.3355	0.4466	-0.047
Mof_Cl	Cl	0.26838	0.73162	0.25	-0.221
Mof_O 	O 	0.2273	0.7613	0.3022	-0.049
Mof_O 	O 	0.3422	0.7769	0.258	-0.042
Mof_O 	O 	0.2387	0.7727	0.1978	-0.049
Mof_O 	O 	0.2231	0.6578	0.242	-0.042
Mof_Cl	Cl	0.87891	0.12109	0.25	-0.242
Mof_O 	O 	0.9484	0.142	0.2213	-0.017
Mof_O 	O 	0.903	0.1645	0.3034	-0.047
Mof_O 	O 	0.858	0.0516	0.2787	-0.017
Mof_O 	O 	0.8355	0.097	0.1966	-0.047
Mof_Cl	Cl	0.73162	0.26838	0.75	-0.221
Mof_O 	O 	0.7727	0.2387	0.8022	-0.049
Mof_O 	O 	0.6578	0.2231	0.758	-0.042
Mof_O 	O 	0.7613	0.2273	0.6978	-0.049
Mof_O 	O 	0.7769	0.3422	0.742	-0.042
Mof_Cl	Cl	0.12109	0.87891	0.75	-0.242
Mof_O 	O 	0.0516	0.858	0.7213	-0.017
Mof_O 	O 	0.097	0.8355	0.8034	-0.047
Mof_O 	O 	0.142	0.9484	0.7787	-0.017
Mof_O 	O 	0.1645	0.903	0.6966	-0.046
_end
