data_functionalizedCrystal
_audit_creation_method	'EQeq! by Chris Wilmer'
_symmetry_space_group_name_H-M	'P1'
_symmetry_Int_Tables_number	1
_symmetry_cell_setting	triclinic
loop_
_symmetry_equiv_pos_as_xyz
  x,y,z
_cell_length_a	11.4992
_cell_length_b	11.4992
_cell_length_c	12.7341
_cell_angle_alpha	90
_cell_angle_beta	90
_cell_angle_gamma	90
loop_
_atom_site_label
_atom_site_type_symbol
_atom_site_fract_x
_atom_site_fract_y
_atom_site_fract_z
_atom_site_charge
Mof_N 	N 	0.6987	0.5005	0.821	-0.207
Mof_N 	N 	0.7928	0.7029	0.911	-0.192
Mof_N 	N 	0.3966	0.5057	0.0855	-0.136
Mof_C 	C 	0.7899	0.5556	0.7807	0.001
Mof_H 	H 	0.8238	0.5257	0.7202	0.009
Mof_C 	C 	0.8374	0.6564	0.8249	0.008
Mof_H 	H 	0.9013	0.6913	0.7932	0.021
Mof_C 	C 	0.699	0.6488	0.9528	0.068
Mof_C 	C 	0.549	0.6525	0.0909	0.05
Mof_C 	C 	0.4963	0.5499	0.0434	-0.041
Mof_C 	C 	0.3553	0.4104	0.0433	-0.059
Mof_H 	H 	0.3777	0.2879	0.9292	0.009
Mof_N 	N 	0.3013	0.4995	0.321	-0.212
Mof_N 	N 	0.2072	0.2971	0.411	-0.192
Mof_N 	N 	0.6034	0.4943	0.5855	-0.151
Mof_C 	C 	0.2101	0.4444	0.2807	0.001
Mof_H 	H 	0.1762	0.4743	0.2202	0.007
Mof_C 	C 	0.1626	0.3436	0.3249	0.003
Mof_H 	H 	0.0987	0.3087	0.2932	0.019
Mof_C 	C 	0.301	0.3512	0.4528	0.014
Mof_C 	C 	0.451	0.3475	0.5909	0.028
Mof_C 	C 	0.5037	0.4501	0.5434	0.016
Mof_C 	C 	0.6447	0.5896	0.5433	0.007
Mof_H 	H 	0.6223	0.7121	0.4292	0.024
Mof_N 	N 	0.9995	0.1987	0.571	-0.212
Mof_N 	N 	0.7971	0.2928	0.661	-0.192
Mof_N 	N 	0.9943	0.8966	0.8355	-0.146
Mof_C 	C 	0.9444	0.2899	0.5307	0.003
Mof_H 	H 	0.9743	0.3238	0.4702	0.008
Mof_C 	C 	0.8436	0.3374	0.5749	0.004
Mof_H 	H 	0.8087	0.4013	0.5432	0.02
Mof_C 	C 	0.8512	0.199	0.7028	0.015
Mof_C 	C 	0.8475	0.049	0.8409	0.031
Mof_C 	C 	0.9501	0.9963	0.7934	0.022
Mof_C 	C 	0.0896	0.8553	0.7933	0.008
Mof_H 	H 	0.2121	0.8777	0.6792	0.025
Mof_N 	N 	0.0005	0.8013	0.071	-0.203
Mof_N 	N 	0.2029	0.7072	0.161	-0.199
Mof_N 	N 	0.0057	0.1034	0.3355	-0.151
Mof_C 	C 	0.0556	0.7101	0.0307	-0.073
Mof_H 	H 	0.0257	0.6762	0.9702	0.058
Mof_C 	C 	0.1564	0.6626	0.0749	0.035
Mof_H 	H 	0.1913	0.5987	0.0432	0.002
Mof_C 	C 	0.1488	0.801	0.2028	0.016
Mof_C 	C 	0.1525	0.951	0.3409	0.03
Mof_C 	C 	0.0499	0.0037	0.2934	0.013
Mof_C 	C 	0.9104	0.1447	0.2933	0.004
Mof_H 	H 	0.7879	0.1223	0.1792	0.018
Mof_N 	N 	0.8013	0.0005	0.929	-0.216
Mof_N 	N 	0.7072	0.2029	0.839	-0.184
Mof_N 	N 	0.1034	0.0057	0.6645	-0.153
Mof_C 	C 	0.7101	0.0556	0.9693	0.087
Mof_H 	H 	0.6762	0.0257	0.0298	-0.044
Mof_C 	C 	0.6626	0.1564	0.9251	-0.031
Mof_H 	H 	0.5987	0.1913	0.9568	0.042
Mof_C 	C 	0.801	0.1488	0.7972	0.014
Mof_C 	C 	0.951	0.1525	0.6591	0.031
Mof_C 	C 	0.0037	0.0499	0.7066	0.01
Mof_C 	C 	0.1447	0.9104	0.7067	0.014
Mof_H 	H 	0.1223	0.7879	0.8208	0.031
Mof_N 	N 	0.1987	0.9995	0.429	-0.211
Mof_N 	N 	0.2928	0.7971	0.339	-0.192
Mof_N 	N 	0.8966	0.9943	0.1645	-0.155
Mof_C 	C 	0.2899	0.9444	0.4693	0.002
Mof_H 	H 	0.3238	0.9743	0.5298	0.01
Mof_C 	C 	0.3374	0.8436	0.4251	0.004
Mof_H 	H 	0.4013	0.8087	0.4568	0.021
Mof_C 	C 	0.199	0.8512	0.2972	0.013
Mof_C 	C 	0.049	0.8475	0.1591	0.028
Mof_C 	C 	0.9963	0.9501	0.2066	0.008
Mof_C 	C 	0.8553	0.0896	0.2067	0.006
Mof_H 	H 	0.8777	0.2121	0.3208	0.023
Mof_N 	N 	0.5005	0.6987	0.179	-0.217
Mof_N 	N 	0.7029	0.7928	0.089	-0.189
Mof_N 	N 	0.5057	0.3966	0.9145	-0.167
Mof_C 	C 	0.5556	0.7899	0.2193	0.003
Mof_H 	H 	0.5257	0.8238	0.2798	0.008
Mof_C 	C 	0.6564	0.8374	0.1751	-0
Mof_H 	H 	0.6913	0.9013	0.2068	0.021
Mof_C 	C 	0.6488	0.699	0.0472	-0.037
Mof_C 	C 	0.6525	0.549	0.9091	0.004
Mof_C 	C 	0.5499	0.4963	0.9566	0.073
Mof_C 	C 	0.4104	0.3553	0.9567	0.074
Mof_H 	H 	0.2879	0.3777	0.0708	0.04
Mof_N 	N 	0.4995	0.3013	0.679	-0.212
Mof_N 	N 	0.2971	0.2072	0.589	-0.192
Mof_N 	N 	0.4943	0.6034	0.4145	-0.151
Mof_C 	C 	0.4444	0.2101	0.7193	0.003
Mof_H 	H 	0.4743	0.1762	0.7798	0.011
Mof_C 	C 	0.3436	0.1626	0.6751	0.005
Mof_H 	H 	0.3087	0.0987	0.7068	0.022
Mof_C 	C 	0.3512	0.301	0.5472	0.015
Mof_C 	C 	0.3475	0.451	0.4091	0.027
Mof_C 	C 	0.4501	0.5037	0.4566	0.015
Mof_C 	C 	0.5896	0.6447	0.4567	0.007
Mof_H 	H 	0.7121	0.6223	0.5708	0.025
Mof_Cu	Cu	0.64734	0.35266	0.75	0.861
Mof_Cu	Cu	0.35266	0.64734	0.25	0.86
Mof_Cu	Cu	0.14734	0.14734	0.5	0.859
Mof_Cu	Cu	0.85266	0.85266	-0	0.843
_end
