data_functionalizedCrystal
_audit_creation_method	'EQeq! by Chris Wilmer'
_symmetry_space_group_name_H-M	'P1'
_symmetry_Int_Tables_number	1
_symmetry_cell_setting	triclinic
loop_
_symmetry_equiv_pos_as_xyz
  x,y,z
_cell_length_a	10.3779
_cell_length_b	11.3829
_cell_length_c	22.3878
_cell_angle_alpha	90
_cell_angle_beta	97.399
_cell_angle_gamma	90
loop_
_atom_site_label
_atom_site_type_symbol
_atom_site_fract_x
_atom_site_fract_y
_atom_site_fract_z
_atom_site_charge
Mof_Pr	Pr	0.26224	0.08124	0.06469	2.236
Mof_Pr	Pr	0.89149	0.3085	0.27467	2.627
Mof_Pr	Pr	0.23776	0.58124	0.43531	2.248
Mof_Pr	Pr	0.60851	0.8085	0.22533	2.629
Mof_Pr	Pr	0.73776	0.91876	0.93531	2.236
Mof_Pr	Pr	0.10851	0.6915	0.72533	2.627
Mof_Pr	Pr	0.76224	0.41876	0.56469	2.248
Mof_Pr	Pr	0.39149	0.1915	0.77467	2.629
Mof_H 	H 	0.2043	0.2259	0.413	0.213
Mof_H 	H 	0.0933	0.1318	0.4094	0.212
Mof_H 	H 	0.2388	0.0929	0.424	0.218
Mof_H 	H 	0.8842	0.1759	0.731	0.224
Mof_H 	H 	0.9884	0.0891	0.7115	0.231
Mof_H 	H 	0.0143	0.2248	0.7121	0.22
Mof_H 	H 	0.3362	0.023	0.3361	0.122
Mof_H 	H 	0.8864	0.124	0.8383	0.127
Mof_H 	H 	0.2957	0.7259	0.087	0.216
Mof_H 	H 	0.4067	0.6318	0.0906	0.214
Mof_H 	H 	0.2612	0.5929	0.076	0.219
Mof_H 	H 	0.6158	0.6759	0.769	0.229
Mof_H 	H 	0.5116	0.5891	0.7885	0.235
Mof_H 	H 	0.4857	0.7248	0.7879	0.227
Mof_H 	H 	0.1638	0.523	0.1639	0.123
Mof_H 	H 	0.6136	0.624	0.6617	0.128
Mof_H 	H 	0.7957	0.7741	0.587	0.214
Mof_H 	H 	0.9067	0.8682	0.5906	0.213
Mof_H 	H 	0.7612	0.9071	0.576	0.218
Mof_H 	H 	0.1158	0.8241	0.269	0.224
Mof_H 	H 	0.0116	0.9109	0.2885	0.231
Mof_H 	H 	0.9857	0.7752	0.2879	0.22
Mof_H 	H 	0.6638	0.977	0.6639	0.122
Mof_H 	H 	0.1136	0.876	0.1617	0.127
Mof_H 	H 	0.7043	0.2741	0.913	0.216
Mof_H 	H 	0.5933	0.3682	0.9094	0.214
Mof_H 	H 	0.7388	0.4071	0.924	0.219
Mof_H 	H 	0.3842	0.3241	0.231	0.229
Mof_H 	H 	0.4884	0.4109	0.2115	0.235
Mof_H 	H 	0.5143	0.2752	0.2121	0.227
Mof_H 	H 	0.8362	0.477	0.8361	0.123
Mof_H 	H 	0.3864	0.376	0.3383	0.128
Mof_C 	C 	0.0831	0.1796	0.1807	0.472
Mof_C 	C 	0.1527	0.14	0.23868	-0.114
Mof_C 	C 	0.2576	0.0654	0.25293	-0.05
Mof_C 	C 	0.3392	0.9887	0.21831	0.449
Mof_C 	C 	0.1881	0.1314	0.3362	0.298
Mof_C 	C 	0.1804	0.1469	0.4014	-0.739
Mof_C 	C 	0.3048	0.1517	0.91282	0.482
Mof_C 	C 	0.1728	0.1487	0.87724	-0.1
Mof_C 	C 	0.0519	0.1306	0.89443	-0.054
Mof_C 	C 	0.9955	0.1172	0.95153	0.472
Mof_C 	C 	0.0373	0.1535	0.79542	0.315
Mof_C 	C 	0.9756	0.1616	0.7319	-0.748
Mof_C 	C 	0.7644	0.0409	0.28548	0.262
Mof_C 	C 	0.7038	0.087	0.22277	0.283
Mof_C 	C 	0.4169	0.6796	0.3193	0.475
Mof_C 	C 	0.3473	0.64	0.26132	-0.115
Mof_C 	C 	0.2424	0.5654	0.24707	-0.046
Mof_C 	C 	0.1608	0.4887	0.28169	0.446
Mof_C 	C 	0.3119	0.6314	0.1638	0.299
Mof_C 	C 	0.3196	0.6469	0.0986	-0.742
Mof_C 	C 	0.1952	0.6517	0.58718	0.484
Mof_C 	C 	0.3272	0.6487	0.62276	-0.103
Mof_C 	C 	0.4481	0.6306	0.60557	-0.049
Mof_C 	C 	0.5045	0.6172	0.54847	0.463
Mof_C 	C 	0.4627	0.6535	0.70458	0.324
Mof_C 	C 	0.5244	0.6616	0.7681	-0.767
Mof_C 	C 	0.7356	0.5409	0.21452	0.262
Mof_C 	C 	0.7962	0.587	0.27723	0.283
Mof_C 	C 	0.9169	0.8204	0.8193	0.472
Mof_C 	C 	0.8473	0.86	0.76132	-0.114
Mof_C 	C 	0.7424	0.9346	0.74707	-0.05
Mof_C 	C 	0.6608	0.0113	0.78169	0.449
Mof_C 	C 	0.8119	0.8686	0.6638	0.298
Mof_C 	C 	0.8196	0.8531	0.5986	-0.739
Mof_C 	C 	0.6952	0.8483	0.08718	0.482
Mof_C 	C 	0.8272	0.8513	0.12276	-0.1
Mof_C 	C 	0.9481	0.8694	0.10557	-0.054
Mof_C 	C 	0.0045	0.8828	0.04847	0.472
Mof_C 	C 	0.9627	0.8465	0.20458	0.315
Mof_C 	C 	0.0244	0.8384	0.2681	-0.748
Mof_C 	C 	0.2356	0.9591	0.71452	0.262
Mof_C 	C 	0.2962	0.913	0.77723	0.283
Mof_C 	C 	0.5831	0.3204	0.6807	0.475
Mof_C 	C 	0.6527	0.36	0.73868	-0.115
Mof_C 	C 	0.7576	0.4346	0.75293	-0.046
Mof_C 	C 	0.8392	0.5113	0.71831	0.446
Mof_C 	C 	0.6881	0.3686	0.8362	0.299
Mof_C 	C 	0.6804	0.3531	0.9014	-0.742
Mof_C 	C 	0.8048	0.3483	0.41282	0.484
Mof_C 	C 	0.6728	0.3513	0.37724	-0.103
Mof_C 	C 	0.5519	0.3694	0.39443	-0.049
Mof_C 	C 	0.4955	0.3828	0.45153	0.463
Mof_C 	C 	0.5373	0.3465	0.29542	0.324
Mof_C 	C 	0.4756	0.3384	0.2319	-0.767
Mof_C 	C 	0.2644	0.4591	0.78548	0.262
Mof_C 	C 	0.2038	0.413	0.72277	0.283
Mof_N 	N 	0.1102	0.1796	0.29132	-0.284
Mof_N 	N 	0.2768	0.0626	0.31455	-0.243
Mof_N 	N 	0.1623	0.1629	0.81567	-0.282
Mof_N 	N 	0.9692	0.1335	0.8415	-0.244
Mof_N 	N 	0.3898	0.6796	0.20868	-0.284
Mof_N 	N 	0.2232	0.5626	0.18545	-0.244
Mof_N 	N 	0.3377	0.6629	0.68433	-0.283
Mof_N 	N 	0.5308	0.6335	0.6585	-0.248
Mof_N 	N 	0.8898	0.8204	0.70868	-0.284
Mof_N 	N 	0.7232	0.9374	0.68545	-0.243
Mof_N 	N 	0.8377	0.8371	0.18433	-0.282
Mof_N 	N 	0.0308	0.8665	0.1585	-0.244
Mof_N 	N 	0.6102	0.3204	0.79132	-0.284
Mof_N 	N 	0.7768	0.4374	0.81455	-0.244
Mof_N 	N 	0.6623	0.3371	0.31567	-0.283
Mof_N 	N 	0.4692	0.3665	0.3415	-0.248
Mof_O 	O 	0.9788	0.2349	0.18248	-0.525
Mof_O 	O 	0.1281	0.1601	0.13268	-0.586
Mof_O 	O 	0.3144	0.9801	0.16217	-0.595
Mof_O 	O 	0.4262	0.9342	0.25037	-0.553
Mof_O 	O 	0.3992	0.1796	0.88507	-0.6
Mof_O 	O 	0.3195	0.1242	0.96708	-0.649
Mof_O 	O 	0.0628	0.1338	0.00083	-0.554
Mof_O 	O 	0.8759	0.0919	0.94556	-0.556
Mof_O 	O 	0.8419	0.1082	0.31586	-0.49
Mof_O 	O 	0.732	0.9404	0.3008	-0.483
Mof_O 	O 	0.731	0.1896	0.20969	-0.51
Mof_O 	O 	0.6314	0.0179	0.19075	-0.512
Mof_O 	O 	0.5212	0.7349	0.31752	-0.526
Mof_O 	O 	0.3719	0.6601	0.36732	-0.587
Mof_O 	O 	0.1856	0.4801	0.33783	-0.597
Mof_O 	O 	0.0738	0.4342	0.24963	-0.553
Mof_O 	O 	0.1008	0.6796	0.61493	-0.6
Mof_O 	O 	0.1805	0.6242	0.53292	-0.652
Mof_O 	O 	0.4372	0.6338	0.49917	-0.549
Mof_O 	O 	0.6241	0.5919	0.55444	-0.558
Mof_O 	O 	0.6581	0.6082	0.18414	-0.491
Mof_O 	O 	0.768	0.4404	0.1992	-0.483
Mof_O 	O 	0.769	0.6896	0.29031	-0.51
Mof_O 	O 	0.8686	0.5179	0.30925	-0.51
Mof_O 	O 	0.0212	0.7651	0.81752	-0.525
Mof_O 	O 	0.8719	0.8399	0.86732	-0.586
Mof_O 	O 	0.6856	0.0199	0.83783	-0.595
Mof_O 	O 	0.5738	0.0658	0.74963	-0.553
Mof_O 	O 	0.6008	0.8204	0.11493	-0.6
Mof_O 	O 	0.6805	0.8758	0.03292	-0.649
Mof_O 	O 	0.9372	0.8662	0.99917	-0.554
Mof_O 	O 	0.1241	0.9081	0.05444	-0.556
Mof_O 	O 	0.1581	0.8918	0.68414	-0.49
Mof_O 	O 	0.268	0.0596	0.6992	-0.483
Mof_O 	O 	0.269	0.8104	0.79031	-0.51
Mof_O 	O 	0.3686	0.9821	0.80925	-0.512
Mof_O 	O 	0.4788	0.2651	0.68248	-0.526
Mof_O 	O 	0.6281	0.3399	0.63268	-0.587
Mof_O 	O 	0.8144	0.5199	0.66217	-0.597
Mof_O 	O 	0.9262	0.5658	0.75037	-0.553
Mof_O 	O 	0.8992	0.3204	0.38507	-0.6
Mof_O 	O 	0.8195	0.3758	0.46708	-0.652
Mof_O 	O 	0.5628	0.3662	0.50083	-0.549
Mof_O 	O 	0.3759	0.4081	0.44556	-0.558
Mof_O 	O 	0.3419	0.3918	0.81586	-0.491
Mof_O 	O 	0.232	0.5596	0.8008	-0.483
Mof_O 	O 	0.231	0.3104	0.70969	-0.51
Mof_O 	O 	0.1314	0.4821	0.69075	-0.51
_end
