# CIF file generated by openbabel 3.1.0, see https://openbabel.org
data_I
_chemical_name_common 'image0'
_cell_length_a 10.929
_cell_length_b 16.586
_cell_length_c 19.396
_cell_angle_alpha 90
_cell_angle_beta 90
_cell_angle_gamma 90
_space_group_name_H-M_alt 'P 1'
_space_group_name_Hall 'P 1'
loop_
    _symmetry_equiv_pos_as_xyz
    x,y,z
loop_
    _atom_site_label
    _atom_site_type_symbol
    _atom_site_fract_x
    _atom_site_fract_y
    _atom_site_fract_z
    _atom_site_occupancy
    O1       O        0.36850    0.85360    0.18462    1.000
    O2       O        0.22230    0.84430    0.10860    1.000
    C1       C        0.48120    0.17590    0.00240    1.000
    H1       H        0.56840    0.18070    0.01100    1.000
    H2       H        0.46920    0.17150    0.95300    1.000
    C2       C        0.43350    0.10020    0.03730    1.000
    C3       C        0.48190    0.07540    0.09950    1.000
    H3       H        0.54080    0.10690    0.12120    1.000
    C4       C        0.44410    0.00480    0.12980    1.000
    H4       H        0.48010    0.98800    0.17080    1.000
    C5       C        0.35390    0.95880    0.10030    1.000
    C6       C        0.30310    0.98350    0.03810    1.000
    H5       H        0.24200    0.95280    0.01750    1.000
    C7       C        0.34310    0.05340    0.00670    1.000
    H6       H        0.30930    0.06930    0.96490    1.000
    C8       C        0.31300    0.88130    0.13290    1.000
    O3       O        0.13150    0.14640    0.68462    1.000
    O4       O        0.27770    0.15570    0.60860    1.000
    C9       C        0.01880    0.82410    0.50240    1.000
    H7       H        0.93160    0.81930    0.51100    1.000
    H8       H        0.03080    0.82850    0.45300    1.000
    C10      C        0.06650    0.89980    0.53730    1.000
    C11      C        0.01810    0.92460    0.59950    1.000
    H9       H        0.95920    0.89310    0.62120    1.000
    C12      C        0.05590    0.99520    0.62980    1.000
    H10      H        0.01990    0.01200    0.67080    1.000
    C13      C        0.14610    0.04120    0.60030    1.000
    C14      C        0.19690    0.01650    0.53810    1.000
    H11      H        0.25800    0.04720    0.51750    1.000
    C15      C        0.15690    0.94660    0.50670    1.000
    H12      H        0.19070    0.93070    0.46490    1.000
    C16      C        0.18700    0.11870    0.63290    1.000
    O5       O        0.63150    0.35360    0.81538    1.000
    O6       O        0.77770    0.34430    0.89140    1.000
    C17      C        0.51880    0.67590    0.99760    1.000
    H13      H        0.43160    0.68070    0.98900    1.000
    H14      H        0.53080    0.67150    0.04700    1.000
    C18      C        0.56650    0.60020    0.96270    1.000
    C19      C        0.51810    0.57540    0.90050    1.000
    H15      H        0.45920    0.60690    0.87880    1.000
    C20      C        0.55590    0.50480    0.87020    1.000
    H16      H        0.51990    0.48800    0.82920    1.000
    C21      C        0.64610    0.45880    0.89970    1.000
    C22      C        0.69690    0.48350    0.96190    1.000
    H17      H        0.75800    0.45280    0.98250    1.000
    C23      C        0.65690    0.55340    0.99330    1.000
    H18      H        0.69070    0.56930    0.03510    1.000
    C24      C        0.68700    0.38130    0.86710    1.000
    O7       O        0.86850    0.64640    0.31538    1.000
    O8       O        0.72230    0.65570    0.39140    1.000
    C25      C        0.98120    0.32410    0.49760    1.000
    H19      H        0.06840    0.31930    0.48900    1.000
    H20      H        0.96920    0.32850    0.54700    1.000
    C26      C        0.93350    0.39980    0.46270    1.000
    C27      C        0.98190    0.42460    0.40050    1.000
    H21      H        0.04080    0.39310    0.37880    1.000
    C28      C        0.94410    0.49520    0.37020    1.000
    H22      H        0.98010    0.51200    0.32920    1.000
    C29      C        0.85390    0.54120    0.39970    1.000
    C30      C        0.80310    0.51650    0.46190    1.000
    H23      H        0.74200    0.54720    0.48250    1.000
    C31      C        0.84310    0.44660    0.49330    1.000
    H24      H        0.80930    0.43070    0.53510    1.000
    C32      C        0.81300    0.61870    0.36710    1.000
    O9       O        0.63150    0.14640    0.81538    1.000
    O10      O        0.77770    0.15570    0.89140    1.000
    C33      C        0.51880    0.82410    0.99760    1.000
    H25      H        0.43160    0.81930    0.98900    1.000
    H26      H        0.53080    0.82850    0.04700    1.000
    C34      C        0.56650    0.89980    0.96270    1.000
    C35      C        0.51810    0.92460    0.90050    1.000
    H27      H        0.45920    0.89310    0.87880    1.000
    C36      C        0.55590    0.99520    0.87020    1.000
    H28      H        0.51990    0.01200    0.82920    1.000
    C37      C        0.64610    0.04120    0.89970    1.000
    C38      C        0.69690    0.01650    0.96190    1.000
    H29      H        0.75800    0.04720    0.98250    1.000
    C39      C        0.65690    0.94660    0.99330    1.000
    H30      H        0.69070    0.93070    0.03510    1.000
    C40      C        0.68700    0.11870    0.86710    1.000
    O11      O        0.86850    0.85360    0.31538    1.000
    O12      O        0.72230    0.84430    0.39140    1.000
    C41      C        0.98120    0.17590    0.49760    1.000
    H31      H        0.06840    0.18070    0.48900    1.000
    H32      H        0.96920    0.17150    0.54700    1.000
    C42      C        0.93350    0.10020    0.46270    1.000
    C43      C        0.98190    0.07540    0.40050    1.000
    H33      H        0.04080    0.10690    0.37880    1.000
    C44      C        0.94410    0.00480    0.37020    1.000
    H34      H        0.98010    0.98800    0.32920    1.000
    C45      C        0.85390    0.95880    0.39970    1.000
    C46      C        0.80310    0.98350    0.46190    1.000
    H35      H        0.74200    0.95280    0.48250    1.000
    C47      C        0.84310    0.05340    0.49330    1.000
    H36      H        0.80930    0.06930    0.53510    1.000
    C48      C        0.81300    0.88130    0.36710    1.000
    O13      O        0.36850    0.64640    0.18462    1.000
    O14      O        0.22230    0.65570    0.10860    1.000
    C49      C        0.48120    0.32410    0.00240    1.000
    H37      H        0.56840    0.31930    0.01100    1.000
    H38      H        0.46920    0.32850    0.95300    1.000
    C50      C        0.43350    0.39980    0.03730    1.000
    C51      C        0.48190    0.42460    0.09950    1.000
    H39      H        0.54080    0.39310    0.12120    1.000
    C52      C        0.44410    0.49520    0.12980    1.000
    H40      H        0.48010    0.51200    0.17080    1.000
    C53      C        0.35390    0.54120    0.10030    1.000
    C54      C        0.30310    0.51650    0.03810    1.000
    H41      H        0.24200    0.54720    0.01750    1.000
    C55      C        0.34310    0.44660    0.00670    1.000
    H42      H        0.30930    0.43070    0.96490    1.000
    C56      C        0.31300    0.61870    0.13290    1.000
    O15      O        0.13150    0.35360    0.68462    1.000
    O16      O        0.27770    0.34430    0.60860    1.000
    C57      C        0.01880    0.67590    0.50240    1.000
    H43      H        0.93160    0.68070    0.51100    1.000
    H44      H        0.03080    0.67150    0.45300    1.000
    C58      C        0.06650    0.60020    0.53730    1.000
    C59      C        0.01810    0.57540    0.59950    1.000
    H45      H        0.95920    0.60690    0.62120    1.000
    C60      C        0.05590    0.50480    0.62980    1.000
    H46      H        0.01990    0.48800    0.67080    1.000
    C61      C        0.14610    0.45880    0.60030    1.000
    C62      C        0.19690    0.48350    0.53810    1.000
    H47      H        0.25800    0.45280    0.51750    1.000
    C63      C        0.15690    0.55340    0.50670    1.000
    H48      H        0.19070    0.56930    0.46490    1.000
    C64      C        0.18700    0.38130    0.63290    1.000
    N1       N        0.41790    0.25000    0.02820    1.000
    Tb1      Tb       0.28820    0.25000    0.70407    1.000
    O17      O        0.18040    0.25000    0.80460    1.000
    O18      O        0.98570    0.25000    0.83270    1.000
    O19      O        0.34670    0.25000    0.15260    1.000
    H49      H        0.35480    0.25000    0.19460    1.000
    O20      O        0.14960    0.25000    0.18010    1.000
    C65      C        0.09560    0.25000    0.84750    1.000
    C66      C        0.13010    0.25000    0.92260    1.000
    C67      C        0.04150    0.25000    0.97350    1.000
    H50      H        0.95910    0.25000    0.96170    1.000
    C68      C        0.07650    0.25000    0.04230    1.000
    H51      H        0.01690    0.25000    0.07650    1.000
    C69      C        0.19990    0.25000    0.06070    1.000
    C70      C        0.28690    0.25000    0.00950    1.000
    C71      C        0.25270    0.25000    0.94010    1.000
    H52      H        0.31210    0.25000    0.90590    1.000
    C72      C        0.22890    0.25000    0.13700    1.000
    N2       N        0.08210    0.75000    0.52820    1.000
    Tb2      Tb       0.21180    0.75000    0.20407    1.000
    O21      O        0.31960    0.75000    0.30460    1.000
    O22      O        0.51430    0.75000    0.33270    1.000
    O23      O        0.15330    0.75000    0.65260    1.000
    H53      H        0.14520    0.75000    0.69460    1.000
    O24      O        0.35040    0.75000    0.68010    1.000
    C73      C        0.40440    0.75000    0.34750    1.000
    C74      C        0.36990    0.75000    0.42260    1.000
    C75      C        0.45850    0.75000    0.47350    1.000
    H54      H        0.54090    0.75000    0.46170    1.000
    C76      C        0.42350    0.75000    0.54230    1.000
    H55      H        0.48310    0.75000    0.57650    1.000
    C77      C        0.30010    0.75000    0.56070    1.000
    C78      C        0.21310    0.75000    0.50950    1.000
    C79      C        0.24730    0.75000    0.44010    1.000
    H56      H        0.18790    0.75000    0.40590    1.000
    C80      C        0.27110    0.75000    0.63700    1.000
    N3       N        0.58210    0.75000    0.97180    1.000
    Tb3      Tb       0.71180    0.75000    0.29593    1.000
    O25      O        0.81960    0.75000    0.19540    1.000
    O26      O        0.01430    0.75000    0.16730    1.000
    O27      O        0.65330    0.75000    0.84740    1.000
    H57      H        0.64520    0.75000    0.80540    1.000
    O28      O        0.85040    0.75000    0.81990    1.000
    C81      C        0.90440    0.75000    0.15250    1.000
    C82      C        0.86990    0.75000    0.07740    1.000
    C83      C        0.95850    0.75000    0.02650    1.000
    H58      H        0.04090    0.75000    0.03830    1.000
    C84      C        0.92350    0.75000    0.95770    1.000
    H59      H        0.98310    0.75000    0.92350    1.000
    C85      C        0.80010    0.75000    0.93930    1.000
    C86      C        0.71310    0.75000    0.99050    1.000
    C87      C        0.74730    0.75000    0.05990    1.000
    H60      H        0.68790    0.75000    0.09410    1.000
    C88      C        0.77110    0.75000    0.86300    1.000
    N4       N        0.91790    0.25000    0.47180    1.000
    Tb4      Tb       0.78820    0.25000    0.79593    1.000
    O29      O        0.68040    0.25000    0.69540    1.000
    O30      O        0.48570    0.25000    0.66730    1.000
    O31      O        0.84670    0.25000    0.34740    1.000
    H61      H        0.85480    0.25000    0.30540    1.000
    O32      O        0.64960    0.25000    0.31990    1.000
    C89      C        0.59560    0.25000    0.65250    1.000
    C90      C        0.63010    0.25000    0.57740    1.000
    C91      C        0.54150    0.25000    0.52650    1.000
    H62      H        0.45910    0.25000    0.53830    1.000
    C92      C        0.57650    0.25000    0.45770    1.000
    H63      H        0.51690    0.25000    0.42350    1.000
    C93      C        0.69990    0.25000    0.43930    1.000
    C94      C        0.78690    0.25000    0.49050    1.000
    C95      C        0.75270    0.25000    0.55990    1.000
    H64      H        0.81210    0.25000    0.59410    1.000
    C96      C        0.72890    0.25000    0.36300    1.000
