# CIF file generated by openbabel 3.1.0, see https://openbabel.org
data_I
_chemical_name_common 'image0'
_cell_length_a 35.8691
_cell_length_b 14.8864
_cell_length_c 31.2823
_cell_angle_alpha 90
_cell_angle_beta 102.711
_cell_angle_gamma 90
_space_group_name_H-M_alt 'P 1'
_space_group_name_Hall 'P 1'
loop_
    _symmetry_equiv_pos_as_xyz
    x,y,z
loop_
    _atom_site_label
    _atom_site_type_symbol
    _atom_site_fract_x
    _atom_site_fract_y
    _atom_site_fract_z
    _atom_site_occupancy
    Zn1      Zn       0.37745    0.40154    0.42929    1.000
    N1       N        0.64160    0.66220    0.32850    1.000
    C1       C        0.65360    0.71130    0.36490    1.000
    H1       H        0.67870    0.73570    0.37090    1.000
    C2       C        0.63000    0.72730    0.39390    1.000
    H2       H        0.63900    0.76200    0.41960    1.000
    C3       C        0.59360    0.69240    0.38510    1.000
    C4       C        0.58150    0.63980    0.34770    1.000
    H3       H        0.55680    0.61290    0.34130    1.000
    C5       C        0.60640    0.62830    0.32060    1.000
    H4       H        0.59810    0.59420    0.29460    1.000
    N2       N        0.42290    0.48970    0.43540    1.000
    C6       C        0.43790    0.53280    0.47190    1.000
    H5       H        0.42660    0.52500    0.49650    1.000
    C7       C        0.46880    0.58850    0.47600    1.000
    H6       H        0.47880    0.61800    0.50310    1.000
    C8       C        0.48510    0.60140    0.44100    1.000
    C9       C        0.46870    0.56120    0.40050    1.000
    H7       H        0.47860    0.57190    0.37520    1.000
    C10      C        0.43750    0.50580    0.39890    1.000
    H8       H        0.42590    0.47800    0.37190    1.000
    N3       N        0.56230    0.01090    0.55590    1.000
    C11      C        0.53210    0.95750    0.55130    1.000
    H9       H        0.51310    0.97060    0.56730    1.000
    C12      C        0.52720    0.88330    0.52400    1.000
    H10      H        0.50540    0.84600    0.52150    1.000
    C13      C        0.55480    0.86400    0.50030    1.000
    C14      C        0.58570    0.91900    0.50480    1.000
    H11      H        0.60530    0.90760    0.48930    1.000
    C15      C        0.58790    0.99380    0.53330    1.000
    H12      H        0.60910    0.03340    0.53610    1.000
    C16      C        0.56780    0.70700    0.41590    1.000
    N4       N        0.53935    0.64880    0.41310    1.000
    C17      C        0.51790    0.66150    0.44240    1.000
    N5       N        0.52294    0.72700    0.47301    1.000
    C18      C        0.55080    0.78400    0.47090    1.000
    N6       N        0.57450    0.77610    0.44370    1.000
    N7       N        0.33670    0.47020    0.38400    1.000
    C19      C        0.33090    0.55570    0.38860    1.000
    H13      H        0.34720    0.58670    0.41200    1.000
    C20      C        0.30230    0.60340    0.36120    1.000
    H14      H        0.29970    0.66620    0.36500    1.000
    C21      C        0.27750    0.55840    0.32810    1.000
    C22      C        0.28350    0.46820    0.32270    1.000
    H15      H        0.26690    0.43520    0.30030    1.000
    C23      C        0.31400    0.42590    0.35050    1.000
    H16      H        0.31900    0.36450    0.34580    1.000
    N8       N        0.11370    0.44990    0.14800    1.000
    C24      C        0.10740    0.53350    0.15770    1.000
    H17      H        0.08490    0.56180    0.14190    1.000
    C25      C        0.13150    0.58280    0.18950    1.000
    H18      H        0.12500    0.64220    0.19620    1.000
    C26      C        0.16530    0.54420    0.21140    1.000
    C27      C        0.17160    0.45550    0.20240    1.000
    H19      H        0.19350    0.42490    0.21850    1.000
    C28      C        0.14570    0.41160    0.16970    1.000
    H20      H        0.15100    0.35160    0.16260    1.000
    N9       N        0.18670    0.00820    0.28400    1.000
    C29      C        0.16170    0.95230    0.26030    1.000
    H21      H        0.13820    0.97570    0.24420    1.000
    C30      C        0.16860    0.86200    0.25800    1.000
    H22      H        0.15050    0.82470    0.23930    1.000
    C31      C        0.20150    0.82520    0.28260    1.000
    C32      C        0.22770    0.88220    0.30740    1.000
    H23      H        0.25100    0.85960    0.32450    1.000
    C33      C        0.21970    0.97370    0.30690    1.000
    H24      H        0.23810    0.01320    0.32350    1.000
    C34      C        0.24520    0.60520    0.29910    1.000
    N10      N        0.22278    0.55400    0.26880    1.000
    C35      C        0.19210    0.59610    0.24540    1.000
    N11      N        0.18361    0.68150    0.25000    1.000
    C36      C        0.20890    0.72730    0.27950    1.000
    N12      N        0.24017    0.69230    0.30560    1.000
    Zn2      Zn       0.67430    0.64340    0.27980    1.000
    Zn3      Zn       0.57117    0.11430    0.60168    1.000
    I1       I        0.73551    0.73180    0.30413    1.000
    I2       I        0.62806    0.67220    0.20501    1.000
    I3       I        0.39725    0.25970    0.39162    1.000
    I4       I        0.35589    0.39860    0.50040    1.000
    I5       I        0.60393    0.23754    0.56796    1.000
    I6       I        0.51377    0.13940    0.63440    1.000
    Zn4      Zn       0.67820    0.64820    0.28880    1.000
    Zn5      Zn       0.58610    0.12120    0.59370    1.000
    I7       I        0.74140    0.72640    0.31640    1.000
    I8       I        0.63760    0.68080    0.21380    1.000
    I9       I        0.38920    0.26440    0.39770    1.000
    I10      I        0.35300    0.41540    0.50350    1.000
    I11      I        0.62340    0.23260    0.56040    1.000
    I12      I        0.52880    0.15740    0.62490    1.000
    Zn6      Zn       0.87745    0.90154    0.42929    1.000
    N13      N        0.14160    0.16220    0.32850    1.000
    C37      C        0.15360    0.21130    0.36490    1.000
    H25      H        0.17870    0.23570    0.37090    1.000
    C38      C        0.13000    0.22730    0.39390    1.000
    H26      H        0.13900    0.26200    0.41960    1.000
    C39      C        0.09360    0.19240    0.38510    1.000
    C40      C        0.08150    0.13980    0.34770    1.000
    H27      H        0.05680    0.11290    0.34130    1.000
    C41      C        0.10640    0.12830    0.32060    1.000
    H28      H        0.09810    0.09420    0.29460    1.000
    N14      N        0.92290    0.98970    0.43540    1.000
    C42      C        0.93790    0.03280    0.47190    1.000
    H29      H        0.92660    0.02500    0.49650    1.000
    C43      C        0.96880    0.08850    0.47600    1.000
    H30      H        0.97880    0.11800    0.50310    1.000
    C44      C        0.98510    0.10140    0.44100    1.000
    C45      C        0.96870    0.06120    0.40050    1.000
    H31      H        0.97860    0.07190    0.37520    1.000
    C46      C        0.93750    0.00580    0.39890    1.000
    H32      H        0.92590    0.97800    0.37190    1.000
    N15      N        0.06230    0.51090    0.55590    1.000
    C47      C        0.03210    0.45750    0.55130    1.000
    H33      H        0.01310    0.47060    0.56730    1.000
    C48      C        0.02720    0.38330    0.52400    1.000
    H34      H        0.00540    0.34600    0.52150    1.000
    C49      C        0.05480    0.36400    0.50030    1.000
    C50      C        0.08570    0.41900    0.50480    1.000
    H35      H        0.10530    0.40760    0.48930    1.000
    C51      C        0.08790    0.49380    0.53330    1.000
    H36      H        0.10910    0.53340    0.53610    1.000
    C52      C        0.06780    0.20700    0.41590    1.000
    N16      N        0.03935    0.14880    0.41310    1.000
    C53      C        0.01790    0.16150    0.44240    1.000
    N17      N        0.02294    0.22700    0.47301    1.000
    C54      C        0.05080    0.28400    0.47090    1.000
    N18      N        0.07450    0.27610    0.44370    1.000
    N19      N        0.83670    0.97020    0.38400    1.000
    C55      C        0.83090    0.05570    0.38860    1.000
    H37      H        0.84720    0.08670    0.41200    1.000
    C56      C        0.80230    0.10340    0.36120    1.000
    H38      H        0.79970    0.16620    0.36500    1.000
    C57      C        0.77750    0.05840    0.32810    1.000
    C58      C        0.78350    0.96820    0.32270    1.000
    H39      H        0.76690    0.93520    0.30030    1.000
    C59      C        0.81400    0.92590    0.35050    1.000
    H40      H        0.81900    0.86450    0.34580    1.000
    N20      N        0.61370    0.94990    0.14800    1.000
    C60      C        0.60740    0.03350    0.15770    1.000
    H41      H        0.58490    0.06180    0.14190    1.000
    C61      C        0.63150    0.08280    0.18950    1.000
    H42      H        0.62500    0.14220    0.19620    1.000
    C62      C        0.66530    0.04420    0.21140    1.000
    C63      C        0.67160    0.95550    0.20240    1.000
    H43      H        0.69350    0.92490    0.21850    1.000
    C64      C        0.64570    0.91160    0.16970    1.000
    H44      H        0.65100    0.85160    0.16260    1.000
    N21      N        0.68670    0.50820    0.28400    1.000
    C65      C        0.66170    0.45230    0.26030    1.000
    H45      H        0.63820    0.47570    0.24420    1.000
    C66      C        0.66860    0.36200    0.25800    1.000
    H46      H        0.65050    0.32470    0.23930    1.000
    C67      C        0.70150    0.32520    0.28260    1.000
    C68      C        0.72770    0.38220    0.30740    1.000
    H47      H        0.75100    0.35960    0.32450    1.000
    C69      C        0.71970    0.47370    0.30690    1.000
    H48      H        0.73810    0.51320    0.32350    1.000
    C70      C        0.74520    0.10520    0.29910    1.000
    N22      N        0.72278    0.05400    0.26880    1.000
    C71      C        0.69210    0.09610    0.24540    1.000
    N23      N        0.68361    0.18150    0.25000    1.000
    C72      C        0.70890    0.22730    0.27950    1.000
    N24      N        0.74017    0.19230    0.30560    1.000
    Zn7      Zn       0.17430    0.14340    0.27980    1.000
    Zn8      Zn       0.07117    0.61430    0.60168    1.000
    I13      I        0.23551    0.23180    0.30413    1.000
    I14      I        0.12806    0.17220    0.20501    1.000
    I15      I        0.89725    0.75970    0.39162    1.000
    I16      I        0.85589    0.89860    0.50040    1.000
    I17      I        0.10393    0.73754    0.56796    1.000
    I18      I        0.01377    0.63940    0.63440    1.000
    Zn9      Zn       0.17820    0.14820    0.28880    1.000
    Zn10     Zn       0.08610    0.62120    0.59370    1.000
    I19      I        0.24140    0.22640    0.31640    1.000
    I20      I        0.13760    0.18080    0.21380    1.000
    I21      I        0.88920    0.76440    0.39770    1.000
    I22      I        0.85300    0.91540    0.50350    1.000
    I23      I        0.12340    0.73260    0.56040    1.000
    I24      I        0.02880    0.65740    0.62490    1.000
    Zn11     Zn       0.37745    0.59846    0.92929    1.000
    N25      N        0.64160    0.33780    0.82850    1.000
    C73      C        0.65360    0.28870    0.86490    1.000
    H49      H        0.67870    0.26430    0.87090    1.000
    C74      C        0.63000    0.27270    0.89390    1.000
    H50      H        0.63900    0.23800    0.91960    1.000
    C75      C        0.59360    0.30760    0.88510    1.000
    C76      C        0.58150    0.36020    0.84770    1.000
    H51      H        0.55680    0.38710    0.84130    1.000
    C77      C        0.60640    0.37170    0.82060    1.000
    H52      H        0.59810    0.40580    0.79460    1.000
    N26      N        0.42290    0.51030    0.93540    1.000
    C78      C        0.43790    0.46720    0.97190    1.000
    H53      H        0.42660    0.47500    0.99650    1.000
    C79      C        0.46880    0.41150    0.97600    1.000
    H54      H        0.47880    0.38200    0.00310    1.000
    C80      C        0.48510    0.39860    0.94100    1.000
    C81      C        0.46870    0.43880    0.90050    1.000
    H55      H        0.47860    0.42810    0.87520    1.000
    C82      C        0.43750    0.49420    0.89890    1.000
    H56      H        0.42590    0.52200    0.87190    1.000
    N27      N        0.56230    0.98910    0.05590    1.000
    C83      C        0.53210    0.04250    0.05130    1.000
    H57      H        0.51310    0.02940    0.06730    1.000
    C84      C        0.52720    0.11670    0.02400    1.000
    H58      H        0.50540    0.15400    0.02150    1.000
    C85      C        0.55480    0.13600    0.00030    1.000
    C86      C        0.58570    0.08100    0.00480    1.000
    H59      H        0.60530    0.09240    0.98930    1.000
    C87      C        0.58790    0.00620    0.03330    1.000
    H60      H        0.60910    0.96660    0.03610    1.000
    C88      C        0.56780    0.29300    0.91590    1.000
    N28      N        0.53935    0.35120    0.91310    1.000
    C89      C        0.51790    0.33850    0.94240    1.000
    N29      N        0.52294    0.27300    0.97301    1.000
    C90      C        0.55080    0.21600    0.97090    1.000
    N30      N        0.57450    0.22390    0.94370    1.000
    N31      N        0.33670    0.52980    0.88400    1.000
    C91      C        0.33090    0.44430    0.88860    1.000
    H61      H        0.34720    0.41330    0.91200    1.000
    C92      C        0.30230    0.39660    0.86120    1.000
    H62      H        0.29970    0.33380    0.86500    1.000
    C93      C        0.27750    0.44160    0.82810    1.000
    C94      C        0.28350    0.53180    0.82270    1.000
    H63      H        0.26690    0.56480    0.80030    1.000
    C95      C        0.31400    0.57410    0.85050    1.000
    H64      H        0.31900    0.63550    0.84580    1.000
    N32      N        0.11370    0.55010    0.64800    1.000
    C96      C        0.10740    0.46650    0.65770    1.000
    H65      H        0.08490    0.43820    0.64190    1.000
    C97      C        0.13150    0.41720    0.68950    1.000
    H66      H        0.12500    0.35780    0.69620    1.000
    C98      C        0.16530    0.45580    0.71140    1.000
    C99      C        0.17160    0.54450    0.70240    1.000
    H67      H        0.19350    0.57510    0.71850    1.000
    C100     C        0.14570    0.58840    0.66970    1.000
    H68      H        0.15100    0.64840    0.66260    1.000
    N33      N        0.18670    0.99180    0.78400    1.000
    C101     C        0.16170    0.04770    0.76030    1.000
    H69      H        0.13820    0.02430    0.74420    1.000
    C102     C        0.16860    0.13800    0.75800    1.000
    H70      H        0.15050    0.17530    0.73930    1.000
    C103     C        0.20150    0.17480    0.78260    1.000
    C104     C        0.22770    0.11780    0.80740    1.000
    H71      H        0.25100    0.14040    0.82450    1.000
    C105     C        0.21970    0.02630    0.80690    1.000
    H72      H        0.23810    0.98680    0.82350    1.000
    C106     C        0.24520    0.39480    0.79910    1.000
    N34      N        0.22278    0.44600    0.76880    1.000
    C107     C        0.19210    0.40390    0.74540    1.000
    N35      N        0.18361    0.31850    0.75000    1.000
    C108     C        0.20890    0.27270    0.77950    1.000
    N36      N        0.24017    0.30770    0.80560    1.000
    Zn12     Zn       0.67430    0.35660    0.77980    1.000
    Zn13     Zn       0.57117    0.88570    0.10168    1.000
    I25      I        0.73551    0.26820    0.80413    1.000
    I26      I        0.62806    0.32780    0.70501    1.000
    I27      I        0.39725    0.74030    0.89162    1.000
    I28      I        0.35589    0.60140    0.00040    1.000
    I29      I        0.60393    0.76246    0.06796    1.000
    I30      I        0.51377    0.86060    0.13440    1.000
    Zn14     Zn       0.67820    0.35180    0.78880    1.000
    Zn15     Zn       0.58610    0.87880    0.09370    1.000
    I31      I        0.74140    0.27360    0.81640    1.000
    I32      I        0.63760    0.31920    0.71380    1.000
    I33      I        0.38920    0.73560    0.89770    1.000
    I34      I        0.35300    0.58460    0.00350    1.000
    I35      I        0.62340    0.76740    0.06040    1.000
    I36      I        0.52880    0.84260    0.12490    1.000
    Zn16     Zn       0.87745    0.09846    0.92929    1.000
    N37      N        0.14160    0.83780    0.82850    1.000
    C109     C        0.15360    0.78870    0.86490    1.000
    H73      H        0.17870    0.76430    0.87090    1.000
    C110     C        0.13000    0.77270    0.89390    1.000
    H74      H        0.13900    0.73800    0.91960    1.000
    C111     C        0.09360    0.80760    0.88510    1.000
    C112     C        0.08150    0.86020    0.84770    1.000
    H75      H        0.05680    0.88710    0.84130    1.000
    C113     C        0.10640    0.87170    0.82060    1.000
    H76      H        0.09810    0.90580    0.79460    1.000
    N38      N        0.92290    0.01030    0.93540    1.000
    C114     C        0.93790    0.96720    0.97190    1.000
    H77      H        0.92660    0.97500    0.99650    1.000
    C115     C        0.96880    0.91150    0.97600    1.000
    H78      H        0.97880    0.88200    0.00310    1.000
    C116     C        0.98510    0.89860    0.94100    1.000
    C117     C        0.96870    0.93880    0.90050    1.000
    H79      H        0.97860    0.92810    0.87520    1.000
    C118     C        0.93750    0.99420    0.89890    1.000
    H80      H        0.92590    0.02200    0.87190    1.000
    N39      N        0.06230    0.48910    0.05590    1.000
    C119     C        0.03210    0.54250    0.05130    1.000
    H81      H        0.01310    0.52940    0.06730    1.000
    C120     C        0.02720    0.61670    0.02400    1.000
    H82      H        0.00540    0.65400    0.02150    1.000
    C121     C        0.05480    0.63600    0.00030    1.000
    C122     C        0.08570    0.58100    0.00480    1.000
    H83      H        0.10530    0.59240    0.98930    1.000
    C123     C        0.08790    0.50620    0.03330    1.000
    H84      H        0.10910    0.46660    0.03610    1.000
    C124     C        0.06780    0.79300    0.91590    1.000
    N40      N        0.03935    0.85120    0.91310    1.000
    C125     C        0.01790    0.83850    0.94240    1.000
    N41      N        0.02294    0.77300    0.97301    1.000
    C126     C        0.05080    0.71600    0.97090    1.000
    N42      N        0.07450    0.72390    0.94370    1.000
    N43      N        0.83670    0.02980    0.88400    1.000
    C127     C        0.83090    0.94430    0.88860    1.000
    H85      H        0.84720    0.91330    0.91200    1.000
    C128     C        0.80230    0.89660    0.86120    1.000
    H86      H        0.79970    0.83380    0.86500    1.000
    C129     C        0.77750    0.94160    0.82810    1.000
    C130     C        0.78350    0.03180    0.82270    1.000
    H87      H        0.76690    0.06480    0.80030    1.000
    C131     C        0.81400    0.07410    0.85050    1.000
    H88      H        0.81900    0.13550    0.84580    1.000
    N44      N        0.61370    0.05010    0.64800    1.000
    C132     C        0.60740    0.96650    0.65770    1.000
    H89      H        0.58490    0.93820    0.64190    1.000
    C133     C        0.63150    0.91720    0.68950    1.000
    H90      H        0.62500    0.85780    0.69620    1.000
    C134     C        0.66530    0.95580    0.71140    1.000
    C135     C        0.67160    0.04450    0.70240    1.000
    H91      H        0.69350    0.07510    0.71850    1.000
    C136     C        0.64570    0.08840    0.66970    1.000
    H92      H        0.65100    0.14840    0.66260    1.000
    N45      N        0.68670    0.49180    0.78400    1.000
    C137     C        0.66170    0.54770    0.76030    1.000
    H93      H        0.63820    0.52430    0.74420    1.000
    C138     C        0.66860    0.63800    0.75800    1.000
    H94      H        0.65050    0.67530    0.73930    1.000
    C139     C        0.70150    0.67480    0.78260    1.000
    C140     C        0.72770    0.61780    0.80740    1.000
    H95      H        0.75100    0.64040    0.82450    1.000
    C141     C        0.71970    0.52630    0.80690    1.000
    H96      H        0.73810    0.48680    0.82350    1.000
    C142     C        0.74520    0.89480    0.79910    1.000
    N46      N        0.72278    0.94600    0.76880    1.000
    C143     C        0.69210    0.90390    0.74540    1.000
    N47      N        0.68361    0.81850    0.75000    1.000
    C144     C        0.70890    0.77270    0.77950    1.000
    N48      N        0.74017    0.80770    0.80560    1.000
    Zn17     Zn       0.17430    0.85660    0.77980    1.000
    Zn18     Zn       0.07117    0.38570    0.10168    1.000
    I37      I        0.23551    0.76820    0.80413    1.000
    I38      I        0.12806    0.82780    0.70501    1.000
    I39      I        0.89725    0.24030    0.89162    1.000
    I40      I        0.85589    0.10140    0.00040    1.000
    I41      I        0.10393    0.26246    0.06796    1.000
    I42      I        0.01377    0.36060    0.13440    1.000
    Zn19     Zn       0.17820    0.85180    0.78880    1.000
    Zn20     Zn       0.08610    0.37880    0.09370    1.000
    I43      I        0.24140    0.77360    0.81640    1.000
    I44      I        0.13760    0.81920    0.71380    1.000
    I45      I        0.88920    0.23560    0.89770    1.000
    I46      I        0.85300    0.08460    0.00350    1.000
    I47      I        0.12340    0.26740    0.06040    1.000
    I48      I        0.02880    0.34260    0.12490    1.000
    Zn21     Zn       0.62255    0.40154    0.07071    1.000
    N49      N        0.35840    0.66220    0.17150    1.000
    C145     C        0.34640    0.71130    0.13510    1.000
    H97      H        0.32130    0.73570    0.12910    1.000
    C146     C        0.37000    0.72730    0.10610    1.000
    H98      H        0.36100    0.76200    0.08040    1.000
    C147     C        0.40640    0.69240    0.11490    1.000
    C148     C        0.41850    0.63980    0.15230    1.000
    H99      H        0.44320    0.61290    0.15870    1.000
    C149     C        0.39360    0.62830    0.17940    1.000
    H100     H        0.40190    0.59420    0.20540    1.000
    N50      N        0.57710    0.48970    0.06460    1.000
    C150     C        0.56210    0.53280    0.02810    1.000
    H101     H        0.57340    0.52500    0.00350    1.000
    C151     C        0.53120    0.58850    0.02400    1.000
    H102     H        0.52120    0.61800    0.99690    1.000
    C152     C        0.51490    0.60140    0.05900    1.000
    C153     C        0.53130    0.56120    0.09950    1.000
    H103     H        0.52140    0.57190    0.12480    1.000
    C154     C        0.56250    0.50580    0.10110    1.000
    H104     H        0.57410    0.47800    0.12810    1.000
    N51      N        0.43770    0.01090    0.94410    1.000
    C155     C        0.46790    0.95750    0.94870    1.000
    H105     H        0.48690    0.97060    0.93270    1.000
    C156     C        0.47280    0.88330    0.97600    1.000
    H106     H        0.49460    0.84600    0.97850    1.000
    C157     C        0.44520    0.86400    0.99970    1.000
    C158     C        0.41430    0.91900    0.99520    1.000
    H107     H        0.39470    0.90760    0.01070    1.000
    C159     C        0.41210    0.99380    0.96670    1.000
    H108     H        0.39090    0.03340    0.96390    1.000
    C160     C        0.43220    0.70700    0.08410    1.000
    N52      N        0.46065    0.64880    0.08690    1.000
    C161     C        0.48210    0.66150    0.05760    1.000
    N53      N        0.47706    0.72700    0.02699    1.000
    C162     C        0.44920    0.78400    0.02910    1.000
    N54      N        0.42550    0.77610    0.05630    1.000
    N55      N        0.66330    0.47020    0.11600    1.000
    C163     C        0.66910    0.55570    0.11140    1.000
    H109     H        0.65280    0.58670    0.08800    1.000
    C164     C        0.69770    0.60340    0.13880    1.000
    H110     H        0.70030    0.66620    0.13500    1.000
    C165     C        0.72250    0.55840    0.17190    1.000
    C166     C        0.71650    0.46820    0.17730    1.000
    H111     H        0.73310    0.43520    0.19970    1.000
    C167     C        0.68600    0.42590    0.14950    1.000
    H112     H        0.68100    0.36450    0.15420    1.000
    N56      N        0.88630    0.44990    0.35200    1.000
    C168     C        0.89260    0.53350    0.34230    1.000
    H113     H        0.91510    0.56180    0.35810    1.000
    C169     C        0.86850    0.58280    0.31050    1.000
    H114     H        0.87500    0.64220    0.30380    1.000
    C170     C        0.83470    0.54420    0.28860    1.000
    C171     C        0.82840    0.45550    0.29760    1.000
    H115     H        0.80650    0.42490    0.28150    1.000
    C172     C        0.85430    0.41160    0.33030    1.000
    H116     H        0.84900    0.35160    0.33740    1.000
    N57      N        0.81330    0.00820    0.21600    1.000
    C173     C        0.83830    0.95230    0.23970    1.000
    H117     H        0.86180    0.97570    0.25580    1.000
    C174     C        0.83140    0.86200    0.24200    1.000
    H118     H        0.84950    0.82470    0.26070    1.000
    C175     C        0.79850    0.82520    0.21740    1.000
    C176     C        0.77230    0.88220    0.19260    1.000
    H119     H        0.74900    0.85960    0.17550    1.000
    C177     C        0.78030    0.97370    0.19310    1.000
    H120     H        0.76190    0.01320    0.17650    1.000
    C178     C        0.75480    0.60520    0.20090    1.000
    N58      N        0.77722    0.55400    0.23120    1.000
    C179     C        0.80790    0.59610    0.25460    1.000
    N59      N        0.81639    0.68150    0.25000    1.000
    C180     C        0.79110    0.72730    0.22050    1.000
    N60      N        0.75983    0.69230    0.19440    1.000
    Zn22     Zn       0.32570    0.64340    0.22020    1.000
    Zn23     Zn       0.42883    0.11430    0.89832    1.000
    I49      I        0.26449    0.73180    0.19587    1.000
    I50      I        0.37194    0.67220    0.29499    1.000
    I51      I        0.60275    0.25970    0.10838    1.000
    I52      I        0.64411    0.39860    0.99960    1.000
    I53      I        0.39607    0.23754    0.93204    1.000
    I54      I        0.48623    0.13940    0.86560    1.000
    Zn24     Zn       0.32180    0.64820    0.21120    1.000
    Zn25     Zn       0.41390    0.12120    0.90630    1.000
    I55      I        0.25860    0.72640    0.18360    1.000
    I56      I        0.36240    0.68080    0.28620    1.000
    I57      I        0.61080    0.26440    0.10230    1.000
    I58      I        0.64700    0.41540    0.99650    1.000
    I59      I        0.37660    0.23260    0.93960    1.000
    I60      I        0.47120    0.15740    0.87510    1.000
    Zn26     Zn       0.12255    0.90154    0.07071    1.000
    N61      N        0.85840    0.16220    0.17150    1.000
    C181     C        0.84640    0.21130    0.13510    1.000
    H121     H        0.82130    0.23570    0.12910    1.000
    C182     C        0.87000    0.22730    0.10610    1.000
    H122     H        0.86100    0.26200    0.08040    1.000
    C183     C        0.90640    0.19240    0.11490    1.000
    C184     C        0.91850    0.13980    0.15230    1.000
    H123     H        0.94320    0.11290    0.15870    1.000
    C185     C        0.89360    0.12830    0.17940    1.000
    H124     H        0.90190    0.09420    0.20540    1.000
    N62      N        0.07710    0.98970    0.06460    1.000
    C186     C        0.06210    0.03280    0.02810    1.000
    H125     H        0.07340    0.02500    0.00350    1.000
    C187     C        0.03120    0.08850    0.02400    1.000
    H126     H        0.02120    0.11800    0.99690    1.000
    C188     C        0.01490    0.10140    0.05900    1.000
    C189     C        0.03130    0.06120    0.09950    1.000
    H127     H        0.02140    0.07190    0.12480    1.000
    C190     C        0.06250    0.00580    0.10110    1.000
    H128     H        0.07410    0.97800    0.12810    1.000
    N63      N        0.93770    0.51090    0.94410    1.000
    C191     C        0.96790    0.45750    0.94870    1.000
    H129     H        0.98690    0.47060    0.93270    1.000
    C192     C        0.97280    0.38330    0.97600    1.000
    H130     H        0.99460    0.34600    0.97850    1.000
    C193     C        0.94520    0.36400    0.99970    1.000
    C194     C        0.91430    0.41900    0.99520    1.000
    H131     H        0.89470    0.40760    0.01070    1.000
    C195     C        0.91210    0.49380    0.96670    1.000
    H132     H        0.89090    0.53340    0.96390    1.000
    C196     C        0.93220    0.20700    0.08410    1.000
    N64      N        0.96065    0.14880    0.08690    1.000
    C197     C        0.98210    0.16150    0.05760    1.000
    N65      N        0.97706    0.22700    0.02699    1.000
    C198     C        0.94920    0.28400    0.02910    1.000
    N66      N        0.92550    0.27610    0.05630    1.000
    N67      N        0.16330    0.97020    0.11600    1.000
    C199     C        0.16910    0.05570    0.11140    1.000
    H133     H        0.15280    0.08670    0.08800    1.000
    C200     C        0.19770    0.10340    0.13880    1.000
    H134     H        0.20030    0.16620    0.13500    1.000
    C201     C        0.22250    0.05840    0.17190    1.000
    C202     C        0.21650    0.96820    0.17730    1.000
    H135     H        0.23310    0.93520    0.19970    1.000
    C203     C        0.18600    0.92590    0.14950    1.000
    H136     H        0.18100    0.86450    0.15420    1.000
    N68      N        0.38630    0.94990    0.35200    1.000
    C204     C        0.39260    0.03350    0.34230    1.000
    H137     H        0.41510    0.06180    0.35810    1.000
    C205     C        0.36850    0.08280    0.31050    1.000
    H138     H        0.37500    0.14220    0.30380    1.000
    C206     C        0.33470    0.04420    0.28860    1.000
    C207     C        0.32840    0.95550    0.29760    1.000
    H139     H        0.30650    0.92490    0.28150    1.000
    C208     C        0.35430    0.91160    0.33030    1.000
    H140     H        0.34900    0.85160    0.33740    1.000
    N69      N        0.31330    0.50820    0.21600    1.000
    C209     C        0.33830    0.45230    0.23970    1.000
    H141     H        0.36180    0.47570    0.25580    1.000
    C210     C        0.33140    0.36200    0.24200    1.000
    H142     H        0.34950    0.32470    0.26070    1.000
    C211     C        0.29850    0.32520    0.21740    1.000
    C212     C        0.27230    0.38220    0.19260    1.000
    H143     H        0.24900    0.35960    0.17550    1.000
    C213     C        0.28030    0.47370    0.19310    1.000
    H144     H        0.26190    0.51320    0.17650    1.000
    C214     C        0.25480    0.10520    0.20090    1.000
    N70      N        0.27722    0.05400    0.23120    1.000
    C215     C        0.30790    0.09610    0.25460    1.000
    N71      N        0.31639    0.18150    0.25000    1.000
    C216     C        0.29110    0.22730    0.22050    1.000
    N72      N        0.25983    0.19230    0.19440    1.000
    Zn27     Zn       0.82570    0.14340    0.22020    1.000
    Zn28     Zn       0.92883    0.61430    0.89832    1.000
    I61      I        0.76449    0.23180    0.19587    1.000
    I62      I        0.87194    0.17220    0.29499    1.000
    I63      I        0.10275    0.75970    0.10838    1.000
    I64      I        0.14411    0.89860    0.99960    1.000
    I65      I        0.89607    0.73754    0.93204    1.000
    I66      I        0.98623    0.63940    0.86560    1.000
    Zn29     Zn       0.82180    0.14820    0.21120    1.000
    Zn30     Zn       0.91390    0.62120    0.90630    1.000
    I67      I        0.75860    0.22640    0.18360    1.000
    I68      I        0.86240    0.18080    0.28620    1.000
    I69      I        0.11080    0.76440    0.10230    1.000
    I70      I        0.14700    0.91540    0.99650    1.000
    I71      I        0.87660    0.73260    0.93960    1.000
    I72      I        0.97120    0.65740    0.87510    1.000
    Zn31     Zn       0.62255    0.59846    0.57071    1.000
    N73      N        0.35840    0.33780    0.67150    1.000
    C217     C        0.34640    0.28870    0.63510    1.000
    H145     H        0.32130    0.26430    0.62910    1.000
    C218     C        0.37000    0.27270    0.60610    1.000
    H146     H        0.36100    0.23800    0.58040    1.000
    C219     C        0.40640    0.30760    0.61490    1.000
    C220     C        0.41850    0.36020    0.65230    1.000
    H147     H        0.44320    0.38710    0.65870    1.000
    C221     C        0.39360    0.37170    0.67940    1.000
    H148     H        0.40190    0.40580    0.70540    1.000
    N74      N        0.57710    0.51030    0.56460    1.000
    C222     C        0.56210    0.46720    0.52810    1.000
    H149     H        0.57340    0.47500    0.50350    1.000
    C223     C        0.53120    0.41150    0.52400    1.000
    H150     H        0.52120    0.38200    0.49690    1.000
    C224     C        0.51490    0.39860    0.55900    1.000
    C225     C        0.53130    0.43880    0.59950    1.000
    H151     H        0.52140    0.42810    0.62480    1.000
    C226     C        0.56250    0.49420    0.60110    1.000
    H152     H        0.57410    0.52200    0.62810    1.000
    N75      N        0.43770    0.98910    0.44410    1.000
    C227     C        0.46790    0.04250    0.44870    1.000
    H153     H        0.48690    0.02940    0.43270    1.000
    C228     C        0.47280    0.11670    0.47600    1.000
    H154     H        0.49460    0.15400    0.47850    1.000
    C229     C        0.44520    0.13600    0.49970    1.000
    C230     C        0.41430    0.08100    0.49520    1.000
    H155     H        0.39470    0.09240    0.51070    1.000
    C231     C        0.41210    0.00620    0.46670    1.000
    H156     H        0.39090    0.96660    0.46390    1.000
    C232     C        0.43220    0.29300    0.58410    1.000
    N76      N        0.46065    0.35120    0.58690    1.000
    C233     C        0.48210    0.33850    0.55760    1.000
    N77      N        0.47706    0.27300    0.52699    1.000
    C234     C        0.44920    0.21600    0.52910    1.000
    N78      N        0.42550    0.22390    0.55630    1.000
    N79      N        0.66330    0.52980    0.61600    1.000
    C235     C        0.66910    0.44430    0.61140    1.000
    H157     H        0.65280    0.41330    0.58800    1.000
    C236     C        0.69770    0.39660    0.63880    1.000
    H158     H        0.70030    0.33380    0.63500    1.000
    C237     C        0.72250    0.44160    0.67190    1.000
    C238     C        0.71650    0.53180    0.67730    1.000
    H159     H        0.73310    0.56480    0.69970    1.000
    C239     C        0.68600    0.57410    0.64950    1.000
    H160     H        0.68100    0.63550    0.65420    1.000
    N80      N        0.88630    0.55010    0.85200    1.000
    C240     C        0.89260    0.46650    0.84230    1.000
    H161     H        0.91510    0.43820    0.85810    1.000
    C241     C        0.86850    0.41720    0.81050    1.000
    H162     H        0.87500    0.35780    0.80380    1.000
    C242     C        0.83470    0.45580    0.78860    1.000
    C243     C        0.82840    0.54450    0.79760    1.000
    H163     H        0.80650    0.57510    0.78150    1.000
    C244     C        0.85430    0.58840    0.83030    1.000
    H164     H        0.84900    0.64840    0.83740    1.000
    N81      N        0.81330    0.99180    0.71600    1.000
    C245     C        0.83830    0.04770    0.73970    1.000
    H165     H        0.86180    0.02430    0.75580    1.000
    C246     C        0.83140    0.13800    0.74200    1.000
    H166     H        0.84950    0.17530    0.76070    1.000
    C247     C        0.79850    0.17480    0.71740    1.000
    C248     C        0.77230    0.11780    0.69260    1.000
    H167     H        0.74900    0.14040    0.67550    1.000
    C249     C        0.78030    0.02630    0.69310    1.000
    H168     H        0.76190    0.98680    0.67650    1.000
    C250     C        0.75480    0.39480    0.70090    1.000
    N82      N        0.77722    0.44600    0.73120    1.000
    C251     C        0.80790    0.40390    0.75460    1.000
    N83      N        0.81639    0.31850    0.75000    1.000
    C252     C        0.79110    0.27270    0.72050    1.000
    N84      N        0.75983    0.30770    0.69440    1.000
    Zn32     Zn       0.32570    0.35660    0.72020    1.000
    Zn33     Zn       0.42883    0.88570    0.39832    1.000
    I73      I        0.26449    0.26820    0.69587    1.000
    I74      I        0.37194    0.32780    0.79499    1.000
    I75      I        0.60275    0.74030    0.60838    1.000
    I76      I        0.64411    0.60140    0.49960    1.000
    I77      I        0.39607    0.76246    0.43204    1.000
    I78      I        0.48623    0.86060    0.36560    1.000
    Zn34     Zn       0.32180    0.35180    0.71120    1.000
    Zn35     Zn       0.41390    0.87880    0.40630    1.000
    I79      I        0.25860    0.27360    0.68360    1.000
    I80      I        0.36240    0.31920    0.78620    1.000
    I81      I        0.61080    0.73560    0.60230    1.000
    I82      I        0.64700    0.58460    0.49650    1.000
    I83      I        0.37660    0.76740    0.43960    1.000
    I84      I        0.47120    0.84260    0.37510    1.000
    Zn36     Zn       0.12255    0.09846    0.57071    1.000
    N85      N        0.85840    0.83780    0.67150    1.000
    C253     C        0.84640    0.78870    0.63510    1.000
    H169     H        0.82130    0.76430    0.62910    1.000
    C254     C        0.87000    0.77270    0.60610    1.000
    H170     H        0.86100    0.73800    0.58040    1.000
    C255     C        0.90640    0.80760    0.61490    1.000
    C256     C        0.91850    0.86020    0.65230    1.000
    H171     H        0.94320    0.88710    0.65870    1.000
    C257     C        0.89360    0.87170    0.67940    1.000
    H172     H        0.90190    0.90580    0.70540    1.000
    N86      N        0.07710    0.01030    0.56460    1.000
    C258     C        0.06210    0.96720    0.52810    1.000
    H173     H        0.07340    0.97500    0.50350    1.000
    C259     C        0.03120    0.91150    0.52400    1.000
    H174     H        0.02120    0.88200    0.49690    1.000
    C260     C        0.01490    0.89860    0.55900    1.000
    C261     C        0.03130    0.93880    0.59950    1.000
    H175     H        0.02140    0.92810    0.62480    1.000
    C262     C        0.06250    0.99420    0.60110    1.000
    H176     H        0.07410    0.02200    0.62810    1.000
    N87      N        0.93770    0.48910    0.44410    1.000
    C263     C        0.96790    0.54250    0.44870    1.000
    H177     H        0.98690    0.52940    0.43270    1.000
    C264     C        0.97280    0.61670    0.47600    1.000
    H178     H        0.99460    0.65400    0.47850    1.000
    C265     C        0.94520    0.63600    0.49970    1.000
    C266     C        0.91430    0.58100    0.49520    1.000
    H179     H        0.89470    0.59240    0.51070    1.000
    C267     C        0.91210    0.50620    0.46670    1.000
    H180     H        0.89090    0.46660    0.46390    1.000
    C268     C        0.93220    0.79300    0.58410    1.000
    N88      N        0.96065    0.85120    0.58690    1.000
    C269     C        0.98210    0.83850    0.55760    1.000
    N89      N        0.97706    0.77300    0.52699    1.000
    C270     C        0.94920    0.71600    0.52910    1.000
    N90      N        0.92550    0.72390    0.55630    1.000
    N91      N        0.16330    0.02980    0.61600    1.000
    C271     C        0.16910    0.94430    0.61140    1.000
    H181     H        0.15280    0.91330    0.58800    1.000
    C272     C        0.19770    0.89660    0.63880    1.000
    H182     H        0.20030    0.83380    0.63500    1.000
    C273     C        0.22250    0.94160    0.67190    1.000
    C274     C        0.21650    0.03180    0.67730    1.000
    H183     H        0.23310    0.06480    0.69970    1.000
    C275     C        0.18600    0.07410    0.64950    1.000
    H184     H        0.18100    0.13550    0.65420    1.000
    N92      N        0.38630    0.05010    0.85200    1.000
    C276     C        0.39260    0.96650    0.84230    1.000
    H185     H        0.41510    0.93820    0.85810    1.000
    C277     C        0.36850    0.91720    0.81050    1.000
    H186     H        0.37500    0.85780    0.80380    1.000
    C278     C        0.33470    0.95580    0.78860    1.000
    C279     C        0.32840    0.04450    0.79760    1.000
    H187     H        0.30650    0.07510    0.78150    1.000
    C280     C        0.35430    0.08840    0.83030    1.000
    H188     H        0.34900    0.14840    0.83740    1.000
    N93      N        0.31330    0.49180    0.71600    1.000
    C281     C        0.33830    0.54770    0.73970    1.000
    H189     H        0.36180    0.52430    0.75580    1.000
    C282     C        0.33140    0.63800    0.74200    1.000
    H190     H        0.34950    0.67530    0.76070    1.000
    C283     C        0.29850    0.67480    0.71740    1.000
    C284     C        0.27230    0.61780    0.69260    1.000
    H191     H        0.24900    0.64040    0.67550    1.000
    C285     C        0.28030    0.52630    0.69310    1.000
    H192     H        0.26190    0.48680    0.67650    1.000
    C286     C        0.25480    0.89480    0.70090    1.000
    N94      N        0.27722    0.94600    0.73120    1.000
    C287     C        0.30790    0.90390    0.75460    1.000
    N95      N        0.31639    0.81850    0.75000    1.000
    C288     C        0.29110    0.77270    0.72050    1.000
    N96      N        0.25983    0.80770    0.69440    1.000
    Zn37     Zn       0.82570    0.85660    0.72020    1.000
    Zn38     Zn       0.92883    0.38570    0.39832    1.000
    I85      I        0.76449    0.76820    0.69587    1.000
    I86      I        0.87194    0.82780    0.79499    1.000
    I87      I        0.10275    0.24030    0.60838    1.000
    I88      I        0.14411    0.10140    0.49960    1.000
    I89      I        0.89607    0.26246    0.43204    1.000
    I90      I        0.98623    0.36060    0.36560    1.000
    Zn39     Zn       0.82180    0.85180    0.71120    1.000
    Zn40     Zn       0.91390    0.37880    0.40630    1.000
    I91      I        0.75860    0.77360    0.68360    1.000
    I92      I        0.86240    0.81920    0.78620    1.000
    I93      I        0.11080    0.23560    0.60230    1.000
    I94      I        0.14700    0.08460    0.49650    1.000
    I95      I        0.87660    0.26740    0.43960    1.000
    I96      I        0.97120    0.34260    0.37510    1.000
