data_functionalizedCrystal
_audit_creation_method	'EQeq! by Chris Wilmer'
_symmetry_space_group_name_H-M	'P1'
_symmetry_Int_Tables_number	1
_symmetry_cell_setting	triclinic
loop_
_symmetry_equiv_pos_as_xyz
  x,y,z
_cell_length_a	13.913
_cell_length_b	16.774
_cell_length_c	16.774
_cell_angle_alpha	120
_cell_angle_beta	90
_cell_angle_gamma	90
loop_
_atom_site_label
_atom_site_type_symbol
_atom_site_fract_x
_atom_site_fract_y
_atom_site_fract_z
_atom_site_charge
Mof_Ni	Ni	0.39567	0.66667	0.33334	1.105
Mof_Ni	Ni	0.89567	0.33333	0.66666	1.105
Mof_Ni	Ni	0.60433	0.33333	0.66666	1.105
Mof_Ni	Ni	0.10433	0.66667	0.33334	1.105
Mof_H 	H 	0.8556	0.5701	0.771	0.083
Mof_H 	H 	0.9108	0.6806	0.6876	0.063
Mof_H 	H 	0.9108	0.007	0.3194	0.064
Mof_H 	H 	0.6313	0.1464	0.8736	0.029
Mof_H 	H 	0.0785	0.4253	0.6384	-0.008
Mof_H 	H 	0.5892	0.3124	0.3194	0.063
Mof_H 	H 	0.75	0.5878	0.4122	0.111
Mof_H 	H 	0.8556	0.229	0.7991	0.083
Mof_H 	H 	0.983	0.7844	0.9881	0.038
Mof_H 	H 	0.3846	0.5763	0.5124	0.098
Mof_H 	H 	0.5785	0.7869	0.3616	-0.007
Mof_H 	H 	0.1444	0.771	0.2009	0.084
Mof_H 	H 	0.3846	0.4876	0.0639	0.099
Mof_H 	H 	0.1154	0.9361	0.5124	0.098
Mof_H 	H 	0.4108	0.6876	0.6806	0.064
Mof_H 	H 	0.9215	0.5747	0.3616	-0.007
Mof_H 	H 	0.9215	0.7869	0.4253	-0.007
Mof_H 	H 	0.4108	0.993	0.3124	0.065
Mof_H 	H 	0.3687	0.8536	0.1264	0.03
Mof_H 	H 	0.1313	0.2728	0.1264	0.03
Mof_H 	H 	0.1154	0.5763	0.0639	0.099
Mof_H 	H 	0.75	0.8244	0.4122	0.112
Mof_H 	H 	0.3687	0.2728	0.1464	0.03
Mof_H 	H 	0.0785	0.2131	0.5747	-0.007
Mof_H 	H 	0.0892	0.993	0.6806	0.065
Mof_H 	H 	0.3556	0.771	0.5701	0.084
Mof_H 	H 	0.983	0.2037	0.2156	0.039
Mof_H 	H 	0.5785	0.6384	0.4253	-0.007
Mof_H 	H 	0.4215	0.2131	0.6384	-0.007
Mof_H 	H 	0.8846	0.4237	0.9361	0.099
Mof_H 	H 	0.25	0.1756	0.5878	0.112
Mof_H 	H 	0.8687	0.7272	0.8736	0.03
Mof_H 	H 	0.9108	0.3124	0.993	0.065
Mof_H 	H 	0.4215	0.4253	0.7869	-0.007
Mof_H 	H 	0.3846	0.9361	0.4237	0.098
Mof_H 	H 	0.517	0.2037	0.9881	0.039
Mof_H 	H 	0.8687	0.1464	0.2728	0.03
Mof_H 	H 	0.6444	0.5701	0.7991	0.084
Mof_H 	H 	0.4108	0.3194	0.007	0.064
Mof_H 	H 	0.25	0.4122	0.8244	0.112
Mof_H 	H 	0.483	0.9881	0.7844	0.039
Mof_H 	H 	0.9215	0.6384	0.2131	-0.007
Mof_H 	H 	0.517	0.0119	0.2156	0.039
Mof_H 	H 	0.5785	0.5747	0.2131	-0.007
Mof_H 	H 	0.4215	0.3616	0.5747	-0.007
Mof_H 	H 	0.6444	0.229	0.4299	0.084
Mof_H 	H 	0.8687	0.1264	0.8536	0.031
Mof_H 	H 	0.0892	0.3194	0.3124	0.064
Mof_H 	H 	0.3556	0.4299	0.2009	0.084
Mof_H 	H 	0.6313	0.7272	0.8536	0.03
Mof_H 	H 	0.0892	0.6876	0.007	0.065
Mof_H 	H 	0.1313	0.8736	0.1464	0.031
Mof_H 	H 	0.6444	0.2009	0.771	0.084
Mof_H 	H 	0.1444	0.4299	0.229	0.084
Mof_H 	H 	0.8556	0.2009	0.4299	0.084
Mof_H 	H 	0.017	0.9881	0.2037	0.039
Mof_H 	H 	0.6154	0.4237	0.4876	0.099
Mof_H 	H 	0.517	0.7844	0.7963	0.039
Mof_H 	H 	0.017	0.7963	0.7844	0.039
Mof_H 	H 	0.483	0.2156	0.2037	0.039
Mof_H 	H 	0.3687	0.8736	0.7272	0.03
Mof_H 	H 	0.5892	0.007	0.6876	0.065
Mof_H 	H 	0.1313	0.8536	0.7272	0.03
Mof_H 	H 	0.25	0.4122	0.5878	0.112
Mof_H 	H 	0.483	0.7963	0.0119	0.039
Mof_H 	H 	0.6154	0.0639	0.5763	0.098
Mof_H 	H 	0.0785	0.3616	0.7869	-0.007
Mof_H 	H 	0.017	0.2156	0.0119	0.039
Mof_H 	H 	0.8846	0.5124	0.5763	0.099
Mof_H 	H 	0.75	0.5878	0.1756	0.112
Mof_H 	H 	0.983	0.0119	0.7963	0.039
Mof_H 	H 	0.5892	0.6806	0.993	0.064
Mof_H 	H 	0.3556	0.7991	0.229	0.084
Mof_H 	H 	0.6154	0.5124	0.9361	0.099
Mof_H 	H 	0.8846	0.0639	0.4876	0.098
Mof_H 	H 	0.6313	0.1264	0.2728	0.03
Mof_H 	H 	0.1444	0.7991	0.5701	0.084
Mof_H 	H 	0.1154	0.4876	0.4237	0.099
Mof_C 	C 	0.9797	0.7211	0.9482	-0.032
Mof_C 	C 	0.0203	0.7729	0.7211	-0.032
Mof_C 	C 	0.5974	0.1834	0.4069	-0.113
Mof_C 	C 	0.4562	0.04	0.3356	-0.088
Mof_C 	C 	0.5896	0.192	0.8785	-0.01
Mof_C 	C 	0.25	0.1116	0.5558	-0.218
Mof_C 	C 	0.25	0.816	0.408	0.332
Mof_C 	C 	0.0358	0.5712	0.8976	0.06
Mof_C 	C 	0.0974	0.8166	0.2235	-0.112
Mof_C 	C 	0.9679	0.5344	0.8252	0.069
Mof_C 	C 	0.9642	0.4288	0.1024	0.06
Mof_C 	C 	0.4679	0.4656	0.2908	0.069
Mof_C 	C 	0.9026	0.5931	0.8166	-0.112
Mof_C 	C 	0.6711	0.9373	0.4956	0.164
Mof_C 	C 	0.5896	0.1215	0.3135	-0.01
Mof_C 	C 	0.9562	0.96	0.2956	-0.088
Mof_C 	C 	0.4797	0.7729	0.0518	-0.032
Mof_C 	C 	0.0438	0.2956	0.3356	-0.087
Mof_C 	C 	0.5358	0.6736	0.1024	0.06
Mof_C 	C 	0.5535	0.8094	0.4204	0.091
Mof_C 	C 	0.4104	0.808	0.1215	-0.01
Mof_C 	C 	0.4562	0.2956	0.96	-0.087
Mof_C 	C 	0.0321	0.7092	0.5344	0.069
Mof_C 	C 	0.75	0.408	0.592	0.332
Mof_C 	C 	0.1694	0.9679	0.5108	-0.151
Mof_C 	C 	0.9642	0.6736	0.5712	0.06
Mof_C 	C 	0.9104	0.1215	0.808	-0.01
Mof_C 	C 	0.0358	0.3264	0.4288	0.06
Mof_C 	C 	0.25	0.53955	0.46045	0.019
Mof_C 	C 	0.0974	0.7765	0.5931	-0.113
Mof_C 	C 	0.6694	0.4571	0.4892	-0.151
Mof_C 	C 	0.6711	0.5044	0.4417	0.164
Mof_C 	C 	0.5974	0.5931	0.7765	-0.113
Mof_C 	C 	0.5896	0.6865	0.808	-0.01
Mof_C 	C 	0.0896	0.808	0.6865	-0.01
Mof_C 	C 	0.5535	0.611	0.1906	0.091
Mof_C 	C 	0.5203	0.2271	0.9482	-0.032
Mof_C 	C 	0.75	0.184	0.592	0.332
Mof_C 	C 	0.6694	0.5108	0.9679	-0.151
Mof_C 	C 	0.8306	0.5108	0.5429	-0.151
Mof_C 	C 	0.9679	0.1748	0.7092	0.069
Mof_C 	C 	0.1694	0.5429	0.0321	-0.151
Mof_C 	C 	0.8289	0.5583	0.4956	0.164
Mof_C 	C 	0.4562	0.6644	0.7044	-0.087
Mof_C 	C 	0.25	0.53955	0.0791	0.019
Mof_C 	C 	0.4465	0.1906	0.5796	0.091
Mof_C 	C 	0.25	0.592	0.184	0.332
Mof_C 	C 	0.75	0.408	0.816	0.332
Mof_C 	C 	0.3306	0.9679	0.4571	-0.151
Mof_C 	C 	0.9465	0.5796	0.1906	0.091
Mof_C 	C 	0.9026	0.1834	0.7765	-0.112
Mof_C 	C 	0.75	0.46045	0.53955	0.019
Mof_C 	C 	0.0358	0.1024	0.6736	0.06
Mof_C 	C 	0.5438	0.96	0.6644	-0.088
Mof_C 	C 	0.4679	0.8252	0.5344	0.069
Mof_C 	C 	0.4104	0.3135	0.192	-0.01
Mof_C 	C 	0.3306	0.4892	0.0321	-0.151
Mof_C 	C 	0.5358	0.8976	0.5712	0.06
Mof_C 	C 	0.8289	0.9373	0.4417	0.164
Mof_C 	C 	0.8306	0.0321	0.4892	-0.151
Mof_C 	C 	0.4465	0.389	0.8094	0.091
Mof_C 	C 	0.3306	0.5429	0.5108	-0.151
Mof_C 	C 	0.5535	0.5796	0.389	0.091
Mof_C 	C 	0.6694	0.0321	0.5429	-0.151
Mof_C 	C 	0.9104	0.6865	0.8785	-0.01
Mof_C 	C 	0.9797	0.2271	0.2789	-0.032
Mof_C 	C 	0.9104	0.192	0.3135	-0.01
Mof_C 	C 	0.9465	0.8094	0.389	0.091
Mof_C 	C 	0.25	0.9209	0.46045	0.019
Mof_C 	C 	0.1711	0.0627	0.5583	0.164
Mof_C 	C 	0.0438	0.6644	0.96	-0.088
Mof_C 	C 	0.5438	0.7044	0.04	-0.087
Mof_C 	C 	0.75	0.5558	0.1116	-0.218
Mof_C 	C 	0.1694	0.4892	0.4571	-0.151
Mof_C 	C 	0.8306	0.4571	0.9679	-0.151
Mof_C 	C 	0.25	0.4442	0.8884	-0.218
Mof_C 	C 	0.1711	0.4417	0.5044	0.164
Mof_C 	C 	0.0535	0.1906	0.611	0.091
Mof_C 	C 	0.4026	0.4069	0.2235	-0.113
Mof_C 	C 	0.4026	0.8166	0.5931	-0.113
Mof_C 	C 	0.8289	0.5044	0.0627	0.164
Mof_C 	C 	0.9797	0.0518	0.7729	-0.032
Mof_C 	C 	0.0896	0.3135	0.1215	-0.01
Mof_C 	C 	0.5321	0.5344	0.7092	0.069
Mof_C 	C 	0.4642	0.1024	0.4288	0.06
Mof_C 	C 	0.5203	0.0518	0.2789	-0.032
Mof_C 	C 	0.4679	0.7092	0.1748	0.069
Mof_C 	C 	0.75	0.5558	0.4442	-0.219
Mof_C 	C 	0.1711	0.4956	0.9373	0.164
Mof_C 	C 	0.4026	0.7765	0.1834	-0.113
Mof_C 	C 	0.0896	0.8785	0.192	-0.01
Mof_C 	C 	0.3289	0.4956	0.5583	0.164
Mof_C 	C 	0.4797	0.2789	0.2271	-0.032
Mof_C 	C 	0.4104	0.8785	0.6865	-0.01
Mof_C 	C 	0.4642	0.3264	0.8976	0.06
Mof_C 	C 	0.9562	0.3356	0.04	-0.088
Mof_C 	C 	0.9562	0.7044	0.6644	-0.087
Mof_C 	C 	0.25	0.592	0.408	0.332
Mof_C 	C 	0.0321	0.8252	0.2908	0.069
Mof_C 	C 	0.4465	0.4204	0.611	0.091
Mof_C 	C 	0.3289	0.4417	0.9373	0.164
Mof_C 	C 	0.0203	0.9482	0.2271	-0.032
Mof_C 	C 	0.3289	0.0627	0.5044	0.164
Mof_C 	C 	0.0974	0.4069	0.1834	-0.112
Mof_C 	C 	0.5438	0.3356	0.2956	-0.087
Mof_C 	C 	0.4797	0.9482	0.7211	-0.032
Mof_C 	C 	0.4642	0.5712	0.6736	0.06
Mof_C 	C 	0.9026	0.2235	0.4069	-0.113
Mof_C 	C 	0.75	0.46045	0.9209	0.019
Mof_C 	C 	0.9465	0.611	0.4204	0.091
Mof_C 	C 	0.0535	0.4204	0.8094	0.091
Mof_C 	C 	0.0203	0.2789	0.0518	-0.032
Mof_C 	C 	0.5321	0.2908	0.8252	0.069
Mof_C 	C 	0.5974	0.2235	0.8166	-0.113
Mof_C 	C 	0.75	0.0791	0.53955	0.019
Mof_C 	C 	0.0535	0.389	0.5796	0.091
Mof_C 	C 	0.9679	0.2908	0.4656	0.069
Mof_C 	C 	0.6711	0.5583	0.0627	0.164
Mof_C 	C 	0.0321	0.4656	0.1748	0.069
Mof_C 	C 	0.5203	0.7211	0.7729	-0.032
Mof_C 	C 	0.75	0.8884	0.4442	-0.218
Mof_C 	C 	0.0438	0.04	0.7044	-0.088
Mof_C 	C 	0.9642	0.8976	0.3264	0.06
Mof_C 	C 	0.25	0.4442	0.5558	-0.219
Mof_C 	C 	0.5321	0.1748	0.4656	0.069
Mof_C 	C 	0.5358	0.4288	0.3264	0.06
Mof_N 	N 	0.4813	0.561	0.3316	-0.224
Mof_N 	N 	0.0187	0.561	0.2294	-0.224
Mof_N 	N 	0.0187	0.7706	0.3316	-0.224
Mof_N 	N 	0.0879	0.3898	0.504	-0.156
Mof_N 	N 	0.0879	0.496	0.8858	-0.156
Mof_N 	N 	0.4813	0.7706	0.439	-0.224
Mof_N 	N 	0.4121	0.496	0.6102	-0.156
Mof_N 	N 	0.5879	0.6102	0.1142	-0.156
Mof_N 	N 	0.4813	0.6684	0.2294	-0.224
Mof_N 	N 	0.9813	0.2294	0.6684	-0.224
Mof_N 	N 	0.0879	0.1142	0.6102	-0.156
Mof_N 	N 	0.9121	0.504	0.1142	-0.156
Mof_N 	N 	0.5879	0.8858	0.496	-0.156
Mof_N 	N 	0.5879	0.504	0.3898	-0.156
Mof_N 	N 	0.4121	0.3898	0.8858	-0.156
Mof_N 	N 	0.9121	0.8858	0.3898	-0.156
Mof_N 	N 	0.5187	0.3316	0.7706	-0.224
Mof_N 	N 	0.0187	0.6684	0.439	-0.224
Mof_N 	N 	0.9813	0.439	0.7706	-0.224
Mof_N 	N 	0.9813	0.3316	0.561	-0.224
Mof_N 	N 	0.5187	0.2294	0.561	-0.224
Mof_N 	N 	0.4121	0.1142	0.504	-0.156
Mof_N 	N 	0.5187	0.439	0.6684	-0.224
Mof_N 	N 	0.9121	0.6102	0.496	-0.156
Mof_O 	O 	0.1815	0.5746	0.3533	-0.41
Mof_O 	O 	0.8185	0.2213	0.5746	-0.41
Mof_O 	O 	0.3185	0.7787	0.3533	-0.41
Mof_O 	O 	0.6815	0.4254	0.7787	-0.41
Mof_O 	O 	0.6815	0.3533	0.5746	-0.41
Mof_O 	O 	0.8185	0.3533	0.7787	-0.41
Mof_O 	O 	0.1815	0.6467	0.2213	-0.41
Mof_O 	O 	0.3185	0.5746	0.2213	-0.41
Mof_O 	O 	0.8185	0.4254	0.6467	-0.41
Mof_O 	O 	0.6815	0.2213	0.6467	-0.41
Mof_O 	O 	0.3185	0.6467	0.4254	-0.41
Mof_O 	O 	0.1815	0.7787	0.4254	-0.41
_end
