data_functionalizedCrystal
_audit_creation_method	'EQeq! by Chris Wilmer'
_symmetry_space_group_name_H-M	'P1'
_symmetry_Int_Tables_number	1
_symmetry_cell_setting	triclinic
loop_
_symmetry_equiv_pos_as_xyz
  x,y,z
_cell_length_a	29.6024
_cell_length_b	13.478
_cell_length_c	13.3524
_cell_angle_alpha	90
_cell_angle_beta	96.594
_cell_angle_gamma	90
loop_
_atom_site_label
_atom_site_type_symbol
_atom_site_fract_x
_atom_site_fract_y
_atom_site_fract_z
_atom_site_charge
Mof_Eu	Eu	0.81385	0.20291	0.5414	2.243
Mof_C 	C 	0.89837	0.2403	0.4656	0.33
Mof_C 	C 	0.9435	0.2617	0.4315	-0.111
Mof_C 	C 	0.9601	0.3584	0.4369	0.044
Mof_H 	H 	0.9423	0.4091	0.4588	0.03
Mof_C 	C 	0.0031	0.38	0.4101	-0.128
Mof_H 	H 	0.0133	0.4453	0.4106	0.084
Mof_C 	C 	0.0308	0.3036	0.3826	0.086
Mof_C 	C 	0.0135	0.2071	0.3749	-0.132
Mof_H 	H 	0.0313	0.1561	0.3536	0.089
Mof_C 	C 	0.9701	0.1865	0.3989	0.049
Mof_H 	H 	0.9589	0.122	0.3931	0.031
Mof_C 	C 	0.0782	0.3202	0.3633	-0.018
Mof_H 	H 	0.09	0.259	0.332	0.052
Mof_C 	C 	0.24532	0.5695	0.4416	0.45
Mof_C 	C 	0.21452	0.4956	0.3841	-0.143
Mof_C 	C 	0.16891	0.4891	0.3974	-0.02
Mof_H 	H 	0.1564	0.5325	0.4408	0.039
Mof_C 	C 	0.14178	0.4169	0.3452	0.048
Mof_C 	C 	0.1603	0.3573	0.2742	-0.013
Mof_H 	H 	0.1421	0.3109	0.2371	0.055
Mof_C 	C 	0.20545	0.3672	0.2591	-0.14
Mof_C 	C 	0.23267	0.4355	0.3155	0.072
Mof_H 	H 	0.2633	0.4408	0.3069	0.031
Mof_C 	C 	0.22596	0.3057	0.181	0.498
Mof_C 	C 	0.8545	0.046	0.7527	0.19
Mof_C 	C 	0.8727	0.9819	0.6205	0.19
Mof_N 	N 	0.09563	0.4092	0.3637	-0.11
Mof_N 	N 	0.85466	0.0642	0.6538	-0.289
Mof_N 	N 	0.8704	0.956	0.7738	-0.162
Mof_H 	H 	0.874	0.925	0.842	0.136
Mof_N 	N 	0.8825	0.9116	0.6895	-0.104
Mof_N 	N 	0.8445	0.1089	0.8286	-0.135
Mof_O 	O 	0.88261	0.1521	0.4593	-0.428
Mof_O 	O 	0.87701	0.3087	0.5023	-0.468
Mof_O 	O 	0.22942	0.6499	0.4697	-0.656
Mof_O 	O 	0.28678	0.5494	0.4598	-0.483
Mof_O 	O 	0.20018	0.2436	0.1331	-0.523
Mof_O 	O 	0.26635	0.3236	0.1696	-0.568
Mof_N 	N 	0.888	0.9603	0.5301	-0.121
Mof_Eu	Eu	0.31385	0.70291	0.5414	2.245
Mof_C 	C 	0.39837	0.7403	0.4656	0.331
Mof_C 	C 	0.4435	0.7617	0.4315	-0.11
Mof_C 	C 	0.4601	0.8584	0.4369	0.045
Mof_H 	H 	0.4423	0.9091	0.4588	0.03
Mof_C 	C 	0.5031	0.88	0.4101	-0.128
Mof_H 	H 	0.5133	0.9453	0.4106	0.084
Mof_C 	C 	0.5308	0.8036	0.3826	0.086
Mof_C 	C 	0.5135	0.7071	0.3749	-0.132
Mof_H 	H 	0.5313	0.6561	0.3536	0.089
Mof_C 	C 	0.4701	0.6865	0.3989	0.049
Mof_H 	H 	0.4589	0.622	0.3931	0.031
Mof_C 	C 	0.5782	0.8202	0.3633	-0.018
Mof_H 	H 	0.59	0.759	0.332	0.052
Mof_C 	C 	0.74532	0.0695	0.4416	0.451
Mof_C 	C 	0.71452	0.9956	0.3841	-0.144
Mof_C 	C 	0.66891	0.9891	0.3974	-0.02
Mof_H 	H 	0.6564	0.0325	0.4408	0.04
Mof_C 	C 	0.64178	0.9169	0.3452	0.048
Mof_C 	C 	0.6603	0.8573	0.2742	-0.013
Mof_H 	H 	0.6421	0.8109	0.2371	0.055
Mof_C 	C 	0.70545	0.8672	0.2591	-0.14
Mof_C 	C 	0.73267	0.9355	0.3155	0.072
Mof_H 	H 	0.7633	0.9408	0.3069	0.031
Mof_C 	C 	0.72596	0.8057	0.181	0.497
Mof_C 	C 	0.3545	0.546	0.7527	0.191
Mof_C 	C 	0.3727	0.4819	0.6205	0.19
Mof_N 	N 	0.59563	0.9092	0.3637	-0.11
Mof_N 	N 	0.35466	0.5642	0.6538	-0.289
Mof_N 	N 	0.3704	0.456	0.7738	-0.163
Mof_H 	H 	0.374	0.425	0.842	0.136
Mof_N 	N 	0.3825	0.4116	0.6895	-0.104
Mof_N 	N 	0.3445	0.6089	0.8286	-0.134
Mof_O 	O 	0.38261	0.6521	0.4593	-0.428
Mof_O 	O 	0.37701	0.8087	0.5023	-0.468
Mof_O 	O 	0.72942	0.1499	0.4697	-0.656
Mof_O 	O 	0.78678	0.0494	0.4598	-0.483
Mof_O 	O 	0.70018	0.7436	0.1331	-0.524
Mof_O 	O 	0.76635	0.8236	0.1696	-0.568
Mof_N 	N 	0.388	0.4603	0.5301	-0.12
Mof_Eu	Eu	0.18615	0.20291	0.9586	2.241
Mof_C 	C 	0.10163	0.2403	0.0344	0.332
Mof_C 	C 	0.0565	0.2617	0.0685	-0.111
Mof_C 	C 	0.0399	0.3584	0.0631	0.046
Mof_H 	H 	0.0577	0.4091	0.0412	0.03
Mof_C 	C 	0.9969	0.38	0.0899	-0.129
Mof_H 	H 	0.9867	0.4453	0.0894	0.084
Mof_C 	C 	0.9692	0.3036	0.1174	0.087
Mof_C 	C 	0.9865	0.2071	0.1251	-0.133
Mof_H 	H 	0.9687	0.1561	0.1464	0.089
Mof_C 	C 	0.0299	0.1865	0.1011	0.05
Mof_H 	H 	0.0411	0.122	0.1069	0.031
Mof_C 	C 	0.9218	0.3202	0.1367	-0.018
Mof_H 	H 	0.91	0.259	0.168	0.052
Mof_C 	C 	0.75468	0.5695	0.0584	0.45
Mof_C 	C 	0.78548	0.4956	0.1159	-0.143
Mof_C 	C 	0.83109	0.4891	0.1026	-0.02
Mof_H 	H 	0.8436	0.5325	0.0592	0.04
Mof_C 	C 	0.85822	0.4169	0.1548	0.048
Mof_C 	C 	0.8397	0.3573	0.2258	-0.013
Mof_H 	H 	0.8579	0.3109	0.2629	0.055
Mof_C 	C 	0.79455	0.3672	0.2409	-0.14
Mof_C 	C 	0.76733	0.4355	0.1845	0.072
Mof_H 	H 	0.7367	0.4408	0.1931	0.031
Mof_C 	C 	0.77404	0.3057	0.319	0.498
Mof_C 	C 	0.1455	0.046	0.7473	0.19
Mof_C 	C 	0.1273	0.9819	0.8795	0.191
Mof_N 	N 	0.90437	0.4092	0.1363	-0.11
Mof_N 	N 	0.14534	0.0642	0.8462	-0.29
Mof_N 	N 	0.1296	0.956	0.7262	-0.162
Mof_H 	H 	0.126	0.925	0.658	0.136
Mof_N 	N 	0.1175	0.9116	0.8105	-0.104
Mof_N 	N 	0.1555	0.1089	0.6714	-0.134
Mof_O 	O 	0.11739	0.1521	0.0407	-0.427
Mof_O 	O 	0.12299	0.3087	0.9977	-0.469
Mof_O 	O 	0.77058	0.6499	0.0303	-0.656
Mof_O 	O 	0.71322	0.5494	0.0402	-0.483
Mof_O 	O 	0.79982	0.2436	0.3669	-0.523
Mof_O 	O 	0.73365	0.3236	0.3304	-0.568
Mof_N 	N 	0.112	0.9603	0.9699	-0.12
Mof_Eu	Eu	0.68615	0.70291	0.9586	2.247
Mof_C 	C 	0.60163	0.7403	0.0344	0.329
Mof_C 	C 	0.5565	0.7617	0.0685	-0.11
Mof_C 	C 	0.5399	0.8584	0.0631	0.044
Mof_H 	H 	0.5577	0.9091	0.0412	0.03
Mof_C 	C 	0.4969	0.88	0.0899	-0.127
Mof_H 	H 	0.4867	0.9453	0.0894	0.083
Mof_C 	C 	0.4692	0.8036	0.1174	0.086
Mof_C 	C 	0.4865	0.7071	0.1251	-0.132
Mof_H 	H 	0.4687	0.6561	0.1464	0.089
Mof_C 	C 	0.5299	0.6865	0.1011	0.049
Mof_H 	H 	0.5411	0.622	0.1069	0.032
Mof_C 	C 	0.4218	0.8202	0.1367	-0.018
Mof_H 	H 	0.41	0.759	0.168	0.052
Mof_C 	C 	0.25468	0.0695	0.0584	0.451
Mof_C 	C 	0.28548	0.9956	0.1159	-0.144
Mof_C 	C 	0.33109	0.9891	0.1026	-0.024
Mof_H 	H 	0.3436	0.0325	0.0592	0.042
Mof_C 	C 	0.35822	0.9169	0.1548	0.049
Mof_C 	C 	0.3397	0.8573	0.2258	-0.013
Mof_H 	H 	0.3579	0.8109	0.2629	0.055
Mof_C 	C 	0.29455	0.8672	0.2409	-0.14
Mof_C 	C 	0.26733	0.9355	0.1845	0.072
Mof_H 	H 	0.2367	0.9408	0.1931	0.03
Mof_C 	C 	0.27404	0.8057	0.319	0.497
Mof_C 	C 	0.6455	0.546	0.7473	0.191
Mof_C 	C 	0.6273	0.4819	0.8795	0.19
Mof_N 	N 	0.40437	0.9092	0.1363	-0.11
Mof_N 	N 	0.64534	0.5642	0.8462	-0.289
Mof_N 	N 	0.6296	0.456	0.7262	-0.163
Mof_H 	H 	0.626	0.425	0.658	0.136
Mof_N 	N 	0.6175	0.4116	0.8105	-0.104
Mof_N 	N 	0.6555	0.6089	0.6714	-0.134
Mof_O 	O 	0.61739	0.6521	0.0407	-0.428
Mof_O 	O 	0.62299	0.8087	0.9977	-0.467
Mof_O 	O 	0.27058	0.1499	0.0303	-0.656
Mof_O 	O 	0.21322	0.0494	0.0402	-0.482
Mof_O 	O 	0.29982	0.7436	0.3669	-0.523
Mof_O 	O 	0.23365	0.8236	0.3304	-0.568
Mof_N 	N 	0.612	0.4603	0.9699	-0.12
Mof_Eu	Eu	0.18615	0.79709	0.4586	2.244
Mof_C 	C 	0.10163	0.7597	0.5344	0.331
Mof_C 	C 	0.0565	0.7383	0.5685	-0.11
Mof_C 	C 	0.0399	0.6416	0.5631	0.045
Mof_H 	H 	0.0577	0.5909	0.5412	0.03
Mof_C 	C 	0.9969	0.62	0.5899	-0.128
Mof_H 	H 	0.9867	0.5547	0.5894	0.084
Mof_C 	C 	0.9692	0.6964	0.6174	0.086
Mof_C 	C 	0.9865	0.7929	0.6251	-0.132
Mof_H 	H 	0.9687	0.8439	0.6464	0.089
Mof_C 	C 	0.0299	0.8135	0.6011	0.049
Mof_H 	H 	0.0411	0.878	0.6069	0.031
Mof_C 	C 	0.9218	0.6798	0.6367	-0.018
Mof_H 	H 	0.91	0.741	0.668	0.052
Mof_C 	C 	0.75468	0.4305	0.5584	0.45
Mof_C 	C 	0.78548	0.5044	0.6159	-0.143
Mof_C 	C 	0.83109	0.5109	0.6026	-0.02
Mof_H 	H 	0.8436	0.4675	0.5592	0.039
Mof_C 	C 	0.85822	0.5831	0.6548	0.048
Mof_C 	C 	0.8397	0.6427	0.7258	-0.013
Mof_H 	H 	0.8579	0.6891	0.7629	0.055
Mof_C 	C 	0.79455	0.6328	0.7409	-0.14
Mof_C 	C 	0.76733	0.5645	0.6845	0.072
Mof_H 	H 	0.7367	0.5592	0.6931	0.031
Mof_C 	C 	0.77404	0.6943	0.819	0.498
Mof_C 	C 	0.1455	0.954	0.2473	0.19
Mof_C 	C 	0.1273	0.0181	0.3795	0.19
Mof_N 	N 	0.90437	0.5908	0.6363	-0.11
Mof_N 	N 	0.14534	0.9358	0.3462	-0.289
Mof_N 	N 	0.1296	0.044	0.2262	-0.162
Mof_H 	H 	0.126	0.075	0.158	0.136
Mof_N 	N 	0.1175	0.0884	0.3105	-0.104
Mof_N 	N 	0.1555	0.8911	0.1714	-0.135
Mof_O 	O 	0.11739	0.8479	0.5407	-0.428
Mof_O 	O 	0.12299	0.6913	0.4977	-0.468
Mof_O 	O 	0.77058	0.3501	0.5303	-0.656
Mof_O 	O 	0.71322	0.4506	0.5402	-0.483
Mof_O 	O 	0.79982	0.7564	0.8669	-0.523
Mof_O 	O 	0.73365	0.6764	0.8304	-0.568
Mof_N 	N 	0.112	0.0397	0.4699	-0.121
Mof_Eu	Eu	0.68615	0.29709	0.4586	2.245
Mof_C 	C 	0.60163	0.2597	0.5344	0.331
Mof_C 	C 	0.5565	0.2383	0.5685	-0.11
Mof_C 	C 	0.5399	0.1416	0.5631	0.045
Mof_H 	H 	0.5577	0.0909	0.5412	0.03
Mof_C 	C 	0.4969	0.12	0.5899	-0.128
Mof_H 	H 	0.4867	0.0547	0.5894	0.084
Mof_C 	C 	0.4692	0.1964	0.6174	0.086
Mof_C 	C 	0.4865	0.2929	0.6251	-0.132
Mof_H 	H 	0.4687	0.3439	0.6464	0.089
Mof_C 	C 	0.5299	0.3135	0.6011	0.049
Mof_H 	H 	0.5411	0.378	0.6069	0.031
Mof_C 	C 	0.4218	0.1798	0.6367	-0.018
Mof_H 	H 	0.41	0.241	0.668	0.052
Mof_C 	C 	0.25468	0.9305	0.5584	0.451
Mof_C 	C 	0.28548	0.0044	0.6159	-0.144
Mof_C 	C 	0.33109	0.0109	0.6026	-0.02
Mof_H 	H 	0.3436	0.9675	0.5592	0.04
Mof_C 	C 	0.35822	0.0831	0.6548	0.048
Mof_C 	C 	0.3397	0.1427	0.7258	-0.013
Mof_H 	H 	0.3579	0.1891	0.7629	0.055
Mof_C 	C 	0.29455	0.1328	0.7409	-0.14
Mof_C 	C 	0.26733	0.0645	0.6845	0.072
Mof_H 	H 	0.2367	0.0592	0.6931	0.031
Mof_C 	C 	0.27404	0.1943	0.819	0.497
Mof_C 	C 	0.6455	0.454	0.2473	0.191
Mof_C 	C 	0.6273	0.5181	0.3795	0.19
Mof_N 	N 	0.40437	0.0908	0.6363	-0.11
Mof_N 	N 	0.64534	0.4358	0.3462	-0.289
Mof_N 	N 	0.6296	0.544	0.2262	-0.163
Mof_H 	H 	0.626	0.575	0.158	0.136
Mof_N 	N 	0.6175	0.5884	0.3105	-0.104
Mof_N 	N 	0.6555	0.3911	0.1714	-0.134
Mof_O 	O 	0.61739	0.3479	0.5407	-0.428
Mof_O 	O 	0.62299	0.1913	0.4977	-0.468
Mof_O 	O 	0.27058	0.8501	0.5303	-0.656
Mof_O 	O 	0.21322	0.9506	0.5402	-0.483
Mof_O 	O 	0.29982	0.2564	0.8669	-0.524
Mof_O 	O 	0.23365	0.1764	0.8304	-0.568
Mof_N 	N 	0.612	0.5397	0.4699	-0.12
Mof_Eu	Eu	0.81385	0.79709	0.0414	2.241
Mof_C 	C 	0.89837	0.7597	0.9656	0.332
Mof_C 	C 	0.9435	0.7383	0.9315	-0.111
Mof_C 	C 	0.9601	0.6416	0.9369	0.046
Mof_H 	H 	0.9423	0.5909	0.9588	0.03
Mof_C 	C 	0.0031	0.62	0.9101	-0.129
Mof_H 	H 	0.0133	0.5547	0.9106	0.084
Mof_C 	C 	0.0308	0.6964	0.8826	0.087
Mof_C 	C 	0.0135	0.7929	0.8749	-0.133
Mof_H 	H 	0.0313	0.8439	0.8536	0.089
Mof_C 	C 	0.9701	0.8135	0.8989	0.05
Mof_H 	H 	0.9589	0.878	0.8931	0.031
Mof_C 	C 	0.0782	0.6798	0.8633	-0.018
Mof_H 	H 	0.09	0.741	0.832	0.052
Mof_C 	C 	0.24532	0.4305	0.9416	0.45
Mof_C 	C 	0.21452	0.5044	0.8841	-0.143
Mof_C 	C 	0.16891	0.5109	0.8974	-0.02
Mof_H 	H 	0.1564	0.4675	0.9408	0.04
Mof_C 	C 	0.14178	0.5831	0.8452	0.048
Mof_C 	C 	0.1603	0.6427	0.7742	-0.013
Mof_H 	H 	0.1421	0.6891	0.7371	0.055
Mof_C 	C 	0.20545	0.6328	0.7591	-0.14
Mof_C 	C 	0.23267	0.5645	0.8155	0.072
Mof_H 	H 	0.2633	0.5592	0.8069	0.031
Mof_C 	C 	0.22596	0.6943	0.681	0.498
Mof_C 	C 	0.8545	0.954	0.2527	0.19
Mof_C 	C 	0.8727	0.0181	0.1205	0.191
Mof_N 	N 	0.09563	0.5908	0.8637	-0.11
Mof_N 	N 	0.85466	0.9358	0.1538	-0.29
Mof_N 	N 	0.8704	0.044	0.2738	-0.162
Mof_H 	H 	0.874	0.075	0.342	0.136
Mof_N 	N 	0.8825	0.0884	0.1895	-0.104
Mof_N 	N 	0.8445	0.8911	0.3286	-0.134
Mof_O 	O 	0.88261	0.8479	0.9593	-0.427
Mof_O 	O 	0.87701	0.6913	0.0023	-0.469
Mof_O 	O 	0.22942	0.3501	0.9697	-0.656
Mof_O 	O 	0.28678	0.4506	0.9598	-0.483
Mof_O 	O 	0.20018	0.7564	0.6331	-0.523
Mof_O 	O 	0.26635	0.6764	0.6696	-0.568
Mof_N 	N 	0.888	0.0397	0.0301	-0.12
Mof_Eu	Eu	0.31385	0.29709	0.0414	2.247
Mof_C 	C 	0.39837	0.2597	0.9656	0.329
Mof_C 	C 	0.4435	0.2383	0.9315	-0.11
Mof_C 	C 	0.4601	0.1416	0.9369	0.044
Mof_H 	H 	0.4423	0.0909	0.9588	0.03
Mof_C 	C 	0.5031	0.12	0.9101	-0.127
Mof_H 	H 	0.5133	0.0547	0.9106	0.083
Mof_C 	C 	0.5308	0.1964	0.8826	0.086
Mof_C 	C 	0.5135	0.2929	0.8749	-0.132
Mof_H 	H 	0.5313	0.3439	0.8536	0.089
Mof_C 	C 	0.4701	0.3135	0.8989	0.049
Mof_H 	H 	0.4589	0.378	0.8931	0.032
Mof_C 	C 	0.5782	0.1798	0.8633	-0.018
Mof_H 	H 	0.59	0.241	0.832	0.052
Mof_C 	C 	0.74532	0.9305	0.9416	0.451
Mof_C 	C 	0.71452	0.0044	0.8841	-0.144
Mof_C 	C 	0.66891	0.0109	0.8974	-0.024
Mof_H 	H 	0.6564	0.9675	0.9408	0.042
Mof_C 	C 	0.64178	0.0831	0.8452	0.049
Mof_C 	C 	0.6603	0.1427	0.7742	-0.013
Mof_H 	H 	0.6421	0.1891	0.7371	0.055
Mof_C 	C 	0.70545	0.1328	0.7591	-0.14
Mof_C 	C 	0.73267	0.0645	0.8155	0.072
Mof_H 	H 	0.7633	0.0592	0.8069	0.03
Mof_C 	C 	0.72596	0.1943	0.681	0.497
Mof_C 	C 	0.3545	0.454	0.2527	0.191
Mof_C 	C 	0.3727	0.5181	0.1205	0.19
Mof_N 	N 	0.59563	0.0908	0.8637	-0.11
Mof_N 	N 	0.35466	0.4358	0.1538	-0.289
Mof_N 	N 	0.3704	0.544	0.2738	-0.163
Mof_H 	H 	0.374	0.575	0.342	0.136
Mof_N 	N 	0.3825	0.5884	0.1895	-0.104
Mof_N 	N 	0.3445	0.3911	0.3286	-0.134
Mof_O 	O 	0.38261	0.3479	0.9593	-0.428
Mof_O 	O 	0.37701	0.1913	0.0023	-0.467
Mof_O 	O 	0.72942	0.8501	0.9697	-0.656
Mof_O 	O 	0.78678	0.9506	0.9598	-0.482
Mof_O 	O 	0.70018	0.2564	0.6331	-0.523
Mof_O 	O 	0.76635	0.1764	0.6696	-0.568
Mof_N 	N 	0.388	0.5397	0.0301	-0.12
_end
