# CIF file generated by openbabel 3.1.0, see https://openbabel.org
data_I
_chemical_name_common 'ja905009e_si_002_clean'
_cell_length_a 15.0956
_cell_length_b 15.5069
_cell_length_c 25.7271
_cell_angle_alpha 81.8967
_cell_angle_beta 73.1662
_cell_angle_gamma 60.8735
_space_group_name_H-M_alt 'P 1'
_space_group_name_Hall 'P 1'
loop_
    _symmetry_equiv_pos_as_xyz
    x,y,z
loop_
    _atom_site_label
    _atom_site_type_symbol
    _atom_site_fract_x
    _atom_site_fract_y
    _atom_site_fract_z
    _atom_site_occupancy
    Zn1      Zn       0.39406    0.42180    0.82973    1.000
    Zn2      Zn       0.18414    0.42180    0.67027    1.000
    Zn3      Zn       0.28443    0.08146    0.83878    1.000
    Zn4      Zn       0.71557    0.91854    0.16122    1.000
    Zn5      Zn       0.63411    0.08146    0.66122    1.000
    Zn6      Zn       0.36589    0.91854    0.33878    1.000
    Zn7      Zn       0.60594    0.57820    0.17027    1.000
    Zn8      Zn       0.81586    0.57820    0.32973    1.000
    Mo1      Mo       0.58429    0.81934    0.11238    1.000
    Mo2      Mo       0.15342    0.50628    0.79872    1.000
    Mo3      Mo       0.41571    0.18066    0.88762    1.000
    Mo4      Mo       0.55856    0.00208    0.29181    1.000
    Mo5      Mo       0.84658    0.49372    0.20128    1.000
    Mo6      Mo       0.45733    0.31830    0.60879    1.000
    Mo7      Mo       0.40363    0.18066    0.61238    1.000
    Mo8      Mo       0.09151    0.32226    0.79539    1.000
    Mo9      Mo       0.18988    0.18496    0.72139    1.000
    Mo10     Mo       0.54267    0.68170    0.39121    1.000
    Mo11     Mo       0.77563    0.68170    0.10879    1.000
    Mo12     Mo       0.59637    0.81934    0.38762    1.000
    Mo13     Mo       0.22437    0.31830    0.89121    1.000
    Mo14     Mo       0.90849    0.67774    0.20461    1.000
    Mo15     Mo       0.56064    0.99792    0.79181    1.000
    Mo16     Mo       0.34030    0.50628    0.70128    1.000
    Mo17     Mo       0.41377    0.67774    0.29539    1.000
    Mo18     Mo       0.81012    0.81504    0.27861    1.000
    Mo19     Mo       0.58623    0.32226    0.70461    1.000
    Mo20     Mo       0.62516    0.18496    0.77861    1.000
    Mo21     Mo       0.37484    0.81504    0.22139    1.000
    Mo22     Mo       0.65970    0.49372    0.29872    1.000
    Mo23     Mo       0.43936    0.00208    0.20819    1.000
    Mo24     Mo       0.44144    0.99792    0.70819    1.000
    H1       H        0.60490    0.33580    0.97540    1.000
    H2       H        0.04260    0.10320    0.43550    1.000
    H3       H        0.04370    0.83560    0.99620    1.000
    H4       H        0.62450    0.39740    0.04620    1.000
    H5       H        0.14580    0.89680    0.93550    1.000
    H6       H        0.95630    0.16440    0.00380    1.000
    H7       H        0.02190    0.60260    0.54620    1.000
    H8       H        0.12070    0.83560    0.50380    1.000
    H9       H        0.95740    0.89680    0.56450    1.000
    H10      H        0.85420    0.10320    0.06450    1.000
    H11      H        0.94070    0.66420    0.47540    1.000
    H12      H        0.05930    0.33580    0.52460    1.000
    H13      H        0.39510    0.66420    0.02460    1.000
    H14      H        0.87930    0.16440    0.49620    1.000
    H15      H        0.37550    0.60260    0.95380    1.000
    H16      H        0.97810    0.39740    0.45380    1.000
    C1       C        0.97389    0.09822    0.00223    1.000
    C2       C        0.43720    0.59800    0.01505    1.000
    C3       C        0.02575    0.06150    0.46134    1.000
    C4       C        0.20362    0.91896    0.42281    1.000
    C5       C        0.92789    0.09822    0.49777    1.000
    C6       C        0.51056    0.53648    0.04331    1.000
    C7       C        0.01290    0.56100    0.52792    1.000
    C8       C        0.06179    0.03662    0.96318    1.000
    C9       C        0.98710    0.43900    0.47208    1.000
    C10      C        0.04704    0.46352    0.54331    1.000
    C11      C        0.90050    0.57880    0.41119    1.000
    C12      C        0.93821    0.96338    0.03682    1.000
    C13      C        0.57390    0.43900    0.02792    1.000
    C14      C        0.47930    0.42120    0.91119    1.000
    C15      C        0.42610    0.56100    0.97208    1.000
    C16      C        0.90159    0.03662    0.53682    1.000
    C17      C        0.79638    0.08104    0.57719    1.000
    C18      C        0.56280    0.40200    0.98495    1.000
    C19      C        0.09841    0.96338    0.46318    1.000
    C20      C        0.02611    0.90178    0.99777    1.000
    C21      C        0.09950    0.42120    0.58881    1.000
    C22      C        0.07211    0.90178    0.50223    1.000
    C23      C        0.03520    0.40200    0.51505    1.000
    C24      C        0.97425    0.93850    0.53866    1.000
    C25      C        0.48944    0.46352    0.95669    1.000
    C26      C        0.12258    0.08104    0.92281    1.000
    C27      C        0.91275    0.06150    0.03866    1.000
    C28      C        0.52070    0.57880    0.08881    1.000
    C29      C        0.87742    0.91896    0.07719    1.000
    C30      C        0.95296    0.53648    0.45669    1.000
    C31      C        0.08725    0.93850    0.96134    1.000
    C32      C        0.96480    0.59800    0.48495    1.000
    O1       O        0.46312    0.04076    0.63862    1.000
    O2       O        0.57788    0.98844    0.21254    1.000
    O3       O        0.16571    0.45978    0.86663    1.000
    O4       O        0.79358    0.97884    0.11109    1.000
    O5       O        0.43368    0.98844    0.28746    1.000
    O6       O        0.32030    0.32330    0.62556    1.000
    O7       O        0.29827    0.49300    0.78269    1.000
    O8       O        0.34416    0.95628    0.22197    1.000
    O9       O        0.79127    0.50700    0.28269    1.000
    O10      O        0.70173    0.50700    0.21731    1.000
    O11      O        0.67970    0.67670    0.37444    1.000
    O12      O        0.44309    0.81782    0.14017    1.000
    O13      O        0.93654    0.53678    0.20623    1.000
    O14      O        0.77242    0.02116    0.61109    1.000
    O15      O        0.10472    0.48176    0.61572    1.000
    O16      O        0.62549    0.54022    0.36663    1.000
    O17      O        0.50388    0.95924    0.13862    1.000
    O18      O        0.52988    0.32820    0.78347    1.000
    O19      O        0.47332    0.46322    0.70623    1.000
    O20      O        0.73909    0.81782    0.35983    1.000
    O21      O        0.42212    0.01156    0.78746    1.000
    O22      O        0.64360    0.67670    0.12556    1.000
    O23      O        0.37451    0.45978    0.63337    1.000
    O24      O        0.08868    0.17084    0.92485    1.000
    O25      O        0.55691    0.18218    0.85983    1.000
    O26      O        0.29445    0.17548    0.87862    1.000
    O27      O        0.49612    0.04076    0.86138    1.000
    O28      O        0.56632    0.01156    0.71254    1.000
    O29      O        0.89528    0.51824    0.38428    1.000
    O30      O        0.46993    0.82452    0.37862    1.000
    O31      O        0.41352    0.48176    0.88428    1.000
    O32      O        0.25952    0.82916    0.42485    1.000
    O33      O        0.46495    0.66770    0.09696    1.000
    O34      O        0.20873    0.49300    0.71731    1.000
    O35      O        0.86735    0.66770    0.40304    1.000
    O36      O        0.36136    0.82072    0.29853    1.000
    O37      O        0.41915    0.68034    0.37365    1.000
    O38      O        0.83429    0.54022    0.13337    1.000
    O39      O        0.06346    0.46322    0.79377    1.000
    O40      O        0.09949    0.31966    0.87365    1.000
    O41      O        0.26091    0.18218    0.64017    1.000
    O42      O        0.91132    0.82916    0.07515    1.000
    O43      O        0.20642    0.02116    0.88891    1.000
    O44      O        0.53505    0.33230    0.90304    1.000
    O45      O        0.81792    0.82072    0.20147    1.000
    O46      O        0.90051    0.68034    0.12635    1.000
    O47      O        0.35640    0.32330    0.87444    1.000
    O48      O        0.18208    0.17928    0.79853    1.000
    O49      O        0.22758    0.97884    0.38891    1.000
    O50      O        0.65584    0.04372    0.77803    1.000
    O51      O        0.69956    0.95628    0.27803    1.000
    O52      O        0.53007    0.17548    0.62138    1.000
    O53      O        0.85808    0.67180    0.28347    1.000
    O54      O        0.58085    0.31966    0.62635    1.000
    O55      O        0.70555    0.82452    0.12138    1.000
    O56      O        0.63864    0.17928    0.70147    1.000
    O57      O        0.58648    0.51824    0.11572    1.000
    O58      O        0.74048    0.17084    0.57515    1.000
    O59      O        0.14192    0.32820    0.71653    1.000
    O60      O        0.30044    0.04372    0.72197    1.000
    O61      O        0.52668    0.53678    0.29377    1.000
    O62      O        0.47012    0.67180    0.21653    1.000
    O63      O        0.13265    0.33230    0.59696    1.000
    O64      O        0.53688    0.95924    0.36138    1.000
